#------------------------------------------------------------------------------
#$Date: 2019-11-04 08:39:27 +0200 (Mon, 04 Nov 2019) $
#$Revision: 222252 $
#$URL: file:///home/coder/svn-repositories/cod/cif/4/03/36/4033676.cif $
#------------------------------------------------------------------------------
#
# This file is available in the Crystallography Open Database (COD),
# http://www.crystallography.net/
#
# All data on this site have been placed in the public domain by the
# contributors.
#
data_4033676
loop_
_publ_author_name
'Bodzioch, Agnieszka'
'Pomik\/lo, Dominika'
'Celeda, Ma\/lgorzata'
'Pietrzak, Anna'
'Kaszy\'nski, Piotr'
_publ_section_title
;
 3-Substituted Benzo[ e][1,2,4]triazines: Synthesis and Electronic Effects
 of the C(3) Substituent.
;
_journal_issue                   10
_journal_name_full               'The Journal of organic chemistry'
_journal_page_first              6377
_journal_page_last               6394
_journal_paper_doi               10.1021/acs.joc.9b00716
_journal_volume                  84
_journal_year                    2019
_chemical_formula_moiety         'C7 H4 I N3'
_chemical_formula_sum            'C7 H4 I N3'
_chemical_formula_weight         257.03
_space_group_crystal_system      monoclinic
_space_group_IT_number           14
_space_group_name_Hall           '-P 2ybc'
_space_group_name_H-M_alt        'P 1 21/c 1'
_atom_sites_solution_hydrogens   geom
_atom_sites_solution_primary     other
_audit_creation_method           SHELXL-2018/1
_audit_update_record
;
2018-10-16 deposited with the CCDC.	2019-03-12 downloaded from the CCDC.
;
_cell_angle_alpha                90
_cell_angle_beta                 99.754(2)
_cell_angle_gamma                90
_cell_formula_units_Z            4
_cell_length_a                   4.39010(10)
_cell_length_b                   13.3290(3)
_cell_length_c                   12.9278(3)
_cell_measurement_reflns_used    10820
_cell_measurement_temperature    100(1)
_cell_measurement_theta_max      80.9090
_cell_measurement_theta_min      4.7280
_cell_volume                     745.54(3)
_computing_cell_refinement       'CrysAlisPro 1.171.39.45g (Rigaku OD, 2018)'
_computing_data_collection       'CrysAlisPro 1.171.39.45g (Rigaku OD, 2018)'
_computing_data_reduction        'CrysAlisPro 1.171.39.45g (Rigaku OD, 2018)'
_computing_structure_refinement  'SHELXL-2018/1 (Sheldrick, 2018)'
_computing_structure_solution    'ShelXT (Sheldrick, 2015)'
_diffrn_ambient_temperature      100(1)
_diffrn_measured_fraction_theta_full 1.000
_diffrn_measured_fraction_theta_max 1.000
_diffrn_measurement_device_type
'SuperNova, Dual, Cu at home/near, Pilatus 200K'
_diffrn_measurement_method       '\w scans'
_diffrn_radiation_type           CuK\a
_diffrn_radiation_wavelength     1.54184
_diffrn_reflns_av_R_equivalents  0.0636
_diffrn_reflns_av_unetI/netI     0.0204
_diffrn_reflns_Laue_measured_fraction_full 1.000
_diffrn_reflns_Laue_measured_fraction_max 1.000
_diffrn_reflns_limit_h_max       5
_diffrn_reflns_limit_h_min       -5
_diffrn_reflns_limit_k_max       15
_diffrn_reflns_limit_k_min       -15
_diffrn_reflns_limit_l_max       15
_diffrn_reflns_limit_l_min       -15
_diffrn_reflns_number            18664
_diffrn_reflns_point_group_measured_fraction_full 1.000
_diffrn_reflns_point_group_measured_fraction_max 1.000
_diffrn_reflns_theta_full        67.071
_diffrn_reflns_theta_max         67.071
_diffrn_reflns_theta_min         4.802
_diffrn_source                   'micro-focus sealed X-ray tube'
_exptl_absorpt_coefficient_mu    33.184
_exptl_absorpt_correction_T_max  1.000
_exptl_absorpt_correction_T_min  0.856
_exptl_absorpt_correction_type   gaussian
_exptl_absorpt_process_details
;
CrysAlisPro 1.171.39.45g (Rigaku Oxford Diffraction, 2018)
Numerical absorption correction based on gaussian integration over
			a multifaceted crystal model
Empirical absorption correction using spherical harmonics,
 implemented in SCALE3 ABSPACK scaling algorithm.
;
_exptl_crystal_colour            yellow
_exptl_crystal_density_diffrn    2.290
_exptl_crystal_description       prism
_exptl_crystal_F_000             480
_exptl_crystal_size_max          0.144
_exptl_crystal_size_mid          0.039
_exptl_crystal_size_min          0.033
_refine_diff_density_max         1.704
_refine_diff_density_min         -1.467
_refine_diff_density_rms         0.173
_refine_ls_extinction_method     none
_refine_ls_goodness_of_fit_ref   1.052
_refine_ls_hydrogen_treatment    constr
_refine_ls_matrix_type           full
_refine_ls_number_parameters     100
_refine_ls_number_reflns         1335
_refine_ls_number_restraints     0
_refine_ls_restrained_S_all      1.052
_refine_ls_R_factor_all          0.0321
_refine_ls_R_factor_gt           0.0307
_refine_ls_shift/su_max          0.000
_refine_ls_shift/su_mean         0.000
_refine_ls_structure_factor_coef Fsqd
_refine_ls_weighting_details
'w=1/[\s^2^(Fo^2^)+(0.0614P)^2^+0.1965P] where P=(Fo^2^+2Fc^2^)/3'
_refine_ls_weighting_scheme      calc
_refine_ls_wR_factor_gt          0.0793
_refine_ls_wR_factor_ref         0.0805
_reflns_Friedel_coverage         0.000
_reflns_number_gt                1265
_reflns_number_total             1335
_reflns_threshold_expression     'I > 2\s(I)'
_cod_data_source_file            jo9b00716_si_003.cif
_cod_data_source_block           r6
_cod_original_sg_symbol_H-M      'P 21/c'
_cod_database_code               4033676
_shelx_shelxl_version_number     2018/1
_shelx_space_group_comment
;
The symmetry employed for this shelxl refinement is uniquely defined
by the following loop, which should always be used as a source of
symmetry information in preference to the above space-group names.
They are only intended as comments.
;
_oxdiff_exptl_absorpt_empirical_full_min 0.511
_oxdiff_exptl_absorpt_empirical_full_max 5.121
_oxdiff_exptl_absorpt_empirical_details
;
Empirical correction (ABSPACK) includes:
- Absorption correction using spherical harmonics
- Frame scaling
- B-factor correction
;
_shelx_res_file
;
TITL r6-s3-c-04.04_a.res in P2(1)/c
    r6-S3-C-04.04.res
    created by SHELXL-2018/1 at 09:35:49 on 10-Apr-2018
REM Old TITL r6-S3-C-04 in P2(1)/c
REM SHELXT solution in P2(1)/c
REM R1 0.072, Rweak 0.002, Alpha 0.024, Orientation as input
REM Formula found by SHELXT: C7 N3 I
CELL 1.54184 4.3901 13.329 12.9278 90 99.754 90
ZERR 4 0.0001 0.0003 0.0003 0 0.002 0
LATT 1
SYMM -X,0.5+Y,0.5-Z
SFAC C H I N
UNIT 28 16 4 12

L.S. 30
PLAN  20
BOND $H
LIST 4
fmap 2
acta
SHEL 99 0.837
REM <olex2.extras>
REM <HklSrc "%.\\r6-S3-C-04.04.hkl">
REM </olex2.extras>

WGHT    0.061400    0.196500
FVAR       1.64038
I1    3    0.016339    0.519836    0.748490    11.00000    0.02779    0.01719 =
         0.02903   -0.00040    0.01146    0.00113
N3    4    0.307567    0.411462    0.593327    11.00000    0.02287    0.01797 =
         0.02895   -0.00081    0.00660    0.00080
N2    4    0.141414    0.221934    0.655672    11.00000    0.02920    0.01765 =
         0.03051    0.00222    0.00685   -0.00324
N1    4    0.060923    0.303242    0.703235    11.00000    0.02746    0.01869 =
         0.03105    0.00146    0.00712   -0.00075
C8    1    0.392179    0.328883    0.543689    11.00000    0.02712    0.01552 =
         0.02877    0.00162    0.00304   -0.00082
C3    1    0.305330    0.232486    0.575580    11.00000    0.02431    0.01990 =
         0.02599    0.00133    0.00308   -0.00107
C1    1    0.150958    0.393768    0.669110    11.00000    0.01901    0.01924 =
         0.02828   -0.00150    0.00700    0.00000
C6    1    0.638641    0.253773    0.411425    11.00000    0.03043    0.02455 =
         0.02450    0.00265    0.00453    0.00023
AFIX  43
H6    2    0.750648    0.259591    0.356764    11.00000   -1.20000
AFIX   0
C5    1    0.549466    0.156879    0.442248    11.00000    0.03136    0.01668 =
         0.03563   -0.00523    0.00385    0.00383
AFIX  43
H5    2    0.602193    0.100344    0.406993    11.00000   -1.20000
AFIX   0
C7    1    0.561733    0.338152    0.461118    11.00000    0.02731    0.01459 =
         0.03152    0.00086    0.00792   -0.00081
AFIX  43
H7    2    0.620860    0.401084    0.440572    11.00000   -1.20000
AFIX   0
C4    1    0.387845    0.146125    0.522778    11.00000    0.03167    0.01427 =
         0.03357    0.00075    0.00512   -0.00348
AFIX  43
H4    2    0.332237    0.082628    0.542876    11.00000   -1.20000
AFIX   0
HKLF 4




REM  r6-s3-c-04.04_a.res in P2(1)/c
REM R1 =  0.0307 for    1265 Fo > 4sig(Fo)  and  0.0321 for all    1335 data
REM    100 parameters refined using      0 restraints

END

WGHT      0.0614      0.1965

REM Highest difference peak  1.704,  deepest hole -1.467,  1-sigma level  0.173
Q1    1   0.0041  0.4756  0.7473  11.00000  0.05    1.70
Q2    1   0.0414  0.5193  0.8374  11.00000  0.05    1.37
Q3    1  -0.0115  0.5284  0.6649  11.00000  0.05    1.36
Q4    1   0.3410  0.5164  0.7349  11.00000  0.05    0.43
Q5    1  -0.3134  0.5219  0.7511  11.00000  0.05    0.40
Q6    1   0.3367  0.2721  0.5615  11.00000  0.05    0.40
Q7    1   0.7730  0.0288  0.5841  11.00000  0.05    0.37
Q8    1   0.2142  0.4708  0.4155  11.00000  0.05    0.36
Q9    1   0.0057  0.3173  0.7630  11.00000  0.05    0.35
Q10   1   0.3275  0.4026  0.6825  11.00000  0.05    0.34
Q11   1   0.0140  0.4885  0.5711  11.00000  0.05    0.33
Q12   1   0.0711  0.0110  0.5805  11.00000  0.05    0.33
Q13   1   0.3355  0.1905  0.5424  11.00000  0.05    0.32
Q14   1   0.6640  0.2330  0.4383  11.00000  0.05    0.32
Q15   1   0.1153  0.1296  0.6732  11.00000  0.05    0.31
Q16   1  -0.0593  0.0886  0.5952  11.00000  0.05    0.28
Q17   1   0.3226  0.0852  0.5995  11.00000  0.05    0.28
Q18   1   0.3809  0.1719  0.5547  11.00000  0.05    0.27
Q19   1   0.6037  0.3233  0.4446  11.00000  0.05    0.27
Q20   1   0.5819  0.0003  0.5813  11.00000  0.05    0.26
;
_shelx_res_checksum              29416
_shelx_hkl_file
;
   0   0  -1-12.2759 14.1236  18
   0   0  -1-2.76485 78.3602   5
   0   0   1 46.9143 18.3420   9
   0   0   2 41507.3 1950.03   9
   0   0  -2 37223.1 1949.67  18
   0   0   2 37655.7 1949.30  14
   0   0  -2 44220.8 1950.55  21
   0   0   2 38696.9 1942.89   8
   0   0  -2 39728.3 1949.33  16
   0   0   3 32.8233 36.7106   9
   0   0   3 12.4391 36.5510  14
   0   0   3 35.7955 14.5071   8
   0   0   3 64.3850 42.0244  23
   0   0  -3 41.3961 33.4728  16
   0   0  -3 49.0957 42.8072  21
   0   0   4 58573.3 2796.45   9
   0   0   4 57218.6 2779.53   8
   0   0  -4 59676.4 2802.92  15
   0   0  -4 57939.8 2801.33  16
   0   0   4 60044.2 2802.77  14
   0   0  -4 52774.6 2802.59  21
   0   0   4 57970.1 2799.47  23
   0   0   5 5.47273 37.1903   9
   0   0   5 6.49962 45.8358  23
   0   0  -5 68.6343 71.2373  18
   0   0   5-11.2369 47.6964  14
   0   0  -5-7.39280 46.9480  15
   0   0  -5-11.1159 42.4457  16
   0   0   6 61236.4 2806.36   2
   0   0  -6 57757.3 2810.16  15
   0   0  -6 54387.1 2810.40  16
   0   0   6 53298.9 2802.15  23
   0   0   6 56027.7 2796.69   9
   0   0   6 61892.2 2815.92  13
   0   0   6 58381.1 2810.59  14
   0   0  -7 49.8440 56.3898  16
   0   0  -7-6.92166 76.7238  12
   0   0  -7 47.4326 58.6332  15
   0   0   7-15.5236 43.1650   9
   0   0   7-14.3553 46.2986  23
   0   0   7 23.0286 49.9337  14
   0   0   7-10.2339 38.0063   2
   0   0   7 53.7976 57.5766  13
   0   0   8 18726.8 901.913  13
   0   0  -8 17538.8 898.567  15
   0   0   8 15869.0 880.831  23
   0   0   8 17739.8 886.222   6
   0   0  -8 16251.0 887.647  33
   0   0  -8 17773.0 906.273  16
   0   0   8 17691.4 896.092  14
   0   0   9 33.9099 45.5934   6
   0   0  -9 38.6956 82.7733  52
   0   0  -9 6.58823 76.4439  37
   0   0   9 39.5103 55.9844  14
   0   0  -9 37.9423 48.7814  29
   0   0  -9 173.985 92.4361  51
   0   0  -9 41.6996 65.6110  15
   0   0   9 6.14096 50.2434  23
   0   0   9 16.0771 62.8133  13
   0   0 -10 25402.5 1280.25  51
   0   0 -10 24423.2 1291.40  15
   0   0 -10 25613.6 1295.78  12
   0   0 -10 23705.3 1250.45  29
   0   0 -10 24221.7 1272.72  37
   0   0  10 26987.1 1292.57  20
   0   0 -10 23039.3 1284.40  44
   0   0  10 26293.9 1289.75  13
   0   0  10 25774.3 1276.24   6
   0   0  10 25869.0 1286.58  14
   0   0 -10 25256.6 1278.03  52
   0   0  11-35.9176 61.4386  14
   0   0  11 40.3625 47.2639   6
   0   0  11 183.533 81.3448  20
   0   0 -11-31.7733 95.5214  52
   0   0  11 18.2898 62.5708  13
   0   0 -11 10.0255 83.0028  12
   0   0 -11-28.7713 103.376  44
   0   0 -11-7.28317 82.6346  37
   0   0 -11 152.391 102.923  51
   0   0 -11-30.0760 75.5856  15
   0   0 -11-5.29391 58.6867  29
   0   0 -12 15373.4 811.822  51
   0   0  12 16385.5 819.080  20
   0   0 -12 14239.1 804.295  52
   0   0 -12 14285.7 777.795  29
   0   0 -12 13960.5 820.555  44
   0   0  12 16541.7 815.158  14
   0   0 -12 17367.0 831.128  12
   0   0 -12 14260.9 815.840  15
   0   0  12 15186.3 810.491  13
   0   0  13-40.5264 78.6032  56
   0   0  13-72.2778 59.6565  24
   0   0 -13 8.45940 69.1816  12
   0   0  13-15.8225 61.3807  20
   0   0 -13-36.2563 88.9482  52
   0   0 -13-35.4362 94.5695  51
   0   0 -13-3.92920 50.5575  29
   0   0  13 8.08866 52.3003  13
   0   0 -14 7899.13 465.594  51
   0   0 -14 8578.16 470.983  52
   0   0 -14 9101.13 465.991  36
   0   0  15 20.6342 33.3435  50
   0   0 -15-20.6316 56.7141  52
   0   1   0-3.50396 16.2473   5
   0   1   0 0.51445 9.99291  56
   0   1   0-2.33390 9.90302  13
   0  -1   0-7.87998 29.7912   5
   0   1   0 5.69813 71.8549   8
   0   1   0 20.3092 8.27953   7
   0  -1  -1 1135.69 63.0461   2
   0   1   1 1663.23 143.795   8
   0  -1   1 1430.84 96.8275  19
   0  -1  -1 998.383 62.5873   6
   0  -1   1 1239.24 78.8533   8
   0  -1  -1 1232.90 103.944   8
   0   1  -1 1158.19 71.3316  16
   0  -1  -1 1152.92 66.3753  17
   0  -1  -1 1238.95 103.927  11
   0   1   1 1179.77 63.5218   2
   0  -1   1 1178.23 89.9878  17
   0   1   1 1084.59 62.6370  13
   0  -1   1 1117.46 73.4089  11
   0   1  -1 1468.93 65.9871   8
   0   1   1 1072.05 60.2655  14
   0   1   1 1188.66 63.2106  20
   0   1   2 5095.23 255.040   9
   0  -1  -2 4620.86 253.514  17
   0   1  -2 5762.82 271.187  16
   0  -1   2 7069.17 279.379  17
   0   1   2 4863.75 259.449  14
   0  -1   2 6784.95 290.436   9
   0  -1   2 7308.63 287.128  19
   0   1   2 5562.45 262.539   2
   0   1   2 5537.57 263.760  13
   0   1   2 5153.71 261.603   6
   0  -1   3 2118.59 128.011   9
   0  -1  -3 1499.27 102.830  11
   0   1   3 2005.06 102.476   2
   0   1   3 1610.63 91.7255   9
   0   1  -3 1838.29 112.039  16
   0  -1  -3 1703.09 118.708  18
   0   1  -3 2906.44 182.717   5
   0   1  -3 1671.88 107.848  18
   0   1   3 1681.11 98.8405  14
   0  -1  -3 1513.91 93.9534  22
   0  -1  -3 1625.92 100.408   8
   0   1   3 1531.53 94.5420  23
   0  -1   3 2027.95 113.786  19
   0  -1  -3 2301.37 147.690   5
   0  -1   3 1994.24 104.424  17
   0  -1  -4 2386.31 170.558  18
   0   1   4 2549.82 148.092  23
   0   1   4 3043.59 159.135  13
   0  -1  -4 2910.21 160.647  15
   0  -1  -4 2905.57 143.881  22
   0   1  -4 2964.49 166.684  18
   0  -1  -4 2346.94 145.351  11
   0  -1   4 2537.59 149.298  19
   0   1  -4 2810.98 162.447  21
   0   1   4 2755.18 145.242   9
   0   1  -4 3228.49 169.357  16
   0  -1   4 3283.65 169.352   9
   0  -1  -4 2826.75 164.723  21
   0  -1   4 2461.52 141.113  17
   0   1   4 2807.91 154.263  14
   0  -1  -4 3345.83 180.753   5
   0  -1   4 2927.20 168.101  14
   0  -1  -4 2304.95 155.164  16
   0  -1   4 3032.40 171.306  23
   0   1  -5 172.227 52.9015  16
   0  -1   5 47.8732 50.7790  23
   0  -1  -5 111.197 46.4965  15
   0   1  -5 50.5803 56.3412  21
   0   1  -5 64.8058 62.4333  18
   0   1   5 65.3131 28.7780   9
   0   1   5 96.2913 43.4652  13
   0   1   5 71.3567 39.1357  14
   0   1   5 14.2950 33.9779  23
   0  -1  -5 66.9563 42.0153  16
   0  -1   5 82.0901 53.2458  14
   0  -1   5 49.7257 51.1425   9
   0   1   6 362.692 52.9376  23
   0  -1   6 295.211 66.7452  23
   0   1  -6 296.578 77.2247  21
   0   1   6 260.691 47.1412   2
   0  -1   6 326.770 60.1240   9
   0   1   6 314.403 59.8924  13
   0   1  -6 294.790 66.2886  16
   0   1   6 336.605 42.3359   9
   0   1   6 337.659 57.0595  14
   0   1  -6 359.598 71.0421  15
   0  -1  -6 350.818 62.9475  15
   0  -1   6 322.302 67.8196  14
   0   1  -7 716.500 92.7324  15
   0   1   7 658.517 71.3336   2
   0   1   7 837.192 85.5408  13
   0   1   7 652.915 72.6586   6
   0  -1  -7 739.309 116.562  12
   0  -1  -7 776.662 94.4568  15
   0   1   7 677.889 80.1695  14
   0  -1   7 788.918 88.2767  23
   0   1   7 652.568 70.5864  23
   0  -1   7 769.782 90.1630  14
   0  -1   7 642.200 76.4033   9
   0   1  -7 755.874 101.812  12
   0   1  -7 747.325 95.7776  16
   0  -1   8 295.437 73.0145  13
   0  -1  -8 135.103 70.4470  52
   0   1   8 224.799 59.0769  14
   0   1   8 271.644 54.6307   6
   0   1  -8 217.193 67.6380  33
   0   1  -8 161.471 70.3626  15
   0  -1   8 258.125 68.1743  23
   0   1  -8 171.731 69.8878  16
   0  -1  -8 422.490 103.070  12
   0  -1  -8 278.340 75.0553  44
   0  -1  -8 279.030 74.7213  15
   0  -1   8 262.304 56.9087   9
   0   1   8 256.117 68.3743  13
   0  -1   8 276.314 67.6793  14
   0   1  -8 148.613 75.7780  12
   0  -1   9 162.935 69.8279  13
   0   1   9 65.5632 56.9505  14
   0  -1  -9 113.086 56.8399  29
   0  -1  -9 171.785 76.2271  15
   0   1  -9 107.231 47.4484  29
   0  -1  -9 268.806 83.3165  52
   0   1   9 217.333 67.6888  13
   0   1  -9 224.469 71.2546  46
   0  -1  -9 186.000 82.2088  44
   0  -1   9 204.954 69.0655  23
   0   1  -9 59.1961 71.3004  33
   0   1  -9 128.631 74.2972  15
   0  -1  -9 133.952 90.7582  12
   0   1  -9 169.177 78.2634  12
   0  -1  -9 93.4699 95.2690  51
   0  -1   9 120.307 65.9629  14
   0   1  -9 58.4283 72.1228  16
   0   1   9 139.378 54.3912   6
   0   1   9 164.118 66.4985  20
   0  -1  -9 168.007 84.3122  37
   0   1  -9 285.893 83.7147  51
   0  -1 -10 116.396 91.2230  52
   0  -1  10 69.5024 49.9804   6
   0   1 -10 9.08843 52.6050  29
   0  -1  10 43.4225 62.0570  13
   0   1  10 75.7101 45.9757   6
   0   1 -10 35.7733 81.7980  12
   0   1  10 48.8705 55.7760  14
   0  -1 -10 129.472 105.604  51
   0  -1  10 21.6117 57.0873  23
   0  -1  10 79.0625 61.7361  14
   0   1  10 26.1379 62.7652  13
   0  -1 -10 76.0255 85.4430  37
   0   1 -10 76.3717 80.2378  41
   0  -1 -10 30.9939 59.5407  32
   0   1 -10 47.7137 73.5514  15
   0  -1 -10 63.0473 58.8774  29
   0  -1 -10 27.9147 71.7202  15
   0   1 -10 33.2739 78.8946  51
   0  -1 -10 78.6539 96.2398  44
   0   1  10 17.1206 65.9878  20
   0   1 -10 22.3480 97.0635  52
   0   1 -11 199.149 85.0242  41
   0   1  11 51.7430 60.6420  14
   0   1  11 82.5153 73.1412  20
   0   1  11 88.6587 79.1954  56
   0  -1 -11 256.809 107.378  52
   0   1 -11 49.1184 84.4366  51
   0  -1  11 47.8038 46.7471   6
   0  -1 -11 5.71723 63.4513  29
   0  -1 -11-4.29482 55.3406  32
   0   1 -11 117.958 95.1598  52
   0  -1  11 107.951 76.7772  20
   0  -1  11 9.03677 61.9058  14
   0   1 -11 82.1031 57.1467  29
   0  -1 -11 136.307 116.352  51
   0  -1  11 133.057 65.9592  13
   0   1  11 40.2748 50.0457   6
   0   1  11 177.442 73.0180  13
   0  -1 -11 89.0915 77.3883  15
   0   1 -11-37.6989 83.5988  12
   0  -1 -11 29.0492 90.3345  44
   0  -1 -11 108.824 92.7106  37
   0  -1 -12 155.219 93.1935  12
   0  -1  12 10.5931 78.1027  56
   0  -1 -12-8.93043 109.555  51
   0   1  12 119.141 69.1185  20
   0   1 -12-4.55859 52.2544  29
   0   1  12 46.7544 60.4795  13
   0  -1 -12 11.0864 64.3311  29
   0   1  12 50.6891 59.3564  14
   0  -1  12 69.6642 61.6961  14
   0   1 -12 7.73706 91.7025  52
   0  -1  12 93.6510 61.8089  13
   0  -1 -12 157.119 78.2888  15
   0   1 -12-53.9395 74.4493  12
   0   1 -12 69.4842 90.3057  51
   0  -1 -12 89.7383 100.082  52
   0   1 -12-70.6146 82.1870  41
   0  -1 -12-78.8409 100.751  44
   0  -1 -13 63.8643 104.508  51
   0  -1  13 28.7808 67.9551  56
   0   1 -13 139.517 89.5258  52
   0   1  13-8.51775 57.7712  13
   0   1  13-8.29762 59.7510  20
   0   1 -13 122.819 84.7869  51
   0  -1 -13 126.482 99.5160  52
   0   1  13 123.852 64.5133  24
   0  -1 -13 45.1315 67.5636  15
   0  -1 -13-32.6082 84.3333  36
   0  -1  13 30.5065 51.2594  13
   0  -1  13 30.6734 50.5770  14
   0  -1 -13 8.97904 74.3505  12
   0   1 -13-52.0959 76.9764  15
   0  -1 -14 91.9630 88.1084  51
   0  -1 -14 36.4573 74.8542  36
   0   1  14 25.2421 52.4682  50
   0   1 -14 62.1283 75.7346  52
   0   1 -14 20.9123 63.8943  51
   0  -1 -14 18.0287 78.6847  52
   0  -1 -15 310.201 70.0368  52
   0   1 -15 401.976 69.5563  52
   0  -1  15 273.405 48.2166  50
   0  -1 -15 363.273 64.2321  36
   0   2   0 24245.1 1196.63  24
   0  -2   0 26569.2 1203.13   5
   0   2   0 25760.2 1197.20  25
   0   2   0 23751.1 1195.68  10
   0   2   0 23567.9 1192.02   7
   0  -2   0 31120.8 1221.32  19
   0   2   0 23098.6 1194.01  13
   0  -2   0 29208.1 1217.32  11
   0  -2   0 31206.5 1222.22   8
   0   2   0 22813.6 1195.14  56
   0   2   0 23818.3 1194.94  20
   0   2  -1 298.968 36.7834  10
   0   2  -1 368.420 41.7144  24
   0  -2   1 507.794 80.9884  17
   0   2  -1 360.340 22.5724  12
   0  -2   1 318.408 70.1627   9
   0  -2   1 315.775 68.6051   8
   0   2  -1 430.278 88.6338   5
   0   2   1 307.681 31.5193  56
   0  -2  -1 325.500 32.9874   2
   0  -2  -1 360.757 32.0104   6
   0  -2   1 364.702 85.0061   5
   0   2   1 352.136 30.6432  13
   0   2   1 280.538 31.4805   2
   0  -2  -1 313.658 87.3379  22
   0   2   1 320.047 32.5483  20
   0  -2  -1 286.426 33.1340  15
   0  -2   1 298.630 64.7674  11
   0   2  -1 411.407 50.5288  25
   0   2   1 313.481 24.4661  14
   0  -2   1 431.043 68.9882  22
   0  -2  -1 317.206 66.1832  17
   0   2  -2 99500.4 4781.72  18
   0   2  -2 111644. 4783.43   8
   0  -2   2 96983.9 4784.63  11
   0  -2  -2 92643.2 4788.66   6
   0  -2  -2 105654. 4811.68  11
   0  -2   2 133284. 4812.22  19
   0   2   2 106159. 4789.43   2
   0  -2  -2 93788.2 4780.22   5
   0  -2  -2 105707. 4789.00   2
   0   2   2 102313. 4788.19  20
   0  -2  -2 104560. 4808.93   8
   0   2   2 93937.5 4782.94  14
   0  -2  -2 80288.0 4780.14  19
   0  -2  -2 84563.4 4782.92  17
   0   2  -2 103333. 4800.44  16
   0   2  -2 109388. 4791.11  12
   0  -2   2 114675. 4789.14   8
   0  -2  -2 92394.3 4787.44  15
   0   2   2 99983.6 4787.69  13
   0  -2   2 119421. 4802.20  17
   0   2  -2 109540. 4786.64  21
   0  -2  -3 6575.48 329.570   5
   0   2  -3 6953.59 343.135  12
   0   2   3 7024.38 335.197  13
   0  -2  -3 5783.91 333.762  22
   0   2  -3 6956.15 348.848  16
   0   2   3 6410.17 329.477  14
   0   2   3 5774.80 322.082  23
   0  -2   3 7927.00 359.419   9
   0  -2  -3 5978.47 322.081  17
   0   2   3 6836.77 334.731  20
   0   2  -3 7553.81 332.102  18
   0   2  -3 6986.23 334.965  21
   0  -2   3 7857.10 348.729  19
   0   2   3 6854.62 334.629   6
   0  -2   3 7365.63 340.737  17
   0   2   4 67017.5 3116.52  20
   0   2   4 61391.9 3098.82   9
   0  -2   4 77632.6 3134.51   9
   0   2  -4 68979.7 3115.74  18
   0   2   4 64366.4 3110.81  14
   0   2   4 65713.8 3115.18   6
   0   2   4 59912.1 3102.71  23
   0  -2  -4 67355.1 3119.22  15
   0   2  -4 68252.0 3117.29  21
   0  -2  -4 57002.9 3111.61  11
   0  -2  -4 59628.7 3107.48  22
   0   2  -4 64452.9 3127.77  16
   0   2  -4 66503.8 3128.40  25
   0  -2   4 65456.5 3109.41  17
   0  -2   4 72393.2 3117.68  19
   0   2  -4 62062.5 3121.16  12
   0   2   4 65799.8 3116.38  13
   0  -2   5 4036.69 226.381  23
   0   2   5 3855.58 213.052  13
   0   2  -5 3759.44 217.767  21
   0   2   5 4117.98 214.484  20
   0   2   5 3498.12 197.256  23
   0   2  -5 3711.20 227.221  16
   0  -2   5 4015.81 226.611  14
   0  -2   5 3664.95 205.342  19
   0   2  -5 4123.04 214.877  18
   0   2  -5 3488.79 219.802  12
   0  -2  -5 3841.88 201.611  22
   0  -2   5 3902.02 221.551   9
   0   2   5 4103.28 212.860   2
   0  -2  -5 3499.90 204.400  11
   0   2   5 3574.69 208.568   6
   0   2   5 3677.25 206.832  14
   0  -2  -5 3766.65 216.950  15
   0   2   6 43535.5 2136.76  13
   0   2   6 42188.6 2130.73  14
   0   2  -6 39357.5 2139.15  12
   0  -2   6 43652.4 2141.24   9
   0   2   6 45370.3 2136.55   2
   0  -2   6 46426.4 2150.29  14
   0  -2  -6 43150.3 2141.43  15
   0   2  -6 44160.9 2152.63  16
   0   2   6 43512.1 2136.28  20
   0   2  -6 43107.9 2142.73  21
   0  -2   6 45305.1 2145.99  23
   0  -2   7 1801.12 131.931   9
   0   2   7 1604.48 119.487  14
   0   2  -7 1654.34 137.703  12
   0   2  -7 1651.55 145.821  16
   0  -2   7 1768.58 139.487  14
   0   2   7 1953.05 134.241  13
   0  -2   7 1600.07 132.674  23
   0  -2  -7 1477.47 131.912  15
   0   2   7 1725.35 129.209  20
   0   2  -7 1518.68 139.075  15
   0   2   7 1868.03 125.686   2
   0   2  -8 37880.5 2034.20  33
   0   2  -8 42023.2 2057.29  16
   0   2  -8 39935.7 2031.78  44
   0   2  -8 37492.9 2034.25  39
   0  -2  -8 38642.7 2027.04  37
   0  -2  -8 43617.2 2029.38  52
   0   2   8 40265.2 2026.98   6
   0  -2   8 45610.9 2048.82  14
   0  -2  -8 43940.4 2079.83  12
   0   2   8 40911.6 2034.66  20
   0   2   8 40006.4 2026.81  14
   0  -2  -8 39771.9 2038.27  44
   0  -2   8 42182.2 2038.47  23
   0  -2   8 43804.6 2032.48   9
   0   2   8 41585.6 2034.89  13
   0  -2  -8 42427.3 2042.82  15
   0   2  -8 40361.3 2037.61  12
   0   2  -9 4752.77 319.807  16
   0   2   9 5387.56 297.601   6
   0  -2  -9 5245.27 338.320  12
   0  -2  -9 5220.29 315.530  15
   0  -2   9 5531.51 312.327  13
   0   2  -9 4355.45 302.787  33
   0  -2  -9 4355.80 284.816  35
   0   2   9 5401.00 317.796  56
   0  -2   9 5367.16 310.680  14
   0  -2  -9 5246.71 301.312  52
   0   2  -9 4669.24 302.652  44
   0   2   9 5486.84 307.362  20
   0   2   9 5262.02 306.114  13
   0  -2   9 5036.83 291.139   9
   0  -2   9 5191.30 302.264  23
   0   2  -9 4829.07 304.552  12
   0   2  -9 4631.56 270.226  29
   0  -2  -9 5391.09 305.569  37
   0  -2  -9 4864.61 290.822  40
   0   2  -9 4483.83 297.277  46
   0  -2  -9 4294.74 303.994  44
   0   2  -9 4323.42 283.959  51
   0  -2  -9 4701.53 281.715  29
   0   2   9 4874.19 293.859  14
   0  -2 -10 18272.9 942.621  12
   0   2  10 18058.1 902.660   6
   0   2 -10 15358.0 908.925  33
   0   2  10 19196.2 918.429  20
   0  -2 -10 18562.7 922.000  15
   0  -2  10 19157.3 917.969  14
   0  -2 -10 15671.6 912.494  44
   0  -2  10 18025.5 905.346  23
   0  -2 -10 18601.5 909.485  52
   0   2  10 17600.8 901.282  14
   0  -2  10 18789.2 916.132  13
   0   2  10 17759.2 926.312  56
   0   2 -10 19596.5 919.626  12
   0   2 -10 18471.9 938.857  16
   0   2 -10 17390.0 915.565  44
   0   2 -10 15627.3 885.613  51
   0  -2 -10 16796.3 905.729  37
   0   2 -10 16685.0 903.740  46
   0  -2 -10 15935.8 882.894  29
   0  -2 -10 15892.3 881.647  40
   0   2  10 18224.6 915.456  13
   0  -2 -10 16204.3 883.935  35
   0   2 -10 16949.3 872.068  29
   0   2  11 598.529 83.9654   6
   0   2 -11 536.383 112.196  52
   0   2  11 647.000 118.229  56
   0   2  11 764.389 102.566  13
   0  -2 -11 591.194 107.901  15
   0  -2 -11 662.522 146.011  51
   0   2  11 638.341 87.0665  14
   0  -2  11 475.319 88.1073  23
   0   2 -11 534.770 119.157  44
   0  -2 -11 441.770 87.4996  29
   0  -2 -11 795.860 132.513  12
   0   2 -11 467.051 96.2297  51
   0   2  11 670.738 103.529  20
   0  -2 -11 623.543 123.668  52
   0  -2 -11 615.410 86.1731  32
   0  -2  11 693.118 100.702  14
   0   2 -11 671.004 104.824  12
   0  -2  11 444.519 83.6737  13
   0  -2  11 467.347 76.7505   6
   0  -2 -11 454.456 120.509  44
   0   2 -11 640.417 109.472  41
   0  -2  12 14422.6 700.661  14
   0   2 -12 12296.4 687.676  52
   0  -2 -12 12755.2 705.976  15
   0  -2 -12 12026.4 657.363  32
   0  -2 -12 11583.3 668.752  29
   0   2  12 13603.8 704.119  20
   0   2 -12 12251.2 705.043  44
   0   2  12 14106.7 710.019  24
   0   2 -12 12950.5 681.036  41
   0  -2 -12 13697.0 702.352  52
   0  -2 -12 13348.2 689.296  36
   0   2 -12 13473.8 708.208  15
   0   2  12 12802.1 701.029  13
   0   2  12 12279.2 718.122  56
   0   2 -12 11549.0 673.612  51
   0  -2 -12 12780.4 717.205  51
   0   2 -12 13768.2 694.837  12
   0   2  13 946.135 107.019  13
   0   2  13 747.837 99.9297  24
   0  -2  13 780.272 91.8606  14
   0  -2 -13 744.574 144.951  51
   0  -2  13 743.271 109.167  56
   0   2  13 667.737 103.083  20
   0  -2 -13 746.160 112.897  36
   0  -2 -13 717.303 119.968  52
   0   2 -13 717.527 117.800  44
   0   2 -13 674.239 102.248  15
   0   2 -13 737.784 102.447  41
   0  -2 -13 656.762 71.9682  32
   0  -2  13 799.024 92.6119  20
   0  -2 -13 659.633 107.265  15
   0   2 -13 472.709 101.707  52
   0  -2 -14 7968.16 457.984  52
   0  -2 -14 8668.86 454.784  36
   0  -2 -14 8304.40 472.927  51
   0   2 -14 8111.02 451.390  52
   0  -2 -15 181.559 60.2349  36
   0  -2 -15 72.3726 63.9601  52
   0  -2  15 124.491 42.2309  50
   0   2 -15 124.082 56.1871  52
   0   3   0 21.4744 34.8660  20
   0  -3   0 57.2663 81.5976  19
   0   3   0 11.7359 33.9642  56
   0   3   0-12.3708 46.0569  25
   0   3   0-10.5930 31.7531  10
   0  -3   0 20.4771 92.1369   8
   0   3   0-13.2588 36.2827  24
   0  -3   0 3.14602 85.9499  11
   0  -3  -1 49.3241 69.9850  17
   0  -3   1 51.1698 79.0496   8
   0   3  -1 21.3354 43.6677  10
   0  -3   1 77.3537 67.2447   9
   0   3  -1 2.74745 64.2903  25
   0   3   1-3.23986 31.5674  56
   0  -3   1-30.8638 75.9698  22
   0  -3  -1 18.9981 27.5886   2
   0   3  -1-2.08605 49.1508  56
   0  -3  -1 14.8439 35.0500  15
   0   3   1 15.5797 31.7651  20
   0  -3   1 27.2415 70.1717  11
   0   3   1 8.68915 28.0988  13
   0   3  -1 2.17539 44.7454  24
   0   3  -1 25.0724 14.2566   1
   0  -3  -2 170.505 40.0069  19
   0  -3   2 278.751 61.7406   8
   0   3  -2 248.132 22.9334  18
   0  -3  -2 242.396 109.363  11
   0   3   2 208.915 38.0190  56
   0   3   2 235.444 34.6676  13
   0  -3   2 241.539 61.4586  22
   0   3  -2 295.994 33.5318  12
   0  -3  -2 223.415 52.3725  17
   0   3  -2 222.085 52.9626  25
   0   3  -2 263.079 49.7203  10
   0   3   2 244.607 38.4380  20
   0  -3  -2 222.711 39.7742  15
   0  -3   2 249.566 68.6980  17
   0   3  -2 271.939 34.0349  21
   0  -3   2 286.530 75.3952  19
   0  -3  -2 352.155 110.704   8
   0   3  -2 247.280 59.3135  16
   0   3   2 196.520 25.7839  14
   0  -3   2 256.022 52.7765  11
   0   3   2 156.816 31.9991   2
   0  -3  -2 221.785 90.9867  22
   0  -3  -2 210.442 35.4583   2
   0  -3   3 57.3177 29.1606  11
   0   3  -3 62.7860 24.3618  18
   0   3  -3 24.5560 31.1281  21
   0   3   3 41.9765 22.3199  14
   0   3  -3 76.3064 44.2494  25
   0   3   3 49.5877 32.4245  20
   0   3   3 45.8157 29.0517  24
   0  -3   3 18.9127 48.9691   9
   0   3  -3 69.6397 54.8529  16
   0   3   3 54.3995 31.4723  13
   0  -3  -3 66.4415 21.5616  19
   0  -3   3 34.0086 34.0159  22
   0  -3   3 48.0063 48.2426  17
   0  -3   3 47.6677 56.0743  19
   0   3   3 22.7065 31.4450  56
   0  -3  -3 87.3056 38.3539  15
   0  -3  -3 22.4577 26.7291   2
   0  -3   3 48.4468 20.7524   1
   0   3  -3 86.5307 41.5443  12
   0  -3  -3 92.0019 29.9952  17
   0  -3   4 853.892 82.3724   9
   0   3   4 841.095 67.5156  20
   0  -3  -4 796.295 85.2581   8
   0   3   4 825.393 65.4692   2
   0  -3  -4 680.968 86.9023  11
   0  -3   4 763.430 67.2821  17
   0   3  -4 717.169 65.4960  21
   0  -3  -4 726.964 70.7551  15
   0   3  -4 748.604 70.3088  12
   0  -3   4 885.103 75.3006  19
   0   3  -4 761.403 58.6144  18
   0   3   4 643.993 54.6205  14
   0   3   4 778.641 65.2101  13
   0  -3  -4 729.264 50.5805  17
   0   3   4 955.219 70.7466  56
   0   3  -4 770.205 80.2780  25
   0  -3  -4 686.970 71.6259  22
   0   3   4 697.178 62.9985   6
   0   3  -4 745.671 84.4411  16
   0   3   5 273.149 45.5825   2
   0   3   5 233.604 47.1865  20
   0   3  -5 260.222 52.1303  21
   0  -3  -5 297.476 56.8897  15
   0   3   5 210.885 51.0275  56
   0  -3  -5 292.712 52.3188  22
   0   3  -5 147.966 57.4964  16
   0   3   5 286.307 38.8341  14
   0  -3   5 314.506 59.5629   9
   0  -3   5 231.075 51.2475  19
   0   3  -5 185.416 58.4973  12
   0  -3   5 304.642 44.6511  17
   0  -3  -5 330.378 64.6772  11
   0   3   5 180.299 44.7774  13
   0  -3   5 168.835 59.4405  23
   0   3   5 312.234 46.7846   6
   0   3  -6 454.296 72.5041  12
   0   3  -6 493.639 77.4801  16
   0  -3  -6 529.361 70.1964  15
   0   3   6 409.366 52.1853  14
   0  -3   6 504.584 71.6117   9
   0  -3   6 601.657 76.8829  14
   0   3   6 642.595 72.9338  56
   0   3   6 578.708 68.3015  20
   0   3  -6 565.855 68.7739  21
   0  -3  -6 641.309 61.4338  22
   0   3   6 583.203 67.0928  13
   0  -3   6 564.146 76.6949  23
   0   3   6 584.830 62.2670   2
   0  -3   6 574.038 60.5670  19
   0   3   7 43.5475 35.1528  14
   0   3   7 81.6391 37.6670   2
   0   3   7 29.6375 47.8378  20
   0  -3   7 57.9658 50.3413   9
   0  -3   7 22.6996 52.9506  23
   0  -3   7 53.9956 53.2197  14
   0   3  -7 50.6755 60.4421  12
   0  -3  -7 45.2098 52.9825  15
   0   3   7 45.0946 45.1638  13
   0   3  -7 64.5653 59.0648  16
   0   3   7-33.2173 52.6411  56
   0  -3  -7-11.0277 120.580  12
   0   3   8 160.034 45.0260  14
   0   3  -8 83.7738 61.5895  44
   0  -3   8 75.2186 56.1155  14
   0  -3  -8 24.9480 84.1299  40
   0   3   8 133.569 52.2837  13
   0  -3  -8 259.322 121.057  12
   0   3  -8 156.523 67.5730  12
   0  -3   8 90.4177 59.5276  23
   0  -3  -8 72.1224 68.4012  37
   0  -3   8 94.2978 50.7660   9
   0   3  -8 75.3556 63.5882  33
   0  -3  -8 105.643 84.4267  35
   0  -3  -8 109.964 71.6119  44
   0  -3  -8 123.321 58.9476  15
   0  -3  -8 90.6161 69.9336  52
   0  -3  -8-30.5087 92.3658  51
   0   3  -8 50.4380 64.4740  16
   0   3   8 96.2965 56.5803  20
   0   3   8 111.864 47.1038   6
   0  -3  -8 106.829 56.1450  29
   0   3   8 47.7248 60.6168  56
   0   3  -8 69.4377 68.9333  39
   0  -3  -9 196.314 66.7990  29
   0   3   9 174.735 75.3344  56
   0   3  -9 116.341 71.1036  39
   0  -3  -9 89.9847 111.870  51
   0  -3  -9 254.801 87.1000  44
   0  -3   9 222.424 65.5021  14
   0  -3   9 96.3491 55.6483   9
   0   3  -9 193.028 81.2294  44
   0  -3   9 136.703 63.5823  23
   0   3  -9 269.714 79.3616  12
   0   3   9 171.955 63.3202  20
   0  -3  -9 125.833 87.2591  35
   0  -3  -9 177.342 75.2076  15
   0   3  -9 180.387 77.0616  16
   0  -3  -9 139.939 76.6732  52
   0   3   9 190.791 61.6254  13
   0   3   9 130.839 47.7480   6
   0  -3  -9 125.076 97.7337  40
   0  -3  -9 98.8932 114.411  12
   0   3  -9 194.315 78.5993  33
   0   3   9 161.797 50.7331  14
   0   3  10 25.4675 59.7292  13
   0   3  10 67.0762 63.7817  20
   0   3  10 155.510 71.1829  24
   0  -3  10 106.004 57.5818   9
   0  -3 -10-6.89118 87.8293  36
   0  -3 -10 165.716 74.4280  15
   0  -3  10 58.4241 58.2301  14
   0   3 -10 113.056 73.6654  12
   0   3 -10 106.718 84.3256  44
   0   3  10 89.0695 79.9943  56
   0  -3 -10 158.396 91.3830  35
   0  -3  10 77.0727 67.6869  23
   0  -3 -10 8.88170 92.2996  44
   0   3 -10 109.748 85.6782  33
   0  -3 -10 139.649 125.599  12
   0  -3 -10 81.2202 86.7897  52
   0  -3 -10 72.1491 93.5494  40
   0   3 -10 10.3814 68.5413  16
   0  -3 -10 11.9910 68.1218  29
   0  -3 -11-25.1319 99.5049  12
   0   3  11-55.7687 84.1043  56
   0  -3 -11 68.6851 80.3439  35
   0   3 -11 62.0556 92.0676  44
   0   3 -11 140.943 82.3393  15
   0  -3  11 169.580 65.7519  23
   0  -3 -11-19.9813 80.6849  15
   0  -3 -11 38.1798 72.9127  29
   0   3 -11 17.8025 88.0396  33
   0  -3  11-8.64568 57.5673  14
   0   3  11 84.5853 64.8919  13
   0  -3 -11 155.124 100.156  52
   0   3  11-73.5102 75.6246  20
   0  -3 -11 66.8187 92.8334  36
   0   3 -11 14.7346 66.6982  12
   0  -3 -11 42.5085 85.1240  40
   0   3 -12 560.069 107.375  52
   0  -3 -12 863.299 135.776  12
   0   3 -12 716.970 112.082  41
   0   3  12 579.645 96.2473  13
   0   3 -12 471.218 96.4649  15
   0  -3  12 718.321 93.6745  20
   0  -3 -12 799.028 121.192  36
   0   3  12 523.841 114.670  56
   0  -3 -12 588.706 123.391  52
   0  -3 -12 661.109 109.866  15
   0  -3  12 765.918 92.5743  14
   0   3 -12 621.988 123.633  44
   0  -3 -12 743.083 91.4027  32
   0  -3  12 577.639 82.3660  13
   0  -3 -12 715.648 92.5225  35
   0  -3  12 424.795 81.3300  23
   0  -3 -12 573.083 92.3816  40
   0   3  12 630.316 100.814  20
   0   3  13 828.536 128.405  56
   0  -3 -13 807.260 83.2006  32
   0   3 -13 787.028 120.279  44
   0   3 -13 762.193 106.312  52
   0  -3 -13 962.442 129.773  52
   0  -3  13 635.079 98.4374  56
   0   3  13 688.706 100.304  20
   0  -3 -13 809.141 116.597  36
   0   3 -13 993.548 109.412  41
   0   3  13 615.186 94.7975  24
   0  -3  13 781.886 89.3317  20
   0  -3 -14 161.736 77.6520  36
   0  -3 -14 113.200 103.108  51
   0  -3 -14 99.5808 77.5341  52
   0   3 -14 134.513 63.5124  41
   0   3 -14 181.188 72.6347  52
   0   3 -15-20.7141 51.6939  52
   0  -3 -15-44.3259 55.1721  36
   0   4   0 54724.3 2810.73  56
   0   4   0 55049.6 2812.92  24
   0  -4   0 61175.8 2821.93  11
   0   4   0 57699.4 2805.16   7
   0   4   0 51755.4 2810.47  10
   0  -4   0 68366.6 2828.65   8
   0  -4   0 55428.4 2816.12   9
   0  -4   0 63651.0 2826.33  19
   0   4   0 52452.0 2809.55  20
   0  -4   0 67385.4 2829.85  22
   0  -4   0 63792.8 2825.23  17
   0   4   1 15094.4 775.438  56
   0   4   1 15330.8 777.943  24
   0   4  -1 15884.5 782.786  24
   0  -4  -1 16196.6 788.760  17
   0  -4  -1 18368.0 803.759  22
   0   4  -1 15591.8 781.487  56
   0   4   1 15331.2 773.553  13
   0   4   1 14923.1 775.072  20
   0  -4   1 17201.4 788.634   8
   0  -4   1 18015.3 790.250  17
   0  -4  -1 18549.9 781.722   9
   0   4   1 15200.1 775.919  10
   0  -4  -1 15177.8 775.692   2
   0   4  -1 13843.5 759.197   1
   0  -4  -1 20922.8 812.644   8
   0   4  -1 15492.2 781.745  10
   0  -4   1 18956.8 790.234  22
   0  -4  -1 18882.7 803.148  11
   0  -4   1 15700.9 780.674  11
   0  -4   1 18124.5 792.475  19
   0  -4   2 98215.0 3988.47  17
   0  -4  -2 75954.8 3975.14  19
   0  -4  -2 75537.2 3964.87   9
   0   4  -2 84259.0 3966.09  21
   0   4  -2 78801.0 3963.67   3
   0   4   2 84257.6 3976.97  20
   0  -4  -2 107856. 4018.13   8
   0  -4   2 84184.7 3981.88  22
   0   4  -2 82330.3 3985.55  10
   0   4  -2 88016.4 3989.16  25
   0  -4  -2 88229.2 3980.07   2
   0  -4   2 88113.5 3991.49   9
   0  -4  -2 82610.7 3978.90  15
   0  -4  -2 100042. 4012.33  11
   0   4  -2 79982.5 3961.03  18
   0  -4   2 70973.6 3972.33  11
   0  -4  -2 77373.0 3979.49  17
   0  -4  -2 86773.7 4004.27  22
   0  -4   2 78650.0 3976.78   8
   0   4  -2 82475.9 3987.72  24
   0   4   2 81161.4 3978.42  24
   0   4   2 83719.4 3976.02  13
   0   4   2 85524.8 3978.58  56
   0  -4   2 94760.4 3990.92  19
   0  -4  -3 21987.3 1199.22  19
   0  -4  -3 25887.3 1213.08  15
   0  -4  -3 22259.8 1203.82  17
   0   4   3 25022.5 1209.96  13
   0  -4  -3 27465.6 1241.02   8
   0   4   3 24797.4 1213.05  56
   0  -4  -3 22911.1 1233.54  11
   0   4  -3 24813.7 1197.06  12
   0   4   3 24724.3 1211.29  20
   0  -4   3 23363.8 1200.76  11
   0  -4   3 23150.8 1205.32  22
   0  -4   3 26973.0 1219.74  19
   0   4   3 24739.3 1212.71  24
   0  -4   3 24172.1 1203.68   8
   0  -4  -3 26100.6 1213.59   2
   0   4   3 24544.0 1210.83   2
   0   4   3 24969.5 1200.71  14
   0  -4   3 27050.1 1215.24  17
   0   4  -3 26349.8 1223.72  25
   0   4  -3 24383.4 1222.01  10
   0   4  -3 25456.1 1228.77  16
   0   4  -3 25280.1 1200.16  21
   0  -4   3 27558.6 1226.01   9
   0  -4  -4 27145.4 1400.66  17
   0  -4  -4 27181.9 1395.03  19
   0   4   4 28281.0 1403.66  14
   0   4   4 29932.8 1416.85   2
   0  -4   4 28805.7 1416.18  19
   0  -4   4 29279.2 1411.80  17
   0   4   4 31612.1 1419.97  56
   0  -4  -4 27763.4 1421.02  22
   0   4   4 30417.1 1415.27  13
   0  -4  -4 29538.5 1417.81  15
   0   4  -4 27807.1 1403.81  21
   0   4  -4 31831.4 1434.01  25
   0   4   4 30580.6 1416.87  20
   0  -4   4 33267.8 1429.30   9
   0   4  -4 28655.6 1432.25  16
   0  -4  -4 29425.1 1416.91   2
   0   4  -4 30745.2 1405.86  12
   0  -4   4 27330.1 1392.53   1
   0   4   4 30342.7 1418.70  24
   0   4  -5 17629.7 865.576  25
   0  -4   5 16289.5 834.606  17
   0  -4   5 16111.4 839.847  19
   0  -4  -5 16338.1 843.083  22
   0   4   5 17826.6 849.870  56
   0   4  -5 16365.4 833.772  21
   0  -4  -5 16363.0 851.907  11
   0   4   5 16138.6 843.125  13
   0   4  -5 16641.5 835.044  12
   0   4   5 15969.7 831.625  14
   0   4  -5 15907.7 857.773  16
   0   4   5 17545.0 846.564  20
   0  -4   5 16960.4 852.095  23
   0  -4  -5 17835.6 849.945  15
   0   4   5 18263.9 848.068   2
   0  -4   5 17149.9 851.265   9
   0   4   5 17815.1 847.944  24
   0   4  -6 37681.8 1907.17  12
   0  -4   6 41175.2 1922.53   9
   0  -4   6 40902.7 1924.70  14
   0  -4  -6 41265.5 1922.32  15
   0   4   6 39894.7 1922.54  56
   0  -4  -6 38605.8 1908.91  22
   0   4  -6 38282.8 1932.06  16
   0   4   6 40057.8 1919.65  24
   0  -4   6 37284.5 1907.22  19
   0   4   6 37341.2 1902.88  14
   0   4   6 39694.3 1918.89  20
   0   4   6 41101.4 1919.68   2
   0  -4   6 39696.6 1924.02  23
   0   4  -6 36029.5 1904.61  21
   0   4   6 38382.7 1915.97  13
   0   4   7 6078.03 329.421   2
   0  -4  -7 5845.44 346.047  51
   0   4   7 6119.89 337.700  56
   0   4   7 6108.41 331.514  20
   0   4  -7 5667.60 343.165  16
   0   4  -7 6000.89 333.104  33
   0   4  -7 4716.85 317.364  31
   0  -4  -7 6422.61 403.482  12
   0  -4   7 6202.48 336.173  14
   0  -4  -7 6078.50 335.679  15
   0  -4  -7 5969.96 327.066  52
   0  -4  -7 6521.38 329.724  36
   0   4   7 5575.77 313.136  14
   0   4  -7 5490.14 329.484  46
   0   4   7 5890.32 332.486  24
   0   4   7 6005.53 329.272  13
   0  -4   7 5645.41 332.574  23
   0   4  -7 5679.22 321.133  12
   0  -4   7 5496.51 330.073   9
   0  -4  -8 24853.8 1201.49  36
   0  -4  -8 23812.2 1215.49  40
   0   4  -8 23620.8 1209.51  33
   0   4  -8 24214.6 1224.69  16
   0  -4  -8 21462.6 1190.50  29
   0  -4  -8 24929.5 1226.93  35
   0  -4  -8 22114.6 1218.92  51
   0  -4  -8 24453.6 1217.14  15
   0  -4   8 25161.7 1213.45  14
   0  -4  -8 24733.1 1202.45  52
   0   4   8 22873.1 1203.44  13
   0   4  -8 22117.8 1203.79  46
   0   4  -8 23675.5 1195.84  12
   0  -4   8 24944.1 1206.03   9
   0   4   8 24365.0 1206.50  20
   0  -4  -8 26931.2 1278.54  12
   0   4   8 23725.3 1214.14  56
   0   4  -8 22373.0 1206.69  39
   0   4  -8 23779.6 1203.63  44
   0   4   8 23999.5 1208.96  24
   0  -4   8 24594.9 1210.81  23
   0   4  -8 24061.1 1221.26  15
   0   4  -9 4642.91 300.628  16
   0  -4  -9 4654.27 281.948  36
   0  -4   9 4434.96 281.908  23
   0  -4   9 4788.99 278.424   9
   0  -4  -9 4299.43 272.122  29
   0  -4   9 4718.59 284.978  14
   0  -4  -9 4711.98 293.871  15
   0   4  -9 4154.46 282.938  39
   0  -4  -9 4825.84 302.934  40
   0   4  -9 3977.01 276.577  46
   0  -4  -9 4098.19 311.438  51
   0   4  -9 4712.73 300.668  15
   0   4   9 4313.44 290.830  56
   0  -4  -9 4854.81 286.447  52
   0  -4  -9 4894.02 301.152  35
   0   4  -9 4433.59 269.247  12
   0   4   9 4399.07 282.159  13
   0   4   9 4615.51 285.882  24
   0  -4  -9 5458.53 357.366  12
   0   4  -9 4045.41 283.942  33
   0   4   9 4662.64 284.997  20
   0   4  -9 4047.24 277.419  44
   0  -4 -10 12129.8 730.346  51
   0   4 -10 11437.3 699.484  39
   0  -4  10 14047.1 709.442  14
   0  -4 -10 13524.5 719.840  15
   0   4 -10 13057.7 685.506  12
   0   4  10 13067.8 706.918  20
   0  -4 -10 14183.2 703.443  36
   0  -4  10 14209.3 697.412   9
   0  -4 -10 16127.4 779.482  12
   0   4 -10 12899.9 721.089  16
   0  -4 -10 13882.5 708.375  52
   0   4 -10 12720.3 702.275  44
   0  -4 -10 12935.3 706.864  35
   0   4 -10 11237.5 693.545  46
   0   4 -10 13814.6 723.982  15
   0  -4  10 13124.9 702.821  23
   0   4  10 12456.4 720.133  56
   0   4  10 12949.6 705.993  13
   0   4  10 13360.5 711.413  24
   0  -4  10 14510.9 706.224  13
   0   4 -10 12999.6 711.851  33
   0  -4 -10 11307.8 685.503  29
   0  -4 -10 13546.8 709.871  40
   0  -4 -11 2746.43 202.393  35
   0  -4 -11 2852.22 213.239  15
   0   4 -11 2277.18 203.347  16
   0  -4 -11 2400.72 243.563  51
   0  -4 -11 2689.34 209.700  52
   0   4  11 2493.99 199.923  13
   0   4  11 2866.60 208.647  20
   0  -4 -11 2625.46 203.837  40
   0  -4  11 2893.14 196.433  23
   0  -4 -11 3093.61 250.996  12
   0   4 -11 2191.51 196.812  44
   0  -4  11 2425.02 189.992  14
   0   4  11 2308.25 215.177  56
   0   4 -11 2711.19 209.674  15
   0  -4 -11 2675.64 202.941  36
   0  -4  11 2260.36 179.940  13
   0   4 -11 2113.26 200.873  33
   0  -4 -12 11832.9 659.947  32
   0   4  12 11561.3 707.286  56
   0  -4 -12 12647.5 681.477  36
   0  -4 -12 11993.7 666.431  35
   0   4 -12 11808.7 685.164  44
   0  -4  12 12921.0 676.248  23
   0  -4  12 13674.9 679.001  20
   0  -4 -12 15093.8 740.511  12
   0  -4  12 12927.9 681.979  14
   0  -4 -12 13031.0 728.055  51
   0   4  12 14050.8 702.755  20
   0   4 -12 13507.4 682.272  41
   0   4 -12 12333.0 690.035  15
   0  -4 -12 12032.5 665.981  40
   0  -4 -12 12182.9 689.763  52
   0  -4  12 11958.8 669.953  13
   0   4 -12 12227.6 677.942  52
   0   4  12 13521.9 699.165  13
   0  -4 -12 14066.3 711.229  15
   0   4  13 821.242 102.907  20
   0   4 -13 570.990 96.2752  52
   0  -4  13 651.589 64.9532  34
   0   4  13 515.153 109.437  56
   0  -4 -13 616.545 111.084  36
   0  -4 -13 682.966 81.6405  32
   0   4  13 548.534 92.3365  24
   0  -4 -13 522.611 114.661  52
   0   4 -13 648.130 102.511  41
   0   4 -13 606.983 100.146  44
   0  -4  13 596.890 75.5307  20
   0   4 -14 3410.99 194.717  41
   0  -4 -14 3237.32 210.214  52
   0   4 -14 2863.26 194.681  52
   0  -4 -14 2903.14 168.423  32
   0  -4 -14 3121.27 202.817  36
   0   4  15 1692.72 103.945  45
   0  -4 -15 1745.62 113.756  36
   0   4 -15 1613.11 102.497  36
   0   4 -15 1681.14 112.197  52
   0   5   0-3.19747 46.0355  56
   0   5   0-30.5591 45.8224  20
   0   5   0-7.05236 44.6700  24
   0  -5   0-29.7364 57.3695  19
   0  -5   0 48.2794 46.4902   9
   0  -5   0 7.05262 60.9136  11
   0   5   0-33.1848 39.6734  10
   0  -5   0 15.3597 65.8648   8
   0  -5   0 27.6456 32.1426   2
   0  -5   0 44.4100 59.3793  17
   0  -5   0 8.01466 61.4141  22
   0   5   1 461.662 55.8366  20
   0  -5  -1 593.843 92.6382   8
   0  -5  -1 597.752 87.0011  11
   0   5   1 505.492 60.6985  24
   0  -5  -1 484.139 52.3353   2
   0   5   1 494.946 52.0446  13
   0  -5   1 447.084 64.5058   9
   0  -5   1 406.703 65.8773  19
   0   5   1 515.042 55.1770  10
   0  -5   1 468.164 67.9820  22
   0  -5  -1 610.379 86.9428  22
   0  -5   1 425.542 70.0785   8
   0   5  -1 484.679 63.2060  10
   0   5  -1 396.382 68.3481  56
   0  -5   1 380.726 65.7555  11
   0   5   1 461.320 57.1693  56
   0  -5   1 519.861 69.4358  17
   0   5  -1 410.710 29.5413   1
   0   5  -1 447.974 67.0800  24
   0  -5  -1 612.073 57.4500   9
   0   5   1 532.616 45.3665   7
   0   5  -2 400.057 67.6629  24
   0   5   2 398.799 54.1907  24
   0  -5  -2 293.832 54.6766  19
   0   5  -2 366.952 67.5121  25
   0   5   2 391.458 52.0353  10
   0  -5  -2 492.897 95.0963  22
   0   5  -2 361.822 33.0136  21
   0  -5  -2 414.838 99.1057   8
   0  -5   2 320.361 53.7162  11
   0  -5   2 297.898 62.4603  17
   0   5   2 323.718 50.9282  20
   0  -5   2 335.753 58.3547  22
   0  -5  -2 487.298 96.2658  11
   0   5  -2 280.816 55.7201  10
   0   5   2 447.121 49.5641  13
   0  -5   2 354.182 62.6641  19
   0   5  -2 370.929 32.7843   3
   0  -5  -2 321.638 64.6408  17
   0  -5   2 424.948 61.3011   8
   0  -5  -2 355.762 33.8360   9
   0   5   2 388.521 52.0667  56
   0  -5  -2 376.859 47.0701   2
   0   5   3 982.016 79.2896  20
   0  -5  -3 1215.81 80.8363   2
   0  -5  -3 991.110 81.1723  17
   0   5  -3 813.666 83.0702  10
   0   5   3 1011.25 76.8624  13
   0  -5  -3 929.254 126.928  11
   0  -5   3 859.716 80.5366  17
   0  -5   3 814.413 69.5011  11
   0  -5  -3 1046.14 123.368   8
   0  -5   3 809.021 83.3007  19
   0  -5   3 813.723 74.1129  22
   0  -5   3 986.955 86.4553   9
   0   5  -3 1008.16 99.4800  16
   0  -5  -3 875.391 69.3571  19
   0   5  -3 938.561 89.1561  25
   0   5  -3 837.978 56.5852  21
   0   5   3 923.002 77.7187  24
   0   5   3 813.296 77.1011  56
   0  -5  -3 1105.17 87.1520  15
   0   5   4 320.083 44.8551   2
   0  -5   4 243.412 55.8801   9
   0  -5  -4 350.454 48.8419  17
   0   5   4 383.183 52.2666  13
   0   5  -4 323.681 72.7150  25
   0   5   4 361.257 57.0680  20
   0  -5  -4 354.490 39.3083  19
   0  -5   4 359.385 57.4016  17
   0   5   4 334.287 52.1500  24
   0  -5  -4 358.814 57.5398  15
   0  -5   4 359.088 61.7031  23
   0  -5  -4 366.257 48.3468   2
   0   5  -4 334.837 37.0819  21
   0   5   4 333.656 55.9376  56
   0   5  -4 315.436 31.7544  12
   0  -5   4 237.265 58.5747  19
   0  -5  -4 296.091 88.3885  22
   0   5  -4 306.643 73.4956  16
   0   5   5 1853.42 124.804   2
   0  -5   5 2038.34 129.517  19
   0  -5  -5 1974.15 136.467  15
   0   5   5 1933.68 127.924  13
   0  -5   5 1831.67 132.285   9
   0  -5  -5 1761.94 136.237  22
   0   5   5 1770.96 128.202  20
   0  -5  -5 1774.52 152.595  11
   0   5   5 2322.80 141.267  56
   0  -5  -5 1649.88 107.274  17
   0   5  -5 1659.81 107.143  12
   0   5   5 2003.26 132.727  24
   0  -5   5 1992.26 124.707  17
   0   5  -5 2166.30 154.435  25
   0   5  -5 2079.63 150.119  16
   0  -5   5 1837.47 133.748  23
   0   5  -5 1756.26 110.155  21
   0  -5   6 32.5177 44.3109  19
   0   5  -6 87.6817 66.8203  25
   0   5   6 65.2409 48.1468  20
   0  -5   6 15.7942 47.1864   9
   0   5   6 14.4479 30.5456   2
   0  -5  -6 28.6514 54.2000  22
   0   5   6 50.2247 55.2085  56
   0  -5  -6-47.4038 76.2444  11
   0   5   6 58.1699 49.0919  24
   0   5  -6 28.2914 32.6201  12
   0  -5   6 43.4650 49.9445  23
   0  -5  -6 55.5918 53.0855  15
   0   5   6 49.2132 42.4755  13
   0   5  -6 13.4659 49.2696  16
   0  -5  -6 10.2144 97.9550  12
   0  -5   7 556.370 77.1283   9
   0   5   7 467.440 73.7860  20
   0   5   7 448.236 78.9155  56
   0  -5  -7 635.627 109.173  51
   0  -5  -7 692.104 90.3876  52
   0   5  -7 607.125 61.8229  12
   0   5   7 438.355 70.2423  13
   0  -5  -7 519.852 75.0931  22
   0   5  -7 554.281 84.0722  16
   0  -5  -7 578.561 86.0938  36
   0  -5  -7 626.765 88.1002  15
   0   5   7 562.792 77.8200  24
   0  -5  -7 516.436 134.867  12
   0  -5   7 519.905 66.6445  19
   0   5  -7 590.643 83.5103  46
   0  -5   7 686.682 84.4804  23
   0   5  -7 587.298 82.0984  39
   0   5  -7 472.136 71.7356  31
   0  -5  -8 93.9143 76.9724  36
   0  -5  -8 112.142 62.1198  29
   0   5  -8 111.460 66.3696  46
   0   5  -8 53.9016 60.5315  33
   0   5   8 91.2643 59.0063  24
   0  -5  -8 53.1661 119.151  12
   0   5   8 121.191 58.9011  20
   0  -5   8 45.7608 53.3228   9
   0   5   8 187.295 57.8786  13
   0   5   8 77.4135 66.9287  56
   0  -5  -8 139.939 104.321  40
   0   5  -8 33.8380 58.0609  16
   0   5  -8 39.1458 60.4189  39
   0   5  -8 40.9346 62.5195  44
   0  -5  -8 133.538 100.178  51
   0   5  -8 125.325 44.9600  12
   0  -5   8 209.609 67.7601  23
   0  -5  -8 80.2051 78.2941  52
   0  -5  -8 137.104 66.5902  15
   0  -5  -8 122.466 122.191  35
   0  -5   8 68.1947 55.9561  14
   0   5  -9 591.748 95.9420  46
   0   5   9 559.502 93.4232  20
   0  -5  -9 560.856 103.552  15
   0   5  -9 578.503 98.6122  16
   0   5   9 480.973 88.6766  24
   0  -5   9 559.485 85.8325  14
   0  -5  -9 939.800 161.043  12
   0  -5  -9 616.463 135.269  40
   0  -5   9 528.816 92.3616  23
   0   5  -9 553.897 96.1406  33
   0  -5  -9 631.032 140.004  51
   0  -5  -9 554.070 108.593  52
   0   5   9 667.223 106.011  56
   0  -5   9 574.608 83.4939   9
   0   5   9 413.307 80.0291  13
   0  -5  -9 765.909 145.702  35
   0  -5  -9 709.549 109.304  36
   0  -5  -9 476.890 87.9841  29
   0   5  -9 832.375 111.478  15
   0   5  -9 689.730 94.3769  44
   0   5  -9 463.255 95.1011  39
   0  -5 -10 433.168 123.778  35
   0   5 -10 283.708 84.9731  16
   0   5  10 370.458 85.3762  20
   0   5 -10 444.528 98.1372  33
   0   5  10 459.972 81.5345  13
   0   5 -10 401.669 94.8633  39
   0  -5  10 427.607 77.9227   9
   0  -5 -10 291.129 139.935  51
   0  -5  10 311.260 65.7739  13
   0   5 -10 318.388 85.1244  46
   0  -5 -10 341.792 92.0386  15
   0  -5 -10 498.257 135.937  40
   0  -5  10 428.385 85.6171  23
   0  -5 -10 685.865 152.902  12
   0   5 -10 396.201 88.0665  15
   0   5  10 288.821 89.3810  56
   0  -5 -10 387.414 109.235  52
   0  -5 -10 378.691 94.3195  36
   0  -5  10 443.799 77.1114  14
   0   5  10 408.327 87.4712  24
   0   5 -10 315.490 86.8321  44
   0  -5 -11 805.626 165.329  51
   0  -5  11 650.395 95.5699  14
   0  -5  11 662.244 83.0808   9
   0  -5  11 639.679 95.9158  23
   0   5  11 798.857 104.565  13
   0  -5 -11 682.680 130.002  35
   0  -5 -11 784.345 145.755  12
   0   5 -11 539.438 106.503  44
   0   5 -11 661.293 102.607  46
   0   5  11 815.749 107.592  24
   0  -5 -11 778.501 117.370  36
   0   5 -11 701.984 114.341  33
   0  -5 -11 635.565 124.929  52
   0  -5 -11 1034.63 126.529  15
   0   5 -11 671.017 106.136  16
   0   5  11 685.512 119.426  56
   0   5 -11 524.215 102.548  15
   0  -5  11 527.476 78.8759  13
   0  -5 -11 725.810 139.627  40
   0   5  11 691.354 100.641  20
   0  -5 -12 105.827 133.105  51
   0  -5 -12 143.938 76.5865  32
   0  -5  12 74.6388 51.7593  14
   0   5  12 68.0961 81.8529  56
   0   5 -12 63.4065 73.8887  44
   0   5  12 124.776 64.3528  13
   0   5 -12 57.2189 59.5252  15
   0   5 -12 78.8199 75.7417  33
   0  -5 -12 132.321 80.2048  15
   0   5 -12 123.630 88.4981  41
   0  -5  12 118.543 58.6413  23
   0   5  12 197.119 73.8923  20
   0  -5  12 74.2563 46.2304  13
   0  -5 -12 272.060 88.3778  35
   0  -5 -12 155.942 97.0119  40
   0  -5 -12 132.038 96.3835  36
   0  -5 -12 71.1234 100.235  52
   0  -5 -12 11.8014 87.7941  12
   0   5 -13 89.9090 76.0165  52
   0   5  13 80.8426 63.1217  24
   0  -5  13 183.548 51.0999  23
   0  -5 -13 178.966 63.2779  35
   0   5 -13 133.893 76.6712  41
   0  -5  13 158.714 42.6664  34
   0  -5 -13 198.781 65.6403  32
   0  -5 -13 151.044 72.8184  40
   0  -5 -13 189.415 124.174  51
   0   5 -13 142.396 69.2580  44
   0  -5 -13 164.164 89.3409  36
   0  -5 -13 47.6256 86.2619  52
   0   5 -14 118.161 61.8517  41
   0  -5 -14-72.6887 99.7689  51
   0   5  14 149.671 52.1543  45
   0  -5 -14 135.104 66.7295  36
   0  -5 -14 77.5839 40.4016  32
   0   5 -14 163.102 66.8619  52
   0  -6   0 28681.6 1520.68  11
   0  -6   0 30959.5 1517.26   9
   0  -6   0 31139.6 1526.28  17
   0  -6   0 28977.5 1519.30   2
   0   6   0 30650.3 1528.43  24
   0  -6   0 33058.3 1530.25  22
   0  -6   0 31622.9 1526.77  19
   0  -6   0 32355.0 1528.12   8
   0   6   0 30352.0 1525.35  10
   0   6   0 30716.7 1524.73  56
   0   6   0 31350.6 1522.56  20
   0  -6  -1 33870.6 1687.31   2
   0   6  -1 35232.1 1696.54  56
   0  -6   1 36195.4 1690.80  17
   0   6  -1 36362.4 1698.03  24
   0  -6   1 32908.7 1684.65   9
   0  -6   1 32924.5 1685.74   8
   0  -6   1 31883.1 1687.61  19
   0   6   1 35838.7 1694.32  24
   0  -6  -1 39946.4 1707.39   8
   0   6   1 35223.6 1689.75  56
   0  -6  -1 33091.1 1688.80  19
   0   6   1 37325.0 1699.01  25
   0  -6   1 34438.6 1689.07  22
   0   6   1 34988.8 1675.09   7
   0   6  -1 35160.1 1694.85  10
   0   6   1 35087.5 1686.73  20
   0  -6  -1 36223.4 1704.15  22
   0  -6  -1 31784.2 1674.65   9
   0   6   1 33685.8 1688.00  10
   0  -6  -1 33493.1 1695.04  11
   0  -6   1 30390.2 1681.41  11
   0   6   2 20787.1 988.641  10
   0  -6   2 17811.6 977.041  11
   0  -6   2 21461.7 988.261  17
   0   6  -2 18126.6 958.870  21
   0  -6  -2 23661.6 1015.21  22
   0   6   2 21795.7 993.184  24
   0   6   2 20921.2 989.152  56
   0   6  -2 21197.4 1002.26  24
   0   6   2 21309.6 985.977  20
   0  -6  -2 20685.4 986.833   2
   0   6  -2 20571.2 995.104  10
   0  -6  -2 18874.4 989.828  17
   0  -6   2 21208.4 991.412  19
   0  -6  -2 24735.7 1017.54  11
   0  -6  -2 17725.9 962.041   9
   0   6   2 20768.0 981.840  13
   0  -6  -2 25128.4 1023.19   8
   0  -6  -2 19249.3 984.693  19
   0   6   2 19814.3 973.280   7
   0  -6   2 19376.9 981.868  22
   0   6  -2 18388.6 964.471   3
   0   6   2 22722.8 991.390  25
   0  -6   2 19018.4 980.389   8
   0  -6  -3 14291.9 733.289  19
   0   6  -3 14993.1 752.795  10
   0  -6   3 14603.1 739.639  17
   0   6   3 14295.1 743.613  56
   0  -6  -3 14719.6 765.382  22
   0  -6   3 13911.9 729.387  11
   0  -6  -3 17093.0 776.701   8
   0  -6  -3 16164.6 775.227  11
   0  -6   3 13484.1 732.857  22
   0  -6   3 13944.5 741.423  19
   0   6   3 15895.0 740.029  13
   0   6   3 14728.2 745.287  24
   0  -6  -3 13738.1 738.702  17
   0   6  -3 14711.9 765.189  16
   0   6   3 15149.9 744.969  10
   0   6   3 14631.5 740.955  20
   0  -6  -3 15292.7 743.263   2
   0   6   4 52916.9 2575.63  24
   0  -6   4 48813.5 2567.76  19
   0   6  -4 54518.8 2597.08  16
   0   6  -4 56549.9 2589.78  25
   0  -6   4 49806.9 2565.19  17
   0  -6   4 52974.3 2573.98   9
   0  -6  -4 56583.9 2581.28  15
   0  -6  -4 53920.9 2602.67  11
   0   6   4 54733.9 2571.24  13
   0  -6  -4 41546.8 2575.27  12
   0  -6  -4 52552.0 2554.47  19
   0  -6  -4 53056.1 2563.71  17
   0   6   4 55683.0 2578.20  56
   0  -6  -4 53608.2 2574.62   2
   0   6   4 54053.7 2573.22  20
   0  -6   5 11496.8 618.389  23
   0  -6   5 11991.2 619.624   9
   0   6  -5 11495.2 636.049  16
   0  -6  -5 12875.7 628.328  15
   0  -6  -5 10342.4 634.301  12
   0  -6  -5 11494.9 598.926  17
   0  -6   5 11235.3 612.387  19
   0   6   5 12331.0 617.056  13
   0   6  -5 13058.3 642.732  25
   0  -6  -5 13051.9 638.572  22
   0   6   5 12120.7 624.062  56
   0  -6   5 11731.6 608.973  17
   0   6   5 12664.4 621.590  20
   0   6   5 11536.7 621.663  24
   0   6  -6 12420.2 700.734  16
   0  -6  -6 13780.7 697.922  22
   0   6  -6 13707.4 690.134  39
   0   6   6 12655.0 695.647  56
   0  -6  -6 12371.7 692.602  40
   0   6   6 12504.3 691.448  20
   0   6  -6 12413.0 683.803  46
   0  -6   6 13618.7 693.082  23
   0  -6   6 13571.0 676.092  17
   0  -6  -6 14898.8 703.976  15
   0   6  -6 12614.1 680.750  31
   0   6   6 13955.2 690.191  13
   0  -6   6 12586.2 679.860  19
   0   6   6 13407.9 693.757  24
   0  -6   6 12659.9 687.168  14
   0  -6  -6 14197.5 688.708  36
   0  -6   6 12888.7 688.980   9
   0  -6  -6 12857.4 714.317  35
   0   6  -6 13920.8 717.940  25
   0  -6  -6 13932.6 686.863  52
   0  -6  -6 13103.2 724.984  12
   0  -6  -6 13561.0 697.824  51
   0  -6  -7 14066.7 786.542  35
   0   6   7 14292.4 764.259  56
   0   6  -7 14480.7 754.385  39
   0  -6  -7 17510.3 775.407  15
   0  -6  -7 14315.7 799.447  12
   0   6   7 15647.8 757.486  13
   0  -6  -7 14974.6 771.833  51
   0   6   7 14641.7 757.751  20
   0   6  -7 12119.7 739.622  38
   0  -6  -7 15065.3 753.014  36
   0   6  -7 14003.0 741.045  44
   0  -6   7 15358.0 757.724   9
   0  -6  -7 15119.6 754.152  22
   0   6  -7 12909.1 748.148  46
   0   6   7 15378.9 763.780  24
   0  -6   7 13822.8 755.040  23
   0  -6  -7 15493.9 755.529  52
   0  -6  -7 14202.7 746.026  30
   0   6  -7 13363.0 743.811  31
   0   6  -7 14239.1 767.340  16
   0  -6   7 14944.3 743.752  19
   0   6   8 12359.4 670.249  56
   0   6  -8 11998.1 655.452  39
   0  -6   8 12171.5 659.656  23
   0  -6  -8 13632.2 676.094  15
   0  -6  -8 12861.9 657.507  36
   0   6  -8 10759.4 642.582  31
   0  -6  -8 12276.6 677.935  51
   0   6  -8 12076.4 670.384  16
   0  -6   8 13096.7 659.786   9
   0   6  -8 11701.9 652.649  46
   0   6   8 12020.5 662.037  24
   0   6  -8 12191.2 644.840  44
   0  -6  -8 12375.1 708.179  12
   0  -6  -8 11928.8 637.710  30
   0  -6  -8 13083.2 659.290  52
   0   6   8 12692.0 659.408  20
   0   6   8 12665.8 657.573  13
   0   6  -9 8729.63 498.705  33
   0  -6  -9 9851.35 521.070  15
   0   6   9 8884.49 498.206  13
   0   6  -9 9575.10 515.430  15
   0  -6  -9 9926.04 562.543  12
   0   6   9 8744.55 516.331  56
   0  -6  -9 9355.96 501.694  36
   0   6  -9 8793.97 497.378  46
   0   6   9 8935.89 505.435  24
   0  -6  -9 9137.82 502.388  52
   0   6  -9 7821.10 494.826  39
   0  -6   9 9108.25 496.764   9
   0  -6  -9 8026.77 523.570  51
   0  -6   9 8928.06 502.025  23
   0   6  -9 8737.78 487.542  44
   0   6  -9 8432.37 508.930  16
   0   6   9 9139.53 504.345  20
   0  -6  -9 8527.65 521.435  40
   0   6  10 13078.2 776.317  24
   0   6  10 13974.3 777.791  20
   0   6 -10 14765.0 777.307  33
   0   6  10 14390.8 776.831  13
   0  -6 -10 15101.2 779.618  52
   0  -6  10 15679.6 780.224  23
   0  -6 -10 15922.2 830.972  12
   0  -6 -10 15859.0 801.104  15
   0  -6  10 14375.5 761.636  13
   0  -6 -10 13838.9 804.095  51
   0   6 -10 14107.4 761.977  44
   0   6 -10 13162.2 779.856  16
   0   6 -10 14079.3 770.151  46
   0  -6 -10 14975.4 775.779  36
   0  -6 -10 14539.4 792.687  40
   0  -6  10 15764.5 770.285   9
   0   6  10 13547.7 791.467  56
   0   6 -10 15081.1 784.394  15
   0  -6 -10 16239.9 809.712  35
   0   6 -10 13229.6 770.261  39
   0   6  11 9716.41 641.926  56
   0  -6 -11 12120.6 637.448  52
   0  -6 -11 13256.5 654.428  35
   0   6 -11 10472.9 620.578  46
   0  -6  11 11250.5 613.498   9
   0   6  11 11108.8 633.181  20
   0  -6 -11 13574.9 665.077  15
   0   6 -11 10712.1 630.659  33
   0  -6  11 11184.9 609.763  13
   0  -6 -11 11091.5 663.851  51
   0  -6 -11 12112.2 645.249  40
   0  -6 -11 12142.1 631.271  36
   0   6  11 12008.8 634.833  13
   0  -6 -11 13685.4 687.241  12
   0   6  11 11111.3 636.681  24
   0  -6  11 11749.8 626.815  23
   0   6 -11 11870.6 633.312  15
   0   6 -11 10342.5 613.358  44
   0  -6 -12 1474.15 133.524  32
   0   6 -12 1381.17 131.059  44
   0   6 -12 1470.02 137.611  46
   0  -6 -12 1475.54 151.463  36
   0  -6 -12 1584.11 155.978  40
   0   6  12 1451.83 141.441  20
   0   6 -12 1777.33 145.937  41
   0  -6 -12 1254.20 189.612  51
   0   6  12 1019.91 148.353  56
   0  -6  12 1366.06 125.997  23
   0  -6 -12 1736.47 156.179  35
   0   6 -12 1310.82 137.288  33
   0  -6 -13 3990.43 247.603  40
   0   6  13 4511.83 247.446  45
   0   6 -13 4557.54 258.663  52
   0  -6  13 3768.33 227.049  34
   0  -6 -13 4351.88 244.618  32
   0  -6 -13 3870.90 300.277  51
   0   6 -13 3389.89 242.556  44
   0  -6 -13 4313.04 246.394  35
   0   6 -13 4901.04 262.121  41
   0  -6 -13 5012.03 271.807  36
   0  -6 -14 4125.83 233.019  36
   0  -6  14 3491.52 198.868  34
   0  -6 -14 3833.38 207.441  32
   0   6 -14 4341.60 225.848  52
   0   6  14 3844.85 215.049  45
   0   6 -14 4414.65 227.361  41
   0  -7   0 23.5683 41.5290   9
   0  -7   0 28.4377 61.1280  17
   0  -7   0-24.7669 66.8649  22
   0  -7   0-18.9820 63.6168   8
   0  -7   0 24.9892 34.8085  23
   0  -7   0 49.9428 59.8664  11
   0  -7   0-19.2103 36.7380   2
   0   7   0 26.3301 55.1050  56
   0   7   0-5.52501 59.3395  24
   0  -7   1 55.2454 55.5373  19
   0  -7  -1 125.897 38.9360   9
   0  -7   1 72.1183 38.9823  23
   0  -7  -1 142.811 75.6654  11
   0   7   1 154.909 57.3326  24
   0  -7  -1 74.0015 29.9086  23
   0  -7  -1 10.9827 68.9785   8
   0   7   1 134.074 60.7309  56
   0  -7  -1 71.3251 41.0207   2
   0   7  -1 109.527 62.2925  24
   0  -7   1 70.9729 55.9283  22
   0   7   1 128.880 59.2265   7
   0  -7  -1 76.1148 59.6392  19
   0  -7   1 80.8373 57.6017   8
   0  -7  -1 153.400 75.2226  22
   0   7   1 136.018 54.5429  20
   0  -7   1 52.3045 42.3434   9
   0  -7   1 106.601 40.7005   2
   0  -7   1 125.345 56.7208  11
   0  -7   1 62.0796 57.5029  17
   0  -7  -2 447.858 59.0194   2
   0  -7   2 565.955 71.8667  22
   0   7   2 552.782 68.8021  20
   0  -7   2 503.999 63.0978  23
   0   7   2 514.235 74.0144  56
   0   7  -2 646.908 86.4437  24
   0  -7   2 644.557 73.6079  17
   0   7   2 477.411 59.4037  13
   0   7   2 524.088 52.1455   7
   0   7   2 583.467 76.3801  24
   0  -7   2 552.052 67.0835   9
   0  -7  -2 333.657 97.7678  11
   0   7   2 630.511 95.6966  25
   0  -7  -2 488.309 84.2747  17
   0  -7   2 556.980 73.0462  19
   0  -7   2 620.203 70.9683  11
   0  -7  -2 562.882 97.1157   8
   0  -7  -2 440.138 40.7497   9
   0  -7  -2 460.040 73.7246  19
   0  -7  -2 509.582 99.6273  22
   0   7   3 111.955 34.0376   7
   0   7   3 150.516 52.6526  24
   0  -7  -3 193.602 90.8066  11
   0   7  -3 138.335 70.9162  16
   0  -7  -3 153.973 54.4606  19
   0  -7  -3 225.214 88.4043   8
   0   7   3 141.112 51.8413  25
   0  -7  -3 227.082 91.3248  22
   0   7   3 148.140 45.2712  13
   0   7   3 138.989 52.4601  20
   0  -7  -3 110.181 37.4819   2
   0  -7   3 135.085 56.5566  19
   0  -7   3 170.256 57.5196  17
   0  -7   3 106.520 49.6263  22
   0   7   3 160.731 55.4656  56
   0  -7  -3 53.8386 54.4640  17
   0  -7   3 165.413 48.2544  23
   0  -7   4 22.5217 50.0986  17
   0   7   4 4.66604 40.6947  13
   0   7   4 11.3824 51.2453  56
   0   7  -4-8.09340 66.1817  16
   0  -7   4-14.5452 47.5349  23
   0  -7  -4-6.48321 40.3102  19
   0  -7  -4-8.89332 53.4713  17
   0  -7  -4 10.5200 33.6633   2
   0  -7   4-4.89531 50.2378  19
   0  -7  -4 33.8610 98.8082  11
   0   7   4 40.1568 46.6166  24
   0   7   4 10.0778 47.6531  20
   0  -7   5 23.4533 51.1117  17
   0   7  -5-5.42995 56.1731  39
   0   7  -5-7.46453 62.1808  25
   0  -7  -5 27.8279 86.5155  35
   0  -7  -5 53.2078 83.3784  30
   0   7  -5 25.0666 60.6404  16
   0   7  -5-4.84564 56.3944  38
   0   7   5 19.3457 56.8632  56
   0   7   5 10.6057 40.5740  13
   0  -7   5-20.9205 53.8949  19
   0   7  -5 20.7090 46.8674  33
   0  -7   5 45.2540 40.6118  14
   0  -7  -5 86.3546 73.6376  12
   0  -7  -5 64.6683 66.8470  36
   0   7   5 6.31268 47.6017  24
   0   7  -5 29.6637 47.8450  31
   0   7  -5 42.7569 57.2007  46
   0   7   5 28.1587 50.7191  20
   0  -7  -5-5.51304 72.8725  40
   0  -7   5 11.2853 47.5717   9
   0  -7  -5 24.0402 78.5706  22
   0  -7  -5 29.4939 40.4590  17
   0   7   6-7.37868 61.4608  56
   0  -7  -6 52.8006 87.8588  40
   0   7  -6-17.3990 56.3671  46
   0   7  -6 10.6645 50.8995  31
   0   7  -6 6.08140 59.3660  39
   0   7   6 44.7775 54.5516  20
   0  -7   6-5.73694 46.3260  14
   0  -7  -6 84.8491 81.3606  12
   0   7  -6-25.5696 74.3357  25
   0  -7  -6 33.9700 98.5179  35
   0  -7   6 12.7172 50.6828   9
   0  -7  -6 7.84878 80.2285  22
   0  -7  -6 7.66341 62.6681  15
   0  -7  -6 6.71621 83.0653  30
   0   7  -6 25.9369 45.7527  44
   0   7  -6 58.4489 57.1290  16
   0  -7   6 14.4531 45.5649  17
   0   7   6 7.02994 53.0022  24
   0   7   6 6.09166 45.5902  13
   0  -7  -6-6.57787 84.4089  51
   0  -7  -6-51.1372 73.0972  36
   0  -7   6 27.6580 54.2358  19
   0   7  -6 41.2453 54.9717  38
   0  -7  -7 127.649 76.7666  15
   0  -7  -7 155.515 80.9274  30
   0   7  -7 69.2815 56.3021  31
   0  -7   7 115.796 62.2432  23
   0  -7  -7 19.9212 114.197  35
   0   7   7 185.590 61.7480  13
   0   7  -7 63.4275 54.6474  44
   0  -7   7 23.1413 52.5668  19
   0   7   7 114.448 62.2142  20
   0  -7  -7 66.4056 73.7331  22
   0  -7   7 182.095 61.6784  14
   0  -7  -7 140.490 82.4899  36
   0  -7  -7 164.364 112.099  40
   0   7   7 149.452 73.7429  56
   0   7  -7 73.2358 64.8710  39
   0   7  -7 84.5662 63.7161  38
   0  -7  -7 116.124 96.6384  51
   0  -7   7 71.0115 56.0413   9
   0  -7  -7 122.040 98.5084  12
   0   7   7 186.150 63.5950  24
   0   7  -7 26.4014 65.5293  16
   0   7  -7 6.42773 61.8086  46
   0  -7  -8 44.0348 135.412  35
   0  -7   8 23.9226 64.4013  23
   0  -7  -8-71.7298 74.7434  30
   0  -7  -8 81.0671 118.488  51
   0   7  -8 54.9972 59.2961  44
   0  -7  -8 127.726 102.931  12
   0   7  -8 36.0239 71.8678  39
   0  -7  -8-80.6767 127.759  40
   0   7   8 9.24362 68.1471  56
   0  -7   8 57.2169 53.9376  14
   0   7  -8-45.9696 60.0428  16
   0   7  -8 77.8974 67.9167  46
   0   7   8 59.4645 55.2250  13
   0   7   8 31.2904 63.9820  20
   0  -7  -8 13.9663 89.8448  36
   0   7   8 33.6960 55.0175  24
   0  -7   8 53.2914 57.4116   9
   0  -7  -8 18.8257 73.0337  15
   0   7  -8 43.5558 58.8600  31
   0  -7   9 99.0099 56.4109  14
   0   7   9 121.026 80.0449  56
   0  -7  -9 97.9100 104.513  12
   0  -7  -9 133.407 100.655  36
   0   7  -9 123.153 72.6740  16
   0  -7  -9 10.0105 122.571  51
   0   7  -9 38.3363 71.0117  39
   0   7  -9 140.882 70.8560  15
   0  -7  -9 234.554 88.6233  15
   0  -7   9 16.7322 66.4710  23
   0   7  -9 144.442 76.3377  46
   0  -7  -9 111.584 67.9021  30
   0   7  -9 77.3390 61.5444  44
   0   7   9 88.8010 57.9099  13
   0   7   9 91.6461 64.4210  20
   0   7   9 197.587 69.8930  24
   0  -7   9 287.664 73.7341   9
   0   7 -10 102.231 76.8343  39
   0  -7 -10 248.122 136.882  40
   0   7 -10 8.53699 64.9170  15
   0  -7  10 94.4397 48.9545  13
   0  -7  10 24.7283 66.2103  23
   0   7  10 124.350 61.6618  13
   0   7  10-75.2982 80.5661  56
   0   7  10 83.8311 63.8125  24
   0  -7 -10 231.002 135.119  51
   0  -7 -10 72.7182 100.391  12
   0   7 -10 108.297 81.6268  46
   0   7  10 34.2653 70.5632  20
   0  -7 -10-21.7554 86.7605  15
   0  -7  10 14.8526 56.9015   9
   0   7 -10 91.4631 69.9285  44
   0  -7  10 115.309 57.6224  14
   0  -7 -10 204.458 101.802  36
   0   7  11 152.780 85.3899  56
   0  -7 -11 264.524 124.097  40
   0  -7 -11 174.313 92.5041  12
   0  -7 -11 200.254 126.699  35
   0   7 -11 213.941 82.2559  46
   0   7 -11 235.032 82.7699  33
   0  -7 -11 143.598 131.756  51
   0   7  11 181.916 65.5779  45
   0   7  11 223.299 74.5064  24
   0  -7  11 202.311 57.0724   9
   0   7 -11 319.579 70.7968  15
   0  -7 -11 382.535 105.003  36
   0   7 -11 243.856 74.5830  44
   0  -7  11 295.996 62.2175  14
   0   7 -11 240.004 84.5817  39
   0   7  11 217.497 71.7960  20
   0  -7  11 216.660 65.3963  23
   0  -7 -12 218.392 102.477  40
   0   7 -12 190.732 76.5072  33
   0   7 -12 143.462 61.2986  44
   0  -7 -12 214.390 100.985  35
   0  -7  12 155.268 56.5319  23
   0  -7 -12 242.763 96.5184  36
   0   7 -12 207.691 76.2076  46
   0  -7 -12 100.260 126.095  51
   0   7  12 177.934 63.5922  45
   0   7 -12 124.075 78.7133  41
   0   7  12 145.407 79.3083  56
   0   7  12 181.446 69.3600  24
   0   7 -13 109.437 66.7959  41
   0  -7 -13 85.8853 62.4911  32
   0   7  13 118.049 47.2658  45
   0  -7 -13 157.477 73.0277  40
   0  -7 -13 156.504 80.1039  36
   0  -7 -13 247.935 69.0213  35
   0   7 -13 195.187 66.7554  52
   0  -7 -13 259.782 111.001  51
   0  -7  13 119.250 39.9002  34
   0  -7 -14 124.074 59.8113  49
   0   7 -14 201.451 52.9802  41
   0  -7 -14 153.924 56.6560  36
   0  -7  14 134.232 24.9473  34
   0   7  14 147.668 32.9682  45
   0  -7 -14 188.951 36.1444  32
   0   7 -14 181.502 52.9977  52
   0   8   0 16467.1 716.335  56
   0  -8   0 14057.1 681.564   9
   0  -8   0 12647.7 673.534  23
   0  -8   0 15042.3 704.682  22
   0  -8   0 14559.5 702.174   2
   0   8   0 16155.1 717.788  24
   0  -8   0 13808.8 698.127  11
   0  -8   0 14700.9 701.350  17
   0   8   0 17496.4 774.909  25
   0   8   0 11637.1 656.062   1
   0   8  -1 32532.1 1536.94  24
   0  -8  -1 30770.7 1520.52  19
   0  -8   1 28422.0 1500.45  23
   0  -8  -1 31018.6 1526.69  11
   0   8   1 32747.6 1528.05  56
   0  -8   1 30418.4 1517.89  17
   0  -8  -1 31860.4 1530.93  22
   0   8   1 31850.1 1530.28  24
   0   8   1 31450.2 1520.93  20
   0  -8  -1 30425.3 1520.21   2
   0  -8   1 30698.7 1517.50  22
   0  -8  -1 28052.5 1494.09   9
   0  -8   1 29646.2 1517.08  19
   0  -8   1 29556.4 1505.65   9
   0  -8   1 29847.4 1512.82  11
   0   8  -1 35243.9 1543.79  25
   0  -8   2 10368.0 552.162   9
   0   8   2 10695.2 543.812   7
   0  -8  -2 10623.5 566.666  17
   0  -8   2 10133.0 557.454  19
   0  -8   2 10343.5 557.608  17
   0   8  -2 10656.1 569.875  25
   0  -8   2 10683.6 553.475  11
   0  -8   2 9833.63 545.633  23
   0  -8  -2 10905.2 579.235  11
   0   8  -2 11040.6 555.711  39
   0  -8  -2 10980.1 581.345  22
   0   8   2 10463.5 559.989  20
   0   8  -2 11270.9 580.247  24
   0   8   2 11186.5 572.754  24
   0  -8  -2 10175.5 558.631  19
   0   8   2 11535.3 570.512  56
   0   8  -2 11188.6 556.065  31
   0  -8   2 10551.2 556.260  22
   0  -8  -2 9568.00 554.231   2
   0  -8  -3 33373.3 1562.61  11
   0  -8   3 28430.7 1523.97  17
   0  -8   3 28769.3 1527.34  19
   0  -8   3 29924.8 1523.23  22
   0   8   3 29736.4 1510.29   7
   0   8   3 32152.3 1534.19  20
   0  -8  -3 31834.1 1536.54  17
   0   8  -3 31528.1 1561.94  16
   0   8  -3 30278.9 1524.93  39
   0   8   3 37967.1 1554.49  25
   0  -8  -3 30045.5 1535.11  30
   0  -8  -3 34250.7 1566.08  22
   0  -8   3 29443.8 1524.16   9
   0   8  -3 32788.3 1530.01  31
   0  -8  -3 30213.8 1525.70  40
   0  -8  -3 30624.4 1525.40  19
   0   8  -3 28117.2 1526.18  42
   0  -8  -3 28465.8 1519.12  36
   0   8  -3 32746.9 1526.05  33
   0   8   3 31112.9 1538.09  56
   0   8   3 32099.7 1543.63  24
   0  -8   3 29459.1 1521.09  23
   0  -8  -4 6753.69 389.755  40
   0   8  -4 7389.10 386.016  38
   0  -8   4 6950.25 387.905  19
   0  -8  -4 6502.06 380.583  36
   0  -8  -4 7073.14 384.398  26
   0  -8   4 6502.07 368.392  48
   0   8   4 7091.80 392.874  20
   0   8   4 6723.97 397.068  24
   0  -8  -4 6934.31 372.120  19
   0  -8   4 7370.95 387.244  17
   0   8  -4 7118.26 386.876  39
   0  -8  -4 8083.89 436.569  11
   0   8  -4 7029.51 382.369  33
   0   8   4 6572.82 368.035   7
   0  -8  -4 6761.99 399.612  30
   0   8   4 7232.18 401.206  56
   0  -8   4 6664.38 382.237  23
   0   8  -4 7218.70 417.561  16
   0  -8   4 6344.84 372.379  14
   0   8   4 7164.27 384.535  13
   0  -8  -4 6244.85 390.712  35
   0   8   4 7900.53 398.152  25
   0  -8  -4 7351.77 389.917  17
   0   8  -4 7505.15 386.744  31
   0   8   5 22392.0 1111.20  25
   0  -8  -5 20655.0 1107.39  40
   0  -8  -5 21461.8 1101.14  36
   0   8  -5 21647.2 1101.03  31
   0   8   5 21997.2 1103.65  13
   0  -8   5 20245.3 1094.23  14
   0   8   5 23044.7 1122.37  24
   0   8  -5 21822.2 1099.39  38
   0  -8  -5 19866.3 1115.02  35
   0   8  -5 22842.1 1103.22  33
   0  -8   5 22100.1 1106.46  19
   0  -8   5 21164.8 1104.05  23
   0   8  -5 20811.9 1101.88  46
   0   8  -5 22772.5 1137.57  16
   0   8  -5 22154.5 1106.16  39
   0   8   5 22144.1 1119.92  56
   0  -8   5 22344.3 1101.19  17
   0  -8  -5 22615.5 1140.40  22
   0  -8  -5 22428.2 1097.30  26
   0   8   5 22536.5 1111.33  20
   0  -8  -5 21245.2 1090.50  17
   0  -8  -6 9490.25 491.269  36
   0   8  -6 8794.00 505.874  16
   0  -8   6 9092.07 479.635  17
   0  -8   6 9403.59 488.855  19
   0   8  -6 8615.04 466.467  44
   0  -8   6 8734.98 479.641  14
   0  -8  -6 9828.07 520.233  22
   0  -8  -6 8226.96 491.880  51
   0   8  -6 9370.44 487.774  33
   0   8  -6 8256.53 476.301  38
   0   8   6 8954.14 491.071  20
   0   8  -6 8400.90 482.667  46
   0   8   6 8911.30 485.532  13
   0  -8  -6 9198.24 502.605  30
   0   8   6 9039.67 490.056  25
   0   8  -6 8741.96 480.735  31
   0  -8   6 9129.57 491.606   9
   0  -8  -6 7791.19 493.080  40
   0   8   6 8598.57 498.262  24
   0  -8  -6 8638.79 510.920  35
   0   8   6 9450.44 508.397  56
   0   8  -6 8737.80 487.750  39
   0  -8   7 17132.5 875.253  14
   0  -8  -7 17897.3 898.533  22
   0  -8  -7 16904.7 913.739  35
   0   8  -7 15333.5 854.739  44
   0  -8   7 18209.5 878.088  19
   0   8   7 17939.3 899.637  24
   0  -8  -7 17776.9 884.304  36
   0   8   7 17013.1 900.108  56
   0   8  -7 16428.1 882.012  39
   0   8  -7 16767.3 897.857  16
   0  -8  -7 16487.8 891.971  51
   0   8  -7 16338.8 876.194  46
   0   8  -7 16243.3 872.133  31
   0  -8  -7 18430.3 891.352  30
   0  -8   7 17854.8 887.310   9
   0  -8  -7 17004.8 898.442  40
   0   8   7 17737.0 887.752  20
   0   8  -7 14525.8 863.574  38
   0   8   7 17833.2 882.224  13
   0   8   8 6977.02 398.746  10
   0   8  -8 6462.95 389.537  39
   0   8  -8 6378.57 386.509  46
   0   8  -8 6177.86 378.295  31
   0   8   8 6987.73 395.347  20
   0  -8   8 7310.21 396.871   9
   0  -8  -8 6446.60 416.862  40
   0  -8  -8 6743.54 414.312  51
   0  -8  -8 7068.42 389.271  30
   0  -8  -8 7396.24 401.028  36
   0   8  -8 6321.95 366.703  44
   0   8   8 6370.84 400.326  24
   0   8  -8 6377.84 399.452  16
   0   8   8 6841.76 411.951  56
   0  -8   8 7187.43 388.144  14
   0  -8   8 7328.06 400.975  23
   0  -8  -8 6681.47 433.997  35
   0  -8   8 5746.96 361.741  47
   0  -8  -9 11568.2 601.900  30
   0  -8   9 12411.7 631.241  23
   0   8   9 11891.6 630.554  10
   0  -8  -9 11862.6 623.580  36
   0  -8  -9 11743.1 651.866  51
   0  -8   9 11944.8 617.463  14
   0   8   9 10906.7 622.342  20
   0   8   9 10913.3 642.205  56
   0  -8  -9 11257.2 647.059  40
   0  -8  -9 13276.9 673.807  35
   0  -8   9 12325.2 623.567   9
   0   8  -9 10981.5 620.185  39
   0  -8   9 9785.75 590.559  55
   0   8  -9 11334.0 631.123  16
   0   8   9 11286.8 592.089  45
   0  -8   9 11315.6 603.219  13
   0   8   9 11872.5 638.392  24
   0   8  -9 11482.8 619.391  46
   0   8  -9 10664.5 595.632  44
   0   8  -9 11264.2 621.988  15
   0   8  10 4122.73 276.956  24
   0   8  10 4112.46 268.941  20
   0  -8 -10 3719.41 230.770  30
   0  -8  10 3751.74 235.613  55
   0   8 -10 3748.29 264.905  39
   0  -8 -10 4570.02 277.870  36
   0   8  10 4386.54 273.463  10
   0   8  10 3709.58 282.892  56
   0  -8  10 3721.40 240.716  13
   0  -8 -10 3893.26 300.707  51
   0   8  10 4263.43 241.037  45
   0   8 -10 4269.06 265.314  15
   0   8  10 3508.55 256.237  25
   0  -8  10 4480.00 263.050  14
   0  -8  10 4619.25 273.118  23
   0  -8  10 4305.28 260.986   9
   0   8 -10 4012.34 247.158  44
   0   8 -10 4388.91 268.910  46
   0  -8  11 4148.24 261.938  23
   0   8  11 4184.67 241.730  45
   0   8 -11 3952.19 266.746  39
   0   8 -11 4190.84 265.951  46
   0   8  11 3999.66 290.298  56
   0   8 -11 3631.58 242.809  44
   0  -8 -11 4008.57 301.063  51
   0  -8 -11 4703.25 278.318  36
   0   8  11 4304.46 271.044  20
   0  -8  11 4173.75 228.279  27
   0   8  11 4434.82 285.554  24
   0  -8 -11 4660.70 298.562  40
   0  -8 -12 5692.80 328.265  35
   0  -8 -12 5521.34 321.851  36
   0  -8 -12 4594.72 342.134  51
   0   8 -12 5690.74 315.080  41
   0   8  12 5051.84 290.981  45
   0   8 -12 5931.24 317.825  46
   0  -8 -12 5080.47 322.556  40
   0   8 -13 7695.84 368.907  52
   0  -8 -13 6379.28 376.705  49
   0  -8 -13 7062.85 360.951  32
   0   8 -13 7640.39 369.981  41
   0  -8  13 5818.94 344.393  34
   0  -8 -13 7212.95 374.460  36
   0  -8 -13 6932.77 361.678  35
   0   9   0-7.99171 66.9638  56
   0  -9   0-71.5837 68.0954  17
   0  -9   0 18.6602 57.3795  30
   0   9   0 7.86722 67.4719  24
   0  -9   0-6.81956 67.4388  22
   0   9   0 155.557 241.269  25
   0   9   0 28.4625 47.1113  31
   0   9   0-22.3879 54.6153  38
   0  -9   0-9.15261 58.7232  48
   0  -9   0 6.42451 69.7445  11
   0   9   0 85.2427 63.8432  39
   0  -9   0 8.30760 38.9140   9
   0   9  -1 153.780 65.8746  42
   0   9  -1 94.9629 55.9775  38
   0  -9   1 142.076 42.6551  23
   0  -9  -1 144.533 66.3682  30
   0   9  -1 204.008 62.2376  39
   0   9   1 253.003 60.5990  38
   0   9  -1 175.417 75.1874  25
   0   9  -1 178.181 61.1926  31
   0  -9   1 183.108 56.0821  26
   0  -9   1 130.968 67.6817  17
   0  -9  -1 118.055 69.8549  19
   0  -9   1 142.700 60.2116  48
   0  -9   1 95.9524 67.1629  11
   0   9  -1 214.282 81.1840  24
   0  -9   1 202.430 49.5130   9
   0   9   1 160.613 72.7559  56
   0   9   1 231.146 76.5988  24
   0  -9   1 191.500 70.9533  19
   0  -9  -1 219.059 85.5050  22
   0  -9   1 139.849 70.6618  22
   0  -9  -1 78.3639 76.6382  11
   0   9  -2 1324.46 117.009  31
   0   9  -2 1272.02 123.144  42
   0   9   2 1202.89 119.405  20
   0   9   2 1263.54 127.718  24
   0   9  -2 1376.71 129.269  25
   0   9  -2 1596.11 120.385  39
   0  -9  -2 1250.63 124.356  30
   0  -9   2 1321.33 105.874  23
   0  -9  -2 1485.94 138.911  17
   0  -9   2 1366.34 123.948  17
   0  -9   2 1391.34 111.360   9
   0   9   2 1521.32 133.292  56
   0   9  -2 1439.28 148.195  16
   0   9  -2 1417.07 117.442  38
   0  -9  -2 1133.44 120.021  48
   0  -9  -2 1446.52 145.227  11
   0  -9   2 1283.91 121.847  22
   0  -9  -2 1218.19 124.440  19
   0  -9   2 1285.87 124.907  19
   0   9  -2 1521.34 143.331  24
   0   9   2 1300.46 109.795  38
   0  -9   2 1381.07 109.794  26
   0  -9  -2 1592.81 151.635  22
   0  -9   2 1357.46 109.859  48
   0  -9   3 153.001 57.1745  48
   0  -9  -3 142.251 77.9071  17
   0  -9  -3 89.9714 81.8456  35
   0   9   3 43.1731 55.6379  10
   0   9   3 77.4993 71.6000   7
   0  -9   3 57.0930 44.5190  23
   0   9  -3 198.373 84.9757  16
   0   9  -3 118.596 56.6117  33
   0   9   3 157.680 70.7850  24
   0   9   3 77.1879 64.0818  56
   0   9  -3 76.0080 64.2453  25
   0  -9  -3 35.5111 59.2209  19
   0  -9  -3 140.138 69.6786  48
   0  -9   3 136.946 72.1980  19
   0  -9   3 147.234 64.1144  22
   0  -9  -3 189.077 89.1661  30
   0  -9  -3 143.370 100.889  22
   0   9   3 49.3867 48.4567  38
   0   9  -3 103.970 58.7624  31
   0  -9   3 151.352 52.3581  26
   0   9   3 93.6433 59.4823  20
   0  -9  -3 103.176 101.577  11
   0   9  -3 33.0952 62.1524  38
   0  -9   3 86.8954 66.8326  17
   0   9  -3 141.102 60.2858  39
   0  -9   3 63.1237 33.7911  14
   0  -9  -3 85.6470 66.1957  26
   0  -9   3 169.744 53.4735   9
   0  -9   4 75.2762 60.6781  19
   0  -9  -4 84.7127 74.4806  36
   0   9   4 13.9677 56.4114  20
   0   9  -4 63.3001 75.3477  16
   0   9  -4 36.2187 59.2026  31
   0   9  -4 6.34049 57.9882  39
   0   9  -4 40.0675 61.0471  38
   0  -9  -4 89.5946 88.4500  35
   0  -9  -4 13.8176 45.3792  19
   0  -9   4 75.2996 54.7480   9
   0   9   4-8.27076 65.9376  24
   0  -9   4 8.13438 47.6442  26
   0  -9  -4 90.9061 93.9592  30
   0   9   4 16.3742 63.9707  56
   0   9  -4 28.4486 51.2552  33
   0  -9  -4 93.6957 86.9964  40
   0  -9  -4-13.1608 61.0761  17
   0   9   4 37.2505 57.0077  10
   0  -9  -4 52.3249 68.1757  48
   0  -9   4 13.8998 36.7174  14
   0  -9  -4 22.5169 65.1167  26
   0   9  -4 81.8465 69.4094  25
   0  -9   4-5.89402 47.0022  23
   0  -9   4 65.5951 54.1061  48
   0  -9   4 25.5527 61.8278  17
   0   9   4 220.626 144.729  25
   0  -9   5 39.8826 57.3137  48
   0  -9  -5-6.99638 93.8003  40
   0   9  -5 43.1048 60.3900  33
   0   9   5 58.2087 97.6652  25
   0   9   5 26.5206 69.5399  24
   0  -9   5-32.9808 64.6861  17
   0  -9  -5 112.734 62.9854  48
   0  -9   5 6.98619 57.8558   9
   0   9  -5 47.9429 67.7455  39
   0  -9   5 46.8038 58.3312  23
   0   9  -5 25.8160 59.0233  46
   0  -9  -5 77.2967 64.8553  26
   0   9  -5-29.3188 58.4987  38
   0  -9   5 32.1211 44.3450  14
   0   9   5 142.141 75.7706  56
   0   9   5 37.0568 56.7091  20
   0   9   5-47.0140 59.9535  10
   0  -9  -5 68.0133 56.2080  17
   0  -9   5 7.14493 67.9001  19
   0   9  -5 20.9389 67.6972  16
   0  -9  -5 8.01935 99.1908  35
   0  -9  -5 43.4173 100.722  22
   0   9  -5 55.9118 57.6608  31
   0  -9  -5 81.2265 84.7402  36
   0   9  -6 178.045 72.6178  38
   0  -9  -6 149.647 104.006  22
   0   9   6 229.348 72.4192  20
   0   9   6 134.764 83.2876  56
   0   9  -6 364.901 76.3152  33
   0  -9  -6 160.091 105.071  30
   0   9   6 173.329 67.1254  10
   0  -9  -6 181.037 111.562  40
   0  -9  -6 212.579 123.235  35
   0   9  -6 268.256 78.3861  16
   0   9   6 150.040 78.8797  24
   0   9   6 48.3076 83.6801  25
   0   9  -6 302.524 73.6183  31
   0  -9  -6 229.324 65.2710  26
   0  -9   6 187.652 65.1997  17
   0   9  -6 222.919 72.8594  46
   0  -9   6 284.953 57.0542  14
   0  -9   6 283.828 75.6104  23
   0   9  -6 232.724 78.8803  39
   0  -9  -6 282.790 98.1055  36
   0  -9   6 381.431 79.2626  19
   0   9  -7 18.4752 47.2549  44
   0   9  -7 64.0870 71.6398  46
   0  -9  -7 144.284 127.127  35
   0   9  -7 132.063 65.8857  31
   0   9   7 153.882 81.7894  56
   0   9  -7 41.9898 68.0432  33
   0   9   7 19.5374 70.3514  24
   0  -9  -7 125.612 103.035  51
   0  -9   7 65.0973 66.5702  23
   0  -9  -7 130.971 119.756  40
   0   9   7 51.2600 55.2670  10
   0  -9   7 19.9739 47.9719  14
   0  -9  -7 40.5335 94.3542  30
   0  -9   7-16.2574 63.9611   9
   0  -9   7 43.3974 66.4869  19
   0  -9  -7-22.1704 99.3182  36
   0   9  -7 7.61452 72.3743  39
   0   9  -7 68.5357 67.6101  16
   0   9   7 24.5491 63.0708  20
   0   9  -7 30.3512 61.5820  38
   0   9   7 16.0607 74.8979  25
   0   9  -8 932.433 88.4291  44
   0  -9   8 727.155 87.3074  14
   0   9  -8 764.781 97.0960  31
   0   9  -8 879.528 109.162  46
   0  -9  -8 716.547 132.466  51
   0   9  -8 818.003 115.607  39
   0   9   8 664.657 96.6472  10
   0  -9  -8 645.038 126.688  36
   0   9   8 591.816 100.561  25
   0  -9   8 930.107 106.435   9
   0  -9  -8 736.688 159.077  35
   0   9   8 755.844 120.172  56
   0   9  -8 745.795 100.792  16
   0  -9  -8 930.270 123.078  30
   0   9   8 732.331 102.260  20
   0   9   8 594.250 101.113  24
   0  -9   8 879.499 94.5942  47
   0  -9  -8 641.653 151.356  40
   0   9   9 185.236 78.0894  24
   0   9  -9 159.717 81.1617  39
   0  -9  -9 241.082 136.647  40
   0   9   9 182.225 82.9382  56
   0   9  -9 177.366 83.3859  46
   0   9   9 205.098 89.5437  25
   0  -9   9 198.217 57.1154  14
   0   9   9 171.558 67.6653  20
   0   9  -9 89.9020 56.4384  44
   0  -9   9 298.843 68.7203   9
   0   9  -9 29.6970 54.4300  15
   0   9   9 143.804 59.4059  10
   0  -9  -9 148.781 99.5607  36
   0  -9  -9 21.0188 132.665  35
   0  -9  -9 228.724 81.5256  30
   0  -9  -9 142.020 113.295  51
   0  -9   9 227.565 73.3392  55
   0  -9 -10-6.93837 94.5204  36
   0  -9  10 23.8826 56.1530  55
   0   9 -10 28.6856 71.8310  39
   0  -9 -10-18.6394 122.296  35
   0   9  10 31.0841 55.0441  20
   0  -9 -10-26.0405 111.389  51
   0  -9 -10-25.5525 120.390  40
   0   9  10-27.8644 68.9957  24
   0  -9  10 7.22447 56.0566  23
   0  -9 -10 60.3170 53.0713  30
   0   9 -10 124.945 73.7441  46
   0   9  10 20.8134 73.7061  56
   0   9 -11 42.5432 67.9666  46
   0   9  11 127.364 68.6997  24
   0   9 -11 114.378 67.9955  39
   0  -9  11 98.7223 34.9421  27
   0  -9 -11 39.1955 108.542  51
   0  -9 -11 170.171 92.5798  36
   0  -9  11 59.5341 49.1825  23
   0  -9 -12 14.5910 72.5339  36
   0  -9  12 31.2689 37.2138  34
   0   9 -12 13.0625 63.0814  41
   0  -9 -12 43.3517 63.7990  32
   0  -9 -12 108.985 84.9827  40
   0  -9 -12-21.8257 76.1579  49
   0 -10   0 2349.52 194.063  22
   0  10   0 2631.49 181.379  39
   0 -10   0 2229.03 171.314  30
   0  10   0 2530.68 186.224  10
   0  10   0 2565.62 196.170  24
   0 -10   0 2504.29 189.173  17
   0 -10   0 2311.67 174.434  48
   0  10   0 2479.49 167.450  38
   0 -10   0 2531.01 191.094  19
   0 -10   0 2528.23 169.578  26
   0  10   0 2397.17 172.800  31
   0  10   0 2383.82 208.982  25
   0 -10   1 33920.8 1808.26   9
   0  10  -1 37774.2 1852.53  24
   0  10   1 36789.3 1847.90  56
   0 -10   1 36380.3 1810.43  26
   0 -10  -1 33700.8 1815.83  30
   0 -10  -1 37905.1 1815.15  26
   0  10   1 44549.1 1892.98  25
   0  10   1 36920.2 1815.97  31
   0  10   1 36579.0 1845.33  24
   0  10  -1 36642.6 1821.68  39
   0 -10  -1 39239.7 1851.29  22
   0 -10   1 37800.6 1834.44  17
   0  10   1 36670.5 1837.05  10
   0  10   1 39853.6 1830.48  39
   0  10  -1 35112.9 1816.24  31
   0  10   1 35927.6 1811.13  38
   0 -10   1 34868.7 1810.92  48
   0  10  -1 36010.3 1839.28  10
   0 -10   1 37810.7 1836.68  22
   0  10  -1 35512.6 1813.56  38
   0 -10  -1 38432.2 1837.64  19
   0  10  -1 35487.1 1838.85  25
   0 -10  -2 11394.3 599.821  22
   0  10   2 10578.0 582.731  24
   0 -10   2 10677.5 572.169  22
   0  10  -2 9701.38 555.628  31
   0  10   2 10484.1 583.618  56
   0 -10  -2 10792.3 571.471  19
   0 -10   2 10804.1 550.729  26
   0 -10  -2 10155.9 563.780  30
   0 -10   2 11156.7 573.182  17
   0 -10  -2 11176.9 581.371  17
   0  10  -2 10132.4 574.045  25
   0  10  -2 10583.7 578.962  10
   0 -10   2 10997.7 574.337  19
   0  10  -2 10113.4 596.059  16
   0 -10   2 9752.45 544.894  23
   0 -10  -2 11158.1 563.728  48
   0  10   2 10525.7 551.391  38
   0  10   2 10372.2 574.174  10
   0 -10   2 9508.93 546.902  48
   0 -10   2 10505.1 554.535   9
   0  10  -2 10802.7 557.962  38
   0  10  -2 9571.86 556.983  39
   0 -10   3 18684.2 931.570  17
   0 -10   3 18137.4 918.984   9
   0 -10  -3 17472.7 929.680  30
   0  10   3 17951.3 944.619  56
   0  10   3 17582.2 935.010  10
   0 -10   3 18659.7 909.094  26
   0  10  -3 18429.1 923.774  31
   0  10   3 17682.5 909.746  38
   0  10  -3 18019.2 918.675  38
   0 -10  -3 18149.5 920.722  40
   0 -10   3 17940.9 931.896  19
   0 -10  -3 17260.7 916.308  48
   0 -10  -3 17487.8 932.325  17
   0  10  -3 17878.4 915.480  33
   0  10  -3 19069.8 945.426  10
   0 -10  -3 17191.6 920.774  35
   0 -10  -3 17496.8 919.369  19
   0 -10   3 17189.2 911.341  23
   0 -10  -3 19151.3 921.865  26
   0  10  -3 17272.7 935.511  25
   0  10   3 17169.1 928.119  20
   0  10  -3 16870.7 956.641  16
   0  10   3 17309.0 941.018  24
   0 -10  -3 20752.6 973.387  22
   0  10  -3 17668.8 923.297  39
   0 -10   3 17164.6 907.713  48
   0 -10   3 18197.4 926.298  22
   0  10  -4 1412.41 133.386  46
   0  10   4 1360.77 134.884  20
   0  10  -4 1609.54 153.626  25
   0  10  -4 1333.22 127.600  38
   0  10   4 1673.93 129.121  38
   0 -10  -4 1352.22 135.087  17
   0 -10  -4 1439.07 134.542  26
   0  10   4 1478.46 149.310  56
   0  10  -4 1302.61 150.446  16
   0 -10  -4 1585.40 153.586  40
   0  10  -4 1527.01 136.437  39
   0 -10   4 1383.69 123.804  48
   0 -10  -4 2243.76 194.182  22
   0 -10   4 1357.14 123.070  23
   0  10  -4 1380.77 130.588  31
   0 -10   4 1558.64 145.634  19
   0 -10  -4 1487.16 163.462  30
   0  10   4 1121.14 140.245  24
   0 -10   4 1527.75 119.779  26
   0 -10  -4 1376.57 129.008  48
   0  10   4 1505.04 139.650  10
   0 -10   4 1640.28 143.087  17
   0  10  -4 1603.55 128.909  33
   0 -10   4 1356.99 127.687   9
   0 -10  -4 1422.97 151.022  35
   0  10  -5 24115.2 1199.56  31
   0  10  -5 22390.4 1197.17  46
   0  10  -5 22435.8 1228.15  16
   0 -10   5 22665.9 1181.29  14
   0 -10  -5 21504.9 1182.58  17
   0 -10   5 23505.9 1200.27  23
   0 -10  -5 23036.2 1182.10  48
   0  10  -5 22526.6 1191.22  38
   0  10  -5 22899.3 1223.68  25
   0 -10  -5 22647.6 1211.03  35
   0  10  -5 24007.4 1197.57  33
   0  10   5 24542.4 1194.97  38
   0 -10  -5 24282.7 1193.35  26
   0 -10   5 24917.8 1207.50   9
   0 -10   5 25004.4 1212.91  19
   0 -10  -5 24502.3 1219.19  30
   0 -10   5 25035.9 1207.68  17
   0  10   5 24563.0 1232.23  56
   0  10   5 24431.1 1213.07  20
   0  10   5 24299.4 1229.95  24
   0  10   5 22523.5 1214.23  10
   0  10  -5 24122.7 1205.82  39
   0 -10   5 23649.7 1183.76  48
   0 -10  -5 24161.6 1208.63  40
   0 -10   6 1231.74 125.445   9
   0  10   6 1408.11 136.326  10
   0 -10   6 1684.65 144.516  19
   0 -10  -6 1278.69 133.483  49
   0 -10  -6 1542.45 118.726  26
   0  10  -6 1452.09 123.359  38
   0  10  -6 1148.51 135.735  16
   0  10  -6 1600.70 141.625  39
   0 -10   6 1296.83 130.579  23
   0  10  -6 1005.48 116.783  33
   0  10   6 1498.03 154.565  24
   0 -10   6 1283.10 110.729  14
   0 -10  -6 1567.53 165.471  40
   0  10  -6 1300.74 149.180  25
   0 -10   6 1466.12 132.006  17
   0 -10  -6 1415.85 170.711  22
   0  10   6 1285.28 130.690  20
   0  10  -6 1353.53 125.339  31
   0 -10  -6 1456.89 167.699  35
   0 -10  -6 1370.70 145.537  36
   0  10  -6 1202.60 127.099  46
   0  10   6 1367.84 151.205  56
   0  10   7 17153.0 884.200  24
   0 -10  -7 16273.4 882.419  35
   0  10  -7 15875.5 870.330  16
   0  10   7 14917.8 936.169  25
   0 -10  -7 17886.7 862.743  36
   0  10  -7 17161.9 862.909  39
   0 -10   7 14985.7 839.663  47
   0  10   7 16336.0 885.833  56
   0  10  -7 16229.5 855.185  33
   0  10   7 16328.8 862.524  20
   0 -10  -7 16467.9 875.061  40
   0 -10   7 18005.8 860.652  19
   0 -10  -7 17011.9 855.799  49
   0  10   7 16902.1 870.043  10
   0 -10  -7 17187.8 868.946  30
   0  10  -7 15902.0 853.064  46
   0 -10   7 16308.6 843.732  14
   0  10  -7 14646.6 836.642  38
   0  10  -7 15297.5 848.106  31
   0 -10   7 16905.1 860.442  23
   0 -10  -8 1505.97 166.503  51
   0  10  -8 1653.80 145.802  46
   0 -10   8 1580.30 132.802  14
   0  10   8 1890.96 173.964  56
   0 -10  -8 1688.75 162.705  36
   0  10  -8 1901.63 151.943  33
   0  10  -8 1642.14 143.831  31
   0  10   8 1570.12 147.470  10
   0 -10  -8 1911.76 160.685  49
   0  10   8 1628.80 149.684  20
   0 -10  -8 1585.54 158.498  30
   0 -10   8 2014.96 156.170  23
   0  10   8 1120.60 384.141  25
   0 -10  -8 2086.00 201.184  35
   0  10   8 1460.53 159.871  24
   0 -10  -8 1905.64 192.815  40
   0 -10   8 1731.44 132.788  47
   0  10  -8 1693.70 155.139  39
   0 -10   8 1803.92 144.793  55
   0  10  -9 10636.2 578.173  39
   0  10   9 10671.6 595.866  24
   0  10   9 10301.9 601.938  56
   0 -10   9 10172.5 553.528  55
   0 -10   9 11431.0 579.624  23
   0 -10  -9 11155.9 581.474  36
   0 -10  -9 10345.9 558.706  30
   0 -10   9 9172.52 540.891  47
   0  10   9 10783.8 583.570  10
   0 -10  -9 11404.5 607.706  35
   0 -10  -9 11007.7 600.380  40
   0 -10  -9 11149.5 578.629  49
   0  10  -9 11003.5 574.444  46
   0  10  -9 10696.0 570.449  33
   0  10 -10 471.443 87.8245  39
   0  10  10 356.660 92.4623  24
   0 -10 -10 471.869 98.7438  49
   0 -10  10 419.400 64.8169  55
   0  10 -10 487.103 84.1698  46
   0 -10 -10 437.023 124.787  35
   0 -10 -10 439.850 63.8838  30
   0 -10 -10 434.924 126.438  40
   0  10 -10 374.698 81.6720  33
   0 -10 -10 588.575 104.481  36
   0  10 -11 9951.67 479.405  46
   0  10  11 9974.82 473.982  38
   0 -10 -11 8661.29 489.134  35
   0 -10 -11 8703.45 489.071  40
   0 -10  11 7740.70 444.635  27
   0 -10 -11 9019.95 478.383  32
   0 -10 -11 9260.36 483.482  49
   0  10 -11 9715.04 474.374  41
   0  10 -11 8636.54 474.505  33
   0 -10 -12 1036.33 86.9008  32
   0  10  12 947.169 81.1077  38
   0 -10 -12 852.129 91.2280  49
   0 -10  12 720.368 60.4337  34
   0  10 -12 875.231 81.1552  41
   0  11   0-10.1347 71.7706  24
   0 -11   0-60.9549 89.0070  17
   0  11   0-34.5267 66.7538  38
   0 -11   0-27.4677 91.6959  22
   0 -11   0-56.2642 68.2413  26
   0  11   0 37.6096 57.5926  31
   0 -11   0-33.8236 75.7449  19
   0  11   0 44.3919 55.0518  10
   0 -11   0 31.0734 78.5224  48
   0  11   0-17.3830 65.5251  25
   0 -11   0 66.0064 75.4194  30
   0  11   0 13.3191 64.7208  39
   0  11  -1 1925.17 153.282  39
   0  11   1 1965.60 175.406  24
   0  11  -1 1910.43 149.797  38
   0  11  -1 2043.67 166.484  25
   0 -11  -1 1887.97 179.687  22
   0 -11   1 2092.62 153.099  30
   0 -11  -1 1704.57 161.538  19
   0 -11   1 1910.65 156.043  48
   0  11  -1 1997.87 164.945  10
   0  11  -1 1753.18 150.762  31
   0  11   1 1832.22 159.642  10
   0 -11  -1 1829.67 137.659  55
   0  11   1 1955.17 152.699  31
   0  11   1 1990.76 148.450  38
   0  11   1 2190.88 200.160  25
   0 -11  -1 1844.54 151.920  26
   0 -11   1 1750.04 145.024  26
   0 -11  -1 1962.58 157.918  30
   0  11  -1 1811.73 177.234  16
   0 -11   1 1968.78 171.504  17
   0  11   1 1824.06 154.207  39
   0 -11   1 2140.83 176.263  22
   0  11  -1 2060.34 179.715  24
   0  11   2 562.474 85.9480  31
   0 -11  -2 480.833 104.965  30
   0 -11   2 425.223 90.2244  48
   0 -11   2 520.456 87.0829  26
   0 -11  -2 620.461 107.796  17
   0 -11   2 482.472 97.3885  22
   0 -11  -2 558.438 94.4440  19
   0  11  -2 510.283 93.3747  25
   0 -11   2 340.704 92.8353  17
   0  11   2 528.859 109.825  56
   0 -11  -2 523.037 119.065  22
   0 -11   2 619.941 103.082  19
   0  11   2 524.592 86.4510  38
   0  11  -2 418.957 82.9700  10
   0  11  -2 505.549 90.6348  38
   0  11   2 756.820 106.926  39
   0  11  -2 443.072 84.0414  39
   0 -11   2 417.011 69.7360   9
   0  11   2 725.685 110.531  24
   0  11  -2 589.696 88.7813  31
   0  11   2 556.011 90.9424  10
   0  11  -2 619.240 84.3960  33
   0  11   2 782.534 329.339  25
   0  11  -2 653.502 112.471  16
   0 -11  -2 672.529 108.834  48
   0 -11  -3 113.617 73.9299  26
   0  11   3 81.0087 76.3684  24
   0 -11  -3-33.0292 72.0438  17
   0  11   3 113.206 68.0960  38
   0 -11   3 10.3055 58.1156  26
   0 -11  -3 65.0444 83.0653  48
   0 -11  -3 42.3563 82.6356  40
   0 -11   3 84.4222 79.1149  19
   0 -11  -3-22.9932 105.126  22
   0 -11  -3-15.4971 94.8002  30
   0  11   3-303.577 534.748  25
   0  11  -3 72.2619 69.0044  39
   0 -11   3 5.75514 76.6373  48
   0  11   3 95.4409 87.8168  56
   0  11   3 45.1980 64.0486  10
   0  11  -3 35.8945 65.1502  25
   0  11  -3 87.0634 60.0190  10
   0  11  -3 6.76905 66.1075  31
   0  11  -3 18.5862 57.7993  33
   0 -11   3 6.45816 51.8511   9
   0  11  -3 106.854 69.4653  38
   0 -11  -3-19.1570 61.8182  19
   0 -11   3 82.1924 47.5698  23
   0 -11   3 98.4145 77.9473  17
   0  11  -3 24.2405 82.9466  16
   0 -11  -4 21.4685 92.7588  35
   0  11  -4 6.79477 61.1875  46
   0  11  -4 74.8365 67.5703  31
   0  11  -4 7.56582 71.5546  39
   0 -11   4 6.17727 51.4582  23
   0  11  -4 55.4693 67.6216  38
   0 -11  -4-7.05304 63.1846  17
   0 -11   4-50.3643 70.8960  48
   0 -11  -4 80.4056 91.8911  40
   0  11  -4 6.39435 58.7573  33
   0 -11  -4 59.8056 103.167  22
   0 -11   4 51.3923 56.5111  26
   0  11   4 31.3750 78.2681  24
   0  11   4 27.6560 61.9392  10
   0 -11  -4-41.8977 78.3527  48
   0 -11   4 6.95362 49.6592   9
   0  11  -4 69.0983 70.6339  16
   0  11  -4 28.1860 69.7871  25
   0 -11   4 17.0966 77.3710  19
   0 -11   4 8.14737 74.4912  17
   0  11   4-34.8940 70.1399  38
   0 -11  -4 50.0630 106.253  30
   0  11   4 43.3256 83.4440  56
   0 -11  -4 6.21497 72.5474  26
   0  11  -5 104.967 65.1688  33
   0 -11  -5-78.5299 102.302  35
   0 -11   5 117.395 75.3975  17
   0  11  -5 17.7692 63.8592  38
   0  11   5 5.93277 70.1078  38
   0 -11   5 58.9194 59.1019   9
   0  11  -5 69.6833 78.1985  39
   0 -11  -5-17.1251 105.327  30
   0 -11  -5 17.1533 69.5608  26
   0  11   5 106.590 76.7445  24
   0 -11   5 52.6412 71.5598  48
   0  11  -5 9.72725 73.3478  25
   0 -11   5 42.6837 75.2786  19
   0 -11   5 87.4669 57.3926  23
   0  11   5-10.9542 80.1306  56
   0  11   5 28.3871 61.1877  10
   0 -11  -5-70.6625 61.9261  48
   0  11  -5 47.1323 63.9885  31
   0  11  -5-10.7268 66.5285  16
   0 -11  -5 21.6759 95.5072  40
   0  11  -5-13.6507 63.0372  46
   0 -11  -6 7.63965 104.079  40
   0 -11  -6 50.4903 107.720  35
   0  11  -6 6.68456 62.9419  33
   0  11  -6 54.1374 78.1157  39
   0  11  -6 11.3893 62.0626  38
   0  11   6 77.2793 72.1196  38
   0  11  -6 52.7743 66.3627  31
   0  11  -6 27.4834 67.0901  46
   0 -11  -6 4.73963 57.0185  26
   0 -11   6 22.7478 54.1692   9
   0 -11   6 6.86107 61.1614  17
   0  11   6 85.5817 77.0281  24
   0 -11   6-32.1395 68.9301  19
   0  11   6 77.3000 85.6821  56
   0  11   6 9.31537 64.8813  10
   0 -11   6 133.775 57.2376  23
   0  11  -7 13.0423 65.3225  33
   0 -11   7 21.2254 52.9624  23
   0 -11   7 29.5181 52.2761   9
   0 -11   7 20.8677 63.2886  19
   0 -11  -7-60.5341 114.304  35
   0 -11   7 5.51191 66.6755  47
   0 -11   7 103.345 76.7977  55
   0 -11  -7-52.9885 96.6497  30
   0  11   7-17.7934 52.0980  10
   0  11   7 161.869 90.9674  56
   0  11   7 97.9034 70.0603  38
   0  11  -7 19.0390 61.9632  31
   0  11   7 41.5079 70.3700  24
   0  11  -7 33.8986 67.0577  46
   0  11  -7 104.588 77.2823  39
   0 -11  -7-6.39364 77.5580  49
   0 -11  -7-39.2811 110.347  40
   0  11  -8 97.7192 75.3685  39
   0  11   8 123.270 68.2199  38
   0 -11  -8 8.36546 108.252  35
   0  11   8 143.952 87.7965  56
   0 -11  -8-18.6717 76.0482  49
   0 -11  -8 106.339 86.2788  30
   0  11   8 58.2296 71.1227  24
   0  11  -8 55.1949 59.2417  33
   0 -11   8 152.311 58.8699  23
   0 -11  -8 38.5473 112.200  40
   0  11  -8 76.8153 59.8370  31
   0  11  -8 129.560 68.7041  46
   0 -11   8 140.825 60.7839  47
   0 -11   8 101.178 69.9805  55
   0 -11  -9 90.8918 76.9522  49
   0 -11   9 44.4136 56.4749  55
   0 -11   9 163.055 55.9685  23
   0 -11  -9 208.766 108.276  35
   0  11   9-9.63968 62.5892  38
   0  11   9 26.2783 65.1708  24
   0  11  -9 105.516 65.3101  46
   0  11  -9 77.2964 60.2709  33
   0  11  -9 50.5008 63.8593  39
   0 -11  -9 159.459 68.8010  30
   0 -11  -9 98.7854 111.799  40
   0 -11   9 61.5043 43.7623  47
   0 -11 -10 243.141 74.6252  49
   0  11  10 297.603 65.5747  38
   0 -11 -10 271.686 96.5829  40
   0  11 -10 362.144 69.7482  41
   0 -11 -10 266.016 93.9101  35
   0 -11  10 241.400 41.6200  27
   0 -11  10 330.707 54.5842  55
   0 -11 -10 176.843 48.1793  30
   0  11 -10 381.050 67.6313  46
   0  11 -10 235.794 63.9945  33
   0  11 -10 330.274 72.4554  39
   0 -11  11-4.67437 23.0574  27
   0 -11 -11-64.2526 68.5044  35
   0 -11 -11 69.1135 54.3404  49
   0  11 -11-15.1904 45.5336  46
   0  11 -11 20.5002 40.2457  33
   0 -11 -11 22.5962 57.3037  32
   0 -11  11 18.9787 30.4014  34
   0  11  11-45.8991 46.9156  38
   0 -12   0 2137.16 165.831  48
   0  12   0 1712.12 149.164  31
   0  12   0 1722.32 156.626  10
   0  12   0 1759.14 150.861  39
   0  12   0 1882.73 175.093  24
   0  12   0 1808.15 147.360  38
   0 -12   0 2230.30 187.488  22
   0 -12   0 1986.20 166.724  19
   0 -12   0 1788.86 153.052  30
   0 -12   0 1929.02 153.824  26
   0  12   0 1330.59 164.650  16
   0  12   0 1958.25 160.632  25
   0 -12   0 2150.22 146.311  55
   0 -12  -1 14523.5 761.583  17
   0 -12  -1 12057.4 711.306  55
   0 -12   1 15908.3 767.865  22
   0 -12   1 15172.0 763.810  17
   0 -12   1 14617.3 730.907  55
   0  12  -1 13256.9 731.641  38
   0  12  -1 14129.8 731.303  33
   0  12   1 13686.6 767.242  24
   0 -12  -1 16010.5 783.693  22
   0  12   1 14063.7 732.558  38
   0  12  -1 14087.4 739.769  31
   0 -12  -1 14094.8 740.391  30
   0 -12  -1 14628.0 736.655  26
   0  12   1 14343.1 740.182  31
   0  12   1 13671.9 738.965  39
   0 -12   1 14120.0 728.125  30
   0  12  -1 13733.1 756.788  10
   0  12  -1 12798.0 775.781  16
   0 -12  -1 14474.4 753.667  19
   0  12   1 12849.0 749.585  10
   0  12  -1 14398.7 753.500  25
   0  12  -1 13569.7 738.955  39
   0 -12   1 15623.6 736.993  26
   0 -12   1 14537.4 740.151  48
   0  12   1 13303.2 752.412  25
   0 -12  -2 981.113 139.572  22
   0  12   2 557.512 94.2664  31
   0 -12   2 1077.27 124.114  17
   0  12  -2 578.877 94.3470  10
   0 -12   2 725.793 116.096  19
   0  12   2 816.574 114.978  25
   0 -12  -2 650.014 96.9968  19
   0  12  -2 729.275 98.5372  38
   0 -12  -2 771.495 115.971  48
   0 -12   2 756.675 97.2930  26
   0 -12   2 850.234 114.135  22
   0  12   2 738.857 98.2386  38
   0 -12  -2 786.255 116.937  17
   0  12  -2 830.949 102.989  31
   0 -12  -2 563.742 114.219  30
   0  12  -2 695.500 89.7744  33
   0 -12   2 822.898 108.157  48
   0  12  -2 892.864 129.629  16
   0  12  -2 849.055 106.770  25
   0  12  -2 696.197 104.817  39
   0  12   2 753.798 103.561  39
   0  12   2 758.937 116.037  24
   0  12   2 722.987 98.8120  10
   0  12  -3 23062.8 1257.13  39
   0  12   3 24092.7 1284.97  25
   0 -12   3 24805.7 1251.06  48
   0 -12  -3 22087.5 1256.76  17
   0 -12  -3 28856.1 1314.67  22
   0 -12  -3 26563.5 1253.76  26
   0 -12   3 25496.9 1274.05  19
   0 -12  -3 26153.6 1266.97  30
   0  12   3 24208.9 1272.14  10
   0  12  -3 23294.1 1290.81  16
   0  12  -3 24479.6 1247.91  33
   0 -12  -3 24996.0 1252.85  48
   0  12   3 25329.1 1288.76  24
   0  12   3 24790.5 1248.02  38
   0  12  -3 23793.9 1252.44  31
   0  12   3 24080.9 1251.81  31
   0 -12   3 25891.1 1241.48  26
   0  12  -3 23585.1 1268.82  25
   0  12  -3 24093.0 1246.85  38
   0 -12   3 27339.8 1276.88  17
   0  12  -3 23616.2 1250.77  46
   0  12   3 25975.6 1299.49  56
   0 -12  -4 91.6509 87.5167  40
   0  12  -4 85.5919 62.6684  31
   0  12  -4 102.920 67.1581  46
   0 -12  -4-5.87578 70.3473  26
   0  12  -4 109.720 75.1602  16
   0  12   4 10.6615 74.3279  24
   0  12  -4 64.0949 63.1437  38
   0 -12   4 123.546 59.4065  26
   0 -12   4 17.0667 73.2817  19
   0 -12   4 82.1813 52.4712   9
   0 -12  -4 31.7723 101.216  30
   0 -12   4 96.7592 78.1063  17
   0  12   4 9.22717 63.8007  10
   0 -12  -4 124.174 74.5172  48
   0  12  -4 90.2232 75.0789  39
   0 -12  -4 326.892 122.687  22
   0  12   4 73.2001 300.242  25
   0  12   4 59.0077 69.8169  38
   0  12  -4 117.343 62.9872  33
   0 -12  -4 80.6383 83.0447  35
   0  12   4 126.143 89.6552  56
   0  12  -4 36.5614 69.5163  25
   0 -12   4 112.279 74.8249  48
   0 -12   5 19302.4 914.021  55
   0 -12   5 17135.6 911.691   9
   0  12   5 17595.9 934.141  10
   0  12  -5 18845.6 925.812  39
   0 -12   5 18041.3 901.724  48
   0 -12   5 18831.6 924.624  17
   0 -12   5 16646.9 884.901  26
   0 -12  -5 17563.1 901.413  26
   0  12  -5 16252.4 900.048  38
   0  12  -5 18467.7 915.000  31
   0  12   5 20207.8 1024.66  25
   0  12  -5 18471.9 912.191  33
   0 -12  -5 19186.0 934.870  30
   0 -12  -5 17160.6 915.370  35
   0 -12  -5 15729.2 911.172  40
   0  12   5 17387.1 953.719  56
   0  12   5 17949.0 952.366  24
   0  12   5 18489.0 911.593  38
   0  12  -5 18535.4 940.199  25
   0 -12   5 19192.5 933.598  19
   0  12  -5 17182.6 912.126  46
   0 -12  -5 16584.3 893.800  48
   0  12  -6 1224.13 116.345  31
   0  12  -6 1120.43 122.505  39
   0 -12   6 1234.54 102.018  48
   0 -12  -6 1304.72 138.756  35
   0 -12  -6 979.125 97.4644  26
   0  12   6 1007.90 114.266  38
   0  12   6 956.222 134.727  56
   0 -12   6 1433.52 126.634  55
   0 -12   6 1329.86 124.876  19
   0  12   6 1120.54 121.954  10
   0  12  -6 1270.46 116.218  33
   0  12  -6 1128.12 117.841  46
   0 -12  -6 1096.64 140.418  30
   0 -12  -6 1220.93 140.528  40
   0  12   6 1309.21 142.440  24
   0 -12   6 1263.08 122.339  47
   0 -12   6 1045.79 104.258  23
   0 -12   7 16084.1 854.199  23
   0 -12   7 16668.2 850.510  47
   0  12  -7 16290.6 860.357  46
   0  12   7 16860.9 855.793  38
   0 -12   7 16069.1 858.211  19
   0 -12  -7 15953.5 870.490  35
   0  12  -7 16876.0 858.003  33
   0  12   7 16749.2 890.187  24
   0 -12   7 18140.8 858.703  55
   0  12  -7 17897.0 871.580  39
   0  12   7 15591.6 894.008  56
   0 -12  -7 16114.8 869.959  40
   0  12  -7 17430.2 859.554  31
   0 -12  -8 50.6912 74.8710  30
   0 -12   8 10.8319 49.2946  47
   0 -12   8 21.0742 61.7746  55
   0  12   8 17.1154 62.5906  24
   0  12   8-78.7641 64.6576  38
   0  12  -8 50.5570 54.4945  33
   0 -12  -8-12.3850 92.1616  40
   0  12  -8-12.0114 63.7957  39
   0 -12  -8-6.39809 89.0953  35
   0  12  -8 10.8466 55.8765  46
   0 -12  -9 9998.59 520.921  40
   0 -12  -9 8858.88 492.836  30
   0 -12   9 9605.44 492.214  55
   0  12  -9 10169.1 506.337  46
   0  12  -9 9812.60 502.533  33
   0 -12  -9 9368.89 516.443  35
   0 -12   9 8977.78 483.135  47
   0  12  -9 9818.87 497.302  41
   0  12   9 9532.64 500.228  38
   0  12  -9 10296.2 512.089  39
   0 -12 -10 36.7002 60.8215  32
   0  12 -10 87.5481 49.1507  39
   0  12 -10 164.927 47.0087  46
   0  12 -10 48.0564 41.6384  33
   0 -12  10 104.226 36.7298  55
   0 -12 -10 33.6452 69.4452  35
   0  12  10 110.769 48.2552  38
   0  12  10 73.8905 48.7351  39
   0  12 -10 110.734 44.6907  41
   0 -12  10 76.7634 27.7815  27
   0  13   0 131.435 59.9506  10
   0  13   0-48.1535 66.4953  38
   0 -13   0 38.8153 70.9752  26
   0  13   0 6.55672 64.2855  31
   0  13   0-47.7427 74.0114  16
   0 -13   0 44.4198 81.6359  48
   0 -13   0 49.7451 69.2886  30
   0 -13   0-23.5519 69.5895  19
   0  13   0 53.6722 55.6425  25
   0 -13   0 30.2346 57.7691  55
   0  13   0-43.8937 57.6344  33
   0  13   0 6.71956 70.8502  39
   0 -13   0-56.1426 87.2422  22
   0  13  -1 259.879 93.2667  16
   0  13  -1 389.628 74.5583  10
   0  13  -1 266.521 72.5891  25
   0  13  -1 260.859 79.3647  31
   0  13   1 300.527 70.3550  25
   0  13   1 218.373 68.6475  10
   0 -13   1 235.323 74.2701  26
   0 -13  -1 209.692 80.4769  17
   0 -13  -1 347.224 100.280  22
   0  13   1 232.362 86.3556  24
   0  13   1 403.907 82.2232  38
   0  13  -1 344.168 67.0822  33
   0 -13   1 191.221 86.4144  48
   0  13   1 248.334 72.9716  31
   0  13  -1 215.103 76.1221  38
   0 -13   1 387.736 89.9040  17
   0 -13  -1 237.998 80.5714  26
   0  13   1 320.167 77.3673  39
   0 -13  -1 380.384 81.3847  47
   0 -13   1 408.393 78.5771  55
   0 -13  -1 248.868 89.4797  30
   0  13  -1 258.670 75.9055  39
   0 -13   1 320.084 83.9840  19
   0  13   1 163.920 80.5400  16
   0 -13  -1 224.228 70.6741  19
   0  13  -2 82.3108 55.4282  33
   0  13   2 17.3303 51.9654  10
   0 -13   2-8.18839 74.1209  17
   0 -13  -2-23.7530 57.9606  47
   0 -13   2-29.6188 84.4332  48
   0  13  -2 69.1424 68.9697  39
   0 -13  -2 62.2826 95.3844  22
   0  13  -2-8.01372 58.1672  25
   0  13   2 83.6280 66.8111  31
   0 -13  -2-37.0313 83.8933  48
   0  13  -2 68.0443 67.2063  16
   0 -13  -2-6.52050 83.2554  30
   0 -13   2 95.3928 66.6882  26
   0  13  -2 40.4950 61.6927  38
   0 -13  -2 46.2373 67.2212  17
   0 -13  -2 55.2673 49.9177  19
   0  13  -2 64.3404 63.0942  31
   0 -13  -2 68.2713 71.8964  26
   0  13   2 7.38921 53.2096  25
   0  13   2-5.83310 68.7218  38
   0  13   2-40.3232 74.2522  39
   0  13   2 10.4610 72.8482  24
   0 -13   2 20.9725 68.4775  55
   0 -13   3 299.990 79.4507  55
   0  13   3 173.457 60.4955  10
   0  13   3 231.009 76.4398  31
   0 -13   3 179.470 74.3069  17
   0  13  -3 233.386 64.6508  46
   0  13  -3 187.077 70.8270  31
   0  13  -3 244.074 76.7369  39
   0  13   3 103.095 80.4508  24
   0 -13   3 216.589 75.6540  19
   0  13  -3 175.659 59.1727  33
   0 -13   3 133.921 79.8382  48
   0 -13  -3 203.406 91.5189  30
   0  13   3 205.844 72.0154  38
   0 -13   3 238.144 65.2773  26
   0  13  -3 162.289 61.7939  25
   0 -13  -3 74.2985 93.4832  22
   0 -13  -3 53.8944 62.5093  17
   0  13  -3 151.848 61.5468  38
   0 -13  -3 215.775 80.5611  48
   0  13   4-8.42948 56.1383  10
   0  13   4 80.5968 75.9773  24
   0 -13   4 28.2089 64.1805  17
   0  13   4-22.0836 67.5578  38
   0  13  -4 54.4833 54.5996  33
   0  13  -4 48.2051 68.1277  39
   0 -13  -4-55.3319 67.1451  26
   0  13  -4 50.1117 57.4378  38
   0 -13  -4 174.346 71.5564  48
   0 -13   4-12.1349 75.8802  47
   0  13  -4 101.024 61.4975  31
   0 -13   4 82.6359 50.7404  26
   0 -13  -4 48.0706 92.2919  30
   0  13  -4 116.766 61.6641  46
   0  13   4-5.93188 62.3377  31
   0 -13   4 22.6377 66.5575  19
   0  13  -4 32.2264 58.4955  25
   0 -13   4 40.0163 66.9262  48
   0  13  -5 225.345 78.8099  39
   0 -13  -5 284.774 78.9233  35
   0 -13  -5 172.513 93.6133  30
   0  13   5 188.838 70.9770  38
   0 -13   5 238.650 65.6243  48
   0 -13  -5 281.995 62.7392  26
   0 -13   5 266.371 83.4444  47
   0  13   5 181.321 66.9451  31
   0 -13  -5 228.319 58.2654  48
   0 -13   5 289.437 72.0902  19
   0  13   5 221.727 79.0740  24
   0  13  -5 195.521 67.4565  31
   0 -13   5 200.226 44.9833  26
   0  13  -5 163.146 61.6382  46
   0  13  -5 257.024 64.8816  33
   0 -13   5 215.089 76.1159  55
   0 -13  -6 85.6788 45.1926  26
   0  13   6 99.7728 69.4503  39
   0  13   6 98.2520 70.8280  24
   0 -13  -6-17.9355 82.4434  30
   0  13   6 43.3222 61.5782  38
   0  13  -6 124.030 59.1416  46
   0  13  -6 131.226 52.3452  33
   0  13  -6 98.2039 69.9708  39
   0  13   6 19.8590 56.6456  31
   0 -13   6 70.4305 73.7085  55
   0 -13   6 56.1776 47.4792  48
   0  13  -6 82.2429 55.7417  31
   0 -13   6 93.6414 63.4673  47
   0 -13  -6 156.329 76.5550  35
   0  13  -7-4.70047 54.0210  46
   0  13   7 13.0938 48.7123  31
   0  13  -7 38.7138 44.4977  33
   0  13  -7 4.55081 49.0565  31
   0 -13   7 22.1464 50.3966  47
   0  13  -7 9.51355 47.2896  41
   0 -13  -7 4.82599 70.1820  35
   0  13   7 55.4365 53.4595  38
   0  13   7-10.1633 57.2816  39
   0  13  -7-5.46572 58.7050  39
   0 -13   7 16.0912 58.0384  55
   0  13  -8 87.8553 49.8193  46
   0 -13   8 32.3146 38.9613  47
   0  13  -8 79.0363 42.0275  41
   0  13   8-3.61387 49.2549  38
   0  13  -8 32.4761 55.1646  39
   0  13  -8 43.5244 41.5815  33
   0 -13   8 30.1698 29.9537  34
   0 -13  -8-12.9483 65.9307  35
   0 -13   8 41.1162 48.7567  55
   0  13   8-22.2239 45.3357  31
   0 -13  -8 33.9974 55.2808  30
   0  13   8 65.8696 51.4951  39
   0 -13   9 56.1307 28.5498  47
   0  13   9 34.5322 41.2011  38
   0 -13   9 58.5411 25.2085  34
   0  13  -9 122.774 46.7801  39
   0  13  -9 95.3868 41.3531  46
   0  13  -9 79.9048 35.9185  41
   0 -13   9 95.3839 28.0655  27
   0  13  -9 55.4267 35.0915  33
   0  13   9 20.6105 38.7471  31
   0 -13  -9 136.510 52.0426  32
   0  13   9 34.9044 39.8199  39
   0 -13  -9-3.49181 54.4432  35
   0 -13  -9-2.28256 39.0957  30
   0 -13   9 74.4556 38.1486  55
   0 -14   0 579.991 89.6351  17
   0  14   0 703.275 93.1886  31
   0 -14   0 833.382 91.2407  26
   0  14   0 779.818 94.3706  39
   0  14   0 643.187 72.4304  33
   0 -14   0 548.251 66.8514  55
   0  14   0 801.396 91.4475  38
   0 -14   0 512.736 98.6022  48
   0 -14   0 711.316 87.3999  47
   0 -14   0 458.466 78.3252  30
   0 -14   0 566.272 84.1870  19
   0 -14  -1 17545.7 866.422  26
   0  14   1 16580.9 875.590  39
   0 -14  -1 16408.4 860.219  47
   0  14  -1 16999.5 866.803  38
   0  14   1 15659.5 858.826  33
   0 -14   1 17007.5 884.223  17
   0  14  -1 17508.4 877.634  39
   0 -14   1 16181.5 877.370  19
   0 -14   1 16827.4 854.733  55
   0  14  -1 17525.5 874.758  31
   0  14   1 17739.0 877.345  31
   0 -14  -1 16615.9 864.103  30
   0 -14   1 18046.2 872.686  48
   0  14  -1 15935.4 860.168  33
   0  14   1 17436.9 870.161  38
   0 -14   1 17950.6 863.567  26
   0 -14   1 17955.2 871.559  47
   0  14  -2 693.271 81.5163  38
   0  14   2 695.419 91.2005  31
   0  14  -2 520.511 71.6026  33
   0  14   2 551.793 85.7549  38
   0  14  -2 636.008 94.1574  39
   0  14  -2 713.352 86.5048  31
   0 -14   2 601.871 86.7050  19
   0  14   2 743.116 90.8201  39
   0 -14  -2 433.278 82.6560  26
   0 -14   2 671.949 79.5962  26
   0 -14  -2 588.777 92.3732  30
   0 -14   2 564.378 92.9529  48
   0 -14   2 694.783 80.2977  55
   0 -14  -2 588.596 92.5599  48
   0 -14  -2 542.115 66.3494  47
   0  14  -3 15145.1 773.932  31
   0 -14   3 16599.9 778.486  47
   0 -14   3 15335.1 769.310  48
   0  14   3 14204.7 802.516  24
   0  14   3 15170.0 771.575  38
   0  14   3 14932.3 777.648  31
   0  14  -3 14459.6 764.460  33
   0 -14   3 15919.6 767.114  55
   0 -14  -3 14582.9 775.090  30
   0  14  -3 15397.1 780.713  39
   0 -14   3 14370.7 756.926  26
   0 -14  -3 14511.5 766.631  48
   0 -14  -4 237.446 82.6397  30
   0  14   4 241.619 65.9932  38
   0  14  -4 465.689 76.7916  39
   0  14  -4 216.360 59.8845  31
   0  14   4 199.078 72.6999  24
   0 -14   4 265.758 49.1577  26
   0  14  -4 254.296 54.8007  33
   0 -14   4 231.527 64.7589  55
   0  14   4 234.969 65.3625  31
   0 -14   4 204.167 75.5589  47
   0 -14  -4 207.641 60.0897  26
   0 -14  -4 253.891 62.0948  48
   0 -14   4 334.435 66.6801  48
   0 -14   5 10715.5 548.867  48
   0 -14  -5 10050.0 546.475  26
   0 -14   5 11599.2 562.328  47
   0  14   5 11000.3 565.042  31
   0  14   5 11500.8 562.603  38
   0  14  -5 10723.9 555.897  46
   0  14  -5 10967.2 561.606  31
   0 -14  -5 9893.15 542.960  48
   0  14  -5 11891.3 573.754  39
   0  14  -5 10743.0 555.301  33
   0 -14  -5 10986.7 569.122  30
   0  14   6 800.732 80.3255  38
   0 -14   6 595.819 71.6847  47
   0  14   6 733.135 76.0855  31
   0 -14  -6 580.988 85.4144  30
   0  14   6 653.832 79.0889  39
   0  14  -6 774.762 68.9919  33
   0 -14   6 756.509 77.6733  55
   0  14  -6 643.644 70.5261  46
   0  14  -6 675.075 79.5754  39
   0  14  -6 695.166 73.2001  31
   0 -14  -6 578.265 53.9846  26
   0  14   7 7365.48 373.785  38
   0  14   7 7217.82 377.204  31
   0  14  -7 7272.64 371.089  46
   0  14   7 6854.08 375.732  39
   0  14  -7 7052.08 367.430  33
   0 -14   7 7709.25 372.602  55
   0 -14  -7 6388.74 369.389  35
   0 -14   7 6796.89 367.060  47
   0  14  -7 7511.56 382.878  39
   0 -15   0 9.66679 46.3943  47
   0  15   0 20.1051 58.3081  39
   0  15   0 64.4149 48.0025  38
   0  15   0-3.27780 36.8264  33
   0  15   0 41.9620 52.5544  31
   0 -15   0-27.7011 49.3497  26
   0 -15   0-32.4903 58.0001  48
   0  15   1 88.7726 53.4307  31
   0 -15   1 95.1536 61.3028  48
   0 -15  -1 194.221 53.9164  30
   0  15   1 74.0306 50.2640  38
   0  15   1 86.4857 38.5306  33
   0  15  -1 170.635 42.9503  33
   0 -15  -1 97.7955 51.1522  26
   0 -15   1 85.1592 53.5541  47
   0  15  -1 113.577 54.2418  31
   0  15   1 34.7838 56.9762  39
   0 -15  -1 92.1704 39.6455  47
   0 -15   1 141.760 40.4857  55
   0  15  -1 115.142 58.4820  39
   0 -15   1 82.3520 48.5549  26
   0  15  -2 87.8412 56.8733  39
   0 -15  -2 88.9001 58.1515  48
   0  15   2 45.0139 51.0012  31
   0  15   2 57.3437 56.3762  39
   0 -15  -2 85.6047 54.3644  30
   0  15  -2 89.4652 38.9909  33
   0  15  -2 77.7855 49.7605  31
   0 -15  -2 30.3820 48.6065  26
   0  15   2 42.0652 50.0340  38
   0 -15   2 7.44103 55.0420  48
   0 -15   2 80.1378 53.8935  47
   0 -15   2 72.3924 43.5503  55
   0 -15   2 50.5771 43.8869  26
   0  15   2 81.3119 38.5761  33
   0 -15   3 90.3352 44.8664  55
   0  15  -3 111.711 55.0221  39
   0  15   3 129.932 49.8202  38
   0  15   3 102.879 34.6956  33
   0 -15   3 97.6313 38.2341  26
   0  15  -3 122.827 39.4863  33
   0  15   3 97.1752 51.0154  31
   0  15  -3 68.3583 44.8111  31
   0 -15  -3 14.6274 54.9261  30
   0 -15   3 122.779 54.2120  48
   0 -15  -3 74.2247 52.2358  48
   0  15  -4 8.57207 48.9730  39
   0 -15   4 47.5880 29.6368  26
   0  15  -4 65.7119 43.0375  31
   0  15   4 8.98802 30.0330  33
   0  15   4 3.81004 45.7165  31
   0 -15  -4 35.6540 52.7907  30
   0 -15   4 36.1450 44.0625  55
   0  15   4 36.1254 45.1712  38
   0 -15  -4 12.8688 37.0224  26
   0 -15   4 52.2182 46.2572  47
   0  15  -4 74.5085 34.9615  33
   0 -15   4 19.0203 43.2058  48
   0 -15  -4 65.0190 40.0324  48
   0  15  -5 43.2856 29.5398  33
   0  15   5 36.3366 41.0076  31
   0  15  -5 60.4414 47.8905  39
   0 -15  -5 24.8684 29.5145  26
   0  15   5 8.49456 39.8113  38
   0  15  -5 15.8980 37.2727  31
   0 -15   5 58.5678 41.2343  47
   0 -15  -5 36.0245 49.9558  30
   0 -15   5 66.4211 34.7278  48
   0  15   5 43.7924 42.0430  39
   0 -16   0 4335.64 236.995  48
   0 -16   0 3994.81 230.494  26
   0  16   0 4533.91 241.098  31
   0  16   0 4764.13 246.904  39
   0  16   1 7170.78 363.229  39
   0  16  -1 7353.83 363.796  39
   0 -16   1 6698.52 349.243  26
   0 -16  -1 6475.39 349.915  26
   0 -16   1 6832.10 354.565  48
   0  16  -1 7163.28 359.228  31
   0  16   1 7078.19 358.871  31
   0 -16   1 6389.04 345.883  47
   0  16  -2 799.265 75.7881  39
   0 -16   2 746.403 63.4926  47
   0 -16   2 786.145 61.7405  26
   0  16  -2 787.396 68.4867  31
   0  16   2 906.995 73.3310  31
   0 -16  -2 822.111 64.8655  30
   0 -16  -2 836.699 70.2791  48
   0 -16   2 942.619 72.3074  48
   1   0 -15 30.1886 66.4451  51
  -1   0  15 25.5388 46.1465  50
   1   0 -15-65.5248 54.9312  36
   1   0 -15 4.51465 66.9360  52
  -1   0  14 5058.86 287.487  53
   1   0 -14 5271.43 311.136  51
   1   0 -14 5012.18 285.076  29
  -1   0  14 4967.61 289.402  50
   1   0 -14 5056.50 305.199  52
   1   0 -14 5114.36 296.808  36
   1   0 -14 4336.07 315.992  44
   1   0 -13-15.2041 88.4605  52
   1   0 -13 21.9243 65.7194  29
  -1   0  13-7.67938 56.1669  20
  -1   0  13-36.2625 71.6181  53
  -1   0  13-8.68812 61.0120  56
   1   0 -13 70.2513 97.0640  51
  -1   0  13-16.9972 50.9503  13
   1   0 -13-36.9396 66.4799  15
   1   0 -13 9.18554 99.3639  44
   1   0 -13 29.4636 78.2767  12
  -1   0  13 100.038 59.9568  14
   1   0 -12 16980.3 933.450  44
  -1   0  12 17965.0 931.819  14
   1   0 -12 17406.4 919.539  52
  -1   0  12 16688.8 920.229  13
   1   0 -12 17758.2 896.707  29
   1   0 -12 21016.8 964.235  12
  -1   0  12 17174.9 916.624  20
  -1   0  12 16333.5 923.778  56
   1   0 -12 17430.6 933.262  15
  -1   0  12 16713.5 904.280  24
   1   0 -12 17611.9 923.836  51
  -1   0  11 38.4202 74.5153  56
   1   0 -11 64.2212 97.4581  44
   1   0 -11-42.4158 80.5320  15
  -1   0  11 8.67771 63.4721  20
   1   0 -11-74.6976 110.939  12
  -1   0  11-22.7441 61.2189  23
   1   0 -11 62.9416 95.6986  52
   1   0 -11-59.9602 102.108  51
   1   0 -11 56.7261 63.5208  29
  -1   0  11 30.7696 52.1608  24
  -1   0  11 58.5768 59.2096  14
   1   0 -10 26503.7 1276.65  52
  -1   0  10 24152.2 1283.28  14
   1   0 -10 25376.5 1281.25  51
   1   0 -10 24832.8 1254.56  40
  -1   0  10 25130.4 1269.98  23
  -1   0  10 24652.2 1277.95  20
   1   0 -10 24016.1 1277.77  44
  -1   0  10 24266.9 1283.41  56
   1   0 -10 24945.2 1254.19  29
   1   0 -10 26346.0 1301.07  15
  -1   0   9-14.4175 60.0429  56
  -1   0   9 56.4302 40.3462   9
   1   0  -9-41.7684 69.4334  52
  -1   0   9 56.2307 52.0396  23
   1   0  -9-9.75537 70.2264  40
   1   0  -9 89.8182 70.3385  44
   1   0  -9-32.5006 58.0466  29
  -1   0   9-9.06923 32.6444   6
   1   0  -9 94.7054 93.6543  18
   1   0  -9-21.0760 66.7484  33
  -1   0   9 110.138 57.5389  14
   1   0  -9-49.7332 85.6808  51
  -1   0   9-54.1978 56.7668  20
   1   0  -9-53.8768 78.7418  15
  -1   0   8 41497.1 2019.25  56
  -1   0   8 43208.6 2012.51   2
  -1   0   8 38909.6 2013.04  23
  -1   0   8 41165.1 2017.08  20
  -1   0   8 36935.2 1997.16   6
   1   0  -8 43286.7 2039.21  15
  -1   0   8 40278.0 2023.93  14
   1   0  -8 40825.4 2019.92  44
  -1   0   8 39062.2 2005.61   9
   1   0  -8 44644.5 2052.28  18
   1   0  -8 45447.5 2046.05  21
  -1   0   7-43.6265 46.3456  20
  -1   0   7 2.89518 26.3423   6
  -1   0   7 46.7144 47.6935  14
  -1   0   7 41.2105 35.5993   9
   1   0  -7 19.8429 74.0628  18
  -1   0   7 8.56082 39.9122  23
   1   0  -7-37.9364 67.4137  21
  -1   0   7 19.6815 27.8815   2
   1   0  -7 51.0597 61.2015  15
   1   0  -6 19906.1 932.899  11
  -1   0   6 18006.7 919.209  20
  -1   0   6 18319.3 924.900  14
   1   0  -6 20885.0 942.256  21
  -1   0   6 18350.2 916.572   9
  -1   0   6 16953.7 906.981   6
  -1   0   6 16777.1 917.900  23
   1   0  -6 21503.3 930.528   8
   1   0  -5 97.2566 60.3247  18
   1   0  -5 1.93467 39.6911   8
   1   0  -5 16.7765 59.4176  21
  -1   0   5 25.6304 32.7485  20
  -1   0   5 21.6332 22.5100   6
  -1   0   5 47.2982 36.4437  23
   1   0  -5 26.7951 44.1827  11
  -1   0   5 47.5180 36.1978  14
   1   0  -5 28.2286 34.4434  22
  -1   0   5 10.2924 33.5433   9
  -1   0   4 86709.8 3890.23   3
   1   0  -4 86593.8 3898.39  21
  -1   0   4 73970.7 3872.78   6
  -1   0   4 74835.7 3885.63  14
  -1   0   4 77280.3 3884.72  23
   1   0  -4 87318.8 3896.56  18
   1   0  -4 87735.8 3881.09   8
  -1   0   4 78575.6 3881.50  20
  -1   0   4 78766.9 3880.40  56
  -1   0   4 77791.6 3884.16   9
   1   0  -4 84803.1 3881.28  11
  -1   0   3 10.7533 17.5909  24
   1   0  -3 30.5700 41.2079  21
  -1   0   3 45.1405 28.1203  20
  -1   0   3 17.2681 31.3839   9
  -1   0   3 4.88604 21.6620  56
  -1   0   3-4.11011 28.9295  14
   1   0  -3 2.58907 43.6494  18
  -1   0   3-6.69604 34.0893   3
   1   0  -3 23.5312 30.6982  25
  -1   0   3 1.96709 29.1705  23
  -1   0   2 101731. 4248.03   1
  -1   0   2 91330.4 4240.07  14
  -1   0   2 87451.7 4233.35  20
  -1   0   2 88522.5 4231.06  56
  -1   0   2 82609.3 4228.50   2
  -1   0   2 98276.3 4244.86   3
   1   0  -2 82534.7 4233.81  25
  -1   0   1 4.86133 27.2124  14
   1   0  -1 12.8450 32.9308   7
  -1   0   1 45.2251 27.1510  20
  -1   0   1 47.2476 25.6450  56
   1   0  -1 6.11048 38.8494   3
   1   0  -1-5.22430 17.2872  10
  -1   0   1 38.3784 39.6610   1
  -1   0   1 33.7440 21.0479  16
   1   0   0 50951.1 2542.28  10
  -1   0   0 51098.9 2557.06   1
   1   0   0 53391.8 2547.70   2
  -1   0   0 58271.2 2548.99  16
   1   0   0 50640.8 2549.22   7
  -1   0  -1 29.9203 28.1814  15
   1   0   1 23.8126 26.3169   2
   1   0   2 345847. 16763.3   2
  -1   0  -2 351922. 16757.7  15
   1   0   2 343175. 16780.0   1
  -1   0  -2 342329. 16767.5  12
  -1   0  -3 10.9646 34.9001  15
   1   0   3 5.75552 27.8459   2
  -1   0  -3 8.39861 62.7334  12
   1   0   3-24.7533 53.7453   1
  -1   0  -3 34.5484 45.3351  16
   1   0   4 30561.8 1506.78   5
  -1   0  -4 30565.6 1497.82  15
  -1   0  -4 29598.6 1522.98  12
   1   0   4 29978.8 1503.04   2
  -1   0  -4 31522.0 1513.40  16
  -1   0  -5 3.78163 46.3903  15
   1   0   5 39.4801 36.5444   2
   1   0   5-5.58295 64.9691   9
  -1   0  -5 5.61450 56.9322  16
  -1   0  -5 6.69789 82.6132  12
   1   0   5-6.71168 85.6885   5
  -1   0  -6 35578.4 1649.47  16
  -1   0  -6 34203.6 1651.99  12
  -1   0  -6 31630.4 1625.12  15
   1   0   6 30273.3 1646.83   5
   1   0   6 32923.3 1627.36   9
  -1   0  -7 24.2932 58.7678  15
  -1   0  -7 15.2891 73.6381  12
   1   0   7 26.4745 48.1730  23
   1   0   7 31.6688 51.1481  14
  -1   0  -7-10.8053 62.6787  37
  -1   0  -7 8.40178 63.8108  16
   1   0   8 30279.7 1399.12  14
  -1   0  -8 27106.9 1397.89  51
  -1   0  -8 26015.2 1384.10  37
  -1   0  -8 31217.7 1429.97  16
  -1   0  -8 27468.1 1374.71  46
  -1   0  -8 29469.8 1400.45  15
  -1   0  -8 27876.3 1369.87  32
  -1   0  -8 26981.6 1376.37  52
  -1   0  -8 22533.6 1384.44  44
  -1   0  -8 29202.7 1388.49  41
  -1   0  -9 14.1831 80.4620  37
   1   0   9-9.04525 61.8909  13
  -1   0  -9 83.8738 97.3489  51
  -1   0  -9-56.3950 61.2238  32
   1   0   9 57.1821 50.1082   6
  -1   0  -9 54.2272 74.3201  52
  -1   0  -9 74.7327 80.0318  41
   1   0   9 31.8031 56.3130  14
  -1   0  -9-34.3375 66.6009  15
  -1   0  -9 66.2237 81.8663  44
  -1   0 -10 10218.0 570.301  41
   1   0  10 11405.1 589.730  13
  -1   0 -10 9415.57 566.242  37
  -1   0 -10 9896.96 561.765  52
  -1   0 -10 11311.0 589.923  15
  -1   0 -10 10315.6 544.134  32
  -1   0 -10 8927.41 568.503  51
   1   0  10 12301.4 585.152  14
  -1   0 -11 24.7541 55.6927  32
  -1   0 -11 72.1704 90.2287  41
   1   0  11-8.88607 55.6972  13
  -1   0 -11 29.2018 83.6305  37
  -1   0 -11-31.9401 79.2212  36
  -1   0 -11-25.2552 70.1194  12
  -1   0 -11-58.1858 83.1712  15
  -1   0 -11-82.2441 91.2338  52
  -1   0 -11-28.7841 93.0405  51
   1   0  11 35.8612 68.5778  20
   1   0  12 9885.46 606.848  56
  -1   0 -12 10446.7 577.884  37
  -1   0 -12 11888.2 612.171  15
   1   0  12 12373.8 598.016  20
  -1   0 -12 10456.7 579.460  52
  -1   0 -12 11193.4 589.465  12
  -1   0 -12 9575.08 543.863  32
  -1   0 -12 10982.8 574.922  36
   1   0  12 11548.6 591.083  13
  -1   0 -12 10865.8 581.784  41
  -1   0 -13 111.115 67.1304  36
  -1   0 -13-55.2567 67.4973  41
  -1   0 -13-32.6411 71.3860  52
   1   0  13 18.0402 63.8786  56
  -1   0 -14 5525.63 321.307  52
  -1   0 -14 6114.80 316.875  36
   1   1 -15 326.746 65.2339  36
  -1  -1  15 244.865 53.7830  50
  -1  -1  15 356.152 50.5155  53
  -1   1  15 299.787 52.9999  50
   1   1 -15 302.127 66.3664  51
   1  -1 -15 266.866 82.2204  51
   1  -1 -15 102.206 62.0960  36
   1  -1 -15 343.901 75.4211  52
   1   1 -15 301.536 70.2405  52
   1   1 -14 45.4879 90.6993  44
   1  -1 -14 9.42388 59.6316  29
  -1  -1  14 190.436 65.6306  50
   1   1 -14 113.671 81.3814  52
   1  -1 -14-27.8009 99.5159  51
   1  -1 -14 83.2402 78.1776  36
  -1   1  14 27.6052 62.0549  50
  -1  -1  14 94.3661 60.0227  53
   1  -1 -14 12.9383 78.9797  52
   1   1 -14 77.4600 54.3744  29
   1   1 -14 130.641 83.4788  51
   1  -1 -13 823.648 147.460  51
  -1  -1  13 1212.27 112.461  20
   1   1 -13 1220.18 107.246  29
  -1  -1  13 1002.32 115.762  53
  -1   1  13 1055.78 120.475  14
   1  -1 -13 1227.02 152.337  44
  -1  -1  13 947.799 108.883  13
  -1  -1  13 970.596 115.251  14
   1   1 -13 879.030 141.268  44
   1  -1 -13 894.227 120.698  15
   1  -1 -13 1263.37 146.039  12
   1   1 -13 1322.83 140.496  51
  -1   1  13 1203.69 114.896  53
   1  -1 -13 1087.36 112.251  29
   1   1 -13 1127.20 129.822  15
  -1   1  13 1140.01 128.928  56
   1   1 -13 1094.65 126.856  12
   1   1 -13 1108.82 131.559  52
  -1   1  13 1141.71 121.920  20
  -1   1  13 1043.04 114.137  50
  -1   1  13 843.251 100.059  24
  -1  -1  13 1103.12 116.943  56
   1  -1 -13 1166.76 142.383  52
   1   1 -12 187.111 97.9264  12
  -1   1  12 109.305 72.8194  53
  -1  -1  12 89.0170 56.8289  24
   1   1 -12-46.8778 109.841  44
   1  -1 -12 109.499 103.442  44
   1  -1 -12 89.9896 73.8075  40
   1  -1 -12 106.821 98.3170  52
  -1  -1  12 8.59437 57.3410  13
   1  -1 -12 51.6063 75.0027  15
   1  -1 -12 74.4543 100.914  12
  -1   1  12 27.4659 63.8697  20
  -1  -1  12 166.220 62.7960  20
  -1  -1  12 53.5133 65.3537  56
  -1   1  12 228.311 74.3912  14
   1   1 -12 237.583 87.1588  15
  -1   1  12 72.0697 67.9931  56
   1   1 -12 21.9496 62.3844  29
  -1   1  12 78.2693 59.1420  24
   1   1 -12 117.167 98.5156  51
  -1  -1  12 9.63495 63.0327  14
   1   1 -12 119.523 97.5460  52
   1  -1 -12 117.636 74.3422  29
  -1   1  11 677.459 112.408  56
   1   1 -11 765.096 122.174  51
   1  -1 -11 557.021 110.461  15
  -1   1  11 526.107 91.2177  24
  -1  -1  11 692.956 96.5741  20
   1  -1 -11 756.598 108.923  40
   1   1 -11 698.106 128.925  12
  -1   1  11 541.388 98.8223  14
  -1  -1  11 656.961 98.1103  23
  -1  -1  11 511.300 88.8176  13
  -1  -1  11 728.060 107.055  56
   1   1 -11 562.844 120.891  44
   1   1 -11 694.272 89.1431  29
   1  -1 -11 809.728 128.404  44
  -1   1  11 546.390 97.5810  20
   1  -1 -11 621.303 92.7485  29
  -1  -1  11 542.672 95.4010  14
   1  -1 -11 582.302 111.922  52
   1   1 -11 733.940 112.537  15
   1   1 -11 739.176 118.906  52
  -1   1  10 151.723 60.3758  24
  -1  -1  10 27.9017 66.0452  14
  -1   1  10 95.7789 57.6119  14
   1   1 -10 70.3426 88.2556  21
  -1  -1  10 67.4819 62.8421  56
   1   1 -10 251.246 95.1891  51
  -1  -1  10 77.3160 59.3419  20
   1  -1 -10 51.4901 83.3600  35
   1  -1 -10 88.0266 82.5054  52
  -1   1  10 89.0864 63.2777  13
   1   1 -10 161.322 86.6100  15
  -1  -1  10 125.599 62.8510  13
  -1   1  10 72.8945 67.6381  20
   1   1 -10 212.076 85.1661  33
  -1  -1  10 116.852 68.4873  23
  -1   1  10 105.288 71.4649  56
   1   1 -10 127.373 86.8663  44
   1   1 -10 73.5820 91.1346  52
   1  -1 -10 108.798 83.5112  15
   1  -1 -10 67.7008 87.6690  44
  -1   1  10 158.122 57.1608  23
   1   1 -10 80.0082 55.8318  29
   1  -1 -10 12.2025 82.8798  40
   1  -1  -9 353.465 88.4892  40
   1  -1  -9 469.880 105.981  35
   1   1  -9 383.280 96.3563  51
  -1   1   9 549.250 83.0504  56
  -1  -1   9 342.737 51.5202   6
   1  -1  -9 608.230 124.631  18
  -1  -1   9 379.329 72.6310  20
   1  -1  -9 295.230 104.448  21
  -1   1   9 361.866 64.8080  23
  -1  -1   9 192.859 69.5031  14
   1  -1  -9 259.677 79.8658  52
   1   1  -9 357.380 80.8694  33
  -1   1   9 276.815 73.8357  13
  -1  -1   9 369.830 77.2757  13
  -1  -1   9 426.167 64.1159  34
  -1  -1   9 296.222 64.6373   9
   1   1  -9 454.535 68.1112  29
  -1  -1   9 317.863 73.1550  23
   1   1  -9 297.365 85.4165  15
   1   1  -9 338.955 92.6758  18
   1   1  -9 485.551 101.352  21
   1  -1  -9 407.535 90.8442  44
   1  -1  -9 334.992 87.4388  15
  -1   1   9 299.224 66.6765  14
   1   1  -9 549.931 89.2881  44
  -1  -1   8 269.597 62.4886  20
   1   1  -8 222.849 57.9010  29
  -1   1   8 206.846 61.3190  13
  -1  -1   8 241.798 63.4773  23
   1  -1  -8 181.571 90.5217  21
  -1  -1   8 186.139 67.5644  14
  -1   1   8 226.050 40.2663   2
  -1   1   8 268.661 58.1972  56
  -1  -1   8 230.250 54.9223   9
  -1   1   8 161.939 48.4385  23
  -1  -1   8 204.111 40.4279   6
  -1  -1   8 139.671 56.0504  13
  -1   1   8 208.914 44.4261   9
   1   1  -8 171.855 73.9254  15
   1  -1  -8 270.189 68.5724  52
  -1   1   8 202.460 39.3451   6
   1  -1  -8 183.491 70.0868  44
  -1   1   8 232.565 58.3848  14
   1   1  -8 258.115 80.9616  18
   1  -1  -8 313.982 83.5241  15
   1   1  -8 290.040 67.3067  44
  -1  -1   7 1359.31 105.670   9
   1  -1  -7 1261.20 106.516  11
  -1  -1   7 1471.40 110.268  20
  -1   1   7 1237.83 100.595  23
  -1   1   7 1208.24 90.4772   6
  -1   1   7 1230.91 105.636  14
  -1   1   7 1334.70 96.1801   9
  -1  -1   7 1460.77 114.499  13
   1  -1  -7 1636.26 138.302  21
   1  -1  -7 1443.36 125.276  15
   1   1  -7 1797.05 135.613  18
  -1  -1   7 1288.91 93.1815   6
   1  -1  -7 1370.76 100.339   8
  -1  -1   7 1460.11 113.938  23
  -1  -1   7 1416.56 118.245  14
  -1   1   7 1332.40 108.298  13
  -1   1   7 1659.14 112.305  56
  -1   1   7 1477.73 95.6663   2
  -1  -1   6 91.0414 50.8955  14
   1   1  -6 89.3349 62.7858  21
  -1   1   6 69.6660 36.1781  23
  -1  -1   6 69.2001 43.3992   9
   1   1  -6 103.299 65.1769  18
   1  -1  -6 58.0336 72.8142  18
  -1  -1   6 74.0687 47.6885  23
   1  -1  -6-25.6436 86.7685  22
   1  -1  -6 155.021 108.500   8
  -1   1   6 61.6444 42.8202  13
  -1   1   6 48.3470 40.0574  56
   1  -1  -6 37.6180 62.8040  21
  -1  -1   6 86.2927 42.9958  13
   1   1  -6 50.1145 44.3600   8
  -1   1   6 59.5366 35.0104   9
  -1   1   6 56.2589 26.2104   6
  -1   1   6 62.0457 26.3528   2
   1  -1  -6 67.0607 110.231  11
   1  -1  -6 38.9736 60.0022  15
   1   1  -6 95.2081 52.6555  11
  -1   1   6 69.3121 42.6519  14
  -1  -1   5 2545.23 157.041  14
   1  -1  -5 2719.03 167.372  15
  -1  -1   5 2605.64 156.356  23
  -1   1   5 2506.16 153.743  14
  -1   1   5 2224.54 139.778   6
  -1  -1   5 2373.05 151.939  13
   1  -1  -5 3283.66 168.775  22
   1  -1  -5 3057.03 178.701  11
  -1   1   5 2442.59 150.257  23
   1  -1  -5 2537.22 168.860  21
   1   1  -5 2838.52 170.010  21
  -1   1   5 2329.77 152.281  13
   1  -1  -5 3167.81 169.524   8
  -1   1   5 2795.02 153.553  56
  -1   1   5 2415.70 149.157   9
  -1  -1   5 2389.56 152.405   9
   1  -1  -5 2514.19 172.215  18
   1   1  -5 2492.22 150.730  16
   1   1  -5 2866.60 140.698   8
  -1   1   5 2639.65 142.243   2
   1   1  -5 2721.02 141.618  11
  -1   1   4 322.048 27.7663   2
   1   1  -4 240.617 34.6936  16
  -1   1   4 294.009 42.1265  14
  -1  -1   4 239.773 42.9231  14
   1  -1  -4 346.341 54.9770   8
   1  -1  -4 295.780 59.3648  21
  -1  -1   4 359.262 37.5193   3
   1  -1  -4 328.918 59.3153  18
   1   1  -4 381.923 59.7687  21
  -1   1   4 275.909 44.2075  13
  -1   1   4 334.283 41.0052   9
  -1  -1   4 287.548 39.6610  13
  -1   1   4 308.519 41.7894  23
  -1   1   4 248.040 38.2529  56
   1   1  -4 301.373 51.2755  25
   1  -1  -4 233.160 50.2445  11
  -1  -1   4 243.097 42.7257   9
  -1   1   4 228.119 33.6862  24
  -1  -1   4 266.842 43.4429  23
  -1   1   3 843.823 66.7786  23
  -1  -1   3 939.604 67.1982   9
  -1   1   3 956.415 68.4466  14
  -1  -1   3 920.436 58.4938  20
  -1  -1   3 1113.67 68.8242   3
  -1  -1   3 932.661 62.0313  13
  -1  -1   3 942.804 66.0697  23
  -1   1   3 882.071 49.5336   2
   1  -1  -3 884.442 81.0810  21
   1   1  -3 1214.25 84.6227  21
   1  -1  -3 965.630 77.8110  18
   1   1  -3 1190.98 78.6577  18
  -1   1   3 832.598 59.5565  24
  -1  -1   3 884.914 66.0353  14
   1   1  -3 1089.85 73.3907  25
  -1   1   3 1012.02 65.1058  56
  -1   1   3 900.238 69.0845  13
  -1  -1   2 3785.35 189.259  13
   1   1  -2 3942.43 197.973  10
  -1   1   2 3688.94 197.140  13
  -1   1   2 3660.36 189.914  24
  -1  -1   2 3926.12 185.435  20
  -1   1   2 3590.24 202.832   3
  -1   1   2 3165.03 193.460  23
  -1  -1   2 4339.33 200.570   1
   1   1  -2 3991.43 200.430   4
   1  -1  -2 3823.48 203.519  21
   1  -1  -2 3182.34 183.257   6
  -1   1   2 3418.79 190.730  56
   1  -1  -2 3876.44 198.828   8
   1   1  -2 4872.95 204.909  25
   1  -1  -2 4014.09 204.823  18
  -1   1   1 5316.55 273.233   1
  -1   1   1 4845.85 273.496   3
  -1   1   1 5103.92 266.088  56
   1   1  -1 6151.08 276.670   7
   1   1  -1 6395.23 271.342  25
  -1   1   1 3652.04 269.704   4
  -1   1   1 5188.16 269.678  13
   1   1  -1 5718.77 274.528   3
   1  -1  -1 5256.98 270.892  21
   1   1  -1 5388.58 269.674   1
  -1   1   1 5005.56 265.740  24
   1   1  -1 5522.42 265.584  10
   1  -1  -1 4435.80 253.819   2
  -1  -1   1 6294.63 262.037  13
   1   1  -1 5553.47 271.593   4
   1  -1  -1 5127.10 271.922  18
  -1  -1   1 6495.29 270.018   9
  -1  -1   1 6114.22 274.688   1
  -1  -1   1 6326.78 268.454  23
   1   1   0 8704.04 403.950  10
  -1  -1   0 8152.27 415.516   1
   1  -1   0 6927.27 401.237   7
   1  -1   0 8324.69 402.399   2
  -1   1   0 7226.57 412.218  16
   1   1   0 8749.56 415.612   1
  -1  -1   0 9021.60 409.410  12
   1   1   0 9231.89 407.771   2
  -1   1   0 7779.12 413.016   1
   1   1   0 8556.06 402.472   6
   1   1   0 8619.63 411.239   7
   1  -1   0 6859.41 409.048   4
   1  -1   1 3071.26 168.716   1
   1   1   1 3471.13 179.551   1
   1  -1   1 3017.46 168.378   3
  -1  -1  -1 3118.18 157.009  16
  -1   1  -1 2408.91 160.684  12
  -1  -1  -1 3278.96 162.610  12
  -1   1  -1 2626.13 163.214   1
   1   1   1 3400.18 159.867   2
  -1  -1  -1 3211.77 161.029   2
  -1   1  -1 2520.41 146.776  15
   1   1   2 4012.92 210.179   2
   1   1   2 3813.89 231.374   1
  -1   1  -2 3592.67 216.622  12
  -1  -1  -2 4227.39 220.691  12
  -1   1  -2 3914.31 202.207  15
   1  -1   2 3913.59 225.334   1
  -1   1  -3 127.215 59.0070  12
  -1   1  -3 97.0771 35.8959  15
   1   1   3 105.908 30.7636   2
   1  -1   3 77.2154 56.1233   1
  -1  -1  -3 127.841 64.8284  12
  -1   1  -3 172.072 56.5760  16
  -1   1  -4 1726.67 124.247  16
   1  -1   4 1539.06 125.164   5
   1   1   4 1286.31 100.597   2
  -1  -1  -4 1597.62 114.496  16
  -1   1  -4 1335.50 100.701  15
  -1   1  -4 1495.84 129.321  12
  -1  -1  -4 1337.27 137.180  12
   1  -1   4 1476.57 117.316   1
   1   1   4 1578.75 121.052   5
   1   1   5-68.8844 90.2190   5
  -1  -1  -5 47.2818 53.5681  16
  -1  -1  -5 52.0289 92.4742  12
   1  -1   5 84.5593 91.8374   5
   1   1   5 39.3162 35.1744   2
   1  -1   5 102.898 53.8678   1
   1   1   5 52.1370 52.4450   9
  -1   1  -5 29.9984 43.0605  15
  -1   1  -5 114.934 60.1503  16
   1  -1   5 113.806 39.5273   2
   1   1   6 1029.22 90.5868   2
   1   1   6 1117.20 97.5732  14
  -1   1  -6 974.445 91.6974  15
   1  -1   6 907.714 86.4623   2
  -1   1  -6 1048.32 117.485  16
   1  -1   6 967.578 103.964   9
   1  -1   6 735.414 123.903   5
  -1  -1  -6 921.218 106.798  16
  -1  -1  -6 996.663 128.528  12
   1  -1   6 985.708 98.1911   1
  -1  -1  -7 105.814 65.7822  16
   1  -1   7 84.5804 52.2716  14
  -1   1  -7-21.2720 68.2987  37
   1  -1   7 116.649 57.9917  23
   1   1   7 151.850 59.5984  13
   1   1   7 61.3485 45.3070   6
   1  -1   7 40.5978 49.6168   9
   1   1   7 29.5224 48.3646  14
  -1  -1  -7 8.91805 86.3316  12
  -1   1  -7 26.0372 72.7776  16
  -1  -1  -7 59.6378 62.7607  37
  -1   1  -7 61.7306 60.5872  15
  -1   1  -7 10.9442 72.0328  41
   1   1   8 210.355 59.0751  14
  -1   1  -8 172.406 83.0767  44
   1  -1   8 116.059 55.3043  23
  -1   1  -8 49.4079 84.8879  51
  -1   1  -8 101.020 74.3207  16
  -1  -1  -8 108.475 103.229  51
  -1   1  -8 167.240 56.4998  32
  -1  -1  -8 63.9449 80.5076  12
  -1  -1  -8 277.426 69.1954  32
  -1   1  -8 241.876 63.8799  46
   1   1   8 172.569 68.5063  13
  -1   1  -8 127.715 69.8310  15
  -1   1  -8 189.579 71.3166  12
  -1  -1  -8 111.655 69.5321  15
  -1  -1  -8 95.6882 67.5199  52
  -1  -1  -8 205.379 80.8538  37
   1   1   8 237.292 57.8716   6
   1  -1   8 116.174 59.9154  14
  -1   1  -8 262.511 77.7538  37
  -1   1  -8 276.647 90.7161  41
  -1  -1  -9 41.2720 71.7372  52
  -1  -1  -9 44.0136 82.4309  37
  -1   1  -9-7.69728 67.5227  12
  -1   1  -9 8.13667 77.6854  44
   1  -1   9 19.8216 57.9679  23
  -1  -1  -9 130.505 76.3159  15
  -1   1  -9 7.27364 88.2390  41
  -1   1  -9 18.7299 75.3139  52
   1  -1   9-16.0037 59.0085  14
   1   1   9 30.1289 52.4761  14
  -1  -1  -9 131.843 86.5460  12
  -1   1  -9 13.5268 77.4986  37
   1   1   9 81.7511 56.4571   6
  -1   1  -9-33.0648 54.1328  32
  -1  -1  -9 41.7150 65.5635  32
   1   1   9 17.0512 57.3065  13
  -1   1  -9 31.8683 79.4912  51
  -1   1  -9 120.376 74.1818  15
  -1   1  -9 122.230 61.4880  46
  -1  -1  -9 8.90150 113.948  51
  -1  -1  -9 57.1652 81.7315  41
  -1   1  -9 34.1576 78.6104  16
   1  -1   9 101.699 69.2104  13
  -1   1 -10 111.114 76.7415  15
  -1  -1 -10 251.734 89.5326  41
  -1  -1 -10 253.275 86.3536  36
  -1  -1 -10 240.405 120.541  51
  -1   1 -10 134.818 89.8912  37
  -1  -1 -10 359.916 98.2505  37
   1   1  10 240.194 75.1068  13
   1  -1  10 236.740 69.7475  14
  -1   1 -10 194.919 80.4981  12
   1   1  10 213.756 75.6331  20
  -1   1 -10 110.838 55.5327  32
  -1   1 -10 209.458 98.4493  41
  -1  -1 -10 260.897 87.7735  12
  -1  -1 -10 205.731 76.5037  32
  -1  -1 -10 131.978 82.3506  52
  -1   1 -10 121.881 87.8643  51
  -1   1 -10 128.104 88.3051  52
   1  -1  10 222.551 75.4358  13
  -1  -1 -10 154.722 79.6078  15
   1  -1  11 26.2989 54.9663  13
  -1   1 -11 6.12427 77.5978  51
  -1  -1 -11 92.3457 106.083  51
  -1  -1 -11 128.899 87.9467  41
  -1  -1 -11 53.3927 85.7040  37
  -1   1 -11 74.1925 70.9546  15
  -1  -1 -11 90.0960 70.9088  15
   1   1  11-43.5672 56.3504  13
  -1   1 -11 6.83909 82.2539  52
  -1   1 -11 32.1077 67.6754  12
  -1  -1 -11 77.2303 81.1186  36
   1  -1  11 8.39492 56.4203  14
  -1   1 -11-41.4833 77.9449  37
   1   1  11 61.5229 63.7963  20
  -1   1 -11 40.7693 46.8232  32
  -1  -1 -11 24.1348 65.1753  32
  -1   1 -11 7.68576 93.2311  41
  -1  -1 -11-48.0391 81.5786  52
   1   1  11 134.325 83.1534  56
  -1  -1 -12-9.41448 69.9328  15
  -1   1 -12 6.08087 70.3296  37
  -1   1 -12-7.21643 59.7533  12
   1   1  12-7.87880 50.4337  13
  -1  -1 -12-3.84274 53.4071  32
  -1   1 -12 27.5789 88.2545  41
  -1  -1 -12 80.0702 96.4439  51
   1  -1  12-55.1854 62.4286  20
  -1   1 -12 33.9190 59.0517  15
  -1  -1 -12 121.952 74.3371  12
  -1  -1 -12 155.781 80.7215  52
   1   1  12 79.7185 64.7880  20
  -1   1 -12 19.1945 78.4860  52
   1   1  12 85.1581 79.6661  56
  -1   1 -12-17.2527 73.6157  36
  -1  -1 -12 46.5326 77.8365  37
   1  -1  12 53.9495 52.2668  13
  -1  -1 -12-5.99158 75.3143  36
  -1   1 -13 47.0528 57.3926  37
   1   1  13-79.7000 57.7475  24
   1  -1  13 122.177 69.0957  56
  -1   1 -13-27.5320 64.8554  36
  -1  -1 -13 38.1204 69.7023  52
  -1   1 -13 70.3131 74.6655  41
   1   1  13-63.6836 74.3934  56
  -1  -1 -13-14.8404 66.9277  36
  -1   1 -13 48.0711 70.7637  52
  -1  -1 -13-13.9780 38.4561  32
  -1  -1 -14 40.2946 53.3496  36
  -1   1 -14 23.5871 48.3699  36
  -1  -1 -14-71.3987 57.0759  52
  -1   1 -14-18.7894 55.9277  52
  -1  -1 -14 29.6925 42.8155  49
   1  -2 -15 935.034 106.870  51
   1  -2 -15 865.716 84.3230  36
   1   2 -15 791.579 81.0603  36
  -1  -2  15 681.208 69.3330  53
  -1  -2  15 592.717 69.7183  50
   1   2 -15 811.206 85.9026  52
   1   2 -15 521.260 89.9379  44
  -1   2  15 643.530 66.3959  50
   1  -2 -15 809.047 90.5684  52
   1  -2 -14 9978.85 544.834  52
  -1   2  14 9878.48 524.658  50
   1  -2 -14 9906.23 535.582  36
   1   2 -14 10205.0 516.909  29
   1  -2 -14 10551.0 530.652  29
   1   2 -14 10102.9 553.296  44
   1   2 -14 10333.8 537.345  52
  -1  -2  14 9512.85 522.630  50
  -1  -2  14 9555.43 525.546  53
   1   2 -14 9767.56 528.612  51
   1  -2 -13 305.020 85.5017  29
  -1   2  13 388.568 91.5463  56
  -1   2  13 340.835 81.1773  50
   1  -2 -13 314.151 85.5219  15
  -1  -2  13 288.247 63.7840  13
   1   2 -13 265.857 67.3856  29
   1   2 -13 250.003 77.7608  15
   1  -2 -13 422.160 112.377  12
  -1  -2  13 387.621 74.0265  14
  -1   2  13 278.577 82.9618  13
  -1   2  13 407.860 83.5732  20
   1   2 -13 409.829 107.340  44
  -1  -2  13 290.619 61.0983  20
   1  -2 -13 214.403 112.236  44
   1  -2 -13 376.206 108.637  52
  -1   2  13 413.667 72.2783  24
   1  -2 -13 335.341 98.0091  36
   1  -2 -13 367.435 77.1947  40
   1   2 -13 293.135 90.4590  51
   1   2 -13 297.025 94.5712  52
  -1  -2  12 16372.8 855.881  23
   1  -2 -12 18349.2 885.040  15
   1  -2 -12 16127.8 839.252  40
  -1   2  12 15438.1 854.347  24
  -1  -2  12 16159.1 847.069  20
   1  -2 -12 15556.3 834.093  35
  -1  -2  12 15555.8 856.204  56
  -1  -2  12 16504.5 822.218  34
   1   2 -12 16958.4 859.897  52
   1   2 -12 16743.0 877.709  15
  -1  -2  12 15467.0 849.632  13
  -1   2  12 14658.3 872.586  56
  -1   2  12 15908.2 868.117  20
   1  -2 -12 16670.2 856.385  36
  -1  -2  12 16329.3 863.881  14
   1   2 -12 16199.4 870.395  44
   1   2 -12 18259.4 872.137  12
  -1   2  12 15670.9 872.081  13
   1  -2 -12 15602.5 843.152  29
  -1   2  12 15965.1 839.428  53
  -1   2  12 17031.4 871.895  14
   1   2 -12 17186.6 833.146  29
   1  -2 -12 15944.9 879.448  44
   1  -2 -12 16255.7 861.691  52
   1   2 -12 16148.3 849.470  51
  -1   2  12 16080.9 842.272  50
   1   2 -11 1366.15 151.419  12
  -1  -2  11 1499.34 142.627  14
   1   2 -11 1238.50 149.657  15
  -1   2  11 1621.08 145.103  14
  -1  -2  11 1261.35 133.314  56
  -1  -2  11 1384.49 113.326  34
  -1  -2  11 1480.06 130.791  20
   1  -2 -11 1734.83 151.312  40
  -1  -2  11 1243.16 131.209  23
  -1   2  11 1316.27 144.456  13
   1  -2 -11 1486.90 172.780  51
   1  -2 -11 1293.88 157.523  44
   1   2 -11 1436.22 150.412  52
   1   2 -11 1253.00 114.261  29
   1  -2 -11 1263.82 138.726  35
  -1  -2  11 1280.70 127.582  13
   1   2 -11 1021.19 141.596  33
   1  -2 -11 1787.08 203.636  12
  -1   2  11 1588.06 130.159  53
   1  -2 -11 1433.30 149.787  52
  -1   2  11 1214.89 145.161  56
   1   2 -11 1420.57 141.538  51
   1   2 -11 1173.24 142.834  44
   1  -2 -11 1479.09 154.037  15
  -1   2  11 1561.84 138.253  24
  -1   2  10 21868.7 1110.37  14
  -1   2  10 22017.2 1118.56  56
   1   2 -10 22061.5 1124.63  15
  -1   2  10 21231.7 1113.36  13
   1  -2 -10 23711.0 1106.56  40
   1  -2 -10 20615.9 1095.56  52
   1   2 -10 21295.0 1096.62  51
  -1  -2  10 20618.4 1106.65  23
   1  -2 -10 21212.7 1105.88  35
   1   2 -10 20965.9 1106.14  44
  -1  -2  10 20991.7 1114.81  14
  -1  -2  10 20924.7 1096.56   9
  -1  -2  10 21516.3 1102.08  20
   1   2 -10 19679.2 1108.95  33
  -1  -2  10 21417.4 1106.32  13
  -1  -2  10 20881.0 1077.36  34
  -1   2  10 20694.8 1099.80  24
  -1   2  10 20737.6 1083.99  53
   1  -2 -10 21475.6 1119.76  44
   1   2 -10 22435.8 1135.03  12
   1  -2 -10 23511.9 1128.39  15
   1   2 -10 23925.1 1130.97  21
   1  -2 -10 21893.5 1120.88  51
   1   2 -10 21559.9 1078.74  29
  -1   2   9 1100.98 108.279  14
   1   2  -9 980.776 119.938  15
  -1  -2   9 1127.79 122.257  14
  -1   2   9 1195.14 106.745  24
   1  -2  -9 1129.87 136.768  51
   1   2  -9 977.512 111.586  44
  -1   2   9 1125.88 115.153  56
  -1  -2   9 1147.75 123.506  23
   1  -2  -9 1124.32 154.602  35
   1   2  -9 1244.65 135.517  21
   1  -2  -9 1148.56 127.343  44
  -1  -2   9 935.519 88.4241   6
   1  -2  -9 1143.03 113.091  52
  -1   2   9 1076.67 113.983  13
  -1  -2   9 1078.23 109.680  20
   1   2  -9 1187.63 121.654  18
   1   2  -9 1193.06 97.5275  29
  -1  -2   9 975.552 104.591   9
   1  -2  -9 1198.39 131.613  40
  -1   2   9 1048.95 99.4044  53
   1  -2  -9 1026.51 123.031  15
   1   2  -9 1058.91 115.333  33
  -1  -2   9 1173.84 114.093  13
   1   2  -9 1237.37 120.169  51
  -1   2   8 25740.4 1324.01  14
  -1  -2   8 24895.2 1325.72  13
   1   2  -8 26681.0 1322.63  44
  -1  -2   8 24576.5 1336.01  14
   1  -2  -8 29002.4 1340.57  15
  -1   2   8 26406.3 1316.89  24
   1   2  -8 28991.1 1334.45  18
   1  -2  -8 26900.1 1311.46  29
  -1   2   8 27188.0 1327.89  13
  -1   2   8 27649.9 1327.14  56
  -1  -2   8 23981.0 1329.50  23
   1   2  -8 27625.7 1339.61  46
   1   2  -8 27300.5 1307.50  29
   1  -2  -8 24664.6 1299.85  11
   1   2  -8 27186.7 1329.05  33
  -1   2   8 24592.2 1307.28  23
   1  -2  -8 25600.3 1331.68  51
   1  -2  -8 25634.9 1310.98  52
   1   2  -8 28404.7 1341.31  21
   1  -2  -8 27556.0 1328.77  44
  -1  -2   8 25525.6 1324.78   9
   1  -2  -8 26678.1 1352.29  21
   1   2  -7 7406.67 400.985  16
  -1  -2   7 6868.77 401.427  23
  -1   2   7 7244.53 385.061  24
   1  -2  -7 6609.94 373.150  22
   1  -2  -7 7262.74 415.017  21
  -1  -2   7 7334.50 396.199  13
  -1  -2   7 6599.20 397.003   9
   1  -2  -7 6875.69 399.919  11
   1  -2  -7 8520.66 436.391  18
   1   2  -7 7855.92 401.779  18
  -1   2   7 7521.33 374.783   2
  -1   2   7 7411.40 391.490  56
  -1   2   7 7205.07 380.920  23
   1  -2  -7 7352.35 394.740   8
  -1   2   7 6971.62 393.878  13
   1  -2  -7 7827.68 405.215  15
   1   2  -7 7689.72 405.145  21
  -1  -2   7 6476.98 402.622  14
  -1   2   7 6994.39 389.922  14
  -1  -2   6 62594.0 3019.90  23
  -1   2   6 61882.8 3003.34  24
  -1   2   6 59675.4 2999.96  23
   1   2  -6 68878.9 3016.75  18
   1  -2  -6 53742.3 3035.02  22
   1  -2  -6 64177.7 3017.85  15
   1  -2  -6 59936.2 3023.16  21
  -1   2   6 61206.8 3010.51  13
  -1   2   6 61335.3 3009.31  14
  -1  -2   6 59406.8 3014.43   9
  -1   2   6 65039.1 2994.09   2
   1  -2  -6 62204.0 3032.90  18
  -1  -2   6 60834.1 3020.17  14
  -1  -2   6 63509.1 3012.30  13
   1  -2  -6 56846.1 3053.73   8
   1  -2  -6 54440.4 3054.41  11
   1   2  -6 59706.9 3011.73  16
  -1   2   6 63074.5 3009.38  56
   1   2  -5 2056.45 129.000  16
   1  -2  -5 1904.96 143.942  21
  -1  -2   5 1909.46 136.370  23
  -1   2   5 1921.05 123.490  24
  -1  -2   5 1833.88 122.087  19
  -1  -2   5 2130.89 138.029  14
  -1   2   5 1915.00 128.890  14
   1  -2  -5 2762.89 193.023  11
   1  -2  -5 2476.91 191.340  22
  -1   2   5 1883.05 130.289  13
  -1  -2   5 1851.58 134.319   9
  -1  -2   5 2056.88 128.755  13
   1   2  -5 2064.38 141.502  25
  -1   2   5 2091.07 128.812  56
   1  -2  -5 2761.16 189.015   8
   1  -2  -5 2118.36 136.733  15
   1   2  -5 2239.81 137.371  18
  -1   2   5 1926.62 123.164  23
  -1   2   5 2137.66 114.275   2
   1  -2  -5 2093.63 151.891  18
  -1   2   4 54401.6 2765.35  23
   1  -2  -4 56760.4 2770.52  15
   1  -2  -4 60769.7 2778.25  22
   1  -2  -4 57968.2 2778.14  21
  -1  -2   4 54727.9 2770.69   9
   1  -2  -4 54692.7 2780.03  18
  -1  -2   4 55985.2 2765.71  19
  -1   2   4 55824.1 2772.29  13
   1   2  -4 56876.1 2776.91  25
   1   2  -4 63600.2 2775.50  18
  -1  -2   4 55169.9 2764.06  13
   1   2  -4 56223.4 2764.68  16
  -1   2   4 55304.7 2754.61   2
   1  -2  -4 62804.6 2779.27   8
  -1   2   4 54185.0 2764.92  24
  -1   2   4 56629.7 2772.03  14
   1  -2  -4 62597.5 2781.71  11
  -1  -2   4 60014.9 2774.71  23
  -1   2   3 4585.22 251.940  23
  -1  -2   3 5626.00 254.720   1
  -1  -2   3 4438.43 251.897  19
  -1  -2   3 4500.91 246.160  13
  -1   2   3 4827.76 257.840  14
   1   2  -3 5072.49 263.826  25
  -1   2   3 4848.33 259.026  13
   1  -2  -3 5006.90 266.003  18
   1   2  -3 5085.41 262.814  10
   1  -2  -3 4433.43 245.614   6
   1  -2  -3 4444.06 251.161  15
  -1   2   3 4618.31 251.205  24
   1  -2  -3 5509.34 265.820  21
   1   2  -3 4677.01 246.343  16
   1   2  -3 5842.39 268.638  21
  -1  -2   3 5474.75 259.009   9
  -1  -2   3 5482.83 258.724  23
  -1   2   2 73962.4 3843.90   3
  -1  -2   2 83771.3 3822.92  13
   1  -2  -2 66924.7 3824.13  15
   1  -2  -2 77841.2 3834.11  11
  -1   2   2 73784.9 3834.76  14
   1   2  -2 76257.1 3836.39  10
  -1  -2   2 87799.4 3830.52  14
  -1   2   2 75589.8 3831.85  24
   1   2  -2 74940.4 3822.51  16
  -1  -2   2 86342.8 3834.66  19
  -1  -2   2 88500.3 3835.98   1
   1  -2  -2 78505.4 3837.60  18
   1   2  -2 85378.6 3830.60   3
  -1  -2   2 84995.9 3833.60  23
  -1   2   2 74341.5 3836.12  13
   1  -2  -2 76826.0 3834.94  21
  -1  -2   2 85096.6 3833.98   9
   1  -2  -2 82025.2 3834.90   8
   1   2  -1 6665.75 268.434  10
  -1   2   1 4846.46 248.755  10
  -1  -2   1 5523.21 253.652   6
   1  -2  -1 5095.08 264.591  18
  -1   2   1 5805.33 270.631   1
  -1  -2   1 6947.18 264.013   9
   1   2  -1 7012.98 274.672  25
  -1   2   1 4805.67 269.339   3
  -1   2   1 5359.71 266.955  20
  -1   2   1 5479.38 266.943  24
  -1  -2   1 6277.27 270.489   1
  -1  -2   1 7342.92 259.525  14
  -1   2   1 5739.00 269.948  13
   1  -2  -1 3995.99 246.105  15
   1  -2  -1 5152.39 261.364  21
   1  -2   0 97088.4 4798.49   8
  -1  -2   0 126967. 4798.16  23
   1  -2   0 89893.1 4794.44  21
   1   2   0 105415. 4787.69  56
   1   2   0 109026. 4799.33  10
   1  -2   0 94373.8 4801.05   4
  -1   2   0 85023.1 4804.51   3
  -1  -2   0 112359. 4797.41  12
   1  -2   0 89010.8 4796.01  18
  -1   2   0 89613.1 4800.92   1
   1  -2   0 82420.2 4787.25   7
   1   2   0 107654. 4801.40   2
   1   2   0 106566. 4790.44  24
  -1  -2   0 111031. 4802.61   2
   1  -2   1 1343.84 85.7145   4
   1  -2   1 1254.90 91.8006   3
  -1   2  -1 1121.96 68.3663  15
   1   2   1 1598.54 88.0905   2
   1   2   1 1592.09 82.6589   6
  -1  -2  -1 1662.39 90.0906  12
  -1  -2  -1 1567.16 90.5592   2
   1  -2   1 1264.97 91.6272   1
   1  -2   1 1462.63 85.7261   8
   1   2   1 1490.17 106.814   1
  -1  -2  -2 21299.4 1061.31   2
  -1   2  -2 19307.6 1046.61  15
  -1  -2  -2 24756.6 1066.96  12
   1  -2   2 21834.2 1061.39   3
  -1   2  -2 19851.1 1071.55  16
   1  -2   2 22294.2 1052.92   8
   1  -2   2 21628.8 1066.35   1
   1   2   2 21916.9 1057.14   6
   1   2   2 23796.2 1064.69   2
   1   2   3 137.114 32.9692   6
  -1   2  -3 125.083 34.8071  15
   1  -2   3 107.673 27.5431   8
   1  -2   3 157.955 39.9483   3
  -1   2  -3 116.412 62.4501  16
   1   2   3 140.547 33.0395   2
   1  -2   3 164.092 51.7795   1
  -1  -2  -3 113.079 62.4318  12
   1   2   4 63651.8 3078.88   6
  -1  -2  -4 57271.6 3096.61  12
   1   2   4 68402.1 3088.27   5
   1   2   4 65568.2 3082.59   2
   1  -2   4 64891.9 3075.35   3
  -1   2  -4 62605.5 3096.21  16
   1  -2   4 64996.1 3097.76   5
  -1   2  -4 58232.0 3071.76  15
   1  -2   4 60832.9 3060.35   8
   1  -2   4 71958.2 3092.85   1
   1  -2   5 5205.23 275.551   1
   1   2   5 4296.15 296.330   5
   1   2   5 4736.68 259.178  14
   1   2   5 5006.99 267.028  13
  -1   2  -5 5004.83 277.276  12
  -1   2  -5 4551.31 263.537  15
  -1  -2  -5 3663.11 290.617  12
   1  -2   5 3782.94 296.663   5
  -1   2  -5 5104.40 289.280  16
   1   2   5 5065.28 268.488   6
   1  -2   5 4587.12 258.809  17
   1   2   5 4811.83 268.544   2
   1   2   6 40096.2 1963.68   2
   1   2   6 39352.9 1951.51  14
   1   2   6 39773.1 1960.62   6
   1   2   6 43571.6 1964.53  13
   1  -2   6 38808.3 1971.04   9
  -1   2  -6 37692.4 1961.18  12
  -1  -2  -6 33602.0 1985.78  12
  -1   2  -6 38274.2 1959.58  15
   1  -2   6 39171.3 1989.32   5
  -1   2  -6 40338.5 1984.19  16
   1  -2   6 44204.9 1969.58   1
  -1   2  -7 1650.76 151.154  39
   1   2   7 2105.63 149.358   6
  -1  -2  -7 1791.34 140.245  32
  -1   2  -7 2096.84 162.242  41
  -1  -2  -7 2097.87 152.398  37
   1   2   7 2374.87 156.323  13
  -1   2  -7 2049.17 171.476  16
   1  -2   7 1978.60 150.130   9
  -1   2  -7 1846.05 151.284  33
  -1   2  -7 1800.85 149.224  12
  -1  -2  -7 2547.87 201.395  12
  -1   2  -7 2067.58 148.662  37
  -1  -2  -7 1731.65 175.254  51
  -1   2  -7 2055.29 155.422  15
   1   2   7 2208.52 146.052  14
   1  -2   8 22856.6 1144.97  23
   1  -2   8 24704.8 1138.38   9
  -1   2  -8 18557.7 1143.50  33
  -1  -2  -8 21731.8 1129.28  52
  -1   2  -8 21507.9 1136.67  37
  -1  -2  -8 23571.1 1133.86  36
  -1  -2  -8 21281.2 1127.89  35
  -1   2  -8 24440.8 1182.54  16
  -1  -2  -8 26708.4 1194.19  12
  -1   2  -8 22456.5 1144.24  12
  -1   2  -8 22030.2 1115.66  32
  -1  -2  -8 21578.7 1128.47  32
  -1   2  -8 18697.5 1138.05  44
  -1  -2  -8 20619.7 1164.76  51
  -1  -2  -8 22125.9 1142.78  37
   1  -2   8 25742.5 1157.21  14
   1   2   8 26584.8 1158.31  13
  -1   2  -8 21603.0 1133.95  46
  -1   2  -8 22603.9 1151.65  15
  -1   2  -8 23150.8 1150.31  41
   1   2   8 25027.5 1153.80   6
   1  -2   9 1073.14 110.991  23
  -1   2  -9 1267.04 144.059  16
  -1   2  -9 1257.62 131.277  15
  -1   2  -9 868.988 89.5021  32
  -1   2  -9 795.478 124.027  44
  -1  -2  -9 1096.46 116.568  36
  -1  -2  -9 1169.75 118.754  52
  -1   2  -9 1051.69 116.640  37
  -1  -2  -9 989.207 106.182  35
  -1  -2  -9 1380.97 137.345  37
   1   2   9 1318.88 124.931  20
   1   2   9 1174.86 118.331  13
   1   2   9 1263.32 118.461   6
  -1  -2  -9 1381.21 158.963  12
  -1  -2  -9 1131.54 112.738  32
  -1   2  -9 1016.52 111.280  46
  -1   2  -9 1025.26 116.475  12
   1  -2   9 1071.29 114.429  14
  -1  -2  -9 1086.06 164.863  51
  -1   2  -9 1129.67 136.551  41
   1  -2  10 21487.9 1007.01  14
  -1   2 -10 19681.6 1006.02  15
  -1   2 -10 18586.8 991.197  12
  -1  -2 -10 19333.3 985.800  36
  -1   2 -10 19504.3 1005.12  41
  -1  -2 -10 20616.2 1020.17  15
  -1   2 -10 17910.9 982.626  46
   1   2  10 20430.7 1005.52  13
   1  -2  10 20188.0 992.840  23
  -1  -2 -10 17573.2 983.043  52
   1   2  10 21621.0 1011.14  20
   1  -2  10 22028.1 1017.35  13
  -1  -2 -10 20630.8 1025.67  12
   1   2  10 17959.2 1018.20  56
  -1  -2 -10 18615.0 1025.63  51
  -1  -2 -10 18403.2 976.564  32
  -1  -2 -10 18898.5 998.819  37
  -1   2 -10 18408.9 988.149  52
  -1   2 -10 19864.6 1034.77  16
  -1   2 -10 16569.4 996.413  44
  -1   2 -10 17477.6 981.912  37
  -1  -2 -11 2220.27 166.066  32
  -1  -2 -11 2157.97 186.426  37
   1  -2  11 2317.72 178.942  14
  -1   2 -11 2160.61 172.793  37
  -1   2 -11 2331.90 185.921  15
  -1  -2 -11 2207.09 176.403  36
   1   2  11 2665.58 185.318  13
   1   2  11 2452.75 185.880  20
   1  -2  11 2242.61 177.828  13
  -1   2 -11 1936.35 169.354  12
  -1  -2 -11 2664.16 208.437  15
  -1   2 -11 2363.29 198.198  41
  -1  -2 -11 2456.36 196.419  12
   1   2  11 1886.83 192.857  56
  -1  -2 -11 2181.32 179.520  52
  -1   2 -11 1958.78 175.364  52
  -1  -2 -11 2104.14 213.015  51
  -1  -2 -12 7035.14 447.805  52
   1   2  12 8678.19 464.783  20
   1   2  12 8158.68 459.723  13
  -1   2 -12 8698.61 464.690  41
   1  -2  12 9310.96 463.845  14
   1   2  12 8315.59 470.980  24
  -1  -2 -12 7277.85 476.701  51
   1  -2  12 9431.86 468.751  20
  -1  -2 -12 8066.64 433.490  32
  -1   2 -12 7610.28 443.519  37
  -1  -2 -12 7464.85 447.165  36
   1  -2  12 8950.85 462.210  13
  -1   2 -12 7877.43 449.680  52
  -1  -2 -12 8549.56 485.657  15
   1   2  12 6146.26 471.038  56
  -1   2 -13 190.303 80.7016  41
  -1   2 -13 276.071 68.9380  36
   1   2  13 307.662 66.6729  24
  -1  -2 -13 222.369 76.8816  52
  -1   2 -13 171.345 62.0522  37
  -1  -2 -13 198.106 48.5381  32
  -1  -2 -13 274.050 75.9476  36
  -1   2 -13 242.621 75.7392  52
  -1  -2 -14 4290.70 264.308  49
  -1   2 -14 5227.07 271.495  41
  -1   2 -14 5003.66 270.598  52
  -1  -2 -14 4935.41 268.078  36
  -1  -2 -14 4649.86 268.491  52
  -1   2 -14 4791.72 258.131  36
   1   3 -15 348.499 75.5441  44
  -1   3  15 473.967 62.4034  45
   1   3 -15 468.475 69.6191  52
   1  -3 -15 512.578 73.0654  36
  -1  -3  15 358.731 53.4792  50
  -1  -3  15 403.369 55.2729  53
  -1   3  14 18.6407 52.0479  50
   1   3 -14-20.3207 77.3601  44
   1   3 -14 5.22392 72.6023  52
   1   3 -14 84.4627 43.8904  29
  -1  -3  14 48.2857 57.4783  53
   1  -3 -14-25.4124 89.9929  52
   1  -3 -14-16.4851 76.3687  36
   1  -3 -13 311.748 84.4695  15
   1  -3 -13 531.416 84.0374  35
   1   3 -13 465.036 67.0521  29
   1  -3 -13 489.510 88.7803  40
   1   3 -13 514.710 97.5072  52
  -1   3  13 387.498 76.2530  50
   1  -3 -13 446.317 101.245  36
  -1   3  13 263.155 79.1499  13
   1  -3 -13 318.551 116.566  12
  -1  -3  13 396.617 61.5958  20
  -1   3  13 540.991 94.1797  20
  -1  -3  13 360.823 58.0175  34
   1  -3 -13 396.908 126.886  51
   1  -3 -13 449.778 89.7457  29
   1  -3 -13 348.447 109.159  52
  -1  -3  13 492.029 76.9557  14
   1   3 -13 475.689 87.4761  51
   1   3 -13 405.650 107.248  44
  -1   3  13 369.925 93.1945  56
  -1   3  13 299.283 71.1920  24
   1   3 -13 504.507 91.4195  15
  -1  -3  13 359.154 72.0206  23
   1  -3 -12-65.8044 92.0419  40
   1  -3 -12 9.97763 110.984  44
  -1  -3  12 27.5111 44.4905  13
   1  -3 -12 29.9528 72.4684  15
   1   3 -12-10.0367 72.8485  15
   1  -3 -12 55.1573 107.723  12
   1   3 -12-14.8376 89.9944  52
  -1  -3  12 78.0995 66.2339  23
  -1   3  12-53.2458 66.4284  14
   1  -3 -12 157.530 118.060  51
  -1  -3  12 33.9109 58.0221  14
   1   3 -12 76.2433 56.6570  29
  -1   3  12 99.9912 78.0357  56
   1  -3 -12-21.9950 93.3735  36
   1  -3 -12-19.2576 83.6304  35
  -1   3  12 73.7351 70.7848  13
  -1  -3  12 50.8856 50.7203  20
   1   3 -12-43.2883 80.1703  51
  -1  -3  12 7.26346 51.8883  56
   1   3 -12 106.608 77.2060  33
   1  -3 -12 32.4456 97.2693  52
  -1   3  12 88.7279 68.2268  50
   1   3 -12-8.65774 90.6076  44
  -1  -3  12 53.3258 55.0113  34
  -1   3  12 93.7036 62.3236  24
   1  -3 -11 1911.09 185.983  44
  -1   3  11 1626.40 149.792  14
   1   3 -11 1771.93 169.666  15
  -1   3  11 1844.98 141.956  50
  -1  -3  11 1787.34 156.537  23
   1   3 -11 1680.72 164.878  33
   1  -3 -11 1839.97 173.456  40
  -1  -3  11 1732.03 154.802  14
  -1   3  11 1599.94 169.302  56
   1   3 -11 1785.76 167.220  52
  -1  -3  11 1815.80 144.754   9
   1  -3 -11 1712.46 166.776  35
  -1  -3  11 1641.96 139.864  20
   1  -3 -11 1728.52 217.965  12
  -1   3  11 1705.07 152.687  24
  -1  -3  11 1615.00 130.017  34
   1  -3 -11 1791.31 160.619  36
   1   3 -11 1809.64 155.099  12
   1  -3 -11 1582.11 186.706  51
  -1  -3  11 2007.75 156.213  56
   1   3 -11 1791.01 131.947  29
   1   3 -11 1648.06 148.366  51
   1  -3 -11 2118.44 174.376  15
   1  -3 -11 1574.56 162.995  52
   1   3 -11 1846.99 165.951  44
  -1  -3  11 1826.41 144.100  13
  -1   3  11 1737.25 164.704  13
  -1  -3  10 966.865 102.997  13
   1   3 -10 1192.72 134.333  15
   1   3 -10 786.837 109.018  51
  -1   3  10 1054.16 118.589  13
  -1  -3  10 915.885 113.840  23
   1   3 -10 792.944 118.010  21
  -1  -3  10 1078.77 107.572  20
   1  -3 -10 1153.04 158.633  35
   1  -3 -10 1235.91 127.470  52
   1   3 -10 939.072 117.093  33
   1  -3 -10 1047.58 139.476  44
  -1   3  10 818.637 98.7793  50
   1  -3 -10 1418.09 153.314  40
  -1  -3  10 781.302 100.577   9
   1   3 -10 942.471 120.099  44
  -1   3  10 933.003 119.042  56
   1  -3 -10 960.329 149.652  51
   1   3 -10 1010.38 95.4368  29
   1  -3 -10 1202.61 131.728  15
  -1   3  10 1005.39 108.461  24
   1   3 -10 1165.84 127.821  12
  -1   3  10 976.142 108.822  14
  -1  -3  10 949.284 114.520  14
   1   3  -9 690.230 76.7242  29
   1   3  -9 588.284 101.399  46
   1  -3  -9 555.576 95.9120  15
   1  -3  -9 547.620 103.339  44
   1  -3  -9 554.947 112.786  40
   1   3  -9 590.421 85.3257  18
  -1  -3   9 573.007 93.4207  23
   1   3  -9 666.706 99.7316  21
  -1  -3   9 464.550 86.6957  14
  -1  -3   9 580.668 73.3738  27
   1  -3  -9 723.821 146.857  35
   1   3  -9 588.230 90.3539  33
   1  -3  -9 478.953 115.940  51
  -1   3   9 404.696 80.2441  13
  -1   3   9 567.185 86.2524  20
  -1  -3   9 478.292 78.1027  13
  -1   3   9 638.269 75.0654  50
   1   3  -9 602.843 105.274  12
  -1  -3   9 383.360 79.4726   9
  -1   3   9 593.162 91.4158  56
   1  -3  -9 440.941 77.2206  29
   1  -3  -9 677.355 94.1676  52
  -1   3   9 563.731 79.1402  24
   1   3  -9 616.581 91.6204  51
  -1   3   9 512.128 78.0805  14
   1   3  -9 553.301 88.6710  44
   1  -3  -8 247.280 90.8093  40
  -1  -3   8 237.102 57.9434  27
   1   3  -8 302.275 73.3539  21
  -1  -3   8 326.061 76.2322  14
   1  -3  -8 247.913 75.9542  15
  -1   3   8 297.103 66.5433  56
   1   3  -8 405.898 76.1449  44
   1  -3  -8 217.849 107.353  18
  -1   3   8 261.545 57.1757  14
   1  -3  -8 217.760 90.9421  21
  -1  -3   8 244.588 66.5129   9
  -1   3   8 211.512 62.3112  20
  -1   3   8 274.449 63.8294  13
   1   3  -8 300.151 68.6121  33
   1   3  -8 380.316 72.4393  18
   1   3  -8 476.190 85.1649  46
  -1  -3   8 310.216 63.8146  13
   1  -3  -8 372.248 80.9791  44
   1  -3  -8 512.165 155.751  35
   1  -3  -8 298.271 69.8693  11
   1  -3  -8 329.241 71.1635  52
   1  -3  -8 369.343 60.1740   8
  -1   3   8 282.140 55.8858  24
   1  -3  -8 345.741 62.8972  29
   1  -3  -8 347.092 96.9694  51
  -1  -3   8 446.194 84.2348  23
   1  -3  -7 411.823 90.2656  21
   1  -3  -7 344.003 93.1459   8
   1  -3  -7 550.101 81.0618  15
   1  -3  -7 523.118 110.286  11
  -1   3   7 553.841 65.6255  24
  -1  -3   7 579.834 73.1970  13
  -1  -3   7 492.188 84.0835  23
  -1   3   7 420.133 64.4695  14
  -1  -3   7 461.328 76.1205  14
   1  -3  -7 522.370 109.204  18
   1   3  -7 621.397 84.4889  21
  -1   3   7 417.687 68.4130  20
   1  -3  -7 529.942 74.4700  22
  -1  -3   7 562.238 84.8574   9
   1   3  -7 601.902 74.0266  18
   1   3  -7 463.110 76.8787  16
  -1   3   7 527.492 49.3435   2
  -1   3   7 533.480 72.6665  13
  -1   3   6-4.23228 40.2155  14
  -1   3   6-9.09110 20.0472   2
  -1   3   6 21.6800 46.7403  20
  -1   3   6 15.3954 36.9100  24
   1  -3  -6 78.7459 53.7375  15
  -1  -3   6 24.1719 58.9909  23
  -1  -3   6 5.72012 51.7733   9
   1  -3  -6 11.1230 152.536   8
   1  -3  -6 67.1036 65.9924  21
  -1  -3   6 32.0779 48.8616  13
   1   3  -6 16.8834 56.1300  25
  -1   3   6 42.1572 44.7137  13
   1  -3  -6-47.2070 171.280  11
  -1  -3   6-3.54160 44.8691  19
   1  -3  -6-25.8357 122.987  22
   1   3  -6 75.1705 58.7394  21
   1  -3  -6 29.1393 76.8097  18
   1   3  -6 9.88678 50.3298  16
   1   3  -6 35.0492 47.5050  18
  -1   3   6-3.06365 33.6162  23
   1   3  -5 146.190 57.6806  25
  -1   3   5 48.4507 44.3277  13
   1  -3  -5 318.612 164.729   8
  -1   3   5 117.968 37.9370  24
   1  -3  -5 67.8441 79.0820  17
  -1   3   5 54.4709 38.2490  14
   1  -3  -5-52.0237 160.963  22
  -1  -3   5 143.603 43.5462  13
  -1   3   5 96.6933 22.0324   2
   1  -3  -5 90.9766 61.2191  21
  -1  -3   5 160.189 32.7977   1
  -1   3   5 120.704 49.0771  20
   1  -3  -5-74.5487 161.847  11
  -1  -3   5 125.615 53.4700   9
   1   3  -5 154.487 56.3899  21
  -1  -3   5 111.466 52.1308  19
  -1   3   5 132.684 37.2005  23
   1   3  -5 98.8457 48.1323  18
   1  -3  -5 40.3792 72.9002  18
  -1  -3   5 168.293 61.7946  23
   1  -3  -5 182.619 49.1546  15
   1   3  -5 119.649 46.6016  16
  -1  -3   4 1405.32 80.8267   1
   1  -3  -4 1130.19 101.355  21
  -1   3   4 1102.91 82.6691  23
   1  -3  -4 1323.40 95.0532  17
  -1   3   4 1416.45 94.6394  14
   1  -3  -4 1274.88 90.5821  15
  -1  -3   4 1189.14 94.7627  14
   1   3  -4 1393.16 94.4559  18
  -1  -3   4 1193.42 97.9115   9
   1  -3  -4 1325.16 115.749  18
  -1   3   4 1257.96 95.2539  20
  -1  -3   4 1219.43 84.9534  13
   1  -3  -4 1273.78 143.543  22
  -1  -3   4 1385.47 98.8416  19
  -1  -3   4 1265.46 101.778  23
  -1   3   4 1252.69 89.2560  24
   1   3  -4 1199.02 101.092  25
  -1   3   4 1219.62 94.8875  13
   1   3  -4 1308.28 95.1261  16
   1   3  -3 90.4108 39.2231  16
   1   3  -3 76.4633 42.7424  10
  -1   3   3 82.9430 36.2393  14
   1   3  -3 102.081 43.4615  18
   1  -3  -3 49.4602 42.1664  21
  -1   3   3 64.1418 40.6167  13
  -1   3   3 58.2827 40.3431  20
   1  -3  -3 41.8134 56.2337  18
  -1  -3   3 157.832 47.9739  19
  -1  -3   3 75.1263 40.6110   9
  -1  -3   3 96.8703 24.0415  13
   1  -3  -3 63.7494 30.6995  15
   1  -3  -3 105.788 71.3230   8
   1   3  -3 120.045 52.5296  25
  -1  -3   3 67.8180 30.6815   1
  -1  -3   3 86.8985 30.9203  14
  -1   3   3 109.219 37.5820  24
   1  -3  -3 79.0979 71.2439  11
  -1  -3   2 3222.81 156.447   9
  -1   3   2 2697.27 160.989  13
   1  -3  -2 2774.44 155.687  21
   1   3  -2 2723.96 161.566  10
   1   3  -2 3028.08 150.414   3
   1   3  -2 2770.01 151.447   4
  -1  -3   2 3031.13 148.273  14
   1  -3  -2 2617.75 163.913  11
   1  -3  -2 2229.63 141.770  15
  -1  -3   2 2903.64 137.618  13
  -1   3   2 2773.15 161.235  20
   1  -3  -2 2496.49 138.734   2
   1  -3  -2 3103.75 166.310   8
  -1  -3   2 3038.82 159.275  19
   1  -3  -2 2640.24 161.056  18
   1  -3  -2 2881.87 164.134  22
  -1  -3   2 3150.60 161.399  17
   1   3  -2 2424.78 150.154  16
   1  -3  -1 328.484 46.8085  18
  -1   3   1 256.821 52.2502   3
  -1   3   1 242.218 49.1126  56
  -1  -3   1 429.360 46.6991  19
   1   3  -1 397.889 38.3649   1
   1  -3  -1 388.773 52.8800   8
  -1  -3   1 391.505 45.5799   2
  -1  -3   1 477.488 32.6473  14
   1   3  -1 373.073 35.3163  24
  -1  -3   1 338.051 32.9315   6
   1   3  -1 397.296 55.6323   7
   1  -3  -1 339.544 51.1647  11
  -1   3   1 317.961 51.3678  13
  -1   3   1 301.482 53.8265  20
   1   3  -1 380.866 55.7065  25
  -1   3   1 360.129 47.5894   1
  -1  -3   1 408.577 37.4870  23
   1  -3  -1 317.670 39.7704  21
   1   3  -1 487.978 53.1676  10
  -1   3   1 246.614 31.7496  10
  -1   3   0 172.214 28.5409  10
   1   3   0 147.097 37.6646   1
   1  -3   0 187.109 34.3822  18
   1   3   0 205.474 36.7334  10
  -1  -3   0 220.872 38.9753  19
  -1  -3   0 214.547 29.7090   6
   1   3   0 230.523 38.7140   7
   1   3   0 202.959 23.9629  56
  -1  -3   0 227.487 40.0666   2
  -1  -3   0 294.532 33.0493   9
   1  -3   0 184.957 26.4211  21
  -1  -3   0 244.374 33.7105  12
   1   3   0 198.622 26.9757  24
   1  -3   0 191.919 43.5982   8
   1  -3   0 192.224 43.0779  11
  -1   3   0 157.432 36.8585   4
  -1   3   0 172.229 29.3441  25
  -1  -3   0 161.157 27.0146  23
  -1   3   0 225.258 54.2148  56
   1  -3   1 403.175 47.5971  11
  -1   3  -1 382.227 48.7716   1
   1   3   1 403.269 37.0833  24
   1  -3   1 416.888 47.1655   8
   1   3   1 403.962 26.3593  13
   1  -3   1 373.755 34.2831  18
   1   3   1 465.348 48.1256   2
  -1  -3  -1 500.370 47.5065  12
  -1   3  -1 369.806 51.4883  12
  -1   3  -1 296.926 26.3843  15
  -1   3  -1 269.801 64.4267  16
   1   3   1 475.007 33.1287  20
   1   3   1 296.537 32.6137  56
  -1  -3  -1 412.151 47.3243   2
   1  -3   2 8.48896 38.4666   1
   1   3   2 12.5668 22.2167  20
  -1  -3  -2 9.29742 42.9774  15
   1   3   2 16.8146 18.7576  13
  -1  -3  -2 41.4419 34.2464   2
  -1  -3  -2 39.4618 42.8303  12
   1  -3   2 5.53603 28.3425   4
   1  -3   2 26.1166 35.4570   8
   1   3   2 17.4860 25.8144  56
  -1   3  -2-7.79032 43.3301  12
   1   3   2 18.4468 28.2596   2
  -1   3  -2-14.8208 61.4372  16
   1  -3   2 34.1687 34.2215  11
  -1   3  -2 7.94204 24.2467  15
   1   3   2 27.2319 28.3707   6
  -1  -3  -3 663.555 64.9908   2
   1  -3   3 607.384 87.5398   5
   1  -3   3 593.948 54.3218   8
   1  -3   3 642.880 52.6160   4
  -1  -3  -3 805.839 77.8377  15
   1  -3   3 653.645 60.6028   3
   1   3   3 791.233 69.0683   2
   1   3   3 693.500 53.4154  13
   1   3   3 673.686 55.4360  20
   1   3   3 679.853 61.4529   6
   1  -3   3 568.182 54.1167  11
  -1  -3  -3 824.402 80.3065  12
  -1   3  -3 647.826 73.3100  12
  -1   3  -3 527.374 54.1490  15
  -1   3  -3 557.652 84.1544  16
   1  -3   3 739.406 67.2240   1
  -1  -3  -4 138.949 76.0493  12
   1  -3   4 192.066 39.9651   3
   1  -3   4 173.400 59.3842  17
   1   3   4 156.242 39.8810  20
   1   3   4 177.458 38.5977  13
  -1   3  -4 198.120 60.9282  12
   1   3   4 172.751 41.8227   2
  -1  -3  -4 183.753 54.6613  15
  -1   3  -4 173.405 68.3706  16
   1   3   4 159.994 41.8358   6
   1  -3   4 172.310 88.0049   5
  -1   3  -4 158.035 46.0319  15
   1  -3   4 183.592 32.6829   4
   1  -3   4 245.598 47.2355   1
   1  -3   4 146.887 35.6553   8
   1   3   4 260.870 106.339   5
  -1   3  -5 239.323 73.3390  16
   1   3   5 237.860 49.7584  20
   1  -3   5 403.307 54.3031   1
   1  -3   5 462.319 49.3003   3
   1  -3   5 282.276 77.6365  17
   1   3   5 489.352 59.5574   2
   1  -3   5 200.496 96.7892  19
   1   3   5 399.360 57.1919   6
  -1   3  -5 272.940 63.2536  12
  -1  -3  -5 241.599 84.7878  12
   1  -3   5 214.749 104.541   5
  -1   3  -5 293.448 57.9528  15
   1   3   5 326.919 49.2394  13
  -1  -3  -5 274.526 64.6228  15
  -1  -3  -6-5.79456 53.7965  15
  -1   3  -6 23.4165 62.6461  16
  -1  -3  -6 122.246 84.5041  12
   1   3   6 18.3149 46.8376  20
   1   3   6 40.8456 38.9665  13
  -1   3  -6 139.759 61.0134  15
   1  -3   6 8.80723 93.9185   5
  -1   3  -6 24.5309 57.1199  12
   1  -3   6 49.8498 66.7398   9
   1   3   6 26.3704 40.3840   6
  -1  -3  -7 806.166 95.0360  15
  -1   3  -7 476.397 84.6254  33
  -1  -3  -7 450.313 74.0250  52
  -1   3  -7 598.639 86.1910  15
  -1   3  -7 333.926 81.3077  39
  -1  -3  -7 596.014 118.432  12
  -1  -3  -7 624.443 85.6451  37
  -1   3  -7 563.568 79.6810  37
  -1  -3  -7 532.892 82.8817  36
   1   3   7 646.557 74.4599   6
   1   3   7 647.182 72.9712  13
   1   3   7 498.369 75.3037  20
  -1  -3  -7 576.500 100.288  35
   1  -3   7 591.789 81.0334   9
  -1   3  -7 438.865 90.9673  16
  -1   3  -7 696.208 85.0254  12
  -1   3  -7 400.791 70.7238  46
  -1   3  -8 196.878 78.9868  39
  -1  -3  -8 154.139 80.2163  37
  -1   3  -8 119.194 72.0254  44
  -1   3  -8 148.004 97.3942  41
   1  -3   8 90.0162 61.5104  23
  -1   3  -8 124.468 71.8787  37
  -1  -3  -8 206.580 73.9852  36
  -1  -3  -8 218.257 80.4825  35
   1   3   8 231.128 76.4432  56
  -1   3  -8 131.734 81.1140  16
   1   3   8 195.890 57.7508  13
   1   3   8 138.488 61.9430  20
   1   3   8 122.984 53.0322   6
  -1   3  -8 189.311 77.7091  33
  -1   3  -8 42.9594 56.0503  12
   1  -3   8 177.402 55.0269   9
  -1   3  -8 123.061 65.2636  15
  -1   3  -8 213.166 61.9434  46
  -1  -3  -8 174.385 68.5270  52
  -1  -3  -8 215.113 103.781  12
  -1  -3  -8 215.331 87.6470  40
   1  -3   8 184.594 65.5327  14
  -1   3  -9 106.272 81.8532  33
  -1   3  -9 190.290 69.5662  46
  -1   3  -9 113.792 103.756  41
  -1   3  -9 226.725 72.7907  15
  -1  -3  -9 177.857 86.2752  37
   1   3   9 227.745 63.5174   6
  -1  -3  -9 175.169 76.5922  35
  -1  -3  -9 211.517 83.5617  36
  -1  -3  -9 119.724 74.1907  52
   1   3   9 127.203 61.2376  13
   1   3   9 187.786 67.6782  20
   1   3   9 178.147 82.0960  56
  -1  -3  -9 218.645 77.8315  32
   1  -3   9 137.918 54.5584   9
  -1  -3  -9 23.1642 105.609  12
  -1   3  -9 222.639 65.9706  12
   1  -3   9 71.5913 59.0829  14
  -1   3  -9 81.1966 79.0363  44
  -1   3  -9 92.4049 75.0714  37
  -1  -3  -9 82.3846 81.1375  40
  -1   3  -9 132.451 72.4314  16
   1  -3   9 145.062 67.6910  23
   1  -3  10 125.188 63.8368  14
  -1   3 -10 246.512 76.9175  15
   1  -3  10 222.536 74.0857  13
  -1   3 -10 92.6856 98.3429  41
  -1  -3 -10 179.145 81.7395  52
  -1  -3 -10 176.028 95.1194  37
  -1   3 -10 184.805 75.4491  37
  -1  -3 -10 97.9861 74.5432  35
   1   3  10 128.744 60.2476  13
   1   3  10 212.947 74.1394  20
   1  -3  10 179.603 67.4660  23
  -1  -3 -10 65.9707 77.7214  32
  -1  -3 -10 78.6128 140.234  51
  -1   3 -10 173.229 68.6533  12
  -1  -3 -10 114.693 100.863  12
   1   3  10 125.878 87.1766  56
  -1   3 -10 75.1995 83.4199  44
  -1   3 -10 240.338 73.3392  46
  -1   3 -10 173.702 82.3594  16
  -1  -3 -10 164.579 86.9268  36
  -1  -3 -11 41.9131 81.8624  12
   1  -3  11-16.3289 60.1979  14
  -1   3 -11 27.3466 81.5084  52
  -1  -3 -11-21.4814 140.945  51
  -1  -3 -11 54.8977 61.3456  35
  -1  -3 -11 46.3713 83.4945  36
   1   3  11 99.2302 68.0568  20
   1   3  11 32.5997 81.3325  56
   1   3  11 46.6491 64.9777  24
   1   3  11-8.12486 52.5461  13
   1  -3  11 40.8264 52.8073  13
  -1   3 -11 80.0013 63.6518  46
  -1  -3 -11 96.7146 74.1209  32
  -1   3 -11-70.8678 62.3523  12
  -1  -3 -11 31.1733 80.0620  15
  -1  -3 -11 34.1409 83.3002  52
  -1   3 -11 42.8991 69.3200  37
  -1   3 -11 86.7165 64.0771  15
  -1   3 -11 106.587 104.684  41
   1  -3  12 50.8209 50.1157  14
  -1   3 -12-5.34101 66.2384  37
  -1   3 -12 108.305 95.4330  41
   1   3  12 40.9920 73.7749  56
  -1  -3 -12 60.7302 81.9792  36
   1   3  12 8.50577 57.1472  24
   1   3  12-91.0654 59.6857  20
   1  -3  12 83.2450 54.9281  13
  -1  -3 -12-46.9473 63.9538  32
  -1  -3 -12 36.0221 77.2365  12
  -1  -3 -12 64.4089 109.683  51
  -1  -3 -12-19.6904 75.8449  15
  -1  -3 -12 18.8307 81.5629  52
  -1   3 -12 42.6563 76.5929  52
  -1   3 -13 107.900 55.4341  37
  -1   3 -13 11.3097 52.2968  36
  -1  -3 -13-50.1879 72.4223  52
  -1  -3 -13 44.6911 46.5424  32
  -1   3 -13 27.9290 75.0720  41
  -1   3 -13 24.3346 64.5012  52
  -1  -3 -13 48.9087 66.9427  36
  -1   3 -14 246.946 56.0802  52
  -1   3 -14 173.098 61.5118  41
  -1   3 -14 221.023 40.6119  36
  -1  -3 -14 238.854 59.0986  36
  -1  -3 -14 141.551 59.7501  49
  -1  -4  15 1327.50 93.4345  53
   1  -4 -15 1372.50 128.970  51
  -1   4  15 1348.55 98.3879  45
   1  -4 -15 1411.01 108.956  36
  -1  -4  15 1129.22 90.5866  50
   1   4 -15 1402.35 103.072  52
   1  -4 -14 6755.82 382.999  51
   1  -4 -14 5887.52 359.550  52
   1   4 -14 6411.00 346.927  52
  -1   4  14 7043.23 351.351  45
  -1  -4  14 6655.99 320.900  34
   1  -4 -14 6535.14 354.459  36
   1  -4 -14 5657.60 328.575  40
   1   4 -14 5571.57 319.752  29
   1   4 -13 3916.59 235.102  41
   1   4 -13 3584.05 215.720  29
  -1   4  13 3419.10 244.525  24
   1  -4 -13 3605.06 276.695  51
   1  -4 -13 4172.96 254.015  36
   1  -4 -13 3535.85 239.279  40
   1  -4 -13 4155.10 237.583  35
  -1  -4  13 3855.67 212.737  34
   1  -4 -13 3699.53 217.389  32
   1  -4 -13 3754.26 258.645  52
  -1  -4  13 3696.84 237.273  23
  -1   4  13 3497.46 266.233  56
   1   4 -13 3565.13 240.538  52
  -1   4  12 5350.36 358.209  24
   1   4 -12 5921.64 366.710  44
  -1   4  12 5909.58 376.207  13
  -1  -4  12 5819.08 354.026  23
  -1  -4  12 5838.40 336.615  20
   1  -4 -12 6761.96 422.603  12
  -1  -4  12 5521.28 338.133  13
   1  -4 -12 6489.70 362.931  35
   1  -4 -12 6057.21 392.772  51
  -1  -4  12 6148.90 328.180  34
  -1  -4  12 6140.23 357.925  14
   1   4 -12 5791.05 362.680  33
   1  -4 -12 5351.26 359.194  52
   1  -4 -12 6034.56 361.769  40
   1  -4 -12 6484.86 363.753  36
   1  -4 -12 6595.32 380.195  15
   1   4 -12 5825.46 354.997  52
   1   4 -12 5940.98 328.966  29
  -1   4  12 6036.67 336.627  50
   1   4 -12 6152.92 374.973  15
  -1   4  12 5602.46 383.366  56
  -1   4  11 1047.94 134.924  56
  -1  -4  11 889.582 94.5013  20
  -1  -4  11 896.118 109.330  23
   1   4 -11 761.717 103.134  51
  -1   4  11 862.185 112.368  24
  -1   4  11 970.367 121.232  20
   1  -4 -11 1086.70 128.946  15
  -1  -4  11 867.719 93.9101  13
  -1   4  11 891.003 119.381  13
   1   4 -11 685.719 115.220  33
   1   4 -11 712.068 113.875  44
  -1  -4  11 1119.93 107.728   9
   1  -4 -11 959.445 122.542  36
   1  -4 -11 813.102 139.594  35
   1  -4 -11 909.157 155.793  51
   1  -4 -11 887.646 176.311  12
  -1  -4  11 1038.46 110.325  14
  -1  -4  11 962.365 93.7993  34
  -1   4  11 815.044 94.1910  50
   1   4 -11 948.228 126.962  15
   1  -4 -11 1127.08 146.673  40
   1  -4 -11 796.769 124.633  52
   1   4 -11 955.266 90.9700  29
   1   4 -10 22348.5 1177.11  33
   1  -4 -10 22696.8 1194.27  51
   1  -4 -10 23349.3 1192.43  44
   1   4 -10 22605.6 1195.98  15
   1   4 -10 23063.0 1174.09  44
  -1  -4  10 24069.7 1176.08   9
  -1  -4  10 23489.1 1183.63  23
  -1   4  10 21861.9 1192.49  56
  -1   4  10 22782.9 1172.70  14
   1  -4 -10 25478.4 1190.76  40
   1   4 -10 20911.9 1154.61  51
   1   4 -10 22968.2 1180.30  21
  -1   4  10 22340.2 1186.83  13
   1  -4 -10 23166.0 1167.74  36
  -1  -4  10 22175.1 1161.85  13
  -1  -4  10 23367.0 1165.03  20
   1   4 -10 23199.9 1190.00  46
  -1   4  10 22923.1 1184.19  20
   1  -4 -10 22542.7 1169.61  52
  -1   4  10 22472.5 1150.90  50
  -1   4  10 22586.2 1176.56  24
   1  -4 -10 24817.3 1193.33  15
   1  -4 -10 22686.7 1168.41  29
  -1  -4  10 23018.9 1150.44  27
   1  -4 -10 25084.4 1207.57  35
   1   4 -10 22744.2 1147.26  29
   1   4  -9 3511.54 259.905  46
   1  -4  -9 4245.18 272.271  40
   1  -4  -9 4450.04 266.790  15
  -1  -4   9 4137.32 256.876   9
   1   4  -9 3940.61 254.249  21
   1  -4  -9 3764.22 244.151  36
  -1  -4   9 3760.36 242.335  13
   1  -4  -9 4760.63 316.668  35
   1   4  -9 3816.52 228.259  29
  -1  -4   9 3799.00 260.083  23
  -1   4   9 4454.12 261.635  20
   1   4  -9 3776.90 251.681  44
   1   4  -9 3654.56 246.207  12
   1   4  -9 3773.64 240.032  51
  -1   4   9 3857.58 248.654  24
  -1  -4   9 3812.49 232.470  27
   1  -4  -9 3922.39 246.960  52
   1  -4  -9 3914.70 261.527  44
   1   4  -9 3825.12 253.591  33
  -1   4   9 4132.31 262.239  13
   1  -4  -9 3905.96 246.738  29
  -1   4   9 3950.57 231.774  50
  -1   4   9 4160.58 249.135  14
   1  -4  -9 3776.90 270.905  51
   1  -4  -8 19098.3 967.691  44
   1   4  -8 17803.3 950.312  18
   1  -4  -8 17416.5 949.716  29
   1   4  -8 18533.8 964.210  12
   1   4  -8 19279.5 965.693  21
  -1   4   8 19013.6 970.922  13
  -1  -4   8 19535.2 975.013   9
   1  -4  -8 18792.4 954.150  36
   1  -4  -8 18119.4 952.370  52
  -1  -4   8 19586.8 961.660  13
   1  -4  -8 21728.0 1032.71  35
   1   4  -8 18534.6 962.865  33
   1  -4  -8 20960.5 1024.70  18
  -1   4   8 18248.1 957.417  14
   1  -4  -8 18544.6 963.816  11
  -1  -4   8 19448.8 979.205  23
   1  -4  -8 17906.8 973.294  51
   1  -4  -8 19970.4 973.712  15
   1   4  -8 18291.3 976.556  46
  -1   4   8 18646.7 966.757  20
  -1   4   8 18620.2 960.648  24
   1   4  -8 20000.2 960.931  44
   1  -4  -8 18336.2 954.700   8
   1  -4  -7 7589.06 445.124  18
   1   4  -7 6966.35 414.206  46
   1  -4  -7 7108.93 392.142  29
   1   4  -7 7272.57 402.211  21
   1  -4  -7 7377.38 405.612  22
  -1  -4   7 7665.42 418.868   9
  -1  -4   7 7165.93 417.651  23
   1  -4  -7 7561.69 407.668  15
   1  -4  -7 7600.90 428.656   8
  -1  -4   7 6846.00 399.189  13
  -1  -4   7 6727.15 391.303  19
   1   4  -7 7281.17 403.222  33
   1   4  -7 7907.59 403.071  44
  -1   4   7 7629.62 408.409  20
   1   4  -7 7742.64 395.032  18
  -1   4   7 7774.70 402.361  24
   1   4  -7 7480.15 421.189  25
  -1   4   7 7922.47 411.716  13
   1  -4  -7 6639.03 407.779  51
   1  -4  -7 7620.22 439.961  11
   1  -4  -7 6986.56 392.556  52
  -1   4   7 7451.64 400.884  14
  -1  -4   6 33304.9 1645.94  13
  -1  -4   6 29547.0 1656.49  23
  -1   4   6 33369.0 1645.98  24
   1  -4  -6 35167.7 1666.50  21
   1  -4  -6 28383.2 1623.71  17
  -1   4   6 35090.1 1647.85  14
  -1  -4   6 31217.8 1654.05  14
   1  -4  -6 37228.6 1700.12  22
   1  -4  -6 35910.9 1723.26   8
   1   4  -6 36644.9 1666.07  25
   1   4  -6 35520.5 1648.69  21
  -1   4   6 34662.9 1655.71  13
  -1  -4   6 32083.5 1661.76   9
  -1   4   6 34893.2 1652.36  20
   1   4  -6 33606.7 1653.74  16
  -1  -4   6 32102.6 1645.53  19
   1  -4  -6 35567.2 1650.00  15
   1  -4  -6 33045.7 1677.58  18
   1  -4  -6 34044.5 1724.41  11
   1   4  -6 35067.7 1638.89  18
   1  -4  -5 7876.49 530.380  22
  -1   4   5 8798.03 430.741  14
  -1  -4   5 7714.58 425.586  13
  -1   4   5 8099.43 431.025  24
   1  -4  -5 6498.23 458.410  19
  -1   4   5 8197.82 434.547  20
  -1  -4   5 6703.07 429.775  14
  -1   4   5 8993.62 439.431  13
  -1   4   5 8075.28 432.184  56
   1  -4  -5 7014.78 473.089  17
  -1  -4   5 7309.37 438.695  23
  -1  -4   5 8183.17 436.562  19
   1  -4  -5 7886.96 539.817   8
  -1  -4   5 7460.18 439.791   9
   1   4  -5 8580.05 432.707  21
   1  -4  -5 8747.61 445.273  21
   1   4  -5 8835.28 425.282  18
   1  -4  -5 9015.55 429.582  15
   1  -4  -5 8986.23 459.638  18
   1   4  -5 8745.53 443.283  25
   1  -4  -5 6632.08 538.972  11
   1   4  -5 8474.52 434.455  16
   1   4  -4 50249.0 2535.23  10
  -1  -4   4 52067.6 2530.85  17
  -1  -4   4 47332.1 2525.90  14
   1  -4  -4 56804.8 2607.79  22
  -1   4   4 52173.6 2531.57  56
   1   4  -4 55580.1 2529.47  21
  -1  -4   4 51094.4 2539.28   9
  -1  -4   4 49814.5 2518.16  13
  -1   4   4 52194.3 2530.96  20
   1   4  -4 56732.9 2522.41  18
   1   4  -4 51356.2 2527.82  16
   1  -4  -4 50501.6 2541.03  18
   1  -4  -4 48162.0 2517.98  15
  -1   4   4 49160.1 2523.93  14
   1   4  -4 50841.1 2537.38  25
  -1   4   4 53195.0 2533.31  13
   1  -4  -4 60887.9 2562.05  17
  -1  -4   4 52245.4 2537.56  19
   1  -4  -4 51833.7 2532.11  21
  -1  -4   3 24269.0 1158.03  14
  -1  -4   3 28018.6 1178.79  19
   1  -4  -3 22563.3 1170.09  18
   1  -4  -3 20067.1 1148.67  15
   1   4  -3 22484.6 1168.49  10
  -1  -4   3 26020.8 1170.71   9
  -1   4   3 23848.1 1167.81  13
   1  -4  -3 21272.9 1144.57   2
  -1   4   3 23354.2 1166.19  20
   1  -4  -3 22049.4 1160.04  21
   1   4  -3 25691.0 1165.97  21
  -1  -4   3 23639.9 1148.09  13
   1  -4  -3 29264.9 1214.67  11
   1  -4  -3 26156.6 1176.70  17
  -1   4   3 23734.7 1165.78  56
   1   4  -3 22366.5 1160.86  16
  -1  -4   3 25967.2 1173.69  17
   1  -4  -3 31197.4 1217.30   8
   1   4  -3 27549.5 1181.53  25
  -1   4   3 22484.5 1145.96  25
   1   4  -2 36492.9 1769.12  10
   1  -4  -2 35235.0 1746.39   2
   1  -4  -2 46496.5 1792.52   8
   1   4  -2 37816.6 1752.54   4
  -1   4   2 36932.4 1766.69  20
   1   4  -2 36049.2 1754.74  24
  -1  -4   2 40437.9 1750.70  14
   1  -4  -2 34237.8 1754.37  21
  -1   4   2 38194.5 1768.85  13
   1  -4  -2 31965.0 1746.38  15
  -1  -4   2 45741.5 1774.36  19
  -1  -4   2 32865.5 1736.74  13
   1  -4  -2 35488.7 1761.76  18
  -1   4   2 34650.0 1750.03  10
  -1  -4   2 44230.6 1774.36  17
   1  -4  -2 45990.9 1793.16  11
   1  -4  -2 42751.0 1788.70  22
  -1  -4   2 43100.2 1760.20  23
  -1   4   2 37302.9 1765.71  56
   1  -4  -1 34025.8 1509.21   8
   1   4  -1 31075.4 1490.61  24
   1   4  -1 32505.8 1504.59  10
   1   4  -1 31284.0 1486.30   1
   1  -4  -1 33114.1 1510.03  22
  -1  -4   1 33162.4 1480.49  14
   1  -4  -1 25870.6 1483.22  21
  -1  -4   1 35444.5 1492.23   9
  -1   4   1 28619.7 1502.25  20
  -1  -4   1 34948.4 1502.12  19
  -1   4   1 27355.2 1486.79  10
  -1  -4   1 32679.3 1502.43   2
   1  -4  -1 27913.0 1491.01  18
  -1   4   1 24411.6 1482.95  25
  -1   4   1 29876.6 1502.62  56
  -1   4   1 28266.6 1495.40   1
  -1  -4   1 35367.8 1504.56  17
   1   4  -1 33031.4 1507.34   7
   1  -4  -1 33386.7 1509.88  11
  -1  -4   1 32349.3 1488.00  23
  -1   4   0 66508.3 4148.90  25
   1  -4   0 91264.1 4164.86   8
  -1   4   0 76848.2 4152.06  10
  -1  -4   0 84061.7 4146.67  23
   1   4   0 92806.5 4165.25  10
   1   4   0 94690.3 4155.30  24
   1   4   0 88339.7 4156.49   1
   1   4   0 94251.3 4163.88   7
  -1  -4   0 93889.4 4161.93  17
  -1  -4   0 92428.0 4158.84  19
  -1  -4   0 86592.1 4147.32  12
   1  -4   0 74785.5 4148.13  18
  -1  -4   0 91256.3 4166.19   2
   1   4   0 97785.5 4171.33  25
  -1   4   0 83979.7 4170.25  24
  -1   4   0 82161.0 4169.55  56
   1   4   0 86277.6 4149.21  56
  -1   4   0 78610.9 4156.61   1
   1  -4   0 93511.1 4166.12  11
  -1  -4   0 93653.9 4151.09   9
   1  -4   0 90802.5 4167.55  22
  -1   4  -1 10059.1 550.202  10
   1   4   1 11183.9 558.996  10
  -1   4  -1 10530.6 571.290  24
   1   4   1 10902.3 545.782  56
   1  -4   1 11703.8 560.575  22
   1   4   1 11471.5 558.428   7
   1  -4   1 12528.8 560.096   8
  -1   4  -1 10733.5 558.959   3
   1   4   1 10975.5 562.209   1
   1  -4   1 11296.1 560.524  17
  -1  -4  -1 12116.2 548.921  12
  -1   4  -1 10468.6 552.707   1
   1  -4   1 11323.6 556.741  11
  -1   4  -1 9466.29 569.197  16
  -1   4  -1 9209.05 550.715  25
   1   4   1 11441.1 549.937  24
  -1  -4  -1 11117.8 561.049   2
   1  -4   2 37675.2 1869.89   5
  -1  -4  -2 40979.2 1861.60  12
   1  -4   2 41003.6 1872.87  17
   1   4   2 36010.7 1846.86  13
  -1   4  -2 37390.9 1886.90  16
   1   4   2 36203.7 1851.04  20
   1   4   2 37895.7 1867.04   2
   1  -4   2 40904.7 1863.19   8
   1  -4   2 39608.5 1860.71  11
   1   4   2 38206.8 1856.16  56
   1  -4   2 40286.0 1867.00  22
  -1   4  -2 35193.5 1857.23  12
   1   4   2 38003.7 1858.53  24
  -1  -4  -2 38422.8 1872.47   2
   1  -4   3 12206.1 611.701  22
   1  -4   3 12884.7 610.247   8
  -1  -4  -3 14042.7 627.176  15
   1   4   3 11400.7 608.894  24
  -1  -4  -3 11693.5 610.847  12
   1  -4   3 12650.4 609.628   1
   1   4   3 11600.3 597.665  13
   1   4   3 11363.4 601.015  20
   1  -4   3 13991.1 631.486  17
   1  -4   3 12084.2 606.731  11
  -1   4  -3 10594.4 604.117  12
   1  -4   3 12712.8 637.098   5
   1   4   3 11523.2 605.976  56
  -1  -4  -3 11943.0 619.351   2
  -1   4  -3 11702.6 635.726  16
   1   4   3 12790.0 618.622   2
   1   4   4 47458.0 2291.53   6
  -1   4  -4 41577.4 2282.06  15
   1  -4   4 49036.6 2316.64  17
   1   4   4 48366.4 2283.17  20
   1   4   4 45622.6 2288.93  56
   1  -4   4 45816.1 2329.54  19
  -1  -4  -4 41750.8 2291.73  12
   1   4   4 49557.0 2298.08   2
   1  -4   4 45620.2 2326.71   5
  -1  -4  -4 56389.4 2305.98  15
  -1   4  -4 47624.4 2314.96  16
  -1   4  -4 46224.1 2284.36  12
   1   4   4 46906.0 2278.93  13
  -1   4  -5 13581.2 665.766  12
   1   4   5 13304.7 674.371  56
   1   4   5 14547.6 665.180  13
   1   4   5 13759.0 674.605   6
   1   4   5 14164.5 668.569  20
  -1  -4  -5 15775.1 691.912  15
   1  -4   5 10697.5 698.103   9
   1  -4   5 9043.59 692.999  19
  -1  -4  -5 11789.8 681.905  12
   1  -4   5 11163.4 708.285   5
   1  -4   5 10624.1 688.614  17
  -1   4  -5 13653.9 698.466  16
   1   4   5 14686.3 684.249   2
  -1   4  -5 12725.9 670.064  15
  -1   4  -6 17960.2 934.324  12
  -1   4  -6 17250.4 947.045  39
   1   4   6 19513.5 947.946   6
   1  -4   6 17021.0 956.852  19
   1   4   6 19044.4 935.871  13
  -1   4  -6 21238.0 941.144  37
  -1  -4  -6 22170.7 963.334  15
  -1   4  -6 18689.7 947.251  15
   1  -4   6 18675.9 966.130   9
  -1   4  -6 18933.0 971.224  16
   1   4   6 18833.2 947.456  56
  -1  -4  -6 16389.1 958.788  12
  -1   4  -6 16551.1 941.083  38
  -1  -4  -6 16534.7 949.127  51
   1   4   6 19660.7 940.187  20
  -1  -4  -7 8259.37 430.194  36
  -1  -4  -7 8155.69 459.893  40
  -1   4  -7 8034.24 441.761  15
  -1   4  -7 7573.61 446.600  39
  -1   4  -7 7256.16 427.707  46
  -1  -4  -7 7007.44 428.524  37
  -1   4  -7 7681.57 427.279  37
   1   4   7 8596.57 431.685  13
  -1  -4  -7 9361.20 470.153  35
   1   4   7 8422.33 440.440   6
   1   4   7 8490.12 435.060  20
   1  -4   7 9165.03 453.226   9
  -1   4  -7 6792.13 434.625  33
  -1   4  -7 7525.88 424.616  12
  -1  -4  -7 7069.84 461.510  12
   1   4   7 7734.33 443.252  56
  -1  -4  -7 7286.27 422.795  52
  -1  -4  -7 9799.81 460.547  15
  -1  -4  -7 7109.44 451.149  51
  -1   4  -7 8568.02 466.508  16
  -1   4  -8 20090.1 1039.56  12
  -1  -4  -8 19006.1 1038.40  52
  -1   4  -8 21525.9 1060.93  15
   1   4   8 21172.3 1056.89   6
  -1  -4  -8 19355.2 1047.50  37
   1  -4   8 20271.9 1058.14  23
   1  -4   8 20630.4 1060.21  14
  -1   4  -8 19582.5 1039.08  37
   1   4   8 20734.6 1064.39  56
  -1   4  -8 18525.5 1060.84  39
  -1   4  -8 20337.1 1045.59  46
  -1   4  -8 22157.5 1088.17  16
   1  -4   8 21505.8 1053.81   9
  -1   4  -8 20054.5 1059.53  33
  -1  -4  -8 20663.3 1092.11  12
  -1  -4  -8 25285.8 1084.89  15
  -1  -4  -8 21178.9 1064.80  40
  -1  -4  -8 20909.0 1062.53  35
   1   4   8 22129.4 1053.62  20
  -1  -4  -8 18133.4 1075.12  51
   1   4   8 20314.2 1045.84  13
  -1  -4  -8 20775.1 1044.06  36
   1   4   9 3097.61 218.667  24
   1  -4   9 3038.21 211.331  23
   1   4   9 3663.99 217.406  20
  -1  -4  -9 2680.66 201.816  52
  -1   4  -9 2740.07 196.780  37
  -1  -4  -9 3530.82 240.191  15
  -1   4  -9 3185.51 231.662  41
   1   4   9 2550.85 219.573  56
  -1  -4  -9 3004.40 215.429  35
   1   4   9 3019.03 204.336  13
  -1   4  -9 2703.46 201.566  44
  -1  -4  -9 3047.69 210.469  36
  -1   4  -9 3084.40 234.226  16
  -1   4  -9 2704.54 216.303  33
  -1   4  -9 2656.09 191.703  12
  -1  -4  -9 3398.26 258.201  12
  -1   4  -9 2610.52 199.627  46
  -1   4  -9 2907.76 210.142  15
  -1  -4  -9 3128.42 219.203  40
   1  -4   9 2928.20 199.748   9
  -1   4  -9 2554.32 220.289  39
  -1  -4  -9 2904.71 216.066  37
   1  -4   9 3128.88 211.502  14
   1   4  10 11003.4 654.358  56
   1  -4  10 13269.9 644.094  14
  -1   4 -10 10269.7 617.279  44
  -1   4 -10 12574.7 669.547  16
  -1  -4 -10 10852.4 618.447  32
  -1   4 -10 11979.6 634.588  15
   1  -4  10 12474.4 636.315  23
  -1   4 -10 13358.7 655.858  41
  -1  -4 -10 10191.5 614.443  40
   1   4  10 11718.9 632.024  13
  -1   4 -10 11473.3 617.772  37
   1   4  10 12630.1 638.300  20
  -1   4 -10 11027.2 623.180  46
  -1  -4 -10 10941.9 624.005  52
  -1  -4 -10 11877.8 627.962  36
  -1  -4 -10 13597.8 684.104  12
  -1  -4 -10 11536.0 622.864  35
   1   4  10 12927.4 652.473  24
  -1   4 -10 11072.5 612.643  12
  -1   4 -11 2044.44 162.579  46
  -1  -4 -11 1898.49 150.502  35
   1  -4  11 2247.66 165.438  13
   1  -4  11 2103.05 164.048  14
  -1  -4 -11 2624.45 207.126  12
  -1  -4 -11 1774.15 165.231  36
  -1  -4 -11 2085.05 160.946  32
   1   4  11 1736.96 181.218  56
   1  -4  11 2150.30 162.737  23
  -1  -4 -11 1851.84 165.091  52
  -1   4 -11 2031.52 169.198  52
   1   4  11 1768.36 167.397  24
  -1   4 -11 1800.83 183.051  16
  -1   4 -11 1887.93 177.570  41
  -1   4 -11 1678.23 149.876  37
   1   4  11 2272.33 169.082  20
  -1   4 -12 6515.56 370.431  41
  -1  -4 -12 6065.79 359.382  36
  -1   4 -12 5724.06 342.340  37
  -1  -4 -12 6454.84 348.639  32
   1   4  12 5291.86 379.915  56
  -1  -4 -12 5669.26 354.189  52
   1   4  12 6525.56 363.692  20
   1   4  12 6545.43 374.474  24
  -1   4 -12 6445.96 357.961  52
  -1   4 -13 1257.76 93.7272  36
  -1  -4 -13 983.578 108.742  36
  -1  -4 -13 1033.20 90.8557  32
  -1   4 -13 1068.16 91.3855  37
  -1   4 -13 1108.53 103.721  52
  -1   4 -13 965.075 116.244  41
  -1   4 -14 4184.36 223.019  41
  -1  -4 -14 3875.84 215.894  36
  -1  -4 -14 4087.59 225.525  49
  -1   4 -14 4255.42 214.777  52
  -1  -4 -14 3399.17 195.543  32
   1   5 -14 165.450 54.8110  41
  -1   5  14 97.1378 58.6006  45
   1  -5 -14 130.649 70.6460  36
   1  -5 -14 30.4272 46.5197  35
  -1  -5  14 86.5860 32.4604  34
   1  -5 -14 38.5257 55.8691  40
   1  -5 -14 260.999 105.355  51
   1   5 -14 111.387 59.9522  52
  -1   5  13 86.3885 66.0745  45
  -1   5  13-7.82329 59.0160  24
   1  -5 -13 45.4176 85.6256  40
   1   5 -13 33.8609 74.4399  52
   1  -5 -13 62.5310 82.2766  36
   1  -5 -13 81.6321 79.3219  35
  -1   5  13-17.0127 63.6895  20
  -1  -5  13 95.5148 44.9414  34
   1  -5 -13-19.6367 57.1481  32
  -1  -5  13 62.2482 52.1996  23
  -1   5  13 10.3333 73.2058  56
   1   5 -13 57.4246 41.4068  29
   1  -5 -13 8.67411 123.637  51
  -1   5  12 225.322 94.7613  56
   1  -5 -12 347.175 120.159  12
   1  -5 -12 261.991 81.5284  15
   1  -5 -12 392.173 114.430  40
  -1   5  12 296.089 75.7020  24
   1  -5 -12 314.016 110.429  35
  -1   5  12 419.337 94.1402  13
  -1   5  12 309.594 83.9555  20
   1   5 -12 359.420 87.8077  33
  -1  -5  12 364.456 60.4687  34
   1  -5 -12 233.749 131.932  51
   1  -5 -12 402.507 104.824  36
   1   5 -12 342.636 58.5061  29
   1   5 -12 411.218 94.7568  52
  -1  -5  12 387.583 76.6019  23
  -1  -5  12 447.501 73.8479  14
   1  -5 -12 303.099 98.6653  52
  -1  -5  11 15.6645 54.5468  14
  -1   5  11-18.0191 65.9061  24
  -1  -5  11 113.490 49.8583  27
  -1  -5  11 103.028 67.2033  23
   1  -5 -11 74.7730 113.178  40
  -1  -5  11 58.1177 55.7551  34
   1  -5 -11 69.6936 90.3418  36
   1  -5 -11-18.5898 121.080  35
  -1   5  11-19.8811 66.1732  13
  -1   5  11-9.48923 67.7681  20
  -1  -5  11 67.7640 41.3197  13
  -1  -5  11-27.2544 42.8862  20
  -1  -5  11 14.1809 50.6434   9
   1   5 -11-8.00062 75.6712  33
   1  -5 -11-157.342 145.994  12
  -1   5  11-66.2411 83.2408  56
   1  -5 -11 94.5589 80.1790  15
   1   5 -11 52.3851 49.8630  29
   1  -5 -11-89.7884 122.375  51
   1   5 -11 40.4108 73.9001  15
   1  -5 -11 119.698 90.7450  52
   1  -5 -11-37.0156 90.0534  29
   1   5 -10 71.6471 49.8581  29
   1  -5 -10 62.4660 69.7436  15
   1   5 -10-8.46209 79.6842  46
  -1  -5  10 31.2612 53.0393  14
   1  -5 -10 50.9290 119.741  40
   1   5 -10 30.5355 74.4802  15
   1  -5 -10 59.3503 84.0047  36
   1  -5 -10 52.5149 134.107  35
  -1   5  10 37.6112 63.7944  13
  -1   5  10 141.702 73.3562  20
  -1  -5  10 68.6457 41.5751  13
  -1  -5  10 37.0347 53.3705   9
   1   5 -10 38.1058 70.4066  33
  -1  -5  10 61.1508 49.0875  27
   1  -5 -10 70.0317 74.9755  29
  -1  -5  10 8.19388 65.7752  23
   1  -5 -10-6.94295 93.5330  52
  -1   5  10 33.6494 55.5078  24
   1  -5 -10-19.0242 120.522  51
   1  -5  -9 2680.85 184.050  11
  -1  -5   9 2327.78 180.273  14
   1   5  -9 2321.23 178.078  21
  -1  -5   9 2549.43 185.205   9
   1  -5  -9 2347.30 181.431  36
  -1  -5   9 2492.46 169.368  13
   1  -5  -9 2803.47 251.923  35
  -1   5   9 2711.12 193.368  20
   1  -5  -9 2654.22 213.808  51
   1   5  -9 2311.32 183.782  33
  -1   5   9 2469.35 178.619  14
  -1   5   9 2384.43 188.853  13
   1   5  -9 2695.64 165.445  29
   1  -5  -9 2462.65 185.778  29
  -1   5   9 2335.39 183.130  24
   1  -5  -9 2444.61 183.865  52
   1  -5  -9 2709.42 196.718  15
  -1  -5   9 2756.96 167.972  27
   1   5  -9 2514.85 198.260  46
  -1  -5   9 2463.45 189.267  23
  -1  -5   8 914.875 106.335  23
   1  -5  -8 930.409 126.337  51
   1  -5  -8 772.662 94.8107  29
   1   5  -8 695.440 103.813  46
   1  -5  -8 830.024 98.1441  15
  -1   5   8 866.599 91.1176  14
  -1  -5   8 816.157 95.1851  14
   1  -5  -8 929.189 92.6568  22
   1  -5  -8 956.275 109.290   8
  -1   5   8 907.779 104.149  13
  -1  -5   8 830.400 100.715   9
   1  -5  -8 761.504 97.6384  36
  -1  -5   8 729.215 80.6883  13
  -1   5   8 797.451 102.064  20
  -1   5   8 918.430 97.3580  24
   1   5  -8 953.186 101.867  33
   1  -5  -8 717.920 111.047  11
   1   5  -8 1017.71 97.2016  21
   1  -5  -8 986.004 105.714  30
   1  -5  -8 882.460 100.283  52
   1   5  -7 2066.08 161.899  25
  -1   5   7 1764.78 143.445  56
   1   5  -7 1774.28 148.927  46
  -1  -5   7 1819.74 150.028  23
  -1   5   7 1698.30 142.518  20
  -1  -5   7 1916.59 142.176  14
  -1   5   7 1848.82 135.306  14
   1   5  -7 1959.81 137.355  21
  -1   5   7 1827.66 144.764  13
   1   5  -7 1777.62 137.838  33
   1  -5  -7 1767.36 134.705  36
  -1  -5   7 1669.71 127.713  13
   1  -5  -7 1982.85 219.865  35
   1  -5  -7 1577.19 128.569  29
  -1  -5   7 1755.85 132.071  19
   1  -5  -7 1980.19 185.058  11
   1  -5  -7 1883.78 186.941  18
   1   5  -7 1602.96 131.603  31
   1   5  -7 1934.55 123.879  18
   1  -5  -7 1944.47 159.767  40
  -1  -5   7 1805.70 147.425   9
   1  -5  -7 1715.31 153.989  51
   1  -5  -7 1818.87 134.230  52
   1  -5  -7 1867.73 174.090   8
   1  -5  -7 1627.51 147.756  22
   1  -5  -7 2098.85 145.573  15
  -1   5   7 1789.12 137.954  24
  -1  -5   7 2125.57 136.459  55
   1  -5  -6 434.129 67.1033  15
  -1  -5   6 551.401 62.8438  13
  -1   5   6 490.804 63.7175  14
  -1  -5   6 453.697 69.8063  14
  -1   5   6 574.276 79.4213  13
   1  -5  -6 564.841 125.147  22
  -1   5   6 653.038 80.6078  56
   1   5  -6 548.119 68.9804  21
   1   5  -6 522.656 81.6512  25
  -1   5   6 424.492 71.7626  20
  -1  -5   6 646.428 81.2005  19
  -1  -5   6 308.639 71.1206   9
   1   5  -6 556.527 61.0033  18
   1   5  -6 437.998 61.7483  12
   1  -5  -6 848.152 169.628   8
   1  -5  -6 644.048 111.649  18
   1  -5  -6 535.016 57.6385  17
   1  -5  -6 574.350 165.675  11
  -1  -5   6 643.874 85.5134  23
   1   5  -5 2131.67 141.261  16
   1  -5  -5 1380.44 249.435   8
  -1   5   5 1894.85 132.270  14
   1  -5  -5 1686.41 229.384  22
  -1  -5   5 1770.47 135.494  14
   1   5  -5 2320.79 139.753  21
  -1   5   5 1950.04 144.558  13
  -1  -5   5 2049.75 145.635  17
  -1  -5   5 1676.33 146.528   9
  -1  -5   5 2367.93 158.465  19
  -1   5   5 1996.46 144.921  20
   1   5  -5 2039.68 126.832  18
   1   5  -5 2189.31 154.694  25
   1  -5  -5 1752.84 163.035  19
   1  -5  -5 2245.26 174.088  18
  -1   5   5 2262.55 149.014  56
  -1  -5   5 2060.08 131.357  13
   1  -5  -5 2089.92 135.721  15
   1  -5  -5 1962.09 172.623  17
   1   5  -4 366.636 65.0185  10
   1  -5  -4 372.464 53.2586  15
   1   5  -4 548.761 56.6480  18
   1   5  -4 472.741 65.1630  16
  -1  -5   4 405.212 59.1456  14
   1   5  -4 526.821 69.2952  21
  -1   5   4 595.492 74.5554  20
  -1   5   4 436.393 68.3260  13
  -1  -5   4 462.502 83.0107  19
  -1  -5   4 417.734 71.6845   9
   1  -5  -4 560.843 90.6632  18
   1  -5  -4 435.271 153.577  19
  -1   5   4 610.924 73.9326  56
   1   5  -4 614.114 78.9457  25
  -1  -5   4 573.563 80.6391  17
   1  -5  -4 494.505 167.380  17
   1  -5  -4 306.660 205.964  11
   1   5  -3 4090.54 222.015  25
   1  -5  -3 2909.04 284.290   8
   1  -5  -3 3223.16 293.072  22
   1  -5  -3 2963.37 173.012   2
  -1  -5   3 3296.69 183.845  14
  -1  -5   3 3700.03 200.128  23
   1   5  -3 3762.46 198.339  21
  -1   5   3 3184.20 197.482  20
  -1  -5   3 3548.10 214.282  19
   1  -5  -3 3304.72 239.163  19
   1  -5  -3 3111.36 202.529  18
   1  -5  -3 3320.77 256.125  17
  -1   5   3 3583.61 186.652  25
  -1   5   3 3410.07 201.921  56
   1   5  -3 3338.10 194.503  16
   1  -5  -3 3702.06 302.666  11
  -1   5   3 2847.83 179.459  10
   1   5  -3 3506.32 203.460  10
  -1  -5   3 3388.04 209.176  17
  -1   5   3 3170.74 198.047  13
   1  -5  -3 2858.59 177.607  15
  -1  -5   2 253.370 32.1938  14
  -1   5   2 274.216 61.4704  24
   1  -5  -2 286.219 129.479   8
   1   5  -2 218.065 36.8405   4
  -1  -5   2 250.019 46.0421  23
   1   5  -2 310.711 60.2414  10
  -1   5   2 153.436 36.6753  10
   1  -5  -2 179.825 123.790  22
   1   5  -2 295.640 48.1559  24
  -1   5   2 156.552 53.2856  13
   1  -5  -2 204.388 30.4273   2
  -1   5   2 195.773 56.6491  20
  -1  -5   2 239.853 51.3116   9
  -1  -5   2 221.293 68.0276  19
   1  -5  -2 174.981 56.2947  18
  -1   5   2 188.565 57.8305  56
   1  -5  -2 327.347 136.421  11
  -1  -5   2 304.036 77.3932  17
  -1  -5   2 310.210 50.8688   2
  -1  -5   1 642.109 80.8438  17
   1   5  -1 472.857 41.0230   1
  -1   5   1 665.126 79.9911  20
  -1   5   1 638.286 76.4724  24
  -1  -5   1 487.656 47.6374  23
  -1  -5   1 468.017 32.1308  14
   1  -5  -1 583.695 114.755   8
  -1  -5   1 418.093 59.2187   2
  -1   5   1 542.987 52.3935  25
  -1   5   1 533.143 53.4004  10
   1  -5  -1 500.192 45.2110   2
  -1  -5   1 497.626 74.0657  19
   1  -5  -1 487.707 59.2314  18
   1  -5  -1 410.669 99.3914  17
   1  -5  -1 669.974 124.085  11
   1  -5  -1 668.640 114.593  22
  -1   5   1 455.700 72.7857  56
  -1   5   1 520.352 57.4785   1
   1   5  -1 520.719 56.6405  24
   1   5  -1 522.677 69.4767  10
  -1  -5   1 515.834 52.3411   9
   1  -5   0 37.2988 82.9253  11
  -1   5   0 52.3449 57.8755  24
   1   5   0 123.092 33.9388   1
   1   5   0 95.3549 53.6304  25
  -1   5   0 100.401 37.8043  10
  -1  -5   0 107.844 25.1875  23
   1   5   0 93.7314 47.5626  10
   1  -5   0 94.6625 86.4813  22
   1   5   0 94.2619 38.8445  24
  -1  -5   0 53.6255 36.6213   2
  -1  -5   0 139.001 59.1472  17
   1  -5   0 132.848 78.3029  17
  -1   5   0 34.2943 61.5630  56
   1   5   0 50.6040 32.0297  56
  -1  -5   0 100.284 27.5245   9
  -1   5   0 59.4212 39.7202   1
  -1   5   0 82.2881 37.7866  25
   1  -5   0 148.668 89.5891   8
   1  -5   1 19.0904 75.7025  11
   1   5   1 18.8853 41.8713  25
   1   5   1 18.8687 30.1943  56
   1   5   1 16.8643 31.6866  24
   1  -5   1-5.02173 74.5981   8
   1   5   1 25.9285 37.5618  10
   1  -5   1-5.46117 81.8903  22
  -1   5  -1-5.38640 63.4498  24
   1  -5   1-33.6567 87.4853  17
  -1  -5  -1 20.4534 35.2869   2
  -1  -5  -1 14.0076 39.1844  19
   1   5   1 3.41871 38.6652   1
  -1  -5  -1 13.0883 30.1516  12
  -1   5  -1-6.25189 40.7227  10
  -1   5  -1 11.2686 33.1891   1
  -1   5  -1 19.4870 40.6089  25
   1  -5   1 27.1153 62.1543   5
   1  -5   2 41.7951 71.9810  11
  -1  -5  -2 70.4641 37.7710  19
   1   5   2 104.834 35.8799  24
   1   5   2 76.8829 33.7983  56
   1  -5   2 14.9341 72.1587   8
   1   5   2 31.2190 37.1845  10
   1  -5   2 11.0523 74.3061  22
  -1   5  -2 12.3468 46.6272  25
   1  -5   2 51.2389 86.7006  17
   1   5   2 41.5170 28.1107  20
  -1  -5  -2 79.1447 38.2403   2
   1  -5   2 7.35498 93.2161  19
  -1  -5  -2 90.3021 41.0179  12
  -1   5  -2 54.4690 64.7507  16
   1  -5   3 911.233 107.474  11
   1  -5   3 1197.49 124.796  22
   1  -5   3 1104.74 119.356   8
  -1  -5  -3 1322.26 100.237   2
   1  -5   3 1161.18 144.339  17
   1   5   3 1029.64 85.3623  24
   1   5   3 1197.60 80.5516  20
   1   5   3 1170.45 92.9424   2
  -1   5  -3 1053.58 81.6086  12
  -1  -5  -3 994.546 87.0047  12
   1  -5   3 843.687 147.288  19
   1   5   3 911.740 81.7832  56
  -1   5  -3 899.823 112.236  16
   1   5   4 1079.94 84.2553  20
   1   5   4 990.835 89.4233  56
  -1  -5  -4 1340.40 116.824  15
   1  -5   4 806.694 135.584  17
  -1   5  -4 1034.40 118.627  16
  -1   5  -4 975.469 81.9269  12
  -1  -5  -4 854.190 89.8958  12
   1  -5   4 781.829 154.811  19
  -1  -5  -4 1049.35 99.8757   2
   1  -5   4 889.678 143.237   5
   1   5   4 1072.15 90.5062  24
   1   5   4 1283.54 98.1673   2
  -1  -5  -5 1015.66 104.593  15
   1  -5   5 484.329 120.484   5
  -1   5  -5 654.622 78.0087  15
   1   5   5 880.374 83.4723  24
   1   5   5 854.713 75.4223  20
   1   5   5 739.236 80.0125  56
  -1   5  -5 913.874 108.799  16
  -1   5  -5 708.973 70.2412  12
   1  -5   5 383.117 122.129  19
   1  -5   5 758.412 113.662   9
  -1  -5  -5 679.657 89.3094  12
   1  -5   5 576.554 115.014  17
   1   5   5 879.773 72.5426  13
  -1   5  -6 220.124 79.3684  16
  -1  -5  -6 223.564 72.4678  15
  -1   5  -6 188.933 61.6844  46
  -1  -5  -6 143.496 73.5792  12
   1   5   6 181.806 56.4216  24
  -1  -5  -6 197.386 103.298  40
  -1  -5  -6 263.402 61.4379  52
  -1   5  -6 236.911 72.1919  39
  -1   5  -6 220.727 68.8266  38
  -1   5  -6 245.887 64.7945  37
  -1  -5  -6 132.001 68.7211  36
  -1   5  -6 130.342 47.0263  12
  -1   5  -6 113.906 59.1153  33
  -1   5  -6 213.192 62.7355  15
   1   5   6 172.973 45.8355  13
   1   5   6 207.547 51.2779  20
   1   5   6 142.429 57.3342  56
   1  -5   6 135.630 79.3528  19
  -1   5  -6 120.112 54.6981  31
   1  -5   6 211.335 77.0202   9
  -1  -5  -6 123.564 84.5494  51
  -1  -5  -6 283.963 61.0889  30
  -1  -5  -7 419.713 100.058  12
  -1  -5  -7 572.880 129.369  40
   1   5   7 386.284 73.5647  24
  -1   5  -7 596.827 79.9694  37
   1  -5   7 464.926 84.6660   9
  -1   5  -7 636.565 98.1605  39
  -1   5  -7 524.685 88.1250  33
  -1  -5  -7 400.586 81.5235  36
  -1  -5  -7 692.458 136.178  35
   1   5   7 485.352 67.5874  13
   1   5   7 594.071 74.4075  20
  -1  -5  -7 459.893 91.6112  15
  -1   5  -7 470.671 64.0949  12
  -1  -5  -7 476.293 65.8050  30
  -1   5  -7 579.975 96.3440  16
   1   5   7 597.989 87.4415  56
  -1  -5  -7 560.478 80.3257  52
  -1   5  -7 551.307 85.5859  15
  -1   5  -7 612.405 82.0282  46
  -1  -5  -7 373.510 113.402  51
  -1   5  -8 124.811 75.4925  16
  -1  -5  -8-9.29179 75.0431  15
  -1   5  -8-28.7915 63.1402  15
  -1  -5  -8-51.7690 110.165  40
  -1   5  -8-48.5444 77.5963  39
  -1   5  -8 77.2149 65.5712  37
   1   5   8 90.5017 67.2975  56
  -1  -5  -8-23.9947 74.8129  36
  -1  -5  -8 63.2816 107.774  35
   1   5   8 24.4685 45.8066  13
   1   5   8 59.3702 53.6297  20
   1  -5   8 84.6334 61.7460  14
  -1   5  -8 45.4389 68.5605  33
   1  -5   8 99.4424 59.5401   9
  -1   5  -8 9.07621 42.9485  12
  -1  -5  -8 32.1134 91.2965  12
  -1  -5  -8-5.61459 68.6957  52
   1   5   8 30.8655 60.2971  24
  -1  -5  -8-9.65798 119.783  51
   1  -5   8 23.2789 63.0758  23
  -1   5  -8 110.490 65.6522  46
  -1  -5  -9 113.177 79.8448  15
  -1   5  -9 80.2030 93.3512  41
   1   5   9-51.2023 63.4184  24
  -1   5  -9 43.4361 56.5887  15
  -1  -5  -9 32.6787 111.306  40
  -1  -5  -9 59.2086 102.728  12
  -1   5  -9-8.74524 77.9570  39
  -1   5  -9 134.106 73.7017  37
  -1  -5  -9 32.8258 81.6655  36
  -1  -5  -9 65.9894 97.7689  35
   1   5   9 7.32664 53.2089  20
  -1  -5  -9 11.2258 141.109  51
  -1   5  -9-41.0441 73.1789  33
  -1  -5  -9 129.024 86.9084  32
   1  -5   9 77.8739 53.8053   9
   1   5   9 28.1699 67.6294  56
  -1   5  -9 143.403 76.8342  16
   1  -5   9 47.9646 57.1212  14
  -1  -5  -9 43.6498 74.5793  52
   1  -5   9 94.6450 66.1213  23
  -1   5  -9 7.01829 65.4693  46
  -1   5 -10 90.5387 77.8385  33
  -1   5 -10-42.7852 72.5962  46
  -1  -5 -10 87.1927 86.8674  15
  -1  -5 -10 34.9316 93.8718  40
  -1  -5 -10 47.8727 143.500  51
  -1   5 -10-11.6293 68.0779  37
  -1  -5 -10 116.540 86.8436  36
  -1  -5 -10 35.7064 90.9364  35
   1   5  10 61.3988 58.7059  20
   1  -5  10 6.81783 50.6387   9
  -1   5 -10-77.4710 74.3531  16
  -1  -5 -10 58.4804 96.8293  12
   1   5  10-132.158 81.0249  56
   1  -5  10-7.83278 60.7638  23
   1  -5  10 7.99741 52.2154  14
  -1   5 -10-15.9858 100.194  41
   1   5  10 36.0428 64.8658  24
  -1  -5 -10 13.1551 80.2299  52
  -1  -5 -11 68.6231 145.295  51
  -1  -5 -11 51.0942 78.3981  52
   1  -5  11 35.9650 58.5294  23
  -1   5 -11 82.3874 92.9330  41
   1  -5  11 136.751 55.6497  14
  -1   5 -11 107.330 68.0517  37
  -1  -5 -11-6.58518 87.5048  36
  -1  -5 -11 45.8261 73.0066  35
   1   5  11 59.8087 54.3363  20
  -1   5 -11 21.0258 64.5466  16
  -1  -5 -11 150.141 94.0919  12
   1   5  11 30.6830 76.0251  56
   1   5  11 52.5066 61.0070  24
  -1   5 -11 60.2531 68.2247  46
  -1   5 -12 218.112 93.4816  41
  -1   5 -12 174.087 61.1637  37
  -1  -5 -12 114.166 78.8594  36
  -1  -5 -12 172.847 75.2504  32
   1   5  12 74.2064 67.5798  56
  -1   5 -12 97.7141 75.0178  52
   1   5  12 77.3398 59.0424  24
  -1   5 -13 43.2867 68.4825  41
  -1   5 -13 177.625 58.9478  52
  -1   5 -13 12.3988 39.9871  36
  -1  -5 -13 97.3091 49.4643  32
  -1  -5 -13 73.1084 65.7541  36
   1   6 -14 4428.84 265.344  44
   1  -6 -14 4166.55 250.675  40
   1  -6 -14 4694.22 291.021  51
   1   6 -14 5006.03 256.083  41
   1  -6 -14 4992.60 266.040  36
  -1  -6  14 4529.01 236.773  34
   1  -6 -14 4315.52 236.076  32
   1  -6 -14 4127.98 242.670  35
  -1   6  14 5060.40 261.480  45
   1   6 -14 4795.00 257.756  52
   1  -6 -13 3876.65 281.827  51
   1  -6 -13 4311.08 252.251  35
  -1   6  13 4278.28 242.443  45
   1  -6 -13 4237.13 255.399  40
   1   6 -13 3696.06 212.540  29
  -1  -6  13 3912.48 219.945  34
   1   6 -13 3693.45 247.640  33
   1   6 -13 4067.31 244.635  52
   1   6 -13 3962.89 253.643  44
   1  -6 -13 4186.76 251.826  36
  -1   6  12 9773.86 483.322  45
   1   6 -12 8730.82 489.384  44
  -1   6  12 8355.44 518.828  56
  -1  -6  12 8570.10 484.136  23
  -1   6  12 8891.40 505.687  24
   1  -6 -12 8860.16 500.628  40
  -1   6  12 8341.35 503.780  13
   1  -6 -12 8199.15 484.460  36
   1  -6 -12 8925.79 502.496  35
  -1   6  12 8314.60 499.656  20
  -1  -6  12 9483.40 461.944  34
   1   6 -12 8439.24 490.802  33
   1  -6 -12 9983.37 545.714  12
   1  -6 -12 8375.64 517.702  51
   1   6 -12 8587.91 454.402  29
  -1  -6  12 8585.06 453.782  27
  -1  -6  11 8895.16 500.316  23
   1  -6 -11 8967.06 497.507  36
  -1  -6  11 8672.81 493.787  14
   1  -6 -11 9242.25 517.663  40
  -1  -6  11 8879.70 492.450   9
  -1   6  11 9589.66 521.250  13
   1  -6 -11 9286.88 528.155  35
  -1   6  11 9175.87 515.989  24
  -1   6  11 8876.63 513.071  20
  -1  -6  11 9112.91 473.627  34
   1   6 -11 8739.92 503.697  33
   1  -6 -11 10543.5 582.649  12
  -1   6  11 9510.68 489.592  45
   1  -6 -11 8624.51 500.759  52
   1  -6 -11 8787.30 532.149  51
   1   6 -11 9258.96 503.488  44
  -1  -6  11 8650.51 469.714  27
   1   6 -11 8728.75 468.250  29
   1  -6 -11 8034.32 499.411  29
   1   6 -10 2195.29 180.260  46
   1  -6 -10 2431.80 185.854  15
   1  -6 -10 1883.79 172.785  29
  -1  -6  10 1914.52 144.050  13
  -1  -6  10 2096.48 164.519  14
  -1   6  10 2009.68 179.147  13
  -1  -6  10 2506.96 170.944   9
   1  -6 -10 2087.25 176.563  52
   1  -6 -10 1981.38 173.303  36
  -1   6  10 2044.62 176.934  20
   1   6 -10 2050.05 170.825  33
   1  -6 -10 2211.13 206.806  51
  -1  -6  10 2489.24 180.166  23
   1   6 -10 2203.01 147.603  29
   1   6 -10 2200.81 173.835  44
   1  -6 -10 2536.59 253.502  12
  -1  -6  10 2398.60 151.641  27
  -1   6  10 2293.38 181.816  24
   1  -6  -9 18327.4 923.604  51
   1   6  -9 16113.8 901.538  46
  -1  -6   9 17694.1 907.426  23
  -1   6   9 18713.0 918.013  13
   1   6  -9 17782.4 897.467  44
   1  -6  -9 16692.4 912.757  40
  -1  -6   9 16026.0 871.616  55
  -1  -6   9 17712.3 901.317   9
   1  -6  -9 17235.5 892.547  36
  -1  -6   9 15763.1 873.795  13
   1  -6  -9 16594.4 881.837  30
   1   6  -9 17771.9 901.873  33
   1  -6  -9 17308.2 894.264  29
  -1   6   9 17821.7 910.311  24
   1  -6  -9 17648.6 896.873  52
  -1   6   9 18594.7 914.438  20
  -1  -6   9 16529.8 894.216  14
   1  -6  -9 20739.4 919.759  15
  -1   6   8 23304.0 1191.53  24
  -1  -6   8 22749.5 1187.69  23
   1   6  -8 24778.4 1180.13  44
  -1  -6   8 21678.2 1176.67  14
   1  -6  -8 23487.8 1180.03  22
   1  -6  -8 22721.9 1194.81  40
   1   6  -8 22907.2 1170.55  21
  -1  -6   8 23346.1 1164.42  55
   1  -6  -8 22581.4 1181.00  30
  -1  -6   8 24522.4 1190.87   9
   1  -6  -8 22967.8 1193.94  51
   1  -6  -8 22539.8 1174.48  36
  -1   6   8 23974.3 1195.75  20
   1  -6  -8 24996.1 1240.01  35
   1  -6  -8 25816.9 1194.34  15
  -1   6   8 24368.4 1199.80  13
   1  -6  -8 21372.7 1173.46  29
   1   6  -8 25002.3 1189.44  33
   1  -6  -8 24685.6 1207.22  11
  -1  -6   8 21518.0 1160.81  13
  -1   6   8 23843.0 1202.25  56
   1  -6  -8 22955.1 1176.27  52
   1   6  -8 23184.7 1192.06  46
   1   6  -7 12860.0 627.169  44
   1   6  -7 11970.5 637.166  46
   1  -6  -7 13909.7 638.351  15
  -1   6   7 12474.3 641.449  20
   1  -6  -7 11162.5 642.601  30
  -1  -6   7 12335.0 617.580  55
  -1  -6   7 12265.3 636.734  23
  -1  -6   7 11474.3 623.591  14
   1  -6  -7 11650.3 639.627  40
   1  -6  -7 12576.8 645.817  22
   1  -6  -7 10896.0 617.191  29
  -1  -6   7 11850.2 614.025  47
  -1  -6   7 11514.8 610.149  13
   1  -6  -7 11124.2 633.202  51
  -1   6   7 12648.4 643.520  13
   1  -6  -7 12106.3 668.148  11
  -1  -6   7 11909.9 634.878   9
   1  -6  -7 11446.7 618.846  36
   1  -6  -7 11825.3 682.450  35
   1   6  -7 13071.9 656.969  25
  -1   6   7 12630.6 647.054  56
  -1  -6   7 11705.0 623.014  19
   1   6  -7 12581.5 630.411  33
   1   6  -7 10670.8 618.744  31
   1  -6  -7 12174.5 663.755   8
   1   6  -7 11771.1 618.107  21
   1  -6  -7 10941.4 617.859  52
   1  -6  -6 19298.2 919.588  15
  -1   6   6 19206.9 906.673  45
   1  -6  -6 17309.8 952.515  30
  -1  -6   6 19869.5 915.347  47
   1  -6  -6 19143.3 978.783  35
  -1  -6   6 17580.7 914.223  14
   1  -6  -6 16870.0 921.625  40
   1  -6  -6 18696.6 957.883  22
  -1   6   6 19012.2 931.628  13
   1  -6  -6 20432.4 989.538   8
  -1  -6   6 18417.1 909.465  55
   1  -6  -6 17195.2 906.349  36
  -1  -6   6 18171.1 926.686   9
   1   6  -6 17450.7 908.108  21
   1  -6  -6 15544.6 903.938  29
  -1  -6   6 19859.1 926.817  19
   1   6  -6 19950.8 922.563  33
   1   6  -6 17170.1 910.947  31
  -1   6   6 18092.3 928.812  20
   1  -6  -6 15697.0 895.467  17
   1  -6  -6 18868.4 986.953  11
   1   6  -6 18753.9 940.168  25
  -1  -6   6 17557.4 901.763  13
   1   6  -6 18561.2 926.814  46
  -1   6   6 18864.7 933.968  56
   1   6  -5 19069.2 933.759  25
  -1  -6   5 16819.7 921.747   9
  -1   6   5 18193.0 926.217  20
   1  -6  -5 19920.8 993.083  22
  -1  -6   5 16394.9 907.655  14
   1   6  -5 18320.1 908.832  21
  -1   6   5 18958.8 927.389  13
  -1  -6   5 19120.2 920.648  17
   1  -6  -5 14715.8 904.596  19
  -1  -6   5 18331.4 899.611  13
  -1  -6   5 19846.1 931.113  19
   1   6  -5 18761.1 897.005  18
  -1   6   5 19125.5 931.130  56
   1  -6  -5 17777.6 923.105  17
   1  -6  -5 17846.8 908.694  15
  -1   6   5 18515.4 900.710  25
   1   6  -4 16123.7 833.899  25
   1  -6  -4 15253.7 805.886  15
   1   6  -4 15110.1 831.342  10
  -1   6   4 15748.3 825.260  20
  -1  -6   4 14814.3 819.689  23
   1   6  -4 15663.1 819.673  16
  -1   6   4 18800.1 812.067  25
  -1   6   4 15698.2 809.136  10
  -1  -6   4 15068.3 807.621  14
  -1   6   4 16048.3 824.871  13
   1   6  -4 15640.5 811.183  21
  -1   6   4 17538.5 832.917  56
  -1  -6   4 16864.1 834.576  19
   1  -6  -4 16664.8 870.484  17
   1   6  -4 16251.4 803.298  18
   1  -6  -4 15485.4 831.402  18
   1  -6  -4 15923.0 917.990   8
  -1  -6   4 17234.0 831.452  17
   1  -6  -4 15418.7 923.404  11
   1  -6  -4 17303.0 872.580  19
  -1   6   3 13215.3 648.176  13
  -1   6   3 12723.4 630.149  10
  -1  -6   3 11914.8 636.723  23
   1  -6  -3 9879.06 720.156  11
   1  -6  -3 12802.6 745.744  22
  -1  -6   3 13167.5 656.883  17
   1  -6  -3 9137.29 693.969  19
  -1   6   3 14002.4 654.238  24
   1   6  -3 13720.4 638.353  21
  -1  -6   3 11606.7 640.068   9
  -1   6   3 12877.0 646.555  20
  -1   6   3 13533.9 652.122  56
   1   6  -3 12876.2 652.176  10
  -1  -6   3 10999.4 651.473  19
  -1  -6   3 11542.0 622.522  14
   1  -6  -3 12709.2 647.016  18
   1  -6  -3 11535.6 711.240  17
   1  -6  -3 10833.3 736.242   8
   1   6  -3 11487.6 639.647  16
   1   6  -3 15240.0 670.039  25
   1   6  -2 64397.0 3117.55  24
   1   6  -2 61808.0 3100.89   4
  -1   6   2 63877.3 3132.58  24
   1   6  -2 71253.6 3135.96  10
  -1  -6   2 61659.7 3096.55  14
   1  -6  -2 58063.2 3193.85  22
  -1   6   2 64185.1 3129.23  13
  -1  -6   2 70008.6 3123.25   9
  -1   6   2 66602.3 3130.74  20
  -1  -6   2 55447.6 3127.87  19
   1  -6  -2 53547.6 3171.48  19
   1  -6  -2 61926.1 3191.57  11
   1  -6  -2 58125.6 3115.90  18
  -1  -6   2 70274.3 3115.63  23
  -1   6   2 69478.9 3134.42  56
  -1   6   2 64223.5 3113.28  10
   1  -6  -2 65477.6 3200.43   8
  -1  -6   2 57496.5 3129.66  17
  -1  -6   2 69884.1 3133.37   2
  -1   6   2 68208.0 3115.49  25
  -1   6   1 16240.6 886.631  25
   1   6  -1 19270.5 898.411  24
   1   6  -1 20382.3 916.995  10
   1  -6  -1 17852.2 958.311  17
  -1   6   1 17639.7 892.768   1
  -1   6   1 19993.7 917.976  20
   1  -6  -1 17935.0 967.445  22
  -1  -6   1 21182.3 919.427  19
  -1  -6   1 19525.8 911.662   2
  -1  -6   1 17177.0 883.375  23
   1   6  -1 16784.3 873.016   1
   1  -6  -1 19118.5 967.750  11
  -1   6   1 18368.7 914.661  56
  -1  -6   1 20368.9 893.754   9
   1  -6  -1 18512.0 963.172   8
  -1   6   1 19355.3 915.637  24
  -1   6   1 17359.5 893.248  10
   1  -6  -1 15545.4 885.635   2
  -1  -6   1 17427.6 912.814  17
  -1   6   0 20390.3 984.012  24
  -1   6   0 20070.4 986.514  56
  -1  -6   0 18478.3 942.528  23
   1  -6   0 17186.9 1012.06  19
   1   6   0 21533.8 989.295  25
  -1  -6   0 20295.4 996.224  22
   1  -6   0 20226.5 1025.04  22
   1  -6   0 18978.9 1018.65  17
  -1  -6   0 19190.0 948.650   9
  -1   6   0 18617.3 956.260   1
   1  -6   0 21520.1 974.070   5
   1   6   0 18506.8 949.717   1
  -1   6   0 17752.3 959.161  10
   1   6   0 20889.5 978.576  10
   1   6   0 20626.3 964.643  24
   1   6   0 19406.0 957.156  56
   1  -6   0 19318.1 1018.06   8
  -1  -6   0 22335.1 982.899  17
  -1   6   0 16587.5 953.843  25
   1  -6   0 18915.9 1011.43  11
  -1  -6   0 21207.0 979.099   2
   1  -6   1 27231.5 1388.23  22
  -1   6  -1 26009.5 1336.61  10
   1   6   1 27556.6 1347.57  10
   1   6   1 23224.9 1330.05   1
  -1   6  -1 25193.4 1335.57  25
  -1  -6  -1 24390.0 1363.72  22
   1   6   1 32472.6 1357.94  25
  -1  -6  -1 28583.9 1339.08  19
   1  -6   1 24838.0 1395.25  19
   1   6   1 27690.8 1332.46  56
   1  -6   1 30424.5 1364.32   5
   1  -6   1 26815.1 1389.72  17
   1  -6   1 27304.3 1379.75  11
   1  -6   1 24972.9 1378.16   8
  -1   6  -1 27948.0 1362.48  24
  -1   6  -1 26653.7 1329.85   1
  -1  -6  -1 28835.9 1352.29   2
   1   6   1 28746.3 1339.77  24
   1   6   2 22700.2 1108.01  24
  -1   6  -2 23286.5 1144.80  16
  -1  -6  -2 22827.3 1121.05   2
   1   6   2 23596.3 1118.67  10
  -1  -6  -2 22048.1 1105.45  17
  -1  -6  -2 21210.1 1098.87  19
   1  -6   2 24045.5 1150.48   5
   1  -6   2 21394.4 1164.43  17
   1  -6   2 21724.2 1152.53  22
   1  -6   2 19146.8 1163.08  19
   1  -6   2 20201.6 1139.64   8
   1  -6   2 20400.6 1137.12  11
   1   6   2 23439.9 1104.81  56
  -1   6  -2 22800.9 1115.01  25
   1  -6   3 16504.8 1103.24   8
   1   6   3 25687.0 1094.21  24
  -1   6  -3 24950.9 1137.56  16
  -1  -6  -3 24763.6 1108.79   2
   1   6   3 24124.3 1103.84  10
   1  -6   3 19497.1 1120.61  22
   1  -6   3 17946.3 1139.23  19
  -1  -6  -3 22580.0 1080.40  12
   1   6   3 23421.5 1086.81  56
  -1   6  -3 23772.1 1105.77  25
   1  -6   3 19403.8 1137.18  17
   1  -6   3 15539.2 1095.76  11
  -1   6  -4 16383.1 809.121  16
   1   6   4 15501.8 760.017  20
   1   6   4 16163.2 773.276  24
   1  -6   4 14091.0 807.672   9
   1  -6   4 14255.2 821.423  19
  -1  -6  -4 13526.2 759.193  12
   1   6   4 15832.2 769.104  56
   1  -6   4 13975.6 809.039  17
   1   6   5 9784.59 487.097  24
  -1   6  -5 8677.38 474.883  15
  -1   6  -5 9038.66 486.618  42
  -1  -6  -5 8338.46 500.076  35
  -1   6  -5 8698.00 482.572  38
  -1  -6  -5 9526.51 479.760  36
   1   6   5 9422.38 474.312  20
   1  -6   5 9364.02 517.782   9
  -1   6  -5 8474.13 456.103  12
   1  -6   5 9646.16 520.336  19
  -1  -6  -5 9412.26 495.397  51
  -1  -6  -5 7891.92 473.776  12
  -1   6  -5 8768.87 473.721  31
   1  -6   5 8723.78 501.226  17
   1   6   5 8714.33 480.890  56
  -1  -6  -5 9019.98 480.225  30
  -1   6  -5 10137.1 520.813  16
  -1  -6  -6 26531.3 1421.26  35
   1   6   6 28289.1 1388.17  20
  -1   6  -6 26527.1 1392.69  38
   1   6   6 27094.5 1398.54  56
  -1  -6  -6 29183.0 1390.75  36
  -1  -6  -6 26273.7 1380.28  30
   1  -6   6 29835.8 1422.16   9
   1   6   6 29408.4 1401.21  24
  -1   6  -6 27986.8 1392.28  33
   1  -6   6 29259.1 1405.52  19
  -1   6  -6 28436.4 1404.52  39
  -1  -6  -6 25524.8 1393.29  12
  -1   6  -6 27866.3 1387.42  31
  -1  -6  -6 25294.6 1404.34  51
  -1   6  -6 27915.7 1389.99  15
  -1   6  -6 30007.6 1429.12  16
  -1   6  -7 8288.78 445.337  15
   1  -6   7 7805.26 458.270  23
  -1  -6  -7 6957.75 468.358  40
  -1   6  -7 8149.12 462.415  39
  -1   6  -7 7382.33 447.645  38
   1   6   7 8369.78 457.238  24
  -1   6  -7 8642.04 439.107  37
  -1  -6  -7 8398.03 447.077  36
   1   6   7 8162.01 443.185  20
   1  -6   7 9205.17 466.245   9
  -1   6  -7 8233.60 452.073  33
  -1  -6  -7 7474.00 457.827  12
  -1   6  -7 7492.41 438.786  31
  -1  -6  -7 7246.60 427.393  30
  -1  -6  -7 10555.9 491.685  15
  -1  -6  -7 7907.34 473.283  51
   1   6   7 7403.42 451.464  56
  -1   6  -7 8614.18 480.760  16
   1  -6   8 7954.85 443.258  14
  -1   6  -8 7177.63 428.176  15
   1   6   8 7861.70 446.118  24
   1  -6   8 7989.54 448.817  23
  -1  -6  -8 7659.04 471.437  40
  -1   6  -8 8132.74 456.622  39
  -1   6  -8 7498.49 423.301  37
   1   6   8 7926.26 435.696  20
   1  -6   8 8244.85 442.916   9
  -1   6  -8 8217.52 448.346  33
  -1  -6  -8 7357.66 460.375  12
   1   6   8 6497.06 441.954  56
  -1  -6  -8 7188.28 412.252  30
  -1   6  -8 8239.06 471.172  16
  -1  -6  -8 7529.06 476.548  51
  -1   6  -9 8004.39 460.113  46
   1  -6   9 7987.84 461.413  14
   1   6   9 8297.05 473.175  24
  -1  -6  -9 7725.04 508.099  51
   1  -6   9 7902.05 466.608  23
  -1   6  -9 8846.77 474.485  41
  -1  -6  -9 9193.47 497.160  40
  -1  -6  -9 9238.84 500.064  35
   1   6   9 8686.75 462.434  20
   1  -6   9 8846.74 464.345   9
  -1   6  -9 7952.12 468.504  33
  -1  -6  -9 7682.32 485.974  12
  -1  -6  -9 8204.34 463.837  32
   1   6   9 6864.19 470.572  56
  -1   6  -9 7645.71 476.211  39
  -1   6  -9 8874.36 497.423  16
  -1   6  -9 7631.85 445.275  37
   1   6  10 6002.82 363.346  20
   1  -6  10 6840.51 375.204  23
  -1   6 -10 6572.56 372.509  41
  -1  -6 -10 5713.85 377.107  40
   1  -6  10 6772.22 370.683  14
  -1   6 -10 5810.48 349.329  37
   1  -6  10 6422.89 362.385   9
  -1  -6 -10 6515.55 383.817  35
   1   6  10 6339.29 379.413  24
  -1   6 -10 6129.49 373.231  33
  -1  -6 -10 6733.97 401.945  12
  -1  -6 -10 5583.73 361.479  32
   1   6  10 4999.29 377.531  56
  -1   6 -10 6473.16 396.901  16
  -1  -6 -10 5955.79 423.766  51
  -1   6 -10 6387.66 368.590  46
   1  -6  11 4428.63 280.670  23
  -1   6 -11 4570.59 289.998  41
   1  -6  11 4668.70 280.292  14
  -1   6 -11 4251.86 262.160  37
   1  -6  11 4798.85 276.585  13
   1   6  11 4490.87 290.568  24
   1   6  11 3711.81 291.955  56
  -1   6 -11 4653.29 282.857  46
  -1  -6 -11 4510.26 282.196  35
  -1   6 -11 4619.19 305.421  16
   1   6  12 6152.51 357.843  24
  -1   6 -12 7008.30 356.343  41
  -1   6 -12 5568.66 323.665  37
  -1  -6 -12 5862.84 345.289  36
  -1   6 -12 6011.80 339.745  52
  -1  -6 -13 4301.52 243.809  36
  -1  -6 -13 4583.93 234.995  32
  -1   6 -13 5081.07 252.736  41
  -1   6 -13 4659.38 238.699  52
  -1   7  14 492.795 61.5623  45
   1   7 -14 569.461 63.9289  44
   1  -7 -14 397.134 93.3461  51
   1   7 -14 500.553 61.7533  41
   1  -7 -14 546.932 73.8848  36
   1  -7 -14 470.146 55.2012  35
  -1  -7  14 488.696 42.8339  34
   1  -7 -14 519.911 46.7389  32
  -1  -7  14 438.761 47.9417  50
   1   7 -14 479.099 63.1535  52
   1  -7 -14 444.076 63.8103  40
  -1   7  14 431.446 55.0745  38
  -1   7  13 218.493 60.0037  45
  -1  -7  13 247.061 44.2101  34
   1  -7 -13 318.385 77.6400  36
   1  -7 -13 248.146 82.1968  35
   1   7 -13 167.603 64.6989  44
   1   7 -13 171.428 66.1693  33
   1  -7 -13 269.765 92.5646  40
   1   7 -13 300.723 68.7715  52
   1  -7 -13 268.065 110.372  51
   1  -7 -12 970.644 151.549  51
  -1   7  12 758.308 92.1408  45
  -1   7  12 633.229 106.104  24
   1   7 -12 790.551 103.252  44
  -1  -7  12 773.323 90.8898  23
   1  -7 -12 935.601 137.447  40
  -1  -7  12 802.583 71.7741  27
  -1   7  12 875.630 123.507  56
   1  -7 -12 941.949 112.719  36
   1  -7 -12 1128.47 135.191  35
  -1  -7  12 886.323 80.3376  34
   1   7 -12 722.559 104.776  33
   1   7 -12 886.400 70.0769  29
   1   7 -11 806.644 108.049  46
   1  -7 -11 657.823 134.372  12
   1   7 -11 601.957 101.368  44
  -1   7  11 636.103 89.8652  45
  -1  -7  11 700.632 93.5345  23
  -1  -7  11 792.506 88.9480  14
   1  -7 -11 584.733 106.598  36
  -1   7  11 700.012 97.8225  13
  -1   7  11 702.297 101.064  20
  -1  -7  11 692.680 81.0285  34
  -1  -7  11 631.854 85.3360   9
   1   7 -11 675.157 107.061  33
   1   7 -11 671.130 103.288  15
   1   7 -11 828.663 74.7624  29
   1  -7 -11 934.841 151.758  51
  -1   7  11 735.315 114.073  24
  -1  -7  11 818.006 78.7210  27
   1   7 -10 344.820 88.0733  46
  -1   7  10 443.285 93.2679  24
   1   7 -10 320.399 59.6240  29
  -1  -7  10 429.805 80.4575  23
   1  -7 -10 444.896 129.706  12
   1  -7 -10 308.902 127.978  40
   1   7 -10 306.076 80.8449  39
  -1  -7  10 253.192 63.3679  14
   1  -7 -10 336.459 93.4717  36
  -1   7  10 347.486 80.5590  13
  -1   7  10 467.082 87.1115  20
  -1  -7  10 382.328 71.8933   9
   1   7 -10 327.482 88.1079  33
   1  -7 -10 442.995 129.544  51
  -1   7  10 370.906 98.2207  56
  -1   7  10 525.229 82.6271  45
  -1  -7  10 270.716 59.4151  27
   1   7 -10 417.649 89.3977  44
   1  -7  -9 340.836 86.9980  30
  -1   7   9 272.845 84.1136  24
   1   7  -9 331.592 79.5795  44
  -1  -7   9 300.943 69.8913  55
  -1  -7   9 351.903 75.8819  23
   1  -7  -9 304.883 127.828  40
   1   7  -9 341.391 78.4903  39
  -1  -7   9 223.043 56.7105  14
   1   7  -9 456.730 88.1737  33
   1  -7  -9 333.092 87.7897  36
  -1   7   9 248.407 76.2872  13
   1  -7  -9 288.313 144.885  35
  -1   7   9 349.499 89.1621  20
  -1  -7   9 330.389 69.7944   9
   1  -7  -9 247.132 134.822  12
  -1   7   9 424.454 101.309  56
   1  -7  -9 298.812 120.943  51
   1   7  -9 350.532 87.5014  46
  -1   7   9 296.970 71.0576  45
  -1  -7   8 129.545 54.4281  47
  -1   7   8 80.0817 58.3292  45
   1   7  -8 43.0269 59.2923  39
   1  -7  -8 106.005 112.365  40
   1  -7  -8 22.4151 68.7245  22
  -1  -7   8 54.3284 45.6218  14
   1  -7  -8 101.263 72.3178  36
   1   7  -8 42.2031 62.0973  33
  -1   7   8 70.0128 63.5871  13
   1  -7  -8 112.710 139.431  35
  -1   7   8 17.0588 64.3830  20
   1  -7  -8 15.5205 96.0289  51
   1  -7  -8-21.2201 88.7254  30
  -1  -7   8 43.0458 55.3601   9
   1  -7  -8 69.3743 69.7429  29
   1   7  -8 41.9827 54.6509  31
  -1   7   8 96.3874 79.3736  56
  -1  -7   8 149.637 62.9127  55
   1   7  -8 7.27116 64.1868  46
   1  -7  -8 118.583 94.8075  11
   1   7  -8 179.797 75.9028  44
  -1  -7   7 4.63905 51.2721  47
   1   7  -7 54.0287 62.9874  46
   1   7  -7 58.4755 67.2235  33
   1  -7  -7 46.6370 84.4153  51
  -1   7   7 23.1337 52.8566  45
   1   7  -7 68.0009 63.8930  44
  -1   7   7 97.5558 66.0806  13
   1  -7  -7-95.4101 100.212  40
   1  -7  -7 21.9456 110.816  11
   1  -7  -7 93.2475 83.1255  22
   1   7  -7 5.74675 55.6255  39
  -1  -7   7 5.43205 41.2840  14
   1   7  -7-37.0841 69.9129  25
  -1  -7   7 20.2624 52.4207   9
   1  -7  -7 79.8532 61.9677  36
  -1   7   7 31.8304 60.4535  20
  -1  -7   7 129.619 56.5170  19
   1  -7  -7 5.62683 63.2344  29
   1   7  -7 22.3216 50.2731  31
   1  -7  -7-33.2468 131.723  35
  -1  -7   7 32.2849 57.3744  55
   1  -7  -7 140.938 94.7710   8
   1  -7  -7 8.03746 104.965  30
  -1   7   7 53.2197 68.8281  56
  -1   7   6 64.0886 53.7624  25
   1  -7  -6 39.7194 55.0941  29
  -1  -7   6 67.6489 50.0400  23
   1  -7  -6 95.9852 87.0078  40
  -1   7   6 83.4198 42.9191  10
  -1   7   6 113.093 51.2988  45
   1  -7  -6 73.3970 125.380  35
  -1  -7   6 48.3007 38.8344  14
   1   7  -6 70.0791 42.7165  21
   1  -7  -6 54.1380 109.157  30
   1  -7  -6 18.5701 60.5278  36
  -1   7   6 81.5230 52.5467  13
   1   7  -6 69.3696 55.2538  39
  -1   7   6 37.0441 57.9294  20
   1  -7  -6-19.3203 93.0829  22
   1   7  -6 23.5213 55.9286  33
  -1  -7   6 6.09121 55.4689  19
  -1  -7   6 12.6763 49.5758   9
   1  -7  -6-34.4563 118.362   8
   1   7  -6 24.6374 58.8470  46
   1   7  -6 107.194 54.6831  31
   1   7  -6 33.3931 69.5813  25
  -1  -7   6 79.7786 58.2146  55
  -1   7   6 146.709 71.9055  56
   1  -7  -6 7.84558 45.8601  17
  -1  -7   6 37.9009 54.8476  47
   1  -7  -6 84.2517 127.403  11
   1  -7  -5 33.8774 114.514  22
  -1  -7   5 57.0174 49.9434  47
  -1   7   5 60.9916 58.8068  20
  -1   7   5 58.4698 105.894  25
   1  -7  -5-5.54819 62.1517  17
   1  -7  -5 57.3993 117.682  35
  -1   7   5-14.9167 62.8932  56
  -1  -7   5 45.3991 50.3363  23
   1  -7  -5 10.9748 73.9252  40
   1   7  -5 24.2316 48.3694  39
  -1   7   5 43.9277 37.1137  10
  -1  -7   5 32.6761 51.2956  17
   1   7  -5 43.8904 39.5019  21
  -1   7   5 74.7331 57.6312  13
  -1   7   5 45.3317 45.5955  45
   1   7  -5 37.2415 52.6448  33
  -1  -7   5 18.3611 61.3239  19
   1  -7  -5 67.4865 47.3578  19
  -1  -7   5-4.25629 52.2404  55
   1   7  -5 33.1331 43.9578  31
  -1  -7   5 76.2342 40.6532  14
   1  -7  -5 20.0670 127.778  30
   1   7  -5 7.60475 62.2137  25
  -1   7   5 37.5258 68.2897  28
   1   7  -4 137.908 65.5285  25
  -1   7   4 124.704 64.4577  56
   1   7  -4 114.346 54.9379  33
  -1   7   4 89.8095 63.9653  24
   1   7  -4 132.508 36.8957  18
   1   7  -4 93.1459 57.3047  10
  -1  -7   4 109.657 49.8401  23
  -1   7   4 84.4893 36.6729  10
  -1  -7   4 89.3758 33.6701  14
   1   7  -4 158.650 49.8813  21
  -1   7   4 37.9437 55.0553  13
  -1   7   4 44.5734 59.8426  20
   1  -7  -4 28.5996 150.278   8
  -1  -7   4 62.2362 60.9375  19
  -1  -7   4 61.8271 50.5725   9
   1  -7  -4 119.451 72.9601  19
  -1  -7   4 79.2732 54.6369  47
  -1  -7   4 83.0914 55.8966  55
  -1  -7   4 135.422 60.1269  17
   1  -7  -4 171.351 93.7792  17
   1  -7  -4 72.4948 164.030  11
   1   7  -3 170.045 57.1272  16
   1   7  -3 81.0796 79.4452  25
   1  -7  -3 112.473 164.739  22
   1  -7  -3-14.5903 153.400   8
  -1   7   3 174.373 64.0714  24
  -1  -7   3 165.242 48.6766  23
   1   7  -3 168.379 64.0456  10
  -1   7   3 190.611 47.0061  10
   1   7  -3 180.768 80.9987  21
  -1   7   3 147.000 60.1628  13
  -1   7   3 104.735 59.1858  20
  -1  -7   3 208.140 71.4074  19
  -1  -7   3 104.372 50.7107   9
   1  -7  -3 98.6714 104.250  19
   1  -7  -3 101.065 168.655  11
  -1   7   3 72.9988 62.2345  56
   1  -7  -3-10.2981 116.268  17
  -1  -7   3 261.284 72.9433  17
   1  -7  -3 41.4619 54.2600   5
  -1  -7   3 140.855 32.1061  14
   1   7  -2 814.178 181.635  25
   1  -7  -2 425.385 171.916   8
  -1   7   2 630.447 71.2064  10
  -1  -7   2 557.964 64.1740  23
  -1   7   2 819.869 99.4994  56
   1   7  -2 667.633 87.7702  10
  -1   7   2 674.239 91.8410  24
  -1  -7   2 624.695 77.4972   2
  -1  -7   2 694.933 74.4371   9
  -1   7   2 623.792 89.9949  20
   1   7  -2 633.813 49.5605   4
  -1  -7   2 534.089 91.5367  19
   1  -7  -2 456.799 173.838  22
   1  -7  -2 308.809 153.076  19
  -1   7   2 708.385 112.574  25
  -1   7   2 670.618 70.4538   1
   1  -7  -2 636.319 189.724  11
  -1  -7   2 513.997 86.3159  17
   1  -7  -2 476.946 84.2352   5
   1   7  -2 732.701 76.9556  24
  -1   7   1 626.607 67.5658  25
  -1   7   1 756.144 76.7362  10
  -1   7   1 901.516 104.569  56
  -1  -7   1 799.780 64.9336  23
   1   7  -1 1026.44 100.199  10
   1  -7  -1 721.535 169.147  22
  -1  -7   1 902.306 73.2635   9
   1  -7  -1 1041.31 108.198   5
  -1   7   1 890.446 102.872  20
  -1  -7   1 881.913 105.763  19
   1  -7  -1 689.856 159.485  17
  -1   7   1 728.298 70.4870   1
  -1  -7   1 1047.06 95.2298   2
  -1   7   1 793.646 101.256  24
   1  -7  -1 396.347 169.000  11
  -1  -7   1 804.629 103.177  17
   1   7  -1 963.665 85.1611  24
   1  -7  -1 532.016 166.296   8
  -1   7   0 1140.74 118.801  24
  -1   7   0 1243.66 96.9517  10
   1  -7   0 916.825 175.160   8
   1   7   0 1363.27 113.422  10
  -1  -7   0 1291.56 108.341   2
  -1  -7   0 1513.33 135.996  22
   1   7   0 1179.79 110.322   7
   1  -7   0 912.308 182.536  22
  -1  -7   0 1182.54 80.6233   9
  -1  -7   0 1231.01 117.168  17
  -1   7   0 1099.43 85.6476   1
   1   7   0 1198.27 77.2193   1
   1   7   0 1309.91 102.354  24
   1  -7   0 798.378 169.949  19
   1  -7   0 1341.26 134.391   5
  -1   7   0 1193.44 127.274  56
  -1   7   0 1041.19 88.8813  25
   1  -7   0 1049.53 173.721  17
   1  -7   0 849.990 169.200  11
   1   7   1 33.7713 63.8774  25
   1  -7   1-28.5310 114.692  11
  -1   7  -1-13.4535 37.1308  10
  -1   7  -1-22.4601 67.0658  24
   1   7   1 9.26550 45.8170  24
   1   7   1 11.4371 48.4869  10
   1   7   1 3.45439 30.7874   1
   1  -7   1 64.3400 125.166  22
   1   7   1 90.5889 40.1018  56
   1   7   1 4.77382 46.1923   7
  -1   7  -1-2.94493 27.3309   1
  -1  -7  -1 41.9328 37.9480   2
  -1  -7  -1 9.30782 51.7649  19
   1  -7   1-23.9875 92.7563   5
   1  -7   1-59.2922 128.736  19
  -1  -7  -1-47.6304 81.4681  22
   1  -7   1 87.8167 124.540  17
  -1   7  -1 21.1090 41.7536  25
   1  -7   1 89.8330 120.719   8
   1  -7   2 70.8552 100.785   8
   1  -7   2 144.077 106.034   5
  -1   7  -2 226.747 77.7322  16
   1   7   2 156.911 58.9058  25
   1   7   2 160.858 49.0289  24
   1  -7   2 127.451 114.346  22
   1   7   2 200.170 54.3902  10
   1   7   2 142.666 46.2562   7
  -1  -7  -2 164.048 47.7402  19
   1  -7   2 211.667 128.346  19
  -1   7  -2 201.783 58.1246  25
  -1  -7  -2 162.844 60.8551  17
   1  -7   2-16.5078 98.6944  11
   1   7   2 170.656 50.8515  56
   1  -7   2 21.3594 117.423  17
  -1  -7  -2 236.101 95.6712  22
   1  -7   3 116.000 90.3165   8
  -1   7  -3 95.1015 54.7431  25
  -1   7  -3 185.722 84.2685  16
   1   7   3 216.241 63.1967  25
   1   7   3 194.302 51.3026  24
   1  -7   3 249.704 91.6373   9
  -1   7  -3 90.3760 82.2252  42
   1   7   3 245.192 56.6757  10
  -1  -7  -3 187.741 72.8191  40
  -1   7  -3 180.908 70.5098  38
   1  -7   3 268.985 100.270  22
   1   7   3 203.318 49.4858   7
   1  -7   3 87.5432 108.091  19
   1   7   3 158.169 51.4433  56
  -1  -7  -3 199.458 82.7970  30
   1  -7   3 225.418 106.212   5
   1  -7   3 80.3569 108.606  17
  -1  -7  -3 129.798 64.9521  49
  -1  -7  -3 213.774 72.7454  35
  -1   7  -4 112.985 70.9572  45
   1   7   4 40.4192 48.2007  24
  -1  -7  -4 20.9062 71.4274  40
   1   7   4 51.3509 47.4211  10
  -1  -7  -4 114.747 75.5715  35
   1  -7   4-26.2377 91.9211  17
   1  -7   4 157.815 113.393  19
  -1   7  -4 78.8314 53.2032  31
   1  -7   4 19.7007 80.1075   9
   1   7   4 76.5834 47.8154  56
  -1   7  -4 140.413 88.0075  16
  -1  -7  -4 57.5558 81.0767  51
  -1   7  -4 88.4240 67.1738  38
   1   7   5 32.0811 48.7971  24
  -1  -7  -5 70.9539 85.1150  51
  -1   7  -5-6.42756 74.1440  42
  -1  -7  -5 48.9258 82.4058  40
   1   7   5 69.6459 45.5475  10
  -1   7  -5 49.5621 64.8800  38
   1   7   5 74.9471 53.3237  56
  -1  -7  -5 133.325 94.3553  35
  -1   7  -5 74.7743 54.8741  33
   1  -7   5 108.217 87.1452  19
  -1   7  -5 5.25761 53.1569  31
   1  -7   5-36.6044 72.9828   9
  -1  -7  -5 36.0199 48.2774  12
  -1  -7  -5 107.152 73.3919  30
   1  -7   5 7.17461 73.6748  17
  -1   7  -5 92.2183 76.1490  16
  -1   7  -5 95.3686 45.1714  15
  -1   7  -6 189.523 53.7088  15
  -1   7  -6 250.357 81.4260  16
  -1  -7  -6 184.185 103.867  40
  -1   7  -6 86.2425 75.1715  39
  -1  -7  -6 269.183 83.5433  30
  -1   7  -6 242.664 81.8341  38
  -1  -7  -6 126.619 116.112  35
  -1   7  -6 155.259 63.6055  33
   1  -7   6 206.635 75.9471  19
  -1   7  -6 135.211 59.8617  31
   1  -7   6 307.108 83.0314   9
  -1  -7  -6 118.689 64.2342  12
  -1   7  -6 215.595 72.9201  46
   1  -7   6 176.666 64.1140  17
   1   7   6 198.209 64.3768  24
  -1  -7  -6 95.7833 98.5911  51
   1   7   6 249.064 63.0523  56
  -1  -7  -7 72.7477 111.574  51
  -1  -7  -7 69.9293 66.4053  30
  -1   7  -7 37.6198 62.2135  37
   1  -7   7 8.22282 70.1763  23
  -1   7  -7 125.144 68.7155  33
  -1   7  -7-47.3385 80.3713  39
  -1   7  -7 42.2536 69.9947  38
  -1  -7  -7 7.56137 69.5309  12
   1   7   7 87.9902 65.0613  56
  -1  -7  -7 135.691 131.912  35
   1  -7   7 24.8736 61.5583  19
   1  -7   7 63.4803 65.3515   9
  -1   7  -7 96.3700 63.0887  31
  -1   7  -7 236.382 84.5488  16
   1   7   7 38.6965 57.5514  24
  -1   7  -7 77.1083 68.4839  46
  -1   7  -8 33.1795 69.3645  16
  -1  -7  -8 41.0332 127.241  51
   1   7   8 41.5380 61.7534  24
   1  -7   8 73.5958 67.3302  23
  -1  -7  -8 185.014 136.784  40
  -1   7  -8 42.2040 78.7366  39
  -1   7  -8 35.4621 61.9053  33
  -1   7  -8-11.0230 65.7454  37
   1  -7   8 53.6559 59.5151   9
  -1  -7  -8-8.79842 84.4014  12
  -1  -7  -8 87.6265 59.4313  30
   1   7   8 149.927 73.9395  56
  -1   7  -9 318.605 87.8260  16
  -1  -7  -9 55.2807 134.269  51
  -1   7  -9 42.2835 90.6846  41
  -1  -7  -9 115.291 137.933  40
  -1   7  -9 103.820 85.0938  39
   1  -7   9 160.675 60.5558  14
   1  -7   9 104.348 66.7983  23
  -1   7  -9 115.734 69.5999  37
   1   7   9 37.5948 71.1817  56
  -1   7  -9 260.438 79.6576  33
   1  -7   9 66.7305 59.8689   9
  -1  -7  -9 230.351 102.195  32
  -1  -7  -9 133.154 82.3120  12
  -1  -7  -9 178.311 58.0195  30
   1   7   9 190.575 66.1349  24
   1   7  10 102.748 61.8763  24
  -1  -7 -10 82.3462 118.920  40
  -1   7 -10 48.8279 88.5123  39
  -1  -7 -10 118.553 110.979  35
   1   7  10 140.607 58.3353  10
   1  -7  10 166.927 56.9511  14
   1   7  10 38.1203 73.0980  56
  -1   7 -10 85.9570 64.9446  37
  -1   7 -10 27.1634 71.8049  33
   1  -7  10 120.643 54.3893   9
  -1  -7 -10 168.692 92.1667  32
  -1   7 -10 107.663 84.0756  41
  -1   7 -10 144.894 73.4928  16
   1  -7  10 151.233 66.1702  23
  -1   7 -11 220.525 72.8746  46
   1   7  11 290.876 71.4979  24
   1  -7  11 242.734 63.7044  23
  -1   7 -11 175.385 83.1775  41
  -1   7 -11 199.944 62.8049  37
  -1  -7 -11 139.093 93.7442  35
  -1  -7 -11 290.310 89.7338  32
   1   7  11 168.334 70.8645  56
  -1  -7 -11 62.2483 99.8457  49
  -1   7 -12 108.837 72.0819  41
  -1  -7 -12 176.998 86.7309  49
  -1   7 -12 126.975 62.7200  52
  -1  -7 -13 130.804 65.6845  49
  -1   7 -13 214.261 45.7654  52
  -1   7 -13 149.165 56.9968  41
  -1  -7 -13 182.596 57.3026  36
   1  -7  13 99.1183 26.0396  34
  -1  -7 -13 108.248 46.0445  32
  -1   8  13 5458.17 271.207  45
   1   8 -13 4798.42 270.361  44
  -1  -8  13 4602.22 252.361  34
   1   8 -13 5474.99 276.346  41
   1  -8 -13 5135.06 285.213  40
  -1   8  13 4733.02 269.567  38
   1  -8 -13 4930.04 265.475  32
   1  -8 -13 4860.67 274.464  36
   1  -8 -13 4968.44 279.472  35
   1   8 -13 4567.49 276.095  33
   1   8 -13 5034.23 271.357  52
  -1  -8  13 4134.74 252.391  50
   1  -8 -13 4807.22 303.480  51
   1   8 -12 3089.94 198.859  44
  -1  -8  12 3095.22 176.787  34
   1  -8 -12 2714.30 197.207  36
   1   8 -12 3144.50 204.224  33
   1  -8 -12 2989.07 234.175  51
  -1  -8  12 2862.83 170.506  27
  -1   8  12 3086.25 190.319  45
   1   8 -11 12058.0 645.175  44
  -1   8  11 12120.8 634.822  45
  -1  -8  11 12668.7 652.180  23
   1  -8 -11 11852.6 665.562  40
   1  -8 -11 11690.1 643.531  36
  -1  -8  11 13286.0 628.147  34
   1   8 -11 12645.2 654.891  33
  -1   8  11 12368.9 671.901  24
   1   8 -11 11838.5 614.695  29
   1  -8 -11 12520.2 680.965  51
  -1  -8  11 11818.1 620.735  27
  -1   8  11 11739.0 662.799  20
   1   8 -10 9461.25 503.836  46
  -1   8  10 9278.33 483.525  45
  -1   8  10 8766.70 527.135  56
  -1   8  10 8133.56 490.841  10
  -1  -8  10 8403.89 485.359  14
   1  -8 -10 8665.53 517.471  40
  -1  -8  10 9376.16 497.904   9
   1   8 -10 9158.79 495.030  44
   1  -8 -10 8717.21 492.920  36
  -1   8  10 8894.51 512.024  20
   1  -8 -10 8876.59 529.437  35
  -1  -8  10 9041.73 500.722  23
   1   8 -10 9239.96 502.179  33
  -1  -8  10 8818.12 470.968  55
  -1   8  10 8928.80 517.831  24
  -1   8  10 8660.52 510.754  13
   1   8 -10 8694.25 489.172  39
   1  -8 -10 8869.72 477.783  30
   1   8 -10 9092.48 467.927  29
   1  -8 -10 9373.58 525.174  51
  -1  -8  10 9679.11 475.189  27
   1   8  -9 6046.65 387.324  46
  -1  -8   9 6414.00 368.881  55
  -1   8   9 6808.19 411.501  24
  -1   8   9 6880.45 408.214  13
  -1   8   9 6414.81 385.554  10
   1  -8  -9 6723.48 387.352  36
   1  -8  -9 6982.87 417.960  40
  -1   8   9 7272.21 379.529  45
  -1  -8   9 6245.06 376.040  14
  -1  -8   9 6879.10 389.211   9
  -1   8   9 6976.55 407.509  20
   1  -8  -9 6854.77 436.862  35
   1   8  -9 6886.16 395.442  33
   1   8  -9 6894.82 387.728  44
   1   8  -9 6767.40 386.382  39
  -1  -8   9 6460.80 364.020  47
   1  -8  -9 7260.04 391.316  30
  -1   8   9 6934.23 422.464  56
   1  -8  -9 7367.48 418.665  51
  -1   8   8 6269.68 366.239  10
   1   8  -8 5964.26 368.804  46
  -1  -8   8 6116.09 353.905  14
  -1   8   8 6647.46 355.594  45
   1  -8  -8 7070.93 410.783  11
   1  -8  -8 6121.21 364.665  36
   1   8  -8 6814.81 366.206  44
  -1   8   8 6180.94 396.276  56
   1  -8  -8 5879.02 406.486  35
   1   8  -8 6037.80 363.181  39
  -1  -8   8 6404.97 369.280   9
  -1   8   8 6741.18 387.779  20
  -1  -8   8 6530.18 353.250  55
   1  -8  -8 6220.30 389.597  40
  -1  -8   8 5959.29 352.766  19
   1   8  -8 6678.84 372.762  33
   1   8  -8 5912.76 361.448  31
  -1  -8   8 6551.42 351.512  47
   1  -8  -8 6592.04 382.246  22
   1  -8  -8 6096.73 381.174  51
   1  -8  -8 5844.50 374.201  30
  -1   8   8 6673.77 386.649  13
  -1  -8   7 15872.4 822.148  47
   1   8  -7 15828.0 836.682  46
   1   8  -7 17398.7 833.709  44
   1  -8  -7 17116.9 858.004  30
  -1  -8   7 15796.7 836.128  23
  -1   8   7 16176.1 836.551  10
   1  -8  -7 15374.5 848.374  40
  -1   8   7 16837.7 858.138  13
   1   8  -7 15897.1 834.111  39
  -1  -8   7 15814.7 835.906   9
   1  -8  -7 14817.0 825.131  36
   1  -8  -7 14459.1 866.481  35
   1  -8  -7 16869.2 885.532  11
  -1  -8   7 15152.3 829.747  19
   1   8  -7 18124.8 846.214  33
   1   8  -7 15062.3 827.768  31
  -1  -8   7 14884.5 819.270  14
  -1   8   7 17312.5 873.329  56
  -1   8   7 17191.0 860.803  20
  -1  -8   7 15462.8 820.120  55
  -1   8   7 17343.5 825.740  45
   1   8  -7 17968.2 876.578  25
   1  -8  -7 16796.6 864.012  22
   1   8  -6 9292.35 495.263  25
  -1   8   6 9111.61 451.962  45
   1  -8  -6 7827.04 468.695  40
  -1   8   6 8604.97 460.557  10
  -1  -8   6 7907.32 443.629  14
   1  -8  -6 7916.33 493.169  22
   1  -8  -6 8472.24 490.931  30
  -1   8   6 8316.59 478.281  13
   1  -8  -6 7003.71 445.959  36
  -1   8   6 8824.02 482.098  20
   1  -8  -6 8096.83 498.309  35
  -1   8   6 9305.10 496.202  56
  -1  -8   6 8252.87 461.490  19
   1   8  -6 9678.85 472.411  33
   1  -8  -6 8521.07 512.711   8
  -1  -8   6 8358.58 448.602  55
   1   8  -6 8235.65 460.954  46
   1   8  -6 8239.75 456.203  31
   1   8  -6 8939.00 462.931  39
  -1  -8   6 8736.78 453.804  47
  -1  -8   6 8190.85 459.409  23
   1   8  -5 24711.1 1149.67  25
  -1  -8   5 20501.3 1110.28  23
  -1  -8   5 21582.1 1106.84  47
  -1  -8   5 22776.5 1115.85  17
  -1   8   5 23148.0 1103.81  45
  -1   8   5 23600.5 1146.46  56
  -1   8   5 22012.9 1114.18  10
  -1  -8   5 21138.7 1096.43  14
   1  -8  -5 24308.5 1189.66  11
   1   8  -5 23928.9 1117.23  39
  -1   8   5 22803.1 1132.87  13
   1   8  -5 22294.1 1110.54  31
   1  -8  -5 19671.9 1099.07  36
  -1  -8   5 20878.7 1113.75   9
  -1   8   5 24360.6 1139.17  20
   1  -8  -5 20372.0 1140.47  35
  -1  -8   5 22293.3 1119.62  19
   1   8  -5 24207.1 1120.38  33
  -1  -8   5 21028.8 1102.24  55
  -1   8   5 21011.0 1125.17  28
   1  -8  -5 20168.8 1110.27  17
  -1   8   5 25087.6 1150.28  24
   1  -8  -5 22701.8 1163.45  22
   1  -8  -5 21144.8 1115.41  40
  -1   8   4 10727.5 578.237  56
  -1  -8   4 10128.5 547.557  47
   1   8  -4 10963.9 580.123  10
   1  -8  -4 12017.4 641.160  11
  -1   8   4 10121.6 540.471  45
   1  -8  -4 13081.1 649.262   8
  -1   8   4 9863.01 549.915  10
  -1  -8   4 10116.8 557.973  17
  -1  -8   4 9698.58 531.198  14
   1  -8  -4 9787.56 549.932  40
   1   8  -4 10879.7 552.141  39
  -1  -8   4 10369.2 551.559  23
  -1   8   4 11476.1 553.166  38
   1   8  -4 10208.8 538.135  21
  -1  -8   4 11553.2 541.867  26
  -1  -8   4 10197.5 554.145   9
  -1   8   4 10454.4 570.004  20
   1  -8  -4 9486.42 573.966  35
   1   8  -4 11279.3 584.661  25
   1  -8  -4 9999.13 596.805  30
   1  -8  -4 9177.41 550.941  19
   1   8  -4 11795.8 559.414  33
   1   8  -4 10886.7 552.245  31
  -1  -8   4 10750.1 562.058  19
  -1   8   4 10843.0 570.823  13
   1  -8  -4 9541.51 564.898  17
  -1   8   4 9696.97 565.311  28
  -1   8   4 11388.6 583.350  24
  -1  -8   4 9969.37 542.850  55
  -1  -8   4 10912.8 543.103  48
   1   8  -3 28904.9 1367.14  25
  -1   8   3 28794.3 1344.70  25
   1   8  -3 26824.2 1354.47  10
   1   8  -3 25894.6 1327.27  39
   1   8  -3 27633.1 1314.18  18
  -1   8   3 25784.7 1332.21  10
  -1   8   3 26195.4 1320.47  45
  -1   8   3 24075.5 1340.63  28
   1  -8  -3 26966.9 1400.05  22
   1  -8  -3 30215.3 1422.45   8
  -1   8   3 27141.3 1328.32  38
   1   8  -3 26507.3 1322.93  21
  -1  -8   3 25261.6 1330.72   9
  -1  -8   3 26402.5 1319.31  26
  -1   8   3 26329.9 1348.96  20
  -1  -8   3 24171.4 1323.70  47
  -1  -8   3 27831.2 1347.76  19
   1   8  -3 26878.0 1328.79  31
   1  -8  -3 27333.4 1357.63  19
  -1  -8   3 25786.7 1326.22  23
  -1   8   3 27384.4 1358.36  24
   1  -8  -3 27998.3 1367.03  17
  -1  -8   3 26831.7 1340.27  17
   1  -8  -3 28740.2 1417.10  11
  -1   8   3 28659.9 1360.36  56
  -1  -8   3 25567.6 1321.84  48
  -1   8   2 6381.92 388.096  25
   1   8  -2 8074.42 403.376  39
  -1  -8   2 6838.55 396.493   9
   1  -8  -2 7425.45 473.275  22
  -1  -8   2 7710.83 398.553  48
  -1   8   2 7754.99 429.773  24
   1   8  -2 7576.25 420.733  10
  -1   8   2 7316.24 425.320  56
  -1  -8   2 6795.90 387.027  23
  -1   8   2 7100.31 400.464  42
  -1   8   2 7920.10 406.394  10
  -1   8   2 7605.10 398.922  38
   1   8  -2 8140.38 398.437  21
   1  -8  -2 7452.60 475.046   8
   1   8  -2 9168.25 486.728  25
  -1   8   2 6804.20 416.138  28
  -1   8   2 7689.72 424.247  20
   1  -8  -2 8197.45 452.730  19
  -1  -8   2 7121.17 411.718  17
   1   8  -2 6869.92 393.435  31
  -1  -8   2 7352.75 396.429  55
   1  -8  -2 7568.33 480.361  11
  -1   8   2 7379.39 392.233  45
  -1   8   2 6641.67 391.864   1
  -1  -8   2 7480.85 417.324  19
  -1  -8   2 7789.67 393.804  26
  -1  -8   1 28403.9 1396.00   9
  -1   8   1 23889.2 1391.22  25
  -1  -8   1 26010.6 1402.42  47
  -1   8   1 30340.5 1438.63  24
  -1   8   1 28639.7 1408.47  10
   1   8  -1 30521.0 1430.09  10
  -1   8   1 28924.2 1413.54  42
  -1   8   1 25848.0 1423.57  28
  -1   8   1 26818.3 1394.27   1
  -1   8   1 29421.7 1405.18  38
   1   8  -1 29474.1 1412.30  24
   1  -8  -1 27810.0 1467.67   8
   1  -8  -1 27004.0 1464.46  11
  -1  -8   1 29392.4 1427.40  19
   1  -8  -1 31107.8 1467.72  19
  -1   8   1 28515.1 1438.76  56
  -1  -8   1 31808.4 1431.50  17
   1  -8  -1 28722.4 1474.73  22
  -1  -8   1 30382.5 1402.13  26
  -1  -8   1 28110.7 1406.27  48
  -1   8   0 9340.84 519.368  10
   1   8   0 10416.5 540.901  10
   1  -8   0 9372.58 569.010  11
  -1  -8   0 11545.3 554.800  22
  -1   8   0 10301.7 522.586  38
  -1   8   0 9931.54 531.001  42
  -1  -8   0 9666.96 500.248   9
   1  -8   0 9337.84 574.122   8
  -1   8   0 9002.89 542.606  28
  -1   8   0 10140.4 517.477  31
  -1   8   0 8396.62 508.094  25
  -1  -8   0 10045.2 542.361  17
  -1  -8   0 9758.75 517.293  30
  -1  -8   0 10334.4 520.013  26
   1  -8   0 11376.0 547.080   5
   1   8   0 10147.2 526.018  24
  -1   8   0 10590.2 553.634  24
   1  -8   0 10331.5 576.140  17
  -1  -8   0 9538.04 523.449  48
   1  -8   0 9422.14 577.391  22
  -1  -8  -1 31820.1 1431.65  22
  -1   8  -1 27182.3 1390.36  45
   1   8   1 28511.2 1396.98  24
  -1   8  -1 25969.9 1423.69  16
  -1   8  -1 28799.0 1428.47  24
   1   8   1 29159.8 1410.48  10
  -1   8  -1 28360.9 1405.40  42
  -1  -8  -1 30538.4 1393.64  40
   1  -8   1 27495.2 1437.57  22
  -1   8  -1 25378.7 1383.16  25
  -1   8  -1 29130.4 1395.88  38
  -1   8  -1 29715.6 1391.51  31
  -1  -8  -1 29582.6 1399.81  19
   1  -8   1 22310.0 1420.55   9
   1   8   1 30951.4 1404.40   7
   1  -8   1 29406.1 1449.67  19
   1  -8   1 27444.4 1436.93  17
  -1   8  -1 27347.0 1391.01  10
   1  -8   1 26250.1 1429.89   8
  -1  -8  -1 29162.5 1394.26  30
   1  -8   1 24264.7 1420.07  11
  -1  -8  -1 26060.0 1382.97  49
  -1   8  -1 26676.4 1385.74  39
   1  -8   2 11529.3 649.879   8
   1   8   2 12222.1 631.238  24
  -1  -8  -2 11945.3 630.348  17
   1   8   2 12737.1 643.226  10
  -1   8  -2 11518.3 639.433  42
  -1  -8  -2 12674.6 628.153  40
   1   8   2 11869.0 622.967  56
   1  -8   2 12051.1 661.365  22
  -1   8  -2 12996.0 633.938  38
  -1  -8  -2 11989.6 623.030  35
  -1  -8  -2 11823.7 623.646  26
  -1  -8  -2 11492.6 618.702  19
   1  -8   2 10884.5 664.551   9
   1  -8   2 13636.2 686.613  19
   1   8   2 15453.2 670.777  25
  -1   8  -2 12226.5 669.843  16
  -1   8  -2 12796.6 625.822  31
   1   8   2 12679.0 628.324   7
  -1  -8  -2 11714.4 632.228  30
   1  -8   2 11102.9 643.361  11
  -1  -8  -2 11014.6 619.370  49
  -1   8  -2 11453.6 627.696  45
  -1   8  -2 9986.02 646.668  28
  -1   8  -2 11885.3 622.635  39
  -1   8  -2 11045.3 621.585  25
   1  -8   2 12987.6 672.419  17
  -1  -8  -2 11495.0 620.277  48
  -1   8  -3 20878.4 1161.96  45
   1   8   3 26430.5 1192.59  25
  -1  -8  -3 22957.0 1161.55  40
  -1   8  -3 24601.8 1172.51  38
   1   8   3 23885.2 1161.78   7
  -1   8  -3 22273.2 1176.07  42
  -1  -8  -3 21633.8 1159.04  35
  -1   8  -3 20850.0 1163.24  25
   1  -8   3 24099.5 1203.21  19
   1  -8   3 21791.3 1176.97  22
   1   8   3 25012.3 1172.12  24
  -1   8  -3 24210.8 1161.41  31
  -1  -8  -3 21610.8 1170.13  30
   1   8   3 22982.5 1161.56  56
  -1   8  -3 25372.5 1218.09  16
   1  -8   3 24048.7 1198.45  17
  -1  -8  -3 23169.3 1155.70  26
  -1  -8  -3 22422.8 1162.28  49
   1   8   3 24086.8 1178.77  10
  -1   8  -3 23073.6 1163.15  39
  -1  -8  -3 22006.2 1148.46  48
  -1   8  -4 7033.18 428.316  45
   1   8   4 7879.71 433.041  24
   1   8   4 8198.03 445.704  25
   1   8   4 8302.38 431.261  56
   1   8   4 7882.18 437.443  10
  -1  -8  -4 7077.83 436.605  30
  -1  -8  -4 7313.79 427.024  40
  -1   8  -4 8358.48 436.324  38
   1   8   4 7984.05 424.984   7
  -1  -8  -4 7009.12 426.216  35
  -1  -8  -4 7288.89 428.918  49
   1  -8   4 8299.35 463.300   9
  -1   8  -4 7685.24 414.611  33
   1  -8   4 8112.77 456.079  19
  -1  -8  -4 7358.20 410.029  26
  -1   8  -4 7998.00 423.450  31
   1  -8   4 7695.27 444.101  17
  -1  -8  -4 7372.49 406.925  48
  -1   8  -4 8252.87 471.168  16
   1   8   5 22461.4 1095.42  24
   1  -8   5 21818.2 1090.24  17
  -1  -8  -5 20115.0 1086.88  40
  -1   8  -5 22408.5 1091.66  38
   1   8   5 21778.3 1083.80   7
  -1  -8  -5 19710.2 1091.07  35
   1  -8   5 21875.2 1110.08   9
  -1   8  -5 21775.6 1075.60  33
   1  -8   5 21815.6 1101.04  19
  -1   8  -5 21681.6 1078.19  31
   1   8   5 20146.4 1086.45  56
  -1  -8  -5 20914.0 1058.49  26
  -1  -8  -5 22060.5 1095.55  49
  -1   8  -5 22621.6 1131.74  16
   1   8   5 22482.1 1098.55  10
  -1  -8  -5 19509.9 1055.42  48
  -1   8  -6 4975.60 296.236  46
   1   8   6 4466.53 292.797  24
  -1  -8  -6 4440.60 293.234  30
   1   8   6 4964.55 302.245  10
  -1  -8  -6 4752.93 309.994  40
  -1   8  -6 5002.79 301.222  39
  -1   8  -6 4867.71 293.930  38
   1  -8   6 4513.24 281.004  17
   1   8   6 4239.42 290.806  56
  -1  -8  -6 4453.93 314.845  35
   1  -8   6 5186.29 305.299   9
  -1   8  -6 5286.21 327.262  16
  -1   8  -6 4344.40 277.227  33
   1  -8   6 4986.81 296.004  19
  -1  -8  -6 4428.91 301.467  49
  -1   8  -6 4742.62 283.134  31
   1  -8   6 4943.03 304.791  23
   1   8   6 4376.10 283.430   7
  -1   8  -7 12407.8 655.793  39
   1   8   7 12046.8 653.036  24
   1  -8   7 11546.2 650.739  23
   1   8   7 12408.5 658.842  10
  -1   8  -7 11880.8 646.328  46
  -1  -8  -7 11193.3 664.011  40
   1  -8   7 11313.8 641.858  14
  -1   8  -7 11179.9 642.724  38
  -1   8  -7 13262.3 633.218  37
  -1  -8  -7 11986.6 679.427  35
   1  -8   7 12418.3 650.881   9
  -1   8  -7 11978.2 636.971  33
   1  -8   7 12138.4 637.619  19
  -1   8  -7 11544.5 635.264  31
  -1  -8  -7 12063.9 637.546  30
   1   8   7 10847.6 648.964  56
  -1   8  -7 13581.4 686.424  16
   1  -8   8 5424.92 319.760  23
   1   8   8 4940.35 320.723  10
  -1   8  -8 5231.95 312.407  41
  -1   8  -8 5007.06 324.468  39
  -1   8  -8 5153.95 296.837  37
  -1  -8  -8 5933.65 369.250  35
   1  -8   8 5338.50 314.918   9
  -1   8  -8 4589.78 302.056  33
   1   8   8 5121.40 321.624  24
   1  -8   8 5000.55 308.625  14
  -1   8  -8 5306.52 316.292  46
  -1  -8  -8 4671.42 293.680  30
   1   8   8 4022.11 313.284  56
  -1   8  -8 5869.41 347.361  16
  -1   8  -9 8727.99 483.926  46
   1   8   9 8852.17 494.088  24
   1   8   9 8802.34 491.878  10
  -1   8  -9 8558.03 493.239  39
   1  -8   9 9133.19 479.917   9
  -1   8  -9 8255.43 473.628  33
  -1  -8  -9 9317.94 498.507  32
  -1  -8  -9 7790.26 452.345  30
   1   8   9 7479.27 487.372  56
   1  -8   9 8886.54 484.393  23
   1  -8   9 8522.71 474.714  14
  -1   8  -9 9649.60 517.590  16
  -1   8  -9 8402.75 459.194  37
  -1  -8  -9 8294.27 496.006  49
   1   8  10 3199.09 237.080  25
   1   8  10 3596.79 242.653  24
   1  -8  10 3674.73 233.579  23
  -1   8 -10 3596.30 243.433  39
  -1   8 -10 3284.15 224.058  33
  -1  -8 -10 3994.28 251.229  32
   1   8  10 3118.18 241.134  56
  -1  -8 -10 3588.97 255.155  49
  -1   8 -10 3433.81 210.136  37
  -1   8 -11 5658.23 326.772  41
  -1  -8 -11 5417.17 346.447  49
  -1  -8 -11 5746.00 340.118  35
  -1  -8 -11 5917.55 335.277  32
  -1   8 -12 1822.92 134.689  41
  -1  -8 -12 1822.68 132.520  32
  -1   8 -12 2011.02 126.286  52
  -1   9  13 34.0941 40.6321  45
   1   9 -13-15.4859 49.7843  41
   1  -9 -13-3.38814 55.1597  35
  -1  -9  13-1.62024 24.1802  34
   1  -9 -13 48.1632 43.2443  32
   1  -9 -13 109.110 50.1931  49
   1   9 -13 16.5478 42.9503  52
  -1   9  13 34.1591 42.3770  38
   1  -9 -12 399.876 104.190  40
  -1   9  12 393.036 61.3459  45
   1   9 -12 320.746 60.9746  44
   1  -9 -12 235.545 71.1909  36
  -1  -9  12 285.939 39.6182  27
  -1  -9  12 282.316 47.5306  34
   1   9 -12 223.838 59.6892  33
  -1   9  11 17.4597 57.8472  45
  -1   9  11-25.8898 63.1352  24
   1  -9 -11-25.6088 72.1010  36
   1  -9 -11-79.2531 110.846  35
   1   9 -11-43.2855 62.4599  33
  -1  -9  11 61.0791 48.8763  34
   1   9 -11-15.4387 59.1576  44
  -1  -9  11 131.790 44.4326  55
   1  -9 -11 44.2489 109.560  40
   1  -9 -11 182.324 110.699  51
  -1  -9  11 25.6870 40.0616  27
  -1   9  10 393.905 71.3701  45
   1   9 -10 421.383 84.1356  46
  -1   9  10 415.483 93.3627  24
   1   9 -10 420.995 81.3892  44
  -1  -9  10 339.733 72.8801  23
   1  -9 -10 316.400 129.939  40
   1   9 -10 507.293 78.1663  39
   1  -9 -10 282.110 87.8146  36
   1  -9 -10 642.951 144.595  35
  -1   9  10 442.702 86.1580  20
  -1  -9  10 436.079 67.2064  34
   1   9 -10 290.106 87.3341  33
   1   9 -10 398.386 54.7102  29
   1  -9 -10 383.674 76.0338  30
   1  -9 -10 406.650 118.894  51
  -1   9  10 390.185 100.449  56
  -1  -9  10 391.316 62.2447  27
  -1  -9  10 389.285 68.5875  55
  -1   9   9-29.7981 74.8826  24
   1   9  -9-6.09703 65.2436  44
  -1  -9   9-14.5372 59.8069  23
   1  -9  -9-60.2917 121.480  40
   1   9  -9 12.7550 60.5927  39
  -1   9   9 20.6673 41.7780  10
   1  -9  -9-32.0657 101.022  51
  -1  -9   9-12.6770 52.1183  47
   1  -9  -9-85.3082 83.0038  36
  -1   9   9 9.22740 57.8346  13
   1  -9  -9 60.3968 132.725  35
  -1   9   9 9.24456 68.1400  20
  -1  -9   9-7.05172 46.9346   9
   1   9  -9 14.6990 68.8513  33
  -1   9   9 89.5853 83.1721  56
   1  -9  -9 6.45109 82.1472  30
  -1  -9   9 56.2534 59.6936  55
   1   9  -9-20.4682 60.1531  46
  -1   9   9 25.8590 62.3700  45
  -1  -9   8 236.333 64.2834  47
   1   9  -8 292.317 76.8250  46
  -1   9   8 364.955 74.2739  45
   1   9  -8 388.301 75.2461  44
  -1  -9   8 304.893 73.7431  23
   1  -9  -8 241.879 115.942  40
   1  -9  -8 353.293 95.8298  22
  -1   9   8 212.970 57.4664  10
   1   9  -8 312.371 73.4239  39
   1  -9  -8 97.6696 78.3207  36
  -1   9   8 142.040 74.7098  13
   1  -9  -8 214.987 134.697  35
  -1   9   8 332.345 87.4430  20
   1   9  -8 229.553 84.8381  33
  -1  -9   8 336.103 63.6432  19
   1   9  -8 284.270 67.7518  31
  -1  -9   8 347.113 76.6508  55
  -1   9   8 416.367 99.0814  56
   1  -9  -8 328.385 104.682  30
   1   9  -7 380.783 94.5196  25
  -1  -9   7 372.297 74.0880  47
   1   9  -7 411.130 75.3887  46
  -1   9   7 323.605 74.4498  45
   1   9  -7 452.042 78.0522  44
  -1  -9   7 361.804 71.5199  23
   1  -9  -7 197.693 88.9603  22
  -1   9   7 246.978 61.4411  10
   1   9  -7 400.188 82.1240  39
   1  -9  -7 186.013 84.2630  36
   1  -9  -7 131.489 108.111  40
  -1   9   7 375.872 83.8287  13
   1  -9  -7 307.880 128.690  35
  -1   9   7 263.992 83.6574  20
   1   9  -7 377.649 81.4223  33
  -1  -9   7 285.027 68.4962  19
   1   9  -7 329.407 70.4622  31
  -1   9   7 374.637 101.909  56
   1  -9  -7 258.548 108.661  30
  -1  -9   7 308.344 71.0107  55
   1  -9  -7 223.482 115.344  11
   1   9  -6 1941.71 175.067  25
  -1  -9   6 2275.60 153.776  47
  -1  -9   6 1786.87 147.897  23
   1   9  -6 2215.53 152.934  44
  -1   9   6 2016.57 146.077  45
   1   9  -6 1852.26 150.513  46
  -1   9   6 1838.90 149.039  10
  -1   9   6 2297.54 186.154  24
   1  -9  -6 1897.51 170.147  40
   1  -9  -6 2110.03 190.607  22
   1   9  -6 2263.68 160.318  39
  -1   9   6 2194.59 157.111  38
  -1   9   6 1952.77 168.475  13
  -1  -9   6 1635.93 144.044   9
   1  -9  -6 1646.75 148.175  36
  -1   9   6 1926.07 171.534  20
   1  -9  -6 1899.44 194.247  35
  -1  -9   6 1767.47 149.976  19
   1   9  -6 2261.59 161.977  33
   1   9  -6 2221.49 155.105  31
  -1   9   6 2195.16 191.550  56
   1  -9  -6 1970.85 199.270   8
  -1  -9   6 2102.80 148.515  55
   1   9  -5 94.7237 75.2919  25
  -1  -9   5 77.1262 62.8923  47
  -1   9   5 192.107 60.4100  45
  -1   9   5 117.649 77.3912  24
   1  -9  -5 182.958 116.977  30
   1   9  -5 169.250 66.0699  33
  -1  -9   5 118.112 52.4903  23
   1  -9  -5 110.951 83.0884  40
   1  -9  -5 226.044 124.364  11
  -1   9   5 152.311 52.8517  10
   1   9  -5 180.218 63.6144  39
   1  -9  -5 136.561 67.3610  36
   1  -9  -5 16.7021 104.058  35
  -1  -9   5 198.801 56.3325   9
  -1  -9   5 178.892 68.3186  19
  -1  -9   5 161.313 63.5053  55
   1   9  -5 154.934 58.7960  31
  -1   9   5 52.4866 67.2417  20
  -1   9   5 140.772 83.0018  56
  -1   9   5 156.943 69.6396  38
  -1  -9   5 140.208 57.4738  48
  -1   9   5 193.713 100.320  28
   1  -9  -5 24.6161 59.6478  17
  -1  -9   5 151.758 64.5857  17
  -1  -9   5 149.472 48.1202  26
  -1   9   4 969.250 102.833  38
   1   9  -4 1007.13 121.389  25
   1  -9  -4 985.434 161.356   8
  -1   9   4 975.403 126.137  24
  -1   9   4 924.000 98.8234  10
  -1   9   4 965.625 94.6544  45
   1  -9  -4 972.239 110.251  40
   1   9  -4 1006.94 101.772  39
   1  -9  -4 862.545 153.680  22
  -1  -9   4 984.592 98.7829  47
  -1  -9   4 871.386 94.7723   9
   1  -9  -4 879.789 125.724  35
  -1   9   4 931.938 116.070  20
  -1  -9   4 1098.34 109.376  19
   1   9  -4 1137.69 103.077  33
   1  -9  -4 680.818 91.3369  19
   1   9  -4 1138.05 100.115  31
  -1   9   4 1505.00 139.232  56
  -1  -9   4 941.573 96.0113  55
  -1  -9   4 1025.61 103.769  17
  -1   9   4 863.499 131.714  28
  -1  -9   4 965.962 86.5303  26
   1  -9  -4 964.866 113.997  17
   1  -9  -4 874.111 143.744  30
   1  -9  -4 830.288 163.432  11
   1   9  -4 1149.37 121.492  10
  -1  -9   4 892.570 92.4996  23
  -1  -9   4 1001.09 94.8184  48
  -1   9   3 125.483 55.1957  45
   1   9  -3 119.401 76.7067  25
   1  -9  -3 72.5221 79.8837  17
   1  -9  -3 26.9902 107.390  30
  -1   9   3 142.810 64.2163  38
  -1  -9   3 27.0442 62.6799  19
  -1  -9   3 158.792 53.4251   9
  -1   9   3 117.069 74.3329  20
  -1  -9   3 81.8553 45.8814  23
   1  -9  -3 24.3527 125.578   8
   1   9  -3 70.4606 61.5811  10
  -1   9   3 138.826 52.5431  10
   1  -9  -3-46.2405 109.468  22
  -1  -9   3 159.840 61.2821  48
   1   9  -3 167.919 57.4884  39
  -1   9   3 141.247 85.8418  56
  -1  -9   3 151.649 51.2757  26
   1  -9  -3 105.027 70.6387  19
   1   9  -3 85.7220 56.9783  31
  -1   9   3 129.818 79.2722  24
  -1  -9   3 124.507 54.9266  47
  -1  -9   3 157.297 64.3008  17
  -1   9   3 129.169 101.589  28
   1  -9  -3 216.730 127.074  11
  -1   9   2 288.560 54.6599  25
   1  -9  -2 262.757 98.4727  17
  -1   9   2 486.959 100.363  24
   1  -9  -2 399.105 117.113  30
  -1   9   2 421.822 100.457  56
   1   9  -2 477.010 149.402  25
  -1   9   2 284.280 63.5500  10
  -1   9   2 376.889 70.9661  39
   1  -9  -2 273.550 125.517  22
  -1   9   2 453.547 75.8429  38
   1  -9  -2 409.514 136.829  11
   1   9  -2 480.975 99.9458  21
   1   9  -2 404.170 70.1557  39
   1  -9  -2 442.444 129.919   8
   1   9  -2 353.642 79.8745  10
  -1  -9   2 372.332 58.3423   9
  -1  -9   2 550.156 89.3678  19
  -1  -9   2 469.942 64.9946  26
   1  -9  -2 465.114 94.6667  19
   1   9  -2 432.543 69.3717  31
   1  -9  -2 232.547 72.9168   9
  -1   9   2 468.023 90.0815  42
  -1  -9   2 337.762 69.9593  55
  -1  -9   2 430.212 80.7682  17
  -1   9   2 352.209 119.721  28
  -1   9   2 295.451 65.0124  45
  -1  -9   2 419.123 72.4411  48
  -1  -9   1 181.815 64.2052  47
  -1   9   1 71.2540 39.0616  25
  -1  -9   1 98.5008 55.3895  30
   1  -9  -1-10.8395 112.631   8
  -1   9   1 115.104 59.8001  45
   1   9  -1 91.5272 57.1684  24
  -1   9   1 111.736 83.0763  24
  -1   9   1 73.5008 76.6565  42
   1  -9  -1 78.2310 99.7051  30
  -1   9   1 91.0983 47.2970  10
   1   9  -1 81.7169 63.0881  10
   1  -9  -1 54.4710 103.110  22
  -1   9   1 31.0396 54.9070  39
   1   9  -1 115.435 58.6696  39
  -1   9   1 151.363 63.0414  38
   1   9  -1 198.021 329.407  25
  -1  -9   1 97.1060 38.8433   9
   1  -9  -1 35.5416 94.8252  19
  -1  -9   1 50.5845 57.7953  55
  -1   9   1 40.1611 88.1420  56
   1   9  -1 108.274 49.8724  31
  -1   9   1 44.4576 51.4615  31
   1  -9  -1-55.2381 67.4199   9
  -1  -9   1 172.794 54.1669  26
   1  -9  -1 104.570 105.677  11
  -1  -9   1 99.1860 70.7794  17
  -1   9   1 109.926 106.347  28
  -1  -9   1 117.017 64.9195  48
  -1   9   0 1249.50 108.168  25
   1   9   0 1585.33 130.895  24
  -1   9   0 1382.61 121.689  45
  -1   9   0 1375.05 117.429  10
  -1  -9   0 1444.28 122.566  47
   1   9   0 1644.60 142.396  10
  -1   9   0 1301.65 142.280  42
  -1  -9   0 1406.35 116.160  26
   1  -9   0 1254.40 139.368  30
  -1   9   0 1512.66 119.050  39
   1  -9   0 1333.46 158.903  11
  -1   9   0 1782.87 133.360  38
  -1  -9   0 1599.13 115.270  55
   1  -9   0 1412.78 144.939   9
  -1  -9   0 1458.43 135.646  19
  -1   9   0 1622.10 124.674  31
  -1  -9   0 1570.99 121.440  30
   1  -9   0 1589.20 174.340  22
  -1  -9   0 1476.73 143.896  17
   1  -9   0 1402.46 157.550  17
   1  -9   0 1418.30 162.868   8
  -1   9   0 1649.07 158.499  24
  -1   9   0 1555.62 178.194  28
  -1  -9   0 1567.27 130.630  48
  -1   9  -1 52.2252 47.7672  25
  -1   9  -1 33.8471 72.2172  16
  -1   9  -1-15.1965 82.2056  42
   1  -9   1 53.4208 93.8841   8
  -1   9  -1 17.2199 65.1375  45
  -1   9  -1 10.2813 84.0838  24
   1   9   1-33.6725 60.0270  24
  -1   9  -1 30.3181 40.3827  10
   1   9   1 48.4271 65.1846  10
   1  -9   1-46.7186 92.4106  22
  -1   9  -1 32.6264 51.9218  39
   1  -9   1 8.34047 85.2636  11
  -1  -9  -1 53.0985 66.2100  19
   1  -9   1-18.7700 87.5115  19
  -1  -9  -1 57.5162 62.3436  30
  -1   9  -1 39.1230 60.2587  31
   1  -9   1 63.2973 75.3288   9
  -1   9  -1 73.3772 68.4820  38
  -1  -9  -1 60.1560 55.9614  49
  -1   9  -1-10.0306 121.666  28
   1  -9   1 100.866 90.3006  17
  -1  -9  -1-4.80677 55.2564  47
  -1  -9  -2 381.895 83.8767  48
   1  -9   2 508.171 94.9239   8
  -1   9  -2 409.680 88.1958  45
  -1   9  -2 434.163 105.635  16
   1   9   2 524.075 80.6333  24
  -1   9  -2 431.527 98.7676  42
  -1  -9  -2 302.216 85.3484  40
   1   9   2 395.000 84.4475  10
   1  -9   2 416.805 98.4400  22
  -1   9  -2 286.813 69.7410  39
   1   9   2 441.517 76.7625   7
  -1  -9  -2 332.319 79.1336  35
  -1   9  -2 287.670 63.0002  25
  -1  -9  -2 358.666 68.5622  19
   1  -9   2 325.603 98.3393  19
  -1   9  -2 424.827 73.3340  31
   1  -9   2 340.626 88.5895   9
  -1   9  -2 354.679 87.7213  38
  -1  -9  -2 398.668 85.0379  30
   1  -9   2 431.182 89.3399  11
  -1  -9  -2 409.414 75.5194  49
  -1  -9  -2 343.928 76.9353  26
   1  -9   2 418.032 103.219  17
  -1  -9  -3 397.501 76.4511  48
  -1   9  -3 401.161 68.9028  25
  -1   9  -3 286.559 82.6228  45
   1   9   3 470.968 82.8000  24
  -1   9  -3 417.351 113.480  16
  -1   9  -3 405.423 105.017  42
  -1   9  -3 474.420 77.7593  31
  -1  -9  -3 515.984 82.6546  26
  -1  -9  -3 412.059 96.8929  40
   1   9   3 317.611 75.2652  10
   1  -9   3 425.658 85.9812  22
   1  -9   3 404.806 100.792  17
  -1   9  -3 475.988 90.5037  38
   1   9   3 519.079 74.9511   7
  -1  -9  -3 418.311 85.4675  35
  -1   9  -3 356.040 59.3889  33
   1  -9   3 397.009 105.647  19
   1  -9   3 484.229 101.229   9
  -1  -9  -3 440.938 97.6742  30
  -1   9  -3 388.989 79.3080  39
  -1  -9  -3 496.450 84.3214  49
  -1  -9  -4 659.653 80.9053  48
  -1  -9  -4 610.481 83.2405  26
   1   9   4 701.476 94.0993  24
  -1   9  -4 718.175 114.452  42
  -1   9  -4 689.492 79.0152  33
   1   9   4 660.708 97.3153  10
  -1   9  -4 755.252 106.331  38
   1   9   4 512.077 76.0943   7
   1  -9   4 586.393 107.613  19
  -1  -9  -4 711.236 108.277  35
  -1   9  -4 780.217 93.1921  31
  -1  -9  -4 850.060 120.567  30
  -1   9  -4 703.876 121.045  16
  -1  -9  -4 549.197 100.778  49
  -1  -9  -4 611.170 112.738  40
   1  -9   4 660.950 107.086  17
  -1  -9  -5 119.427 55.5778  48
  -1   9  -5 96.9961 78.5528  16
   1  -9   5 206.577 75.3451  23
   1   9   5 41.4081 59.8435  24
  -1   9  -5 203.839 81.1359  38
   1   9   5 112.135 67.1165  10
  -1  -9  -5 317.595 102.364  40
   1   9   5 91.3179 49.0881   7
  -1  -9  -5 63.2234 87.6235  36
  -1  -9  -5-22.8552 94.8773  35
  -1   9  -5 108.378 53.3817  33
   1  -9   5 72.6118 78.9261  19
  -1   9  -5 166.409 65.9171  31
   1   9   5 116.214 68.5050  56
  -1  -9  -5 105.402 84.9003  49
   1  -9   5 50.0529 68.4479  17
  -1  -9  -5 99.0927 52.0683  26
  -1   9  -6 98.3503 74.5987  46
   1   9   6 82.7342 61.1100  56
   1   9   6 146.276 66.4025  24
  -1  -9  -6 137.170 110.230  40
  -1   9  -6 23.1950 72.5393  39
   1   9   6 43.7862 52.0367  10
  -1   9  -6 132.032 82.7719  38
  -1   9  -6 164.197 85.1992  16
   1   9   6 94.5786 49.9514   7
  -1  -9  -6 123.005 113.666  35
  -1   9  -6 68.7736 55.5918  33
   1  -9   6 125.496 70.8947  19
   1  -9   6 16.1725 60.6414   9
  -1   9  -6 56.7056 64.0068  31
  -1  -9  -6 99.7352 96.5072  30
  -1  -9  -6 37.4579 86.4540  49
  -1   9  -7-37.8003 72.1617  46
  -1   9  -7 56.7272 71.8638  16
   1   9   7 17.5521 61.6305  24
  -1  -9  -7 177.082 87.8400  30
  -1  -9  -7-17.7871 121.420  40
  -1   9  -7-55.6499 84.4497  39
   1   9   7 17.6097 52.1702  10
   1  -9   7 49.3685 49.1072  14
  -1   9  -7 14.7894 78.8415  38
  -1   9  -7-26.6042 65.2658  37
  -1  -9  -7-78.0752 130.219  35
  -1   9  -7-23.7099 54.7325  33
   1  -9   7-6.65974 58.7180  19
   1  -9   7 7.77803 56.4435   9
  -1   9  -7 18.8709 59.2103  31
  -1  -9  -7 23.5291 90.7003  49
   1   9   7-8.66608 62.3864  56
   1   9   7 27.2553 65.4026  25
  -1  -9  -8 39.7124 94.3971  49
  -1   9  -8 21.7108 69.4711  16
   1   9   8 26.5022 67.5725  25
  -1   9  -8 67.0264 71.4100  46
   1   9   8 17.4554 64.3303  24
   1  -9   8-15.3834 62.8967  23
  -1   9  -8 12.2199 76.5910  41
  -1  -9  -8 120.071 121.195  40
   1   9   8 8.64211 53.5870  10
   1  -9   8-54.2496 48.0223  14
  -1   9  -8-7.95072 76.5821  39
  -1   9  -8 19.9662 61.3952  37
  -1  -9  -8 69.4945 124.779  35
  -1   9  -8 11.8643 54.7738  33
  -1  -9  -8 11.4184 68.0550  30
   1  -9   8-29.5683 57.7416   9
  -1   9  -9-29.8476 77.1819  16
  -1   9  -9 28.2562 70.7466  46
   1   9   9 25.0912 56.7080  24
   1  -9   9-21.3949 64.5453  23
  -1   9  -9-35.0785 74.8307  41
  -1   9  -9 22.9009 78.0276  39
   1   9   9-32.5078 45.8022  10
   1   9   9 33.5033 61.7373  25
  -1   9  -9 31.1720 52.9266  37
  -1  -9  -9-45.1575 121.071  35
  -1   9  -9 61.4711 55.4988  33
  -1  -9  -9 45.9078 105.855  32
  -1  -9  -9 35.1128 59.5183  30
  -1  -9  -9-15.3234 91.3291  49
  -1   9 -10 299.844 76.5236  46
   1   9  10 208.285 86.9541  25
   1   9  10 136.411 63.5181  24
   1  -9  10 68.5145 53.2816  23
  -1   9 -10 126.027 74.6078  39
   1  -9  10 140.494 53.1791  55
  -1  -9 -10 146.987 90.4143  32
  -1  -9 -10 173.891 93.2952  49
  -1  -9 -11 105.863 72.1635  32
  -1  -9 -11-63.2269 79.1830  49
  -1  -9 -12 104.115 59.7373  49
   1   9  12 27.3073 34.5975  38
  -1  -9 -12 27.2862 47.7126  32
  -1   9 -12 10.0364 39.8278  52
   1 -10 -12 588.356 94.4432  40
   1 -10 -12 699.280 95.8337  35
  -1 -10  12 624.795 53.1703  34
   1  10 -12 610.850 71.8425  33
   1  10 -12 694.834 71.0626  52
  -1  10  12 670.473 65.3843  45
  -1 -10  12 534.515 47.2484  27
   1 -10 -11 9528.12 493.558  40
  -1 -10  11 7930.64 443.153  55
   1 -10 -11 9994.13 497.224  35
  -1 -10  11 9086.63 449.210  34
   1  10 -11 8937.05 471.360  33
  -1  10  11 8955.34 457.396  45
   1  10 -11 8579.24 455.061  44
   1 -10 -11 9153.56 480.184  51
  -1 -10  11 8273.35 444.830  27
   1  10 -10 1978.58 146.199  46
   1  10 -10 1659.05 134.690  44
  -1  10  10 1730.99 161.092  24
  -1 -10  10 1958.21 144.563  23
   1 -10 -10 2314.97 192.649  40
  -1  10  10 1690.33 169.379  56
   1  10 -10 1783.63 137.851  39
   1 -10 -10 2048.91 188.610  35
   1  10 -10 1908.67 150.506  33
  -1 -10  10 1878.54 124.779  27
  -1  10  10 1906.96 136.992  45
   1 -10 -10 1776.08 132.424  30
  -1 -10  10 1986.20 131.410  55
   1  10 -10 1905.95 113.473  29
  -1  10  10 1970.75 144.817  38
  -1 -10  10 1701.63 119.118  47
  -1 -10   9 14497.9 738.489  55
   1  10  -9 13970.2 750.560  46
  -1  10   9 14516.3 741.827  45
  -1 -10   9 14090.5 753.043  23
  -1  10   9 14576.8 795.518  56
   1 -10  -9 14613.0 777.828  40
  -1  10   9 14764.7 749.143  38
   1 -10  -9 12550.2 741.143  36
  -1  10   9 14194.0 772.745  20
   1 -10  -9 14937.1 788.093  35
   1  10  -9 14918.7 760.513  33
   1  10  -9 14167.4 742.782  44
   1  10  -9 14718.6 750.649  39
   1 -10  -9 14574.6 752.815  30
  -1 -10   9 14253.7 732.193  47
   1  10  -9 14596.5 725.960  29
  -1 -10   9 15326.2 736.721  27
  -1 -10   8 533.322 78.6448  47
   1  10  -8 670.199 89.7779  46
  -1  10   8 652.254 102.899  20
  -1  10   8 671.251 86.7894  45
  -1 -10   8 667.268 85.3217  23
   1 -10  -8 611.048 135.191  40
   1 -10  -8 616.040 106.002  22
   1  10  -8 656.100 91.1815  39
  -1  10   8 767.689 97.5011  38
  -1  10   8 542.882 114.654  56
   1 -10  -8 423.242 93.7053  36
   1  10  -8 697.218 88.3295  44
   1 -10  -8 755.108 145.885  35
  -1 -10   8 491.539 77.8453   9
   1  10  -8 598.194 93.6107  33
  -1 -10   8 441.896 75.0069  19
   1  10  -8 632.573 84.4412  31
  -1 -10   8 872.446 93.1672  55
   1 -10  -8 641.227 118.133  30
   1  10  -7 13413.5 751.285  46
  -1  10   7 14456.1 793.846  24
  -1  10   7 15769.3 752.711  45
   1  10  -7 16100.0 804.077  25
  -1  10   7 13471.9 760.009  10
   1 -10  -7 13623.8 784.544  35
   1 -10  -7 13485.0 772.552  30
   1 -10  -7 14044.6 787.176  22
   1  10  -7 15159.2 752.885  44
  -1 -10   7 14279.6 757.482  23
   1 -10  -7 13432.6 770.177  40
   1  10  -7 15740.6 764.694  39
   1 -10  -7 15798.4 816.835  11
  -1  10   7 14981.6 758.665  38
  -1 -10   7 14389.9 758.636   9
  -1  10   7 14693.2 788.543  20
  -1 -10   7 13770.9 755.685  19
   1  10  -7 16069.2 772.384  33
   1  10  -7 14229.8 754.626  31
  -1 -10   7 15425.5 751.424  55
   1 -10  -7 12987.2 741.525  26
  -1 -10   7 14632.0 748.916  47
  -1  10   7 15225.4 807.985  56
   1  10  -6 2903.07 215.977  25
  -1 -10   6 2680.03 178.132  47
  -1  10   6 2783.25 177.423  45
   1  10  -6 2904.69 180.090  44
  -1  10   6 2084.08 209.930  28
  -1  10   6 2041.89 174.906  10
  -1 -10   6 2207.42 170.481  23
   1 -10  -6 2418.67 196.586  40
   1 -10  -6 2586.69 219.172  22
   1  10  -6 2711.68 186.891  39
  -1  10   6 2909.35 187.416  38
  -1 -10   6 2224.77 172.540   9
  -1  10   6 2477.81 204.653  20
   1 -10  -6 2332.86 209.340  35
  -1 -10   6 2542.04 181.870  19
   1  10  -6 2687.29 185.353  33
  -1 -10   6 2618.18 177.296  55
   1  10  -6 2609.13 176.523  31
  -1  10   6 3019.03 229.555  56
  -1  10   6 2260.06 203.786  24
   1 -10  -6 2210.92 164.274  48
  -1 -10   5 20254.4 1019.74  47
  -1  10   5 18883.9 1028.28  10
   1 -10  -5 22705.5 1092.27  11
  -1 -10   5 19837.0 1020.92  23
   1 -10  -5 18858.0 1025.74  40
  -1 -10   5 20726.7 1006.75  26
   1  10  -5 21572.4 1034.10  39
  -1  10   5 18823.7 1058.47  28
  -1  10   5 21712.3 1028.33  38
  -1  10   5 21216.3 1021.32  45
  -1 -10   5 19394.6 1022.92   9
  -1  10   5 21320.2 1060.24  20
   1 -10  -5 17768.7 1033.55  35
  -1 -10   5 20756.1 1011.68  48
   1 -10  -5 18383.3 1022.83  17
  -1 -10   5 18525.6 1027.40  19
   1  10  -5 22569.6 1038.97  33
   1  10  -5 21588.2 1065.21  25
   1  10  -5 19645.6 1023.89  31
  -1 -10   5 21044.7 1018.11  55
  -1  10   5 22481.3 1080.62  56
  -1  10   5 20737.0 1067.46  24
   1 -10  -5 19320.7 1048.32  30
   1 -10  -5 17649.3 1011.66  48
  -1 -10   4 1747.29 139.394  47
   1  10  -4 1576.79 157.267  10
  -1  10   4 2157.03 185.045  24
  -1  10   4 1968.35 144.120  45
  -1  10   4 1591.91 138.705  10
  -1 -10   4 1877.81 133.607  23
  -1  10   4 1733.78 175.059  56
   1 -10  -4 1483.95 143.933  40
  -1 -10   4 1801.58 133.963  48
   1  10  -4 1937.52 147.377  39
   1 -10  -4 1654.77 186.967  22
  -1  10   4 1980.77 148.659  38
  -1 -10   4 1712.54 136.202   9
  -1  10   4 1533.05 159.693  20
   1 -10  -4 1693.24 156.460  35
  -1 -10   4 1784.91 129.327  26
  -1 -10   4 1779.85 149.857  19
   1 -10  -4 1504.96 133.957  19
   1  10  -4 1917.13 149.251  33
   1  10  -4 1835.29 140.496  31
   1  10  -4 1735.22 164.542  25
   1 -10  -4 1920.93 181.756  30
   1 -10  -4 2035.29 202.922   8
  -1 -10   4 1937.31 150.113  17
  -1 -10   4 1824.22 140.404  55
   1 -10  -4 1762.65 202.869  11
   1 -10  -4 1655.53 148.525  17
  -1  10   4 1635.15 192.621  28
  -1  10   4 1876.07 150.092  39
  -1  10   3 27342.0 1306.01  38
   1  10  -3 27636.2 1342.98  25
  -1  10   3 28591.5 1349.88  24
  -1  10   3 26844.2 1299.86  45
  -1 -10   3 23663.3 1293.59  47
   1 -10  -3 29016.1 1365.15  11
   1  10  -3 26465.7 1305.42  39
   1 -10  -3 27529.4 1354.62  22
  -1 -10   3 24896.0 1297.13   9
  -1  10   3 24430.7 1340.99  28
  -1 -10   3 25988.9 1314.19  19
  -1  10   3 25297.7 1310.04  10
   1  10  -3 25311.3 1300.90  31
   1 -10  -3 23600.7 1305.06  19
  -1  10   3 26308.6 1346.96  56
   1 -10  -3 25517.9 1320.23  17
   1 -10  -3 24301.2 1324.64  30
   1 -10  -3 28836.0 1361.97   8
  -1 -10   3 24656.9 1306.41  17
   1  10  -3 26539.7 1337.29  10
  -1 -10   3 25720.4 1288.62  26
  -1  10   3 27701.4 1307.41  39
  -1 -10   3 25067.7 1290.98  48
  -1  10   2 1695.12 136.372  39
   1  10  -2 1700.73 163.975  25
  -1  10   2 1624.90 162.978  24
  -1  10   2 1555.27 130.683  45
   1  10  -2 1654.81 154.061  10
  -1  10   2 1444.63 143.975  42
   1 -10  -2 1690.40 178.596   8
   1 -10  -2 1520.82 156.302  17
   1 -10  -2 1560.92 180.464  22
   1  10  -2 1607.12 135.351  39
  -1  10   2 1801.60 144.184  38
  -1 -10   2 1440.75 118.309   9
  -1 -10   2 1691.44 148.708  19
   1 -10  -2 1650.62 149.543  19
   1  10  -2 1574.19 129.182  31
  -1  10   2 1561.94 133.854  10
  -1  10   2 2013.50 180.870  56
   1 -10  -2 1439.47 161.326  30
  -1 -10   2 1659.06 124.798  26
  -1 -10   2 1644.19 144.352  17
  -1 -10   2 1914.23 137.619  55
   1 -10  -2 1601.59 177.344  11
  -1  10   2 1404.06 193.278  28
  -1 -10   2 1703.06 133.272  48
  -1 -10   1 17558.2 906.267  47
  -1  10   1 18563.9 952.288  24
  -1  10   1 17757.1 908.779  45
  -1  10   1 17323.1 914.867  10
   1  10  -1 18719.0 941.984  10
   1  10  -1 21487.3 1003.01  25
  -1 -10   1 16827.1 896.690  26
  -1  10   1 17224.0 923.199  42
  -1  10   1 17643.2 907.782  39
   1  10  -1 19094.4 917.536  39
   1 -10  -1 18322.1 951.885  22
  -1  10   1 18495.3 914.424  38
   1 -10  -1 18241.7 946.590  11
   1 -10  -1 17317.9 908.703   9
   1 -10  -1 17432.5 930.271  19
   1  10  -1 17351.0 907.551  31
  -1 -10   1 17024.4 897.050  30
  -1  10   1 16271.8 949.438  28
   1 -10  -1 19095.0 955.061   8
  -1 -10   1 18064.7 902.501  55
  -1 -10   1 18410.0 927.267  17
   1 -10  -1 16087.0 919.358  30
  -1 -10   1 17694.2 906.456  48
  -1  10   0 8513.41 521.942  25
  -1 -10   0 10300.2 534.863  47
  -1  10   0 11405.4 588.828  24
   1  10   0 9810.82 545.802  24
  -1  10   0 9689.51 539.039  10
  -1  10   0 9660.78 535.780  45
   1  10   0 9417.17 558.681  10
  -1  10   0 10040.2 560.460  42
  -1 -10   0 10526.7 524.760  55
  -1  10   0 10697.8 540.829  31
   1 -10   0 10487.3 574.480  22
  -1  10   0 10206.7 536.951  39
   1  10   0 11249.0 550.445  39
  -1  10   0 10514.9 542.812  38
   1 -10   0 8552.27 539.489  30
   1 -10   0 10956.0 550.302   9
  -1 -10   0 9881.50 553.161  19
   1  10   0 11053.5 749.536  25
   1  10   0 9866.55 532.661  31
  -1 -10   0 9619.91 527.041  30
  -1 -10   0 10301.8 556.686  17
   1 -10   0 10319.3 568.787   8
   1 -10   0 10085.3 567.690  11
   1 -10   0 9335.41 559.704  17
  -1  10   0 8442.27 573.093  28
  -1 -10   0 10782.7 542.356  48
  -1 -10   0 9918.53 527.624  26
  -1  10  -1 28791.3 1593.84  25
  -1 -10  -1 32500.1 1596.02  47
  -1  10  -1 35008.7 1616.86  38
  -1  10  -1 31107.6 1605.17  45
   1  10   1 33707.3 1618.95  24
   1  10   1 35568.6 1637.77  10
  -1 -10  -1 31736.7 1597.60  49
  -1  10  -1 31413.0 1622.63  42
  -1  10  -1 32816.1 1605.35  39
   1 -10   1 31838.2 1621.12  11
   1 -10   1 33135.3 1619.79   9
  -1  10  -1 31072.1 1658.10  16
  -1 -10  -1 31986.2 1613.27  19
   1 -10   1 32911.1 1630.46  19
  -1 -10  -1 30564.8 1596.76  30
  -1 -10  -1 31319.0 1581.49  55
  -1  10  -1 31450.8 1607.70  10
  -1  10  -1 34403.3 1609.15  31
   1  10   1 32135.3 1598.61  31
   1 -10   1 31731.0 1628.49  22
   1 -10   1 31684.9 1623.01   8
   1 -10   1 32480.4 1629.21  17
  -1  10  -2 1537.18 138.647  25
   1  10   2 2106.27 164.199  24
   1  10   2 2170.39 175.526  10
  -1  10  -2 2190.61 180.499  42
  -1  10  -2 2141.76 159.847  39
  -1  10  -2 2493.47 175.545  38
  -1 -10  -2 1932.13 157.150  35
   1 -10   2 1919.67 165.015   9
  -1 -10  -2 1741.34 146.914  19
   1 -10   2 2129.31 182.572  19
  -1  10  -2 2083.57 158.150  31
  -1  10  -2 1833.23 134.303  33
  -1 -10  -2 1764.22 157.163  30
  -1 -10  -2 1874.57 136.094  47
  -1 -10  -2 1752.03 147.394  49
   1 -10   2 2183.40 178.592  17
  -1  10  -2 1954.73 161.484  45
   1 -10   2 1918.58 166.253  22
  -1 -10  -2 1854.48 151.819  26
  -1  10  -2 2252.62 203.980  16
  -1 -10  -2 1929.58 158.108  48
   1  10   3 27273.4 1310.64  10
  -1  10  -3 25103.8 1289.84  42
  -1 -10  -3 26313.2 1286.68  40
   1  10   3 20196.1 1275.35   7
  -1  10  -3 25791.5 1281.88  39
  -1  10  -3 28836.5 1295.65  38
  -1  10  -3 22489.0 1274.33  45
  -1 -10  -3 24948.8 1277.89  35
   1 -10   3 26361.4 1293.86   9
  -1  10  -3 23667.2 1257.60  33
  -1  10  -3 27755.6 1281.98  31
  -1 -10  -3 24630.8 1281.57  30
  -1 -10  -3 26029.6 1271.62  48
   1 -10   3 25605.5 1292.07  17
   1  10   3 26324.9 1295.42  24
  -1 -10  -3 24765.2 1269.61  26
  -1  10  -3 28913.0 1349.63  16
  -1 -10  -3 24335.0 1272.97  49
   1 -10   3 25866.1 1298.86  19
   1  10   4 6525.45 386.252  24
  -1  10  -4 6664.21 380.402  38
   1  10   4 6367.80 390.497  10
   1 -10   4 6009.36 375.252  23
  -1 -10  -4 6573.19 382.457  40
  -1 -10  -4 5945.27 375.789  35
   1 -10   4 6598.78 382.059   9
   1 -10   4 6806.97 387.574  19
  -1  10  -4 5822.66 350.126  33
   1  10   4 6265.75 353.604  38
  -1  10  -4 6593.36 417.954  16
  -1  10  -4 6461.11 368.257  31
   1  10   4 6719.61 376.760   7
  -1 -10  -4 6355.21 384.180  30
   1 -10   4 6341.28 378.035  17
  -1 -10  -4 6549.99 371.848  49
  -1 -10  -4 6243.53 357.472  26
  -1 -10  -4 6452.92 357.792  48
  -1  10  -4 6436.14 380.537  42
  -1 -10  -5 11957.1 621.246  26
   1  10   5 12526.9 661.403  24
   1  10   5 11770.9 663.917  10
   1 -10   5 12351.6 650.916  23
  -1 -10  -5 11579.9 652.564  40
   1 -10   5 11108.3 638.901  17
  -1  10  -5 12301.6 650.682  38
  -1  10  -5 11845.4 649.296  46
  -1 -10  -5 11831.8 654.180  35
   1 -10   5 12454.8 651.070   9
   1 -10   5 12672.5 654.076  19
  -1  10  -5 11460.1 623.844  33
  -1  10  -5 12642.9 641.139  31
  -1 -10  -5 11992.7 657.807  30
   1  10   5 11844.1 626.078  38
   1  10   5 11474.2 640.091   7
   1  10   5 14098.3 708.119  25
  -1 -10  -5 11511.4 645.463  49
  -1  10  -5 13080.0 695.505  16
  -1 -10  -5 11619.9 619.873  48
   1  10   6 1023.74 158.155  25
   1  10   6 818.804 109.738  24
  -1 -10  -6 855.955 80.3389  26
   1 -10   6 897.173 108.840  23
  -1 -10  -6 913.511 144.249  40
   1 -10   6 781.994 94.0679  14
  -1  10  -6 933.325 118.239  39
  -1  10  -6 812.903 114.946  38
  -1 -10  -6 863.596 143.109  35
   1 -10   6 971.949 113.395  19
  -1  10  -6 924.364 94.8273  33
  -1  10  -6 921.941 127.238  16
  -1  10  -6 1047.35 105.553  31
  -1 -10  -6 832.302 121.151  49
  -1  10  -6 939.466 115.000  46
   1  10   6 857.100 109.862  10
   1  10   7 17566.6 808.475  25
  -1  10  -7 14515.3 748.616  46
   1  10   7 14363.4 758.070  24
   1 -10   7 13715.7 744.236  23
  -1  10  -7 13169.6 727.324  41
  -1 -10  -7 14836.2 768.416  40
   1 -10   7 12035.1 728.247  14
  -1  10  -7 14911.2 754.105  39
   1  10   7 14079.9 760.365  10
  -1  10  -7 13663.8 744.078  38
  -1  10  -7 14339.1 723.507  37
  -1 -10  -7 14303.0 770.714  35
   1 -10   7 14495.9 746.641   9
   1 -10   7 13748.9 735.262  19
  -1  10  -7 13638.9 726.571  33
  -1  10  -7 14055.9 736.023  31
  -1 -10  -7 14281.9 744.693  30
  -1  10  -7 14382.1 777.542  16
  -1 -10  -7 14444.9 751.798  49
   1  10   8 786.860 175.021  25
  -1  10  -8 613.160 98.3262  46
   1  10   8 508.558 90.9699  24
  -1  10  -8 726.915 93.4130  41
  -1  10  -8 734.806 106.855  39
  -1  10  -8 475.623 74.1077  37
  -1 -10  -8 587.653 135.128  35
  -1  10  -8 458.338 74.7766  33
   1 -10   8 573.991 81.3191   9
  -1 -10  -8 479.000 115.451  32
  -1 -10  -8 708.497 96.7754  30
  -1  10  -8 665.347 103.124  16
   1  10   8 503.697 88.5997  10
  -1 -10  -8 677.726 110.946  49
  -1  10  -9 9762.84 506.647  46
  -1  10  -9 9588.88 493.954  41
  -1  10  -9 9472.32 511.067  39
  -1 -10  -9 9164.20 522.802  35
  -1  10  -9 8116.09 481.448  33
   1  10   9 11097.0 590.283  25
  -1 -10  -9 9429.59 510.530  32
  -1 -10  -9 9047.76 483.220  30
   1  10   9 9159.87 513.531  24
  -1 -10  -9 8838.87 508.434  49
  -1  10 -10 875.360 93.4423  46
   1 -10  10 491.437 66.0026  55
  -1  10 -10 758.873 88.3099  41
  -1 -10 -10 787.619 103.654  49
  -1 -10 -10 749.039 108.561  35
   1  10  10 596.104 73.1362  38
  -1 -10 -10 607.391 97.3895  32
   1  10  11 4516.83 259.179  38
  -1  10 -11 4675.94 267.860  41
  -1 -10 -11 4898.96 272.966  32
  -1 -10 -11 4581.51 280.710  49
   1 -11 -11-92.1217 88.4060  40
   1 -11 -11-20.9313 75.9442  35
   1  11 -11-4.02338 46.3819  33
  -1  11  11-17.2800 49.8577  38
  -1 -11  11 13.3138 30.1180  55
  -1 -11  11 15.9473 28.1745  27
  -1 -11  10 373.444 46.5911  47
  -1  11  10 341.176 61.2393  45
   1  11 -10 399.603 55.7985  44
  -1 -11  10 285.830 55.9396  55
  -1  11  10 256.282 65.3906  38
   1 -11 -10 331.666 115.585  40
   1  11 -10 239.565 55.4164  39
   1 -11 -10 382.064 107.138  35
   1  11 -10 291.093 64.0991  33
   1 -11 -10 311.902 58.3932  30
  -1 -11  10 296.925 48.7253  27
   1  11  -9 9.97212 52.3759  46
  -1 -11   9 21.9297 45.8201  27
  -1  11   9-12.7944 53.6063  45
   1  11  -9 45.2527 48.7527  44
   1  11  -9 19.0086 30.8800  29
   1 -11  -9-28.2343 114.170  40
   1  11  -9 15.1705 54.3128  39
  -1  11   9 4.07189 50.7740  39
  -1  11   9-24.8114 64.6408  38
   1 -11  -9 7.81693 105.276  35
  -1 -11   9 44.7310 45.6322  34
   1  11  -9 29.2711 58.8767  33
   1 -11  -9-31.6685 69.7628  30
  -1 -11   9 20.5228 55.9147  55
  -1 -11   9-14.2289 47.8002  47
  -1  11   8 590.434 86.5234  45
   1  11  -8 750.769 83.3232  44
   1 -11  -8 744.792 135.305  40
   1  11  -8 876.857 99.9290  39
   1 -11  -8 827.263 112.891  22
  -1  11   8 786.487 92.1521  39
  -1  11   8 943.221 104.337  38
   1 -11  -8 594.260 132.405  35
  -1  11   8 714.718 103.717  20
  -1  11   8 713.820 121.780  56
  -1 -11   8 849.648 79.3084  34
   1  11  -8 688.204 94.2695  33
   1  11  -8 865.513 90.8486  46
  -1 -11   8 965.877 96.5868  55
  -1 -11   8 738.424 85.0273  47
   1 -11  -8 857.810 120.785  30
  -1 -11   8 735.706 86.3637  23
  -1  11   7 152.404 65.3617  45
   1  11  -7 171.320 59.2029  44
  -1  11   7 179.277 86.3773  24
  -1 -11   7 82.5672 44.4129  23
   1 -11  -7 50.4064 104.625  40
   1 -11  -7 29.5609 93.7513  22
   1  11  -7 96.0617 67.1959  39
  -1  11   7 47.8996 70.2764  38
  -1 -11   7 98.6875 65.1261  47
   1 -11  -7 196.723 109.737  35
  -1  11   7 67.4256 74.3679  20
  -1 -11   7 65.7229 47.9361  34
  -1 -11   7 51.5432 48.8263   9
   1  11  -7 151.465 71.1069  33
  -1 -11   7 63.7491 56.4240  19
   1  11  -7 62.9126 57.7311  31
   1 -11  -7 135.439 58.9140  26
  -1  11   7 209.969 69.9760  39
  -1  11   7 167.485 88.9930  56
  -1 -11   7 154.364 69.9506  55
   1  11  -7 111.476 70.1259  25
   1 -11  -6 539.937 79.8457  48
   1  11  -6 712.376 112.909  25
   1 -11  -6 507.224 125.043  30
  -1 -11   6 717.459 91.7024  47
  -1 -11   6 602.157 77.0046  23
  -1  11   6 678.625 91.5393  45
  -1  11   6 549.477 112.737  24
   1  11  -6 702.147 83.2755  44
  -1  11   6 625.935 89.6082  39
  -1  11   6 643.427 118.119  56
   1 -11  -6 550.538 112.848  40
   1 -11  -6 656.429 121.807  22
   1  11  -6 725.115 95.4618  39
  -1  11   6 536.540 94.5245  38
   1 -11  -6 444.564 86.6478  26
   1 -11  -6 507.863 118.159  35
  -1  11   6 470.696 98.9206  20
  -1 -11   6 841.870 74.0552  34
  -1 -11   6 540.210 76.5636   9
   1  11  -6 603.992 93.5669  33
  -1 -11   6 470.923 83.3805  19
   1  11  -6 577.277 82.7618  31
  -1 -11   6 821.784 96.8936  55
  -1 -11   6 758.004 81.1160  48
  -1  11   6 596.486 132.931  28
   1 -11  -5 108.635 74.6765  48
  -1 -11   5 146.490 69.5018  47
  -1 -11   5 241.294 67.7733  48
   1  11  -5 91.8587 70.0284  25
  -1  11   5 73.8623 68.5268  45
  -1  11   5 77.9156 82.8409  24
   1 -11  -5 160.979 96.5183  40
  -1  11   5 87.1887 52.9890  10
  -1  11   5 175.868 66.6825  39
   1  11  -5 157.273 75.9799  39
  -1  11   5 50.5239 75.6882  38
  -1 -11   5 89.9804 66.3840  55
   1 -11  -5 64.8562 89.0372  35
  -1  11   5 81.0832 83.5631  20
   1 -11  -5 101.926 74.1380  26
  -1 -11   5 119.849 46.1075  34
  -1 -11   5 87.0099 47.8326   9
  -1 -11   5 57.2392 59.8284  19
   1  11  -5 131.125 72.1328  33
   1  11  -5 144.461 65.7888  31
  -1  11   5 173.098 93.3632  56
   1 -11  -5 25.5519 107.182  30
  -1  11   5-10.5849 115.437  28
   1 -11  -5 12.1053 107.430  11
  -1 -11   5 145.742 54.4980  26
  -1 -11   4 44.4138 66.9449  48
   1  11  -4 63.3325 66.1850  10
  -1 -11   4 50.2979 63.0205  47
  -1  11   4 23.0004 64.6259  45
  -1  11   4 44.5759 85.2616  24
  -1  11   4-12.6214 74.8045  38
  -1  11   4 7.30652 50.9075  10
   1 -11  -4-33.6066 99.8391  22
   1  11  -4 47.4176 67.0140  39
  -1  11   4 82.7263 66.8680  39
   1 -11  -4 50.0912 99.5339  30
   1 -11  -4 23.6078 75.7567  48
  -1 -11   4 55.5789 42.2066  34
  -1 -11   4-5.95253 43.5770   9
  -1 -11   4-21.8858 62.2383  19
   1  11  -4 61.0887 64.8147  33
   1  11  -4 9.99867 70.8321  25
   1  11  -4 61.0629 62.6928  31
  -1  11   4 160.560 97.1517  56
  -1  11   4 112.486 132.910  28
   1 -11  -4 82.6884 115.827  11
   1 -11  -4 76.4028 68.8203  17
  -1 -11   4 86.1783 55.3560  26
  -1 -11   3 27.8361 60.8664  47
   1  11  -3-9.96820 74.0381  25
   1 -11  -3 22.5096 107.919  11
  -1 -11   3 15.3169 64.0027  48
  -1  11   3-33.3514 89.7645  24
  -1  11   3-12.3154 98.1560  56
   1  11  -3 10.2352 59.1834  10
  -1  11   3 44.0333 49.7610  10
   1 -11  -3-10.9675 96.6966  22
   1  11  -3 6.64354 63.9928  39
  -1  11   3 6.33666 62.3965  39
  -1  11   3 6.29899 69.8228  38
   1 -11  -3 24.1261 97.8173  30
  -1 -11   3 5.49594 40.1994   9
  -1 -11   3 82.4537 66.0888  19
   1  11  -3 20.1675 62.3764  33
   1 -11  -3 63.4725 62.1806  19
   1  11  -3-18.4483 58.9661  31
   1 -11  -3-24.2963 76.3443  48
  -1 -11   3 5.35907 67.8904  55
  -1 -11   3-7.03509 58.9496  17
  -1  11   3 5.87276 67.2761  45
  -1  11   3 34.7138 123.823  28
   1 -11  -3-49.3176 74.3927  17
  -1 -11   3 4.68135 58.5280  26
  -1 -11   2 58.6419 65.9877  48
  -1 -11   2-5.62992 70.2486  47
   1  11  -2-10.1243 76.9331  25
  -1 -11   2 52.1927 56.6231  26
   1  11  -2 170.474 68.6590  10
  -1  11   2 36.0816 49.0022  10
   1 -11  -2-63.2302 105.135  22
   1  11  -2 85.5576 68.1270  39
  -1  11   2 31.7367 64.1528  39
  -1  11   2 102.316 74.9183  38
   1 -11  -2 147.252 107.112  11
  -1 -11   2 23.3626 68.3424  19
   1 -11  -2 116.662 69.3564  19
  -1  11   2 47.0882 132.278  28
   1  11  -2 49.0014 56.8965  31
   1 -11  -2 60.2231 91.3435  30
  -1 -11   2 85.3137 66.1801  55
  -1 -11   2 44.1400 68.9710  17
   1 -11  -2 25.7693 75.3725  17
  -1  11   2 67.2314 83.2683  24
   1 -11  -2 31.8980 94.7846   8
  -1  11   2 118.182 84.9254  42
  -1 -11   1 68.2693 71.2615  48
   1 -11  -1 29.7764 89.1698   8
  -1 -11   1 189.563 69.4104  47
   1  11  -1 125.989 69.9833  39
  -1 -11   1 214.147 67.5696  30
  -1  11   1 170.005 96.3328  42
   1  11  -1 216.034 79.5798  10
   1 -11  -1 169.473 104.139  22
  -1  11   1 205.528 69.0661  39
  -1 -11   1 140.498 75.8278  17
  -1 -11   1 136.092 59.6752  26
   1 -11  -1 111.525 87.8726  30
   1 -11  -1 147.850 76.8842  19
  -1  11   1 112.616 74.2406  38
   1  11  -1 188.345 63.9395  31
  -1  11   1 57.7604 48.0849  10
  -1 -11   1 137.166 63.0279  55
  -1  11   1 160.993 88.8480  24
  -1  11   1 154.960 131.854  28
   1 -11  -1 223.270 103.722  11
   1 -11   0-9.18373 87.6726   8
  -1 -11   0 148.542 69.1149  47
  -1  11   0-26.3738 86.1117  16
  -1  11   0 31.7743 82.1793  42
  -1  11   0 21.5938 46.5599  10
  -1  11   0-23.8739 85.9457  24
   1  11   0 59.3878 62.0583  10
  -1 -11   0-5.10316 60.4932  26
  -1  11   0 90.4768 83.2208  38
   1 -11   0 37.5263 86.6381  22
  -1 -11   0 113.576 61.0637  55
  -1  11   0 6.57928 65.9109  39
   1  11   0 20.8619 68.1962  39
   1 -11   0 57.2051 80.1153  30
  -1 -11   0-55.8424 72.9509  19
   1 -11   0 8.46876 74.6828  19
   1 -11   0 17.7535 87.0433  11
   1  11   0 17.9917 61.8099  31
  -1 -11   0 90.5125 68.8576  30
   1 -11   0-17.5080 82.8017  17
  -1 -11   0 128.579 80.7475  48
  -1 -11  -1 1393.86 114.349  47
  -1  11  -1 1187.07 161.048  16
   1  11   1 1504.20 143.776  10
  -1  11  -1 1098.31 139.283  42
   1 -11   1 1287.22 140.018  22
  -1  11  -1 1365.59 125.503  39
   1  11   1 1519.07 139.477  39
  -1  11  -1 1365.24 136.428  38
   1 -11   1 1107.18 110.973   9
  -1 -11  -1 1116.10 121.119  19
  -1  11  -1 1046.92 97.5735  33
  -1 -11  -1 1133.40 97.4019  55
   1  11   1 1243.57 115.180  31
  -1 -11  -1 1186.75 119.150  30
   1 -11   1 1614.32 150.617  17
  -1 -11  -1 1048.49 112.936  26
  -1 -11  -2-32.0681 81.4726  48
  -1  11  -2 84.0802 101.699  16
   1  11   2 59.8172 70.3273  24
  -1  11  -2 96.1935 91.8393  42
   1 -11   2 18.4959 51.3725  23
   1  11   2 49.8382 68.8158  10
   1 -11   2-7.85867 70.0431  22
  -1  11  -2 77.8197 69.6757  39
  -1  11  -2-60.7712 85.0701  38
  -1  11  -2-9.17856 45.4072  33
   1 -11   2 34.6269 77.5580  19
   1 -11   2 41.1733 53.2544   9
   1  11   2 51.7193 61.2864  31
  -1 -11  -2 25.3019 76.0773  30
   1 -11   2 34.1076 83.6115  17
  -1  11  -2 18.7783 47.2128  25
  -1 -11  -2 69.3002 49.4798  47
  -1 -11  -2 84.3846 67.5061  49
   1  11   3 1554.80 149.741  24
   1  11   3 1783.95 161.912  10
  -1  11  -3 2029.34 193.534  16
  -1  11  -3 1817.35 160.183  42
  -1 -11  -3 1739.09 139.946  26
  -1  11  -3 1930.36 160.328  38
  -1 -11  -3 1613.82 148.175  35
   1 -11   3 1438.11 136.975   9
   1 -11   3 1528.76 154.290  19
  -1  11  -3 1688.73 123.159  33
   1 -11   3 1299.36 133.466  23
   1  11   3 1521.25 129.606  31
  -1 -11  -3 1708.62 156.258  30
   1 -11   3 1686.05 153.597  17
  -1 -11  -3 1723.22 142.157  48
  -1 -11  -3 1696.15 143.400  49
   1 -11   3 1576.87 125.694  26
   1  11   4 1272.43 135.368  24
   1  11   4 1782.93 154.425  10
   1 -11   4 1382.04 127.403  23
   1 -11   4 1134.59 120.670  48
  -1  11  -4 1629.99 146.659  38
   1 -11   4 1415.03 139.128  17
  -1 -11  -4 1650.71 127.783  26
  -1 -11  -4 1409.09 146.064  35
  -1  11  -4 1651.37 171.537  16
   1 -11   4 1393.78 128.189   9
  -1 -11  -4 1311.11 123.384  48
   1 -11   4 1485.74 143.445  19
  -1  11  -4 1444.75 113.477  33
  -1 -11  -4 1710.33 162.952  30
   1 -11   4 1212.78 107.181  26
  -1 -11  -4 1320.83 134.723  49
   1 -11   5-13.8951 62.2489  48
   1  11   5-71.1414 68.0341  24
  -1 -11  -5-129.170 61.6379  48
   1 -11   5 21.2619 55.7553  23
  -1  11  -5-22.8272 57.5494  41
   1  11   5-19.3857 58.7967  10
  -1 -11  -5-6.81921 77.1269  49
   1 -11   5-23.2359 39.0500  14
   1  11   5 14.1147 55.7690  38
  -1 -11  -5-65.8938 91.0531  35
  -1  11  -5 9.83008 46.7179  33
   1 -11   5-62.6381 72.3077  19
   1 -11   5 14.7763 60.0508   9
  -1  11  -5-58.5187 77.1359  38
  -1 -11  -5-7.73200 99.9783  30
   1 -11   5-20.9123 61.8029  17
  -1  11  -5-22.3169 70.3631  46
  -1  11  -5-35.8853 69.1780  16
  -1 -11  -5-45.7052 55.4513  26
  -1 -11  -6 109.801 46.9834  26
   1 -11   6 132.749 61.8639  23
  -1  11  -6 21.2242 69.8962  46
  -1  11  -6 187.880 77.1608  16
   1  11   6 129.913 68.8104  24
   1 -11   6 117.898 47.3876  14
  -1  11  -6 136.009 62.2497  41
   1  11   6 101.232 63.2205  10
  -1  11  -6 281.875 81.0135  39
   1  11   6 68.6962 56.7734  38
  -1  11  -6 137.991 76.9503  38
  -1  11  -6 109.891 60.9517  37
  -1 -11  -6 76.1696 97.1612  35
  -1  11  -6 67.3075 50.6305  33
   1 -11   6 35.0241 64.6131  19
   1 -11   6 200.527 61.6859   9
  -1  11  -6 163.363 65.6991  31
  -1 -11  -6 190.316 85.8451  49
   1  11   7-4.31984 53.2812  38
   1 -11   7 46.2567 51.6189  23
  -1  11  -7-40.1588 70.5701  46
   1  11   7-32.7987 58.5503  24
  -1  11  -7-13.9556 58.7774  41
   1  11   7 102.844 58.6355  10
  -1  11  -7 56.7236 71.6009  39
  -1  11  -7 12.4431 52.5447  37
  -1 -11  -7-45.4565 94.4634  35
  -1 -11  -7 18.7250 80.2966  30
  -1  11  -7 50.1002 50.9992  33
   1 -11   7 36.1326 52.8095  19
  -1 -11  -7-6.55279 81.7046  49
  -1 -11  -7-187.215 99.6384  32
  -1  11  -7-22.3002 52.9701  31
  -1  11  -8 30.6279 67.4861  46
   1  11   8 97.3511 58.5530  24
   1 -11   8 52.7189 51.7061  47
  -1  11  -8 61.2674 62.9335  41
  -1  11  -8 84.9965 69.2431  39
   1  11   8 66.4052 51.9400  38
  -1 -11  -8 41.6194 97.8691  35
  -1  11  -8 32.0217 44.4449  33
  -1 -11  -8 23.7500 83.4317  32
  -1 -11  -8 87.9510 69.8273  30
   1 -11   8 47.5377 50.1539  23
  -1 -11  -8 12.1731 76.7465  49
  -1  11  -9 10.6384 63.6032  46
  -1  11  -9 19.1467 52.4106  41
  -1  11  -9-16.9297 66.0814  39
  -1 -11  -9 96.6911 70.6674  49
   1  11   9-13.2038 45.8829  38
  -1 -11  -9 57.5902 85.0686  35
  -1 -11  -9 69.2785 73.2381  32
  -1 -11  -9 56.9927 52.1183  30
   1 -11   9 20.1844 51.7523  55
  -1  11 -10-12.5864 51.7562  46
  -1  11 -10 43.5051 44.3818  41
  -1 -11 -10 76.6916 58.3184  32
  -1 -11 -10 39.3664 63.2368  49
   1  11  10-12.2394 36.7878  38
   1 -11  10 31.9635 36.9267  55
  -1 -12  10 45.9006 30.7306  27
   1 -12 -10 40.0081 35.1639  30
   1 -12 -10 95.0866 80.0644  40
  -1  12  10-13.5408 45.3367  38
   1 -12 -10 104.139 75.2207  35
  -1 -12  10 106.221 29.7131  34
   1  12 -10 45.3777 41.1204  33
  -1 -12  10-4.64795 38.0816  55
  -1 -12  10 49.9359 27.0279  47
  -1 -12   9 9482.61 507.851  47
   1  12  -9 8862.80 502.046  44
   1 -12  -9 10583.7 543.850  40
   1  12  -9 9655.10 517.846  39
  -1  12   9 10149.7 523.933  38
   1 -12  -9 11220.9 550.539  35
  -1 -12   9 10273.6 504.717  34
   1  12  -9 10508.7 528.955  33
  -1 -12   9 10622.2 511.284  27
   1 -12  -9 10117.8 523.292  30
  -1 -12   9 10566.6 516.960  55
   1  12  -8 163.311 48.4201  44
  -1 -12   8 187.091 50.8246  27
   1 -12  -8 159.836 99.3824  40
   1  12  -8 189.210 59.8223  39
  -1  12   8 169.887 49.5310  39
  -1  12   8 199.220 69.8006  38
   1 -12  -8 206.421 100.241  35
  -1 -12   8 311.886 46.9079  34
   1  12  -8 205.308 66.0420  33
   1 -12  -8 283.306 84.6008  30
  -1 -12   8 288.893 66.0701  55
  -1 -12   8 317.454 60.2114  47
  -1 -12   7 15803.5 751.118  47
  -1  12   7 15533.7 793.659  24
  -1 -12   7 16509.1 754.651  55
   1 -12  -7 13942.8 784.270  22
   1 -12  -7 14828.5 767.390  40
   1  12  -7 14943.9 756.700  39
  -1  12   7 14191.1 746.244  39
  -1  12   7 14852.5 758.557  38
   1  12  -7 14113.6 739.018  44
   1 -12  -7 14030.6 768.586  35
  -1 -12   7 14792.6 730.920  34
  -1 -12   7 13577.5 752.401  19
   1  12  -7 15518.0 762.003  33
   1  12  -7 14105.5 748.023  31
  -1  12   7 15877.7 816.342  56
   1 -12  -7 13102.7 734.621  26
   1 -12  -6 22.3528 53.8755  48
  -1 -12   6 15.6348 55.2667  48
  -1 -12   6 47.0439 65.3678  47
   1  12  -6 38.9629 51.7802  44
  -1  12   6 93.9769 76.9810  24
   1 -12  -6 37.6354 100.915  30
   1 -12  -6 150.988 99.1339  40
   1 -12  -6-91.5291 96.6371  22
   1  12  -6 104.921 68.6620  39
  -1  12   6 46.6265 54.6453  39
  -1  12   6 17.7537 72.2000  38
   1 -12  -6-26.8229 93.5928  35
  -1 -12   6 5.81026 40.2226  34
  -1 -12   6 25.9486 59.6241  19
   1  12  -6 107.745 66.3379  33
   1  12  -6 47.1974 65.7421  25
   1  12  -6 48.5308 57.0885  31
  -1  12   6 61.9751 96.8331  56
  -1 -12   6-35.1008 66.9246  55
   1 -12  -6 24.0972 63.7176  26
   1  12  -5 21340.5 1095.81  25
  -1 -12   5 22311.1 1063.26  47
  -1  12   5 20799.3 1106.15  24
   1  12  -5 20625.5 1050.47  44
   1 -12  -5 20586.4 1064.91  40
   1  12  -5 21424.9 1069.36  39
  -1  12   5 20526.3 1060.43  39
  -1  12   5 21685.7 1067.68  38
   1 -12  -5 19244.3 1063.11  35
  -1 -12   5 20336.9 1033.77  34
  -1 -12   5 19366.0 1067.85  19
   1  12  -5 21699.7 1071.38  33
   1  12  -5 20638.4 1060.62  31
   1 -12  -5 21517.4 1083.89  30
  -1  12   5 21645.5 1126.90  56
  -1 -12   5 21889.3 1058.14  55
  -1 -12   5 20802.6 1044.79  26
   1 -12  -5 21738.0 1063.46  26
  -1 -12   5 20803.0 1051.38  48
   1 -12  -5 20924.4 1056.39  48
  -1  12   4 1330.93 151.305  24
   1  12  -4 1311.95 124.300  39
  -1  12   4 1217.93 117.005  39
   1 -12  -4 1417.27 161.868  22
  -1  12   4 1100.60 157.198  56
  -1 -12   4 1244.19 106.052  26
  -1  12   4 1370.29 128.590  38
  -1 -12   4 1313.80 121.765  47
  -1 -12   4 1048.66 120.879  19
   1  12  -4 1136.39 118.007  33
   1 -12  -4 1139.89 122.155  26
   1  12  -4 1278.67 115.712  31
   1 -12  -4 1312.28 149.424  30
   1 -12  -4 1273.18 128.232  17
   1 -12  -4 1410.00 130.685  48
   1 -12  -4 1267.05 161.042  11
  -1 -12   4 1041.36 112.071  48
   1  12  -3 20200.8 1009.80  10
   1 -12  -3 18102.0 980.769  30
   1 -12  -3 19234.7 1010.70  22
   1  12  -3 19110.1 976.328  39
  -1  12   3 18817.1 970.143  39
  -1  12   3 19212.5 974.576  38
  -1 -12   3 18421.3 980.188  19
   1 -12  -3 16661.4 968.968  19
   1  12  -3 20072.1 975.432  33
   1  12  -3 18553.3 968.359  31
  -1 -12   3 20150.7 966.305  55
  -1  12   3 18997.3 1013.74  24
   1 -12  -3 20398.8 1016.06  11
   1 -12  -3 19101.9 987.599  17
  -1 -12   3 19697.1 959.126  26
  -1 -12   3 18550.9 962.159  48
   1 -12  -3 17963.7 970.197  48
   1  12  -2-6.69415 67.1764  39
  -1 -12   2 250.606 75.0380  47
  -1  12   2 34.5985 83.1303  24
  -1  12   2 132.018 80.1732  42
   1  12  -2 91.3348 61.6898  10
   1 -12  -2 143.426 95.1506  22
  -1  12   2 70.7601 65.3624  39
  -1  12   2 105.558 74.4837  38
   1  12  -2 72.7500 62.3970  33
   1 -12  -2 46.0316 68.8540  19
   1 -12  -2 98.7740 92.4507  30
  -1 -12   2 68.2105 62.0275  26
   1  12  -2 160.545 68.1104  31
  -1 -12   2 103.884 66.1085  55
  -1 -12   2 54.7753 71.3005  48
   1 -12  -2 110.323 77.7023  17
   1 -12  -2 20.1272 95.2659  11
  -1 -12   1 24854.9 1182.76  47
   1 -12  -1 21926.6 1183.78  30
  -1  12   1 23759.5 1231.39  24
   1 -12  -1 24700.7 1207.59  17
  -1 -12   1 23542.2 1173.05  26
  -1  12   1 22238.3 1189.34  42
   1 -12  -1 23475.0 1215.20  22
  -1  12   1 23177.8 1187.07  39
   1  12  -1 23250.0 1188.64  39
  -1  12   1 23847.1 1191.17  38
  -1 -12   1 23590.1 1180.92  48
  -1 -12   1 23365.2 1198.41  19
   1 -12  -1 22672.4 1196.99  19
   1  12  -1 25179.2 1187.29  31
   1  12  -1 23000.6 1214.60  10
  -1 -12   1 23134.8 1172.62  30
  -1 -12   1 24106.9 1173.46  55
   1 -12  -1 24258.8 1213.41  11
   1 -12  -1 21738.2 1181.88  48
  -1  12   1 20431.4 1227.63  16
  -1 -12   0 582.179 104.844  48
   1 -12   0 757.183 107.869  48
  -1  12   0 811.367 139.057  16
   1  12   0 741.246 130.396  25
  -1  12   0 815.702 111.466  42
   1  12   0 794.192 111.442  10
   1 -12   0 978.578 124.575  22
   1  12   0 940.552 112.785  39
  -1 -12   0 860.394 100.253  30
  -1 -12   0 731.075 94.8658  26
  -1  12   0 790.788 105.653  39
   1 -12   0 1057.72 124.817  19
  -1 -12   0 871.540 108.930  19
  -1 -12   0 860.413 102.438  47
   1  12   0 986.293 102.624  31
  -1  12   0 789.245 114.089  38
   1 -12   0 828.984 107.822  30
   1 -12   0 907.843 122.361  17
  -1 -12   0 793.642 85.6103  55
   1 -12   0 888.473 117.763  11
   1 -12   0 804.958 105.678  26
  -1 -12  -1 10121.1 538.092  47
  -1  12  -1 11106.1 564.934  38
   1  12   1 10235.1 580.763  10
  -1  12  -1 9792.64 560.035  42
   1 -12   1 10592.5 571.706  22
  -1  12  -1 10455.3 558.802  39
   1  12   1 11339.8 567.434  39
  -1 -12  -1 10176.9 543.173  26
  -1 -12  -1 8824.62 549.391  19
   1  12   1 10457.0 550.813  31
  -1 -12  -1 10274.0 547.482  30
   1 -12   1 10347.0 570.501  17
   1  12   1 11579.7 660.131  25
  -1  12  -1 10601.0 613.388  16
   1 -12   1 10062.5 544.307  26
   1 -12   1 9427.49 547.581  48
  -1 -12  -2 1377.20 108.969  47
   1  12   2 1579.85 151.097  10
   1 -12   2 1260.94 117.942   9
  -1  12  -2 1721.83 144.388  39
   1  12   2 1930.34 156.098  39
  -1  12  -2 1821.33 150.058  38
   1 -12   2 1657.78 151.433  19
  -1  12  -2 1263.83 108.298  33
   1  12   2 1561.13 510.416  25
   1  12   2 1336.39 125.946  31
  -1 -12  -2 1587.84 142.057  30
   1 -12   2 1412.49 141.215  17
   1 -12   2 1596.84 125.336  26
  -1  12  -2 1489.73 173.777  16
  -1 -12  -2 1392.06 138.558  48
   1 -12   2 1471.89 133.847  48
  -1  12  -3 14059.8 676.173  38
   1  12   3 13365.0 968.328  25
  -1 -12  -3 12061.1 654.071  35
   1 -12   3 11801.4 657.332   9
  -1  12  -3 12632.0 713.457  16
   1 -12   3 13247.5 681.783  19
  -1  12  -3 11564.2 637.558  33
   1  12   3 12987.2 656.237  31
  -1 -12  -3 12821.2 667.402  30
   1 -12   3 12302.6 642.687  26
   1 -12   3 12918.6 675.161  17
  -1 -12  -3 12093.2 654.279  48
  -1 -12  -3 12215.4 657.411  49
   1  12   3 13207.3 691.977  10
   1 -12   3 12065.0 653.305  48
  -1 -12  -3 12682.7 652.996  26
   1 -12   4 282.927 76.9660  48
  -1  12  -4 457.598 96.7008  16
  -1  12  -4 337.294 83.7797  46
   1 -12   4 166.027 60.8197  23
   1  12   4 544.480 93.4146  10
  -1  12  -4 383.785 91.6527  38
  -1 -12  -4 402.483 92.8205  35
  -1  12  -4 362.339 58.6098  33
   1 -12   4 470.782 89.0393  19
   1 -12   4 450.082 72.3924   9
   1  12   4 190.774 64.2933  31
  -1 -12  -4 521.250 103.719  30
   1 -12   4 263.339 76.4936  17
  -1 -12  -4 422.108 80.8036  48
  -1 -12  -4 313.029 86.0376  49
  -1 -12  -4 247.002 68.9073  26
   1 -12   4 323.477 59.3231  26
   1  12   5 16145.6 847.125  10
   1 -12   5 15021.5 817.629  23
  -1 -12  -5 15081.9 800.711  26
  -1  12  -5 17063.4 829.567  38
   1  12   5 15434.4 803.996  38
  -1 -12  -5 15930.5 826.124  35
   1 -12   5 16624.4 834.778  19
  -1  12  -5 15377.5 800.489  33
  -1 -12  -5 15623.9 802.056  48
   1  12   5 15765.8 812.291  31
  -1 -12  -5 16235.4 833.456  30
   1 -12   5 16367.3 825.791  17
  -1  12  -5 16039.1 828.709  46
  -1 -12  -5 16889.3 826.678  49
  -1  12  -5 17238.1 867.719  16
   1 -12   5 15283.9 804.325  48
  -1  12  -6 39.7787 70.2171  39
   1 -12   6 98.8684 50.5164  23
  -1  12  -6 47.3014 66.7011  38
   1  12   6 46.8868 49.1857  38
  -1 -12  -6 47.6280 77.2155  49
  -1  12  -6 80.5302 51.2405  37
  -1  12  -6 100.195 68.9941  46
  -1 -12  -6 24.6563 87.8905  35
  -1  12  -6 42.0040 41.8374  33
   1 -12   6 44.2528 57.5723  19
  -1 -12  -6 152.073 71.3891  32
   1  12   6 8.88059 49.1278  31
  -1 -12  -6 74.2823 86.7989  30
  -1 -12  -6 45.1788 39.0767  26
   1 -12   7 9475.38 546.674  47
  -1  12  -7 11795.8 569.699  46
  -1 -12  -7 11152.5 565.368  49
  -1  12  -7 9855.11 538.484  41
   1  12   7 10923.8 544.932  38
  -1 -12  -7 10734.1 569.972  35
  -1  12  -7 9811.94 538.416  33
  -1 -12  -7 11649.3 560.491  32
   1  12   7 10402.8 547.557  31
  -1  12  -7 12055.5 575.341  39
   1 -12   8 579.541 66.3844  47
  -1  12  -8 805.273 87.9149  46
  -1 -12  -8 734.036 90.7960  49
  -1  12  -8 611.169 66.7014  41
  -1  12  -8 756.633 91.3088  39
   1  12   8 631.809 66.7251  38
  -1 -12  -8 566.263 96.1487  35
  -1 -12  -8 627.806 83.3548  32
   1  12   8 585.167 65.8368  31
  -1 -12  -8 671.027 79.3941  30
   1 -12   8 545.169 77.3440  55
  -1  12  -9 8046.62 411.151  41
  -1  12  -9 9437.72 439.977  39
   1  12   9 7773.77 414.184  38
  -1 -12  -9 8410.96 425.837  32
   1  12   9 7622.09 411.867  31
  -1 -12  -9 8241.29 416.697  30
   1 -12   9 7269.56 416.851  55
  -1  12  -9 10080.4 438.978  46
  -1 -12  -9 8321.97 433.435  49
   1 -13  -9 44.3499 62.1253  40
   1  13  -9 51.0389 34.3615  39
  -1 -13   9-14.3313 38.8276  55
  -1  13   9-22.2735 43.9337  38
   1 -13  -9-38.3373 64.1564  35
  -1 -13   9 27.3329 19.1687  34
   1  13  -9-3.30110 38.0648  33
  -1  13   9 49.1160 39.8966  31
  -1 -13   9-7.92727 29.3397  27
   1 -13  -9 56.6465 43.4286  30
  -1 -13   9 28.2710 29.8072  47
  -1 -13   8 544.650 54.7726  27
   1 -13  -8 493.600 90.7456  40
   1  13  -8 563.030 62.2954  39
  -1  13   8 428.814 67.0856  38
  -1 -13   8 599.928 59.5517  47
   1 -13  -8 383.875 85.1852  35
  -1 -13   8 574.124 66.5542  55
  -1 -13   8 394.818 39.9730  34
   1  13  -8 523.046 67.3981  33
  -1  13   8 289.816 62.5082  31
   1 -13  -8 512.169 80.8002  30
   1 -13  -7 107.343 76.3231  40
   1  13  -7 84.7453 51.2393  39
  -1  13   7 81.9784 41.0674  39
  -1  13   7 115.756 64.5921  38
  -1 -13   7 139.506 53.6517  47
   1 -13  -7 60.5281 74.1706  35
  -1 -13   7 59.0647 27.5608  34
   1  13  -7 67.1483 51.8415  33
  -1  13   7 27.0187 51.5646  31
   1 -13  -7 67.5050 37.7968  26
  -1 -13   7 94.1092 45.3536  27
  -1 -13   7 160.476 60.2147  55
  -1 -13   6 226.226 54.1332  48
  -1 -13   6 213.705 63.5939  47
   1  13  -6 211.908 43.1921  44
   1 -13  -6 90.6241 82.4657  40
   1  13  -6 187.031 62.2459  39
  -1  13   6 188.475 52.8449  39
  -1  13   6 229.948 75.3483  38
   1 -13  -6 293.305 82.1340  35
   1  13  -6 228.298 61.7012  33
  -1  13   6 138.502 68.1553  24
   1  13  -6 225.702 54.5876  31
   1 -13  -6 115.807 81.1457  22
  -1  13   6 163.030 62.8180  31
   1 -13  -6 107.436 93.2583  30
  -1 -13   6 173.415 68.2349  55
   1 -13  -6 142.919 57.1359  26
  -1 -13   5 72.9496 58.1337  48
   1 -13  -5 89.5563 63.5950  48
  -1 -13   5 48.4656 65.3943  47
   1  13  -5 98.1948 44.1796  44
   1  13  -5 91.2858 69.1183  39
  -1  13   5 85.4929 52.2612  39
  -1  13   5 141.801 70.4549  38
  -1 -13   5 91.9984 53.3457  19
   1  13  -5 79.0166 59.6428  33
  -1  13   5 80.2527 70.5597  24
   1  13  -5 78.8999 51.7557  31
  -1  13   5 60.8662 61.2563  31
   1 -13  -5 166.968 95.0704  30
  -1 -13   5 59.1263 45.1245  26
   1 -13  -5 71.0084 64.6088  26
  -1 -13   4 684.458 88.1246  48
  -1 -13   4 831.837 93.9653  47
  -1  13   4 621.452 107.942  24
   1 -13  -4 616.690 113.953  30
   1  13  -4 748.115 72.5729  44
   1 -13  -4 517.242 113.240  22
   1  13  -4 741.365 91.4557  39
  -1  13   4 575.128 79.4719  39
  -1  13   4 593.302 92.0043  38
  -1 -13   4 642.738 91.3375  19
   1  13  -4 682.648 87.8054  33
   1  13  -4 655.909 81.4023  31
  -1  13   4 720.193 89.6896  31
   1 -13  -4 724.489 96.8398  48
  -1 -13   4 819.952 92.8870  55
  -1 -13   4 686.767 77.1597  26
   1 -13  -4 627.920 88.6241  26
  -1 -13   3 332.862 76.1975  48
   1 -13  -3 306.557 86.1543  48
   1  13  -3 340.329 77.6401  25
  -1  13   3 281.893 91.0637  24
   1 -13  -3 451.639 106.181  22
  -1  13   3 301.558 66.5591  39
  -1  13   3 253.941 82.1276  38
   1 -13  -3 197.556 95.4785  30
  -1 -13   3 240.107 70.6799  19
   1  13  -3 366.265 76.2058  33
   1  13  -3 325.052 67.2571  31
  -1  13   3 363.350 77.5812  31
  -1 -13   3 361.099 67.1940  26
  -1 -13   3 424.087 76.8789  55
   1  13  -3 320.552 76.6965  39
   1 -13  -3 235.154 77.5072  17
  -1 -13   2 246.387 76.3294  48
  -1  13   2 258.630 95.0102  16
  -1  13   2 223.301 80.2918  38
   1 -13  -2 212.971 90.6648  30
   1  13  -2 289.251 73.7313  10
   1 -13  -2 180.224 93.8134  22
   1  13  -2 287.707 78.3051  39
  -1  13   2 344.016 76.0598  39
   1  13  -2 141.366 69.1756  25
  -1 -13   2 218.553 68.7202  19
   1  13  -2 252.712 65.5615  33
   1 -13  -2 141.356 68.8874  19
   1  13  -2 439.382 76.2466  31
  -1 -13   2 401.760 70.9684  55
  -1 -13   2 314.809 76.9940  47
   1 -13  -2 191.949 79.7153  17
  -1 -13   2 277.960 66.3626  26
   1 -13  -2 179.961 76.9378  26
  -1 -13   1 214.667 75.9792  48
   1 -13  -1 185.057 87.8695  48
  -1 -13   1 330.031 73.5908  47
  -1  13   1 277.464 95.0438  16
   1  13  -1 234.586 75.0807  25
   1  13  -1 241.405 77.2713  10
   1 -13  -1 27.1340 84.2620  22
  -1  13   1 182.548 71.1370  39
   1  13  -1 284.593 74.7037  39
  -1  13   1 230.273 76.4341  38
  -1 -13   1 232.673 69.4336  19
   1  13  -1 295.811 73.8836  33
   1 -13  -1 233.222 75.8643  19
   1  13  -1 185.597 68.0027  31
  -1 -13   1 224.453 65.9806  30
  -1 -13   1 288.553 64.7255  55
   1 -13  -1 250.672 85.8428  30
   1 -13  -1 163.393 76.2622  17
  -1 -13   1 234.671 66.4834  26
   1 -13  -1 311.986 78.0978  26
  -1 -13   0 228.803 83.3709  48
  -1 -13   0 219.225 63.3727  47
  -1  13   0 151.981 90.1704  16
   1  13   0 18.5915 66.4829  25
   1  13   0 318.901 78.0815  10
   1 -13   0 127.593 83.1888  22
  -1  13   0 182.407 74.9672  39
   1  13   0 228.902 77.1333  39
  -1  13   0 181.609 79.2977  38
   1 -13   0 116.959 72.9422  19
   1  13   0 179.075 62.9548  31
  -1 -13   0 224.149 73.1704  30
   1 -13   0 274.560 73.5019  30
  -1 -13   0 185.242 53.5303  55
   1 -13   0 257.179 86.8295  48
  -1 -13   0 226.624 71.5375  26
   1 -13   0 214.385 74.4868  26
  -1 -13  -1 105.787 68.5779  26
   1 -13   1 102.236 79.6635  48
  -1 -13  -1 116.955 55.7588  47
   1  13   1 192.309 79.3490  25
   1  13   1 174.129 69.3405  10
   1 -13   1 116.950 75.0044  22
  -1  13  -1 206.532 77.0425  39
   1  13   1 126.883 72.7494  39
  -1  13  -1 176.423 85.5000  38
   1 -13   1 143.605 75.6909  17
  -1  13  -1 174.529 85.5040  16
   1 -13   1 101.948 71.5933  19
   1  13   1 147.151 62.6006  31
  -1 -13  -1 32.2226 71.2391  30
   1 -13   1 39.5704 65.4995  26
  -1 -13  -2 94.4691 75.2383  48
   1 -13   2 168.534 79.4288  48
  -1  13  -2 12.1676 82.7044  16
   1  13   2 195.462 122.648  25
  -1  13  -2 67.0012 73.2267  39
   1  13   2 256.919 83.1343  39
  -1  13  -2 106.804 78.8446  38
   1  13   2 136.165 60.6544  31
  -1 -13  -2 209.321 77.8012  30
   1 -13   2 61.8269 71.5969  17
   1 -13   2 121.459 62.3736  26
   1 -13   3 186.732 74.1856  48
  -1  13  -3 210.754 76.1220  46
   1  13   3 267.197 222.850  25
  -1 -13  -3 210.622 75.2791  48
   1  13   3 351.257 85.2679  39
  -1  13  -3 203.536 77.1672  38
   1 -13   3 241.892 72.4501  19
   1  13   3 230.852 61.3860  31
  -1 -13  -3 328.868 87.6993  30
   1 -13   3 350.078 81.4238  17
  -1 -13  -3 198.342 66.5281  26
   1 -13   3 247.175 59.9346  26
   1 -13   4-39.7350 62.9488  48
  -1  13  -4 116.348 66.0311  46
   1  13   4 33.0150 73.2153  39
  -1  13  -4 17.7207 68.5480  38
  -1 -13  -4 67.0969 59.4245  48
   1 -13   4 56.1646 62.2579  19
   1  13   4 231.992 313.948  25
   1  13   4 66.2470 55.2641  31
  -1 -13  -4 23.3648 79.0509  30
  -1 -13  -4 20.4470 52.3754  26
   1 -13   4 28.0363 42.2845  26
  -1  13  -5 129.879 64.8999  46
   1  13   5 205.147 81.7412  39
  -1  13  -5 101.003 60.3443  38
  -1  13  -5 101.870 47.8791  37
   1  13   5 34.0728 50.8914  31
  -1 -13  -5 55.2385 77.0999  30
   1 -13   5 115.065 53.6712  48
  -1 -13  -5 120.956 49.8770  48
  -1 -13  -5 136.715 68.5515  49
  -1 -13  -5 132.150 47.1207  26
   1 -13   6-4.08580 54.8987  47
  -1  13  -6 5.11062 54.2873  46
  -1  13  -6 43.5439 62.1523  39
   1  13   6-33.6035 67.7346  39
   1  13   6 22.0275 41.6516  31
  -1 -13  -6-57.5682 70.1746  30
  -1 -13  -6-9.23208 59.8309  49
   1 -13   7 79.9409 46.6634  47
  -1  13  -7 44.5989 50.7221  46
  -1 -13  -7 82.6424 57.4488  49
  -1  13  -7 95.0597 58.0817  39
   1  13   7 19.1554 55.3191  39
   1  13   7 78.7176 37.6717  31
   1 -13   7 114.851 56.7611  55
   1 -13   8-3.68096 28.9273  47
  -1  13  -8 65.3830 45.9431  46
  -1  13  -8-7.64531 46.2795  39
   1  13   8 7.55832 48.1689  39
  -1 -13  -8 79.5670 38.5061  32
   1  13   8 72.1566 29.4333  31
  -1 -13  -8 103.423 46.4295  30
   1 -13   8 7.74481 39.4082  55
  -1 -13  -8 102.053 46.7777  49
  -1 -14   7 9007.32 456.345  47
   1  14  -7 8793.83 459.631  39
  -1  14   7 8874.49 464.943  38
   1  14  -7 8503.87 461.351  33
  -1  14   7 8772.79 463.747  31
   1 -14  -7 9625.48 472.630  30
  -1 -14   7 9143.11 458.716  55
  -1 -14   6 92.3255 50.0631  55
   1  14  -6 104.482 48.5706  39
  -1  14   6 80.0647 37.8248  39
  -1  14   6 143.495 58.1246  38
   1  14  -6 127.829 49.9771  33
   1 -14  -6 155.027 44.7578  26
   1  14  -6 163.795 43.3991  31
  -1 -14   6 186.635 53.1861  47
  -1  14   6 186.984 55.8868  31
   1 -14  -6 62.0921 72.4510  30
  -1 -14   6 166.483 37.8264  27
  -1 -14   6 152.264 38.9345  48
  -1 -14   5 11061.2 529.627  47
   1  14  -5 10346.7 533.746  39
  -1  14   5 9891.10 522.415  39
   1 -14  -5 10593.4 526.455  26
  -1  14   5 10849.0 539.574  38
   1  14  -5 10435.4 532.279  33
  -1 -14   5 9283.18 511.555  26
   1  14  -5 9862.37 525.437  31
  -1  14   5 10051.7 534.869  31
   1 -14  -5 11139.9 545.980  30
  -1 -14   5 10189.4 517.430  27
  -1 -14   5 10248.1 520.226  48
   1 -14  -5 9824.85 516.843  48
  -1 -14   4 636.864 82.5059  48
   1 -14  -4 753.631 89.9549  48
  -1 -14   4 845.390 86.8416  47
  -1 -14   4 925.861 85.5061  55
   1  14  -4 911.118 91.3688  39
  -1  14   4 759.037 79.3933  39
  -1  14   4 792.997 96.7344  38
   1  14  -4 794.441 83.8284  33
   1  14  -4 795.169 78.5548  31
  -1  14   4 859.188 90.0216  31
   1 -14  -4 887.551 108.115  30
  -1 -14   4 761.403 73.6594  26
   1 -14  -4 763.118 86.0783  26
   1  14  -3 12885.2 667.785  25
   1 -14  -3 10335.7 627.529  47
   1  14  -3 11292.7 623.659  44
   1 -14  -3 13572.9 684.324  22
   1  14  -3 12910.9 652.936  39
  -1  14   3 12869.6 645.407  39
  -1  14   3 13148.0 655.486  38
   1  14  -3 12547.0 641.918  31
  -1  14   3 12027.2 648.153  31
  -1 -14   3 13472.5 639.263  55
   1 -14  -3 13230.7 653.780  30
  -1 -14   3 12558.9 635.823  26
  -1 -14   3 13046.5 642.421  48
   1 -14  -3 14228.1 653.006  48
  -1 -14   2 323.927 74.2934  48
  -1 -14   2 209.117 64.1286  47
   1  14  -2 335.244 72.0707  25
   1 -14  -2 145.995 71.3060  26
   1 -14  -2 427.573 95.9987  22
   1  14  -2 318.771 73.3511  39
  -1  14   2 239.671 65.5358  39
  -1  14   2 341.271 79.6347  38
  -1 -14   2 429.063 61.5901  55
   1  14  -2 405.156 62.0322  31
   1 -14  -2 263.589 79.2904  30
  -1 -14   2 342.168 64.2039  26
   1  14  -1 14851.8 812.236  25
  -1 -14   1 15639.3 784.084  47
   1 -14  -1 15266.3 817.279  22
  -1  14   1 15881.7 796.419  39
   1  14  -1 15096.3 797.440  39
  -1  14   1 16079.5 801.450  38
   1  14  -1 15185.9 789.730  31
   1 -14  -1 14937.0 788.113  30
  -1 -14   1 14736.4 773.456  55
  -1 -14   1 15739.8 785.539  26
   1 -14  -1 15974.2 790.455  26
  -1 -14   1 15361.9 791.543  48
   1 -14  -1 16720.8 799.496  48
  -1 -14   0 523.969 85.9091  48
   1 -14   0 499.618 94.3913  48
  -1 -14   0 417.936 64.3454  47
   1  14   0 394.361 75.7996  25
   1 -14   0 420.337 89.2186  22
  -1  14   0 468.988 81.2551  39
   1  14   0 424.444 82.3111  39
  -1  14   0 516.162 87.2827  38
   1  14   0 510.830 72.9363  31
  -1 -14   0 411.815 69.8361  30
   1 -14   0 412.807 72.6698  30
   1 -14   0 415.775 69.2103  55
  -1 -14   0 582.479 76.3975  26
   1 -14   0 618.902 80.5237  26
   1  14   1 15264.5 832.325  25
  -1 -14  -1 16652.0 806.764  26
  -1  14  -1 16729.4 819.761  39
   1  14   1 15772.3 819.332  39
  -1  14  -1 16374.9 819.675  38
   1 -14   1 16648.7 816.322  48
   1  14   1 16305.9 809.867  31
  -1 -14  -1 15973.4 805.801  30
   1 -14   1 15745.9 804.067  55
  -1 -14  -1 13985.1 787.780  47
   1 -14   1 16982.6 806.309  26
  -1 -14  -2 568.611 86.3252  48
   1 -14   2 629.060 91.9133  48
   1 -14   2 682.134 77.2589  26
  -1  14  -2 759.967 90.9207  39
   1  14   2 632.429 91.0466  39
  -1  14  -2 532.803 85.0449  46
  -1  14  -2 663.278 88.0247  38
   1  14   2 690.217 75.6474  31
  -1 -14  -2 570.057 85.0213  30
   1 -14   2 586.244 85.5909  55
  -1  14  -3 12702.5 645.071  46
   1 -14   3 12688.7 638.473  55
   1  14   3 13012.1 649.130  39
  -1  14  -3 11829.3 640.544  38
  -1 -14  -3 11669.8 628.453  26
   1  14   3 12070.2 633.902  31
  -1 -14  -3 12799.4 641.071  30
  -1 -14  -3 12106.7 632.417  48
   1 -14   3 12320.0 624.319  26
   1 -14   3 12726.6 637.799  48
   1 -14   4 584.216 71.9166  48
  -1  14  -4 652.715 80.5099  46
   1  14   4 563.409 81.3097  39
  -1  14  -4 530.726 59.7606  37
  -1 -14  -4 403.112 61.9992  48
   1 -14   4 511.769 52.7538  26
   1  14   4 551.450 65.4632  31
  -1  14  -4 532.240 72.4289  38
  -1 -14  -4 533.223 84.2658  30
  -1 -14  -4 519.576 60.1176  26
  -1  14  -5 10352.6 511.630  46
  -1 -14  -5 8879.45 486.101  26
   1  14   5 9993.99 513.490  39
  -1  14  -5 9700.55 504.496  38
   1  14   5 10253.8 499.729  31
  -1 -14  -5 10379.3 511.106  30
   1 -14   5 9332.18 507.415  55
   1 -14   5 10028.2 508.267  47
   1 -14   5 9655.68 493.898  48
   1 -14   6 142.055 45.9174  47
  -1  14  -6 155.058 48.5181  46
   1  14   6 224.020 58.3267  39
   1 -14   6 143.172 55.0974  55
   1  14   6 189.480 38.7537  31
  -1 -14  -6 137.111 54.8511  30
  -1 -15   5-29.9528 36.4639  47
   1  15  -5 33.5061 35.5775  39
   1 -15  -5 20.9559 35.6611  26
  -1  15   5 27.9826 43.9823  38
   1  15  -5 44.0116 31.4023  31
  -1  15   5 19.2374 39.3486  31
   1 -15  -5 72.8114 55.6459  30
  -1 -15   5 29.5449 37.5952  55
  -1 -15   5 24.4824 32.0991  48
  -1 -15   5 38.8627 22.7320  27
  -1 -15   4 557.707 60.0653  48
   1  15  -4 668.051 67.8013  39
  -1  15   4 510.710 54.8937  39
  -1  15   4 710.413 76.3198  38
  -1 -15   4 511.071 44.5338  27
   1  15  -4 598.886 56.8141  31
  -1  15   4 584.285 65.7175  31
   1 -15  -4 591.417 75.6211  30
  -1 -15   4 542.187 58.7993  55
   1 -15  -4 506.348 61.5323  26
  -1 -15   4 539.049 51.3110  26
   1 -15  -4 590.776 60.0086  48
  -1 -15   3 37.0120 47.4070  48
   1 -15  -3 70.3298 51.9200  48
  -1 -15   3 7.38256 22.7816  27
  -1 -15   3 103.333 45.3833  47
   1  15  -3 89.2541 50.9067  39
  -1  15   3 86.1408 42.0264  39
  -1  15   3-8.63431 57.2409  38
   1  15  -3 47.4432 37.1002  31
  -1  15   3 27.4836 46.7186  31
   1 -15  -3 98.4756 57.3626  30
  -1 -15   3 63.1558 37.7203  55
  -1 -15   3 68.8751 38.9509  26
   1 -15  -2 175.404 65.5344  48
  -1 -15   2 340.727 53.7666  47
   1 -15  -2 238.421 46.1949  47
  -1  15   2 288.513 53.9367  39
   1  15  -2 325.576 60.8936  39
  -1  15   2 334.810 67.0235  38
  -1 -15   2 356.996 44.7718  55
   1  15  -2 381.289 52.9277  31
   1 -15  -2 272.625 62.8032  30
  -1 -15   2 263.024 59.4562  48
  -1 -15   2 303.146 51.2727  26
   1 -15  -2 287.666 55.7054  26
  -1 -15   1-3.64230 54.4297  48
   1 -15  -1 36.5121 49.1397  47
  -1  15   1 31.7950 45.2589  39
   1  15  -1 67.2988 54.2801  39
  -1  15   1-49.7087 57.5613  38
   1  15  -1 27.4294 41.0147  31
   1 -15  -1 45.3308 51.2064  30
  -1 -15   1 62.8354 38.3984  47
  -1 -15   1 30.9708 44.3419  26
   1 -15  -1 17.3621 49.0987  26
   1 -15   0 64.1890 54.3675  47
  -1  15   0 17.7786 42.5162  46
  -1 -15   0 18.4719 56.3201  48
  -1  15   0 4.12791 47.7424  39
   1  15   0 81.4379 53.6181  39
  -1  15   0 70.9666 58.7678  38
   1  15   0 6.82311 41.1492  31
  -1 -15   0 25.0728 39.1775  30
   1 -15   0-4.04238 61.9558  48
  -1 -15   0-36.6645 35.2433  47
  -1 -15   0 31.6633 45.9595  26
   1 -15   0 37.0742 50.2608  26
   1 -15   1 163.920 65.4410  48
   1 -15   1 257.747 66.5556  47
  -1  15  -1 262.979 53.2257  46
  -1 -15  -1 192.495 50.8863  26
  -1  15  -1 228.365 55.8106  39
   1  15   1 252.129 60.9383  39
  -1  15  -1 243.971 60.4302  38
   1  15   1 214.838 47.3420  31
  -1 -15  -1 166.462 48.6784  30
   1 -15   1 312.883 45.9959  55
   1 -15   1 308.882 54.8711  26
   1 -15   2 211.886 60.9187  48
   1 -15   2 164.904 44.6763  26
  -1  15  -2 173.120 48.0757  46
   1 -15   2 212.653 49.8727  55
  -1  15  -2 305.738 58.9122  39
   1  15   2 181.291 54.9167  39
  -1  15  -2 143.049 53.5029  38
   1  15   2 186.642 42.1802  31
  -1 -15  -2 226.011 50.3705  30
  -1 -15  -2 190.841 53.8178  48
   1 -15   3 3.65555 50.3578  47
  -1  15  -3-16.7298 42.5029  46
   1 -15   3 63.9902 50.0722  48
  -1  15  -3-3.75259 44.2078  39
   1  15   3 58.1114 47.2592  39
  -1  15  -3-20.4276 42.6837  38
   1  15   3-18.9534 35.0146  31
  -1 -15  -3-3.05635 45.1476  30
   1 -15   3 22.3168 45.9826  55
   1 -15   3 50.7995 31.6604  26
  -1 -15  -3 2.44598 37.0224  26
  -1 -15  -3 53.9397 42.2094  48
   1 -15   4 132.627 42.4327  48
  -1 -15  -4 132.965 32.4212  26
   1 -15   4 136.443 50.4668  47
  -1  15  -4 75.4133 39.7891  46
   1  15   4 119.833 45.3608  39
  -1  15  -4 129.512 42.6791  38
   1  15   4 175.915 34.1588  31
  -1 -15  -4 140.414 46.5501  30
   1 -15   4 100.292 47.4514  55
  -2   0  15-16.2396 38.8124  53
   2   0 -15 60.1352 61.0019  51
  -2   0  15-21.3188 28.4608  45
  -2   0  15-51.7578 43.0373  50
   2   0 -15-3.10751 43.2744  29
   2   0 -15 13.8852 43.7557  36
   2   0 -15 25.5263 46.1687  52
   2   0 -14 9962.40 522.274  51
  -2   0  14 9895.98 507.290  50
   2   0 -14 9190.88 525.537  44
   2   0 -14 9650.06 506.181  36
  -2   0  14 9437.02 493.629  45
  -2   0  14 9799.52 507.180  53
   2   0 -14 9142.37 511.523  52
   2   0 -13-32.4089 93.6965  44
   2   0 -13-27.0655 62.2385  40
   2   0 -13-54.0548 68.2985  29
  -2   0  13 98.9589 74.3734  53
   2   0 -13 20.8032 85.0558  52
  -2   0  13 70.4267 76.0701  50
   2   0 -12 7401.11 438.383  15
   2   0 -12 7866.15 444.526  44
  -2   0  12 7239.02 449.521  14
   2   0 -12 7484.21 408.989  40
  -2   0  12 6665.03 428.454  13
  -2   0  12 7189.41 416.904  20
   2   0 -12 7697.97 432.809  52
  -2   0  12 7156.05 429.762  23
   2   0 -12 7163.37 412.005  29
  -2   0  12 7688.54 428.835  53
  -2   0  12 7619.07 423.633  50
  -2   0  11 42.9759 85.6346  50
   2   0 -11-45.8538 91.3686  21
   2   0 -11-30.8162 88.2562  52
   2   0 -11-10.1999 71.6320  15
  -2   0  11 27.3365 66.1276  23
   2   0 -11-41.6587 82.5184  40
  -2   0  11 79.1210 73.0741  14
   2   0 -11 58.5360 101.542  18
   2   0 -11-57.0657 90.6023  35
  -2   0  11 29.6439 59.9291  13
  -2   0  11 31.5264 57.1988  20
  -2   0  11 55.2208 54.5358  34
   2   0 -11 26.4708 86.1343  44
   2   0 -11-6.24999 74.0659  29
  -2   0  11 22.8743 84.8077  53
   2   0 -10 27041.0 1324.74  15
   2   0 -10 26588.3 1306.42  44
  -2   0  10 24767.2 1306.21  23
  -2   0  10 25662.4 1324.55  14
   2   0 -10 28753.6 1337.64  21
  -2   0  10 25579.7 1277.83  27
  -2   0  10 21690.6 1302.01  13
  -2   0  10 21677.3 1288.31  20
   2   0 -10 24931.9 1309.53  35
  -2   0  10 27014.4 1274.13  34
   2   0 -10 25456.0 1304.37  51
   2   0 -10 27433.5 1337.60  18
   2   0 -10 25690.3 1284.31  29
  -2   0  10 26496.6 1297.47  53
  -2   0  10 25124.5 1290.00  50
   2   0  -9 7.26676 68.4025  44
   2   0  -9 18.1481 74.6655  15
  -2   0   9 18.3711 63.9587  14
  -2   0   9 9.59190 50.5703  27
   2   0  -9 9.68926 81.1901  21
   2   0  -9 39.5020 62.3419  29
  -2   0   9 25.4571 55.9470  13
  -2   0   9 34.4294 50.3668  20
  -2   0   9 4.22431 49.6128  34
   2   0  -9 19.8856 84.7892  18
  -2   0   9 6.19228 47.7067  56
  -2   0   9 6.21968 68.9453  53
  -2   0   9-38.6833 61.6657  23
   2   0  -9-22.6177 85.2599  51
  -2   0   9 63.9883 64.4833  50
  -2   0   8 29546.0 1526.06  14
   2   0  -8 31593.8 1523.73  51
   2   0  -8 30165.7 1534.10  21
  -2   0   8 29089.9 1518.25  23
  -2   0   8 28407.0 1518.21  13
  -2   0   8 28588.7 1507.25  20
   2   0  -8 29996.8 1529.41  15
  -2   0   8 32931.6 1496.39  34
  -2   0   8 31112.0 1508.19  53
  -2   0   8 27782.4 1500.91  56
   2   0  -8 32130.2 1507.85  29
  -2   0   8 29794.7 1499.09  27
  -2   0   8 31039.1 1504.23  50
   2   0  -7 4.52675 54.2802  11
   2   0  -7-27.2218 60.9645  15
   2   0  -7 7.98492 45.8852   8
  -2   0   7 45.5599 54.3622  23
  -2   0   7 44.2056 49.3331  14
   2   0  -7 25.7311 43.0419  22
   2   0  -7 7.42330 68.5450  21
  -2   0   7 11.5223 41.1425  13
  -2   0   7 4.50607 39.0877  20
  -2   0   7-6.63717 39.4472  34
  -2   0   7 86.6760 46.8297  27
  -2   0   7 35.1009 37.5719  56
   2   0  -7-22.0979 74.3848  18
   2   0  -7-8.70904 50.8311  29
  -2   0   7 8.88913 48.7651  53
  -2   0   7-16.0660 49.4067  50
  -2   0   6 45976.2 2195.53  23
  -2   0   6 44919.4 2197.30  14
   2   0  -6 45777.2 2209.62  21
  -2   0   6 44105.9 2191.65  13
  -2   0   6 43688.1 2180.83  20
   2   0  -6 42713.8 2207.27  18
  -2   0   6 44902.6 2176.25  56
   2   0  -6 44489.1 2184.50  11
   2   0  -6 44993.1 2182.95   8
  -2   0   6 43567.3 2203.18   1
  -2   0   5 40.6450 46.7220  23
   2   0  -5 52.6353 47.3887   8
   2   0  -5 34.2665 63.0963  18
   2   0  -5-28.8941 62.5192  21
  -2   0   5-19.7308 37.5051  13
  -2   0   5 57.1194 36.4752  20
   2   0  -5-7.47509 48.8141  11
  -2   0   5 53.4863 32.3009  56
  -2   0   5-11.5381 49.4866   1
  -2   0   5-4.65675 41.5070  14
  -2   0   4 19732.7 983.955  23
  -2   0   4 18161.1 981.749  14
  -2   0   4 19294.0 995.084   1
  -2   0   4 18544.9 977.035  13
   2   0  -4 19555.7 994.083  21
  -2   0   4 20383.6 971.507  20
   2   0  -4 19449.3 991.412  18
  -2   0   4 20509.3 965.329  56
  -2   0   3-7.68063 42.4233  23
   2   0  -3-14.1853 55.1913  18
   2   0  -3 23.9002 66.7065  21
  -2   0   3-3.45516 36.5664  13
  -2   0   3 15.3880 47.8232   1
  -2   0   3-13.3337 36.8943  20
   2   0  -2 75513.6 3726.10  21
   2   0  -2 77342.2 3725.39  18
   2   0  -2 74396.9 3722.69   4
  -2   0   2 78189.9 3728.88   1
   2   0  -1 27.3354 48.2155   4
  -2   0   1-5.15039 49.1601   1
  -2   0   1 1.39040 12.8544  16
   2   0  -1 4.86501 53.7427   3
   2   0   0 59757.1 2916.02   4
   2   0   0 59845.7 2901.20   7
   2   0   0 62169.8 2921.70   3
  -2   0   0 60235.9 2903.86  12
  -2   0   0 59853.2 2918.21   1
   2   0   0 57105.3 2890.47   2
   2   0   0 61848.4 2918.40   1
  -2   0   0 59083.4 2885.95  16
  -2   0  -1 20.5264 30.3283  16
   2   0   1 46.1713 61.0863   4
   2   0   1 26.6105 30.1193   7
   2   0   1 17.8620 25.8371   2
   2   0   1-80.3755 70.6056   3
  -2   0  -1 98.1104 54.6564  12
   2   0   1 11.7671 51.6017   1
   2   0   2 37825.5 1899.99   1
   2   0   2 41965.2 1901.09   3
  -2   0  -2 38720.6 1877.99  12
   2   0   2 37556.2 1866.86   2
  -2   0  -2 36343.2 1865.34  16
  -2   0  -3 31.5196 40.9840  16
   2   0   3 16.5606 56.6673   1
   2   0   3 34.9507 56.8187   3
   2   0   3 29.8188 32.3807   2
  -2   0  -3 34.4533 68.8640  12
  -2   0  -4 101891. 5175.72  15
  -2   0  -4 112645. 5211.63  12
  -2   0  -4 111880. 5196.44  16
   2   0   4 104794. 5187.49   2
  -2   0  -5-13.8460 55.5390  16
  -2   0  -5 39.0721 42.1914  15
  -2   0  -5-36.1366 62.0770  41
  -2   0  -5 36.5199 64.3467  37
  -2   0  -5-25.1899 81.6024  12
   2   0   5-21.3064 61.2551   5
  -2   0  -6 14126.7 747.838  15
  -2   0  -6 15525.8 731.744  43
  -2   0  -6 16343.2 764.412  41
  -2   0  -6 16960.2 787.185  16
  -2   0  -6 14371.8 782.719  12
  -2   0  -6 13119.2 732.080  54
   2   0   6 12048.5 782.648   5
  -2   0  -7 19.1295 50.4861  15
  -2   0  -7 35.0958 84.6483  41
   2   0   7-7.14374 50.5895  14
  -2   0  -7-55.4249 82.3411  37
  -2   0  -7 46.0472 61.8784  32
   2   0   7 6.82340 36.9058   6
  -2   0  -7-27.7620 81.5886  12
  -2   0  -7-21.2695 64.8438  54
  -2   0  -7 9.77923 71.5243  16
  -2   0  -8 12372.3 685.695  15
  -2   0  -8 14277.5 706.212  41
  -2   0  -8 13337.4 695.071  37
   2   0   8 11708.3 679.495   6
  -2   0  -8 12226.8 697.259  12
  -2   0  -8 13402.3 672.921  32
  -2   0  -9 51.6271 63.4326  15
  -2   0  -9 16.9386 106.454  41
   2   0   9 7.87398 62.3529  13
  -2   0  -9 15.9286 68.8294  32
  -2   0  -9 31.0932 91.2934  37
  -2   0 -10 10124.7 590.826  37
   2   0  10 11535.7 590.967  13
   2   0  10 10643.2 586.584  20
  -2   0 -10 10099.2 588.160  12
  -2   0 -10 11009.1 569.003  32
  -2   0 -10 11561.0 610.496  41
  -2   0 -11-21.7093 89.7414  41
  -2   0 -11 12.9632 75.4220  37
   2   0  11-6.30089 43.4913  20
  -2   0 -11-22.3616 52.2333  32
   2   0  11 26.3617 63.7651  56
  -2   0 -12 4243.71 263.714  41
  -2   0 -12 4309.11 254.556  37
  -2   0 -12 3914.16 240.944  32
  -2   0 -13 3.21154 52.5229  41
  -2   1  15 675.616 56.1470  45
   2   1 -15 546.778 79.8924  44
   2  -1 -15 695.906 66.7049  36
   2   1 -15 650.323 64.8356  36
  -2  -1  15 498.826 45.1583  45
  -2   1  15 644.625 66.0816  50
  -2  -1  15 791.194 67.2285  53
   2   1 -15 577.098 66.8059  29
  -2   1  15 665.581 62.0633  53
   2   1 -15 676.464 80.5714  51
   2  -1 -15 674.487 88.6128  51
  -2  -1  15 611.441 65.7913  50
  -2   1  14 164.651 65.7395  50
  -2   1  14 110.247 48.3187  45
  -2  -1  14 111.917 40.5930  45
   2  -1 -14 153.782 76.4910  44
   2   1 -14 38.3756 75.4520  44
  -2  -1  14 96.6859 59.0998  50
   2   1 -14 205.417 70.1093  52
  -2  -1  14 220.713 64.4610  53
   2  -1 -14 246.695 68.7484  36
   2   1 -14 217.439 68.3153  36
   2   1 -14 147.981 81.4215  51
  -2   1  14 125.193 59.2401  53
   2  -1 -14 217.784 79.8221  52
  -2  -1  13 1239.35 117.919  50
   2  -1 -13 1171.16 138.138  44
   2   1 -13 1341.08 143.277  44
   2  -1 -13 1043.20 108.712  40
   2  -1 -13 1201.76 121.628  36
  -2  -1  13 1246.67 124.726  53
   2  -1 -13 1054.15 116.705  29
  -2   1  13 1096.88 115.745  53
   2  -1 -13 1001.36 128.191  52
   2   1 -13 1086.79 126.702  52
   2  -1 -13 1084.83 139.950  51
   2   1 -13 1199.54 134.154  51
  -2   1  13 1070.89 116.419  50
  -2   1  13 1263.34 113.561  45
   2   1 -12-39.4240 93.1671  51
  -2  -1  12 156.449 91.8974  53
  -2  -1  12 46.8440 77.1600  50
   2  -1 -12-18.0811 94.9713  44
   2   1 -12 34.0575 88.7654  44
   2   1 -12 37.9435 71.0015  15
  -2  -1  12-9.04175 68.1817  23
   2  -1 -12 30.0379 83.4897  40
   2   1 -12-14.1152 68.8405  40
  -2   1  12 76.3678 67.6634  14
  -2  -1  12 42.2106 67.5496  14
  -2   1  12 40.1266 68.6478  13
   2  -1 -12-11.5774 77.6138  35
  -2  -1  12 46.8455 56.2240  13
  -2   1  12 8.01301 56.2899  20
   2   1 -12 5.70250 68.1905  29
  -2  -1  12 13.3468 52.7402  34
  -2   1  12 6.77998 79.3934  50
   2   1 -12 59.2077 97.4449  12
   2  -1 -12 109.738 72.7742  29
  -2   1  12-13.8567 77.8495  53
   2  -1 -12 78.6710 95.7000  52
   2   1 -12 30.5103 87.9439  52
   2  -1 -12 120.603 101.787  51
   2  -1 -11 2408.61 198.766  15
   2   1 -11 2489.97 201.451  44
  -2   1  11 2574.74 190.473  23
  -2  -1  11 2144.22 194.125  23
  -2   1  11 2590.32 207.572  14
  -2  -1  11 2352.79 204.252  14
   2  -1 -11 2523.46 190.678  40
   2   1 -11 2409.89 175.146  40
   2  -1 -11 2377.64 210.513  51
   2  -1 -11 2632.73 227.845  21
  -2  -1  11 2453.39 192.432  50
  -2   1  11 2228.73 197.536  13
  -2  -1  11 2245.80 187.513  13
  -2   1  11 2101.92 184.647  20
   2  -1 -11 2923.87 213.374  35
  -2  -1  11 2089.02 173.335  20
  -2   1  11 2874.83 196.250  53
  -2  -1  11 2387.54 168.618  34
   2  -1 -11 2994.92 240.749  18
   2   1 -11 2702.32 218.355  18
   2   1 -11 2625.96 180.696  29
   2   1 -11 2393.72 203.654  15
   2  -1 -11 2602.84 187.811  29
  -2  -1  11 2539.45 198.629  53
   2  -1 -11 3094.72 207.751  52
   2   1 -11 2860.70 204.262  52
   2  -1 -11 2895.40 212.182  44
  -2  -1  11 2322.26 167.942  27
  -2   1  11 2566.40 190.495  50
   2  -1 -10 58.9972 89.6236  44
   2   1 -10 119.670 84.2177  44
   2  -1 -10 82.9613 71.6283  15
  -2  -1  10 142.445 75.8002  23
  -2   1  10 40.1152 65.6083  14
  -2  -1  10 109.537 75.7190  14
  -2   1  10 15.9085 64.7678  23
   2  -1 -10 22.7026 85.6772  21
  -2   1  10 39.8971 66.5151  13
   2  -1 -10 191.105 134.268  35
  -2  -1  10 131.818 66.8652  13
  -2   1  10 41.1546 64.8649  20
  -2  -1  10 110.426 57.2868  20
  -2  -1  10 126.373 61.2754  34
  -2  -1  10 156.670 60.2289  27
  -2   1  10 50.7921 73.7672  50
   2  -1 -10 12.0085 103.071  18
   2   1 -10 71.9577 88.7577  18
  -2   1  10 39.9545 60.3853  56
   2  -1 -10 82.2129 70.2215  29
   2   1 -10 151.839 67.6617  29
  -2   1  10 80.5634 77.0182  53
  -2  -1  10 22.4665 84.5117  53
   2   1 -10 213.450 78.9585  15
   2  -1 -10 102.414 102.413  51
  -2  -1  10 55.5254 77.8254  50
  -2   1   9 1843.45 163.304  14
   2   1  -9 1801.33 173.398  15
   2  -1  -9 2565.22 179.455  44
   2   1  -9 2443.09 172.558  44
  -2   1   9 1849.47 157.039  23
  -2  -1   9 1906.93 166.399  23
  -2   1   9 1953.14 140.759  27
   2  -1  -9 1796.93 177.464  21
   2   1  -9 2114.43 178.339  21
  -2   1   9 2093.46 171.122  13
  -2  -1   9 1676.07 155.786  13
  -2   1   9 1889.24 156.240  20
  -2  -1   9 2169.92 161.912  50
  -2  -1   9 1612.13 145.082  20
  -2  -1   9 2383.25 149.803  34
   2  -1  -9 2281.10 175.289  15
   2   1  -9 2331.94 187.857  18
  -2   1   9 2008.01 158.383  56
   2  -1  -9 2160.22 157.138  29
   2   1  -9 2034.88 152.832  29
  -2   1   9 2563.59 166.505  53
   2  -1  -9 2250.85 184.483  51
  -2  -1   9 2182.14 150.530  27
  -2   1   9 2102.30 154.292  50
  -2  -1   9 1967.42 175.244  14
   2  -1  -8 177.189 87.1078  51
  -2   1   8 171.432 53.3722  27
   2  -1  -8 126.321 66.3838  44
   2   1  -8 160.180 70.4106  44
   2  -1  -8 225.542 113.324  11
   2  -1  -8 166.365 66.6726  15
  -2   1   8 233.230 64.4756  23
  -2  -1   8 187.198 66.3701  23
  -2   1   8 103.062 51.9549  14
  -2  -1   8 252.519 69.5827  14
   2  -1  -8 258.050 88.4039  21
   2   1  -8 270.888 79.1672  21
  -2   1   8 151.683 61.8252  13
  -2  -1   8 206.006 58.8357  13
  -2   1   8 189.348 57.6238  20
  -2  -1   8 110.716 50.8066  20
  -2   1   8 212.963 50.4647  34
  -2  -1   8 234.950 56.5623  34
   2  -1  -8 215.217 91.3342  18
   2   1  -8 263.842 83.7732  18
  -2   1   8 123.742 52.6241  56
  -2   1   8 167.858 60.2812  50
   2  -1  -8 180.313 58.5415  29
   2   1  -8 150.825 63.5916  29
  -2   1   8 87.3938 60.0536  53
  -2  -1   8 190.959 54.3009  27
   2   1  -7 1314.59 103.025  29
   2  -1  -7 953.929 105.450  15
   2   1  -7 1281.58 111.227  44
  -2   1   7 1210.66 106.029  23
  -2   1   7 1284.20 98.8469  56
  -2  -1   7 993.593 105.442  23
   2   1  -7 1164.51 89.4194   8
  -2  -1   7 1162.74 97.1527  27
  -2   1   7 1277.90 110.883  14
  -2  -1   7 1025.50 107.156  14
   2  -1  -7 1215.89 100.314  29
   2  -1  -7 1199.80 111.618  22
   2  -1  -7 1104.79 121.712  21
   2   1  -7 1201.07 122.664  21
  -2   1   7 1073.13 103.718  13
  -2  -1   7 1002.50 101.380  13
  -2   1   7 1059.86 96.0704  20
  -2  -1   7 1122.21 94.0763  20
  -2   1   7 1254.47 101.526  53
  -2   1   7 1402.24 93.1775  34
  -2  -1   7 1231.57 93.2276  34
   2   1  -7 1122.65 92.6177  11
   2  -1  -7 1223.56 131.691  18
   2  -1  -7 1331.31 125.541  11
  -2   1   7 990.126 88.0375  27
  -2   1   7 1260.53 97.1681  50
   2  -1  -7 1180.44 113.879   8
   2  -1  -6 455.115 78.0722  11
   2  -1  -6 637.627 76.6535  15
  -2   1   6 656.171 76.5940  14
   2  -1  -6 593.453 73.2885   8
  -2   1   6 551.942 73.9729  23
  -2  -1   6 530.587 71.7614  23
  -2   1   6 622.948 72.4729  13
  -2  -1   6 660.747 70.2868  13
   2  -1  -6 731.975 95.5976  21
   2   1  -6 552.838 85.9016  21
  -2   1   6 659.229 68.2175  20
  -2  -1   6 749.532 63.3525  20
  -2  -1   6 544.450 43.6787   2
  -2   1   6 528.208 80.1965   1
  -2   1   6 745.862 66.7792  56
   2  -1  -6 588.495 96.2250  18
   2   1  -6 690.586 67.4050  11
   2   1  -6 694.213 65.5090   8
   2  -1  -5 3198.77 209.008  15
  -2   1   5 3766.98 219.914  23
  -2  -1   5 3441.81 214.850  23
  -2   1   5 3726.27 220.600  14
  -2  -1   5 4050.10 226.307   1
   2  -1  -5 3782.70 231.263  21
   2   1  -5 3798.65 230.505  21
  -2   1   5 3550.35 213.397  13
  -2  -1   5 3553.14 207.933  13
  -2   1   5 3566.57 206.969  20
  -2  -1   5 3838.40 199.337  20
   2  -1  -5 3802.33 235.655  18
   2   1  -5 3848.81 227.514  18
  -2   1   5 3725.10 204.355  56
   2  -1  -5 3406.91 214.978  11
  -2  -1   5 3471.50 186.799   2
   2  -1  -5 3782.38 215.613   8
  -2   1   5 3449.77 229.961   1
  -2   1   4 75.8096 54.4187   1
   2   1  -4 38.9579 57.4077  18
  -2   1   4 4.19457 44.9450  23
  -2  -1   4 77.2755 44.8341  23
   2  -1  -4 24.4735 51.5889   8
  -2   1   4 50.5374 44.1136  14
  -2  -1   4 54.7530 44.1807   1
   2  -1  -4 5.36154 64.8847  21
   2   1  -4 60.9877 61.1580  21
  -2   1   4-4.00670 40.8556  13
  -2  -1   4 62.3284 35.5468  13
  -2  -1   4 129.995 32.0975  20
  -2   1   4-16.3240 40.1120  20
  -2  -1   4 52.5887 16.2857   2
  -2   1   4 46.9604 37.2528  56
   2  -1  -4 54.2487 65.0857  18
  -2  -1   3 4497.99 238.051   2
  -2  -1   3 4542.74 261.917  23
  -2  -1   3 5163.38 262.029  14
  -2   1   3 4841.94 276.966   1
  -2   1   3 4543.48 261.841  13
   2  -1  -3 4601.07 271.756  21
   2   1  -3 5335.27 276.770  21
  -2   1   3 4663.35 257.256  20
  -2  -1   3 5562.26 257.450  13
  -2  -1   3 4619.48 267.680   1
   2  -1  -3 4386.84 271.230  18
   2   1  -3 4886.87 271.105  18
  -2   1   3 4368.34 253.253  56
  -2   1   3 4310.19 238.357  16
  -2   1   2 98.0309 26.8009  16
   2   1  -2 94.5016 50.0127   4
   2  -1  -2 59.4686 59.2993  18
  -2  -1   2 160.274 47.3331  23
  -2  -1   2 73.4439 23.0450   2
   2  -1  -2 101.807 62.0508  21
   2   1  -2 46.4124 56.6136  21
  -2  -1   2 73.8568 56.2060   1
  -2   1   2 100.023 53.1138   1
   2   1  -1 2306.20 156.041   4
   2   1  -1 2363.54 153.878   7
  -2  -1   1 2477.88 163.126   1
   2  -1  -1 2223.79 156.707   4
   2  -1  -1 2233.63 155.316  21
   2  -1  -1 2256.35 156.979  18
  -2   1   1 2523.21 163.689   1
  -2   1   1 2317.33 131.842  16
   2   1   0 1434.44 113.139   4
  -2   1   0 1183.59 108.131   1
   2  -1   0 1160.97 77.0481   2
   2  -1   0 1169.93 106.512   3
   2  -1   0 1143.11 89.0261   7
   2   1   0 1266.51 95.6385   7
   2   1   0 1367.67 119.697   3
   2   1   0 1194.49 75.2904   6
  -2  -1   0 1466.33 101.252  12
   2   1   0 1353.63 84.3162   2
  -2   1   0 1133.59 84.2610  16
   2  -1   0 1191.17 104.703   4
   2  -1   1 4181.45 244.814   4
   2   1   1 4767.72 256.543   1
   2  -1   1 4307.32 253.467   1
   2  -1   1 4192.75 247.394   3
   2  -1   1 3637.25 222.156   7
   2   1   1 3988.95 230.273   7
   2   1   1 5045.22 273.959   3
   2   1   1 3894.02 217.958   6
  -2   1  -1 3771.92 236.859  12
  -2  -1  -1 4420.02 235.042  12
   2   1   1 4468.06 228.268   2
  -2  -1  -1 4030.85 216.966  16
  -2   1  -1 4039.43 226.796  16
   2  -1   1 3863.14 219.610   2
   2  -1   2 3200.51 205.611   4
   2  -1   2 3204.32 213.826   1
   2  -1   2 3137.45 184.440   2
   2   1   2 3474.65 192.784   2
   2   1   2 3483.47 224.089   1
   2   1   2 3309.54 183.334   6
  -2   1  -2 2986.61 200.880  12
  -2  -1  -2 3508.79 200.978  12
  -2  -1  -2 3015.80 183.732  16
   2  -1   2 3264.50 205.022   3
  -2   1  -2 3045.69 191.525  16
   2  -1   3 2605.95 174.298   2
   2  -1   3 3277.44 197.543   4
   2  -1   3 3416.80 215.963   1
  -2  -1  -3 2803.30 177.833  16
   2  -1   3 3114.02 195.157   3
   2   1   3 2819.30 173.734   6
  -2   1  -3 3064.66 198.565  12
  -2  -1  -3 3249.69 198.971  12
   2   1   3 2688.95 212.400   1
  -2   1  -3 2614.82 184.194  16
   2   1   3 3260.43 184.575   2
   2  -1   4 3056.79 205.817   2
  -2   1  -4 3641.64 225.155  16
   2  -1   4 3885.56 225.835   3
  -2  -1  -4 3380.89 212.767  16
   2   1   4 3331.00 204.991   6
  -2   1  -4 3700.46 234.110  12
  -2  -1  -4 3954.12 238.838  12
   2   1   4 3498.93 213.868   2
  -2   1  -4 3368.35 197.570  15
  -2   1  -5 104.704 62.3722  16
  -2  -1  -5 100.729 48.1418  15
  -2   1  -5 92.0964 41.8590  15
  -2  -1  -5 42.8879 66.9184  41
  -2   1  -5 45.1527 60.9316  41
  -2  -1  -5 25.6261 62.4188  37
   2  -1   5 78.3202 45.9419   3
  -2   1  -5 42.4080 55.6015  32
  -2  -1  -5 42.1174 60.2849  32
   2   1   5 26.8752 33.4785   6
  -2   1  -5 70.1032 73.0392  12
  -2  -1  -5 35.0312 83.6523  12
  -2   1  -5 30.1908 51.4153  54
   2   1   5 131.938 65.7460   5
   2  -1   5 45.7808 70.5224   5
  -2  -1  -5 170.077 59.2874  16
  -2  -1  -6 258.646 57.0100  15
  -2   1  -6 234.657 53.4916  15
  -2   1  -6 279.047 54.7785  43
  -2  -1  -6 219.737 48.5883  43
  -2  -1  -6 275.406 83.9691  41
  -2   1  -6 155.571 76.0774  41
   2  -1   6 280.756 107.853   5
  -2  -1  -6 248.662 78.2764  37
   2  -1   6 289.580 65.5878   3
  -2   1  -6 278.225 68.2121  32
  -2  -1  -6 306.587 70.8289  32
   2   1   6 172.416 48.4818   6
  -2  -1  -6 149.652 95.9179  12
  -2   1  -6 179.836 65.5485  54
  -2  -1  -6 221.711 56.5020  54
  -2   1  -6 341.844 81.7438  16
  -2  -1  -7 202.901 63.5538  15
  -2  -1  -7 90.5822 89.7615  41
  -2   1  -7 71.2723 82.8014  41
   2  -1   7 80.8337 103.205   5
  -2   1  -7 129.377 81.5541  37
   2   1   7 156.269 57.8978  13
   2   1   7 240.595 56.4181   6
  -2   1  -7 151.512 63.5296  32
  -2  -1  -7 230.785 97.6555  12
  -2   1  -7 148.449 57.6588  15
  -2   1  -7 125.326 70.9532  54
  -2   1  -7 262.338 85.4148  16
  -2  -1  -8 306.535 79.1119  15
  -2   1  -8 277.240 68.9175  15
  -2   1  -8 338.459 95.1181  54
  -2  -1  -8 324.641 108.640  41
   2  -1   8 197.753 63.9036  14
  -2  -1  -8 206.954 99.2021  37
  -2   1  -8 272.259 94.3484  37
   2   1   8 321.314 64.6431  13
  -2   1  -8 294.750 113.269  41
   2   1   8 238.187 58.7794   6
  -2   1  -8 308.123 74.5827  32
   2  -1   8 251.522 58.0677   6
  -2   1  -8 298.204 85.6374  12
  -2  -1  -8 226.313 102.546  12
  -2   1  -8 213.178 92.0840  16
  -2   1  -9 120.842 89.4639  37
  -2  -1  -9 164.864 79.1178  15
  -2  -1  -9 178.033 102.417  41
  -2   1  -9 323.993 118.578  41
  -2  -1  -9 71.7579 92.3992  37
   2   1   9 267.846 65.6330  20
   2   1   9 271.871 63.4462  13
   2  -1   9 235.943 69.1225  13
  -2   1  -9 164.627 66.7770  32
  -2  -1  -9 212.280 77.6945  32
  -2   1  -9 146.347 70.3488  12
  -2  -1  -9 102.728 80.6492  12
  -2  -1  -9 234.995 86.2326  49
  -2   1 -10 120.110 107.405  41
  -2  -1 -10 117.060 98.7628  41
  -2  -1 -10 22.8330 91.1634  37
  -2   1 -10 216.374 92.4844  37
   2   1  10 175.962 56.1731  20
   2  -1  10 91.7277 57.4765  13
  -2   1 -10 126.116 60.1733  32
  -2  -1 -10 117.818 71.7052  32
  -2   1 -10 138.863 63.7236  12
  -2  -1 -10 82.8434 74.0332  12
   2   1  10 105.062 76.1422  56
  -2   1 -10 102.804 64.7906  52
  -2  -1 -10 67.7187 70.0177  49
  -2  -1 -11 33.6396 86.7856  41
  -2   1 -11 30.1059 94.8628  41
  -2  -1 -11 158.135 85.8433  37
  -2   1 -11-18.8528 77.3136  37
   2  -1  11 80.7977 53.6907  20
  -2   1 -11-6.34556 67.0513  32
  -2  -1 -11 4.13104 56.1709  32
   2   1  11 24.8953 60.7173  56
  -2  -1 -12 108.617 74.3721  41
  -2   1 -12 169.317 86.5755  41
  -2   1 -12 107.728 70.5735  37
  -2   1 -12 131.753 215.461  32
  -2  -1 -12 102.801 46.6104  32
  -2   1 -13 125.639 59.1105  41
   2   2 -15 337.852 68.4272  44
   2   2 -15 309.414 54.3450  51
  -2  -2  15 319.596 49.9275  50
   2  -2 -15 376.917 55.4684  36
   2   2 -15 377.598 52.6705  36
  -2   2  15 404.709 52.0992  50
  -2  -2  15 343.572 50.8904  53
  -2   2  15 390.896 46.7913  45
   2   2 -15 392.354 52.0871  29
  -2   2  14 7083.50 377.565  53
  -2   2  14 7605.49 378.173  45
  -2  -2  14 6242.23 356.926  45
   2   2 -14 7041.12 400.523  44
   2  -2 -14 6574.53 366.266  40
   2  -2 -14 7051.46 382.717  36
   2   2 -14 7338.97 388.549  51
   2  -2 -14 7405.67 389.473  29
   2   2 -14 7830.07 378.500  29
  -2  -2  14 7462.62 383.560  53
  -2   2  14 6950.05 380.558  50
   2  -2 -14 6904.73 391.087  52
   2   2 -14 6855.63 379.760  52
   2  -2 -14 6959.56 403.146  51
  -2  -2  14 7131.61 377.805  50
  -2   2  13 1230.13 114.268  45
   2  -2 -13 1217.38 141.211  44
   2   2 -13 1180.51 134.660  44
  -2  -2  13 1182.17 118.026  23
   2  -2 -13 1269.67 121.814  40
   2   2 -13 1087.23 126.777  51
   2  -2 -13 1300.00 123.038  36
   2  -2 -13 1248.29 110.012  35
  -2  -2  13 1384.89 97.2981  34
  -2   2  13 1173.63 115.565  53
   2  -2 -13 1325.98 128.741  29
   2  -2 -13 993.133 132.702  52
   2   2 -13 1134.59 122.851  52
   2  -2 -13 861.768 138.137  51
  -2   2  13 1293.99 122.765  50
  -2  -2  13 1280.43 115.447  50
  -2  -2  13 1172.39 122.394  53
   2   2 -12 16703.7 855.887  51
   2  -2 -12 16157.8 869.554  44
   2   2 -12 16258.3 859.391  44
  -2  -2  12 15934.0 864.930  23
   2   2 -12 16047.6 868.268  15
  -2   2  12 16701.8 881.551  14
  -2  -2  12 16825.7 875.749  14
   2  -2 -12 15967.6 845.396  40
  -2   2  12 15321.3 873.026  13
   2  -2 -12 16239.4 844.595  36
  -2   2  12 14999.4 858.830  20
   2  -2 -12 15959.9 846.163  35
  -2  -2  12 16680.7 828.583  34
  -2  -2  12 15694.6 851.036  53
  -2   2  12 15677.6 842.916  53
   2  -2 -12 16626.1 860.636  52
   2   2 -12 16928.0 855.430  52
  -2   2  12 17397.3 849.443  50
   2  -2 -12 16045.7 868.947  51
   2  -2 -12 15875.8 848.573  29
  -2  -2  12 17323.7 847.749  50
   2  -2 -11 540.494 119.124  44
   2   2 -11 633.691 108.289  44
   2   2 -11 598.999 105.847  15
   2  -2 -11 674.301 137.139  51
  -2  -2  11 473.785 98.0369  23
   2   2 -11 603.967 87.4426  29
   2  -2 -11 695.564 121.437  40
   2   2 -11 553.827 85.0257  40
  -2   2  11 774.453 110.166  14
  -2  -2  11 538.498 101.445  14
   2   2 -11 541.408 110.864  21
   2  -2 -11 508.452 94.6551  36
  -2   2  11 588.487 100.121  13
   2  -2 -11 688.124 137.537  35
  -2  -2  11 528.247 80.9807  13
  -2   2  11 439.070 92.7142  20
  -2  -2  11 600.775 85.0875  34
  -2   2  11 590.893 99.8077  50
   2  -2 -11 486.731 137.941  18
   2   2 -11 537.944 107.923  18
  -2   2  11 352.641 87.6084  56
   2  -2 -11 592.361 103.536  29
  -2  -2  11 454.596 104.947  53
   2  -2 -11 609.954 111.534  52
   2   2 -11 361.249 106.578  52
   2   2 -11 728.832 117.803  51
  -2   2  11 611.544 100.088  53
  -2  -2  11 519.439 103.007  50
  -2  -2  11 415.782 76.4645  27
   2   2 -10 20676.9 1128.23  15
   2  -2 -10 22791.2 1125.54  44
   2   2 -10 20817.6 1109.37  44
  -2   2  10 20301.9 1117.08  56
  -2   2  10 20864.4 1104.91  23
  -2  -2  10 19674.7 1127.53  23
  -2   2  10 21590.6 1128.85  14
   2  -2 -10 21010.7 1107.54  40
   2  -2 -10 22551.7 1156.62  21
   2   2 -10 23151.3 1138.41  21
  -2   2  10 20743.5 1127.90  13
   2   2 -10 21432.9 1111.91  51
  -2  -2  10 19586.9 1104.94  13
  -2   2  10 21657.1 1119.78  20
   2  -2 -10 23524.6 1155.77  35
  -2  -2  10 21526.8 1094.23  34
   2  -2 -10 22875.4 1108.25  29
  -2   2  10 22493.5 1101.48  50
   2   2 -10 23689.3 1137.42  18
   2   2 -10 22125.7 1096.40  29
  -2   2  10 22414.6 1103.17  53
  -2  -2  10 21916.5 1096.34  27
   2  -2 -10 21263.9 1125.47  51
   2   2  -9 1629.20 130.278  29
   2  -2  -9 1626.39 140.346  15
   2   2  -9 1717.05 155.611  15
   2   2  -9 1403.69 140.787  44
  -2   2   9 1778.60 135.870  23
  -2  -2   9 1821.43 158.615  23
  -2   2   9 1642.33 144.791  14
  -2   2   9 1723.46 131.990  50
   2  -2  -9 1780.01 177.296  21
  -2   2   9 1389.57 139.014  13
  -2  -2   9 1244.01 127.435  13
  -2   2   9 1623.68 138.518  20
   2  -2  -9 1997.46 205.094  35
  -2  -2   9 1296.57 118.567  20
  -2  -2   9 1431.60 124.814  34
   2  -2  -9 1748.39 185.819  18
   2   2  -9 1514.89 149.349  18
  -2   2   9 1581.30 138.948  56
   2  -2  -9 1894.19 141.138  29
  -2   2   9 1651.02 133.548  53
  -2  -2   9 1625.69 131.264  27
   2  -2  -9 1634.39 160.248  51
   2   2  -9 1507.91 146.487  51
  -2   2   8 22873.1 1250.20  24
  -2   2   8 25620.2 1266.44  23
  -2   2   8 26199.7 1277.98  14
   2  -2  -8 19808.2 1299.10  11
  -2  -2   8 26203.7 1279.43   9
   2  -2  -8 25600.7 1299.22  21
   2  -2  -8 26624.1 1281.03  51
  -2   2   8 24975.3 1274.68  13
  -2  -2   8 20731.1 1256.84  13
  -2   2   8 25163.2 1264.78  20
  -2  -2   8 20500.9 1243.62  20
  -2  -2   8 25298.4 1282.05  23
  -2  -2   8 27610.1 1254.21  34
   2   2  -8 27381.4 1269.40  44
   2  -2  -8 28252.5 1311.57  18
   2   2  -8 27622.5 1284.17  18
  -2   2   8 24990.3 1264.67  56
   2  -2  -8 26704.2 1257.88  29
   2  -2  -8 25398.6 1267.41  15
   2   2  -8 25673.8 1257.54  29
   2  -2  -8 19665.9 1293.43   8
  -2   2   8 23945.6 1245.93  27
  -2   2   8 27429.0 1260.40  53
  -2  -2   8 27940.5 1263.67  27
  -2   2   8 27308.8 1255.02  50
   2   2  -7 1574.23 103.619   8
  -2   2   7 1427.81 112.564  24
   2  -2  -7 1476.42 121.096  15
   2   2  -7 1632.67 127.084  44
  -2   2   7 1495.50 123.514  23
  -2   2   7 1563.98 120.748  56
  -2  -2   7 1526.65 135.428  23
  -2   2   7 1558.76 129.510  14
   2  -2  -7 1799.78 163.965  22
  -2  -2   7 1580.05 131.042   9
   2  -2  -7 1734.67 152.826  21
   2   2  -7 1548.70 139.930  21
  -2   2   7 1842.28 134.278  13
  -2  -2   7 1263.10 114.728  13
  -2   2   7 1630.33 123.459  20
  -2  -2   7 1339.14 106.124  20
  -2  -2   7 1776.63 117.331  34
   2  -2  -7 1418.92 148.819  18
   2   2  -7 1747.80 142.072  18
   2  -2  -7 1602.76 120.294  29
   2  -2  -7 1520.46 152.332   8
  -2   2   7 1651.44 112.716  27
   2  -2  -7 1718.95 168.600  11
   2  -2  -7 1701.79 149.808  51
   2   2  -7 1552.31 106.684  11
  -2  -2   7 1722.89 122.136  27
  -2   2   7 1590.89 123.422  53
  -2   2   7 1739.57 119.544  50
   2   2  -6 31295.2 1453.87   8
  -2   2   6 27341.6 1466.75  23
  -2  -2   6 29122.4 1474.57  23
  -2   2   6 30786.5 1480.87  14
  -2  -2   6 31017.7 1477.50  14
   2  -2  -6 28530.8 1475.39  22
  -2  -2   6 28765.4 1471.85   9
   2  -2  -6 30418.3 1490.08  21
   2   2  -6 31153.5 1484.82  21
  -2  -2   6 31219.0 1461.78  27
  -2   2   6 30194.4 1473.39  13
  -2  -2   6 28526.3 1460.34  13
  -2   2   6 28789.9 1463.81  20
  -2  -2   6 29516.2 1447.95  20
  -2  -2   6 26756.3 1448.97   2
   2  -2  -6 28854.1 1490.54  18
  -2   2   6 29847.9 1463.00  56
  -2   2   6 29545.9 1456.39  24
   2  -2  -6 29587.3 1480.33  11
   2  -2  -6 31641.9 1478.92   8
  -2   2   5 6637.31 349.670  24
  -2  -2   5 6853.45 363.093  23
  -2   2   5 6821.76 371.014  14
  -2  -2   5 7016.87 362.487  14
  -2  -2   5 6861.77 365.102   9
   2  -2  -5 6383.24 364.140   8
   2  -2  -5 6696.41 376.663  21
  -2   2   5 6483.02 362.479  13
   2   2  -5 6878.68 374.366  21
  -2  -2   5 7102.95 351.004  13
  -2   2   5 6247.73 354.679  20
  -2   2   5 6238.13 378.267   1
  -2  -2   5 6254.20 341.032   2
   2  -2  -5 6734.40 381.735  18
  -2   2   5 6582.80 354.117  56
   2  -2  -5 6422.47 367.054  11
  -2   2   4 63064.0 3219.11   1
  -2   2   4 65097.4 3194.27  24
  -2  -2   4 73937.6 3207.84  23
  -2   2   4 64640.3 3210.09  14
  -2  -2   4 70070.6 3205.09  14
  -2  -2   4 71814.3 3192.58  13
   2  -2  -4 62881.1 3212.51  21
  -2   2   4 62185.6 3204.94  13
   2   2  -4 70542.0 3216.89  21
  -2   2   4 61744.0 3198.39  20
   2  -2  -4 59849.0 3213.19  18
   2   2  -4 69422.0 3211.40  18
  -2   2   4 65773.2 3197.84  56
  -2  -2   4 65959.8 3207.51   1
  -2  -2   4 60572.4 3184.51   2
   2   2  -3 2312.82 140.857  25
  -2   2   3 2060.84 133.026  24
  -2  -2   3 2380.29 138.260  14
  -2   2   3 1879.44 149.734   1
  -2   2   3 2000.24 141.793  13
   2  -2  -3 1980.78 148.008  21
   2   2  -3 2167.54 150.338  21
  -2   2   3 2212.88 140.278  20
   2  -2  -3 1843.77 149.403  18
   2   2  -3 2289.62 153.118  18
  -2   2   3 1974.66 138.951  56
  -2  -2   3 2381.82 148.768   1
  -2  -2   3 2008.14 121.293   2
   2  -2  -3 1882.95 144.237  11
   2  -2  -3 2201.47 146.761   8
   2  -2  -2 50311.2 2440.24   8
  -2  -2   2 50485.5 2426.33   2
  -2  -2   2 56475.0 2453.95   1
   2   2  -2 51878.9 2441.82   3
   2  -2  -2 49032.7 2441.89  21
  -2   2   2 49945.9 2442.46  20
  -2   2   2 49961.7 2452.94   1
  -2   2   2 44114.0 2433.41  16
   2  -2  -2 49472.8 2444.52  18
   2   2  -2 49158.6 2430.55  10
   2   2  -2 49827.3 2441.17   4
   2   2  -1 3607.82 207.016  10
  -2  -2   1 4185.78 210.717   2
   2   2  -1 4060.63 229.493   7
  -2   2   1 3365.30 214.383  16
   2  -2  -1 3613.19 218.735  21
   2   2  -1 3601.94 215.601  25
   2  -2  -1 3613.62 218.230   8
   2  -2  -1 3817.89 224.375  18
  -2   2   1 3802.14 231.354   1
   2   2  -1 4048.73 221.283   1
   2   2  -1 3882.27 225.748   4
   2   2   0 51023.7 2235.70  25
   2   2   0 52329.7 2250.40   1
   2   2   0 51435.4 2258.03   4
   2   2   0 47436.6 2229.85  10
  -2   2   0 46480.6 2253.73   1
  -2  -2   0 49857.0 2238.16   2
   2   2   0 54025.4 2248.39   7
   2  -2   0 44994.5 2240.97  21
  -2  -2   0 52082.1 2239.77  12
   2  -2   0 45400.3 2241.01  18
  -2   2   0 44049.0 2238.78  16
   2  -2   0 44886.6 2249.41   4
   2   2   1 2421.92 136.700  10
   2  -2   1 2213.36 158.527   3
   2  -2   1 1931.45 133.401   7
   2   2   1 2545.21 150.459   7
   2   2   1 2407.13 134.230   6
  -2   2  -1 2329.51 160.553  12
  -2  -2  -1 2618.91 150.180  12
   2   2   1 2621.15 144.656   2
   2  -2   1 2443.29 168.253   1
   2  -2   1 2140.39 132.149   2
   2  -2   1 2011.40 148.946   4
  -2   2  -1 2233.12 151.011  16
   2  -2   2 43843.5 2194.84   4
   2   2   2 44011.7 2180.61  10
   2  -2   2 38687.6 2178.71   2
   2  -2   2 45105.0 2202.29   3
   2   2   2 46976.7 2182.80   6
  -2   2  -2 42805.8 2198.65  12
  -2  -2  -2 48669.7 2194.84  12
   2   2   2 49084.7 2195.42   2
  -2   2  -2 43183.5 2197.73  16
   2  -2   2 48356.2 2217.94   1
   2  -2   3 1304.16 105.569   4
   2  -2   3 1558.34 128.975   1
   2  -2   3 1173.46 96.3758   2
   2   2   3 1568.83 110.525   2
   2  -2   3 1249.61 107.853   3
   2   2   3 1445.79 98.7353   6
  -2  -2  -3 1522.04 120.479  12
   2   2   3 1205.37 139.936   1
  -2   2  -3 1354.24 118.439  16
  -2   2  -4 14136.6 752.321  15
   2  -2   4 13629.9 767.397   2
   2  -2   4 16158.0 779.249   3
  -2   2  -4 14226.6 787.903  16
   2   2   4 15260.7 768.760   6
  -2  -2  -4 15802.8 791.458  12
   2  -2   4 16761.1 775.293   4
   2  -2   4 15753.7 760.493   8
  -2   2  -5 136.608 65.9066  16
  -2   2  -5 71.3972 38.2858  15
  -2   2  -5 139.059 51.2063  43
  -2  -2  -5 90.8779 45.2575  43
  -2  -2  -5 130.570 73.4457  41
  -2  -2  -5 48.6081 64.3916  49
  -2  -2  -5 66.0505 62.6998  37
   2  -2   5 223.488 50.8222   3
   2   2   5 59.6465 37.4450   6
  -2   2  -5 81.2024 54.5385  32
  -2  -2  -5 234.225 71.0875  32
  -2  -2  -5 66.2307 75.8590  12
  -2   2  -5 143.559 60.4150  54
   2  -2   5 93.1518 83.1802   5
  -2  -2  -6 28984.8 1352.44  15
  -2   2  -6 23030.6 1328.36  15
  -2   2  -6 28861.2 1323.77  43
  -2  -2  -6 26377.1 1316.83  43
  -2  -2  -6 32087.9 1359.69  41
  -2   2  -6 25345.3 1346.03  41
  -2   2  -6 25142.2 1330.34  54
  -2  -2  -6 29182.8 1351.38  37
  -2   2  -6 27498.9 1347.76  37
   2   2   6 26536.3 1345.95   6
  -2   2  -6 27854.0 1358.57  12
  -2  -2  -6 21794.3 1363.84  12
  -2   2  -6 28709.1 1333.57  32
  -2  -2  -6 26196.7 1339.71  32
   2  -2   6 21521.7 1374.14   5
  -2   2  -6 29324.8 1383.17  16
  -2  -2  -7 2604.44 174.075  15
  -2   2  -7 1911.13 134.750  43
  -2  -2  -7 2335.26 176.977  41
  -2   2  -7 2104.59 176.162  41
  -2   2  -7 2192.56 168.494  37
   2   2   7 2213.57 158.318   6
  -2   2  -7 2110.85 167.298  12
  -2  -2  -7 1974.42 193.114  12
  -2   2  -7 2239.59 148.211  32
  -2  -2  -7 2180.87 158.773  32
  -2   2  -7 2012.17 183.875  16
  -2   2  -7 1308.50 151.194  54
   2  -2   7 1514.96 186.906   5
  -2  -2  -8 17710.6 867.710  15
  -2  -2  -8 18914.4 867.245  41
  -2   2  -8 13293.9 836.607  54
  -2   2  -8 16260.2 851.591  37
  -2  -2  -8 14509.7 824.578  36
   2   2   8 17323.0 843.695  20
   2   2   8 15988.1 849.388   6
  -2   2  -8 15879.9 848.098  12
  -2  -2  -8 16096.8 883.874  12
  -2   2  -8 17241.2 830.554  32
  -2   2  -8 16015.5 865.973  41
   2  -2   8 18239.6 860.901  14
  -2  -2  -9 1089.56 134.588  41
  -2   2  -9 918.006 141.099  41
   2  -2   9 926.146 102.665  14
  -2  -2  -9 982.662 131.580  37
  -2   2  -9 863.598 120.892  37
  -2  -2  -9 803.498 100.397  36
  -2   2  -9 851.420 92.3156  32
  -2   2  -9 785.165 99.2201  12
  -2  -2  -9 864.357 125.713  12
   2   2   9 720.514 104.958  56
  -2   2  -9 688.668 95.2307  52
  -2  -2  -9 808.667 121.504  49
  -2   2 -10 9590.18 524.740  41
  -2  -2 -10 9905.46 509.872  41
  -2  -2 -10 9501.17 510.819  37
  -2   2 -10 9327.78 501.066  37
  -2  -2 -10 8233.15 475.843  36
   2  -2  10 10926.3 513.356  13
  -2   2 -10 9235.71 491.844  12
  -2  -2 -10 9185.41 514.229  12
  -2   2 -10 8747.82 470.749  32
  -2  -2 -10 9691.00 486.301  32
   2   2  10 7110.63 495.398  56
  -2   2 -10 8099.21 475.342  52
  -2  -2 -10 7994.62 493.270  49
  -2  -2 -11 398.764 78.5789  49
   2   2  11 522.060 73.6742  24
  -2  -2 -11 442.922 96.7278  41
  -2   2 -11 498.915 115.996  41
  -2  -2 -11 556.235 101.346  37
  -2   2 -11 564.007 100.463  37
  -2  -2 -11 500.567 75.8195  36
  -2   2 -11 406.889 246.420  32
  -2  -2 -11 456.544 76.4993  32
   2   2  11 224.828 74.0773  56
  -2  -2 -12 5799.07 355.686  41
  -2   2 -12 6486.69 363.169  37
  -2  -2 -12 6660.53 347.060  32
  -2   2 -13 553.993 80.5456  41
  -2  -2 -13 555.430 106.734  32
   2   3 -15 898.415 92.1989  44
  -2  -3  15 1090.66 75.5805  53
   2   3 -15 901.685 71.6693  36
  -2   3  15 1004.06 73.4477  50
   2   3 -15 901.798 71.5278  29
  -2  -3  15 1016.90 74.1434  50
   2  -3 -15 792.068 97.3013  51
  -2   3  15 976.641 73.8225  45
  -2   3  14 146.893 56.7179  50
   2   3 -14 134.008 75.1671  44
   2  -3 -14 131.865 60.5430  40
   2  -3 -14 126.744 66.1954  29
   2  -3 -14 98.2085 64.9830  36
   2   3 -14 95.0978 59.2889  51
  -2  -3  14 113.702 34.6847  34
  -2  -3  14 136.290 58.4506  53
   2   3 -14 81.9581 49.7853  29
   2  -3 -14 162.016 89.1694  51
   2   3 -14 120.075 58.9932  52
  -2   3  14 124.692 52.3396  53
  -2  -3  14 104.290 53.2926  50
  -2  -3  13 1400.69 91.6949  45
   2   3 -13 1270.77 136.587  44
  -2  -3  13 1273.75 122.019  23
   2  -3 -13 1413.62 131.224  40
   2   3 -13 1467.67 129.319  51
   2  -3 -13 1434.63 160.960  51
   2  -3 -13 1540.00 129.350  36
   2  -3 -13 1103.63 119.225  35
  -2  -3  13 1397.58 104.000  34
   2   3 -13 1390.91 125.920  52
   2  -3 -13 1193.25 130.232  29
  -2   3  13 1370.80 117.395  53
  -2  -3  13 1321.42 124.834  53
   2  -3 -13 1429.96 143.426  52
  -2  -3  13 1303.17 116.070  50
  -2   3  13 1527.57 124.567  50
   2  -3 -12 158.336 96.1369  44
   2   3 -12 140.234 89.0346  44
  -2  -3  12 87.5584 63.1341  23
   2  -3 -12 41.0827 93.5498  40
  -2   3  12 49.4050 64.6137  14
  -2  -3  12-8.77079 55.6717  14
   2   3 -12 202.389 89.2387  51
   2  -3 -12 85.8197 79.5360  36
  -2   3  12 149.848 74.6114  13
   2  -3 -12 173.314 95.9690  35
  -2   3  12-18.1715 68.0876  20
  -2  -3  12 102.571 57.6283  34
   2  -3 -12 78.3860 80.6652  29
  -2   3  12 143.008 72.3663  53
  -2  -3  12 134.661 81.7433  53
   2  -3 -12 82.5507 93.3893  52
   2   3 -12 119.557 82.6727  52
   2  -3 -12 152.739 117.950  51
  -2  -3  12 26.2784 45.4452  27
   2   3 -12 27.7571 69.3328  15
  -2   3  12 41.5354 70.1961  50
   2   3 -11 1566.19 161.373  15
   2  -3 -11 2174.58 176.093  44
   2   3 -11 1762.45 162.790  44
  -2  -3  11 1541.13 158.953  23
  -2   3  11 1973.76 167.990  14
  -2  -3  11 1482.08 152.068  14
   2  -3 -11 1550.71 166.848  40
   2   3 -11 2022.86 175.412  21
  -2   3  11 1561.37 160.507  13
   2  -3 -11 1883.57 149.415  36
  -2   3  11 1751.58 160.624  20
   2  -3 -11 1565.93 188.189  35
  -2  -3  11 1691.74 135.425  34
   2   3 -11 1678.50 151.819  33
  -2   3  11 1470.55 157.777  56
   2  -3 -11 1622.89 183.012  51
   2  -3 -11 1868.38 159.934  29
   2  -3 -11 1620.68 158.271  52
   2   3 -11 1710.44 160.853  52
  -2   3  11 1826.55 143.537  53
  -2  -3  11 1857.44 136.484  27
   2   3 -11 1869.41 160.592  51
  -2   3  11 1819.97 148.237  50
   2   3 -10-7.38390 80.4507  44
   2   3 -10 69.8041 64.0156  29
   2   3 -10-10.0845 74.9087  15
   2  -3 -10 111.583 113.425  51
  -2  -3  10 134.199 78.9693  23
  -2  -3  10 130.715 64.2823  27
   2  -3 -10 84.8559 102.935  40
  -2   3  10-9.44104 60.4296  14
  -2  -3  10-10.0799 67.7281  14
   2  -3 -10 37.5071 101.599  21
   2   3 -10-9.39293 74.3770  21
  -2   3  10-50.4569 70.2712  13
   2  -3 -10 120.307 148.387  35
  -2  -3  10 18.1804 42.9301  13
  -2   3  10 34.9166 66.3004  20
  -2  -3  10 39.1166 62.5801  34
   2   3 -10 30.1949 71.7293  33
   2  -3 -10 182.862 119.955  18
   2   3 -10-43.4066 79.3755  18
  -2   3  10-9.34690 68.3712  56
   2  -3 -10-6.76859 78.7694  29
  -2   3  10 23.4231 64.9181  53
   2  -3 -10 59.2985 79.2365  52
  -2   3  10-11.4772 70.5922  50
   2   3 -10 50.3208 83.6573  51
   2   3  -9 3288.73 208.230  51
  -2   3   9 2655.97 188.814  24
  -2   3   9 3020.88 189.700  53
   2   3  -9 2891.10 197.303  44
  -2  -3   9 2079.50 206.490  23
  -2   3   9 2605.47 201.043  14
  -2  -3   9 2315.10 201.805  14
   2  -3  -9 2848.28 235.255  21
  -2  -3   9 2870.37 212.662   9
  -2  -3   9 3259.09 195.492  27
   2   3  -9 3336.11 218.418  21
  -2  -3   9 2278.68 175.912  13
   2  -3  -9 2706.14 189.224  29
  -2   3   9 2261.81 189.854  20
   2  -3  -9 2928.99 270.187  35
  -2  -3   9 2474.04 182.360  34
   2  -3  -9 2616.52 244.431  18
   2   3  -9 2863.08 204.260  18
  -2   3   9 2641.77 199.128  56
   2   3  -9 2745.84 182.397  29
   2  -3  -9 3117.09 227.170  51
  -2   3   9 3060.44 185.994  50
  -2   3   8 1183.61 105.647  24
   2   3  -8 1308.15 118.794  44
   2  -3  -8 443.383 167.866   8
  -2  -3   8 995.058 126.591  23
  -2   3   8 1194.62 115.568  14
  -2  -3   8 945.446 116.031  14
   2  -3  -8 716.855 146.632  22
   2  -3  -8 1269.38 146.747  21
  -2  -3   8 1031.06 120.431   9
   2   3  -8 983.263 115.675  21
  -2  -3   8 952.951 94.1440  13
  -2   3   8 1201.94 103.341  50
  -2   3   8 1202.73 112.297  20
  -2  -3   8 1215.95 106.828  34
   2   3  -8 1153.37 118.249  18
  -2   3   8 1317.69 114.232  56
   2  -3  -8 1059.84 149.564  18
  -2  -3   8 1354.46 112.383  27
   2  -3  -8 1099.63 106.385  29
  -2   3   8 1163.53 104.956  53
   2  -3  -8 1048.55 137.533  51
  -2   3   8 1055.30 94.4203  27
   2  -3  -8 649.884 186.366  11
   2  -3  -7 1459.43 197.806  11
  -2   3   7 1406.62 116.024  24
  -2   3   7 1595.09 112.006  45
   2   3  -7 1861.63 133.045  44
   2  -3  -7 1374.40 185.579   8
  -2  -3   7 1545.49 140.964  23
  -2   3   7 1772.37 124.817  53
  -2   3   7 1443.38 129.332  14
  -2  -3   7 1852.48 122.917  47
  -2  -3   7 1476.23 130.890  14
  -2   3   7 1364.40 110.696  27
   2  -3  -7 1056.28 176.635  22
  -2  -3   7 1359.08 133.379   9
  -2  -3   7 1235.43 108.364  13
  -2   3   7 1313.92 119.913  20
  -2  -3   7 1688.33 121.657  34
   2  -3  -7 1694.44 162.347  18
   2   3  -7 1405.43 128.905  18
   2  -3  -7 1697.87 152.659  21
  -2   3   7 1605.52 124.337  56
   2  -3  -7 1419.74 117.023  29
   2  -3  -7 1764.90 149.990  51
  -2  -3   7 1695.09 122.394  27
  -2   3   7 1628.83 117.742  50
   2   3  -6 786.301 88.8189  25
  -2  -3   6 750.122 79.4435  47
  -2   3   6 629.193 69.9050  27
  -2   3   6 653.282 67.9268  45
   2   3  -6 638.496 86.5355  18
  -2  -3   6 829.023 92.2105  23
   2  -3  -6 1044.92 124.051   8
  -2   3   6 793.725 90.4595  14
  -2   3   6 765.809 76.4115  24
  -2  -3   6 618.872 81.9519  14
   2  -3  -6 788.475 119.673  22
  -2  -3   6 760.527 86.6809   9
  -2  -3   6 587.663 64.2237  13
   2  -3  -6 821.710 106.384  21
  -2   3   6 865.117 84.2135  20
  -2  -3   6 814.605 76.6413  34
  -2  -3   6 746.203 69.1423   2
  -2   3   6 713.353 78.2848  56
   2  -3  -6 920.671 121.033  18
  -2   3   6 747.370 76.9835  50
  -2   3   6 706.565 75.9890  53
   2  -3  -6 724.949 102.983  51
  -2  -3   6 721.417 81.2036  27
   2  -3  -6 731.284 126.881  11
   2   3  -5 1181.66 101.449  25
   2  -3  -5 882.426 123.500  11
  -2   3   5 1117.31 95.0762  24
  -2   3   5 1331.13 101.528  56
  -2  -3   5 1352.26 107.210  23
  -2   3   5 1096.11 105.956  14
  -2  -3   5 1259.74 100.393  14
   2  -3  -5 1080.02 116.658  22
  -2  -3   5 1382.83 107.936   9
   2  -3  -5 1363.31 121.101  21
  -2  -3   5 1319.15 84.5386  13
   2   3  -5 1287.84 115.542  21
  -2   3   5 1053.94 97.3605  20
  -2  -3   5 1145.24 87.7673   2
   2  -3  -5 1103.54 126.268  18
   2   3  -5 1434.12 112.635  18
   2  -3  -5 1070.00 119.107   8
   2   3  -4 66.2813 46.6208  25
  -2   3   4 142.027 49.7160  24
  -2   3   4 151.338 57.0908   1
  -2  -3   4 195.783 43.9573  14
   2  -3  -4 108.040 57.0540  21
   2   3  -4 74.9987 75.3155  21
  -2  -3   4 141.731 31.7365   2
  -2   3   4 99.3365 49.3796  20
  -2  -3   4 99.7435 43.1164   9
  -2   3   4 103.576 50.8788  56
   2  -3  -4 111.431 70.7144  18
   2   3  -3 891.832 80.5239  10
  -2   3   3 866.315 85.6343  24
  -2   3   3 742.392 87.5823   1
  -2  -3   3 1088.72 81.1021  14
   2   3  -3 1012.82 81.1969   3
   2  -3  -3 810.205 91.0062  21
  -2  -3   3 845.931 84.5355   1
   2   3  -3 1062.10 102.799  21
  -2   3   3 912.801 89.6665  20
  -2   3   3 850.815 87.2756  56
   2  -3  -3 864.335 97.0673  18
   2  -3  -3 852.815 94.4657   8
  -2  -3   3 824.166 69.4167   2
   2  -3  -3 804.676 97.9018  11
   2   3  -3 1003.17 92.7756  25
   2   3  -3 1005.35 88.4066   4
  -2   3   2 1242.70 110.445  24
   2   3  -2 1390.54 104.120  10
  -2  -3   2 1635.47 107.279  23
   2  -3  -2 1365.59 113.635   8
   2   3  -2 1500.86 109.297   3
   2  -3  -2 1347.24 108.272  21
  -2   3   2 1395.92 117.342  20
  -2   3   2 1464.39 119.342   1
   2  -3  -2 1293.42 114.648  11
   2  -3  -2 1458.31 117.696  18
  -2   3   2 1234.14 116.416  56
  -2  -3   2 1440.53 96.4684   2
  -2  -3   1 1239.79 85.1595   2
   2   3  -1 1109.48 88.6253  10
   2   3  -1 1100.73 104.014   7
   2  -3  -1 1041.64 87.4220  21
   2   3  -1 1359.33 107.382   3
   2  -3  -1 971.074 94.0214  18
   2   3  -1 920.024 95.7839  25
   2  -3  -1 1007.22 97.9064  11
   2   3  -1 1257.11 91.7251   1
  -2   3   1 766.719 98.7688  16
   2  -3  -1 1118.03 98.8306   8
   2   3   0 3229.99 177.883  25
   2   3   0 3034.00 179.900   1
  -2   3   0 2587.19 188.228  16
   2   3   0 2693.76 169.906  10
  -2  -3   0 3008.56 175.058   2
   2   3   0 3223.31 185.573   7
  -2  -3   0 3159.61 172.685  12
   2  -3   0 2475.37 170.954  18
   2  -3   0 2636.46 177.601  11
   2  -3   0 2884.69 180.330   8
   2   3   1 1499.84 106.139  10
  -2  -3  -1 1741.92 117.451   2
   2   3   1 1617.68 118.644   7
   2   3   1 1752.76 128.631   1
  -2   3  -1 1327.53 127.833  16
   2   3   1 1732.98 113.381   2
  -2  -3  -1 1846.31 115.874  12
  -2   3  -1 1428.79 121.704   1
   2  -3   1 1426.49 107.002  18
   2  -3   1 1517.44 117.637   8
   2  -3   2 49.9172 34.2530   4
  -2   3  -2 98.6555 56.6683  16
   2  -3   2 115.710 52.7924   8
   2   3   2 36.4282 31.6231  10
   2   3   2 18.4015 28.8645   2
   2   3   2 68.3629 43.7611   7
   2   3   2-9.82169 24.3527   6
  -2  -3  -2 12.0982 45.4743  12
   2   3   2 126.393 65.2105   1
  -2   3  -3 483.458 83.2449  16
   2  -3   3 707.354 70.1286  11
   2  -3   3 539.225 69.5682   3
   2   3   3 482.525 55.1535   6
   2  -3   3 712.467 71.3461   8
   2   3   3 812.126 72.9364   2
  -2   3  -3 586.670 85.5928  12
  -2  -3  -3 551.621 77.9133  12
   2  -3   3 629.523 80.4862   1
   2  -3   3 592.582 62.5365   4
  -2   3  -4 46.0272 63.9132  16
   2  -3   4 20.6829 62.7336   5
  -2  -3  -4-9.74349 61.2513  41
  -2   3  -4-4.46130 63.5996  41
   2  -3   4 47.3839 37.6259   3
  -2  -3  -4-35.7552 88.6959  35
   2   3   4 37.5550 31.5767   6
  -2   3  -4 11.2299 51.4715  32
  -2  -3  -4 22.9862 71.2818  32
  -2   3  -4 42.9206 63.9334  12
  -2  -3  -4 128.785 62.8889  12
  -2   3  -5 1270.19 99.2019  43
  -2  -3  -5 1199.07 91.8092  43
  -2  -3  -5 1418.21 122.733  41
  -2   3  -5 1236.74 129.328  16
  -2   3  -5 668.897 102.528  39
  -2  -3  -5 1403.12 115.190  37
  -2   3  -5 1089.73 110.340  37
  -2  -3  -5 1244.87 132.990  35
   2   3   5 1344.95 103.380   6
  -2   3  -5 1213.30 115.705  12
   2  -3   5 1221.01 102.800  17
  -2   3  -5 1165.47 99.1590  32
  -2  -3  -5 1200.67 116.952  32
  -2  -3  -5 1008.98 118.599  12
  -2  -3  -5 1238.83 105.252  30
  -2   3  -5 989.552 104.766  54
   2  -3   5 1108.10 140.704   5
  -2  -3  -5 875.147 106.827  49
  -2  -3  -6 123.661 75.3589  49
  -2   3  -6 177.217 55.5406  46
  -2   3  -6 158.700 60.0420  43
   2  -3   6 84.4571 98.4846   5
  -2  -3  -6 230.375 53.7612  43
  -2  -3  -6 193.561 82.9222  41
  -2  -3  -6 269.059 80.3220  37
  -2   3  -6 196.968 72.7875  37
   2   3   6 285.632 54.9254   6
  -2   3  -6 228.988 62.1974  32
  -2  -3  -6 92.4416 71.0870  32
  -2   3  -6 177.442 67.8198  12
  -2  -3  -6 89.7055 80.0593  12
  -2   3  -6 284.763 87.4135  54
  -2   3  -7 288.063 65.3417  46
  -2   3  -7 261.334 65.3163  43
  -2  -3  -7 370.913 96.0239  41
  -2   3  -7 314.289 103.675  41
  -2  -3  -7 363.638 95.1203  37
  -2   3  -7 451.427 90.4444  37
  -2  -3  -7 267.461 68.9781  36
   2   3   7 537.731 72.7652   6
  -2   3  -7 275.485 68.9146  32
  -2  -3  -7 410.079 86.4499  32
  -2   3  -7 406.145 79.2223  12
  -2  -3  -7 498.142 112.678  12
   2  -3   7 382.661 90.2046   9
   2   3   7 264.245 68.4038  56
   2  -3   7 335.095 115.939   5
  -2   3  -7 281.461 98.5562  54
  -2   3  -8 77.6711 56.3315  46
  -2  -3  -8 155.316 90.4097  41
  -2   3  -8 158.148 106.906  41
   2  -3   8 15.8306 58.8646  14
  -2   3  -8 83.1926 78.7107  37
  -2  -3  -8 44.8491 63.8515  36
   2   3   8 52.6114 43.5601   6
  -2   3  -8 37.8596 77.2624  32
  -2  -3  -8 47.2996 75.9265  32
  -2   3  -8 39.8595 58.6465  12
  -2  -3  -8 199.102 100.154  12
   2   3   8 30.9578 57.5603  56
  -2   3  -8 83.9044 99.0749  54
  -2  -3  -8 89.1331 91.0806  49
  -2   3  -9 513.370 78.0067  46
   2   3   9 724.835 89.6636  24
  -2  -3  -9 682.750 113.947  41
  -2   3  -9 451.791 125.447  41
   2  -3   9 571.222 87.3155  23
   2  -3   9 583.207 86.7900  14
  -2   3  -9 522.500 98.0194  37
  -2  -3  -9 547.955 90.1549  36
  -2   3  -9 440.902 85.3612  52
  -2   3  -9 589.471 190.305  32
  -2   3  -9 687.111 87.2200  12
  -2  -3  -9 557.915 112.156  12
   2   3   9 389.204 83.2671  56
  -2  -3  -9 657.882 121.475  49
   2   3  10 90.9378 52.4647  24
  -2  -3 -10 116.815 85.4349  41
  -2   3 -10-67.8985 115.405  41
   2  -3  10 62.2342 48.2732  14
  -2  -3 -10 141.160 90.1777  37
  -2   3 -10 98.6976 77.3502  37
  -2  -3 -10 117.566 70.9589  36
   2  -3  10 45.9132 51.0514  13
  -2   3 -10 135.627 283.832  32
  -2  -3 -10 9.37301 73.7977  12
   2   3  10 86.9690 60.5769  56
  -2   3 -10 66.9145 62.8146  52
  -2  -3 -10 91.8403 93.4170  49
   2   3  11 99.1048 50.6617  24
  -2  -3 -11 242.089 80.3415  41
  -2   3 -11 196.065 105.490  41
  -2   3 -11 203.378 79.7548  37
  -2  -3 -11 184.918 65.7857  36
  -2  -3 -11 197.912 66.9252  32
  -2  -3 -11 151.481 76.3203  49
  -2   3 -12 181.853 84.5398  41
  -2   3 -12 77.4541 59.5241  37
  -2  -3 -12 101.511 48.0434  32
  -2  -3 -12 20.8674 51.7061  49
  -2   3 -13 3.46558 53.3942  41
  -2   3 -13-37.6105 41.6085  37
  -2  -3 -13 32.6518 41.2236  32
   2   4 -14 7844.89 417.299  44
   2  -4 -14 7660.28 410.460  29
   2  -4 -14 7019.92 394.189  40
  -2  -4  14 7841.16 397.833  53
   2   4 -14 7532.55 390.272  29
  -2  -4  14 7639.47 381.124  34
   2   4 -14 7055.06 390.194  52
   2  -4 -14 7769.77 426.106  51
  -2   4  14 7378.05 393.245  50
   2   4 -13 2193.74 176.617  44
   2  -4 -13 2338.14 182.268  29
   2  -4 -13 2284.37 198.145  51
  -2  -4  13 2143.35 165.421  23
   2  -4 -13 2395.85 173.985  40
  -2  -4  13 2288.83 141.409  27
  -2   4  13 2576.36 159.363  53
   2  -4 -13 2277.64 167.784  36
   2  -4 -13 2331.03 167.999  35
  -2  -4  13 2264.00 144.003  34
   2   4 -13 2414.50 153.300  29
  -2   4  13 2375.50 159.679  50
  -2  -4  13 2362.28 163.789  53
   2   4 -13 2459.44 163.493  52
   2   4 -13 2065.21 157.000  51
   2   4 -12 10111.8 578.137  15
   2   4 -12 10494.8 568.756  44
  -2   4  12 10616.4 552.519  50
  -2  -4  12 10553.4 573.396  23
  -2  -4  12 10373.6 568.558  14
   2  -4 -12 10644.7 570.679  40
  -2   4  12 9541.28 586.858  13
   2  -4 -12 10105.0 554.198  36
  -2   4  12 10101.5 579.740  20
   2  -4 -12 10236.4 570.877  35
  -2  -4  12 11576.3 544.140  34
   2   4 -12 9405.54 557.914  33
   2   4 -12 10412.2 556.802  51
   2  -4 -12 10552.5 591.154  51
  -2   4  12 10128.9 547.691  53
   2  -4 -12 10971.1 574.659  29
  -2  -4  12 10289.9 558.997  53
   2  -4 -12 10452.7 571.123  52
   2   4 -12 9977.29 555.494  52
  -2  -4  12 10342.1 538.734  27
   2   4 -11 4748.52 322.762  15
   2   4 -11 4919.84 315.890  44
  -2  -4  11 4984.93 324.503  23
  -2  -4  11 4677.52 313.551  14
   2   4 -11 5073.72 326.754  21
  -2   4  11 5193.47 327.595  20
   2  -4 -11 5628.03 354.206  35
  -2  -4  11 5044.72 293.277  27
  -2  -4  11 5472.52 295.709  34
   2   4 -11 5015.34 310.970  33
  -2   4  11 4623.40 331.848  56
   2  -4 -11 5457.36 321.872  29
  -2   4  11 5212.75 298.988  53
   2  -4 -11 5214.56 316.047  52
   2   4 -11 5349.96 313.529  52
   2  -4 -11 5095.12 340.505  51
   2   4 -11 5086.96 308.134  51
  -2  -4  11 4772.94 295.241  50
  -2   4  11 4950.63 297.555  50
   2   4 -10 7648.32 447.245  44
  -2  -4  10 7688.19 469.626  23
  -2   4  10 7399.03 457.986  14
  -2  -4  10 7420.08 457.622  14
  -2  -4  10 7293.72 460.372   9
   2   4 -10 8884.55 469.909  21
  -2   4  10 7215.56 456.795  20
   2  -4 -10 8143.75 510.133  35
  -2  -4  10 8488.87 437.318  34
   2   4 -10 7749.25 449.162  33
   2  -4 -10 8788.11 527.724  18
   2  -4 -10 8380.58 453.069  29
  -2   4  10 8005.47 435.557  53
  -2   4  10 8154.98 435.625  50
  -2   4  10 7781.81 469.539  56
   2  -4 -10 8180.26 447.182  52
   2  -4 -10 7775.99 473.777  51
   2   4 -10 7972.18 448.759  51
  -2  -4  10 8173.10 438.781  27
   2   4  -9 927.180 95.7931  29
   2  -4  -9 893.451 148.099  51
  -2   4   9 775.326 104.299  24
   2   4  -9 907.950 112.733  44
  -2  -4   9 979.151 125.879  23
  -2   4   9 912.308 108.310  14
   2  -4  -9 1123.75 142.462  40
  -2  -4   9 979.281 113.977  14
   2   4  -9 1354.72 130.371  21
   2  -4  -9 923.044 147.545  21
  -2   4   9 780.023 110.858  20
  -2  -4   9 914.855 102.527  34
  -2  -4   9 915.345 117.167   9
   2   4  -9 1094.28 112.384  33
  -2   4   9 830.540 97.4016  50
   2  -4  -9 1266.02 186.477  18
   2   4  -9 957.614 112.459  18
  -2   4   9 1021.18 119.992  56
   2  -4  -9 982.908 115.455  29
  -2   4   9 1282.60 123.803  28
  -2  -4   9 934.442 101.382  27
   2   4  -9 882.911 116.187  51
  -2   4   9 1176.85 104.581  53
   2  -4  -9 964.867 136.995  11
  -2  -4   8 29894.6 1409.99  47
  -2   4   8 28873.6 1420.46  24
  -2  -4   8 29230.8 1418.83  27
   2   4  -8 31245.6 1420.50  44
  -2  -4   8 23410.4 1431.70  23
  -2   4   8 28908.7 1432.93  14
  -2  -4   8 22454.6 1420.92  14
   2  -4  -8 25435.1 1451.36  22
   2  -4  -8 31309.3 1466.23  21
  -2  -4   8 25312.6 1432.24   9
   2   4  -8 31795.7 1440.26  21
  -2   4   8 27895.1 1424.41  20
   2  -4  -8 29642.3 1412.15  29
  -2  -4   8 25739.4 1405.49  34
   2  -4  -8 31689.6 1486.20  18
   2   4  -8 31098.6 1428.94  18
  -2   4   8 28383.9 1427.87  56
   2  -4  -8 22280.5 1477.59  11
  -2   4   8 30525.1 1410.95  53
   2  -4  -8 22148.3 1464.50   8
  -2  -4   8 27448.6 1403.22  55
  -2   4   8 31305.5 1408.89  50
   2  -4  -8 28341.4 1435.42  51
   2   4  -7 4615.06 278.745  25
  -2  -4   7 4874.11 264.857  47
  -2   4   7 4768.02 262.242  53
  -2   4   7 4500.78 266.411  24
   2   4  -7 5051.42 268.277  44
  -2  -4   7 4066.49 282.947  23
  -2   4   7 4974.81 282.235  14
  -2  -4   7 3708.08 268.535  14
   2  -4  -7 3895.16 355.052  22
   2  -4  -7 5204.60 303.957  21
  -2  -4   7 4053.51 280.578   9
   2   4  -7 4620.66 280.935  21
  -2   4   7 4422.36 278.648  13
  -2   4   7 4274.48 268.794  20
  -2  -4   7 4568.45 261.171  34
   2  -4  -7 4947.04 319.338  18
   2   4  -7 4650.61 272.927  18
  -2   4   7 3966.43 267.303  56
   2  -4  -7 4178.77 257.625  29
   2  -4  -7 3809.52 355.609   8
   2  -4  -7 3447.02 365.691  11
  -2   4   7 4111.03 252.358  27
   2  -4  -7 4413.50 283.810  51
  -2  -4   7 4359.27 263.882  27
  -2   4   7 4766.07 259.203  50
   2   4  -6 19477.4 986.201  25
  -2  -4   6 20983.1 976.331  47
  -2  -4   6 19135.2 991.387  23
  -2  -4   6 18194.7 982.754  14
   2  -4  -6 18892.9 1048.47  22
   2  -4  -6 18161.7 964.401  29
   2  -4  -6 20533.4 1002.58  21
  -2  -4   6 19039.1 992.579   9
  -2   4   6 19196.7 990.160  13
  -2   4   6 18331.4 981.259  20
  -2  -4   6 20702.8 971.368  34
  -2   4   6 18777.0 975.137  24
   2  -4  -6 19384.4 1013.37  18
   2   4  -6 20021.2 982.793  18
  -2   4   6 19177.6 981.575  56
  -2  -4   6 19217.8 969.073  55
   2  -4  -6 17694.3 985.255  17
  -2   4   6 20589.8 971.414  53
   2  -4  -6 20724.2 1053.82   8
   2  -4  -6 19825.3 1056.96  11
  -2   4   6 17043.1 964.231  27
  -2  -4   6 18990.4 977.762  27
  -2   4   6 20911.0 971.048  50
   2  -4  -6 19209.7 986.588  51
  -2  -4   5 9595.07 481.650  27
   2   4  -5 8990.12 490.068  25
  -2   4   5 9325.50 477.661  50
  -2  -4   5 9006.81 478.699  47
  -2   4   5 8129.55 480.465  24
  -2  -4   5 10425.2 491.595  14
   2  -4  -5 9694.22 535.299  22
   2  -4  -5 8971.76 497.021  21
  -2  -4   5 9989.46 497.802   9
  -2   4   5 9792.42 501.455  13
  -2   4   5 8880.65 490.492  20
  -2  -4   5 8701.34 481.786   2
   2  -4  -5 9028.59 510.995  18
   2   4  -5 9562.93 491.047  18
  -2   4   5 9311.93 478.299  53
  -2   4   5 8493.02 485.819  56
   2  -4  -5 9466.32 528.496   8
  -2  -4   5 8411.48 472.066  55
   2   4  -4 37367.4 1803.15  25
  -2   4   4 32885.0 1790.29  24
  -2  -4   4 42021.1 1801.11  23
  -2  -4   4 41359.1 1792.81  14
  -2  -4   4 39030.7 1798.45   9
   2  -4  -4 33043.6 1794.07  21
  -2   4   4 33764.9 1802.60  13
  -2   4   4 34996.8 1797.58  20
   2  -4  -4 33426.1 1807.36  18
   2   4  -4 39373.6 1803.17  18
  -2   4   4 34107.1 1794.78  56
  -2  -4   4 35966.6 1790.25   2
   2  -4  -4 34616.9 1816.03  11
   2   4  -3 8941.53 508.888  10
  -2   4   3 9106.67 511.186  24
  -2  -4   3 11249.1 510.478  23
  -2  -4   3 11614.3 505.439  14
   2   4  -3 10360.7 500.240   3
   2  -4  -3 8156.46 515.408  22
   2  -4  -3 8471.15 503.883  21
   2   4  -3 10458.3 522.484  21
  -2   4   3 9313.49 515.585  20
   2   4  -3 12222.0 535.604  25
   2  -4  -3 8679.24 514.607  18
   2   4  -3 10045.9 508.839   4
  -2   4   3 8542.84 511.257  56
  -2  -4   3 9857.91 505.418   2
   2  -4  -3 9418.29 524.665  11
   2  -4  -3 9024.80 519.302   8
   2   4  -2 48740.2 2297.86   4
  -2   4   2 43487.9 2304.98  24
   2   4  -2 47715.8 2300.43  10
  -2  -4   2 48914.2 2295.40   2
   2   4  -2 47537.2 2296.40   3
  -2   4   2 44656.0 2307.49  20
   2  -4  -2 41446.7 2296.96  18
  -2   4   2 44468.5 2308.78  56
   2  -4  -2 46189.7 2304.59   8
   2  -4  -2 43743.6 2305.29  11
  -2  -4   1 19425.7 895.706   2
   2   4  -1 18202.8 898.038   4
   2   4  -1 19811.5 899.220  10
   2   4  -1 15753.9 902.976   7
   2   4  -1 19302.4 911.648   3
   2  -4  -1 17063.1 898.890  11
  -2   4   1 16907.5 903.455   1
   2  -4  -1 15589.2 887.987  18
  -2   4   1 16177.5 911.471  16
   2   4  -1 20034.7 893.882   1
   2  -4  -1 16662.4 896.412   8
   2   4   0 38026.0 1592.38  25
  -2   4   0 28308.0 1584.54   1
   2  -4   0 29447.4 1578.00  11
  -2  -4   0 32081.0 1579.31   2
   2   4   0 32743.1 1578.68  10
   2   4   0 32335.3 1577.84   1
   2   4   0 35821.3 1592.65   7
  -2   4   0 27472.6 1595.14  16
  -2  -4   0 34402.5 1568.22  12
   2  -4   0 28417.9 1576.29   8
   2   4   1 18710.9 904.226  25
   2   4   1 18083.2 898.560  10
  -2  -4  -1 17897.2 905.419   2
   2   4   1 19664.8 909.243   7
   2   4   1 17229.1 905.028   1
  -2   4  -1 15607.4 904.075   1
  -2  -4  -1 19745.9 893.185  12
  -2   4  -1 16486.4 921.637  16
   2  -4   1 17467.7 898.926  11
   2  -4   1 16498.6 896.411   8
   2  -4   2 45656.0 2235.79  11
   2   4   2 44429.7 2235.71  10
  -2  -4  -2 45403.3 2248.66   2
   2   4   2 47162.8 2248.61   7
   2   4   2 44875.3 2241.16   2
  -2  -4  -2 49744.6 2235.56  12
   2   4   2 45288.5 2260.74   1
  -2   4  -2 41633.4 2258.68  16
   2  -4   2 44224.3 2234.43   8
  -2   4  -3 5247.82 329.795  16
   2   4   3 5129.43 305.182  10
  -2  -4  -3 5996.62 345.375  35
  -2   4  -3 5014.72 313.490  12
  -2  -4  -3 6036.01 310.169  12
  -2   4  -3 5333.48 300.247  54
   2  -4   3 5578.09 303.721   8
   2  -4   3 5571.45 303.269  11
   2   4   4 19246.0 959.126  24
  -2   4  -4 20583.5 957.357  43
  -2  -4  -4 23811.0 976.594  41
   2  -4   4 18678.7 960.493  22
  -2   4  -4 18347.3 971.261  38
  -2   4  -4 20940.0 1002.98  16
  -2   4  -4 20122.8 973.980  12
  -2  -4  -4 18819.6 966.795  12
  -2   4  -4 18814.7 973.905  32
  -2  -4  -4 18636.5 983.871  32
  -2  -4  -4 19372.2 959.341  30
  -2   4  -4 17945.0 959.011  54
   2  -4   4 19041.5 992.179   5
   2  -4   4 18446.2 967.400  17
  -2  -4  -4 18262.3 967.720  49
  -2   4  -4 15738.4 959.354  41
  -2   4  -5 5856.96 324.842  46
   2   4   5 6069.38 324.531  24
  -2   4  -5 5811.14 314.604  43
  -2  -4  -5 6661.01 333.298  41
  -2   4  -5 4447.84 325.504  41
  -2   4  -5 4750.70 332.299  39
  -2   4  -5 5257.58 333.728  38
  -2  -4  -5 6316.64 328.605  37
  -2   4  -5 6648.60 335.457  37
  -2  -4  -5 6316.77 367.102  35
   2   4   5 5899.17 326.071   6
  -2   4  -5 5912.57 331.417  12
  -2  -4  -5 5320.06 331.081  12
  -2   4  -5 5918.59 371.663  32
  -2  -4  -5 5915.34 343.999  32
  -2  -4  -5 5964.92 320.192  30
   2  -4   5 4735.29 359.186   5
   2  -4   5 5638.99 337.049  17
  -2  -4  -5 4932.78 325.944  49
  -2   4  -6 18443.5 880.956  46
   2   4   6 19056.3 886.991  24
  -2   4  -6 17548.3 868.404  43
  -2  -4  -6 17205.3 859.268  43
  -2   4  -6 15157.6 881.157  54
  -2  -4  -6 20733.5 895.790  41
  -2   4  -6 16509.7 898.672  39
  -2  -4  -6 19321.4 891.148  37
  -2   4  -6 19101.9 891.706  37
  -2  -4  -6 17032.5 869.134  36
  -2  -4  -6 19152.3 915.920  35
   2   4   6 18721.1 890.253   6
   2  -4   6 13623.6 912.908   9
  -2   4  -6 18514.5 886.851  12
   2  -4   6 11028.8 895.018  19
  -2  -4  -6 15071.7 890.482  12
  -2   4  -6 19125.2 896.671  32
  -2  -4  -6 17538.1 892.747  32
   2  -4   6 11753.8 907.958   5
  -2  -4  -6 19461.9 877.461  30
  -2  -4  -6 13963.7 882.294  49
  -2   4  -7 5336.58 309.698  46
   2   4   7 5962.52 321.413  24
  -2  -4  -7 5510.09 319.689  41
  -2  -4  -7 6121.17 331.185  37
  -2   4  -7 4502.99 324.309  54
  -2   4  -7 5276.20 318.490  37
  -2  -4  -7 5193.42 302.844  36
   2  -4   7 5717.42 346.815   9
  -2   4  -7 5315.63 311.663  12
  -2  -4  -7 4727.47 334.493  12
  -2   4  -7 5556.22 398.231  32
  -2  -4  -7 5560.36 323.199  32
  -2  -4  -7 4290.96 321.401  49
  -2   4  -8 8785.45 482.049  46
   2   4   8 9382.49 495.008  24
  -2  -4  -8 9935.17 497.056  41
  -2   4  -8 9047.93 515.103  41
  -2   4  -8 9226.52 495.273  37
  -2  -4  -8 8106.27 473.846  36
   2  -4   8 9915.44 502.102   9
  -2   4  -8 9291.75 484.865  12
  -2  -4  -8 7239.21 506.498  12
  -2   4  -8 8900.64 556.551  32
  -2  -4  -8 8482.63 486.813  32
  -2  -4  -8 7902.39 498.480  49
  -2   4  -9 2813.07 196.804  46
   2   4   9 3204.92 211.436  24
   2  -4   9 2897.50 208.136  23
  -2  -4  -9 3491.27 218.854  41
   2  -4   9 3089.64 210.292  14
  -2   4  -9 2987.33 213.960  37
  -2  -4  -9 2970.69 202.096  36
  -2   4  -9 2980.36 197.464  12
  -2  -4  -9 2876.30 233.012  12
  -2  -4  -9 2885.84 205.401  32
  -2   4  -9 2791.93 334.821  32
  -2   4  -9 3003.82 239.222  41
  -2   4  -9 2927.45 199.223  52
  -2  -4  -9 2986.87 229.730  49
  -2   4 -10 8786.99 456.004  46
   2   4  10 7684.78 464.197  24
  -2   4 -10 9548.57 496.603  41
   2  -4  10 8688.87 469.027  14
  -2   4 -10 8568.44 470.321  37
  -2  -4 -10 7897.76 455.528  36
   2  -4  10 9208.11 476.967  13
  -2  -4 -10 8777.60 496.771  12
  -2  -4 -10 7966.33 457.629  32
  -2   4 -10 8355.03 452.610  52
  -2  -4 -10 7988.69 486.058  49
   2   4  11 995.103 98.8480  24
  -2   4 -11 1308.68 138.124  41
  -2   4 -11 997.875 110.997  37
  -2  -4 -11 1201.50 104.277  36
  -2  -4 -11 1125.94 127.700  49
  -2   4 -12 4928.25 269.969  41
  -2   4 -12 4294.64 249.758  37
  -2  -4 -12 4406.57 242.515  32
  -2  -4 -12 3965.20 248.858  49
  -2   5  14 594.558 68.8069  45
   2   5 -14 527.397 81.8447  44
   2  -5 -14 512.052 74.7722  40
  -2  -5  14 501.557 55.0651  50
   2  -5 -14 505.064 60.0051  35
  -2  -5  14 509.345 47.6507  34
  -2  -5  14 390.871 59.9813  53
   2   5 -14 480.479 53.3783  29
   2  -5 -14 474.477 94.3820  51
  -2  -5  13 303.344 46.7486  27
  -2   5  13 392.011 78.6717  45
   2  -5 -13 358.246 118.409  51
  -2   5  13 489.027 69.1460  50
   2   5 -13 510.269 90.8752  44
   2  -5 -13 419.414 90.0403  29
   2  -5 -13 482.533 95.3898  40
   2  -5 -13 333.797 82.8375  35
  -2  -5  13 547.389 58.2916  34
   2   5 -13 454.802 59.8045  29
  -2  -5  13 340.989 68.3723  53
   2   5 -13 473.069 69.6095  52
  -2  -5  13 539.346 66.2787  50
  -2   5  12 356.701 80.6584  45
   2   5 -12 245.770 87.5318  44
  -2  -5  12 207.724 64.1648  23
   2  -5 -12 170.277 107.531  40
  -2   5  12 248.994 68.2421  53
  -2   5  12 201.011 61.5168  38
   2  -5 -12 202.455 109.346  35
  -2   5  12 244.306 80.3536  20
   2   5 -12 296.447 63.1438  29
  -2  -5  12 301.637 57.5927  34
   2   5 -12 261.495 70.1694  33
  -2  -5  12 251.914 53.5486  27
   2  -5 -12 253.906 94.9576  29
  -2   5  12 304.956 86.6151  56
   2  -5 -12 382.244 124.965  51
  -2  -5  12 263.416 73.6667  53
   2   5 -12 222.299 75.8759  52
   2   5 -12 265.166 72.6434  51
  -2   5  12 250.953 67.3010  50
  -2  -5  12 343.420 66.4262  50
  -2   5  11 279.198 76.9541  45
   2   5 -11 161.710 84.3592  44
   2   5 -11 202.711 78.3985  15
  -2  -5  11 119.277 68.4288  23
  -2  -5  11 131.641 52.9019  14
   2   5 -11 98.2762 69.9482  21
  -2   5  11 147.712 73.3157  13
   2  -5 -11 130.821 129.733  35
  -2   5  11 123.749 76.3396  20
  -2  -5  11 173.776 60.6004  34
   2   5 -11 153.471 72.0877  33
  -2   5  11 162.427 85.0060  56
  -2  -5  11 282.200 63.2862  27
   2  -5 -11 192.346 86.4996  29
  -2   5  11 218.613 68.5189  50
  -2   5  11 180.912 65.0021  53
   2   5 -11 196.230 79.1669  52
   2  -5 -11 135.389 116.260  51
  -2  -5  11 180.720 59.0053  50
   2   5 -11 220.277 82.5363  51
  -2   5  10 504.195 86.7407  45
  -2   5  10 655.012 96.5815  24
   2   5 -10 474.202 97.2926  44
  -2  -5  10 447.107 94.5461  23
  -2   5  10 623.886 86.7406  50
   2  -5 -10 619.599 137.803  40
  -2  -5  10 473.880 76.3776  14
  -2  -5  10 439.806 75.8939  27
   2   5 -10 559.151 98.6868  21
  -2   5  10 415.738 92.5424  13
  -2   5  10 489.884 93.0352  20
  -2  -5  10 647.522 83.4197  34
  -2  -5  10 458.987 88.8032   9
   2   5 -10 610.339 91.2118  33
  -2   5  10 557.148 102.635  56
   2  -5 -10 652.516 139.166  51
   2  -5 -10 395.939 97.5484  29
   2   5 -10 641.485 98.1740  51
  -2   5  10 585.427 83.2776  53
  -2   5   9 300.198 71.4863  45
  -2   5   9 170.548 71.1816  24
   2   5  -9 287.820 79.6640  44
   2  -5  -9 106.015 134.634  18
  -2  -5   9 260.037 83.8206  23
   2  -5  -9 175.379 119.082  40
  -2  -5   9 214.678 61.9632  14
   2   5  -9 245.464 77.3350  21
  -2   5   9 161.729 71.4004  13
  -2   5   9 198.212 67.6370  20
  -2  -5   9 246.735 71.6320  34
  -2  -5   9 110.616 71.7482   9
   2   5  -9 236.921 70.4931  33
  -2   5   9 204.479 67.0361  53
  -2   5   9 223.942 80.6799  56
  -2  -5   9 262.946 69.5491  55
   2  -5  -9 116.675 80.3845  29
   2  -5  -9 93.9813 93.3320  30
  -2   5   9 255.561 79.8299  28
   2  -5  -9 147.621 119.134  51
  -2   5   9 272.972 69.7724  50
   2   5  -9 196.039 82.2008  51
  -2  -5   9 241.276 66.2811  27
   2  -5  -9 176.758 98.8795  11
   2  -5  -8 771.623 131.823  51
  -2   5   8 805.083 96.4693  24
  -2   5   8 789.439 88.2313  45
   2  -5  -8 582.758 164.463   8
   2   5  -8 928.987 105.647  44
  -2  -5   8 753.595 94.5982  55
  -2  -5   8 1025.26 96.1043  47
  -2  -5   8 630.863 104.993  23
   2  -5  -8 933.075 139.293  40
  -2  -5   8 599.050 88.4737  14
   2  -5  -8 600.771 131.020  22
   2  -5  -8 816.973 130.961  21
   2   5  -8 806.892 101.808  21
  -2   5   8 635.809 96.6092  13
   2  -5  -8 857.502 207.452  35
  -2   5   8 643.216 97.7292  20
  -2  -5   8 842.010 95.7790  34
  -2  -5   8 690.901 105.687   9
   2   5  -8 800.526 96.3140  33
  -2   5   8 817.223 89.7632  53
   2  -5  -8 961.274 165.020  18
  -2   5   8 906.767 110.446  56
   2   5  -8 809.332 96.8611  18
   2  -5  -8 639.803 93.9346  29
  -2   5   8 788.607 88.8620  50
  -2   5   8 919.961 113.674  28
  -2  -5   8 749.551 94.2892  27
   2  -5  -8 375.151 174.302  11
   2   5  -7 5540.56 319.540  25
  -2   5   7 5403.37 292.494  50
  -2   5   7 5086.82 305.389  24
  -2   5   7 5337.23 292.056  45
   2   5  -7 6020.88 308.935  44
  -2  -5   7 4399.79 301.437  14
   2  -5  -7 5433.15 318.663  40
   2  -5  -7 3546.97 381.495  22
   2  -5  -7 5354.06 331.551  21
  -2   5   7 5447.09 295.975  53
  -2  -5   7 3655.11 306.372   9
   2   5  -7 5691.37 318.179  21
  -2   5   7 5286.56 320.272  13
  -2   5   7 4905.75 310.019  20
   2  -5  -7 5469.58 388.005  35
  -2  -5   7 4754.56 294.180  55
  -2  -5   7 4305.11 288.911  34
   2   5  -7 5510.30 303.465  33
  -2  -5   7 5379.35 300.907  47
  -2  -5   7 5365.43 305.551  27
   2  -5  -7 5262.94 355.053  18
   2   5  -7 5668.37 306.455  18
  -2   5   7 5270.95 312.922  56
   2  -5  -7 4988.44 292.517  29
   2  -5  -7 3406.68 400.247   8
   2  -5  -7 3530.07 410.816  11
  -2   5   7 6480.22 321.580  28
   2  -5  -7 4830.08 314.002  51
   2  -5  -6 935.051 240.760  11
   2   5  -6 1024.61 109.922  25
  -2  -5   6 1074.37 102.600  47
  -2  -5   6 1025.84 100.226  55
  -2   5   6 1029.09 101.184  24
  -2   5   6 998.824 92.4013  45
   2  -5  -6 959.631 237.314   8
  -2   5   6 1172.01 98.2628  53
  -2  -5   6 950.712 96.7707  14
   2  -5  -6 876.022 224.397  22
   2  -5  -6 1139.39 124.462  21
  -2   5   6 895.180 83.8395  38
  -2   5   6 988.012 110.783  13
  -2  -5   6 982.650 110.313   9
   2   5  -6 1170.09 114.905  21
  -2   5   6 941.827 107.137  20
   2   5  -6 1107.77 100.258  33
   2   5  -6 1034.02 99.6616  18
  -2   5   6 1016.37 108.774  56
   2  -5  -6 804.431 135.347  18
   2  -5  -6 960.103 92.5392  29
  -2   5   6 1274.99 117.834  28
   2  -5  -6 887.787 164.258  17
  -2  -5   6 1029.15 103.167  27
  -2   5   6 1168.46 96.4878  50
  -2  -5   5 2893.40 198.153  47
  -2   5   5 2730.65 197.408  24
  -2   5   5 3154.56 191.271  45
  -2  -5   5 3261.17 209.910  23
  -2  -5   5 3524.03 199.866  14
   2  -5  -5 2962.21 289.912  22
   2  -5  -5 3240.45 210.867  21
  -2   5   5 2927.62 213.553  13
  -2  -5   5 3082.74 209.109   9
   2   5  -5 3240.36 213.447  21
  -2  -5   5 3348.15 193.194  34
   2  -5  -5 3288.50 232.985  17
   2  -5  -5 2841.63 224.497  18
   2   5  -5 3116.37 200.761  18
   2   5  -5 3198.94 208.318  25
  -2  -5   5 3008.07 193.490  55
  -2   5   5 3768.13 212.145  28
  -2   5   5 2852.46 204.859  56
  -2   5   5 2997.21 188.290  50
  -2   5   5 3031.31 190.829  53
  -2  -5   5 3565.90 202.513  26
   2   5  -4 1367.64 121.388  25
   2  -5  -4 1463.31 180.086  11
  -2  -5   4 1155.13 103.666  47
   2   5  -4 1131.01 105.385  10
  -2   5   4 1080.97 106.265  24
  -2   5   4 1244.46 100.842  45
  -2  -5   4 1443.27 110.976  23
  -2  -5   4 1352.45 96.1144  14
  -2  -5   4 1025.31 105.563  49
   2  -5  -4 1158.16 102.296  21
  -2   5   4 1073.98 114.931  13
   2   5  -4 1314.88 112.916  18
   2  -5  -4 987.528 121.762  18
  -2  -5   4 1165.82 101.794   2
  -2  -5   4 1172.92 98.6147  55
  -2   5   4 1102.58 96.3715  53
  -2   5   4 1259.05 113.056  56
  -2   5   4 1255.42 116.497  28
   2  -5  -4 1200.68 164.846   8
   2  -5  -4 948.846 118.143  17
  -2  -5   4 1275.86 99.1932  27
  -2   5   4 1073.63 95.6453  50
   2   5  -3 4057.76 248.789  25
  -2   5   3 3023.78 219.233  24
   2   5  -3 3421.59 220.162  10
  -2  -5   3 4002.14 216.918  23
  -2  -5   3 3948.75 203.767  14
   2   5  -3 3735.18 201.792   3
   2  -5  -3 3236.72 251.850  22
  -2  -5   3 4090.01 219.234   9
   2   5  -3 3580.52 213.941   4
  -2  -5   3 3882.17 221.536   2
   2  -5  -3 3015.13 220.443  18
  -2   5   3 3163.23 223.801  56
   2  -5  -3 3195.15 249.391  11
   2  -5  -3 2837.45 242.051   8
   2   5  -2 1437.20 107.541   4
   2  -5  -2 1043.99 134.422  11
  -2   5   2 1242.48 122.216  24
   2   5  -2 1401.92 115.058  10
  -2  -5   2 1774.38 109.759  23
   2  -5  -2 1329.62 137.731  22
   2   5  -2 1562.47 107.487   3
  -2   5   2 1240.56 113.916   1
   2  -5  -2 1288.61 113.140  18
  -2   5   2 1484.52 131.315  56
   2  -5  -2 1314.55 135.952   8
  -2  -5   2 1578.95 113.018   2
  -2   5   1 3236.09 218.715  24
   2   5  -1 3563.86 206.715  10
   2   5  -1 3401.06 199.812   4
   2  -5  -1 2864.56 212.990  22
   2  -5  -1 2769.46 209.591  11
  -2   5   1 2809.13 201.064   1
   2   5  -1 3764.04 193.270   1
   2  -5  -1 3351.80 217.119   8
  -2   5   1 2373.55 209.302  16
  -2  -5   1 3747.25 203.400   2
   2  -5   0 118.017 72.7314  11
  -2   5   0 59.7071 67.8045  16
   2   5   0 159.014 65.2962  25
   2   5   0 148.529 43.1051   1
   2  -5   0 129.251 65.8722   8
   2   5   0 130.473 49.7256  10
   2  -5   0 123.879 67.2003  22
   2   5   0 85.3437 59.2913   7
  -2  -5   0 126.425 42.1451   2
  -2   5   0 141.690 52.6796   1
   2  -5   1-5.36240 63.4175  11
   2   5   1 118.755 53.3036  25
   2  -5   1 32.4759 59.4487   8
   2   5   1 83.8241 46.0282   1
   2   5   1 15.7789 44.9405  10
   2  -5   1 109.524 71.9294  22
   2   5   1 75.4929 49.8842   7
  -2  -5  -1 61.1826 44.4744  12
  -2   5  -1 53.4557 46.4813   1
  -2   5  -1 35.8255 75.5448  16
  -2   5  -2 887.650 112.493  16
   2  -5   2 662.543 88.4014  11
  -2   5  -2 624.515 98.1620  45
  -2   5  -2 475.161 77.3026  43
   2   5   2 718.484 78.3906  10
  -2   5  -2 570.288 85.6648  50
  -2  -5  -2 671.028 91.3034  41
   2  -5   2 626.845 90.2408  22
   2   5   2 796.586 85.4184   7
  -2  -5  -2 930.848 115.513  35
  -2  -5  -2 919.675 78.9176  12
  -2  -5  -2 756.565 93.2430  30
  -2   5  -2 530.323 78.5097  54
   2  -5   2 734.165 93.5262  17
   2  -5   2 923.402 93.3057   8
   2  -5   3 290.537 67.0909  11
  -2   5  -3 176.852 83.3652  45
   2  -5   3 272.924 63.3646   8
  -2   5  -3 200.666 70.7649  42
  -2   5  -3 227.171 80.1674  16
  -2  -5  -3 186.072 69.5399  41
   2   5   3 256.277 51.7570  10
  -2  -5  -3 202.024 51.4372  48
   2  -5   3 225.632 69.7449  22
  -2   5  -3 184.589 71.7264  38
   2   5   3 349.563 66.2611   7
  -2  -5  -3 267.050 103.723  35
   2  -5   3 200.453 73.3383  17
  -2   5  -3 190.617 122.314  32
  -2  -5  -3 296.157 90.4061  32
  -2  -5  -3 337.776 58.2356  12
  -2   5  -3 190.149 71.7787  54
   2  -5   3 233.441 77.2227   5
  -2  -5  -4 196.213 53.6557  48
  -2   5  -4 96.5818 79.0873  45
  -2   5  -4 107.980 66.6816  43
  -2   5  -4 92.6743 73.9803  42
  -2  -5  -4 181.115 77.6220  41
  -2   5  -4 168.365 79.0395  41
  -2   5  -4 154.594 68.4374  39
   2   5   4 130.984 49.7879  10
  -2   5  -4 189.533 73.6242  38
   2  -5   4 83.1094 76.9282  17
  -2  -5  -4 101.898 58.3885  36
  -2  -5  -4 252.444 116.780  35
  -2   5  -4-27.1973 187.015  32
  -2  -5  -4 111.439 90.1252  32
  -2  -5  -4 184.170 54.5947  12
  -2  -5  -4 138.154 64.6882  30
  -2   5  -4 153.501 89.9320  54
   2  -5   4 201.078 87.3835   5
   2   5   5 1053.17 90.5845  24
  -2   5  -5 668.586 94.6729  43
  -2   5  -5 840.606 107.620  42
  -2  -5  -5 1056.83 105.745  41
  -2   5  -5 532.122 108.565  41
  -2   5  -5 685.072 104.820  39
  -2  -5  -5 998.673 101.397  37
  -2   5  -5 1065.56 107.681  37
  -2  -5  -5 860.645 92.8427  36
  -2   5  -5 1035.99 100.127  12
  -2   5  -5 922.099 242.110  32
   2  -5   5 656.421 135.744  19
  -2  -5  -5 844.529 123.546  32
  -2  -5  -5 810.082 92.0813  12
  -2  -5  -5 774.454 92.1277  30
   2   5   5 965.018 95.9544  10
   2  -5   5 449.985 126.814   5
   2  -5   5 729.777 126.685  17
  -2   5  -6 958.500 100.643  46
   2   5   6 1075.07 96.9739  24
  -2  -5  -6 1020.86 84.7101  43
  -2   5  -6 751.288 98.4023  42
  -2  -5  -6 1020.99 111.102  41
  -2   5  -6 690.904 123.977  41
  -2   5  -6 635.744 116.051  39
  -2   5  -6 895.259 107.803  37
  -2  -5  -6 850.025 98.8264  36
  -2   5  -6 976.444 96.9667  12
  -2   5  -6 683.969 261.261  32
   2  -5   6 525.272 127.558  19
  -2  -5  -6 880.860 122.450  32
  -2  -5  -6 817.965 101.777  12
  -2  -5  -6 909.376 95.0401  30
   2  -5   6 750.244 132.765   9
   2  -5   6 684.900 144.771   5
  -2  -5  -6 912.903 115.633  49
  -2   5  -7 571.014 90.1372  46
   2   5   7 460.332 75.3783  24
  -2  -5  -7 451.934 61.3343  43
  -2  -5  -7 706.508 99.0082  41
  -2   5  -7 354.781 102.217  39
  -2   5  -7 588.508 96.7566  37
  -2  -5  -7 548.271 89.4957  36
  -2  -5  -7 450.761 118.763  35
  -2   5  -7 401.534 239.192  32
  -2  -5  -7 519.557 105.411  32
  -2   5  -7 576.374 77.5020  12
  -2  -5  -7 618.315 97.0510  12
   2  -5   7 463.926 103.146   9
  -2  -5  -7 633.704 82.2952  30
  -2   5  -7 506.390 122.802  54
  -2  -5  -7 331.886 97.6394  49
  -2  -5  -8 106.052 92.6274  49
  -2   5  -8 94.2456 67.5804  46
   2   5   8 42.4474 48.9712  24
   2  -5   8 102.265 73.1817  23
  -2   5  -8 39.4824 75.4716  37
  -2  -5  -8 154.999 75.6663  36
  -2   5  -8 31.0658 151.979  32
  -2  -5  -8 47.2302 84.2087  32
   2  -5   8 78.6540 60.2766   9
  -2  -5  -8 80.1488 73.3684  12
  -2   5  -9 41.7654 61.0171  46
   2   5   9 55.5833 53.1803  24
  -2   5  -9 202.111 104.805  41
   2  -5   9-51.8738 65.3643  23
   2   5   9 28.9550 46.8360  10
   2  -5   9 14.6667 49.3053  14
  -2   5  -9 179.399 82.2384  37
  -2  -5  -9 5.50901 71.2537  36
  -2  -5  -9 24.6971 79.0503  32
  -2  -5  -9 36.8509 71.9889  12
  -2   5  -9 72.6911 67.3270  52
  -2  -5  -9 110.671 101.497  49
  -2   5 -10 161.164 61.8611  46
   2   5  10 132.125 50.4619  24
  -2   5 -10 234.016 101.012  41
   2  -5  10 37.3501 50.8975  23
  -2   5 -10 178.031 75.9320  37
  -2  -5 -10 149.062 70.0123  36
  -2  -5 -10 133.604 73.5039  32
  -2   5 -10 58.4412 57.9013  52
  -2  -5 -10 119.998 99.3692  49
  -2   5 -11 63.3288 81.2000  41
  -2   5 -11-28.1570 63.2010  37
  -2  -5 -11-11.0174 57.1762  36
  -2  -5 -11 8.49925 60.1888  32
  -2  -5 -11 25.5115 83.4857  49
  -2  -5 -12 51.7774 61.1477  49
  -2   5 -12-25.3334 62.7197  41
  -2   5 -12-9.98596 47.0464  37
   2   6 -14 2791.96 159.678  29
  -2   6  14 3319.46 180.679  45
   2   6 -14 3155.69 188.113  44
   2  -6 -14 2754.53 175.130  40
   2  -6 -14 2827.46 166.071  35
  -2  -6  14 3015.54 158.672  34
  -2  -6  14 2838.57 168.401  53
   2  -6 -14 2931.77 200.017  51
  -2  -6  14 3022.60 161.700  50
  -2   6  13 3615.49 212.244  45
   2   6 -13 3249.46 218.510  44
  -2  -6  13 3180.67 199.803  53
   2  -6 -13 3671.77 223.697  40
   2  -6 -13 3370.40 214.798  35
  -2  -6  13 3436.09 188.753  34
   2   6 -13 3523.00 193.103  29
   2  -6 -13 3453.71 237.301  51
  -2  -6  13 3078.68 184.029  27
  -2  -6  13 3400.80 192.436  50
  -2   6  12 7662.61 404.525  45
   2   6 -12 7551.15 414.511  44
   2  -6 -12 7721.93 418.401  29
  -2  -6  12 7238.75 408.970  23
  -2   6  12 7525.79 389.294  50
  -2   6  12 6671.31 388.307  38
   2  -6 -12 7112.07 421.632  35
  -2  -6  12 7508.44 384.218  34
   2   6 -12 6874.64 401.138  33
   2   6 -12 7635.83 387.342  29
   2   6 -12 6734.40 390.598  52
   2  -6 -12 7574.21 439.008  51
  -2  -6  12 7120.68 382.143  27
  -2  -6  12 6914.64 382.579  50
  -2  -6  11 5951.18 324.305  27
  -2   6  11 6063.56 338.064  45
   2   6 -11 6120.48 364.073  15
   2   6 -11 5489.90 342.536  44
  -2  -6  11 5928.51 348.999  23
   2   6 -11 5939.66 335.489  52
  -2   6  11 5563.36 322.255  50
  -2  -6  11 5098.39 330.780  14
   2  -6 -11 6363.62 376.022  40
  -2  -6  11 5976.69 346.556   9
  -2   6  11 5969.09 332.533  38
  -2   6  11 5995.20 368.919  13
  -2   6  11 5860.92 362.207  20
  -2  -6  11 6010.47 320.288  34
   2   6 -11 5604.46 339.609  33
  -2   6  11 5300.63 371.628  56
   2  -6 -11 6246.20 353.858  29
   2   6 -11 5973.96 323.805  29
   2  -6 -11 6488.12 381.592  51
   2   6 -11 5428.78 321.638  51
  -2  -6  11 5554.18 316.605  50
  -2   6  10 11890.2 666.782  24
  -2   6  10 12081.9 644.125  45
   2   6 -10 12917.7 657.587  44
  -2  -6  10 11793.5 659.940  23
  -2  -6  10 10852.4 641.469  14
   2  -6 -10 13329.7 684.637  40
   2   6 -10 12336.5 659.690  21
  -2  -6  10 11798.3 658.620   9
  -2   6  10 12246.5 640.303  38
  -2   6  10 12231.0 676.823  13
  -2   6  10 11484.1 667.058  20
  -2  -6  10 12952.7 634.507  34
   2   6 -10 12173.2 651.485  33
  -2   6  10 12421.3 634.949  50
  -2   6  10 11978.4 681.809  56
   2  -6 -10 12555.7 657.602  29
  -2   6  10 12163.9 637.358  53
   2  -6 -10 13094.6 685.707  51
   2   6 -10 12007.4 638.165  51
  -2  -6  10 12874.7 640.068  27
  -2  -6  10 11751.9 625.909  50
  -2   6   9 13509.7 674.531  28
  -2  -6   9 12691.0 656.958  47
  -2   6   9 12620.5 686.239  24
  -2   6   9 13022.6 664.454  45
   2   6  -9 13153.4 676.437  44
  -2   6   9 12524.7 656.425  50
  -2  -6   9 11568.0 679.998  23
   2  -6  -9 11961.0 695.982  11
  -2  -6   9 11207.5 663.848  14
   2  -6  -9 13125.7 703.434  40
  -2   6   9 13703.7 662.349  38
   2   6  -9 13280.2 682.294  21
  -2  -6   9 12238.6 684.924   9
  -2   6   9 11737.0 691.387  13
   2   6  -9 13031.1 666.669  51
  -2   6   9 12033.9 686.615  20
   2  -6  -9 14343.2 762.314  35
  -2  -6   9 13100.7 657.099  34
   2   6  -9 12323.9 670.546  33
   2  -6  -9 12345.0 671.003  29
  -2   6   9 12944.5 701.380  56
   2  -6  -9 11206.7 671.441  30
  -2  -6   9 11464.3 653.995  55
   2  -6  -9 13680.1 701.137  51
  -2   6   9 12979.0 660.757  53
  -2  -6   9 14340.3 668.893  27
  -2   6   8 1917.77 170.284  24
  -2   6   8 2128.21 161.127  45
   2   6  -8 2695.28 182.373  44
  -2  -6   8 2326.95 163.389  47
  -2  -6   8 2226.52 164.348  14
   2  -6  -8 2140.54 203.528  40
   2  -6  -8 2085.56 197.852  22
  -2   6   8 2097.38 156.232  38
   2   6  -8 2408.08 178.062  21
  -2  -6   8 1872.96 175.912   9
  -2   6   8 2457.95 190.410  13
   2  -6  -8 2494.14 284.784  35
  -2  -6   8 2061.61 156.693  34
   2   6  -8 2235.21 169.050  33
   2  -6  -8 2107.91 234.136  18
  -2   6   8 2401.30 191.095  56
   2  -6  -8 2096.60 170.145  29
  -2  -6   8 2443.40 164.917  55
   2  -6  -8 2875.44 243.270   8
  -2   6   8 2715.65 169.115  53
   2  -6  -8 2365.00 253.565  11
  -2   6   8 2538.11 178.566  28
   2  -6  -8 2298.54 198.633  51
  -2   6   8 2334.44 159.758  50
  -2  -6   8 2701.84 175.013  27
   2   6  -7 20014.8 988.636  25
  -2  -6   7 20282.4 964.597  47
  -2   6   7 18946.5 957.259  45
   2   6  -7 21659.8 974.301  44
  -2  -6   7 16986.9 958.662  14
   2  -6  -7 18741.9 982.446  40
   2  -6  -7 18062.8 1049.75  22
  -2   6   7 19069.3 950.594  38
  -2   6   7 19931.8 994.505  13
   2   6  -7 19905.4 977.549  21
  -2  -6   7 15380.8 974.916   9
   2  -6  -7 19475.7 1058.07  35
   2   6  -7 19543.1 966.817  33
   2  -6  -7 21971.8 1043.29  18
   2   6  -7 19677.5 962.793  18
  -2   6   7 19287.8 985.890  56
  -2  -6   7 16477.3 954.416  55
   2  -6  -7 17619.7 956.276  29
   2  -6  -7 16032.2 1063.31   8
  -2   6   7 18650.8 956.707  53
  -2   6   7 21494.0 973.483  28
   2  -6  -7 15655.5 1072.81  11
  -2  -6   7 19154.2 964.306  27
  -2   6   7 19085.3 953.268  50
  -2   6   7 17644.0 971.410  24
   2   6  -6 28047.7 1320.07  25
  -2  -6   6 25752.0 1297.08  47
  -2   6   6 24112.7 1303.02  24
  -2   6   6 28470.2 1292.84  45
  -2  -6   6 22576.6 1305.36  23
  -2   6   6 29635.3 1290.31  50
  -2  -6   6 26687.1 1295.48  14
   2  -6  -6 25124.2 1304.30  40
   2  -6  -6 21935.0 1422.31  22
   2  -6  -6 17584.4 1349.75  17
  -2   6   6 25373.7 1282.42  38
  -2   6   6 29240.8 1333.46  13
   2   6  -6 27869.9 1310.93  21
   2  -6  -6 26811.9 1371.07  35
  -2  -6   6 21762.5 1281.05  34
   2   6  -6 28961.9 1300.94  33
   2  -6  -6 21004.0 1434.55  11
   2  -6  -6 27711.9 1349.17  18
   2   6  -6 28668.8 1300.25  18
  -2   6   6 27095.2 1318.71  56
  -2  -6   6 20831.7 1284.83  55
   2  -6  -6 24068.2 1284.22  29
  -2   6   6 27934.5 1293.56  53
  -2   6   6 30562.3 1308.33  28
   2  -6  -6 20824.0 1424.11   8
  -2  -6   6 25647.8 1297.71  27
  -2   6   5 10392.3 606.329  24
  -2   6   5 11567.1 590.897  50
  -2  -6   5 10732.3 609.559  23
  -2  -6   5 12238.1 595.150  14
  -2  -6   5 9442.57 593.358  47
   2  -6  -5 10693.1 601.986  40
   2  -6  -5 12041.5 764.932  22
  -2   6   5 10818.8 586.926  38
  -2   6   5 12287.8 631.735  13
  -2   6   5 12005.1 597.184  45
   2   6  -5 12153.2 616.604  21
  -2  -6   5 12152.7 592.882  34
   2  -6  -5 12399.1 673.801  19
   2  -6  -5 12367.9 639.291  18
   2   6  -5 12505.1 605.081  18
  -2  -6   5 9097.23 590.424  55
   2  -6  -5 11035.9 690.287  17
  -2   6   5 11923.3 596.091  53
  -2   6   5 11273.2 617.507  56
  -2   6   5 13527.5 613.169  28
   2   6  -5 12306.5 622.168  25
   2   6  -4 20465.0 1009.74  25
  -2   6   4 19447.4 980.790  53
   2   6  -4 19616.8 1001.34  10
  -2   6   4 17808.7 993.758  24
  -2   6   4 19654.7 981.588  45
  -2  -6   4 16966.1 980.817  47
  -2   6   4 19139.1 1005.42  56
  -2  -6   4 19404.3 992.498  49
  -2  -6   4 21007.7 995.103  23
  -2  -6   4 20742.5 974.877  14
  -2   6   4 17724.0 972.627  38
  -2  -6   4 21271.5 1000.47   9
   2   6  -4 21296.8 1006.36  21
   2  -6  -4 18811.1 1042.64  17
  -2   6   4 18353.8 974.835  50
  -2  -6   4 21880.8 977.946  34
   2   6  -4 19740.8 983.463  33
   2  -6  -4 17763.6 1001.56  18
   2   6  -4 20831.7 996.191  18
  -2  -6   4 17457.7 978.841  55
   2  -6  -4 20125.5 1093.19   8
  -2   6   4 19929.2 994.395  28
   2  -6  -4 20314.2 1100.17  11
  -2  -6   4 18916.1 983.186  27
  -2  -6   4 20813.6 991.104  26
  -2  -6   4 19401.1 985.476  48
  -2  -6   3 17610.0 847.851  49
   2   6  -3 19737.7 882.436  25
  -2  -6   3 16672.1 838.287  47
  -2   6   3 14601.1 846.470  24
   2   6  -3 15952.1 850.760  10
  -2   6   3 15600.9 834.634  45
  -2   6   3 15420.5 832.795  53
  -2  -6   3 19017.9 844.317  23
   2   6  -3 16860.9 820.482   3
   2  -6  -3 16499.3 919.708  22
  -2  -6   3 19471.2 850.339   9
   2   6  -3 18499.0 858.054  21
   2  -6  -3 14044.6 842.185  18
  -2   6   3 15220.9 856.613  56
  -2  -6   3 16590.6 831.512  55
   2  -6  -3 15191.6 871.659  17
  -2   6   3 16346.6 844.529  28
   2  -6  -3 16123.4 905.574   8
   2  -6  -3 16052.3 908.349  11
  -2  -6   3 17495.5 834.490  27
  -2   6   3 15215.0 828.854  50
   2   6  -3 17367.5 836.500   4
  -2  -6   3 16452.4 843.832  26
  -2  -6   3 14467.6 837.001  48
  -2  -6   2 16566.9 791.976  47
  -2  -6   2 16243.9 802.941  49
  -2   6   2 13710.5 808.363  24
  -2   6   2 15985.6 796.921  45
   2   6  -2 15631.6 809.034  10
  -2  -6   2 18921.3 797.201  23
   2   6  -2 14758.8 790.428   4
   2  -6  -2 14273.8 843.767  22
   2   6  -2 15311.3 786.792   3
  -2   6   2 15514.4 824.555  56
  -2   6   2 14958.6 792.455  53
  -2  -6   2 15715.3 800.326  26
   2  -6  -2 15724.0 845.409   8
   2  -6  -2 15431.8 846.480  11
  -2   6   2 14127.7 787.902  50
  -2  -6   2 16089.2 798.440  48
  -2   6   1 9709.83 536.239  24
  -2   6   1 10124.8 517.191  45
   2   6  -1 10490.2 514.371   4
   2   6  -1 11284.8 530.977  10
  -2   6   1 7519.95 500.941  43
   2  -6  -1 9791.74 554.012  22
  -2   6   1 8622.84 505.716  50
  -2  -6   1 12225.7 532.352  30
   2  -6  -1 9037.82 534.897  17
  -2   6   1 8364.57 506.000  53
   2  -6  -1 10057.1 551.333  11
   2  -6  -1 10217.2 551.926   8
  -2  -6   1 10735.7 518.452  26
  -2  -6   1 10254.4 518.418  49
  -2  -6   1 10707.9 513.427  48
  -2   6   1 8633.32 535.576  16
   2   6   0 42591.8 2034.17   1
  -2   6   0 40650.2 2044.93  45
  -2   6   0 39876.0 2049.77   1
   2   6   0 48417.3 2061.18  10
  -2   6   0 33962.0 2029.05  43
   2  -6   0 40311.9 2064.58  17
  -2   6   0 40319.5 2036.43  42
   2   6   0 47197.1 2068.16   7
   2  -6   0 41467.9 2076.05  22
  -2   6   0 38174.6 2040.30  28
  -2  -6   0 45219.2 2058.01  30
   2  -6   0 41877.1 2069.08  11
   2  -6   0 40692.1 2067.03   8
  -2   6   0 37066.4 2035.00  50
  -2  -6   0 45942.8 2050.04  49
  -2   6   0 41770.1 2080.42  16
  -2  -6   0 46382.2 2037.50  48
   2   6   1 18144.0 753.284  25
  -2   6  -1 13476.3 725.642  45
  -2   6  -1 11665.0 706.722  43
   2   6   1 16075.3 735.750  10
   2  -6   1 14250.6 748.469  17
   2  -6   1 13722.7 747.207  22
   2   6   1 17082.9 743.262   7
  -2   6  -1 14469.0 727.346  38
   2   6   1 14325.2 718.216   1
  -2  -6  -1 13230.8 729.312  30
  -2   6  -1 12448.1 709.758  54
  -2   6  -1 11892.9 716.112  28
   2  -6   1 14160.8 742.002  11
   2  -6   1 14688.1 743.838   8
  -2   6  -1 11880.1 713.923  50
  -2  -6  -1 14799.2 710.452  26
  -2  -6  -1 15654.5 730.633  49
  -2   6  -1 14062.4 760.585  16
   2   6   2 14232.5 660.178  25
  -2   6  -2 11994.9 647.689  45
  -2   6  -2 10216.8 623.425  43
   2   6   2 12905.6 646.141  10
  -2   6  -2 11643.4 635.054  42
   2  -6   2 11948.7 664.566  22
  -2   6  -2 12696.1 646.187  38
   2   6   2 14103.1 654.317   7
  -2  -6  -2 15722.7 661.438  35
  -2  -6  -2 11637.5 645.253  30
   2  -6   2 11081.1 644.730   5
  -2  -6  -2 12519.4 621.055  26
  -2   6  -2 10345.5 628.318  54
  -2   6  -2 10548.0 637.433  28
   2  -6   2 11935.4 667.594  17
  -2  -6  -2 13235.3 645.165  49
   2  -6   2 12843.7 656.556  11
   2  -6   2 12748.1 657.824   8
  -2   6  -2 13243.2 684.021  16
  -2  -6  -2 11649.7 619.040  48
   2   6   3 16448.0 741.112  25
  -2   6  -3 13898.8 734.012  45
   2   6   3 15308.2 728.353  10
  -2   6  -3 13827.4 722.694  42
  -2   6  -3 10954.2 706.767  41
   2  -6   3 13901.2 746.369  22
  -2   6  -3 13270.6 718.151  39
  -2   6  -3 14835.3 731.591  38
   2   6   3 15278.6 733.429   7
  -2  -6  -3 16558.4 747.159  35
  -2  -6  -3 14621.7 708.438  12
   2  -6   3 13493.6 765.790  19
  -2  -6  -3 12518.5 722.615  32
  -2   6  -3 12369.7 715.669  54
  -2   6  -3 11428.1 720.441  28
   2  -6   3 13807.9 756.733  17
  -2  -6  -3 14444.0 702.626  48
  -2  -6  -3 13749.1 697.281  26
  -2  -6  -3 14084.6 724.113  49
  -2   6  -4 10864.8 623.602  45
  -2   6  -4 11647.3 620.938  42
   2   6   4 13038.9 621.514  10
  -2  -6  -4 12918.0 617.960  41
  -2   6  -4 9527.03 608.777  41
  -2   6  -4 11407.1 616.936  39
   2   6   4 12855.1 626.454   7
   2  -6   4 9748.76 641.708  17
  -2  -6  -4 12195.9 603.396  36
  -2  -6  -4 12286.5 640.820  35
  -2  -6  -4 10894.6 597.420  12
   2  -6   4 8458.01 646.368  19
  -2  -6  -4 9161.07 614.846  32
  -2  -6  -4 12031.8 611.794  30
  -2   6  -4 10664.2 616.729  54
  -2  -6  -4 12634.6 590.268  26
  -2  -6  -4 11342.9 615.491  49
  -2  -6  -4 12688.7 594.776  48
  -2   6  -5 11056.8 560.589  42
   2   6   5 11526.9 561.643  10
  -2  -6  -5 12561.8 560.504  41
  -2   6  -5 8583.72 554.541  41
  -2   6  -5 12103.5 572.339  39
   2   6   5 11258.7 563.924   7
  -2  -6  -5 11897.7 546.728  36
  -2  -6  -5 9682.03 584.874  35
   2  -6   5 7596.33 580.820   9
   2  -6   5 6076.16 570.672  19
  -2  -6  -5 9779.47 540.417  12
  -2  -6  -5 9635.63 567.474  32
   2  -6   5 7426.03 575.544   5
  -2  -6  -5 11560.2 549.140  30
  -2   6  -5 10392.7 569.200  54
   2  -6   5 6399.64 560.563  17
  -2  -6  -5 11825.4 530.689  48
  -2   6  -6 8677.94 446.779  46
   2   6   6 7722.49 435.686  24
  -2   6  -6 8007.44 438.504  42
  -2   6  -6 7291.80 455.241  41
   2   6   6 8288.51 448.924  10
  -2   6  -6 8265.29 465.449  39
  -2   6  -6 7482.82 453.392  38
   2   6   6 8477.59 453.686   7
  -2   6  -6 9904.04 453.106  37
  -2  -6  -6 7744.14 433.220  36
   2  -6   6 8149.50 485.496   9
   2  -6   6 6185.17 461.116  19
  -2  -6  -6 6886.92 431.282  12
  -2  -6  -6 7629.05 461.404  32
   2  -6   6 7861.55 484.761   5
  -2  -6  -6 7783.15 431.672  30
  -2   6  -7 4347.23 266.103  46
   2   6   7 4408.50 264.691  24
  -2  -6  -7 3984.76 233.373  43
   2   6   7 4107.40 267.674  10
  -2   6  -7 4164.83 285.298  41
  -2   6  -7 4071.50 287.306  39
  -2   6  -7 4814.54 273.543  37
  -2  -6  -7 3737.92 255.473  36
   2  -6   7 4665.41 293.802   9
  -2  -6  -7 3736.77 261.595  12
  -2  -6  -7 4680.62 290.271  32
  -2  -6  -7 4390.02 255.922  30
  -2   6  -8 11948.9 614.493  46
   2   6   8 11093.7 613.501  24
   2  -6   8 11807.3 632.129  23
   2   6   8 10974.5 618.344  10
   2  -6   8 11256.4 622.118  14
  -2   6  -8 11744.2 614.908  37
  -2  -6  -8 10904.2 605.430  36
   2  -6   8 12411.6 628.631   9
  -2  -6  -8 10094.1 616.828  12
  -2  -6  -8 11322.8 623.671  32
  -2   6  -8 13735.1 676.111  16
  -2   6  -9 4041.25 249.643  46
   2   6   9 3557.13 247.013  24
   2  -6   9 4059.51 260.424  23
   2   6   9 3956.55 254.521  10
   2  -6   9 4024.72 254.258  14
  -2   6  -9 4683.40 300.250  16
  -2   6  -9 4267.52 253.350  37
  -2  -6  -9 3723.51 246.935  36
  -2  -6  -9 3406.51 258.961  12
  -2  -6  -9 4482.33 264.695  32
  -2   6  -9 4022.21 242.544  52
  -2   6 -10 3162.91 205.256  46
   2  -6  10 3216.52 213.663  23
  -2   6 -10 3424.72 223.297  41
  -2   6 -10 3579.07 213.576  37
  -2  -6 -10 3184.82 207.584  36
  -2  -6 -10 3385.27 216.462  32
  -2   6 -10 3234.30 194.445  52
  -2  -6 -10 2598.60 232.645  49
  -2   6 -11 2904.71 207.161  41
  -2   6 -11 3463.03 200.690  37
  -2  -6 -11 3414.54 203.367  32
  -2  -6 -11 2925.81 217.837  49
  -2   6 -12 1959.81 140.403  41
  -2   6 -12 2166.66 131.027  37
  -2  -6 -12 2028.55 144.403  49
   2   7 -13 676.454 85.1731  44
   2  -7 -13 801.292 112.751  51
  -2   7  13 745.511 80.5961  45
   2  -7 -13 474.943 87.2844  35
  -2  -7  13 641.611 57.4857  34
   2   7 -13 575.052 56.9540  29
  -2  -7  13 624.626 52.4659  27
  -2  -7  13 651.763 56.5102  50
  -2   7  12 1659.77 131.202  45
   2   7 -12 1770.79 138.326  44
   2  -7 -12 1676.72 159.703  40
  -2   7  12 1395.96 116.805  38
  -2  -7  12 1619.99 108.730  34
   2   7 -12 1542.08 126.398  33
   2   7 -12 1685.21 110.981  29
  -2  -7  12 1444.38 116.446  53
   2  -7 -12 1662.19 165.245  51
  -2  -7  12 1599.46 108.199  27
  -2  -7  12 1460.66 105.187  50
  -2   7  11 484.027 84.0477  45
   2   7 -11 582.880 95.7340  44
  -2  -7  11 666.573 87.0081  23
   2  -7 -11 509.162 139.315  40
  -2   7  11 621.600 88.2779  38
  -2   7  11 688.231 103.872  20
  -2  -7  11 691.908 72.7194  34
   2   7 -11 569.878 85.5676  33
   2   7 -11 608.689 73.4921  29
  -2   7  11 808.019 120.018  56
   2  -7 -11 681.568 132.447  51
  -2  -7  11 581.740 72.6782  27
  -2  -7  11 690.120 68.6994  50
  -2  -7  10 1860.42 134.096  47
  -2   7  10 1563.34 163.044  24
  -2   7  10 2124.81 155.053  45
   2   7 -10 2099.32 163.160  44
   2  -7 -10 2059.08 205.740  40
  -2  -7  10 2104.30 141.638  55
  -2  -7  10 1887.82 155.512   9
  -2   7  10 2504.83 157.813  38
  -2   7  10 1871.03 174.701  13
   2  -7 -10 2136.32 229.085  35
   2  -7 -10 2089.64 167.788  29
  -2  -7  10 2005.17 137.754  34
   2   7 -10 2192.79 162.153  33
   2  -7 -10 1790.65 143.853  30
  -2   7  10 2089.02 189.377  56
   2  -7 -10 2258.37 195.184  51
  -2  -7  10 1868.76 142.886  27
  -2  -7  10 2007.04 132.795  50
  -2   7   9 1253.18 141.136  24
  -2   7   9 1564.59 131.196  45
   2   7  -9 1547.68 139.704  44
  -2   7   9 1569.88 123.076  50
  -2  -7   9 1283.04 114.874  14
   2  -7  -9 1407.70 183.864  40
  -2   7   9 1498.56 126.705  38
  -2  -7   9 1459.92 132.405   9
  -2   7   9 1358.76 145.817  13
   2  -7  -9 1475.24 217.219  35
  -2  -7   9 1481.06 116.920  34
   2   7  -9 1503.95 135.632  33
  -2   7   9 1416.03 141.612  28
   2  -7  -9 1271.18 142.250  30
  -2   7   9 1551.82 156.272  56
   2  -7  -9 1299.38 137.363  29
  -2  -7   9 1836.12 130.220  55
   2  -7  -9 1559.62 161.974  11
  -2  -7   9 1694.51 129.853  27
  -2  -7   9 1601.84 109.996  50
  -2  -7   9 1656.25 123.636  47
   2  -7  -9 1508.31 169.474  51
   2   7  -8 445.564 91.0247  25
  -2  -7   8 476.465 79.4120  47
   2  -7  -8 454.039 128.170   8
  -2   7   8 491.642 81.3596  45
  -2   7   8 245.565 80.7242  24
   2   7  -8 493.510 85.0568  44
  -2  -7   8 426.513 79.9274  23
   2  -7  -8 569.127 136.195  40
  -2  -7   8 343.060 59.7184  14
   2  -7  -8 490.806 105.987  22
  -2   7   8 491.539 76.8808  38
   2   7  -8 568.418 83.3036  21
  -2   7   8 512.642 93.9160  13
   2  -7  -8 573.988 201.297  35
  -2   7   8 534.576 79.6653  53
  -2  -7   8 456.817 85.0738   9
   2   7  -8 489.995 81.3110  33
  -2   7   8 464.879 98.4515  56
   2  -7  -8 638.230 140.315  30
  -2  -7   8 412.447 80.6400  55
   2  -7  -8 291.644 82.3478  29
  -2   7   8 507.405 99.3243  28
  -2  -7   8 581.941 81.7918  27
  -2   7   8 381.705 74.1440  50
  -2  -7   8 428.201 59.3048  50
   2  -7  -8 442.418 146.841  11
   2   7  -8 478.005 82.9839  51
  -2  -7   7 560.330 83.2092  47
   2   7  -7 311.069 81.8220  25
   2  -7  -7 267.299 169.286   8
  -2   7   7 497.881 80.0318  45
  -2   7   7 242.556 75.0837  24
   2   7  -7 329.272 78.8413  44
   2  -7  -7 344.610 76.7251  29
  -2  -7   7 317.048 77.2892  23
   2  -7  -7 220.795 114.759  40
  -2  -7   7 247.307 53.5475  14
   2  -7  -7 258.294 142.206  22
  -2   7   7 314.286 68.6267  38
   2   7  -7 283.886 67.7195  21
  -2   7   7 384.103 72.0963  50
  -2   7   7 393.965 91.4376  13
   2  -7  -7 338.600 188.940  35
  -2  -7   7 325.348 65.9358  34
   2   7  -7 406.060 73.9367  33
  -2   7   7 444.858 97.3773  56
  -2  -7   7 323.328 75.4112  55
  -2   7   7 320.660 72.7649  53
  -2   7   7 299.933 93.8224  28
  -2  -7   7 278.798 65.0698  27
   2  -7  -7 499.416 191.436  11
  -2  -7   6 504.851 86.3868  47
   2   7  -6 425.078 88.9640  25
   2  -7  -6 396.648 232.775   8
  -2   7   6 554.460 83.7402  45
  -2   7   6 475.935 89.1261  24
  -2  -7   6 409.729 76.5604  23
   2  -7  -6 422.708 107.922  40
   2  -7  -6 532.985 217.271  22
  -2   7   6 472.008 71.8683  38
   2   7  -6 457.203 81.9096  21
  -2   7   6 526.150 96.0403  13
   2   7  -6 632.274 77.3798  18
   2  -7  -6 428.949 184.348  35
  -2   7   6 496.543 96.3344  20
  -2  -7   6 433.098 70.1088  34
   2   7  -6 453.326 79.7195  33
   2  -7  -6 370.875 120.115  18
  -2   7   6 474.407 99.1057  56
  -2  -7   6 395.570 84.1720  55
   2  -7  -6 282.380 67.9367  29
  -2   7   6 523.619 80.5072  53
  -2   7   6 464.705 101.624  28
   2  -7  -6 353.525 125.774  17
  -2   7   6 509.811 75.7084  50
  -2  -7   5 136.357 69.2878  47
   2   7  -5 83.0478 65.8465  25
  -2  -7   5 55.7185 65.3288  55
  -2   7   5 74.2617 60.4771  45
  -2   7   5 116.858 68.4054  24
  -2  -7   5 47.8816 58.0991  23
   2  -7  -5 136.253 84.2470  40
   2  -7  -5 74.0431 223.403  22
  -2   7   5 108.067 56.2812  38
   2   7  -5 79.7348 62.9348  21
  -2   7   5 35.6634 72.9907  20
   2  -7  -5 123.542 146.438  35
  -2  -7   5 122.996 51.8507  34
  -2  -7   5 37.3612 56.4420   9
   2   7  -5 5.63750 51.1422  33
  -2   7   5 21.0709 61.0180  53
   2  -7  -5 110.751 188.705  19
   2   7  -5 80.5697 54.3529  18
   2  -7  -5 57.0997 86.6391  18
  -2   7   5-9.08392 78.8646  56
  -2  -7   5 129.532 64.9891  48
  -2  -7   5 95.9886 56.9804  26
  -2   7   5 12.8876 73.4277  28
   2  -7  -5 55.5755 180.070  17
  -2  -7   5 102.820 59.4173  27
  -2   7   5 73.7601 56.9664  50
   2  -7  -5 25.8109 259.594  11
  -2  -7   4 288.592 73.2287  48
  -2  -7   4 313.986 73.6551  47
   2   7  -4 459.128 86.4646  25
  -2   7   4 261.846 72.6213  45
  -2   7   4 344.862 79.6288  24
   2  -7  -4 450.152 225.975   8
   2  -7  -4 273.674 234.585  11
  -2  -7   4 435.841 71.7920  23
   2   7  -4 299.595 67.1861  10
   2  -7  -4 364.237 85.7445  40
  -2   7   4 310.185 62.8026  38
   2   7  -4 223.320 125.037  21
  -2   7   4 325.729 82.8317  20
   2  -7  -4 308.263 135.770  35
  -2  -7   4 440.866 59.7527  34
  -2  -7   4 369.150 68.2578   9
   2   7  -4 414.903 71.4652  33
   2  -7  -4 287.121 171.988  19
   2  -7  -4 262.860 81.6740  18
  -2   7   4 225.752 83.2645  56
  -2  -7   4 273.795 70.2458  55
  -2   7   4 280.126 67.1075  53
  -2   7   4 250.951 83.6537  28
   2   7  -4 314.010 66.5754  18
   2  -7  -4 389.411 194.689  17
  -2  -7   4 371.228 69.2975  27
  -2   7   4 316.772 64.7344  50
  -2  -7   4 367.658 77.2140  49
  -2  -7   4 291.258 66.8256  26
  -2  -7   3 102.241 67.4511  48
   2  -7  -3-73.9827 190.610  11
  -2  -7   3 103.726 60.2610  47
   2   7  -3 79.0033 101.291  25
  -2   7   3 89.5383 58.3487  45
  -2   7   3 38.5663 61.6327  24
   2  -7  -3-146.486 183.434   8
  -2  -7   3 88.3985 48.4473  23
   2   7  -3 97.7768 52.1003  10
   2  -7  -3 97.8358 175.331  22
  -2   7   3 51.3982 56.1967  38
   2   7  -3 242.779 106.358  21
  -2   7   3 70.7185 76.3691  20
  -2  -7   3 117.516 45.7418  34
  -2  -7   3 134.550 50.6468   9
  -2   7   3 136.558 60.0942  53
   2  -7  -3 41.8684 137.491  19
  -2   7   3 73.9633 73.8182  28
   2  -7  -3 76.4726 149.360  17
  -2  -7   3 86.0323 50.0154  27
  -2   7   3 45.3254 54.8372  50
  -2  -7   3 47.3713 64.2049  49
  -2  -7   3 156.576 62.9801  26
  -2  -7   2 295.817 79.9390  48
   2  -7  -2 435.198 164.500  11
  -2  -7   2 375.578 67.4307  47
   2   7  -2 117.301 152.487  25
  -2   7   2 358.394 73.2052  45
  -2   7   2 305.538 81.2361  24
   2  -7  -2 342.698 152.776   8
   2   7  -2 422.534 55.6777   4
  -2   7   2 308.064 71.0098  42
  -2  -7   2 460.909 60.5395  23
   2   7  -2 350.147 70.7196  10
   2  -7  -2 386.222 173.163  22
  -2   7   2 330.975 68.1749  38
   2   7  -2 405.219 50.1760   3
  -2   7   2 275.551 69.8557  53
   2  -7  -2 324.748 138.232  19
  -2  -7   2 524.209 81.0763  30
  -2  -7   2 370.718 65.7206  55
  -2   7   2 393.572 89.4254  28
  -2  -7   2 418.877 57.8852  27
  -2   7   2 288.116 67.8893  50
  -2  -7   2 434.156 80.7527  49
  -2  -7   2 456.813 80.2843  26
  -2  -7   1 620.260 86.7293  48
   2  -7  -1 515.091 157.022  11
  -2  -7   1 668.327 76.1349  47
  -2   7   1 423.570 94.6699  16
  -2   7   1 621.350 87.6223  45
  -2   7   1 423.291 85.4603  24
   2  -7  -1 696.346 169.568   8
   2   7  -1 623.505 69.9469   4
  -2   7   1 530.685 82.3718  42
   2   7  -1 694.360 86.8933  10
   2  -7  -1 517.674 163.803  22
  -2   7   1 628.558 82.7510  38
  -2  -7   1 721.030 92.9141  30
  -2  -7   1 650.017 70.8102  55
  -2   7   1 507.052 81.6296  53
   2  -7  -1 574.394 145.052  17
  -2   7   1 579.894 81.9199  50
  -2  -7   1 653.322 88.1671  49
  -2  -7   1 491.889 83.7573  26
   2  -7   0 1565.60 195.776  11
  -2  -7   0 1886.25 147.523  49
  -2  -7   0 2071.65 125.417  47
  -2   7   0 1772.73 148.024  45
   2   7   0 2220.80 155.137  10
  -2   7   0 1635.23 141.552  42
   2  -7   0 1908.87 213.054  22
  -2   7   0 1718.04 142.379  38
  -2  -7   0 2143.43 124.440  55
   2  -7   0 1648.36 201.929  19
  -2  -7   0 2041.57 155.078  30
   2  -7   0 1605.45 139.667   5
  -2   7   0 1144.29 134.888  54
  -2   7   0 1503.27 149.941  28
   2  -7   0 1690.78 196.493   8
   2  -7   0 1590.19 197.349  17
  -2   7   0 1558.19 137.050  50
  -2   7   0 1903.47 171.690  16
  -2  -7   0 1736.31 134.816  48
   2  -7   1 1028.43 160.418  11
  -2  -7  -1 1076.12 83.8853  47
   2   7   1 1308.37 132.303  25
  -2   7  -1 1029.79 138.695  16
  -2   7  -1 992.019 119.426  45
   2   7   1 1190.36 113.230  10
   2  -7   1 913.917 156.028   8
  -2   7  -1 784.279 106.890  42
   2   7   1 1397.55 125.431   7
   2  -7   1 1205.02 175.812  22
  -2   7  -1 989.946 109.557  38
  -2   7  -1 674.290 112.990  54
   2  -7   1 1101.41 178.709  19
  -2  -7  -1 1024.50 119.946  30
   2  -7   1 1254.78 175.197  17
   2  -7   1 1101.65 124.015   5
  -2  -7  -1 1128.01 85.9549  55
  -2   7  -1 973.293 127.113  28
  -2   7  -1 722.642 103.223  50
  -2  -7  -1 1199.01 103.762  26
  -2  -7  -1 1116.18 118.065  49
   2  -7   2 1384.68 166.396  11
   2   7   2 1858.11 148.403  25
  -2   7  -2 1127.65 137.217  45
   2  -7   2 1418.45 170.064   8
   2   7   2 1861.16 138.125  10
   2  -7   2 1310.31 147.333   5
  -2  -7  -2 1343.46 110.448  48
  -2   7  -2 1228.38 115.647  39
   2   7   2 1553.94 131.214   7
   2  -7   2 1117.46 175.557  22
  -2   7  -2 1331.06 133.741  38
   2  -7   2 793.411 178.094  19
  -2  -7  -2 1101.79 135.406  30
  -2   7  -2 1060.70 132.624  54
  -2   7  -2 968.094 136.873  28
   2  -7   2 851.730 169.547  17
  -2  -7  -2 1482.30 112.597  26
  -2  -7  -2 1450.37 137.909  49
  -2   7  -2 1499.34 163.532  16
   2   7   3 65.7253 69.4188  25
  -2   7  -3 87.4949 89.4908  45
  -2   7  -3 43.7305 82.5640  42
   2   7   3 190.273 65.4543  10
  -2   7  -3 31.5210 60.6436  39
   2  -7   3 81.6016 110.350  22
  -2  -7  -3 173.117 82.4906  35
   2  -7   3 60.2310 139.118  19
  -2  -7  -3 169.114 59.3266  48
  -2   7  -3 116.646 48.6919  31
  -2  -7  -3 163.573 82.1302  30
  -2   7  -3 70.3765 95.1222  54
  -2   7  -3 8.43219 99.4426  28
   2  -7   3 77.7537 93.1993   5
   2  -7   3 201.118 138.768  17
  -2  -7  -3 48.3688 74.3694  49
  -2  -7  -3 92.1135 47.4243  26
   2   7   4 419.960 85.3556  25
  -2   7  -4 365.715 101.775  42
  -2   7  -4 272.362 118.025  54
  -2   7  -4 227.722 100.038  41
   2   7   4 433.273 74.2836  10
  -2   7  -4 367.917 85.3381  39
  -2  -7  -4 374.499 105.146  35
   2  -7   4 156.869 134.769  19
  -2  -7  -4 363.109 95.3013  32
  -2   7  -4 437.683 66.5294  31
   2  -7   4 180.577 106.478   5
   2  -7   4 447.063 137.335  17
  -2  -7  -4 354.563 65.6808  48
  -2  -7  -4 364.651 98.1307  49
  -2  -7  -4 408.546 61.4692  26
   2   7   5 201.965 74.8401  25
  -2   7  -5 102.413 85.8627  42
  -2   7  -5 77.8816 91.3871  41
  -2   7  -5 129.138 83.5611  39
   2   7   5 134.430 59.0482  10
  -2   7  -5 68.3314 79.0729  38
  -2  -7  -5 157.265 107.041  35
   2  -7   5-25.0327 111.111  19
  -2  -7  -5 224.962 98.7142  32
  -2   7  -5 187.701 54.6272  31
   2  -7   5 98.1491 97.9727   9
  -2  -7  -5 86.5890 73.9774  30
  -2  -7  -5 73.5242 85.7723  49
   2  -7   5 10.8155 96.5689  17
  -2  -7  -5 158.930 54.5534  48
  -2   7  -6 71.1648 71.3250  46
  -2   7  -6-58.0532 77.3899  42
  -2   7  -6 78.9491 92.4746  41
  -2   7  -6 57.1099 79.3369  39
   2   7   6 16.1311 52.7322  10
  -2   7  -6 70.3624 80.5962  38
  -2   7  -6 81.9767 79.5144  37
  -2  -7  -6 74.4197 79.5924  36
  -2  -7  -6 143.144 116.758  35
   2  -7   6 145.387 88.2115  19
  -2  -7  -6 132.522 103.863  32
   2  -7   6 53.8415 88.0979   9
  -2  -7  -6 91.2024 69.1909  30
  -2  -7  -6 38.3655 89.8789  49
  -2   7  -7 283.055 90.9610  16
  -2   7  -7 178.797 73.7035  46
  -2  -7  -7 208.623 51.5529  43
  -2   7  -7 128.628 92.2473  41
  -2   7  -7 327.534 93.5019  39
   2   7   7 240.814 64.1950  10
  -2  -7  -7 200.239 101.341  49
  -2   7  -7 311.933 86.5312  37
  -2  -7  -7 276.479 86.0291  36
  -2  -7  -7 152.759 114.734  35
  -2  -7  -7 408.670 118.957  32
   2  -7   7 303.081 83.0896   9
  -2  -7  -7 235.213 72.7769  30
  -2   7  -8 349.242 89.4764  16
  -2   7  -8 326.185 79.2020  46
  -2   7  -8 450.735 102.647  41
   2  -7   8 417.515 82.8616  23
   2   7   8 443.413 75.1267  10
   2  -7   8 382.906 77.8087  14
  -2   7  -8 395.420 88.5352  37
  -2  -7  -8 425.965 87.7132  36
  -2  -7  -8 457.325 112.172  32
   2  -7   8 400.519 76.8438   9
  -2  -7  -8 394.220 74.3886  30
  -2  -7  -8 344.190 110.508  49
  -2   7  -9 203.991 70.2120  46
   2  -7   9 49.4565 59.9384  23
  -2   7  -9 217.687 72.4209  37
  -2  -7  -9 129.793 90.2362  32
  -2   7 -10 78.6276 54.8190  46
  -2   7 -10 123.446 63.2707  37
  -2  -7 -10 156.488 81.9957  32
  -2   7 -10 152.257 47.3020  52
  -2  -7 -11 16.0780 75.7665  49
  -2   7 -11 80.7458 48.0762  37
  -2  -7 -11-18.8639 57.0154  32
  -2   8  13 5534.18 274.612  45
   2  -8 -13 4958.57 273.966  35
   2   8 -13 4659.96 248.589  29
  -2  -8  13 5215.55 254.071  34
  -2  -8  13 5026.75 258.571  53
   2  -8 -13 5377.40 284.498  51
  -2  -8  13 4366.17 248.719  27
  -2   8  12 2713.52 175.112  45
   2   8 -12 2661.59 153.564  29
   2  -8 -12 2631.64 198.555  40
  -2   8  12 2250.89 160.595  38
  -2  -8  12 2835.17 155.868  34
   2   8 -12 2546.44 169.341  33
   2  -8 -12 2866.39 199.579  51
  -2  -8  12 2530.05 152.242  27
  -2  -8  12 2679.46 161.953  53
  -2  -8  12 2715.72 146.494  50
  -2   8  11 7180.45 390.737  45
   2   8 -11 6849.55 394.298  44
  -2  -8  11 6384.93 390.402  23
   2  -8 -11 7388.67 426.401  40
  -2   8  11 7429.33 388.205  38
   2  -8 -11 7580.37 428.527  35
  -2  -8  11 7048.14 371.747  34
   2   8 -11 7051.23 392.651  33
  -2  -8  11 6680.20 368.241  55
   2   8 -11 7171.74 374.538  29
   2  -8 -11 7301.96 416.073  51
  -2  -8  11 7059.43 374.636  27
  -2  -8  11 7196.43 364.924  50
  -2   8  10 4375.04 293.556  24
  -2   8  10 4518.89 270.947  45
   2   8 -10 4626.85 278.786  44
  -2  -8  10 4117.23 271.913  23
   2  -8 -10 4351.14 312.893  40
  -2   8  10 4566.67 268.748  38
  -2   8  10 3725.58 289.757  13
   2  -8 -10 4769.27 333.123  35
   2   8 -10 4731.65 260.177  29
  -2  -8  10 4763.29 253.689  34
   2   8 -10 4615.83 277.870  33
   2  -8 -10 4117.90 261.017  30
  -2   8  10 4644.33 314.393  56
  -2  -8  10 4636.85 256.863  55
   2  -8 -10 4758.15 298.406  51
  -2  -8  10 4636.83 259.963  27
  -2  -8  10 4554.92 244.975  50
  -2  -8  10 4402.39 252.535  47
  -2  -8   9 13676.4 708.117  47
  -2   8   9 13034.3 744.897  24
  -2   8   9 14460.7 723.112  45
   2   8  -9 14643.4 730.391  44
  -2  -8   9 13227.5 725.473  23
  -2   8   9 13513.0 761.264  56
   2  -8  -9 14990.1 761.075  40
  -2   8   9 13468.4 715.817  38
  -2  -8   9 12535.0 724.979   9
  -2   8   9 13380.5 756.435  13
   2  -8  -9 15165.7 795.626  35
   2   8  -9 14765.8 731.498  33
   2  -8  -9 12970.6 727.956  30
  -2  -8   9 13183.7 708.589  55
   2  -8  -9 14497.8 759.865  11
  -2  -8   9 14919.6 715.551  27
  -2  -8   8 11657.9 580.611  47
  -2   8   8 9780.58 604.738  24
  -2   8   8 11473.1 590.024  45
   2   8  -8 12010.9 597.306  44
  -2  -8   8 10211.5 588.280  23
   2  -8  -8 11585.9 621.064  40
   2  -8  -8 11179.8 615.165  22
  -2   8   8 10371.6 579.012  38
  -2   8   8 11078.7 625.088  13
   2   8  -8 11804.5 622.062  25
  -2   8   8 10591.7 613.341  20
   2  -8  -8 11932.5 670.516  35
   2   8  -8 10853.4 591.893  33
  -2   8   8 10866.9 626.063  56
   2  -8  -8 10426.9 617.079  30
   2  -8  -8 10386.1 632.969   8
  -2  -8   8 11152.5 579.164  55
   2  -8  -8 11293.3 649.264  11
  -2   8   8 10297.3 600.964  28
  -2  -8   8 11449.2 580.880  27
   2   8  -7 8994.21 507.910  25
  -2   8   7 8514.82 499.585  24
  -2   8   7 9066.17 478.557  45
  -2  -8   7 8801.94 472.751  47
   2   8  -7 9932.76 488.867  44
  -2  -8   7 7919.46 478.398  23
  -2   8   7 8430.52 491.620  28
   2  -8  -7 9254.99 506.044  40
   2  -8  -7 8836.03 536.801  22
  -2   8   7 8846.38 472.034  38
   2   8  -7 8415.54 475.585  21
  -2  -8   7 7468.51 478.805   9
  -2   8   7 8713.67 509.452  20
   2  -8  -7 9191.50 568.565  35
   2  -8  -7 8564.49 560.264   8
   2  -8  -7 9115.73 581.401  11
  -2  -8   7 8661.42 459.549  34
   2   8  -7 9350.85 485.515  33
  -2   8   7 8652.20 514.352  56
   2  -8  -7 7932.54 533.814  30
  -2  -8   7 8223.98 468.451  55
  -2  -8   7 9705.92 474.830  27
   2   8  -6 7794.48 428.526  25
  -2   8   6 6479.21 410.562  24
  -2   8   6 7587.52 397.584  45
  -2  -8   6 7059.89 399.481  23
   2  -8  -6 6701.55 408.569  40
   2  -8  -6 7629.94 502.426  22
  -2   8   6 6735.82 385.530  38
  -2  -8   6 6044.32 394.959   9
   2   8  -6 7265.28 396.754  21
  -2   8   6 7205.46 425.283  20
   2  -8  -6 7526.34 478.797  35
  -2  -8   6 6989.55 375.755  34
  -2  -8   6 7188.92 392.662  47
   2   8  -6 7530.28 399.219  33
  -2   8   6 7374.75 435.130  56
  -2  -8   6 6158.66 382.754  55
   2  -8  -6 6958.38 517.727   8
  -2   8   6 7001.67 392.148  53
  -2   8   6 6980.22 411.671  28
   2  -8  -6 5850.93 401.666  17
  -2  -8   6 7657.67 381.106  26
   2   8  -5 17681.4 901.794  25
  -2  -8   5 15695.0 866.707  47
  -2   8   5 16059.1 891.925  24
  -2   8   5 17690.3 874.993  45
  -2  -8   5 16778.4 877.403  23
  -2   8   5 17771.3 871.014  42
   2  -8  -5 16645.7 879.081  40
  -2   8   5 16575.1 865.449  38
  -2  -8   5 15865.7 878.675   9
   2   8  -5 16874.3 874.752  21
  -2   8   5 18234.7 911.173  20
  -2  -8   5 16357.1 866.100  27
   2  -8  -5 16184.2 927.761  35
  -2  -8   5 17560.6 856.065  34
   2   8  -5 18174.8 875.630  33
   2  -8  -5 16996.2 934.663  19
   2  -8  -5 18296.7 950.539  17
   2   8  -5 17995.6 866.800  18
  -2   8   5 16493.8 911.006  56
  -2  -8   5 14171.8 861.210  55
  -2   8   5 16747.9 870.277  53
  -2   8   5 17204.2 887.222  28
   2  -8  -5 16887.2 1036.57  11
  -2  -8   5 17273.6 863.668  26
  -2  -8   5 18197.6 865.733  48
   2   8  -4 7532.26 441.349  25
  -2  -8   4 6345.64 407.485  47
   2   8  -4 7633.00 435.918  10
  -2  -8   4 6829.56 404.205  27
  -2   8   4 6889.69 432.407  24
  -2  -8   4 8034.56 422.615  49
  -2   8   4 7285.63 414.811  45
   2  -8  -4 5117.79 531.285   8
  -2  -8   4 8107.21 419.665  23
  -2   8   4 7626.04 413.504  42
   2  -8  -4 6307.45 554.040  22
  -2   8   4 7248.34 409.639  38
  -2  -8   4 7838.76 424.431   9
   2   8  -4 7561.48 428.353  21
  -2   8   4 7697.75 451.614  20
   2  -8  -4 6064.66 453.631  35
  -2  -8   4 8417.01 400.529  34
   2   8  -4 7836.00 415.360  33
   2  -8  -4 6703.47 520.384  19
   2   8  -4 8142.77 415.016  18
  -2  -8   4 6808.78 408.789  55
  -2   8   4 7177.11 412.300  53
   2  -8  -4 7528.19 532.272  17
   2  -8  -4 4877.64 543.291  11
  -2   8   4 7053.18 432.180  28
  -2  -8   4 8548.70 416.602  48
  -2   8   4 7370.63 407.358  50
  -2  -8   4 9074.32 415.281  26
   2   8  -3 24614.8 1108.57  25
  -2   8   3 19493.1 1081.73  24
   2   8  -3 22431.3 1086.74  10
  -2   8   3 21136.6 1062.96  45
  -2  -8   3 23423.2 1059.56  23
  -2   8   3 22131.3 1062.51  42
  -2  -8   3 23164.7 1063.70  26
   2  -8  -3 17021.6 1183.11  22
  -2  -8   3 23204.3 1069.00   9
  -2   8   3 20531.8 1055.95  38
   2   8  -3 23131.4 1077.43  21
  -2   8   3 19659.4 1075.57  28
  -2  -8   3 24275.4 1044.01  34
   2  -8  -3 13626.0 1141.29  19
   2  -8  -3 15490.3 1162.44   8
   2  -8  -3 15382.0 1150.37  17
   2  -8  -3 15425.9 1170.45  11
  -2   8   3 18919.2 1055.45  53
  -2   8   3 20670.9 1053.76  50
  -2  -8   3 18585.7 1047.38  27
  -2  -8   3 20031.4 1062.53  49
  -2  -8   3 20561.0 1060.22  48
  -2  -8   2 8004.13 466.680  47
  -2   8   2 8329.43 496.959  24
  -2   8   2 8874.75 479.855  45
   2   8  -2 9527.29 497.598  10
  -2   8   2 9100.83 479.851  42
   2  -8  -2 7268.04 599.107  22
  -2   8   2 8751.86 471.834  38
   2  -8  -2 5783.41 558.664  11
   2   8  -2 9348.01 485.870  21
   2  -8  -2 5965.40 553.223  19
   2   8  -2 12328.0 578.714  25
  -2   8   2 8897.64 461.897  31
  -2  -8   2 10570.1 475.733  30
  -2  -8   2 8896.97 468.297  55
   2  -8  -2 6317.34 571.270   8
  -2   8   2 8526.65 491.168  28
   2  -8  -2 8699.08 479.995   5
  -2  -8   2 9561.61 463.237  27
  -2  -8   2 8878.02 481.435  49
  -2  -8   2 8903.46 474.991  26
  -2   8   2 8579.66 469.399  50
  -2  -8   2 6865.31 466.484  48
  -2  -8   1 22710.0 1058.65  47
   2   8  -1 20578.2 1051.97   4
  -2   8   1 20933.6 1096.93  24
  -2   8   1 21780.6 1072.53  45
   2   8  -1 25326.9 1096.80  10
   2  -8  -1 15783.3 1134.70   8
  -2   8   1 21859.8 1071.39  42
   2  -8  -1 16895.5 1155.29  22
  -2   8   1 21767.9 1066.19  38
  -2   8   1 20936.4 1051.03  31
  -2  -8   1 23971.8 1066.20  30
   2  -8  -1 23484.3 1087.25   5
  -2  -8   1 17802.6 1057.86  48
  -2  -8   1 24313.0 1055.79  55
   2  -8  -1 17092.1 1144.50  11
  -2   8   1 19569.5 1058.91  50
   2  -8  -1 16407.8 1141.03  17
  -2  -8   1 22053.3 1069.56  49
  -2  -8   1 17983.7 1056.88  26
  -2   8   1 18745.2 1096.08  16
  -2  -8   0 5928.32 296.275  47
  -2   8   0 5643.05 323.420  45
   2   8   0 4976.84 300.190   4
   2   8   0 6266.39 335.770  10
  -2   8   0 5717.59 319.529  42
   2  -8   0 3808.55 379.711  17
   2  -8   0 3929.65 391.563  22
  -2   8   0 5341.52 313.880  38
  -2   8   0 4204.44 306.028  54
   2  -8   0 3701.99 371.899  11
   2  -8   0 3146.68 381.634  19
  -2   8   0 5179.98 294.095  31
  -2  -8   0 6040.42 319.357  30
   2  -8   0 5363.97 337.354   5
  -2   8   0 5079.99 328.345  28
  -2  -8   0 6106.82 294.765  55
   2  -8   0 4194.27 385.612   8
  -2  -8   0 4137.47 299.043  26
  -2   8   0 5243.81 312.016  50
  -2  -8   0 6204.38 322.955  49
  -2   8   0 5607.44 351.577  16
  -2  -8   0 5280.27 309.320  48
  -2  -8  -1 18733.6 842.119  47
  -2   8  -1 17916.3 879.930  45
   2   8   1 20475.4 893.989  10
  -2   8  -1 17146.2 872.412  42
   2  -8   1 13157.4 928.215  22
  -2   8  -1 16840.3 853.621  39
   2  -8   1 13120.2 933.645  17
   2  -8   1 11469.0 930.874  19
  -2   8  -1 17645.1 849.031  31
  -2  -8  -1 16179.8 867.350  30
   2  -8   1 15003.2 890.561   5
  -2   8  -1 14917.7 863.198  54
   2  -8   1 11438.3 903.651   8
  -2   8  -1 16150.1 882.529  28
  -2  -8  -1 18602.9 840.735  55
   2  -8   1 12547.8 909.474  11
  -2  -8  -1 16339.8 855.117  26
  -2  -8  -1 19332.5 878.281  49
  -2   8  -1 17364.9 912.549  16
   2   8   2 7192.74 392.592  25
  -2   8  -2 6309.87 369.389  45
   2   8   2 6354.19 365.271  10
  -2  -8  -2 6784.98 340.071  48
   2  -8   2 4186.38 398.073  22
  -2   8  -2 6261.87 342.375  39
   2   8   2 7268.89 373.933   7
   2  -8   2 3909.13 415.949  19
  -2   8  -2 5899.99 329.632  31
   2  -8   2 4272.75 410.730  17
   2  -8   2 4525.60 372.123   5
  -2  -8  -2 5689.79 356.140  30
  -2   8  -2 5590.77 355.014  54
   2  -8   2 3931.64 376.082   8
  -2   8  -2 5948.52 374.288  28
  -2  -8  -2 6335.99 336.856  26
  -2  -8  -2 7017.08 364.879  49
   2   8   3 22426.0 915.867  25
  -2   8  -3 16590.0 871.233  45
   2   8   3 19275.0 879.360  10
   2  -8   3 10797.4 867.678  22
  -2   8  -3 16790.9 849.692  39
   2   8   3 19389.3 875.977   7
   2  -8   3 12159.2 895.577  17
  -2  -8  -3 17143.0 852.600  35
   2  -8   3 12672.8 909.103  19
  -2   8  -3 16630.2 835.132  31
  -2  -8  -3 18767.7 840.655  48
   2  -8   3 11645.6 870.929   5
  -2  -8  -3 15293.5 860.812  30
  -2   8  -3 14214.9 869.616  28
  -2  -8  -3 17139.7 834.828  26
  -2  -8  -3 19051.0 873.637  49
   2   8   4 7901.18 407.657  25
   2   8   4 6821.97 384.850  10
  -2   8  -4 6253.42 380.230  42
  -2   8  -4 5567.68 362.528  41
   2  -8   4 5593.90 405.769  17
  -2   8  -4 6190.49 367.773  39
   2   8   4 6876.65 381.689   7
  -2   8  -4 6299.46 376.546  38
  -2  -8  -4 5904.59 369.605  35
   2  -8   4 5130.41 401.165   9
   2  -8   4 5721.35 419.446  19
  -2  -8  -4 5739.64 355.704  32
  -2   8  -4 6361.12 350.325  31
   2  -8   4 6592.49 410.784   5
  -2  -8  -4 6221.42 378.345  30
  -2  -8  -4 6724.43 344.971  26
  -2  -8  -4 6150.58 383.157  49
  -2  -8  -4 6707.54 351.969  48
  -2  -8  -5 12503.0 608.960  26
   2   8   5 13991.8 673.458  25
   2   8   5 12634.5 655.511  10
  -2   8  -5 11527.1 640.473  42
  -2   8  -5 11072.8 634.931  41
  -2   8  -5 11730.4 643.167  39
  -2   8  -5 12790.0 649.363  38
   2   8   5 13229.4 653.223   7
  -2  -8  -5 10471.1 644.625  35
   2  -8   5 11963.9 677.226   9
   2  -8   5 10858.4 667.176  19
  -2  -8  -5 10794.9 632.324  32
  -2   8  -5 11801.3 619.374  31
   2  -8   5 11014.5 652.810  17
  -2  -8  -5 11933.1 653.853  49
  -2  -8  -5 11880.0 614.426  48
   2   8   6 4553.67 291.759  25
  -2   8  -6 4169.01 268.914  46
   2   8   6 3549.48 265.114  10
  -2   8  -6 4142.25 266.140  41
  -2   8  -6 4169.59 274.415  39
  -2   8  -6 4017.61 275.384  38
   2   8   6 4304.04 272.365   7
  -2   8  -6 4987.48 266.992  37
  -2  -8  -6 3466.42 283.561  35
   2  -8   6 3986.48 284.931   9
   2  -8   6 4097.02 273.982  19
  -2  -8  -6 3882.26 273.520  32
  -2  -8  -6 4041.50 261.904  30
  -2   8  -6 4498.40 302.304  16
  -2  -8  -6 3622.38 278.014  49
   2   8   7 11495.3 594.467  25
  -2   8  -7 11419.7 571.079  46
  -2  -8  -7 9092.41 527.170  43
   2   8   7 11156.1 581.321  10
   2  -8   7 10233.0 578.976  23
  -2   8  -7 9721.42 559.185  41
  -2   8  -7 9721.56 573.555  39
  -2   8  -7 11185.7 561.664  37
   2  -8   7 11137.2 581.778   9
  -2  -8  -7 10339.2 578.923  32
  -2  -8  -7 10463.2 556.995  30
  -2   8  -7 11823.5 612.413  16
  -2  -8  -7 10523.0 584.383  49
   2   8   8 2309.25 190.334  25
  -2   8  -8 2505.46 179.073  46
   2  -8   8 2477.74 183.380  23
  -2   8  -8 2197.51 171.186  41
   2  -8   8 2181.22 171.832  14
  -2   8  -8 2249.85 169.238  37
  -2  -8  -8 2445.58 194.365  32
  -2  -8  -8 2291.75 164.855  30
  -2   8  -8 2773.14 207.904  16
  -2  -8  -8 2301.51 198.001  49
   2   8   9 5915.66 333.071  25
  -2   8  -9 5445.45 310.749  46
   2  -8   9 5528.82 319.434  23
  -2   8  -9 4729.38 303.727  41
  -2   8  -9 5370.26 304.421  37
  -2  -8  -9 5596.79 324.167  32
  -2  -8  -9 4793.50 330.088  49
  -2   8 -10 2168.72 143.604  46
  -2   8 -10 1788.58 146.345  41
  -2   8 -10 2383.89 145.702  37
  -2  -8 -10 2455.47 161.444  32
  -2  -8 -10 1691.37 166.889  49
  -2   8 -11 3038.22 187.493  41
  -2   8 -11 3174.15 181.217  37
  -2  -8 -11 3490.29 192.824  32
  -2   9  12 818.169 81.3432  45
   2  -9 -12 808.858 109.414  40
  -2   9  12 514.493 63.3004  38
   2  -9 -12 912.604 104.588  35
  -2  -9  12 745.531 60.9687  34
   2   9 -12 721.935 73.3720  33
   2   9 -12 674.690 55.0835  29
  -2  -9  12 897.277 65.7692  53
  -2  -9  12 732.218 58.0196  27
  -2   9  11 18.2886 55.2222  45
   2  -9 -11 130.946 110.081  40
  -2   9  11 48.9307 56.6176  38
   2  -9 -11 51.8489 102.296  35
  -2  -9  11 8.19672 41.7596  34
   2   9 -11 9.50365 49.6260  33
  -2  -9  11 144.199 42.1831  55
   2   9 -11 116.759 41.0309  29
  -2  -9  11 97.9868 44.8075  53
  -2  -9  11 33.9758 38.5283  27
  -2  -9  10 1102.75 88.2184  47
  -2   9  10 1072.09 107.293  45
  -2  -9  10 942.844 98.6901  23
   2  -9 -10 1177.30 153.033  40
  -2   9  10 1122.73 106.614  38
   2  -9 -10 1092.15 165.516  35
   2   9 -10 1065.84 105.245  33
   2  -9 -10 978.151 98.4624  30
   2   9 -10 1165.17 92.1963  29
  -2  -9  10 1053.28 91.3634  27
  -2  -9  10 1017.68 91.3128  55
  -2  -9   9 181.643 59.4174  47
  -2   9   9-5.62352 67.0261  45
  -2   9   9 107.737 71.2626  24
  -2  -9   9 98.6428 49.0729  23
   2  -9  -9 92.5281 120.477  40
  -2   9   9 67.7144 62.8382  38
   2  -9  -9 141.158 145.985  35
  -2   9   9 74.7340 67.4375  20
   2   9  -9 143.689 66.3080  33
  -2   9   9 187.161 83.7602  56
   2  -9  -9 71.4099 86.7659  30
  -2  -9   9 175.151 64.6230  55
  -2  -9   9 65.2498 53.2979  27
  -2  -9   8 1137.32 103.113  47
  -2   9   8 1268.04 118.153  45
  -2   9   8 1028.85 126.119  24
   2  -9  -8 911.689 146.450  30
  -2  -9   8 1086.77 106.487  23
   2  -9  -8 953.850 149.993  40
   2  -9  -8 1107.95 131.595  22
  -2   9   8 1116.93 109.850  38
  -2  -9   8 993.167 102.803   9
   2  -9  -8 1086.30 184.573  35
  -2   9   8 1016.15 130.468  20
  -2  -9   8 1067.66 91.0886  34
   2   9  -8 1248.13 114.684  33
   2  -9  -8 926.768 157.200  11
  -2   9   8 1239.49 148.578  56
  -2  -9   8 1154.70 104.923  55
  -2   9   8 1161.56 144.765  28
  -2  -9   8 1093.38 100.407  27
   2   9  -8 1284.21 132.575  25
  -2  -9   7 127.518 61.9289  47
  -2  -9   7 165.846 68.9810  55
   2  -9  -7 138.838 128.309   8
   2   9  -7 78.5727 70.9119  25
  -2   9   7 131.565 70.5932  45
  -2   9   7 104.580 67.5470  24
   2   9  -7 45.2179 71.0771  44
  -2  -9   7 158.036 56.4149  23
   2  -9  -7 7.95138 116.211  40
   2  -9  -7 11.5694 101.598  22
  -2   9   7 61.8532 68.0295  38
   2  -9  -7 144.565 148.276  35
  -2   9   7 93.8443 79.3729  20
  -2  -9   7 201.490 52.3028  34
  -2  -9   7 150.330 55.7920   9
   2   9  -7 73.7204 68.7188  33
  -2   9   7 11.7737 90.8616  56
  -2   9   7 155.128 100.432  28
   2  -9  -7 54.1985 129.326  30
  -2  -9   7 106.257 55.9443  27
   2  -9  -7 59.6972 139.252  11
   2   9  -6 1156.31 130.040  25
  -2  -9   6 1140.85 106.974  47
   2  -9  -6 748.424 181.708   8
  -2   9   6 1131.03 116.255  45
  -2   9   6 917.953 120.688  24
  -2  -9   6 889.228 102.595  23
   2  -9  -6 1149.53 138.086  40
   2  -9  -6 1133.67 176.497  22
  -2   9   6 998.235 108.950  38
  -2  -9   6 979.596 103.792   9
   2  -9  -6 915.988 180.416  35
  -2   9   6 1009.64 130.058  20
  -2  -9   6 1076.43 92.0007  34
   2   9  -6 1183.27 114.787  33
  -2   9   6 1198.26 150.297  56
  -2  -9   6 1010.38 106.296  55
  -2   9   6 868.291 142.320  28
  -2  -9   6 1061.21 95.4188  26
  -2  -9   6 1127.65 98.9359  48
  -2  -9   5 502.403 77.9478  48
  -2  -9   5 418.250 77.0476  47
   2   9  -5 508.738 98.9339  25
  -2   9   5 371.308 87.4913  45
  -2   9   5 402.088 94.4124  24
  -2   9   5 346.756 80.9125  42
  -2  -9   5 326.445 66.8410  23
   2  -9  -5 482.758 106.606  40
  -2   9   5 453.097 83.9588  38
   2   9  -5 314.404 64.0206  21
  -2   9   5 359.809 103.569  20
   2  -9  -5 268.296 130.929  35
  -2  -9   5 578.175 67.3067  34
  -2  -9   5 438.425 76.3278   9
   2   9  -5 444.757 83.6101  33
  -2  -9   5 350.277 78.3909  55
  -2   9   5 481.306 82.2964  53
  -2   9   5 504.020 114.641  28
   2  -9  -5 251.784 99.0107  17
  -2  -9   5 369.893 66.3150  27
  -2  -9   5 392.725 67.8485  26
   2  -9  -5 836.335 217.078  11
   2   9  -4 3340.12 232.695  25
  -2  -9   4 2695.94 197.178  47
   2   9  -4 3484.58 232.797  10
  -2   9   4 2717.68 223.223  24
  -2   9   4 3223.49 213.541  45
  -2  -9   4 2977.11 197.595  23
  -2   9   4 2831.86 207.527  42
   2  -9  -4 2764.06 316.051  22
  -2  -9   4 2972.51 204.700   9
  -2   9   4 3030.59 205.540  38
   2   9  -4 3080.87 206.831  21
   2  -9  -4 2723.41 244.193  35
  -2   9   4 2655.03 226.812  28
  -2  -9   4 3337.50 185.415  34
   2  -9  -4 3074.51 262.789  19
   2   9  -4 3112.37 202.884  33
  -2  -9   4 2993.30 201.242  55
   2  -9  -4 3202.08 329.618   8
  -2   9   4 2790.82 203.109  53
   2  -9  -4 2940.68 345.108  11
   2  -9  -4 3250.01 275.200  17
  -2  -9   4 3316.69 196.150  27
  -2  -9   4 3126.21 208.295  49
  -2  -9   4 3254.72 195.383  26
  -2  -9   4 3039.22 198.744  48
  -2  -9   3 139.679 74.1721  48
   2   9  -3 120.433 77.6257  25
   2  -9  -3-20.2042 182.990   8
  -2   9   3 203.800 87.1725  24
  -2   9   3 208.605 78.9226  45
   2  -9  -3-32.1926 144.353  17
  -2   9   3 78.1949 77.3001  42
   2   9  -3 120.364 62.5906  10
   2  -9  -3 300.902 177.946  22
  -2   9   3 123.066 69.4776  38
   2   9  -3 199.711 137.588  21
   2  -9  -3 15.6903 140.720  19
  -2   9   3 111.813 54.6323  31
   2   9  -3 183.707 56.1847  18
  -2   9   3 53.6194 102.608  28
  -2  -9   3 196.798 54.7244  27
  -2  -9   3 186.776 63.3247  26
  -2  -9   3 131.191 72.0500  49
   2  -9  -3 181.694 180.029  11
  -2  -9   2 1474.00 135.202  47
   2   9  -2 2163.95 255.135  25
  -2   9   2 1535.44 164.149  24
  -2   9   2 1741.35 150.089  45
   2   9  -2 2004.47 159.999  10
   2  -9  -2 1240.16 247.816   8
  -2   9   2 1833.83 155.746  42
   2  -9  -2 1770.28 263.157  22
  -2   9   2 1839.07 150.757  38
   2   9  -2 2073.53 178.579  21
   2  -9  -2 1531.41 237.613  19
  -2   9   2 1794.34 135.107  31
  -2  -9   2 2277.95 142.163  30
  -2  -9   2 2001.02 142.566  55
   2  -9  -2 1861.33 238.031  17
  -2   9   2 1547.78 140.314  50
  -2  -9   2 1820.42 127.480  27
  -2   9   2 1798.21 179.280  28
  -2  -9   2 1653.70 144.794  49
   2  -9  -2 1432.80 249.424  11
  -2  -9   2 1495.59 141.986  48
  -2   9   2 1570.54 163.975  16
  -2  -9   2 1820.22 139.713  26
  -2  -9   1 76.0343 76.1705  48
  -2  -9   1 277.583 71.5808  47
  -2   9   1 178.382 86.1750  16
   2   9  -1 262.679 344.816  25
  -2   9   1 258.146 95.9618  45
   2  -9  -1 106.545 151.747   8
  -2   9   1 154.701 82.5259  42
   2   9  -1 255.510 71.9604  10
   2  -9  -1 18.4403 177.092  22
   2  -9  -1 180.845 161.450  19
  -2   9   1 228.125 60.7635  31
  -2  -9   1 224.730 67.2577  30
  -2  -9   1 246.111 73.3609  26
  -2  -9   1 235.593 64.2221  55
  -2   9   1 106.121 107.391  28
  -2   9   1 190.836 81.5726  50
  -2  -9   1 289.345 81.2614  49
   2  -9  -1-123.546 174.814  11
  -2  -9   0 818.795 90.1100  47
  -2   9   0 853.857 130.516  16
  -2   9   0 813.008 120.328  45
   2   9   0 1102.21 119.331  10
   2  -9   0 440.372 175.141   8
  -2  -9   0 787.482 86.8964  55
  -2   9   0 755.704 122.530  42
  -2   9   0 722.671 87.4105  39
   2  -9   0 534.436 180.554  22
  -2   9   0 845.150 89.4214  31
  -2  -9   0 816.564 99.9605  30
   2  -9   0 631.822 190.788  17
  -2  -9   0 829.007 101.164  26
  -2  -9   0 893.424 109.922  49
  -2  -9   0 1075.90 115.209  48
   2  -9   0 530.052 175.710  11
  -2  -9  -1 113.733 52.8531  47
  -2   9  -1 115.034 96.6748  45
   2  -9   1 57.5761 129.072   8
  -2   9  -1 100.506 87.8396  42
   2   9   1 121.054 66.7527  10
  -2   9  -1 89.8255 58.3688  39
   2  -9   1 93.6919 144.303  22
   2  -9   1 193.078 160.581  19
  -2   9  -1 109.094 56.3056  31
  -2  -9  -1 237.468 83.7857  30
   2  -9   1 105.069 101.427   5
  -2  -9  -1 160.919 55.5555  55
  -2   9  -1 177.218 118.418  28
   2  -9   1 16.3451 145.769  17
  -2  -9  -1 187.799 88.0531  49
   2  -9   1-55.2885 136.230  11
  -2   9  -2 1028.52 143.269  45
   2   9   2 1283.42 131.223  10
  -2   9  -2 1124.34 136.882  42
  -2   9  -2 994.894 105.062  39
   2  -9   2 835.310 163.031  22
  -2   9  -2 1224.30 132.336  38
   2   9   2 1006.93 120.905   7
   2  -9   2 1117.00 197.209  19
  -2   9  -2 1044.68 97.3461  31
   2  -9   2 538.969 141.000   9
  -2  -9  -2 783.059 118.680  30
   2  -9   2 979.583 152.083   5
  -2   9  -2 1017.18 157.821  28
   2  -9   2 848.317 185.268  17
  -2  -9  -2 1111.45 112.514  26
  -2  -9  -2 1345.16 139.543  49
  -2  -9  -2 1121.40 116.502  48
  -2   9  -3-17.5582 95.6887  45
   2   9   3 200.548 73.1075  10
  -2   9  -3-38.2036 69.6740  39
  -2   9  -3 53.8501 84.7413  38
   2   9   3 157.792 69.0024   7
   2  -9   3-54.9206 122.383  19
  -2   9  -3 66.0661 47.7006  31
  -2  -9  -3 174.431 88.8415  30
   2  -9   3 37.7636 112.208  17
  -2  -9  -3-63.9883 94.2620  49
  -2  -9  -3 72.9828 61.8446  26
  -2  -9  -3 92.1075 70.8106  48
   2   9   4 1360.44 150.878  25
  -2  -9  -4 996.000 102.698  48
   2   9   4 956.599 117.887  10
  -2   9  -4 697.663 101.322  39
  -2   9  -4 869.393 116.899  38
   2   9   4 967.193 109.433   7
   2  -9   4 697.195 133.418  19
  -2   9  -4 740.605 86.5864  31
  -2  -9  -4 767.888 125.578  30
   2  -9   4 890.773 134.027  17
  -2  -9  -4 981.813 92.5819  26
  -2  -9  -4 1050.64 136.874  49
  -2   9  -5 423.807 102.547  16
   2   9   5 621.112 114.895  25
  -2   9  -5 432.690 105.641  42
  -2   9  -5 442.165 86.1901  41
   2   9   5 575.068 96.9456  10
  -2   9  -5 453.422 86.4183  39
  -2   9  -5 554.305 107.248  38
   2  -9   5 551.000 111.968  19
  -2  -9  -5 419.198 89.5010  32
  -2   9  -5 574.686 75.1099  31
   2  -9   5 427.875 95.7119   9
   2  -9   5 401.512 94.3827  17
  -2  -9  -5 476.480 115.824  49
  -2  -9  -5 448.080 64.5779  26
  -2  -9  -5 553.381 75.6204  48
   2   9   6 274.203 93.9596  25
  -2   9  -6 162.995 74.5348  41
   2  -9   6 128.302 72.7162  23
   2   9   6 149.718 69.4428  10
  -2   9  -6 268.933 80.5912  39
  -2   9  -6 284.610 88.9939  38
  -2   9  -6 302.851 77.5576  37
   2  -9   6 143.208 71.2432  19
  -2  -9  -6 215.436 85.6640  32
   2  -9   6 178.414 74.2935   9
  -2  -9  -6 179.539 90.0535  30
  -2   9  -6 214.090 88.5251  16
  -2  -9  -6 113.446 99.2924  49
  -2   9  -7 105.111 68.7332  16
   2   9   7 67.1268 74.4897  25
  -2   9  -7 168.232 77.6698  46
  -2  -9  -7 21.6563 43.3907  43
  -2   9  -7 103.739 68.9893  41
   2  -9   7 84.5605 62.9769  23
   2   9   7 106.265 54.0254  10
  -2   9  -7 109.598 76.5381  39
   2  -9   7 57.2268 49.9527  14
  -2   9  -7 124.132 72.9527  37
  -2  -9  -7-32.6117 86.2903  32
   2  -9   7 118.099 58.1758   9
  -2  -9  -7 28.3509 74.1395  30
  -2  -9  -7 133.491 93.6800  49
  -2  -9  -8 161.881 102.252  49
   2   9   8 216.309 84.5764  25
  -2   9  -8 207.574 67.3143  46
  -2   9  -8 176.205 66.9109  41
   2  -9   8 156.035 59.9386  23
  -2   9  -8 154.100 67.8843  37
  -2  -9  -8 243.940 90.2400  32
  -2  -9  -8 301.526 70.9838  30
  -2   9  -9 77.6010 57.5278  46
  -2   9  -9 15.7259 56.3160  41
  -2   9  -9 92.1894 54.6575  37
  -2  -9  -9 10.1434 74.3748  32
  -2   9  -9 15.3783 40.4612  52
  -2  -9  -9 232.453 91.1059  49
  -2   9 -10 30.2318 43.7758  46
  -2   9 -10 72.9790 49.7655  41
  -2   9 -10 111.932 44.9626  37
  -2  -9 -10 18.3702 59.8039  32
  -2  -9 -10 136.084 72.9343  49
  -2  10  11 7232.68 364.114  45
   2  10 -11 6661.28 359.135  44
   2 -10 -11 7445.88 387.695  40
  -2  10  11 6984.53 357.510  38
   2 -10 -11 7085.51 390.459  35
   2  10 -11 6138.28 357.309  33
   2  10 -11 6669.51 341.448  29
  -2 -10  11 6471.83 340.070  53
  -2 -10  11 6997.32 347.281  27
  -2 -10  11 6364.03 342.886  55
  -2 -10  10 781.486 68.7051  47
   2  10 -10 789.715 67.9126  29
  -2 -10  10 766.930 73.9437  55
  -2  10  10 610.043 84.2401  45
   2  10 -10 653.499 81.4851  44
  -2 -10  10 682.402 63.4883  53
   2 -10 -10 737.377 128.325  40
  -2  10  10 736.021 83.4448  38
   2 -10 -10 739.373 134.975  35
  -2 -10  10 737.968 64.6813  34
   2  10 -10 631.053 80.4605  33
   2 -10 -10 726.549 79.9037  30
  -2 -10  10 712.701 69.6725  27
  -2 -10   9 12319.6 610.659  47
  -2  10   9 11906.5 623.772  45
   2 -10  -9 12812.7 651.671  40
  -2 -10   9 11564.9 610.472  55
  -2  10   9 11836.2 618.603  38
  -2  10   9 11170.3 647.162  20
   2 -10  -9 13303.5 672.615  35
  -2 -10   9 11603.0 600.816  34
   2  10  -9 11597.5 624.388  33
   2 -10  -9 12465.0 630.851  30
  -2 -10   9 11230.2 598.700  53
  -2 -10   9 12518.9 610.626  27
  -2 -10   8 2983.26 181.382  47
  -2  10   8 2713.76 207.458  24
  -2  10   8 3060.91 195.532  45
  -2 -10   8 2699.76 183.724  23
   2 -10  -8 2704.68 220.397  40
   2 -10  -8 2590.73 206.448  22
  -2  10   8 2615.98 183.999  38
  -2  10   8 2800.61 215.388  20
   2 -10  -8 3154.91 248.748  35
  -2 -10   8 2668.87 165.407  34
   2  10  -8 2689.84 190.657  33
  -2  10   8 2757.35 226.994  56
   2 -10  -8 2914.51 215.455  30
  -2  10   8 2620.46 221.018  28
  -2 -10   8 2972.19 182.268  55
  -2 -10   8 2831.80 175.022  27
   2  10  -7 17939.7 874.464  25
  -2 -10   7 16928.4 828.644  47
  -2  10   7 14713.2 859.363  24
  -2  10   7 17668.8 845.347  45
  -2 -10   7 15825.9 835.081  23
   2 -10  -7 16984.8 856.785  40
   2 -10  -7 16811.7 881.405  22
  -2 -10   7 14598.5 834.149   9
  -2  10   7 15991.2 833.913  38
  -2  10   7 15660.7 871.387  20
   2 -10  -7 16237.4 878.663  35
  -2  10   7 16013.3 872.350  28
  -2 -10   7 16390.2 813.843  34
   2  10  -7 16409.5 841.728  33
  -2  10   7 16002.5 889.006  56
  -2 -10   7 15173.8 823.305  55
   2 -10  -7 18985.4 921.354  11
  -2 -10   6 771.984 88.8267  47
   2  10  -6 531.485 99.9591  25
   2 -10  -6 591.938 148.973   8
  -2  10   6 632.337 99.4436  45
  -2  10   6 609.235 102.596  24
   2 -10  -6 631.419 118.756  40
   2 -10  -6 709.590 144.686  22
  -2  10   6 529.245 88.2898  38
   2 -10  -6 644.070 144.181  35
  -2 -10   6 723.972 71.0177  34
  -2 -10   6 510.184 77.3304   9
   2  10  -6 836.065 95.3063  33
  -2 -10   6 557.644 82.3405  55
   2 -10  -6 636.852 158.820  30
  -2  10   6 946.417 151.586  28
  -2 -10   6 542.414 71.7233  27
  -2 -10   6 587.324 72.6679  26
  -2 -10   6 735.790 79.7540  48
   2  10  -5 14526.5 779.749  25
  -2 -10   5 13011.4 733.573  47
  -2  10   5 14595.6 782.365  24
  -2  10   5 15917.4 757.520  45
  -2  10   5 14154.1 751.764  42
  -2 -10   5 14342.2 749.628   9
   2 -10  -5 13158.9 759.693  17
  -2  10   5 14161.4 746.923  38
   2 -10  -5 13047.6 768.150  35
  -2 -10   5 15187.4 724.297  34
  -2  10   5 13963.0 783.604  28
   2  10  -5 14693.9 751.090  33
   2 -10  -5 14366.6 806.295  30
  -2 -10   5 14726.5 739.163  55
   2 -10  -5 15805.0 852.505  11
  -2 -10   5 14079.0 729.288  27
  -2 -10   5 14387.3 732.075  26
  -2 -10   5 13972.9 731.709  48
   2  10  -4 2794.03 212.522  25
  -2 -10   4 2419.62 179.418  47
   2  10  -4 2514.67 204.360  10
  -2  10   4 2623.27 218.529  24
  -2  10   4 2963.50 200.298  45
  -2  10   4 2563.89 199.213  42
   2 -10  -4 3075.77 280.973  22
  -2  10   4 2653.91 193.948  38
   2 -10  -4 2923.05 214.725  19
   2  10  -4 2913.04 193.110  33
  -2  10   4 2508.18 179.936  31
  -2  10   4 2695.23 229.492  28
   2 -10  -4 2664.76 265.330  30
   2 -10  -4 2901.81 277.824   8
   2 -10  -4 2661.54 224.745  17
   2 -10  -4 3179.78 291.737  11
  -2 -10   4 2749.27 173.172  27
  -2 -10   4 2976.24 178.190  26
  -2 -10   4 2613.09 177.537  48
   2  10  -3 20172.6 984.632  25
  -2  10   3 18024.9 984.741  28
   2  10  -3 18900.7 974.383  10
  -2  10   3 17102.7 978.760  24
  -2  10   3 17928.7 949.168  45
  -2  10   3 18614.5 956.876  42
   2 -10  -3 19267.5 1037.47  22
   2  10  -3 17163.5 939.631  21
   2 -10  -3 17979.4 987.184  19
   2  10  -3 19505.5 947.963  33
  -2  10   3 18899.1 938.165  31
  -2 -10   3 18408.8 937.346  55
   2 -10  -3 18160.7 1031.03   8
   2 -10  -3 19589.1 1002.66  17
   2 -10  -3 18590.0 1039.18  11
  -2 -10   3 18920.5 926.955  27
  -2 -10   3 17209.5 942.615  49
  -2 -10   3 18570.5 930.007  26
  -2 -10   3 17263.7 932.584  48
   2  10  -2 2054.24 187.634  25
  -2 -10   2 1607.76 136.903  47
  -2  10   2 1867.90 176.755  24
   2  10  -2 1553.96 148.366  10
  -2  10   2 1571.98 149.443  45
   2 -10  -2 1796.21 225.043   8
  -2  10   2 1495.73 155.726  42
   2 -10  -2 1658.79 223.957  22
   2 -10  -2 1223.02 184.313  17
   2  10  -2 1438.65 181.585  21
   2 -10  -2 1724.78 193.199  19
  -2  10   2 1736.15 132.818  31
  -2 -10   2 1716.51 130.034  30
   2 -10  -2 887.229 157.931   9
  -2 -10   2 1695.11 134.734  55
  -2  10   2 1497.60 188.477  28
  -2 -10   2 1635.99 118.235  27
  -2 -10   2 1655.21 142.189  49
  -2 -10   2 1688.61 131.316  26
   2 -10  -2 1297.16 220.921  11
  -2 -10   2 1562.20 137.682  48
  -2  10   2 1459.96 168.631  16
   2  10  -1 26968.1 1163.33  25
  -2 -10   1 21628.6 1045.39  47
  -2  10   1 20264.8 1061.01  45
   2  10  -1 22157.1 1082.87  10
  -2  10   1 21646.9 1072.90  42
   2 -10  -1 20835.5 1133.09  22
  -2  10   1 18204.7 1032.20  39
   2  10  -1 20522.3 1047.22  39
   2  10  -1 21012.7 1055.78  21
   2 -10  -1 18871.2 1118.30  11
   2 -10  -1 15140.9 1082.17   9
   2 -10  -1 21755.3 1129.07  19
  -2  10   1 20898.6 1043.50  31
  -2 -10   1 21313.8 1040.80  30
  -2 -10   1 22518.2 1043.20  55
   2 -10  -1 20251.4 1127.41   8
  -2  10   1 18684.0 1089.63  28
  -2 -10   1 19929.1 1039.47  26
  -2 -10   1 21639.8 1055.68  49
  -2  10   1 20648.4 1107.05  16
  -2 -10   1 19858.9 1048.77  48
  -2 -10   0 1446.76 117.704  47
  -2  10   0 1364.40 147.773  45
   2 -10   0 1282.99 185.510   8
   2 -10   0 1573.10 197.195  17
   2  10   0 1330.65 142.355  10
  -2  10   0 1379.96 153.124  42
  -2  10   0 1201.63 112.874  39
   2  10   0 1536.79 131.554  39
   2 -10   0 1393.85 200.186  22
  -2  10   0 1311.52 141.454  38
  -2  10   0 1375.53 118.068  31
  -2 -10   0 1358.49 122.889  30
   2 -10   0 886.116 164.619   9
  -2 -10   0 1584.12 117.784  55
  -2 -10   0 1275.26 124.614  26
  -2 -10   0 1465.52 138.302  49
   2 -10   0 1328.71 190.709  11
  -2  10   0 1482.95 167.984  16
  -2 -10   0 1256.54 133.082  48
  -2 -10  -1 13171.3 659.885  55
  -2 -10  -1 13807.1 665.358  47
  -2  10  -1 13068.7 702.867  45
   2  10   1 13736.5 714.758  10
  -2  10  -1 12803.1 705.537  42
   2 -10   1 12193.7 733.358  22
  -2  10  -1 12094.3 670.136  39
  -2  10  -1 14396.3 699.707  38
   2 -10   1 11735.6 733.200   9
   2 -10   1 13430.2 752.373  19
  -2  10  -1 13411.9 672.805  31
  -2 -10  -1 11893.0 674.102  30
   2 -10   1 10901.4 689.416  30
   2 -10   1 13156.9 748.144  17
  -2  10  -1 11797.5 723.535  28
  -2 -10  -1 13819.2 696.010  49
  -2  10  -2 6693.37 402.584  45
   2  10   2 7392.97 411.544  10
  -2  10  -2 6883.05 403.657  42
   2 -10   2 6065.56 407.577  22
  -2  10  -2 5766.90 365.142  39
  -2  10  -2 6567.63 392.465  38
   2 -10   2 5850.38 414.537   9
   2 -10   2 7012.11 439.623  19
  -2  10  -2 6475.83 364.035  31
  -2 -10  -2 6206.26 378.596  30
  -2 -10  -2 6285.89 370.520  26
   2 -10   2 7605.29 441.244  17
  -2 -10  -2 7086.82 395.383  49
  -2 -10  -2 7315.89 384.461  48
  -2  10  -3 19565.7 1071.00  45
   2  10   3 21476.9 1083.96  10
  -2  10  -3 19454.6 1068.68  42
  -2  10  -3 19252.1 1046.31  39
  -2  10  -3 22594.2 1075.57  38
   2 -10   3 20390.0 1092.56   9
   2 -10   3 20797.9 1099.69  19
  -2  10  -3 20482.9 1039.75  31
  -2 -10  -3 19326.4 1060.98  30
   2 -10   3 20486.4 1088.31  17
  -2 -10  -3 20849.3 1045.46  26
  -2 -10  -3 22546.7 1074.15  49
  -2 -10  -3 21283.0 1050.52  48
   2  10   4 1286.14 136.011  10
  -2  10  -4 1044.36 115.005  39
  -2  10  -4 1461.04 142.400  38
   2 -10   4 1190.02 139.650   9
   2 -10   4 1150.33 145.373  19
  -2  10  -4 1145.09 104.613  31
  -2 -10  -4 1441.14 148.493  30
   2 -10   4 1298.26 140.317  17
  -2 -10  -4 1332.15 112.638  26
  -2 -10  -4 1522.57 150.483  49
  -2 -10  -4 1280.69 120.349  48
  -2  10  -5 13304.0 680.585  46
   2  10   5 12945.7 686.792  10
   2 -10   5 12110.3 678.116  23
  -2  10  -5 11775.4 661.856  39
  -2  10  -5 12795.2 676.638  38
   2 -10   5 12689.5 680.722  19
  -2 -10  -5 11285.6 644.912  32
  -2  10  -5 12474.7 646.817  31
  -2  10  -5 13564.0 710.006  16
   2 -10   5 12164.2 668.339  17
  -2 -10  -5 13025.7 683.278  49
  -2 -10  -5 13193.9 642.236  26
  -2 -10  -5 12586.5 645.508  48
  -2  10  -6 2140.81 159.105  41
  -2  10  -6 2392.02 181.876  39
  -2  10  -6 2466.04 187.672  38
  -2  10  -6 2704.57 178.886  37
   2 -10   6 2570.37 183.549  19
  -2 -10  -6 2520.81 176.309  32
  -2  10  -6 2721.51 209.307  16
  -2 -10  -6 2775.34 205.945  49
  -2 -10  -7 4551.77 271.779  43
  -2  10  -7 5078.06 289.598  41
  -2  10  -7 5325.04 312.426  39
  -2  10  -7 6525.60 308.055  37
  -2 -10  -7 5416.13 306.906  32
  -2 -10  -7 5850.95 316.328  30
  -2 -10  -7 5587.60 329.291  49
  -2  10  -8 515.845 78.8699  46
  -2  10  -8 478.499 66.5900  41
  -2  10  -8 375.542 67.4696  37
  -2 -10  -8 410.593 81.9658  32
  -2 -10  -8 439.984 96.1260  49
  -2  10  -9 6871.47 334.513  46
  -2  10  -9 6179.69 321.952  37
  -2 -10  -9 6162.88 331.074  32
  -2 -10  -9 6360.12 351.853  49
  -2 -11  10 809.037 62.0055  47
  -2  11  10 695.283 80.5607  45
   2  11 -10 824.352 74.2118  44
   2 -11 -10 894.224 108.561  40
  -2  11  10 896.520 81.1792  38
   2 -11 -10 950.108 121.788  35
  -2 -11  10 845.690 60.3499  34
   2  11 -10 626.859 72.1466  33
  -2 -11  10 749.334 64.0589  27
  -2  11  10 559.595 63.6246  31
   2 -11 -10 609.518 67.3673  30
  -2 -11  10 982.574 72.4580  55
   2  11 -10 737.170 57.6954  29
  -2 -11   9 12.9076 44.3547  47
  -2  11   9-23.0449 59.8909  45
   2  11  -9 4.20433 51.8587  44
   2 -11  -9 23.4021 92.4906  40
  -2  11   9-25.1112 56.2377  38
   2 -11  -9 106.946 106.710  35
  -2 -11   9-11.6805 35.5514  34
   2  11  -9 63.6093 51.2159  33
   2 -11  -9-24.0159 69.0166  30
  -2 -11   9-20.8882 51.4234  55
   2  11  -9 25.6876 35.4970  29
  -2 -11   9 69.6214 41.2264  27
  -2 -11   8 1033.64 92.4044  47
  -2 -11   8 1035.12 85.4301  27
  -2  11   8 1052.56 107.519  45
   2  11  -8 1182.01 99.2451  44
   2 -11  -8 1034.52 126.391  40
  -2  11   8 839.615 96.4162  38
   2 -11  -8 1184.16 145.766  35
  -2 -11   8 1063.76 77.9113  34
   2  11  -8 896.014 97.9842  33
   2 -11  -8 1282.21 130.467  30
  -2 -11   8 1115.81 95.9797  55
  -2  11   8 855.442 133.943  28
   2 -11  -8 820.659 80.7835  26
   2  11  -7-8.54569 68.5569  25
  -2  11   7 41.4365 70.9755  45
  -2  11   7 71.8955 64.6944  24
   2  11  -7 36.4480 58.1069  44
   2 -11  -7 12.7850 95.8526  40
   2 -11  -7-77.1124 94.9120  22
  -2  11   7 5.30805 65.1073  38
   2 -11  -7-87.0666 111.402  35
  -2 -11   7 19.9074 39.2594  34
   2  11  -7-17.2381 59.4336  33
  -2  11   7-71.8846 95.4883  56
  -2 -11   7-21.6622 60.2000  55
  -2  11   7-9.47152 117.140  28
  -2 -11   7-30.5968 56.7952  47
   2  11  -6 1424.73 140.183  25
  -2 -11   6 1329.86 111.153  47
  -2  11   6 1309.78 130.121  45
  -2  11   6 1056.79 132.264  24
   2 -11  -6 1622.73 144.515  40
   2 -11  -6 1093.97 155.894  22
  -2  11   6 1272.26 122.141  38
   2 -11  -6 1150.77 146.541  35
  -2 -11   6 1487.94 95.2860  34
   2  11  -6 1509.72 121.444  33
  -2  11   6 1013.82 106.154  31
  -2 -11   6 1374.81 103.705  26
  -2 -11   6 1300.33 111.690  55
  -2  11   6 1180.15 171.509  28
   2 -11  -6 1398.55 170.527  30
  -2 -11   6 1209.75 99.0293  27
  -2 -11   6 1424.81 107.810  48
   2 -11  -6 1052.32 106.447  48
  -2 -11   5 52.7575 58.0493  47
   2  11  -5 83.9578 66.6485  25
  -2  11   5-20.1027 75.3139  45
  -2  11   5 52.4715 71.8323  24
   2 -11  -5 39.3767 126.340  30
   2 -11  -5 7.37964 96.6248  35
  -2 -11   5 36.6892 39.2804  34
   2  11  -5 67.6741 60.3587  33
  -2  11   5 52.8799 55.5895  31
  -2 -11   5 38.7013 61.8018  55
  -2  11   5 86.2088 131.829  28
  -2 -11   5 50.8748 45.0289  27
   2 -11  -5 83.0760 122.749  11
  -2 -11   5 63.8577 54.3965  26
  -2 -11   5 34.5525 53.7546  48
   2  11  -4 1591.89 148.633  25
  -2 -11   4 1362.96 118.496  47
   2 -11  -4 1567.97 193.807   8
  -2  11   4 1309.32 136.486  45
  -2  11   4 1268.06 148.828  24
  -2  11   4 1543.40 148.551  42
   2 -11  -4 1330.12 183.383  22
   2  11  -4 1622.24 131.294  33
  -2  11   4 1455.77 123.075  31
   2 -11  -4 1080.46 166.926  30
  -2  11   4 1380.07 189.252  28
   2 -11  -4 1261.04 142.742  17
  -2 -11   4 1469.90 107.024  27
  -2 -11   4 1525.49 117.052  26
   2 -11  -4 1270.69 188.122  11
  -2 -11   4 1521.37 120.388  48
  -2 -11   3 161.535 67.8479  48
   2  11  -3 266.857 85.0919  25
  -2  11   3 317.025 99.0686  16
   2 -11  -3 327.123 127.008   8
  -2  11   3 149.661 86.2496  45
  -2  11   3 303.714 102.547  24
  -2  11   3 345.044 96.8980  42
   2  11  -3 365.496 79.5979  10
   2 -11  -3 226.351 130.909  30
   2 -11  -3 378.427 137.047  22
   2  11  -3 196.657 70.3369  33
   2 -11  -3 216.771 84.7075  19
  -2  11   3 221.901 67.2367  31
  -2 -11   3 278.115 75.8672  55
  -2  11   3 408.271 154.251  28
   2 -11  -3 137.937 93.9094  17
  -2 -11   3 277.456 52.1933  27
   2 -11  -3 216.774 124.417  11
  -2 -11   3 215.972 72.7530  49
  -2 -11   3 176.183 60.7061  26
  -2 -11   2 169.008 72.7542  48
  -2 -11   2 216.776 71.4185  47
  -2  11   2 106.123 94.5633  16
   2  11  -2 270.713 87.9135  25
   2 -11  -2 171.698 120.630   8
  -2  11   2 140.487 89.0582  45
  -2 -11   2 251.764 62.5661  26
  -2  11   2 174.273 99.2237  42
   2  11  -2 335.390 75.1523  10
   2 -11  -2 77.4342 126.442  22
   2  11  -2 241.902 65.1447  39
   2 -11  -2 185.026 94.0019  19
  -2  11   2 201.834 65.8954  31
  -2 -11   2 239.162 63.1614  30
  -2 -11   2 276.175 77.9882  55
  -2  11   2 241.107 147.443  28
   2 -11  -2 180.454 100.968  17
  -2 -11   2 254.685 76.8868  49
   2 -11  -2 264.572 124.460  30
  -2 -11   2 238.076 51.4568  27
   2 -11  -2 298.758 128.360  11
  -2 -11   1 109.287 76.5676  48
  -2 -11   1-10.7312 62.4372  47
  -2  11   1 108.258 88.3519  16
   2  11  -1 33.0938 130.719  25
   2 -11  -1-87.3187 111.739   8
  -2  11   1-7.70979 89.4371  45
  -2  11   1-8.70230 93.4620  42
   2  11  -1 29.7643 58.0809  10
   2 -11  -1 149.593 113.399  22
  -2  11   1-4.94203 47.8173  39
   2  11  -1 34.9026 58.0160  39
  -2  11   1-83.8521 78.8477  38
   2 -11  -1-41.9534 93.9516  19
  -2  11   1 22.9290 55.9557  31
  -2 -11   1-14.3994 58.2165  30
  -2 -11   1 5.05439 63.6958  55
  -2  11   1-36.9156 142.745  28
   2 -11  -1 8.80907 116.708  30
   2 -11  -1-60.5680 105.646  11
  -2 -11   1 25.9788 68.2199  49
  -2 -11   1 4.92304 61.8772  26
  -2 -11   0 179.990 79.5059  48
  -2 -11   0 292.936 68.5713  47
  -2  11   0 178.724 99.6693  16
   2  11   0 397.485 358.380  25
   2 -11   0 237.702 110.636   8
  -2  11   0 240.901 96.1646  45
  -2 -11   0 213.545 83.3721  49
   2 -11   0 242.880 101.984  30
  -2  11   0 106.519 100.419  42
   2  11   0 425.940 86.7202  10
   2 -11   0 278.712 116.418  22
  -2  11   0 175.879 57.5787  39
   2  11   0 251.032 69.3398  39
  -2  11   0 257.035 91.4001  38
   2  11   0 234.650 97.8420  21
   2 -11   0 228.351 104.459  19
  -2  11   0 253.922 64.8931  31
   2 -11   0 222.481 77.9942   9
  -2 -11   0 228.924 70.2985  30
  -2 -11   0 320.322 66.2646  55
   2 -11   0 367.236 112.341  11
  -2 -11   0 210.634 71.0833  26
   2 -11   0 274.425 105.914  17
  -2 -11  -1 249.517 57.8199  47
  -2  11  -1 229.284 99.8714  45
  -2  11  -1 377.401 110.228  42
   2  11   1 238.555 78.8733  10
   2 -11   1 297.762 106.720  22
  -2  11  -1 172.786 57.2544  39
   2  11   1 175.463 74.9451  39
  -2  11  -1 172.462 91.2600  38
  -2  11  -1 271.398 65.7353  31
   2 -11   1 127.804 80.5730   9
  -2 -11  -1 223.828 74.4724  30
   2 -11   1 245.092 99.9047  17
  -2 -11  -1 138.645 81.0983  49
  -2  11  -2 346.897 105.454  45
  -2  11  -2 325.639 105.995  42
   2  11   2 505.209 95.4595  10
  -2  11  -2 451.873 74.5610  39
  -2  11  -2 440.662 101.509  38
   2 -11   2 650.128 122.198  19
  -2  11  -2 502.965 71.5144  31
   2 -11   2 549.528 100.209   9
  -2 -11  -2 411.150 88.6364  30
  -2 -11  -2 625.801 105.806  49
  -2 -11  -2 396.050 84.8642  26
  -2 -11  -2 490.142 96.2242  48
  -2  11  -3 539.758 106.714  42
   2  11   3 545.114 94.2590  10
  -2  11  -3 455.435 80.0799  39
  -2  11  -3 680.271 108.101  38
   2 -11   3 309.643 97.1928  19
  -2  11  -3 563.974 71.1555  31
   2 -11   3 550.101 93.9607   9
  -2 -11  -3 453.996 99.7694  30
   2 -11   3 510.648 106.330  17
  -2 -11  -3 504.935 99.8529  49
  -2 -11  -3 539.244 83.5298  26
  -2 -11  -3 518.442 97.7230  48
  -2  11  -4-22.2163 76.7442  16
  -2  11  -4 13.4392 78.9823  42
   2 -11   4 37.3854 58.4998  23
   2  11   4 89.5128 62.4129  10
  -2  11  -4 45.8138 59.5576  39
  -2  11  -4 185.130 88.1245  38
   2 -11   4 90.9398 73.7434  19
  -2  11  -4 93.7686 47.5475  31
   2 -11   4 15.5988 58.0237   9
  -2 -11  -4 145.222 88.7565  30
   2 -11   4 113.087 71.3746  17
  -2 -11  -4 123.441 83.5108  49
  -2 -11  -4 63.6235 59.2898  26
  -2 -11  -4 73.9994 67.2825  48
  -2  11  -5 999.941 116.117  46
   2 -11   5 793.775 101.066  23
  -2  11  -5 850.126 99.3231  39
  -2  11  -5 1230.08 123.069  38
  -2  11  -5 1159.42 102.873  37
  -2 -11  -5 739.294 78.5785  26
   2 -11   5 867.784 107.173  19
  -2  11  -5 954.100 83.7141  31
  -2 -11  -5 980.612 126.280  30
  -2 -11  -5 1030.80 124.661  49
  -2 -11  -5 814.567 84.2614  48
  -2  11  -6 1729.48 141.071  46
  -2 -11  -6 1595.97 112.232  43
   2 -11   6 1472.63 134.277  23
  -2  11  -6 1600.28 133.156  39
  -2  11  -6 1882.04 130.583  37
  -2 -11  -6 1713.67 123.777  32
  -2 -11  -6 1768.53 153.161  49
  -2  11  -7 84.3480 56.0453  39
  -2  11  -7 41.6072 51.0833  37
  -2 -11  -7-17.5949 51.7007  32
  -2 -11  -7 27.8228 66.1060  30
  -2 -11  -7 40.6580 77.1512  49
  -2  11  -8 271.511 50.3300  37
  -2 -11  -8 214.827 55.3409  32
  -2 -11  -8 171.796 75.6532  49
  -2 -12   9 6784.24 336.474  47
  -2  12   9 6946.56 349.382  45
   2  12  -9 6035.66 338.083  44
   2 -12  -9 7029.11 355.627  40
  -2  12   9 6400.89 345.163  38
  -2 -12   9 6868.40 341.033  55
   2 -12  -9 7408.01 368.309  35
  -2 -12   9 5971.08 323.261  34
   2  12  -9 6548.61 345.382  33
  -2  12   9 5738.20 334.677  31
   2 -12  -9 6730.59 348.004  30
   2  12  -9 6421.14 329.473  29
  -2 -12   9 7037.10 336.241  27
  -2 -12   8 42.8758 44.1562  47
  -2  12   8 39.7711 60.0933  45
   2  12  -8 28.6686 43.7574  44
   2 -12  -8 13.2816 75.7487  40
  -2  12   8 56.7407 54.6203  38
   2 -12  -8 60.4037 81.2858  35
  -2 -12   8 56.6297 27.1097  34
   2  12  -8 16.6651 45.7523  33
  -2  12   8 58.9112 41.6177  31
   2 -12  -8-5.31173 77.5733  30
  -2 -12   8 30.6387 49.4483  55
  -2 -12   7 11643.2 574.738  47
  -2  12   7 11774.5 590.142  45
   2  12  -7 10894.9 575.296  44
   2 -12  -7 11649.6 585.914  40
   2 -12  -7 11504.6 596.408  35
  -2 -12   7 10812.2 553.288  34
   2  12  -7 10717.9 579.909  33
  -2  12   7 10443.2 571.502  31
  -2 -12   7 12481.1 577.432  55
  -2 -12   7 11428.3 566.443  27
   2 -12  -7 10238.4 570.027  26
   2 -12  -6 168.079 59.4946  48
  -2 -12   6 362.334 63.0377  47
   2  12  -6 317.557 72.3423  25
  -2 -12   6 303.152 61.2134  48
  -2  12   6 326.274 83.9195  45
  -2  12   6 222.988 77.2101  24
   2  12  -6 320.960 64.9445  44
   2 -12  -6 272.336 97.5008  22
   2 -12  -6 460.629 93.9871  35
   2  12  -6 240.287 61.6641  33
  -2  12   6 215.537 56.8571  31
   2 -12  -6 249.242 112.341  30
  -2 -12   6 229.927 64.5272  55
  -2  12   6 177.525 119.411  28
  -2 -12   6 325.916 50.9028  27
  -2 -12   6 257.906 52.2598  26
   2 -12  -6 264.743 71.1199  26
   2  12  -5 16306.2 855.496  25
  -2 -12   5 16389.5 820.682  47
  -2  12   5 15327.9 862.876  24
  -2  12   5 16579.0 840.689  45
  -2 -12   5 16146.0 810.606  27
   2  12  -5 15596.1 828.211  33
  -2  12   5 16266.5 824.928  31
   2 -12  -5 18089.4 864.513  30
  -2  12   5 14144.8 868.466  28
  -2 -12   5 16434.9 817.726  26
  -2 -12   5 16375.1 818.134  48
   2 -12  -5 15919.0 825.801  48
   2 -12  -4-22.6365 78.1415  48
   2  12  -4 43.6732 62.9017  25
  -2  12   4 13.2028 77.7777  45
   2 -12  -4 243.290 113.185  30
  -2  12   4-6.38686 77.9224  42
   2 -12  -4 75.9567 103.110  22
   2  12  -4 22.8390 59.0835  33
  -2  12   4 51.1837 54.5980  31
  -2  12   4 54.4337 133.916  28
  -2 -12   4 16.9332 38.5858  27
   2 -12  -4 92.9558 105.711  11
  -2 -12   4 4.11877 52.6111  26
  -2 -12   4 102.091 62.3691  48
   2  12  -3 17610.3 951.234  25
  -2 -12   3 18408.5 915.414  47
   2  12  -3 18563.6 955.073  10
  -2  12   3 18486.8 937.319  45
  -2  12   3 17768.0 934.621  42
   2 -12  -3 19011.7 974.855  22
   2  12  -3 18360.9 918.856  39
  -2  12   3 18806.1 935.617  38
   2  12  -3 17793.2 923.957  33
  -2  12   3 17900.4 919.089  31
   2 -12  -3 18884.4 950.328  30
  -2 -12   3 19769.7 920.126  55
   2 -12  -3 20510.0 987.618  11
   2 -12  -3 17716.7 946.640  17
  -2  12   3 15788.5 969.001  28
  -2 -12   3 17808.0 900.222  27
  -2 -12   3 17510.4 908.732  26
  -2 -12   3 16505.3 910.881  48
  -2  12   3 17000.1 974.725  16
  -2 -12   2 960.693 95.6764  47
   2  12  -2 977.869 122.470  25
  -2  12   2 946.973 119.331  45
  -2  12   2 740.603 117.706  42
   2  12  -2 775.866 105.325  10
   2  12  -2 836.075 94.9435  39
   2 -12  -2 1181.88 145.376  22
  -2  12   2 932.589 116.984  38
   2  12  -2 860.963 98.0678  33
   2 -12  -2 875.413 115.226  19
  -2  12   2 840.276 91.8303  31
  -2 -12   2 990.756 97.2315  55
   2 -12  -2 660.146 124.222  30
  -2  12   2 621.646 165.127  28
   2 -12  -2 956.538 126.626  17
  -2 -12   2 804.968 87.8632  26
   2 -12  -2 951.803 147.471  11
  -2 -12   2 788.474 95.1741  49
  -2 -12   2 812.646 96.9106  48
  -2 -12   1 14933.6 730.675  47
  -2  12   1 13813.9 749.393  45
   2  12  -1 14261.8 766.295  10
  -2  12   1 14643.4 756.770  42
   2 -12  -1 14497.1 778.250  22
  -2  12   1 12454.0 718.237  39
   2  12  -1 13846.3 732.327  39
  -2  12   1 15659.5 757.708  38
   2 -12  -1 14178.1 761.923  19
  -2  12   1 14529.4 732.260  31
  -2 -12   1 14005.8 726.390  30
   2 -12  -1 14627.7 752.684  30
  -2 -12   1 14636.9 725.691  55
   2 -12  -1 15463.7 784.620  11
   2 -12  -1 14966.5 771.562  17
   2  12  -1 13914.4 773.211  25
  -2 -12   1 13772.6 724.951  26
  -2 -12   1 13295.8 733.909  49
  -2  12   1 14097.0 797.336  16
  -2 -12   1 13900.0 733.274  48
  -2  12   0 64.6517 82.8481  16
  -2 -12   0 88.2186 56.8876  47
   2  12   0 114.117 111.087  25
  -2  12   0 80.8298 86.9089  45
  -2  12   0 203.394 101.476  42
   2  12   0 170.101 59.9928  10
   2 -12   0 19.2239 90.1363  22
  -2  12   0 84.1620 51.6319  39
   2  12   0 152.518 60.8016  39
  -2  12   0 88.8358 86.7677  38
   2 -12   0 49.9061 83.9174  30
   2 -12   0 89.3484 80.1369  19
  -2  12   0-5.20354 56.4334  31
  -2 -12   0 79.7599 63.1699  30
  -2 -12   0 62.0335 50.4250  55
   2 -12   0 130.350 87.3175  17
  -2 -12   0 12.0971 68.2955  49
  -2 -12   0 62.0745 60.7809  26
  -2 -12   0 177.306 81.1081  48
   2  12   1 19978.7 950.620  25
  -2 -12  -1 16268.6 832.338  47
  -2  12  -1 15778.2 865.119  45
   2  12   1 16967.8 883.991  10
  -2  12  -1 15722.0 870.530  42
   2 -12   1 16916.9 879.417  22
  -2  12  -1 14960.5 841.148  39
   2  12   1 17152.0 856.824  39
  -2  12  -1 18050.9 874.675  38
  -2  12  -1 17297.9 846.724  31
  -2 -12  -1 16399.3 848.137  30
   2 -12   1 18195.6 891.266  17
  -2 -12  -1 15849.4 856.311  49
  -2  12  -2 491.368 105.773  42
   2  12   2 727.471 98.8035  10
  -2  12  -2 576.341 76.4100  39
   2  12   2 600.669 92.0144  39
  -2  12  -2 774.320 111.174  38
   2 -12   2 476.776 105.083  19
  -2  12  -2 678.137 77.0162  31
  -2 -12  -2 557.707 90.4106  30
   2 -12   2 687.336 110.385  17
  -2 -12  -2 661.930 102.255  48
  -2 -12  -2 609.980 96.7404  49
  -2 -12  -2 729.158 89.8149  26
   2  12   3 7458.77 646.808  25
  -2  12  -3 5721.83 338.070  42
   2 -12   3 4607.54 325.673  23
  -2  12  -3 5250.04 317.247  39
   2  12   3 6243.87 337.121  39
  -2  12  -3 6530.94 342.968  38
   2 -12   3 6004.52 352.902  19
  -2  12  -3 5916.95 313.901  31
  -2 -12  -3 5501.11 331.576  30
  -2 -12  -3 5791.47 321.420  26
  -2 -12  -3 5388.74 333.269  49
   2 -12   3 5372.28 306.884  26
  -2 -12  -3 6108.29 328.718  48
   2 -12   4 586.767 87.3059  48
  -2  12  -4 859.864 105.106  46
  -2  12  -4 660.239 83.9605  39
  -2  12  -4 997.283 108.667  38
  -2  12  -4 832.711 77.5757  31
  -2 -12  -4 782.128 109.876  30
  -2 -12  -4 874.027 83.4920  26
  -2 -12  -4 814.487 105.921  49
  -2 -12  -4 952.809 91.8422  48
  -2  12  -5 8867.86 428.161  46
  -2  12  -5 7460.49 410.610  39
  -2  12  -5 8941.87 428.565  38
  -2  12  -5 8897.66 410.692  37
  -2 -12  -5 7984.70 428.003  30
  -2 -12  -5 7273.91 387.317  26
  -2 -12  -5 8424.03 426.891  49
  -2 -12  -5 6679.23 388.760  48
   2 -12   5 6786.83 397.101  48
  -2  12  -6 176.141 64.4510  46
  -2 -12  -6 46.2014 34.1781  43
  -2  12  -6 49.6400 48.4083  39
  -2  12  -6 111.337 49.4736  37
  -2 -12  -6 35.2019 66.2380  49
  -2  12  -7 7885.91 368.875  37
  -2 -12  -7 7123.15 385.235  49
  -2 -13   8 1021.20 72.3001  47
   2  13  -8 823.287 58.4854  29
  -2  13   8 1047.51 80.7963  45
   2  13  -8 815.525 64.3584  44
  -2  13   8 739.955 75.8319  38
   2 -13  -8 819.087 77.3689  35
  -2 -13   8 1073.39 74.1445  55
   2  13  -8 830.719 70.6257  33
  -2  13   8 733.087 61.7998  31
  -2 -13   7 90.1062 44.0056  47
  -2  13   7 131.666 57.2510  45
   2  13  -7 22.6893 36.4785  44
   2  13  -7-18.3210 43.8770  33
  -2  13   7 55.9080 36.0474  31
   2 -13  -7 186.997 77.0497  30
  -2 -13   7 63.8993 46.0313  55
  -2 -13   7 50.0305 33.2285  27
   2 -13  -7 45.6371 37.7793  26
  -2 -13   6 1333.76 93.7165  47
  -2  13   6 1205.68 105.521  45
   2  13  -6 910.957 81.9691  44
  -2 -13   6 921.119 74.1690  27
   2  13  -6 1082.15 91.2432  33
  -2  13   6 857.107 81.3948  31
   2 -13  -6 1122.35 122.768  30
  -2 -13   6 1136.20 92.4254  55
  -2 -13   6 932.738 72.2982  26
   2 -13  -6 865.549 88.9575  26
  -2 -13   6 1172.90 81.0346  48
   2 -13  -5 48.2042 56.6404  48
  -2 -13   5 3.67366 51.0641  47
  -2  13   5 41.9979 68.8991  45
   2  13  -5 3.78043 46.2607  44
   2  13  -5-9.16766 52.1914  33
  -2  13   5 3.84440 44.6170  31
   2 -13  -5 43.3702 85.7283  30
  -2 -13   5 33.4315 33.6899  27
  -2 -13   5 49.1055 41.2600  26
   2 -13  -5 83.9583 64.3993  26
  -2 -13   5 57.1928 49.8037  48
   2 -13  -4 540.682 86.0140  48
   2  13  -4 523.666 81.2877  25
  -2  13   4 516.982 91.2319  45
   2 -13  -4 561.351 111.477  22
  -2  13   4 436.788 82.8488  38
   2  13  -4 473.737 71.8570  33
  -2  13   4 322.400 63.6102  31
   2 -13  -4 588.688 110.185  30
  -2 -13   4 464.614 73.1778  55
  -2 -13   4 508.068 52.3630  27
  -2 -13   4 645.400 69.6516  26
  -2 -13   4 512.646 72.7056  48
   2 -13  -3 99.3823 80.4287  48
  -2 -13   3 116.606 54.1731  47
   2  13  -3 109.111 63.6679  25
  -2  13   3 205.315 80.8386  45
  -2  13   3 150.369 69.8165  42
   2 -13  -3 109.535 89.3412  22
   2  13  -3 171.245 53.8070  39
  -2  13   3 209.241 78.9082  38
   2  13  -3 186.148 60.5023  33
  -2  13   3 83.8375 47.8399  31
   2 -13  -3 146.232 90.8465  30
  -2 -13   3 127.274 59.9967  55
  -2 -13   3 132.815 35.4833  27
  -2 -13   3 211.349 56.4439  26
   2 -13  -3 157.851 72.2661  26
  -2 -13   3 28.4500 59.8110  48
   2  13  -2 1495.03 132.705  25
  -2 -13   2 1316.93 108.323  47
  -2  13   2 1181.49 128.353  45
  -2  13   2 1313.24 124.463  42
   2 -13  -2 1398.79 146.513  22
   2  13  -2 1314.45 109.169  39
  -2  13   2 1435.41 131.017  38
   2  13  -2 1336.00 113.733  33
  -2  13   2 1298.52 107.091  31
   2 -13  -2 1274.27 132.597  30
  -2 -13   2 1334.16 106.568  55
  -2 -13   2 1318.43 105.269  26
  -2 -13   2 1360.91 115.363  48
   2 -13  -1 279.136 84.2121  48
  -2 -13   1 273.343 59.8660  47
   2  13  -1 342.316 72.0540  25
  -2  13   1 374.036 87.2892  45
  -2 -13   1 252.374 54.5193  55
  -2  13   1 390.878 86.9255  42
   2 -13  -1 241.153 87.2981  22
  -2  13   1 220.917 48.1895  39
   2  13  -1 229.547 61.9034  39
  -2  13   1 345.665 89.1932  38
   2  13  -1 315.091 66.5011  33
  -2  13   1 263.286 57.8228  31
  -2 -13   1 260.893 59.6001  30
   2 -13  -1 412.869 88.9295  30
  -2 -13   1 303.178 66.3303  49
  -2 -13   1 201.143 60.4763  26
  -2 -13   1 330.568 74.9439  48
   2 -13   0 368.589 92.6319  48
  -2 -13   0 469.499 59.9091  47
   2  13   0 434.941 86.8408  25
  -2  13   0 593.503 93.6275  45
   2 -13   0 391.565 79.4216  30
  -2  13   0 421.394 96.0042  42
   2 -13   0 581.278 96.9569  22
  -2  13   0 396.188 58.5375  39
   2  13   0 570.562 75.1714  39
  -2  13   0 496.822 91.9295  38
  -2  13   0 549.222 68.2576  31
  -2 -13   0 513.885 74.6638  30
  -2 -13   0 608.202 81.8641  49
  -2 -13   0 455.837 72.2045  26
   2 -13   0 480.387 84.5403  26
  -2 -13   0 542.659 87.2293  48
   2 -13   1 156.526 76.3972  48
   2  13   1 292.523 78.4189  25
  -2  13  -1 231.244 81.6804  42
  -2  13  -1 193.630 52.6114  39
   2  13   1 220.761 64.1389  39
  -2  13  -1 317.663 83.5416  38
  -2  13  -1 373.742 55.9588  31
  -2 -13  -1 201.598 66.8528  30
  -2 -13  -1 268.747 65.8701  49
   2 -13   1 255.851 68.1675  26
   2 -13   2 394.199 83.7823  48
   2  13   2 192.496 98.6140  25
  -2  13  -2 293.134 56.6357  39
   2  13   2 301.445 65.9824  39
  -2  13  -2 300.956 80.5044  38
  -2  13  -2 245.981 49.2291  31
  -2 -13  -2 324.511 70.7426  30
  -2 -13  -2 226.549 68.2016  49
  -2 -13  -2 320.452 64.2933  26
   2 -13   2 267.238 60.2530  26
  -2 -13  -2 225.026 74.2208  48
   2 -13   3-33.3647 62.6659  48
  -2  13  -3-11.2520 62.1626  46
  -2  13  -3 34.7115 45.7215  39
   2  13   3 49.3912 53.6959  39
  -2  13  -3 37.4891 65.8855  38
  -2  13  -3 91.0211 39.7835  31
  -2 -13  -3-27.1795 64.1716  30
  -2 -13  -3-19.4571 61.6344  49
  -2 -13  -3 71.9827 50.4587  26
   2 -13   3 16.1818 40.6858  26
  -2 -13  -3-11.7323 55.5200  48
   2 -13   4 189.306 58.3918  48
  -2  13  -4 291.626 67.3476  46
  -2  13  -4 245.222 53.8609  39
   2  13   4 346.195 64.4904  39
  -2  13  -4 341.979 72.1906  38
  -2  13  -4 340.734 60.2834  37
  -2 -13  -4 344.554 48.9269  26
  -2 -13  -4 400.860 78.4240  30
  -2 -13  -4 524.689 73.2148  49
  -2 -13  -4 348.337 52.8634  48
   2 -13   5 86.9517 41.7472  48
  -2  13  -5 106.740 52.5885  46
  -2 -13  -5 150.174 38.9124  43
  -2  13  -5 113.500 45.4110  39
   2  13   5 73.9108 49.7710  39
  -2  13  -5 67.2150 41.5627  37
  -2 -13  -5 44.4044 62.5965  30
  -2 -13  -5 120.151 58.8943  49
   2 -13   6 92.3238 39.5912  47
  -2  13  -6 171.663 47.8909  46
   2  13   6 60.3490 41.6981  39
  -2  13  -6 88.0902 33.3262  37
  -2 -13  -6 170.226 51.0467  49
  -2 -14   6 246.361 41.6652  47
   2  14  -6 206.226 33.7148  44
  -2 -14   6 166.296 25.4036  27
   2  14  -6 227.608 43.2984  33
  -2  14   6 213.659 33.6994  31
   2 -14  -6 153.415 61.3792  30
   2 -14  -6 213.542 38.8532  26
  -2 -14   5 9296.73 442.523  47
   2  14  -5 8175.76 435.914  44
  -2  14   5 9184.95 453.569  38
  -2 -14   5 8209.35 426.366  27
   2  14  -5 8387.70 446.108  33
  -2  14   5 7903.69 435.938  31
   2 -14  -5 9786.13 461.774  30
  -2 -14   5 9605.66 442.184  55
  -2 -14   5 7857.74 432.234  26
   2 -14  -5 8847.86 444.443  26
  -2 -14   5 9238.64 438.721  48
   2 -14  -4 177.602 55.4447  48
  -2  14   4 99.9924 58.5745  45
   2  14  -4 174.354 43.0689  44
  -2  14   4 195.598 63.6495  38
   2  14  -4 201.024 51.3717  33
  -2  14   4 153.369 41.4080  31
   2 -14  -4 212.085 73.9468  30
  -2 -14   4 128.697 44.7778  55
  -2 -14   4 120.754 39.7064  26
  -2 -14   4 147.968 51.4522  48
  -2 -14   3 10268.6 507.270  47
  -2  14   3 9770.01 518.342  45
  -2  14   3 9891.83 522.395  38
   2  14  -3 9647.58 513.906  33
  -2  14   3 8622.67 503.042  31
   2 -14  -3 11222.4 527.300  30
  -2 -14   3 9902.22 503.167  55
  -2 -14   3 9942.07 506.749  26
   2 -14  -3 10124.8 517.115  26
  -2 -14   3 10089.3 510.363  48
   2 -14  -3 10433.7 518.562  48
  -2 -14   2 694.689 65.9965  47
  -2  14   2 696.196 83.7607  45
   2  14  -2 650.000 67.7402  39
  -2  14   2 670.632 85.1603  38
   2  14  -2 636.449 73.6707  33
  -2  14   2 583.103 63.8335  31
   2 -14  -2 508.482 84.5251  30
  -2 -14   2 649.231 59.7091  55
  -2 -14   2 633.837 69.8194  26
   2 -14  -2 665.893 83.7712  26
  -2 -14   2 635.839 77.2658  48
  -2 -14   1 10263.0 538.917  47
   2  14  -1 10380.6 549.659  39
  -2  14   1 11286.9 565.983  38
   2  14  -1 10594.4 553.847  33
  -2  14   1 9841.48 543.319  31
   2 -14  -1 11355.4 553.930  30
  -2 -14   1 10614.9 547.544  26
   2 -14  -1 11652.8 558.269  26
  -2 -14   1 10935.9 555.183  48
   2 -14  -1 11213.0 562.955  48
   2 -14   0 371.044 77.3031  48
   2  14   0 179.823 50.9056  39
  -2  14   0 309.978 69.3105  38
   2  14   0 291.974 54.2704  33
  -2  14   0 179.063 43.5231  31
  -2 -14   0 280.403 55.7976  30
  -2 -14   0 275.877 56.0037  26
   2 -14   0 242.422 61.0190  26
  -2 -14   0 186.379 64.0852  48
   2  14   1 10430.2 552.590  39
  -2  14  -1 11029.2 564.558  38
   2  14   1 10721.3 556.255  33
  -2  14  -1 10072.2 543.316  31
  -2 -14  -1 10667.3 552.182  30
   2 -14   1 11215.2 551.168  26
   2 -14   1 11880.9 565.534  48
   2 -14   2 201.347 67.2224  48
  -2  14  -2 122.637 59.7890  46
  -2  14  -2 185.247 39.7562  39
   2  14   2 163.811 48.1741  39
  -2  14  -2 89.8557 58.2829  38
  -2  14  -2 237.011 38.7912  31
  -2 -14  -2 229.674 60.7141  30
  -2 -14  -2 228.273 54.4424  49
  -2 -14  -2 211.827 48.7611  26
   2 -14   2 241.926 44.3999  26
  -2 -14  -2 201.631 55.8100  48
  -2  14  -3 10955.4 520.198  46
  -2  14  -3 9374.50 498.268  39
   2  14   3 9668.71 509.597  39
  -2  14  -3 10301.3 516.536  38
  -2  14  -3 10583.9 505.179  37
  -2 -14  -3 11104.3 515.735  30
  -2 -14  -3 9052.94 506.187  49
  -2 -14  -3 9757.09 499.742  26
  -2 -14  -3 9312.93 501.670  48
   2 -14   3 10366.8 510.619  48
   2 -14   4 322.698 48.4612  48
  -2  14  -4 471.316 61.0817  46
   2  14   4 491.394 54.0360  39
  -2  14  -4 473.334 47.6129  37
  -2 -14  -4 451.002 64.7014  30
  -2 -14  -4 342.171 51.1197  49
  -2 -15   2 664.062 44.7434  47
   2  15  -2 669.821 48.7414  44
  -2  15   2 802.630 71.3263  38
   2  15  -2 711.711 60.4826  33
  -2  15   2 470.815 44.7083  31
   2 -15  -2 676.717 59.6235  30
  -2 -15   2 617.219 56.3500  26
   2 -15  -2 621.352 63.8971  26
  -2 -15   2 752.560 65.8635  48
   2 -15  -2 792.652 70.0737  48
  -2  15   1 36.4450 43.2229  46
   2  15  -1 47.1873 25.5318  44
   2  15  -1 44.0524 28.8116  39
  -2  15   1 26.6673 44.3321  38
   2  15  -1 70.3217 34.4349  33
  -2  15   1 39.6019 22.2512  31
  -2 -15   1 77.7600 35.0270  26
   2 -15  -1 64.3039 38.9748  26
  -2 -15   1 48.3617 42.7223  48
  -2  15   0 462.634 60.4364  46
   2  15   0 567.522 51.1458  39
  -2  15   0 554.035 63.7047  38
   2  15   0 526.539 53.3551  33
  -2 -15   0 553.547 54.0683  26
   2 -15   0 469.747 54.1400  26
  -2 -15   0 573.110 60.7740  48
   2 -15   0 568.628 66.8721  48
   3   0 -14 8523.57 417.197  29
  -3   0  14 7857.45 412.148  53
  -3   0  14 7457.19 409.079  50
   3   0 -13 38.2548 66.3156  44
   3   0 -13 38.3985 58.7964  40
   3   0 -13 27.9346 58.3987  29
  -3   0  13 43.4463 62.1360  53
   3   0 -13-17.2802 81.4379  51
  -3   0  13 121.934 64.7905  50
   3   0 -12 11988.9 600.128  44
  -3   0  12 11114.9 585.493  50
   3   0 -12 11787.6 578.994  40
  -3   0  12 10807.7 585.893  53
   3   0 -12 11697.4 623.743  21
   3   0 -12 10300.0 570.328  35
  -3   0  12 10034.1 556.827  34
   3   0 -12 11906.2 584.623  29
  -3   0  12 10286.9 568.714  27
   3   0 -12 11275.4 595.288  51
  -3   0  11-6.72336 42.4771  45
   3   0 -11 42.0929 77.5659  21
   3   0 -11 32.3009 105.446  35
  -3   0  11-8.45044 53.3874  34
   3   0 -11 50.7271 70.5257  29
   3   0 -11-10.9689 85.0928  18
  -3   0  11 14.2081 78.7460  53
  -3   0  11 27.7565 61.5351  27
   3   0 -11 7.81479 96.6508  51
  -3   0  11-6.88114 78.5756  50
  -3   0  10 6456.25 403.419  45
   3   0 -10 8294.64 457.094  51
   3   0 -10 8032.23 468.842  21
  -3   0  10 8003.32 416.385  34
   3   0 -10 7888.48 473.493  18
   3   0 -10 8197.45 435.728  29
  -3   0  10 7991.00 440.651  53
  -3   0  10 7823.87 429.775  27
  -3   0  10 8154.77 439.689  50
  -3   0   9 47.3438 59.3240  27
   3   0  -9 157.352 85.8182  21
  -3   0   9-9.19515 52.5618  34
   3   0  -9 50.7348 66.1567  29
   3   0  -9 75.1836 96.0336  51
  -3   0   9 100.395 74.4853  53
   3   0  -8 24463.2 1326.78  21
  -3   0   8 25277.1 1281.58  34
   3   0  -8 24922.4 1331.48  18
   3   0  -8 26543.5 1297.61  29
  -3   0   8 26720.1 1293.77  27
   3   0  -7-12.9005 65.1540  11
   3   0  -7 60.3296 57.6055   8
   3   0  -7 67.4005 78.7508  21
  -3   0   7 24.6892 49.5059  34
   3   0  -7 39.0792 80.8972  18
   3   0  -7 20.6467 55.6584  29
  -3   0   7 20.9110 53.4585  27
  -3   0   7 72.8580 64.0293  50
   3   0  -6 24331.5 1253.89  21
  -3   0   6 23827.1 1207.44  34
   3   0  -6 24408.3 1256.56  18
  -3   0   6 22452.8 1207.54  55
  -3   0   6 25977.1 1219.81  53
  -3   0   6 24927.3 1217.88  27
   3   0  -6 24352.5 1232.64  11
  -3   0   6 24873.2 1216.46  50
   3   0  -6 24195.3 1229.12   8
  -3   0   5 36.9083 48.0134  47
   3   0  -5-101.028 69.9365  11
   3   0  -5 33.6129 61.7669   8
   3   0  -5-17.2747 72.3734  21
  -3   0   5-22.2513 44.2066  34
   3   0  -5-26.7490 77.3333  18
  -3   0   5-18.7135 46.2882  55
  -3   0   5 8.97714 51.0897  53
  -3   0   5 17.1551 51.2732  50
  -3   0   5 31.9762 47.2490  27
  -3   0   4 29788.7 1689.17  47
   3   0  -4 34067.5 1720.45   8
  -3   0   4 37731.9 1698.80  50
   3   0  -4 31889.3 1729.16  21
  -3   0   4 37344.8 1693.35  34
   3   0  -4 33568.6 1733.55  18
  -3   0   4 33756.0 1691.81  55
  -3   0   4 35830.9 1697.10  53
   3   0  -3 188.105 82.9332  21
  -3   0   3 24.7171 43.0859  34
  -3   0   3 3.66102 46.2723  55
  -3   0   3 8.04310 45.4933  53
   3   0  -3 25.4510 73.5901  18
  -3   0   3 41.6480 44.4200  27
  -3   0   3-4.10568 50.2334  50
  -3   0   2 16110.8 798.365  43
   3   0  -2 16268.6 842.670  21
   3   0  -2 15866.4 843.642  18
  -3   0   2 15652.4 802.231  53
  -3   0   2 15680.3 800.519  27
  -3   0   2 14621.4 797.512  55
  -3   0   2 17407.9 808.387  50
   3   0  -1 38.6759 73.4328   4
  -3   0   1 17.5147 47.8306  43
  -3   0   1 113.153 88.0780  41
   3   0  -1 17.3278 71.2924  21
  -3   0   1 17.4283 53.8924  50
  -3   0   1-10.8594 44.5302  34
  -3   0   1 82.2314 222.322  32
   3   0  -1 133.758 78.1993  18
  -3   0   1 14.8718 55.1299  54
  -3   0   1 44.1864 43.9001  55
  -3   0   1-30.0649 42.6450  27
  -3   0   0 41573.6 1991.34  43
  -3   0   0 37284.7 1997.72  41
   3   0   0 39728.9 2051.39   3
   3   0   0 42646.6 2045.46  21
  -3   0   0 40348.3 1992.27  34
  -3   0   0 39126.4 2020.24  32
   3   0   0 41693.1 2042.91  18
  -3   0   0 43637.8 1994.46  54
  -3   0   0 38619.3 1998.14  50
   3   0   0 42355.9 2049.70   4
   3   0   1 60.0534 66.6333   4
  -3   0  -1-18.9125 51.0799  43
  -3   0  -1 32.1879 69.5499  41
   3   0   1-21.0414 69.3752   3
  -3   0  -1 54.1434 47.8533  34
  -3   0  -1 167.930 160.212  32
  -3   0  -1 140.195 58.3038  54
  -3   0  -1-40.9206 63.7948  50
  -3   0  -2 31991.5 1503.81  43
  -3   0  -2 30637.6 1519.50  41
   3   0   2 29680.5 1553.21   3
  -3   0  -2 29417.8 1519.38  32
  -3   0  -2 30209.6 1503.30  54
   3   0   2 28813.7 1547.40   4
   3   0   3 56.5524 62.1599   4
  -3   0  -3 41.4885 54.6504  37
   3   0   3-29.7706 64.1728   3
  -3   0  -3 54.8950 76.6793  32
  -3   0  -3 106.971 97.4707  12
   3   0   4 18557.8 992.176   4
  -3   0  -4 20458.4 956.489  43
   3   0   4 20350.4 1004.90   3
  -3   0  -4 16821.9 959.460  37
  -3   0  -4 18505.0 1005.55  12
  -3   0  -4 19333.8 971.832  32
  -3   0  -4 18939.2 958.958  54
  -3   0  -5 53.9999 60.5249  43
  -3   0  -5-61.8994 85.9860  41
  -3   0  -5 23.8600 68.1143  37
  -3   0  -5 11.4056 70.9153  32
  -3   0  -5-65.0798 97.1611  12
  -3   0  -5 23.9473 73.5319  54
  -3   0  -6 34764.9 1590.43  43
  -3   0  -6 31943.2 1619.98  41
  -3   0  -6 30204.1 1608.18  37
  -3   0  -6 32227.4 1647.43  12
  -3   0  -6 32665.2 1603.42  32
  -3   0  -6 30141.2 1598.18  54
  -3   0  -7-41.8522 54.2261  43
  -3   0  -7 40.2036 103.441  41
  -3   0  -7 66.7061 79.2825  37
  -3   0  -7 30.9538 69.4806  32
  -3   0  -7 19.2032 82.8143  12
  -3   0  -7 23.1706 84.5696  54
  -3   0  -8 5490.35 301.261  43
  -3   0  -8 6311.63 363.976  41
  -3   0  -8 5705.76 335.741  37
  -3   0  -8 5122.60 327.711  54
  -3   0  -9-52.4484 103.268  41
  -3   0  -9-120.412 139.583  32
  -3   0 -10 4088.68 262.295  41
  -3   0 -10 3695.03 351.870  32
  -3   0 -11 4.08401 61.2556  41
  -3   0 -11 288.942 193.766  32
   3   1 -14 213.348 54.1308  44
   3  -1 -14 183.413 54.9227  29
   3   1 -14 287.836 54.3844  29
  -3   1  14 157.752 49.6694  53
  -3  -1  14 190.383 47.0187  53
   3  -1 -14 229.447 70.8778  51
  -3   1  14 338.334 53.3032  50
  -3  -1  14 231.753 46.3972  50
  -3   1  13 1472.50 96.0497  45
   3   1 -13 1606.17 135.337  44
   3   1 -13 1446.87 107.160  40
   3  -1 -13 1498.64 121.835  40
  -3  -1  13 1807.06 123.337  50
  -3  -1  13 1587.30 124.344  53
  -3  -1  13 1479.86 98.6922  34
   3  -1 -13 1749.22 130.903  29
   3   1 -13 1690.62 122.959  29
  -3   1  13 1727.49 127.406  50
  -3   1  13 1501.08 125.261  53
  -3  -1  13 1261.28 101.321  27
   3  -1 -13 1837.41 146.174  51
  -3   1  12 222.682 51.1678  45
   3   1 -12 314.819 84.9192  44
   3  -1 -12 214.634 85.2801  40
   3   1 -12 294.864 78.1724  40
   3  -1 -12 333.312 93.1790  35
  -3  -1  12 178.183 50.6740  34
  -3  -1  12 353.329 83.4630  53
   3  -1 -12 238.912 82.1266  29
   3   1 -12 216.467 71.9800  29
  -3   1  12 280.787 85.1875  53
   3  -1 -12 272.786 101.653  51
   3   1 -12 331.187 97.1695  51
  -3  -1  12 103.052 56.0852  27
  -3   1  12 228.975 79.4747  50
  -3   1  11 2117.07 150.278  45
   3   1 -11 2643.81 188.075  44
   3  -1 -11 2025.63 173.266  40
   3  -1 -11 2185.96 200.297  21
   3   1 -11 2204.62 195.686  21
   3   1 -11 2182.10 181.526  35
   3  -1 -11 2250.17 202.080  35
  -3   1  11 2191.59 145.461  34
  -3  -1  11 2169.37 152.357  34
   3  -1 -11 2158.63 204.529  18
   3   1 -11 2295.82 197.637  18
   3   1 -11 2223.88 186.950  51
   3  -1 -11 2522.20 178.583  29
   3   1 -11 2398.20 171.887  29
  -3   1  11 2484.10 178.693  53
  -3  -1  11 1985.42 173.413  53
  -3   1  11 2058.53 160.245  27
   3  -1 -11 2218.85 190.173  51
  -3  -1  11 2195.16 162.548  27
  -3   1  11 2359.53 178.619  50
  -3   1  10-40.9079 59.1339  45
   3   1 -10 39.0137 79.4358  44
   3  -1 -10 26.1656 73.2445  29
  -3   1  10-6.74662 74.2727  53
  -3  -1  10 11.7618 68.0086  14
   3  -1 -10 66.1557 87.8782  21
   3   1 -10-72.1535 91.8501  21
   3  -1 -10 79.5418 121.955  35
  -3   1  10 20.8674 49.4551  34
  -3  -1  10 5.09108 60.6866  34
   3   1 -10 31.7840 87.7107  18
  -3  -1  10-60.6037 89.7681  53
   3  -1 -10-50.9021 103.188  51
   3   1 -10 23.9955 93.9311  51
   3   1 -10 38.5700 73.6388  29
  -3   1  10-17.7564 58.0284  27
  -3  -1  10 24.4955 62.8450  27
  -3   1  10-20.1748 76.2967  50
  -3   1   9 3236.61 221.350  45
   3   1  -9 4064.09 251.991  44
  -3  -1   9 2868.09 256.793  14
   3  -1  -9 3553.16 268.354  21
   3   1  -9 4174.69 271.778  21
  -3   1   9 3033.36 246.569  13
  -3   1   9 3664.27 218.223  34
  -3  -1   9 3922.18 230.656  34
   3  -1  -9 3600.62 279.081  18
   3   1  -9 3817.24 269.260  18
   3  -1  -9 3748.48 238.451  29
   3   1  -9 3733.38 240.173  29
  -3   1   9 3865.00 241.208  53
  -3   1   9 3524.71 229.448  27
   3  -1  -9 3916.09 265.492  51
  -3  -1   9 3505.06 232.270  27
   3   1  -9 4331.76 266.695  51
  -3   1   9 4174.56 243.390  50
  -3  -1   9 3574.12 241.997  50
   3  -1  -8 46.7290 92.4218  11
  -3   1   8 20.1020 54.9446  45
  -3  -1   8-40.6193 74.2731  14
   3  -1  -8 52.1510 81.4745  21
   3   1  -8 9.71002 80.8773  21
  -3   1   8 27.3616 64.0499  13
  -3   1   8 20.5829 53.6245  34
  -3  -1   8-23.8454 57.5157  34
  -3  -1   8-17.3565 61.2304  27
   3  -1  -8-11.1318 95.4711  18
   3  -1  -8 32.9489 59.1932  29
   3   1  -8-6.21324 62.7439  29
  -3   1   8-5.87522 64.0090  53
   3  -1  -8-25.5282 100.536  51
  -3   1   8 27.9770 59.8779  27
  -3   1   8 62.5570 63.2540  50
  -3  -1   8 30.7498 69.3210  50
  -3  -1   7 3296.04 209.180  47
  -3   1   7 3364.04 206.835  45
  -3  -1   7 3237.97 203.599  55
   3  -1  -7 3002.50 222.733  22
   3  -1  -7 3296.71 245.728  21
   3   1  -7 3295.70 241.441  21
  -3   1   7 3328.46 200.089  34
  -3  -1   7 3432.92 204.225  34
   3  -1  -7 3398.45 255.394  18
   3   1  -7 3562.25 245.248  18
   3  -1  -7 3299.73 206.096  29
   3   1  -7 3465.63 216.004  29
  -3   1   7 3618.40 216.221  53
  -3  -1   7 3872.69 221.341  53
   3  -1  -7 3226.08 232.197  11
  -3   1   7 2936.19 206.410  27
  -3  -1   7 3322.54 212.601  27
   3   1  -7 3237.69 215.277  11
   3  -1  -7 3164.11 225.279   8
  -3  -1   7 3842.19 219.395  50
   3   1  -7 3211.41 210.828   8
  -3  -1   6 116.360 54.9960  47
   3  -1  -6 95.5191 75.4006  11
   3   1  -6 113.148 64.9937  11
   3   1  -6 88.5830 74.5253  18
   3  -1  -6 210.826 72.4276   8
   3   1  -6 202.144 63.7402   8
   3  -1  -6 93.2957 77.9939  21
   3   1  -6 89.8157 73.2891  21
  -3   1   6 126.988 48.8258  34
  -3  -1   6 131.834 51.0483  34
   3  -1  -6 335.891 95.3912  18
  -3  -1   6 129.079 54.6100  55
   3   1  -6 91.3838 58.1714  29
  -3  -1   6 139.790 57.6791  53
  -3   1   6 120.151 53.7932  27
  -3  -1   6 198.968 56.5169  27
  -3  -1   6 163.923 58.9339  50
  -3  -1   5 1991.36 141.206  47
   3   1  -5 2292.24 165.389   8
   3  -1  -5 1990.01 174.188  21
   3   1  -5 2309.32 179.590  21
  -3   1   5 2056.88 138.759  34
  -3  -1   5 2234.36 138.906  34
   3  -1  -5 1922.72 177.405  18
   3   1  -5 2524.28 187.155  18
  -3   1   5 1820.70 136.496  55
  -3  -1   5 2352.91 147.367  50
  -3   1   5 1865.52 145.836  53
  -3  -1   5 2309.25 146.451  53
  -3  -1   5 2134.08 141.459  55
  -3   1   5 2014.33 144.122  27
   3  -1  -5 1866.95 164.014  11
  -3   1   5 2110.71 147.149  50
   3  -1  -5 1934.44 163.606   8
  -3  -1   4 709.914 79.5233  47
  -3  -1   4 900.062 85.8304  50
   3  -1  -4 858.833 114.188  21
   3   1  -4 904.441 117.404  21
  -3   1   4 718.255 76.2054  34
  -3  -1   4 1012.03 80.4723  34
  -3   1   4 785.040 81.5304  55
   3  -1  -4 747.936 115.626  18
  -3  -1   4 724.423 78.9280  55
  -3   1   4 1057.69 90.7710  53
   3   1  -4 864.672 114.910  18
  -3  -1   4 695.561 78.7524  27
  -3  -1   4 888.697 81.8271  53
  -3   1   4 856.869 87.9775  50
   3  -1  -3 4382.50 275.915   8
  -3  -1   3 4014.84 251.346  47
   3  -1  -3 4278.13 284.053  21
   3   1  -3 4462.51 291.205  21
  -3   1   3 4762.99 251.977  34
  -3   1   3 4589.03 258.665  53
   3  -1  -3 4381.27 289.631  18
   3   1  -3 4647.01 293.550  18
  -3   1   3 3932.46 249.257  55
  -3  -1   3 4140.26 251.026  55
  -3   1   3 4646.16 253.186  54
  -3  -1   3 4752.18 252.919  53
  -3   1   3 4222.51 254.456  27
  -3  -1   3 4356.37 250.637  27
  -3   1   3 4661.06 259.118  50
  -3  -1   3 5042.91 256.823  50
  -3  -1   2 112.119 50.6370  47
  -3   1   2 194.817 58.0976  43
  -3  -1   2 252.270 56.6554  43
   3  -1  -2 177.623 70.3160   8
  -3   1   2 186.140 51.7204  27
   3  -1  -2 270.583 82.1271  21
   3   1  -2 449.026 95.0783  21
  -3   1   2 152.711 48.8378  34
  -3  -1   2 185.177 49.4070  34
   3  -1  -2 186.199 83.0266  18
   3   1  -2 152.468 80.1285  18
  -3   1   2 221.045 54.8667  55
  -3  -1   2 224.356 56.1569  55
  -3   1   2 281.695 62.4934  54
  -3   1   2 223.010 61.3239  53
  -3   1   2 242.025 65.9444  50
  -3  -1   2 280.682 60.3447  50
  -3  -1   2 174.683 48.4013  27
  -3  -1   2 240.663 76.1186  49
  -3   1   1 4177.17 245.001  43
  -3   1   1 3996.62 248.388  53
  -3  -1   1 4592.83 245.760  43
  -3   1   1 3571.79 246.880  41
   3  -1  -1 4494.58 279.650  21
   3   1  -1 5205.33 297.627  21
  -3  -1   1 4990.80 245.771  34
  -3  -1   1 4046.87 243.170  55
  -3   1   1 3981.93 280.771  32
   3  -1  -1 4005.01 276.252  18
   3   1  -1 4467.08 297.051  18
  -3   1   1 4426.47 248.831  54
  -3  -1   1 4497.20 243.422  27
  -3   1   1 4327.56 253.379  50
   3   1  -1 4539.57 289.491   4
   3  -1   0 49.2388 71.4659   4
   3   1   0-48.5311 74.2484   4
  -3   1   0 26.2123 53.0433  43
  -3  -1   0 3.66879 51.9694  43
  -3  -1   0-5.03777 63.9905  41
  -3   1   0 9.26930 61.5546  41
   3  -1   0 69.9004 63.5158  21
  -3  -1   0-3.58646 45.0855  34
  -3   1   0-268.192 325.505  32
   3  -1   0 30.9659 75.9032  18
  -3  -1   0-41.7467 167.120  32
  -3   1   0 11.5006 57.7022  54
  -3  -1   0 69.9849 57.3228  54
  -3   1   0 22.3597 51.3980  53
  -3   1   0 44.7136 62.4496  50
  -3   1  -1 2276.42 153.297  43
  -3  -1  -1 2508.19 152.907  43
  -3  -1  -1 2428.33 167.803  41
  -3   1  -1 2178.97 161.917  41
   3  -1   1 2590.69 201.581   3
   3   1   1 2763.39 185.213   7
   3   1   1 2574.23 201.685   3
   3  -1   1 2613.93 186.096  21
  -3   1  -1 2168.22 149.512  34
  -3  -1  -1 2451.70 150.684  34
  -3  -1  -1 2580.62 172.796  32
  -3   1  -1 2105.29 361.350  32
   3  -1   1 2301.28 176.456  18
  -3   1  -1 2258.13 152.125  54
  -3  -1  -1 2333.93 155.152  54
  -3  -1  -1 1633.52 141.429  55
  -3   1  -1 2085.04 163.063  50
   3  -1   1 2454.20 191.247   4
   3   1   1 2254.37 195.152   4
   3  -1   2 279.882 77.0832   4
   3   1   2 223.850 81.4591   4
  -3   1  -2 196.345 64.2211  43
  -3  -1  -2 229.918 62.6972  43
  -3   1  -2 187.302 72.8549  41
  -3   1  -2 112.514 55.1441  37
   3   1   2 205.365 65.1236   7
   3  -1   2 209.187 78.3386   3
   3   1   2 161.939 77.6211   3
  -3   1  -2 34.9211 211.233  32
  -3  -1  -2 150.237 78.9941  32
  -3  -1  -2 241.798 107.221  12
   3  -1   2 164.175 69.6585  18
  -3   1  -2 189.850 67.1589  54
   3   1   3 2006.22 189.673   4
  -3  -1  -3 2822.63 187.276  41
  -3   1  -3 1927.82 166.174  41
   3  -1   3 2812.46 198.133   3
   3   1   3 2883.80 209.977   3
   3   1   3 2535.90 185.720   7
  -3  -1  -3 2217.20 154.458  37
  -3   1  -3 1826.63 156.526  37
  -3   1  -3 2412.39 225.315  12
  -3  -1  -3 2946.15 199.383  12
  -3   1  -3 2554.59 196.356  32
  -3  -1  -3 2497.85 182.055  32
  -3  -1  -3 2278.49 159.865  54
  -3   1  -3 2221.67 161.292  16
   3  -1   3 2636.57 187.177   4
  -3   1  -4 836.829 97.6618  43
  -3  -1  -4 1174.25 100.561  43
   3   1   4 965.998 125.353   4
  -3  -1  -4 996.711 123.535  41
   3  -1   4 1151.62 119.060   3
  -3  -1  -4 944.438 99.6503  37
  -3   1  -4 882.920 104.299  37
   3   1   4 1060.26 124.496   3
  -3  -1  -4 1177.52 125.040  32
  -3   1  -4 988.269 119.491  32
  -3   1  -4 920.350 145.874  12
  -3  -1  -4 1023.04 137.070  12
  -3  -1  -4 981.649 101.559  54
  -3   1  -4 756.107 94.6824  16
   3   1   5 2056.99 173.278   4
  -3   1  -5 2119.26 143.464  43
  -3  -1  -5 2094.16 140.196  43
  -3  -1  -5 2069.51 172.886  41
  -3  -1  -5 1900.51 151.439  37
  -3   1  -5 1874.17 155.470  37
  -3   1  -5 2352.84 192.434  12
  -3  -1  -5 2122.94 191.352  12
  -3   1  -5 1864.04 154.500  32
  -3  -1  -5 1859.60 157.739  32
   3  -1   5 1515.53 166.058   5
  -3   1  -5 1778.63 150.999  54
  -3  -1  -5 1702.41 142.018  54
  -3   1  -6 1919.47 137.465  43
  -3  -1  -6 1935.94 136.026  43
  -3  -1  -6 1827.64 169.245  41
  -3   1  -6 1593.99 166.574  41
  -3  -1  -6 1699.67 151.537  37
  -3   1  -6 1879.89 158.723  37
  -3  -1  -6 1922.42 189.338  12
  -3   1  -6 1778.00 152.650  32
  -3  -1  -6 1963.82 154.141  32
  -3   1  -6 2131.01 163.857  54
  -3  -1  -6 1717.78 144.579  54
  -3   1  -7 131.253 61.7337  43
  -3  -1  -7 102.858 57.3679  43
  -3  -1  -7 174.402 99.5872  41
  -3   1  -7 261.751 103.287  41
  -3  -1  -7 142.253 77.3529  37
  -3   1  -7 95.2982 79.4777  37
  -3  -1  -7 153.999 74.0765  32
  -3  -1  -7 72.7449 87.8369  12
  -3  -1  -7 196.303 81.3799  54
  -3   1  -7 97.9301 100.445  54
  -3   1  -8 96.0957 56.9686  43
  -3  -1  -8 103.358 50.0137  43
  -3  -1  -8-55.1730 104.702  41
  -3   1  -8 91.7972 104.641  41
  -3  -1  -8-6.29025 73.0134  37
  -3   1  -8-36.8702 195.025  32
  -3  -1  -8 76.2377 63.3286  32
  -3   1  -8 7.10067 62.6553  12
  -3  -1  -8-26.6281 76.1660  12
  -3   1  -8 150.429 101.507  54
  -3  -1  -9 307.289 104.858  41
  -3   1  -9 215.929 108.329  41
  -3  -1  -9 254.572 79.0700  37
  -3   1  -9 163.099 328.283  32
  -3  -1 -10 17.1098 80.5101  41
  -3   1 -10 104.149 87.0162  41
  -3   1 -10 356.135 313.431  32
  -3  -1 -10 87.3751 143.055  32
  -3  -1 -11 238.449 69.0496  41
  -3   1 -11 140.990 67.1359  41
  -3   1 -11 189.033 53.7078  37
  -3  -1 -11 63.6175 235.927  32
   3   2 -14 6343.64 352.181  44
   3  -2 -14 6299.66 335.764  40
   3  -2 -14 7051.15 355.200  29
   3   2 -14 6797.64 345.347  29
  -3   2  14 6750.97 348.191  53
  -3  -2  14 6202.15 342.866  53
   3  -2 -14 6734.39 361.558  51
   3   2 -14 6629.11 350.362  51
  -3   2  14 6579.12 346.965  50
  -3   2  13 587.970 81.4720  53
  -3   2  13 564.247 59.4466  45
   3  -2 -13 606.103 101.117  51
   3   2 -13 596.817 87.6396  44
   3  -2 -13 601.180 84.5258  40
   3  -2 -13 615.747 70.5456  35
  -3  -2  13 403.440 52.7751  34
   3   2 -13 590.152 73.3500  29
   3  -2 -13 629.356 89.4201  29
  -3  -2  13 570.407 75.7929  53
  -3  -2  13 545.533 58.5821  27
   3   2 -13 374.483 86.0657  51
  -3   2  13 581.948 78.9375  50
  -3   2  12 9477.57 480.455  45
   3   2 -12 8826.55 501.013  44
   3  -2 -12 9939.75 501.123  29
   3  -2 -12 8686.09 493.811  40
   3   2 -12 8819.08 476.432  40
   3  -2 -12 8844.72 499.024  35
  -3  -2  12 8856.80 473.530  34
   3   2 -12 9311.54 487.130  29
  -3   2  12 8785.67 493.761  53
  -3  -2  12 9207.32 494.854  53
   3  -2 -12 8656.22 506.424  51
  -3  -2  12 8423.99 477.627  27
  -3   2  12 8712.76 491.864  50
  -3  -2  11 1157.62 119.445  50
  -3   2  11 1344.58 117.437  45
   3   2 -11 1333.92 135.559  44
  -3  -2  11 983.037 127.228  14
   3  -2 -11 1213.04 159.515  21
   3  -2 -11 1543.41 175.853  35
  -3  -2  11 1174.48 133.115  53
  -3  -2  11 1299.95 110.661  34
   3   2 -11 1504.49 150.989  18
   3  -2 -11 1386.52 131.013  29
   3   2 -11 1331.33 119.912  29
  -3   2  11 1362.83 129.268  53
  -3   2  11 1385.63 130.894  50
   3  -2 -11 1434.95 156.953  51
  -3  -2  11 1110.23 112.269  27
  -3   2  10 15474.2 847.183  45
   3   2 -10 18669.3 872.986  44
  -3  -2  10 14804.3 885.112  23
  -3  -2  10 13563.9 880.822  14
  -3   2  10 17239.9 857.251  50
   3  -2 -10 18505.2 915.516  21
   3   2 -10 17387.7 889.455  21
  -3   2  10 13388.0 876.054  13
   3  -2 -10 16242.3 898.979  35
  -3   2  10 15261.2 830.846  34
  -3  -2  10 16019.7 846.109  34
   3  -2 -10 17886.9 922.011  18
   3   2 -10 17908.9 894.863  18
   3  -2 -10 18587.9 861.878  29
   3   2 -10 18612.6 859.618  29
  -3   2  10 18187.9 862.249  53
  -3   2  10 16402.5 851.069  27
   3  -2 -10 17011.8 880.143  51
   3   2 -10 17939.6 874.612  51
  -3  -2  10 16156.8 853.200  27
  -3  -2  10 14786.8 850.260  50
  -3  -2   9 654.941 85.4645  47
  -3   2   9 719.275 92.2575  45
   3   2  -9 683.558 104.415  44
  -3  -2   9 540.221 109.212  23
   3  -2  -9 779.123 94.8482  29
  -3  -2   9 638.775 111.569  14
   3  -2  -9 699.207 127.433  21
   3   2  -9 904.298 120.829  21
  -3   2   9 685.217 108.122  13
  -3   2   9 708.878 78.0973  34
  -3  -2   9 782.366 93.2096  34
   3  -2  -9 776.570 141.025  18
   3   2  -9 735.819 118.263  18
   3   2  -9 785.825 102.917  29
  -3   2   9 516.377 92.0514  53
   3  -2  -9 778.002 130.264  51
   3   2  -9 754.574 125.445  51
  -3   2   9 738.990 89.3986  27
  -3  -2   9 702.093 97.0208  27
  -3   2   9 868.253 101.839  50
  -3  -2   9 729.994 101.059  50
  -3  -2   8 19290.5 994.433  47
  -3   2   8 20064.5 994.375  45
   3   2  -8 19738.6 1008.42  44
  -3  -2   8 19181.6 1032.31  23
  -3  -2   8 18163.7 1029.12  14
   3  -2  -8 20307.2 1030.07  51
   3  -2  -8 19571.9 1042.46  21
  -3   2   8 18084.3 1025.71  13
   3   2  -8 19906.0 1031.39  21
  -3  -2   8 18964.0 987.717  55
  -3   2   8 18369.6 978.847  34
  -3  -2   8 21113.1 996.081  34
   3  -2  -8 19549.2 1051.61  18
   3   2  -8 20088.6 1030.61  18
  -3  -2   8 21667.7 1011.84  53
   3  -2  -8 18475.5 989.824  29
   3   2  -8 20318.6 1003.24  29
  -3   2   8 19636.1 998.446  53
   3  -2  -8 18549.3 1052.90  11
   3  -2  -8 18393.4 1042.25   8
  -3   2   8 18863.3 994.225  27
  -3  -2   8 20419.2 1002.22  27
  -3   2   8 20305.4 997.474  50
  -3  -2   8 20342.9 1000.91  50
  -3  -2   7 1263.53 109.886  47
   3  -2  -7 1345.86 155.139  11
  -3   2   7 1318.53 111.132  45
  -3  -2   7 1323.28 136.119  23
   3  -2  -7 1124.33 140.009   8
   3  -2  -7 1262.82 145.910  22
   3   2  -7 1141.14 137.021  21
   3  -2  -7 1340.47 151.208  21
  -3   2   7 1299.16 100.587  34
  -3  -2   7 1201.69 109.152  34
   3  -2  -7 1125.14 150.796  18
  -3  -2   7 1251.89 108.741  55
   3  -2  -7 1105.16 99.8987  29
   3   2  -7 1233.85 120.275  29
  -3  -2   7 1197.91 116.068  53
  -3   2   7 1280.31 117.164  53
  -3   2   7 1213.88 111.173  27
   3  -2  -7 1375.50 154.758  51
  -3  -2   7 1287.40 115.032  27
   3   2  -7 1215.39 110.050  11
  -3  -2   7 1266.81 114.064  50
  -3   2   7 1135.79 111.837  50
   3   2  -7 1149.89 105.126   8
   3   2  -6 23708.1 1152.52   8
  -3  -2   6 21744.4 1148.19  47
  -3   2   6 22626.1 1141.63  45
  -3  -2   6 23572.8 1141.82  55
   3  -2  -6 19996.5 1167.08  22
   3  -2  -6 21963.5 1180.39  21
   3   2  -6 21680.5 1173.05  21
  -3   2   6 21767.0 1133.75  34
  -3  -2   6 24291.6 1141.33  34
   3  -2  -6 20585.4 1186.71  18
   3   2  -6 22516.9 1176.32  18
  -3  -2   6 24856.5 1147.71  50
  -3   2   6 23495.3 1149.03  53
  -3  -2   6 26473.8 1151.84  53
  -3   2   6 21973.5 1145.67  27
   3  -2  -6 22443.0 1178.61  11
  -3  -2   6 22242.3 1144.37  27
   3  -2  -6 21892.0 1170.46   8
  -3   2   6 22273.7 1144.38  50
  -3  -2   5 1673.54 123.132  47
  -3   2   5 1659.32 125.327  45
   3  -2  -5 1668.10 155.787  21
   3   2  -5 1423.64 147.105  21
  -3   2   5 1558.39 117.573  34
  -3  -2   5 1622.06 117.866  34
   3  -2  -5 1692.53 164.501  18
   3   2  -5 1777.58 151.088  18
  -3  -2   5 1521.44 121.088  55
  -3  -2   5 1780.97 123.964  53
  -3   2   5 1309.35 121.676  27
   3  -2  -5 1535.63 151.922  11
  -3  -2   5 1863.93 124.803  50
   3  -2  -5 1629.89 148.693   8
  -3  -2   4 25452.7 1283.58  47
  -3   2   4 24931.6 1287.35  45
   3  -2  -4 22541.6 1309.22  21
   3   2  -4 25242.0 1318.85  21
  -3   2   4 25266.4 1280.88  34
   3  -2  -4 22596.6 1318.21  18
   3   2  -4 26011.1 1321.05  18
  -3   2   4 26181.7 1290.57  53
  -3  -2   4 27138.2 1282.67  55
  -3  -2   4 27962.0 1283.22  53
  -3   2   4 21723.4 1282.65  27
  -3  -2   4 28292.0 1285.51  27
  -3  -2   4 29147.6 1286.22  50
  -3  -2   3 3517.42 218.408  47
  -3   2   3 3707.72 229.554  45
  -3  -2   3 4249.50 223.073  50
  -3  -2   3 4130.56 221.107  43
   3  -2  -3 3122.37 240.068  21
   3   2  -3 4039.36 261.953  21
  -3   2   3 3420.19 215.040  34
  -3  -2   3 4268.42 216.415  34
   3  -2  -3 3724.17 255.574  18
   3   2  -3 3961.70 259.468  18
  -3   2   3 3794.09 227.524  53
  -3  -2   3 3840.23 217.452  55
  -3  -2   3 3655.88 215.402  27
  -3   2   3 3692.28 226.709  50
   3  -2  -3 3154.89 239.378  11
   3  -2  -3 3261.13 236.607   8
  -3   2   2 41417.3 2117.41  45
  -3   2   2 41637.6 2103.42  43
  -3   2   2 40439.3 2109.42  53
  -3  -2   2 45327.0 2104.01  43
   3  -2  -2 36584.2 2121.40  21
   3   2  -2 47285.6 2153.74  21
   3   2  -2 43195.8 2142.92   4
  -3   2   2 40709.7 2101.83  34
  -3  -2   2 50773.8 2103.86  34
   3  -2  -2 37963.7 2128.81  18
   3   2  -2 46761.9 2155.60  18
  -3  -2   2 43854.5 2103.50  55
  -3   2   2 46590.6 2105.21  54
  -3  -2   2 45505.8 2103.62  27
  -3   2   2 41346.2 2110.63  50
  -3  -2   2 41711.5 2130.49  49
  -3  -2   2 40271.2 2103.14  48
   3  -2  -2 38306.1 2119.01   8
   3  -2  -1 1264.74 123.590   8
  -3  -2   1 1530.12 108.800  47
  -3   2   1 1324.41 129.483  45
  -3   2   1 1419.71 115.160  43
  -3  -2   1 1535.30 112.257  43
   3   2  -1 1347.91 136.494   3
   3  -2  -1 1400.90 126.677  21
   3   2  -1 1722.95 154.212  21
  -3   2   1 1384.05 109.748  34
  -3  -2   1 1616.30 106.567  34
   3  -2  -1 1452.19 133.369  18
  -3   2   1 1627.37 115.867  54
  -3   2   1 1309.10 118.637  53
  -3  -2   1 1542.98 104.260  27
  -3   2   1 1498.37 122.859  50
  -3  -2   1 1329.16 137.051  49
   3   2  -1 1534.82 140.736   4
  -3  -2   1 1417.33 110.508  48
   3  -2   0 25118.8 1308.36   8
  -3  -2   0 26518.4 1292.76  47
  -3  -2   0 27303.1 1293.89  55
  -3   2   0 23544.4 1310.88  45
  -3   2   0 27281.4 1296.97  43
  -3  -2   0 27498.5 1294.39  43
  -3   2   0 22867.3 1293.48  41
  -3   2   0 23206.1 1293.28  34
  -3  -2   0 28829.6 1292.35  34
  -3   2   0 24891.6 1323.67  32
  -3  -2   0 28233.1 1300.44  32
   3  -2   0 24221.3 1313.70  18
  -3   2   0 28225.8 1297.41  54
  -3   2   0 23623.1 1299.11  53
  -3   2   0 26297.5 1307.71  50
  -3  -2   0 26705.0 1322.50  49
   3   2   0 28453.6 1347.30   4
   3  -2   1 1501.22 129.344   8
   3   2   1 1978.07 170.983   4
  -3   2  -1 1320.88 142.641  45
  -3   2  -1 1638.19 127.786  43
  -3  -2  -1 1766.68 125.751  43
  -3   2  -1 1681.30 134.366  41
   3   2   1 1933.12 152.477   7
  -3   2  -1 1745.97 125.590  37
  -3  -2  -1 1744.12 119.138  34
  -3  -2  -1 1783.49 140.301  32
  -3   2  -1 1971.05 394.463  32
   3  -2   1 1808.91 137.874  18
  -3  -2  -1 1744.82 121.612  55
  -3   2  -1 1626.45 129.575  54
  -3   2  -1 1458.37 137.694  50
  -3  -2  -1 1568.43 147.669  49
   3  -2   2 20206.0 1050.87   8
   3   2   2 17311.1 1087.36   4
  -3   2  -2 21613.3 1043.20  43
  -3  -2  -2 21892.4 1040.70  43
  -3  -2  -2 25342.3 1072.34  41
  -3   2  -2 18571.4 1047.76  41
   3   2   2 20440.6 1068.88   7
   3   2   2 19530.2 1098.98   3
  -3   2  -2 20501.9 1044.61  37
  -3  -2  -2 23743.6 1070.05  12
  -3   2  -2 20844.0 1121.06  32
  -3  -2  -2 20941.5 1061.78  32
  -3   2  -2 19392.1 1039.62  54
   3  -2   2 22436.8 1078.77   4
  -3   2  -2 19642.5 1047.05  16
  -3  -2  -2 20418.8 1071.31  49
   3   2   3 728.015 129.254   4
  -3  -2  -3 1177.13 122.653  41
  -3   2  -3 965.946 109.867  41
  -3   2  -3 889.943 102.829  37
   3   2   3 872.504 102.549   7
   3   2   3 883.378 126.902   3
  -3   2  -3 583.333 331.851  32
  -3  -2  -3 1067.20 125.938  32
  -3  -2  -3 941.939 113.029  12
  -3  -2  -3 1252.85 102.396  54
  -3   2  -3 790.840 98.8324  54
  -3   2  -3 849.453 97.2990  16
  -3  -2  -3 890.974 128.467  49
   3  -2   3 776.228 89.0148   8
   3   2   4 16980.9 969.397   4
  -3   2  -4 18835.6 904.063  43
  -3  -2  -4 20845.1 905.274  43
  -3  -2  -4 21490.5 939.561  41
  -3   2  -4 15139.5 911.584  41
   3   2   4 16887.9 937.129   7
  -3  -2  -4 16149.4 900.858  37
  -3   2  -4 16740.2 912.364  37
  -3  -2  -4 18814.2 941.498  12
  -3   2  -4 17959.4 949.267  32
  -3  -2  -4 19591.2 933.862  32
   3  -2   4 15671.8 927.108   5
  -3  -2  -4 19847.2 907.756  54
  -3   2  -4 17379.8 928.487  16
  -3  -2  -4 15108.9 928.314  49
  -3  -2  -5 931.522 87.9695  43
  -3   2  -5 761.275 90.7164  43
   3   2   5 769.008 117.517   4
  -3  -2  -5 652.415 114.200  41
  -3  -2  -5 733.482 90.1952  37
  -3   2  -5 626.280 99.5978  37
   3   2   5 599.563 101.240   7
  -3  -2  -5 682.122 106.746  32
  -3  -2  -5 586.608 114.205  12
  -3   2  -5 678.147 110.893  54
  -3  -2  -5 642.134 87.7179  54
   3  -2   5 752.788 124.183   5
  -3  -2  -5 564.246 112.242  49
  -3   2  -5 691.333 102.289  16
  -3   2  -6 8133.44 417.833  43
  -3  -2  -6 8374.27 414.891  43
  -3   2  -6 7712.91 438.972  54
  -3  -2  -6 7335.85 417.485  54
  -3  -2  -6 8279.94 454.985  41
  -3  -2  -6 7794.40 429.928  37
  -3   2  -6 7551.96 437.655  37
  -3   2  -6 7623.14 450.853  12
  -3  -2  -6 6543.06 455.208  12
  -3  -2  -6 7922.60 435.732  32
  -3   2  -6 8242.68 464.426  16
  -3  -2  -6 6946.38 438.602  49
  -3   2  -7 79.9168 66.1194  43
  -3  -2  -7 116.250 54.9319  43
  -3  -2  -7-15.6249 97.9804  41
  -3   2  -7 16.8361 98.0040  41
  -3  -2  -7-42.8274 76.1423  37
  -3   2  -7 34.5331 77.1376  37
  -3   2  -7 68.6618 340.988  32
  -3  -2  -7 88.8710 71.8812  32
  -3   2  -7 44.4807 70.1765  12
  -3  -2  -7 82.3206 84.7244  12
  -3   2  -7 35.9677 105.681  54
  -3  -2  -7 163.637 73.2327  54
  -3  -2  -8 9909.12 503.918  43
  -3  -2  -8 11025.3 560.129  41
  -3   2  -8 9039.49 556.970  41
  -3  -2  -8 9723.96 533.947  37
  -3   2  -8 9723.88 536.611  12
  -3  -2  -8 9432.09 559.442  12
  -3   2  -8 10589.4 657.095  32
  -3  -2  -8 9994.38 524.428  32
  -3   2  -8 9783.41 548.618  54
  -3  -2  -9 949.828 123.060  41
  -3   2  -9 774.187 130.685  41
  -3  -2  -9 711.058 97.0105  37
  -3  -2  -9 876.444 89.8753  32
  -3   2  -9 760.291 370.296  32
  -3  -2 -10 5135.50 326.355  41
  -3   2 -10 6223.00 344.456  41
  -3   2 -10 6016.72 326.790  37
  -3   2 -10 5394.01 343.795  32
  -3  -2 -11 321.619 107.481  41
  -3   2 -11 346.292 72.4643  41
  -3   2 -11 339.131 59.9239  37
  -3  -2 -11 309.274 194.586  32
  -3   3  14 32.5137 25.8597  45
   3   3 -14 62.4134 44.7796  44
   3  -3 -14 27.4560 42.7762  40
  -3  -3  14 53.5547 22.6096  34
   3  -3 -14 13.7024 46.9041  29
   3   3 -14 12.7624 35.6621  29
  -3   3  14 51.9644 41.2737  53
  -3  -3  14 26.0855 34.5276  53
   3  -3 -14 48.0535 64.0648  51
   3   3 -14 14.3245 40.8701  51
  -3   3  14-25.6435 44.7739  50
  -3  -3  14 70.5504 32.0952  50
  -3   3  13 2141.53 132.274  45
   3   3 -13 1791.67 144.941  44
   3  -3 -13 2115.49 147.600  40
   3  -3 -13 1777.62 132.846  35
  -3  -3  13 2002.12 121.132  34
   3  -3 -13 1991.42 150.730  29
   3   3 -13 2060.70 134.350  29
  -3   3  13 2100.31 144.685  53
  -3  -3  13 2160.36 137.630  53
   3  -3 -13 2127.63 162.290  51
  -3  -3  13 1779.98 123.042  27
   3   3 -13 2192.37 148.135  51
  -3   3  13 2021.34 142.507  50
  -3  -3  13 2017.09 127.903  50
  -3   3  12 279.982 69.3083  45
   3   3 -12 189.649 73.2958  44
   3   3 -12 199.920 55.7477  40
   3  -3 -12 250.976 96.0228  35
  -3  -3  12 269.810 53.7220  34
   3  -3 -12 220.803 78.6713  29
   3   3 -12 155.804 60.2349  29
  -3   3  12 174.424 71.1243  53
  -3   3  12 325.966 74.1258  28
   3  -3 -12 245.492 100.909  51
   3   3 -12 227.913 79.9795  51
  -3  -3  12 261.624 57.0820  27
  -3   3  12 129.718 72.9226  50
  -3  -3  12 215.595 58.0187  50
  -3   3  11 2013.09 164.761  45
   3   3 -11 2116.94 174.594  44
  -3  -3  11 1584.56 176.213  23
  -3   3  11 2472.52 174.236  50
   3   3 -11 2383.02 191.396  21
   3  -3 -11 2270.26 215.601  35
  -3  -3  11 2505.06 163.192  34
   3  -3 -11 2548.44 228.130  18
   3  -3 -11 2297.49 177.549  29
   3   3 -11 2435.60 163.156  29
  -3   3  11 2323.63 173.498  53
  -3   3  11 2961.55 187.571  28
   3  -3 -11 2507.18 203.783  51
   3   3 -11 2321.68 183.087  51
  -3  -3  11 2319.78 161.455  27
  -3  -3  11 2121.30 159.493  50
  -3   3  10 362.407 79.0208  45
   3   3 -10 164.557 82.3639  44
  -3  -3  10 166.139 84.1532  23
  -3  -3  10 55.9482 65.7610  14
   3  -3 -10 292.067 109.810  40
  -3  -3  10 355.129 80.2247  27
   3  -3 -10 241.717 105.343  21
  -3   3  10 271.829 87.8757  13
   3  -3 -10 388.489 156.317  35
  -3  -3  10 189.022 72.9363  34
   3  -3 -10 247.762 116.489  18
   3   3 -10 240.954 82.3735  18
   3  -3 -10 266.704 81.4656  29
   3   3 -10 220.846 69.8600  29
  -3  -3  10 229.402 82.9661  53
  -3   3  10 295.243 78.8190  53
   3  -3 -10 225.890 112.236  51
  -3   3  10 119.590 70.7843  50
  -3  -3  10 128.715 68.2945  50
  -3  -3   9 2835.63 191.077  47
  -3   3   9 3396.86 204.215  45
   3   3  -9 3618.05 217.258  44
   3  -3  -9 2759.13 193.656  29
  -3  -3   9 3091.83 237.829  23
  -3  -3   9 2224.32 209.498  14
   3  -3  -9 3256.61 249.966  21
  -3   3   9 2949.43 230.288  13
  -3   3   9 2678.07 176.200  34
  -3  -3   9 2911.79 199.882  34
   3  -3  -9 3026.99 260.199  18
   3   3  -9 2978.92 223.188  18
   3   3  -9 3315.75 206.693  29
  -3   3   9 3072.69 204.299  53
  -3  -3   9 2657.52 207.977  53
   3  -3  -9 3101.63 236.647  51
  -3  -3   9 2721.18 201.825  27
  -3   3   9 3027.27 201.180  50
  -3  -3   9 2513.82 191.935  50
   3  -3  -8 275.349 170.374  11
  -3  -3   8 219.593 71.1698  47
  -3   3   8 130.910 66.0426  45
   3   3  -8 232.071 78.9682  44
   3  -3  -8 91.4400 151.626   8
  -3  -3   8 160.918 80.2006  23
  -3  -3   8 152.957 72.1195  14
   3  -3  -8 191.156 137.398  22
   3  -3  -8 304.960 101.586  21
   3   3  -8 142.714 81.6441  21
  -3   3   8 195.587 80.3770  13
  -3   3   8 315.417 82.2491  20
  -3   3   8 153.400 52.4137  34
  -3  -3   8 242.516 76.4484  34
   3  -3  -8 333.253 119.755  18
   3   3  -8 190.461 83.8294  18
  -3  -3   8 175.068 70.8754  55
   3  -3  -8 226.799 61.8067  29
  -3   3   8 219.657 72.5809  53
  -3  -3   8 98.3398 76.7999  53
   3   3  -8 166.406 75.4877  29
   3  -3  -8 80.9866 111.056  51
  -3   3   8 139.820 62.0334  27
  -3  -3   8 184.557 74.3661  27
  -3   3   8 195.512 71.5335  50
  -3  -3   8 253.901 72.5263  50
  -3  -3   7 3584.62 219.744  47
  -3   3   7 3119.55 208.366  45
   3   3  -7 3448.70 221.998  44
  -3  -3   7 3462.50 244.546  23
   3  -3  -7 3052.91 280.012  22
   3  -3  -7 3167.90 247.044  21
   3   3  -7 3559.01 242.921  21
  -3   3   7 3201.48 227.414  20
  -3   3   7 3117.87 196.767  34
  -3  -3   7 3526.54 214.083  34
   3  -3  -7 3297.89 267.152  18
   3   3  -7 3289.77 236.903  18
  -3  -3   7 3370.93 214.196  55
  -3   3   7 3466.51 218.961  53
   3  -3  -7 3129.84 279.534  11
   3  -3  -7 3293.28 274.936   8
  -3   3   7 2907.09 207.882  27
   3  -3  -7 3152.62 245.147  51
  -3  -3   7 3496.51 220.113  27
  -3   3   7 3147.80 210.470  50
  -3  -3   7 3437.17 212.673  50
  -3  -3   7 3621.84 220.926  53
  -3  -3   6 898.554 99.1420  47
   3   3  -6 1013.41 98.6480   8
   3  -3  -6 1009.64 157.009  11
  -3   3   6 937.389 98.3084  45
   3   3  -6 1051.51 104.842  44
   3  -3  -6 852.197 134.961   8
   3  -3  -6 588.598 132.664  22
   3  -3  -6 860.449 120.066  21
   3   3  -6 952.126 122.356  21
  -3   3   6 905.256 110.666  20
  -3  -3   6 940.293 97.0690  53
  -3   3   6 771.932 82.9919  34
  -3  -3   6 1103.83 99.4370  34
   3  -3  -6 991.477 145.320  18
  -3  -3   6 806.029 96.5067  55
  -3   3   6 1013.60 105.387  53
  -3  -3   6 897.296 97.4469  27
   3  -3  -6 997.166 137.022  51
  -3   3   6 639.412 87.9168  27
  -3   3   6 852.034 98.1472  50
  -3  -3   6 1130.24 97.4989  50
  -3  -3   5 2423.11 156.758  47
  -3   3   5 2161.71 152.822  45
   3  -3  -5 1650.73 179.199  22
   3  -3  -5 1875.36 173.317  21
   3   3  -5 2144.55 180.362  21
  -3   3   5 2023.00 144.861  34
   3  -3  -5 2348.72 197.366  18
  -3  -3   5 2200.81 151.847  55
  -3   3   5 2316.44 163.254  53
  -3  -3   5 2457.07 152.149  53
  -3   3   5 1855.26 149.178  27
   3  -3  -5 2137.07 194.927  11
   3  -3  -5 2162.79 190.069   8
  -3   3   5 2112.40 157.028  50
  -3  -3   5 2731.94 156.094  50
  -3  -3   5 2432.68 161.595  48
  -3  -3   4 1058.09 98.6301  47
  -3   3   4 1097.97 103.920  45
   3  -3  -4 1064.85 117.382  21
   3   3  -4 1256.05 148.433  21
  -3   3   4 1079.86 95.9087  34
  -3  -3   4 1255.76 95.8962  34
   3   3  -4 1278.63 128.407  18
   3  -3  -4 1022.58 130.300  18
  -3  -3   4 1116.63 100.370  55
  -3  -3   4 1235.18 95.4743  53
  -3  -3   4 1293.72 99.1841  27
  -3   3   4 1011.44 109.182  50
  -3  -3   4 1168.12 108.670  48
  -3  -3   3 2386.31 143.327  47
  -3   3   3 1838.78 149.681  45
  -3  -3   3 2227.81 145.680  43
   3  -3  -3 1920.57 157.466  21
   3   3  -3 2557.94 189.418  21
  -3   3   3 1785.88 135.353  34
  -3  -3   3 2326.19 135.984  34
   3  -3  -3 1608.21 162.353  18
   3   3  -3 2194.68 179.010  18
  -3  -3   3 2172.98 139.739  55
  -3  -3   3 2174.04 136.655  27
   3  -3  -3 1643.96 164.509  11
  -3   3   3 2061.95 153.029  50
  -3  -3   3 1800.52 164.887  49
   3  -3  -3 1846.04 163.658   8
  -3  -3   3 2186.23 147.546  48
   3  -3  -2 263.069 76.2078  18
   3  -3  -2 227.395 76.0525  11
  -3   3   2 246.092 78.4608  45
  -3   3   2 238.777 67.6286  43
  -3  -3   2 308.294 64.7995  43
   3  -3  -2 253.574 71.9399   8
   3   3  -2 372.393 85.1634  21
   3   3  -2 246.204 66.1457   3
  -3   3   2 199.318 58.1615  34
  -3  -3   2 320.314 51.9686  34
  -3  -3   2 280.217 54.8140  55
   3   3  -2 336.681 93.7192  18
  -3   3   2 173.778 65.8557  53
  -3  -3   2 365.542 50.8813  27
  -3  -3   2 309.815 85.5534  49
  -3  -3   2 373.335 63.6171  48
  -3  -3   1 1667.87 111.456  47
  -3   3   1 1320.27 133.266  45
  -3   3   1 1221.07 116.086  43
  -3  -3   1 1639.27 117.722  43
   3   3  -1 1699.29 141.759   3
  -3   3   1 1168.77 107.486  34
  -3  -3   1 1803.72 108.289  34
   3  -3  -1 1129.53 119.560  18
  -3   3   1 1558.41 118.826  54
  -3   3   1 1309.66 120.424  53
  -3   3   1 1701.76 128.342  28
   3  -3  -1 1211.40 127.601  11
  -3  -3   1 1433.26 137.477  49
   3   3  -1 1606.72 139.105   4
  -3  -3   1 1393.27 112.949  48
   3  -3  -1 1620.11 130.820   8
  -3  -3   0 726.518 73.2232  47
  -3   3   0 819.115 110.636  45
   3   3   0 852.253 108.337   4
  -3   3   0 727.943 91.2410  43
  -3  -3   0 652.676 81.4015  43
   3  -3   0 747.770 91.9419   8
   3   3   0 769.449 106.753   3
  -3   3   0 771.651 83.5154  34
  -3  -3   0 789.647 73.8140  34
  -3  -3   0 783.042 78.0914  55
  -3   3   0 847.672 88.8697  54
  -3   3   0 634.651 88.8895  53
  -3   3   0 729.115 84.8035  28
   3  -3   0 824.494 96.5539  11
  -3   3   0 675.390 94.5610  50
  -3  -3   0 803.805 111.798  49
  -3  -3   0 704.557 81.2893  48
   3   3   1 1564.76 149.378   4
  -3   3  -1 1176.11 135.695  45
  -3   3  -1 1379.24 117.036  43
  -3  -3  -1 1533.48 115.269  43
  -3  -3  -1 1631.75 159.354  41
  -3   3  -1 1106.55 114.800  41
   3   3   1 1695.17 140.977   7
   3   3   1 1510.44 163.703   3
  -3   3  -1 1406.54 121.088  37
  -3  -3  -1 1600.79 104.289  34
  -3  -3  -1 1569.61 123.629  32
  -3   3  -1 1357.10 250.976  32
  -3  -3  -1 1366.09 106.408  55
  -3   3  -1 1055.31 111.308  54
  -3   3  -1 1212.49 127.876  50
   3  -3   1 1174.73 120.300  11
  -3   3  -1 1350.25 114.042  16
  -3  -3  -1 1396.96 139.788  49
   3  -3   1 1484.27 122.177   8
  -3   3  -2 1353.43 141.855  45
   3   3   2 1301.17 159.227   4
  -3   3  -2 1421.24 120.225  43
  -3  -3  -2 1298.37 110.592  43
  -3   3  -2 1319.23 114.987  42
  -3  -3  -2 1329.58 133.722  41
  -3   3  -2 1208.17 118.116  41
   3   3   2 1471.43 131.680   7
  -3   3  -2 1406.88 122.140  37
  -3  -3  -2 1380.93 138.498  12
  -3  -3  -2 1404.99 131.816  32
  -3   3  -2 1091.23 379.604  32
  -3   3  -2 1219.84 117.707  54
  -3  -3  -2 1621.73 117.816  54
   3  -3   2 1325.71 116.959  11
  -3   3  -2 1326.14 117.826  16
  -3  -3  -2 1170.35 102.195  55
  -3  -3  -2 1142.55 132.891  49
   3  -3   2 1204.46 112.126   8
   3   3   3 1279.07 180.573   4
  -3  -3  -3 1818.82 158.386  41
  -3   3  -3 1454.24 138.853  41
   3   3   3 1591.78 144.915   7
  -3   3  -3 1405.91 135.167  37
   3   3   3 1898.20 193.232   3
  -3  -3  -3 1989.49 146.870  12
  -3  -3  -3 1744.32 160.953  32
  -3   3  -3 1158.42 429.997  32
  -3   3  -3 1511.43 138.513  54
  -3  -3  -3 1856.47 130.709  54
   3  -3   3 1652.67 130.784  11
  -3   3  -3 1676.85 143.555  16
  -3  -3  -3 1566.65 162.610  49
   3  -3   3 1733.48 130.587   8
  -3   3  -4 44.0221 58.6380  16
  -3   3  -4 33.1585 68.9159  43
  -3  -3  -4 55.1178 59.7108  43
   3   3   4 50.4374 108.707   4
  -3  -3  -4 164.615 87.5697  41
  -3   3  -4 19.8242 79.0287  41
  -3  -3  -4 34.8804 53.3724  37
  -3   3  -4 99.5875 73.1251  37
   3   3   4 34.0754 55.6593   7
  -3  -3  -4-15.6397 95.1374  32
  -3  -3  -4 66.4730 74.9180  12
  -3   3  -4 61.1152 80.9803  54
  -3  -3  -4 12.6352 61.7648  54
   3  -3   4-9.79889 85.0140   5
  -3  -3  -4 43.0802 98.4074  49
  -3   3  -5 322.900 80.7471  43
  -3  -3  -5 424.556 70.4183  43
  -3  -3  -5 460.411 100.277  41
  -3   3  -5 349.843 98.4085  41
  -3  -3  -5 423.954 72.8287  37
  -3   3  -5 479.386 91.1341  37
   3   3   5 505.105 85.5768   7
  -3  -3  -5 503.145 109.415  32
  -3  -3  -5 369.489 91.8377  12
  -3  -3  -5 319.227 74.6115  54
  -3  -3  -5 445.448 118.219  49
  -3   3  -5 317.906 81.1270  16
  -3   3  -6 128.122 69.1346  43
  -3  -3  -6 57.2187 55.7073  43
  -3  -3  -6 45.5509 94.4142  41
  -3  -3  -6 43.7473 67.0888  37
  -3   3  -6 62.3029 78.2960  37
   3   3   6-40.5353 62.1653   7
  -3   3  -6 421.480 445.063  32
  -3  -3  -6-40.7955 82.7119  32
  -3  -3  -6 8.97243 75.6401  12
  -3   3  -6 71.9455 108.488  54
  -3  -3  -6 23.7699 61.9065  54
  -3  -3  -6 43.0924 92.2356  49
  -3   3  -6 10.2352 63.4806  16
  -3  -3  -7 1117.36 93.8132  43
  -3   3  -7 922.337 103.957  43
  -3  -3  -7 1338.99 141.433  41
  -3  -3  -7 1156.04 115.303  37
  -3  -3  -7 1056.01 120.493  32
  -3  -3  -7 1143.33 131.341  49
  -3  -3  -7 868.626 121.761  12
  -3   3  -7 1048.52 153.198  54
  -3   3  -7 1194.83 137.926  16
  -3  -3  -8 175.045 99.6953  41
  -3   3  -8 217.277 116.645  41
  -3  -3  -8 153.075 72.3524  37
  -3  -3  -8 214.933 73.4091  32
  -3  -3  -8 130.213 76.1286  12
  -3  -3  -8 179.323 74.2853  49
  -3  -3  -9 94.6876 86.6157  41
  -3   3  -9 498.735 109.242  41
  -3   3  -9 146.982 75.3593  37
  -3   3  -9 241.956 186.203  32
  -3  -3  -9 198.273 64.3982  32
  -3  -3 -10 68.5729 102.176  41
  -3   3 -10 107.137 77.9986  41
  -3   3 -10 31.3062 60.4988  37
  -3  -3 -10 109.769 50.4868  32
  -3   3 -11 328.655 67.0125  41
  -3   3 -11 326.448 57.9084  37
  -3   4  13 1682.96 114.538  45
   3   4 -13 1508.79 122.033  44
  -3   4  13 1738.84 121.297  53
   3  -4 -13 1620.89 125.942  40
   3  -4 -13 1629.22 118.448  35
  -3  -4  13 1410.37 97.3194  34
   3  -4 -13 1716.40 130.627  29
   3   4 -13 1647.80 110.706  29
   3  -4 -13 1743.65 144.200  51
   3   4 -13 1487.07 114.131  51
  -3  -4  13 1442.32 99.5272  27
  -3   4  13 1769.05 122.206  50
  -3  -4  13 1399.42 98.1061  50
  -3   4  12 9340.29 492.752  45
   3   4 -12 9521.42 499.015  44
   3  -4 -12 9256.06 506.909  35
  -3  -4  12 9062.62 474.834  34
   3  -4 -12 10254.2 505.143  29
   3   4 -12 9219.57 483.485  29
  -3   4  12 9589.96 495.135  53
   3  -4 -12 9887.28 517.128  51
   3   4 -12 9432.66 494.365  51
  -3  -4  12 8490.65 477.626  27
  -3   4  12 9423.45 493.390  50
  -3  -4  12 8501.52 471.791  50
  -3   4  11 2389.06 179.192  45
   3   4 -11 2737.11 187.679  44
  -3  -4  11 2129.78 190.091  23
   3   4 -11 2561.91 187.134  51
   3  -4 -11 2511.60 207.303  40
   3   4 -11 2964.97 206.490  21
   3  -4 -11 2742.53 232.822  35
  -3  -4  11 2379.77 168.471  34
   3  -4 -11 2747.08 243.181  18
   3  -4 -11 2846.32 189.199  29
   3   4 -11 2688.98 172.667  29
  -3   4  11 2876.87 186.884  53
  -3  -4  11 2417.54 177.941  53
  -3   4  11 3552.19 198.679  28
   3  -4 -11 2613.70 211.815  51
  -3  -4  11 2455.81 171.316  27
  -3   4  11 2336.17 175.062  50
  -3  -4  11 2232.77 159.662  50
  -3   4  10 11871.7 619.973  45
   3   4 -10 11473.1 621.824  44
  -3  -4  10 10177.3 642.967  23
   3  -4 -10 11093.8 638.826  40
   3   4 -10 11595.1 641.493  21
  -3  -4  10 11420.0 611.187  34
   3  -4 -10 13418.2 709.723  18
   3   4 -10 11568.0 637.412  18
  -3   4  10 12439.5 619.962  53
   3  -4 -10 11242.6 614.785  29
   3   4 -10 11582.3 611.637  29
  -3  -4  10 11329.0 619.031  53
  -3   4  10 14341.5 639.613  28
   3  -4 -10 11730.4 646.117  51
   3   4 -10 12061.0 629.253  51
  -3  -4  10 11377.4 615.824  27
  -3   4  10 11312.2 613.407  50
  -3  -4  10 10959.8 599.511  50
  -3  -4   9 4035.13 258.150  47
  -3   4   9 4310.51 266.725  45
   3   4  -9 4325.08 274.176  44
  -3  -4   9 3295.14 285.457  23
  -3  -4   9 3452.14 270.009  14
   3  -4  -9 4797.65 303.859  40
   3  -4  -9 5276.34 328.971  21
   3   4  -9 4597.42 294.291  21
  -3  -4   9 3817.78 257.855  55
  -3   4   9 4375.75 291.030  20
   3  -4  -9 4851.73 362.365  35
  -3  -4   9 3740.79 261.739  34
   3  -4  -9 5077.78 353.911  18
   3   4  -9 4800.13 293.040  18
   3  -4  -9 4635.73 264.953  29
  -3   4   9 4358.75 270.224  53
   3   4  -9 4623.30 269.195  29
  -3  -4   9 3921.43 268.673  53
  -3   4   9 6074.83 305.707  28
   3  -4  -9 4789.92 305.883  51
   3   4  -9 5088.70 292.716  51
  -3  -4   9 4473.18 274.366  27
  -3   4   9 4484.07 266.966  50
  -3  -4   9 3934.61 252.440  50
  -3  -4   8 6951.06 399.800  47
  -3   4   8 7424.00 399.953  45
   3   4  -8 7709.45 409.845  44
  -3  -4   8 6443.90 432.438  23
   3  -4  -8 5042.53 476.002  22
   3  -4  -8 7568.17 450.725  21
  -3   4   8 6510.17 419.757  20
  -3  -4   8 7449.49 404.070  34
   3  -4  -8 8317.39 489.020  18
   3   4  -8 7505.57 425.204  18
  -3  -4   8 7422.05 402.351  55
   3  -4  -8 6506.19 387.298  29
  -3   4   8 7425.27 404.577  53
   3  -4  -8 4676.11 485.275   8
  -3  -4   8 6700.09 404.201  53
   3  -4  -8 5429.45 504.133  11
  -3   4   8 9781.61 441.532  28
   3  -4  -8 7295.23 431.006  51
  -3  -4   8 7276.51 409.192  27
  -3   4   8 7607.73 401.241  50
  -3  -4   8 7211.68 391.456  50
   3  -4  -7 748.624 212.805  11
  -3  -4   7 727.701 102.473  47
  -3   4   7 808.001 93.9584  45
   3   4  -7 1068.05 105.757  44
   3  -4  -7 1009.17 210.164   8
   3  -4  -7 440.013 183.253  22
   3  -4  -7 953.452 131.493  21
  -3   4   7 728.954 108.945  20
  -3   4   7 913.997 85.6529  34
  -3  -4   7 738.730 94.7998  34
   3  -4  -7 1013.87 154.004  18
   3   4  -7 987.908 115.388  18
  -3  -4   7 722.762 99.6680  55
  -3   4   7 684.374 96.6485  53
  -3  -4   7 907.820 102.872  53
  -3  -4   7 925.851 104.109  27
   3  -4  -7 813.698 132.996  51
  -3   4   7 697.046 97.8922  50
  -3  -4   7 730.136 86.6778  50
  -3  -4   6 27840.9 1356.31  47
  -3   4   6 25101.1 1342.10  45
   3   4  -6 27063.8 1354.65  44
   3  -4  -6 26080.2 1429.44  22
   3  -4  -6 25533.9 1373.53  21
   3   4  -6 26700.2 1378.73  21
  -3   4   6 24515.0 1365.84  20
  -3   4   6 23778.4 1332.11  34
   3  -4  -6 26455.8 1404.81  18
   3   4  -6 26556.0 1370.78  18
  -3  -4   6 27544.3 1352.55  55
  -3   4   6 28336.5 1356.27  53
  -3  -4   6 30566.1 1350.75  53
   3  -4  -6 27876.2 1443.94  11
   3  -4  -6 26676.3 1427.00   8
   3  -4  -6 26307.3 1367.02  51
  -3   4   6 26884.5 1349.77  50
  -3  -4   6 30150.9 1342.25  50
  -3  -4   5 3471.43 244.881  47
  -3   4   5 3714.89 242.333  45
   3  -4  -5 3952.13 303.225  22
   3   4  -5 3875.93 269.881  21
  -3   4   5 3520.11 231.622  34
  -3  -4   5 4616.28 241.708  34
   3  -4  -5 3740.23 284.585  18
  -3   4   5 4006.18 251.322  53
  -3  -4   5 4693.28 242.025  53
  -3  -4   5 3885.86 247.706  55
   3  -4  -5 4082.41 298.955   8
  -3  -4   5 4619.56 248.993  27
  -3   4   5 3994.38 248.953  50
  -3  -4   5 4235.73 249.487  48
  -3  -4   4 16209.6 802.978  47
  -3  -4   4 15916.2 800.695  55
  -3   4   4 14056.1 800.284  45
  -3   4   4 15000.0 808.004  53
   3   4  -4 15650.8 839.010  21
  -3   4   4 13537.1 790.385  34
  -3  -4   4 18670.1 799.002  34
   3  -4  -4 13839.6 828.914  18
   3  -4  -4 14561.2 845.344  11
  -3  -4   4 17250.3 799.840  27
  -3   4   4 15366.6 807.035  50
  -3  -4   4 17407.4 814.503  48
  -3  -4   3 8318.66 419.499  47
  -3   4   3 7440.90 425.609  45
  -3   4   3 6979.62 420.077  43
   3  -4  -3 7234.28 450.966  22
   3   4  -3 9343.08 466.620  21
  -3   4   3 6866.76 411.382  34
  -3  -4   3 9245.46 413.748  34
   3  -4  -3 6376.38 434.690  18
   3   4  -3 8603.67 456.896  18
  -3   4   3 7127.65 425.287  53
  -3   4   3 8253.17 436.436  28
  -3  -4   3 8292.02 412.958  27
   3  -4  -3 6949.25 450.265  11
  -3  -4   3 7758.65 416.712  55
  -3   4   3 7409.33 425.809  50
   3  -4  -3 6889.49 443.227   8
  -3  -4   3 8017.45 443.494  49
  -3  -4   3 8810.71 432.029  48
  -3   4   2 22212.0 1194.38  45
  -3   4   2 21991.0 1184.34  43
   3   4  -2 24760.1 1206.26   3
  -3  -4   2 25411.3 1182.10  55
   3   4  -2 26390.9 1227.37  21
  -3   4   2 18812.9 1173.83  34
  -3  -4   2 28913.3 1178.46  34
   3  -4  -2 19480.6 1193.38  18
  -3   4   2 23634.9 1179.50  54
  -3   4   2 23706.3 1194.18  28
  -3  -4   2 26621.9 1176.48  27
   3  -4  -2 20717.1 1205.33  11
  -3   4   2 22023.7 1191.30  50
   3  -4  -2 21432.2 1204.27   8
   3   4  -2 25888.3 1214.04   4
  -3  -4   2 24405.0 1207.59  49
  -3  -4   2 25849.7 1192.90  48
  -3  -4   1 6470.86 324.274  47
  -3   4   1 5809.86 348.292  45
  -3   4   1 5239.66 328.661  43
   3   4  -1 6417.22 358.582   3
  -3   4   1 4609.18 319.638  34
  -3  -4   1 7416.22 322.647  34
  -3   4   1 5794.75 329.997  54
  -3   4   1 5753.33 332.764  28
   3  -4  -1 5332.11 346.765  11
  -3   4   1 5562.71 340.612  50
   3  -4  -1 5219.41 344.699   8
  -3  -4   1 6527.74 355.247  49
  -3  -4   1 6389.16 334.163  48
   3   4  -1 6729.94 361.147   4
  -3  -4   0 27826.0 1223.70  47
  -3   4   0 24882.4 1254.86  45
  -3   4   0 23281.8 1228.77  43
   3   4   0 25910.5 1275.09   3
  -3  -4   0 27046.7 1224.46  55
  -3  -4   0 28980.7 1221.45  34
  -3   4   0 23402.7 1226.76  54
  -3   4   0 21117.6 1226.15  28
   3  -4   0 23466.8 1246.33  11
  -3   4   0 21897.4 1239.82  50
   3  -4   0 22243.4 1241.73   8
  -3   4   0 20899.9 1233.43  16
  -3  -4   0 26062.0 1253.87  49
  -3  -4   0 25075.3 1230.98  48
  -3  -4  -1 8510.83 421.982  47
   3   4   1 8862.12 482.054   4
  -3   4  -1 8210.26 464.388  45
  -3   4  -1 7542.13 434.206  43
  -3  -4  -1 7950.20 430.282  43
  -3   4  -1 7752.98 435.155  42
   3   4   1 9235.95 477.291   7
   3   4   1 8261.70 495.612   3
  -3  -4  -1 8375.55 425.404  55
  -3   4  -1 7617.08 435.978  54
   3  -4   1 7504.29 446.490  11
  -3   4  -1 7569.15 447.257  16
   3  -4   1 7515.71 442.820   8
  -3  -4  -1 8211.36 457.204  49
   3   4   2 16745.1 816.004  25
  -3   4  -2 14313.1 819.038  45
   3   4   2 16396.7 860.263   4
  -3   4  -2 15945.9 796.399  43
  -3  -4  -2 16553.0 791.367  43
  -3   4  -2 15963.0 798.075  42
  -3  -4  -2 18787.8 828.847  41
  -3   4  -2 12856.3 790.002  41
   3   4   2 17117.6 830.275   7
  -3   4  -2 12619.9 792.506  38
  -3   4  -2 16650.0 804.941  37
   3   4   2 15026.5 880.430   3
  -3   4  -2 14937.6 813.526  32
  -3  -4  -2 18109.9 810.188  32
  -3  -4  -2 15344.7 781.146  55
  -3   4  -2 14101.4 792.629  54
   3  -4   2 14595.9 800.682  11
   3  -4   2 14373.1 799.136   8
  -3   4  -2 14656.4 812.505  16
  -3  -4  -2 15995.7 819.625  49
  -3  -4  -2 16722.4 789.975  48
   3   4   3 6420.23 383.262  25
   3   4   3 7270.16 467.185   4
  -3   4  -3 6391.96 378.187  42
  -3  -4  -3 8325.14 408.015  41
  -3   4  -3 5709.89 376.517  41
   3   4   3 6580.40 393.735   7
  -3   4  -3 7026.45 384.553  37
  -3  -4  -3 7022.27 381.567  12
  -3  -4  -3 6790.26 394.113  32
  -3   4  -3 5909.39 375.999  54
  -3  -4  -3 7597.74 369.542  54
   3  -4   3 6066.83 396.449   5
  -3   4  -3 6362.93 395.175  16
  -3  -4  -3 6765.87 399.403  49
   3   4   4 15255.5 827.357  25
   3   4   4 14168.5 935.525   4
  -3  -4  -4 17294.5 811.686  43
  -3  -4  -4 18824.4 848.094  41
  -3   4  -4 13977.3 828.910  41
   3   4   4 14396.1 834.775   7
  -3   4  -4 16934.1 832.106  37
  -3  -4  -4 15623.8 826.057  12
  -3  -4  -4 14367.6 837.610  32
   3  -4   4 16043.1 870.601   5
  -3   4  -4 15493.4 825.962  54
  -3  -4  -4 18695.0 813.413  54
   3  -4   4 14593.1 831.596  17
  -3   4  -4 15535.9 851.415  16
  -3  -4  -4 14804.6 842.339  49
  -3   4  -5 1892.54 154.194  43
  -3  -4  -5 2179.31 145.926  43
  -3  -4  -5 2339.29 178.720  41
  -3   4  -5 1706.15 177.221  41
   3   4   5 1735.92 158.666   7
  -3   4  -5 2222.14 170.815  37
  -3  -4  -5 1916.72 159.754  12
   3  -4   5 1657.91 198.897  19
  -3  -4  -5 2041.21 180.680  32
  -3   4  -5 2039.86 368.675  32
  -3  -4  -5 2033.67 141.970  54
  -3   4  -5 2172.11 184.446  16
  -3  -4  -5 1970.54 178.213  49
  -3   4  -6 7778.47 414.303  43
  -3  -4  -6 9118.91 406.696  43
  -3  -4  -6 9235.48 448.977  41
  -3   4  -6 6328.68 440.158  41
   3  -4   6 5822.66 445.046   9
  -3  -4  -6 7020.48 429.203  12
  -3   4  -6 8254.00 515.606  32
  -3  -4  -6 9107.74 448.925  32
  -3  -4  -6 6703.13 396.377  54
  -3   4  -6 8141.39 462.821  16
  -3  -4  -6 6132.21 434.252  49
  -3  -4  -7 2669.08 153.333  43
  -3  -4  -7 2903.72 202.696  41
  -3   4  -7 1882.25 196.839  41
  -3  -4  -7 1967.94 177.600  12
  -3  -4  -7 2851.34 191.400  32
  -3   4  -7 2608.50 285.140  32
  -3   4  -7 2376.35 214.839  54
  -3   4  -7 2591.27 207.995  16
  -3  -4  -7 1873.91 188.623  49
  -3  -4  -8 6717.62 382.979  41
  -3   4  -8 7302.88 376.990  37
  -3  -4  -8 6426.81 362.951  32
  -3  -4  -9 1782.27 204.983  41
  -3   4  -9 2063.09 155.354  37
  -3  -4  -9 2086.13 141.760  32
  -3  -4  -9 1825.82 138.479  49
  -3   4 -10 3774.21 228.898  41
  -3   4 -10 3595.01 220.219  37
  -3  -4 -10 3613.90 209.499  32
  -3   5  13 1027.39 84.5711  45
   3   5 -13 999.762 89.0798  44
   3  -5 -13 796.684 85.0118  35
  -3  -5  13 809.319 61.6291  34
   3   5 -13 767.535 71.2895  29
  -3   5  13 914.396 81.2788  53
  -3  -5  13 827.955 68.5128  53
  -3  -5  13 810.460 63.8703  27
   3  -5 -13 933.878 104.699  51
  -3   5  13 1006.72 83.8443  50
  -3  -5  13 950.654 61.7831  50
  -3   5  12 1104.07 104.925  45
   3   5 -12 1130.62 105.723  44
   3  -5 -12 1042.58 123.389  40
   3  -5 -12 1087.99 123.416  35
  -3  -5  12 999.145 81.1480  34
   3  -5 -12 980.523 107.375  29
   3   5 -12 1165.68 89.6095  29
  -3   5  12 1307.07 105.388  53
  -3  -5  12 929.699 84.6474  53
   3   5 -12 1034.50 97.4526  51
  -3  -5  12 883.033 81.5059  27
   3  -5 -12 938.035 124.660  51
  -3   5  12 997.567 100.873  50
  -3  -5  12 1065.24 77.5703  50
  -3   5  11 802.598 105.528  45
   3   5 -11 831.740 99.6293  44
  -3  -5  11 593.743 91.7334  23
   3  -5 -11 715.813 134.108  40
  -3  -5  11 1082.72 88.1448  34
   3   5 -11 807.580 86.1691  29
   3  -5 -11 843.870 101.860  29
  -3   5  11 905.558 101.057  53
  -3   5  11 923.839 110.107  28
  -3  -5  11 1044.42 91.6402  53
   3   5 -11 1148.51 109.320  51
  -3  -5  11 865.257 89.0578  27
   3  -5 -11 918.050 134.186  51
  -3   5  11 1051.34 102.585  50
  -3  -5  11 801.923 73.9281  50
  -3  -5  10 467.608 68.1203  47
  -3   5  10 620.708 94.5834  45
   3   5 -10 592.918 94.1709  44
  -3  -5  10 440.090 88.3062  23
   3  -5 -10 759.674 142.245  40
   3   5 -10 583.744 94.4674  21
   3  -5 -10 483.271 179.369  35
  -3  -5  10 674.236 83.1871  34
   3  -5 -10 439.257 140.894  18
  -3  -5  10 508.328 71.0072  55
   3  -5 -10 425.810 80.9466  29
   3   5 -10 438.357 76.9569  29
  -3   5  10 507.378 87.4601  53
  -3  -5  10 494.478 80.1679  53
  -3   5  10 626.494 107.832  28
   3  -5 -10 547.014 121.749  51
   3   5 -10 698.966 103.684  51
  -3  -5  10 549.881 82.1014  27
  -3   5  10 656.956 91.3280  50
  -3  -5  10 536.058 66.0420  50
  -3  -5   9 519.943 80.5610  47
  -3   5   9 358.913 81.8801  45
   3   5  -9 405.717 84.5144  44
   3   5  -9 413.579 80.2163  29
   3  -5  -9 476.916 139.902  40
   3   5  -9 455.448 91.1581  21
  -3   5   9 421.976 92.3932  20
   3  -5  -9 408.907 194.165  35
  -3  -5   9 350.346 82.6994  34
   3  -5  -9 532.617 145.614  18
   3   5  -9 389.551 78.5464  18
  -3  -5   9 468.107 82.0427  55
   3  -5  -9 482.745 80.3182  29
  -3   5   9 468.111 86.4213  53
  -3  -5   9 604.887 86.7621  53
  -3   5   9 508.748 105.096  28
   3  -5  -9 398.055 116.750  51
   3   5  -9 499.647 103.895  51
  -3  -5   9 470.783 87.0565  27
  -3   5   9 508.184 85.1201  50
  -3  -5   9 489.219 64.6464  50
  -3  -5   8 468.209 87.4892  47
  -3   5   8 512.288 84.9355  45
   3  -5  -8 195.701 187.952   8
   3   5  -8 565.672 89.3814  44
   3  -5  -8 361.308 125.311  40
   3  -5  -8 177.694 168.106  22
   3   5  -8 569.878 97.1562  21
  -3   5   8 611.913 103.861  20
   3  -5  -8 650.023 211.340  35
  -3  -5   8 420.871 84.1123  34
   3  -5  -8 545.384 143.842  18
   3   5  -8 501.604 94.1500  18
  -3   5   8 512.813 89.8168  53
  -3  -5   8 359.003 82.8392  53
  -3  -5   8 575.635 93.9526  55
  -3   5   8 624.153 109.723  28
   3  -5  -8 633.090 118.340  51
  -3  -5   8 429.541 89.2584  27
  -3   5   8 438.252 85.0100  50
  -3  -5   8 478.734 68.3861  50
   3  -5  -8 231.383 202.045  11
   3  -5  -7 779.075 283.738  11
  -3  -5   7 746.277 104.819  47
  -3   5   7 867.094 98.8970  45
   3   5  -7 930.974 106.309  44
   3  -5  -7 539.588 240.356   8
  -3  -5   7 720.096 110.769  23
   3  -5  -7 753.899 256.673  22
   3   5  -7 849.862 115.640  21
  -3   5   7 606.691 105.977  20
   3  -5  -7 933.203 159.634  18
   3   5  -7 943.133 114.550  18
  -3  -5   7 713.199 108.322  55
  -3   5   7 954.541 106.479  53
  -3  -5   7 649.439 89.8266  53
  -3   5   7 804.351 123.851  28
  -3  -5   7 903.611 109.270  27
  -3   5   7 792.607 100.265  50
   3  -5  -6 1889.75 314.923  11
  -3  -5   6 2373.21 181.784  47
  -3   5   6 2050.98 161.311  45
  -3  -5   6 2190.49 188.400  23
   3  -5  -6 2475.53 328.908  22
  -3   5   6 2132.75 170.765  53
  -3   5   6 2031.18 150.906  34
  -3  -5   6 2683.96 168.732  34
   3  -5  -6 2499.02 219.804  18
   3   5  -6 2312.19 179.543  18
  -3  -5   6 2473.23 178.853  55
  -3  -5   6 2312.32 159.509  53
   3  -5  -6 2005.84 219.886  17
   3  -5  -6 3051.29 327.736   8
  -3   5   6 2378.68 189.396  28
  -3   5   6 2279.61 170.881  50
  -3  -5   5 7625.47 411.861  47
  -3   5   5 6104.28 390.809  45
  -3  -5   5 7891.73 422.934  23
   3  -5  -5 6937.10 503.677  22
  -3  -5   5 7195.90 403.466  55
  -3   5   5 6533.05 384.030  34
  -3  -5   5 8120.53 393.897  34
   3  -5  -5 6861.32 437.884  18
   3   5  -5 7828.50 422.771  18
  -3   5   5 6656.19 400.864  53
   3  -5  -5 5940.12 422.190  17
  -3   5   5 7666.70 416.249  28
   3  -5  -5 7043.72 489.968   8
  -3  -5   5 7355.32 398.450  27
  -3   5   5 6989.54 400.707  50
  -3  -5   5 7750.70 404.739  48
  -3  -5   4 1022.12 107.095  47
   3  -5  -4 737.436 165.259  11
  -3   5   4 873.679 105.114  45
   3  -5  -4 930.169 161.562   8
   3   5  -4 912.958 161.185  21
   3   5  -4 872.439 114.445  18
  -3  -5   4 1224.43 93.6012  34
  -3   5   4 692.535 87.6587  34
   3  -5  -4 843.095 122.677  18
  -3  -5   4 918.467 101.988  55
  -3   5   4 859.426 108.443  53
  -3   5   4 959.913 119.140  28
  -3  -5   4 983.152 93.6194  27
  -3   5   4 1087.22 113.682  50
  -3  -5   4 1126.51 119.371  48
  -3   5   3 2801.77 207.224  45
  -3   5   3 2471.94 203.147  43
   3  -5  -3 2738.01 242.702  22
   3   5  -3 3571.99 253.445  21
  -3   5   3 2368.22 188.927  34
  -3  -5   3 4164.60 195.759  34
  -3  -5   3 3211.77 200.788  55
  -3   5   3 3125.46 212.276  53
   3  -5  -3 2658.85 243.295  11
   3  -5  -3 2952.79 243.206   8
  -3  -5   3 3706.04 195.268  27
  -3   5   3 2849.82 210.122  50
  -3  -5   3 3593.31 221.679  26
  -3  -5   3 3811.22 222.397  48
  -3  -5   2 1558.74 117.632  47
  -3   5   2 1302.79 131.490  45
  -3   5   2 1147.61 128.188  43
   3  -5  -2 1180.71 145.761   8
   3   5  -2 1575.31 125.781   3
   3  -5  -2 1253.22 151.241  22
   3   5  -2 1702.45 153.279  21
  -3  -5   2 1762.70 108.577  34
  -3   5   2 1423.75 132.583  53
  -3   5   2 1120.37 126.039  28
   3  -5  -2 1196.77 157.159  11
  -3  -5   2 1634.91 106.629  27
  -3   5   2 1280.64 131.936  50
  -3  -5   2 1456.21 132.647  26
   3   5  -2 1700.02 136.832   4
  -3  -5   2 1657.77 135.792  48
  -3  -5   1 3255.71 180.727  47
  -3   5   1 2802.35 206.506  45
  -3   5   1 2223.37 185.765  43
   3  -5  -1 2307.51 209.751  22
   3   5  -1 3284.85 207.714   3
  -3  -5   1 3538.70 174.504  34
  -3  -5   1 3082.64 180.396  55
  -3   5   1 2391.46 184.764  54
  -3   5   1 2441.84 190.684  28
   3  -5  -1 2595.71 213.933  11
   3  -5  -1 2856.97 213.652   8
  -3   5   1 2518.96 196.194  50
  -3  -5   1 2995.84 195.682  26
  -3   5   1 2284.44 192.950  16
  -3  -5   1 3371.86 197.129  48
   3   5  -1 3370.80 208.851   4
  -3  -5   0 1479.62 105.152  47
   3   5   0 1579.05 137.346   4
  -3   5   0 1651.85 152.556  45
  -3   5   0 1106.25 121.022  43
  -3   5   0 1345.56 123.698  42
   3  -5   0 1275.96 140.391  22
  -3   5   0 1247.77 126.219  38
   3   5   0 1499.21 140.833   3
  -3  -5   0 1515.59 108.737  55
  -3   5   0 1138.70 121.318  54
  -3   5   0 1234.66 123.194  28
   3  -5   0 1128.52 136.242  11
  -3   5   0 1098.37 129.782  50
   3  -5   0 1448.40 142.169   8
  -3  -5   0 1449.54 137.735  49
  -3   5   0 1365.67 130.993  16
  -3  -5   0 1501.29 120.911  48
  -3  -5  -1 2098.09 126.410  47
  -3   5  -1 1874.14 171.751  45
  -3   5  -1 1729.77 148.206  43
  -3   5  -1 1729.37 144.320  42
   3   5   1 2051.65 169.738   7
   3  -5   1 1671.97 159.927  22
  -3   5  -1 1704.54 147.416  38
   3   5   1 2213.34 190.688   3
  -3  -5  -1 2071.09 130.336  55
  -3   5  -1 1557.35 150.853  54
  -3   5  -1 1433.50 139.511  28
   3  -5   1 1792.68 158.496  11
  -3   5  -1 1500.49 160.648  50
   3  -5   1 1765.21 156.966   8
  -3   5  -1 1512.68 150.558  16
  -3  -5  -1 1990.31 164.783  49
  -3   5  -2 279.932 72.5998  16
   3  -5   2 73.3693 73.6893  11
   3   5   2 240.180 76.0600  25
  -3   5  -2 8.56359 92.4717  45
  -3   5  -2 22.2454 82.7986  43
  -3  -5  -2 183.732 67.9408  43
   3  -5   2 100.861 68.9894   8
  -3   5  -2 68.4093 73.0242  42
  -3   5  -2 120.404 76.1646  41
   3  -5   2 111.151 77.6985  22
  -3   5  -2 66.3290 73.7327  38
   3   5   2 46.4147 69.1712   7
  -3  -5  -2 115.811 67.0907  32
  -3  -5  -2 147.365 52.5829  55
  -3   5  -2 125.626 85.9600  54
   3  -5   2 63.3634 72.9848  17
  -3  -5  -2 44.4880 79.2488  49
  -3  -5  -2 147.568 59.3644  48
  -3   5  -3 99.6860 69.6913  16
   3   5   3 209.114 65.6568  25
  -3   5  -3 57.5583 82.9400  43
  -3   5  -3 200.120 83.6947  42
   3   5   3 182.805 114.172   4
  -3   5  -3 81.6505 84.8430  41
   3  -5   3 84.8558 76.8677  22
  -3   5  -3 133.279 76.9463  38
   3   5   3 182.531 67.7205   7
  -3   5  -3 79.0883 79.5010  37
  -3  -5  -3 117.422 79.1458  32
  -3  -5  -3 267.509 80.5253  12
  -3   5  -3 99.5788 98.2526  54
  -3  -5  -3 124.504 66.2348  54
   3  -5   3 53.1685 84.9844   5
   3  -5   3 103.679 82.7058  17
  -3  -5  -3 105.825 85.4313  49
  -3  -5  -3 124.722 57.5931  48
  -3   5  -4 954.424 123.611  16
   3   5   4 779.125 98.2101  25
  -3   5  -4 675.036 91.4353  46
  -3  -5  -4 819.323 90.5679  43
  -3   5  -4 576.817 103.493  42
  -3   5  -4 931.342 129.005  41
  -3   5  -4 885.137 110.280  37
   3   5   4 831.196 103.672   7
  -3  -5  -4 690.737 115.893  32
  -3  -5  -4 815.714 94.3710  12
  -3  -5  -4 998.639 94.4665  54
  -3   5  -4 589.156 131.391  54
   3  -5   4 884.006 129.077  17
  -3  -5  -4 781.969 113.849  49
  -3   5  -5 379.149 91.4205  16
   3   5   5 585.905 83.7355  25
  -3   5  -5 352.073 89.5286  43
  -3  -5  -5 369.405 69.5887  43
  -3  -5  -5 358.022 189.371  41
  -3   5  -5 214.911 108.359  41
   3   5   5 374.596 75.8890   7
   3  -5   5 364.465 146.473  19
  -3  -5  -5 343.421 109.986  32
  -3  -5  -5 350.201 70.3753  12
  -3   5  -5 473.973 131.553  54
  -3  -5  -5 337.590 67.3052  54
  -3  -5  -5 248.566 96.9352  49
  -3   5  -6 193.454 77.7891  16
   3   5   6 131.950 60.1140  25
  -3  -5  -6 152.395 56.7003  43
  -3  -5  -6 243.482 185.706  41
  -3   5  -6 262.554 113.443  41
  -3  -5  -6 188.275 98.4307  32
  -3  -5  -6 146.678 64.3782  12
   3  -5   6 235.656 89.8033   9
  -3  -5  -6 122.665 98.3838  49
   3   5   7 470.290 78.5543  25
  -3  -5  -7 596.995 66.0542  43
  -3   5  -7 638.124 126.456  41
  -3   5  -7 730.640 104.259  37
  -3  -5  -7 676.651 107.388  32
  -3  -5  -7 561.205 85.5871  12
  -3  -5  -7 457.608 108.417  49
   3   5   8 443.680 73.6753  25
  -3   5  -8 568.149 109.817  41
  -3   5  -8 576.588 93.7444  37
  -3  -5  -8 442.186 90.3474  32
  -3  -5  -8 562.732 102.795  49
  -3   5  -9 336.312 75.2734  37
  -3  -5  -9 212.527 66.7116  32
  -3  -5  -9 323.509 71.5420  49
  -3   5 -10-24.3955 49.8798  37
  -3  -5 -10-14.1451 45.9857  32
  -3   6  13 2387.92 139.388  45
   3   6 -13 2232.03 139.582  44
   3  -6 -13 2003.03 135.794  35
  -3  -6  13 1876.03 117.010  34
   3   6 -13 2363.81 126.429  29
  -3  -6  13 2024.44 119.967  53
   3  -6 -13 2259.65 149.675  51
  -3  -6  13 1964.88 119.575  27
  -3   6  13 2434.44 130.953  50
  -3   6  12 4450.93 241.013  45
   3   6 -12 4226.14 237.274  44
   3  -6 -12 4102.33 249.801  40
  -3  -6  12 3831.84 212.085  34
   3   6 -12 3740.22 218.096  29
  -3   6  12 3992.86 227.876  53
  -3  -6  12 3747.85 213.488  53
   3  -6 -12 4686.92 254.172  51
   3   6 -12 3656.79 211.796  51
  -3  -6  12 3718.33 214.504  27
  -3   6  12 4044.96 228.576  50
   3   6 -11 4631.96 253.507  44
   3  -6 -11 4672.57 283.993  40
  -3  -6  11 4078.80 228.980  34
   3   6 -11 4253.16 236.035  29
  -3   6  11 4113.66 244.294  53
  -3  -6  11 3590.35 226.167  53
  -3   6  11 4839.91 263.004  28
   3  -6 -11 4545.59 271.171  51
   3   6 -11 3938.25 236.911  51
  -3  -6  11 4026.08 232.889  27
  -3   6  11 4078.62 242.586  50
  -3  -6  11 3801.73 216.874  50
  -3  -6  10 6599.03 374.795  47
   3   6 -10 7125.37 398.817  44
   3  -6 -10 8284.19 437.342  40
   3  -6 -10 7715.10 474.883  35
  -3  -6  10 6912.92 377.432  34
   3  -6 -10 5850.58 375.909  30
  -3  -6  10 7264.38 376.662  55
   3  -6 -10 6166.98 383.625  29
   3   6 -10 7372.57 384.950  29
  -3   6  10 7251.76 393.648  53
  -3  -6  10 6813.51 376.065  53
  -3   6  10 8292.73 412.467  28
   3  -6 -10 7861.56 415.965  51
   3   6 -10 7086.33 390.345  51
  -3  -6  10 7485.67 387.392  27
  -3   6  10 7579.35 391.887  50
  -3  -6  10 6809.68 362.949  50
  -3  -6   9 5850.52 326.276  47
   3   6  -9 5867.57 339.131  44
  -3  -6   9 4948.90 343.300  23
   3  -6  -9 6714.16 380.606  40
   3   6  -9 5944.95 351.624  21
  -3   6   9 5124.89 356.353  20
   3  -6  -9 7186.42 468.845  35
  -3  -6   9 5757.82 324.308  34
  -3   6   9 6182.69 339.884  53
   3  -6  -9 7505.31 443.164  18
   3  -6  -9 4769.96 353.820  30
  -3  -6   9 5612.79 326.266  55
   3  -6  -9 5010.98 322.181  29
   3   6  -9 6100.09 329.963  29
  -3  -6   9 5521.67 319.997  53
  -3   6   9 6640.23 357.238  28
   3  -6  -9 6469.09 358.319  51
   3   6  -9 6135.67 341.101  51
  -3  -6   9 5683.50 333.691  27
  -3   6   9 5775.50 334.528  50
  -3  -6   8 12354.1 631.863  47
   3   6  -8 12347.3 632.105  44
  -3  -6   8 10453.9 643.172  23
   3  -6  -8 11802.9 657.190  40
   3  -6  -8 10235.0 694.233  22
   3   6  -8 12198.1 647.702  21
  -3   6   8 10717.5 648.338  20
   3  -6  -8 13811.8 779.379  35
   3  -6  -8 13553.4 722.471  18
   3   6  -8 11378.2 634.019  18
  -3  -6   8 11777.4 629.489  55
  -3   6   8 12600.7 633.484  53
   3  -6  -8 9369.43 740.395  11
  -3  -6   8 11641.3 614.339  53
  -3   6   8 13218.0 644.825  28
  -3  -6   8 11624.5 630.913  27
  -3   6   8 12031.7 626.869  50
  -3  -6   7 12058.8 657.748  47
   3   6  -7 12863.8 655.898  44
  -3  -6   7 10522.7 664.281  23
  -3  -6   7 11608.0 652.328  55
   3  -6  -7 12320.0 670.121  40
   3  -6  -7 10578.1 817.404  22
   3   6  -7 12525.0 669.719  21
   3  -6  -7 14184.8 791.349  35
  -3  -6   7 10417.4 634.983  34
   3  -6  -7 14166.7 730.643  18
   3   6  -7 13355.8 664.726  18
   3  -6  -7 9273.98 834.500   8
  -3   6   7 12347.4 652.700  53
   3  -6  -7 9023.37 839.609  11
  -3   6   7 14471.1 671.658  28
  -3  -6   7 12717.5 636.296  53
  -3   6   7 13301.8 654.038  50
   3  -6  -6 2418.20 408.391  11
  -3  -6   6 1702.68 165.917  47
  -3   6   6 2114.04 158.094  45
   3  -6  -6 2168.99 384.127   8
  -3  -6   6 1854.50 166.293  23
   3  -6  -6 1988.52 171.501  40
   3  -6  -6 2148.62 385.891  22
   3   6  -6 1899.26 168.563  21
  -3  -6   6 2000.32 147.699  34
   3  -6  -6 1623.50 243.390  19
   3  -6  -6 2079.32 202.944  18
   3   6  -6 1964.69 161.186  18
  -3   6   6 2026.10 164.155  53
  -3   6   6 2087.81 176.077  28
  -3  -6   6 1830.00 163.448  55
   3  -6  -6 1647.85 293.717  17
  -3  -6   6 1598.81 152.141  27
  -3   6   6 2117.08 160.277  50
  -3  -6   6 2089.63 149.274  48
  -3  -6   5 13735.9 754.532  47
  -3   6   5 13141.8 741.527  45
   3  -6  -5 14817.7 942.816  22
   3   6  -5 15164.8 772.808  21
  -3   6   5 11652.0 723.726  34
  -3  -6   5 16461.6 739.481  34
   3  -6  -5 14180.7 783.124  18
   3   6  -5 15206.0 763.317  18
  -3  -6   5 13687.4 750.938  55
  -3   6   5 13557.0 747.370  53
   3  -6  -5 15648.9 847.322  17
  -3   6   5 15453.4 761.396  28
  -3  -6   5 14831.2 746.740  27
  -3   6   5 14409.1 748.782  50
  -3  -6   5 15854.0 757.060  48
  -3  -6   4 23820.3 1205.85  47
  -3   6   4 21486.7 1194.16  45
  -3  -6   4 28200.7 1186.40  34
   3   6  -4 24196.5 1214.61  18
  -3  -6   4 24043.1 1197.85  55
  -3   6   4 21171.7 1197.71  53
   3  -6  -4 21989.5 1250.44  17
  -3   6   4 23089.0 1207.81  28
   3  -6  -4 24723.4 1313.40   8
   3  -6  -4 24269.5 1321.27  11
  -3  -6   4 25088.4 1191.59  27
  -3   6   4 22876.5 1197.77  50
  -3  -6   4 23724.9 1209.70  26
  -3  -6   4 22359.8 1209.58  49
  -3  -6   4 22223.3 1207.27  48
  -3   6   3 7655.33 473.248  45
   3  -6  -3 7829.43 549.139  22
  -3  -6   3 9873.31 454.865  34
   3   6  -3 9689.52 500.123  18
  -3  -6   3 8410.59 466.581  55
  -3   6   3 7478.22 471.111  53
   3  -6  -3 7409.10 506.884  17
   3  -6  -3 9038.40 559.652  11
   3  -6  -3 8009.08 538.538   8
  -3  -6   3 9739.55 460.517  27
  -3   6   3 7955.96 471.944  50
  -3  -6   3 8775.46 486.110  26
  -3  -6   3 8080.79 480.931  49
  -3  -6   3 9129.81 490.275  48
  -3  -6   2 14833.4 713.992  47
   3   6  -2 17076.4 762.339  25
  -3   6   2 12646.6 724.566  45
  -3   6   2 10565.0 710.074  43
   3  -6  -2 13284.3 782.415  22
  -3   6   2 12453.9 717.422  38
   3   6  -2 16028.8 756.236  21
  -3  -6   2 15531.3 696.973  34
  -3   6   2 11929.2 717.292  53
  -3   6   2 13344.0 722.918  28
   3  -6  -2 14054.2 781.878  11
   3  -6  -2 13061.5 770.052   8
  -3  -6   2 15497.5 699.481  27
  -3   6   2 12317.3 718.989  50
   3   6  -2 14710.1 732.431   4
  -3  -6   2 14049.5 733.010  26
  -3  -6   2 13298.0 729.978  49
  -3   6   2 11301.7 731.756  16
  -3  -6   2 15138.6 736.615  48
  -3  -6   1 10622.6 480.567  47
  -3   6   1 9180.63 507.011  45
  -3   6   1 7447.34 485.059  43
   3  -6  -1 8287.88 537.660  22
   3   6  -1 9203.33 495.436   3
  -3   6   1 8429.66 491.589  38
  -3  -6   1 9820.22 476.864  55
  -3   6   1 7681.26 481.924  54
  -3   6   1 8423.26 492.625  28
   3  -6  -1 8134.34 521.265  17
   3  -6  -1 8279.46 533.155  11
   3  -6  -1 9211.59 535.921   8
  -3   6   1 8227.34 495.289  50
  -3  -6   1 10229.7 502.899  26
  -3   6   1 8092.61 509.136  16
   3   6  -1 9899.64 503.184   4
  -3  -6   1 10714.5 502.675  48
  -3  -6   0 10499.5 479.879  47
   3   6   0 8921.65 505.711   4
  -3   6   0 9338.83 519.242  45
  -3   6   0 7942.20 492.464  43
   3  -6   0 8947.59 543.462  22
  -3   6   0 8629.30 499.144  38
  -3  -6   0 10180.6 480.794  55
  -3   6   0 8218.17 496.400  54
  -3   6   0 7625.43 490.949  28
   3  -6   0 9088.21 534.207  17
   3  -6   0 10342.0 546.589  11
   3  -6   0 8663.67 531.228   8
  -3   6   0 8359.14 505.667  50
  -3   6   0 8351.55 517.110  16
  -3  -6   0 10416.6 500.664  48
  -3  -6  -1 6205.19 297.829  47
   3   6   1 5598.64 337.142   4
  -3   6  -1 4567.78 316.771  43
  -3   6  -1 5515.13 322.788  42
   3  -6   1 4973.51 360.774  22
  -3   6  -1 5294.50 323.091  38
  -3  -6  -1 5595.56 299.930  55
  -3   6  -1 5072.49 324.997  54
  -3   6  -1 5107.64 326.907  28
   3  -6   1 4602.89 346.408  17
   3  -6   1 5254.28 350.874  11
   3  -6   1 5266.09 348.311   8
  -3  -6  -1 5817.35 312.362  26
  -3   6  -1 4824.50 337.788  16
   3   6   2 15673.1 920.881  25
   3   6   2 17487.4 927.018   4
  -3   6  -2 16443.2 894.876  43
  -3   6  -2 17374.5 902.090  42
   3   6   2 19995.8 937.924   7
   3  -6   2 16565.7 932.899  22
  -3   6  -2 16708.3 900.566  38
  -3  -6  -2 18511.4 872.844  55
   3  -6   2 15406.8 915.099   5
  -3   6  -2 16491.2 904.174  54
  -3   6  -2 15756.8 901.954  28
   3  -6   2 16603.3 938.140  17
   3  -6   2 17129.6 923.412  11
  -3   6  -2 17752.8 930.208  16
  -3  -6  -2 17736.0 907.978  49
  -3  -6  -2 19828.2 887.384  48
   3   6   3 9283.98 452.478  25
  -3   6  -3 6527.68 405.982  43
  -3   6  -3 6956.06 416.218  42
  -3   6  -3 6235.97 405.980  41
   3  -6   3 6501.57 438.211  22
   3   6   3 7515.68 432.518   7
  -3   6  -3 6702.08 412.490  38
  -3   6  -3 8773.70 422.267  37
   3  -6   3 6475.38 467.503  19
  -3  -6  -3 7727.68 401.105  32
  -3   6  -3 6055.18 417.081  54
  -3  -6  -3 8112.68 391.605  54
   3  -6   3 6400.51 446.265  17
  -3   6  -3 7307.90 438.732  16
  -3  -6  -3 6025.97 409.909  49
  -3  -6  -3 7691.93 393.371  48
   3   6   4 5802.69 337.701  25
  -3   6  -4 5248.10 311.308  46
  -3  -6  -4 5615.50 301.600  43
  -3   6  -4 5371.35 324.567  42
  -3   6  -4 4857.67 326.358  41
   3   6   4 5504.77 332.658   7
   3  -6   4 4142.20 373.843  19
  -3  -6  -4 5418.75 318.883  32
  -3   6  -4 4286.40 336.749  54
  -3  -6  -4 5954.62 297.395  54
   3  -6   4 4262.36 357.075  17
  -3   6  -4 5721.01 351.870  16
  -3  -6  -4 4555.34 318.359  49
   3   6   5 6554.24 347.924  25
  -3   6  -5 5651.48 314.327  46
  -3  -6  -5 6101.91 302.485  43
  -3   6  -5 5257.76 312.107  42
  -3   6  -5 5578.86 344.367  41
   3  -6   5 4808.63 373.029   9
   3  -6   5 2681.66 351.432  19
  -3  -6  -5 4908.28 324.564  32
  -3   6  -5 5286.10 354.096  54
  -3   6  -5 7092.75 373.847  16
  -3  -6  -5 4633.98 324.759  49
   3   6   6 5013.43 302.921  25
  -3   6  -6 4542.12 272.944  46
  -3  -6  -6 5094.54 264.495  43
  -3   6  -6 4750.83 306.594  41
  -3   6  -6 5177.93 295.144  37
   3  -6   6 4828.38 322.013   9
  -3  -6  -6 3869.31 289.731  32
  -3   6  -6 4651.04 322.929  54
  -3   6  -6 5744.40 332.471  16
  -3  -6  -6 3694.29 291.853  49
   3   6   7 4504.17 281.213  25
  -3  -6  -7 4366.29 240.248  43
  -3   6  -7 4535.02 283.797  41
  -3   6  -7 4778.47 276.108  37
  -3  -6  -7 4534.86 279.974  32
  -3  -6  -7 3801.63 282.492  49
  -3   6  -8 3150.40 216.947  41
  -3   6  -8 3683.39 217.650  37
  -3  -6  -8 3601.82 219.386  32
  -3  -6  -8 2820.29 223.537  49
  -3   6  -9 1317.25 119.399  41
  -3   6  -9 1637.10 120.982  37
  -3  -6  -9 1753.03 122.878  32
  -3  -6  -9 1421.42 124.372  49
  -3   6 -10 3033.65 189.734  41
  -3  -6 -10 3316.33 192.167  32
   3   7 -12 980.457 95.0851  44
   3  -7 -12 1135.80 115.081  40
  -3  -7  12 1084.49 73.8756  34
   3   7 -12 1033.85 78.7398  29
  -3  -7  12 1023.01 71.1288  53
  -3  -7  12 1054.93 74.6108  27
  -3   7  12 1202.36 86.1923  50
   3   7 -11 1274.53 111.439  44
   3  -7 -11 1250.66 140.852  40
   3  -7 -11 1111.78 150.271  35
  -3  -7  11 1183.93 86.0556  34
   3   7 -11 1306.20 94.5001  29
  -3   7  11 1359.34 106.763  53
  -3  -7  11 1149.01 83.5819  53
  -3   7  11 1280.73 123.186  28
  -3  -7  11 1109.63 89.1179  27
  -3   7  11 1201.92 101.687  50
  -3  -7  10 2438.95 150.143  47
   3   7 -10 2543.76 172.825  44
  -3  -7  10 2191.52 165.950  23
   3  -7 -10 2719.11 211.543  40
   3  -7 -10 2694.38 245.786  35
  -3  -7  10 2338.23 148.128  34
   3  -7 -10 2120.97 156.190  30
  -3  -7  10 2392.30 151.864  55
   3   7 -10 2467.53 158.150  29
  -3   7  10 2723.08 171.803  53
  -3  -7  10 2256.64 145.464  53
  -3   7  10 2600.28 189.512  28
   3   7 -10 2632.24 161.095  51
  -3  -7  10 2735.58 161.110  27
  -3   7  10 2301.81 162.794  50
  -3  -7   9 1063.48 94.4882  47
   3   7  -9 999.415 104.842  44
  -3   7   9 1190.16 105.620  42
  -3  -7   9 691.117 93.9178  23
   3  -7  -9 887.814 151.520  40
   3   7  -9 937.026 104.505  21
   3  -7  -9 1020.59 227.669  35
  -3  -7   9 897.387 96.8164  55
   3  -7  -9 847.261 129.946  30
   3   7  -9 991.985 96.5995  29
  -3   7   9 956.030 106.896  53
  -3  -7   9 969.547 81.6233  53
  -3   7   9 788.230 124.619  28
  -3  -7   9 884.416 92.4680  27
   3   7  -9 1034.11 104.463  51
  -3   7   9 971.269 102.555  50
  -3  -7   8 2946.00 201.374  47
   3   7  -8 3325.53 212.208  44
  -3  -7   8 2411.92 205.239  23
   3  -7  -8 3124.73 242.947  40
   3  -7  -8 2775.40 254.374  22
   3   7  -8 2585.69 204.657  21
   3  -7  -8 3542.07 349.259  35
  -3  -7   8 2992.57 190.098  34
  -3  -7   8 3353.20 209.576  55
   3  -7  -8 3352.10 326.078  11
  -3   7   8 3277.61 210.933  53
  -3   7   8 3329.27 226.094  28
  -3  -7   8 3073.44 182.830  53
  -3  -7   8 3251.24 204.354  27
  -3   7   8 3474.32 210.635  50
  -3  -7   7 1811.33 155.441  47
   3  -7  -7 1479.63 317.262   8
   3   7  -7 1982.31 155.161  44
  -3  -7   7 1371.63 146.804  23
   3  -7  -7 1774.47 179.212  40
   3  -7  -7 2280.98 304.450  22
   3   7  -7 1875.67 159.566  21
   3  -7  -7 2258.73 303.316  35
  -3  -7   7 1952.45 139.731  34
  -3  -7   7 2029.79 160.051  55
  -3   7   7 1940.89 154.685  53
  -3   7   7 1965.61 171.588  28
  -3   7   7 1835.36 151.110  50
   3  -7  -7 1294.87 339.956  11
  -3  -7   6 472.255 93.6344  47
   3  -7  -6-36.6621 328.854   8
  -3  -7   6 339.890 81.6415  23
   3  -7  -6 310.469 111.193  40
   3  -7  -6 205.812 289.634  22
   3   7  -6 383.162 84.0911  21
   3  -7  -6 330.093 215.670  35
  -3  -7   6 388.077 69.9965  34
   3   7  -6 406.104 75.9426  18
  -3  -7   6 263.531 90.4056  55
  -3   7   6 343.042 85.6030  53
  -3   7   6 229.721 98.7569  28
   3  -7  -6 25.4938 237.165  17
  -3  -7   6 288.744 74.0978  27
  -3   7   6 391.001 92.9126  50
  -3  -7   6 453.188 76.6262  48
   3  -7  -6 943.937 375.367  11
  -3  -7   5 336.155 92.2708  47
   3  -7  -5 299.495 93.9821  40
   3  -7  -5 172.938 307.001  22
  -3   7   5 240.665 79.0522  38
   3   7  -5 447.729 86.5925  21
   3  -7  -5 422.143 183.094  35
  -3  -7   5 446.962 68.4687  34
   3  -7  -5 250.122 213.621  19
   3   7  -5 299.281 76.6152  18
  -3  -7   5 326.345 92.0816  55
  -3   7   5 318.159 88.7708  53
  -3   7   5 277.601 95.1590  28
   3  -7  -5 211.268 232.135  17
  -3  -7   5 287.965 69.1126  27
  -3   7   5 357.840 90.0442  50
  -3  -7   5 357.030 86.4843  48
   3  -7  -5 309.109 301.605  11
   3  -7  -4 1342.42 308.201  11
  -3  -7   4 1006.24 117.728  47
   3  -7  -4 1284.74 284.516   8
   3  -7  -4 786.537 279.273  22
  -3   7   4 844.546 108.019  38
   3   7  -4 1031.98 159.505  21
  -3  -7   4 1212.41 96.4104  34
   3  -7  -4 1217.43 211.821  19
   3   7  -4 1265.71 123.887  18
  -3  -7   4 1205.97 122.574  55
  -3   7   4 857.410 115.973  53
  -3   7   4 979.371 128.671  28
  -3  -7   4 1166.35 106.382  27
   3  -7  -4 1297.64 244.741  17
  -3   7   4 1081.68 120.195  50
  -3  -7   4 1229.39 127.916  26
  -3  -7   4 1208.30 132.153  48
   3  -7  -3 320.585 204.490  11
   3   7  -3 318.955 76.1018  25
   3  -7  -3 414.508 207.184   8
  -3   7   3 374.292 86.4659  42
   3  -7  -3 290.997 209.181  22
  -3   7   3 171.357 74.5277  38
   3   7  -3 306.827 173.592  21
  -3  -7   3 354.634 56.4518  34
   3   7  -3 303.804 84.1203  18
  -3   7   3 331.306 88.1312  53
   3  -7  -3 551.325 177.377  17
  -3  -7   3 351.588 62.6949  27
  -3   7   3 118.463 79.9501  50
  -3  -7   3 239.068 87.2243  49
  -3  -7   3 326.221 93.8749  26
  -3  -7   3 155.611 97.2677  48
   3  -7  -2 828.083 199.374  11
  -3   7   2 582.777 106.437  16
  -3  -7   2 770.765 94.3464  47
   3   7  -2 1049.81 136.268  25
   3   7  -2 804.911 144.660   4
   3  -7  -2 670.029 192.063   8
  -3   7   2 746.880 108.684  42
   3  -7  -2 514.768 198.154  22
  -3   7   2 689.529 101.838  38
  -3  -7   2 906.950 96.3382  55
  -3   7   2 547.205 110.804  28
  -3   7   2 671.253 110.049  50
  -3  -7   2 858.102 116.605  49
  -3  -7   2 750.181 111.741  26
  -3  -7   2 716.126 117.796  48
   3  -7  -1 224.139 161.372  11
  -3   7   1 182.626 79.9248  16
  -3  -7   1 293.759 65.6128  47
   3   7  -1 199.737 153.903  25
   3   7  -1 193.969 58.2803   4
   3  -7  -1 238.573 147.257   8
  -3   7   1 257.338 88.1105  42
   3  -7  -1 155.537 176.981  22
  -3   7   1 200.441 78.2644  38
  -3  -7   1 322.984 67.7253  55
  -3   7   1 196.252 98.6199  54
  -3   7   1 129.090 91.6939  28
   3  -7  -1 76.8161 138.759  17
  -3   7   1 216.631 90.6894  50
  -3  -7   1 243.773 91.8663  49
  -3  -7   1 211.415 82.0788  26
  -3  -7   1 278.302 94.4905  48
  -3  -7   0 645.738 72.8861  47
   3  -7   0 608.774 162.424  11
  -3   7   0 574.847 98.8477  16
   3   7   0 525.553 78.9744   4
   3  -7   0 788.206 168.811   8
   3  -7   0 521.127 170.817  22
  -3   7   0 424.317 88.4628  38
  -3  -7   0 567.125 74.4151  55
  -3   7   0 342.140 111.992  54
  -3   7   0 488.722 111.929  28
   3  -7   0 322.974 167.523  17
   3  -7   0 250.940 86.5100   5
  -3   7   0 364.590 104.132  50
  -3  -7   0 450.000 103.642  49
  -3  -7   0 638.662 101.655  48
   3  -7   1 891.266 173.113  11
  -3  -7  -1 966.818 80.7162  47
  -3   7  -1 715.581 110.660  16
   3  -7   1 699.170 158.543   8
  -3   7  -1 890.441 115.433  42
   3  -7   1 819.879 181.670  22
  -3   7  -1 901.721 113.999  38
   3  -7   1 799.766 185.292  19
  -3  -7  -1 731.133 81.5698  55
  -3   7  -1 654.346 134.808  54
  -3   7  -1 761.920 127.934  28
   3  -7   1 741.426 180.862  17
  -3  -7  -1 885.377 99.3390  26
  -3  -7  -1 914.141 124.007  49
  -3   7  -2 2120.65 186.513  45
  -3   7  -2 1594.82 161.305  42
   3  -7   2 1774.15 223.320  22
  -3   7  -2 1914.20 158.209  38
   3   7   2 1240.05 148.822   7
   3  -7   2 1872.41 238.598  19
  -3  -7  -2 1756.67 121.539  55
  -3   7  -2 1464.43 184.586  54
  -3   7  -2 1596.42 168.539  28
   3  -7   2 1571.74 218.696  17
  -3   7  -2 1697.20 166.771  16
  -3  -7  -2 1889.07 139.803  48
  -3   7  -3 670.240 103.967  16
  -3   7  -3 621.284 118.679  42
  -3   7  -3 519.367 100.734  38
   3   7   3 817.857 109.840   7
   3  -7   3 514.099 173.015  19
  -3   7  -3 439.075 145.504  54
  -3  -7  -3 698.216 81.5684  54
   3  -7   3 363.300 154.770  17
  -3  -7  -3 745.077 87.7431  48
  -3   7  -4 949.367 124.364  16
   3   7   4 976.850 124.932  25
  -3   7  -4 710.150 100.545  46
  -3  -7  -4 1060.92 97.7326  43
  -3   7  -4 1056.17 121.441  42
  -3   7  -4 867.658 119.370  41
  -3  -7  -4 958.839 99.8570  32
   3  -7   4 440.790 176.268  19
  -3  -7  -4 985.990 87.6844  54
  -3   7  -4 931.130 166.101  54
   3  -7   4 495.287 151.030  17
  -3  -7  -4 874.746 88.9014  48
  -3   7  -5 203.727 76.2342  16
   3   7   5 316.249 82.7210  25
  -3   7  -5 151.734 64.8508  46
  -3  -7  -5 193.779 59.5888  43
  -3   7  -5 162.090 74.6397  42
  -3   7  -5 126.917 88.1498  41
  -3   7  -5 263.237 85.2104  37
   3  -7   5 263.645 119.673  19
  -3  -7  -5 147.106 70.1845  32
   3  -7   5 138.392 97.3696   9
  -3  -7  -5 240.426 85.3017  49
   3   7   6 299.286 80.5535  25
  -3   7  -6 264.514 63.6708  46
  -3  -7  -6 240.557 55.6295  43
  -3   7  -6 381.098 89.1337  41
  -3   7  -6 368.641 85.6366  37
  -3  -7  -6 352.809 84.8860  32
  -3  -7  -6 299.540 91.2065  49
   3   7   7 158.307 67.1902  25
  -3   7  -7 33.2244 45.0230  46
  -3  -7  -7 65.4754 38.4821  43
  -3   7  -7 136.100 73.0863  41
   3  -7   7-6.75752 52.5261  23
  -3   7  -7 87.9709 68.4745  37
  -3  -7  -7 135.710 77.7523  32
  -3  -7  -7 73.5833 84.1418  49
  -3   7  -8 89.4704 57.4267  41
  -3   7  -8 121.608 63.3560  37
  -3  -7  -8-47.7455 64.5488  32
  -3  -7  -8 99.9086 80.2934  49
  -3   7  -9 287.323 51.9604  41
  -3   7  -9 318.928 58.1576  37
  -3  -7  -9 240.127 57.9085  32
  -3  -7  -9 386.612 72.0124  49
  -3   8  11 6262.54 317.110  45
   3   8 -11 5685.68 307.723  44
   3  -8 -11 6665.52 333.131  40
   3  -8 -11 5881.35 334.973  35
  -3  -8  11 5355.30 285.116  34
  -3  -8  11 4892.69 282.859  55
   3   8 -11 5723.63 293.368  29
  -3  -8  11 5538.71 290.330  27
  -3  -8  10 3084.78 171.678  47
  -3   8  10 3417.45 200.329  45
   3   8 -10 3254.01 194.132  44
   3  -8 -10 3403.74 222.484  40
   3  -8 -10 3537.88 254.317  35
   3  -8 -10 2483.23 173.421  30
  -3  -8  10 3041.00 172.922  55
   3   8 -10 3095.36 177.932  29
  -3   8  10 2732.41 182.534  53
  -3  -8  10 2862.34 160.526  53
  -3   8  10 2881.92 213.909  28
  -3  -8  10 2861.73 173.702  27
  -3   8  10 2784.57 179.510  50
  -3  -8   9 6626.13 371.286  47
  -3   8   9 7287.01 392.239  45
   3   8  -9 7342.85 390.879  44
   3  -8  -9 7525.38 414.279  40
   3  -8  -9 7923.70 469.708  35
  -3  -8   9 6568.44 363.663  34
   3  -8  -9 6576.53 396.091  30
  -3  -8   9 7050.78 375.057  55
   3   8  -9 7263.09 377.873  29
  -3   8   9 6886.38 383.666  53
  -3   8   9 7639.01 412.391  28
   3   8  -9 6457.36 369.295  51
  -3  -8   9 7221.14 374.542  27
  -3   8   9 7025.62 381.448  50
  -3  -8   8 4672.60 268.665  47
  -3   8   8 4669.72 279.260  45
   3   8  -8 4700.10 277.146  44
  -3  -8   8 4161.56 271.945  23
  -3   8   8 4849.28 275.095  42
   3  -8  -8 4579.74 296.533  40
   3  -8  -8 3892.32 300.157  22
   3  -8  -8 5387.80 386.153  35
  -3  -8   8 4701.64 253.218  34
   3  -8  -8 4581.65 332.353  30
  -3  -8   8 4805.35 269.152  55
  -3   8   8 4304.46 273.745  53
  -3   8   8 4549.30 296.421  28
   3   8  -8 4324.30 266.280  51
  -3   8   8 4595.26 271.291  50
  -3  -8   7 11889.0 606.335  47
  -3   8   7 11253.6 611.117  45
   3   8  -7 12473.6 612.543  44
  -3   8   7 11719.7 606.386  42
   3  -8  -7 11854.5 624.016  40
   3  -8  -7 12210.4 713.221  22
  -3   8   7 10749.1 602.008  38
   3   8  -7 9986.84 607.854  21
   3  -8  -7 12477.3 714.914  35
  -3  -8   7 11289.1 586.899  34
  -3  -8   7 11233.2 604.814  55
  -3   8   7 11180.6 608.929  53
   3  -8  -7 13678.1 798.794  11
  -3   8   7 12018.8 631.312  28
  -3  -8   7 11110.1 597.201  27
  -3   8   7 11557.2 607.162  50
  -3  -8   6 9773.44 510.893  47
  -3   8   6 9498.37 511.301  45
  -3   8   6 9569.77 509.010  42
   3  -8  -6 8407.33 508.317  40
   3  -8  -6 9444.86 692.226  22
  -3   8   6 8820.30 500.038  38
   3   8  -6 8773.38 512.113  21
   3  -8  -6 9721.41 600.471  35
  -3  -8   6 10032.4 487.949  34
  -3  -8   6 8966.88 504.894  55
  -3   8   6 8977.44 508.501  53
  -3   8   6 9248.63 525.173  28
  -3  -8   6 8579.24 495.084  27
  -3   8   6 9801.45 508.936  50
  -3  -8   6 9706.18 494.336  48
  -3  -8   5 7042.64 442.168  47
  -3   8   5 8015.01 451.592  45
  -3   8   5 8844.20 450.100  42
  -3   8   5 7717.48 437.012  38
   3   8  -5 8056.24 452.867  21
   3  -8  -5 7708.35 514.818  35
  -3  -8   5 8634.28 422.618  34
   3  -8  -5 5275.27 576.083  19
   3   8  -5 8461.71 447.458  18
  -3  -8   5 6711.20 438.197  55
  -3   8   5 7447.84 443.566  53
   3  -8  -5 8295.02 623.214  17
   3  -8  -5 6171.51 668.528  11
  -3   8   5 7697.65 461.516  28
  -3  -8   5 7541.38 430.255  27
  -3   8   5 8084.84 444.544  50
  -3  -8   5 8365.72 440.729  26
  -3  -8   5 9165.79 443.575  48
   3   8  -4 5435.74 331.094  25
  -3  -8   4 4481.33 315.173  47
  -3   8   4 5412.57 331.793  45
   3  -8  -4 3414.58 486.002   8
  -3   8   4 5608.20 325.748  42
   3  -8  -4 4695.23 534.619  22
  -3   8   4 4910.68 311.776  38
   3   8  -4 5828.54 338.570  21
   3  -8  -4 5016.28 375.993  35
  -3  -8   4 6087.26 295.743  34
   3  -8  -4 3762.59 469.678  19
   3   8  -4 5723.24 327.837  18
  -3  -8   4 4893.95 317.366  55
  -3   8   4 4655.35 318.165  53
   3  -8  -4 4387.54 480.607  17
  -3   8   4 5187.20 341.678  28
  -3  -8   4 5655.00 307.707  27
  -3   8   4 5233.89 320.653  50
  -3  -8   4 6336.23 326.402  26
  -3  -8   4 6091.15 334.994  48
   3  -8  -4 3801.37 510.831  11
   3   8  -3 14037.3 697.487  25
  -3   8   3 12678.3 683.819  45
  -3   8   3 12892.2 679.112  42
   3  -8  -3 11260.5 854.301  22
  -3   8   3 11485.1 663.213  38
   3   8  -3 14021.8 706.898  21
   3  -8  -3 9985.34 808.488  19
   3   8  -3 14486.9 690.782  18
   3  -8  -3 10586.0 816.742  17
   3  -8  -3 10332.4 827.842   8
   3  -8  -3 13334.3 871.133  11
  -3  -8   3 13833.9 653.498  27
  -3   8   3 11165.4 667.501  50
  -3  -8   3 13400.8 679.578  26
  -3  -8   3 12765.1 680.498  49
  -3  -8   3 11472.8 675.062  48
   3   8  -2 5597.83 324.341  25
  -3  -8   2 5332.59 287.377  47
  -3   8   2 4877.06 309.416  45
  -3   8   2 4655.78 294.052  42
   3  -8  -2 3768.22 433.992  22
  -3   8   2 4316.42 282.292  38
   3   8  -2 5220.02 337.443  21
   3  -8  -2 3318.61 411.241  19
   3   8  -2 5022.88 302.760  18
  -3  -8   2 5308.12 285.808  55
   3  -8  -2 3598.79 418.674   8
   3  -8  -2 4617.22 443.718  11
  -3   8   2 4158.53 288.998  50
  -3  -8   2 4098.94 290.654  26
  -3  -8   2 5819.17 311.063  49
  -3   8   2 4057.24 306.917  16
  -3  -8   2 3801.54 292.723  48
  -3  -8   1 15673.5 705.551  47
   3   8  -1 17685.3 797.549  25
  -3   8   1 13731.5 733.861  45
  -3   8   1 13160.3 717.678  42
   3  -8  -1 12628.9 856.394  22
  -3   8   1 12236.1 705.769  38
   3   8  -1 16448.0 750.644  21
  -3  -8   1 15554.4 704.398  55
   3  -8  -1 11857.5 842.068  17
  -3   8   1 12427.6 726.991  28
   3  -8  -1 12142.4 838.907   8
   3  -8  -1 13238.1 853.971  11
  -3   8   1 11692.3 714.336  50
  -3  -8   1 11475.8 711.108  26
  -3  -8   1 15007.4 732.168  49
  -3   8   1 12016.7 737.005  16
  -3  -8   1 12049.7 718.614  48
  -3  -8   0 6070.26 297.932  47
  -3   8   0 5506.29 340.609  45
  -3   8   0 5303.24 326.482  42
   3  -8   0 4473.01 434.224  22
  -3   8   0 4830.22 309.749  38
   3  -8   0 4070.45 431.438  19
  -3  -8   0 5390.08 295.148  55
  -3   8   0 4718.58 331.611  54
   3  -8   0 3425.04 418.063  17
  -3   8   0 4585.57 329.059  28
   3  -8   0 4197.29 420.786   8
   3  -8   0 4456.38 423.405  11
  -3  -8   0 6530.41 344.205  49
  -3   8   0 4778.68 335.263  16
  -3  -8   0 5650.81 325.946  48
  -3  -8  -1 12389.5 612.466  47
  -3   8  -1 11782.0 665.474  45
   3  -8   1 10563.6 742.652  22
  -3   8  -1 11402.0 638.537  38
   3  -8   1 8004.90 730.340  19
  -3  -8  -1 13191.3 618.378  55
  -3   8  -1 10699.3 657.381  54
  -3   8  -1 10847.2 657.157  28
   3  -8   1 9589.59 740.908  17
  -3  -8  -1 13856.1 643.770  26
  -3  -8  -1 13149.0 661.174  49
  -3   8  -1 11891.6 667.919  16
  -3   8  -2 3150.54 227.096  45
  -3   8  -2 2708.30 211.838  42
   3  -8   2 1674.74 248.076  22
  -3   8  -2 2846.38 199.245  38
   3  -8   2 1185.07 276.434  19
  -3   8  -2 2679.60 231.717  54
  -3   8  -2 2285.94 213.683  28
   3  -8   2 1708.86 270.499  17
  -3  -8  -2 3100.56 186.607  26
  -3  -8  -2 3005.61 214.168  49
  -3   8  -2 2818.98 214.740  16
  -3  -8  -2 3052.76 192.689  48
  -3   8  -3 7798.72 437.525  42
  -3   8  -3 7559.08 426.548  38
   3  -8   3 4198.92 468.330  19
  -3   8  -3 7973.89 459.688  54
  -3  -8  -3 8426.38 399.631  54
   3  -8   3 4682.63 466.916  17
  -3   8  -3 7781.63 450.439  16
  -3  -8  -3 7369.07 430.135  49
  -3  -8  -3 8099.99 411.325  48
  -3   8  -4 2922.73 209.837  46
  -3  -8  -4 3400.85 198.394  43
  -3   8  -4 3303.07 220.941  42
  -3   8  -4 3714.67 215.966  37
   3  -8   4 2180.56 240.921   9
   3  -8   4 2459.06 256.846  19
   3  -8   4 2451.82 246.338  17
  -3   8  -4 3494.74 236.811  16
  -3  -8  -4 3132.05 193.663  48
  -3   8  -5 7382.80 410.213  46
  -3  -8  -5 8002.21 397.538  43
  -3   8  -5 7363.46 408.066  42
  -3   8  -5 6736.91 399.720  41
  -3   8  -5 8308.18 417.509  37
   3  -8   5 7223.72 451.592  19
  -3  -8  -5 7146.00 398.920  32
  -3   8  -6 2700.84 166.571  46
  -3  -8  -6 2453.54 149.115  43
  -3   8  -6 2229.01 158.918  41
  -3   8  -6 2750.41 175.474  37
  -3  -8  -6 2299.35 165.268  32
  -3   8  -7 5002.69 259.675  46
  -3  -8  -7 4518.71 243.933  43
  -3   8  -7 4114.38 255.888  41
  -3   8  -7 5437.68 275.612  37
  -3  -8  -7 4839.77 270.878  32
  -3   8  -8 1268.76 96.6703  41
  -3  -8  -8 1486.72 111.866  32
  -3  -8  -8 1429.67 128.669  49
  -3   9  11 424.283 69.9213  45
   3   9 -11 447.762 58.6891  44
   3  -9 -11 390.879 83.7989  40
   3  -9 -11 532.123 91.4020  35
  -3  -9  11 345.497 41.7103  27
  -3  -9  11 405.963 37.9437  55
  -3  -9  10 1149.17 81.0252  47
  -3   9  10 1230.80 109.978  45
   3   9 -10 1263.48 101.854  44
   3  -9 -10 1283.77 125.360  40
   3  -9 -10 1169.62 139.997  35
  -3  -9  10 1077.60 76.8339  34
   3  -9 -10 1090.54 87.1558  30
  -3  -9  10 1173.81 85.0162  55
   3   9 -10 1201.61 86.4201  29
  -3   9  10 1282.68 136.866  28
  -3  -9  10 1144.28 82.6185  27
  -3  -9   9 136.015 48.6457  47
  -3  -9   9 235.953 52.6167  55
  -3   9   9 282.493 75.3046  45
   3   9  -9 229.553 63.9056  44
   3  -9  -9 129.715 89.2322  40
   3  -9  -9 414.628 135.655  35
  -3  -9   9 169.717 38.7718  34
   3  -9  -9 93.1086 75.5140  30
   3   9  -9 133.503 48.6540  29
  -3   9   9 173.787 98.9743  28
  -3  -9   9 127.058 41.2811  27
  -3  -9   8 2030.44 138.205  47
  -3   9   8 2161.05 158.104  45
   3   9  -8 2126.42 150.787  44
  -3   9   8 1998.45 152.618  42
   3  -9  -8 1736.66 162.757  40
  -3   9   8 1977.80 145.481  38
   3  -9  -8 1853.72 212.664  35
  -3  -9   8 2012.30 123.896  34
   3  -9  -8 1682.56 179.914  30
  -3  -9   8 2161.75 140.300  55
  -3   9   8 2068.15 181.627  28
  -3   9   8 1940.75 143.401  50
  -3  -9   7 183.804 61.8871  47
  -3   9   7 126.498 77.6176  45
   3   9  -7 185.236 69.0474  44
  -3   9   7 218.042 74.2578  42
   3  -9  -7 199.797 96.0561  40
   3  -9  -7 331.563 120.836  22
  -3   9   7 227.734 72.7141  38
   3  -9  -7 368.655 155.503  35
  -3  -9   7 220.645 47.1310  34
  -3  -9   7 263.945 67.7257  55
  -3   9   7 196.970 106.611  28
  -3  -9   7 183.535 50.4096  27
  -3   9   7 271.752 74.7311  50
  -3  -9   6 1741.75 134.519  47
  -3   9   6 1458.90 145.534  45
  -3   9   6 1686.47 141.863  42
   3  -9  -6 1609.76 143.301  40
   3  -9  -6 1582.62 237.680  22
  -3   9   6 1564.91 134.838  38
   3   9  -6 1548.34 131.914  21
   3  -9  -6 1661.07 205.628  35
  -3  -9   6 1832.06 115.052  34
  -3  -9   6 1313.87 129.126  55
  -3   9   6 1434.73 171.581  28
  -3  -9   6 1618.39 121.276  27
  -3   9   6 1950.32 146.052  50
  -3  -9   6 1756.08 121.881  48
  -3  -9   5 261.806 71.6314  47
  -3   9   5 103.576 85.2080  45
  -3   9   5 197.355 88.6811  42
  -3   9   5 270.290 77.1760  38
   3   9  -5 174.998 61.9218  21
   3  -9  -5 138.200 132.303  35
  -3  -9   5 219.492 47.5414  34
   3   9  -5 143.946 55.7291  33
  -3  -9   5 309.946 77.5644  55
  -3   9   5 108.609 110.336  28
   3  -9  -5 349.902 137.679  17
  -3  -9   5 367.765 58.7278  27
  -3   9   5 228.539 83.1612  50
  -3  -9   5 219.239 64.2965  26
   3  -9  -5 256.315 225.039  11
  -3  -9   5 301.633 70.5054  48
   3   9  -4 1934.07 154.855  25
  -3   9   4 1877.16 164.002  45
  -3   9   4 1737.89 152.963  42
   3  -9  -4 1732.53 304.331  22
  -3   9   4 1310.11 133.071  38
   3   9  -4 1773.79 148.424  21
   3  -9  -4 1490.36 191.073  35
   3   9  -4 1682.21 129.282  33
   3  -9  -4 1382.62 240.819  19
   3   9  -4 2060.80 144.175  18
  -3   9   4 1442.65 178.348  28
   3  -9  -4 1502.64 249.213  17
  -3  -9   4 1624.72 123.011  27
  -3   9   4 1654.58 147.994  50
  -3  -9   4 1927.71 142.837  26
  -3  -9   4 1759.26 144.411  48
   3  -9  -4 1551.98 308.559  11
  -3  -9   3 634.513 93.9893  47
   3   9  -3 500.452 87.7288  25
  -3   9   3 330.228 103.687  45
   3  -9  -3 431.762 234.537   8
  -3   9   3 532.212 103.625  42
   3  -9  -3 561.886 240.419  22
  -3   9   3 573.760 86.1027  38
   3   9  -3 522.081 136.868  21
   3   9  -3 537.436 72.0745  33
   3  -9  -3-22.5728 193.922  19
   3   9  -3 534.633 84.1521  18
  -3   9   3 357.049 126.967  28
   3  -9  -3 221.489 202.848  17
  -3  -9   3 403.358 60.7521  27
  -3   9   3 474.843 97.7431  50
  -3  -9   3 738.944 108.304  49
  -3  -9   3 528.514 89.5040  26
   3  -9  -3 180.672 229.986  11
  -3  -9   3 447.229 93.4633  48
   3   9  -2 3075.76 218.205  25
  -3  -9   2 2947.98 190.771  47
  -3   9   2 3017.87 219.583  45
   3  -9  -2 2119.52 324.726   8
  -3   9   2 2736.52 211.519  42
   3  -9  -2 1741.19 324.161  22
  -3   9   2 2455.96 185.179  38
   3   9  -2 3001.25 258.852  21
   3   9  -2 2691.88 178.496  33
   3  -9  -2 1051.91 292.302  19
   3   9  -2 2945.12 201.289  18
  -3  -9   2 2998.79 190.135  55
   3  -9  -2 2207.28 324.070  17
  -3   9   2 2248.60 193.454  50
  -3  -9   2 2972.40 197.611  26
  -3  -9   2 3001.54 211.839  49
  -3  -9   2 2448.09 198.658  48
   3  -9  -2 1711.61 312.417  11
  -3   9   1 113.871 73.0557  16
  -3  -9   1 223.306 67.1994  47
   3   9  -1 126.085 154.166  25
  -3   9   1-8.96778 102.985  45
   3  -9  -1 91.0737 197.608   8
  -3   9   1 221.150 97.1488  42
   3  -9  -1-70.9961 199.603  22
  -3   9   1 108.019 69.8445  38
   3   9  -1 82.1919 152.510  21
   3  -9  -1 411.582 220.353  19
  -3  -9   1 149.829 67.3419  55
  -3   9   1 313.023 118.189  28
  -3  -9   1 227.293 95.3167  49
  -3  -9   1 130.470 85.0033  26
   3  -9  -1 226.758 202.191  11
  -3  -9   1 132.324 95.3233  48
  -3  -9   0 2146.79 141.011  47
   3   9   0 2776.79 358.125  25
  -3   9   0 1863.61 183.526  45
   3  -9   0 1312.85 250.779   8
  -3   9   0 1923.02 175.893  42
   3  -9   0 1442.45 273.717  22
  -3   9   0 1582.88 148.834  38
   3   9   0 2276.23 188.010  21
  -3  -9   0 2238.27 143.729  55
  -3   9   0 1764.33 186.692  28
   3  -9   0 1508.53 270.177  17
  -3  -9   0 1863.14 174.382  49
  -3   9   0 1716.39 167.209  16
  -3  -9   0 2256.44 175.015  48
   3  -9   0 1612.18 271.243  11
  -3   9  -1 231.712 69.8188  16
  -3  -9  -1 240.792 51.6136  47
  -3   9  -1 192.443 108.830  45
   3  -9   1 108.272 164.522  22
  -3   9  -1 108.625 70.2417  38
   3  -9   1 144.582 175.464  19
  -3  -9  -1 321.387 59.7226  55
  -3   9  -1 191.762 113.139  28
   3  -9   1 115.771 171.386  17
  -3  -9  -1 283.063 98.9883  49
  -3  -9  -1 254.797 81.3193  26
  -3   9  -2 771.301 104.912  16
  -3   9  -2 740.294 126.490  45
  -3   9  -2 819.442 105.066  38
   3  -9   2 495.372 177.174  19
   3  -9   2 221.236 122.378   9
   3  -9   2 487.907 173.105  17
  -3  -9  -2 945.028 98.4884  26
  -3  -9  -2 938.969 124.645  49
  -3  -9  -2 1055.43 109.007  48
  -3   9  -3 137.320 87.6745  42
  -3   9  -3 186.734 79.0125  38
  -3   9  -3 239.744 74.9918  37
   3  -9   3 325.492 124.634  19
  -3  -9  -3 247.473 55.0586  54
   3  -9   3 131.361 107.392  17
  -3  -9  -3 80.2927 85.9858  49
  -3  -9  -3 185.415 65.3805  48
  -3   9  -4 676.021 91.6239  46
  -3  -9  -4 804.172 86.9179  43
  -3   9  -4 805.293 102.791  42
  -3   9  -4 729.620 89.6221  37
   3  -9   4 434.575 108.533  19
  -3  -9  -4 811.680 113.159  49
  -3  -9  -4 691.040 79.0846  48
  -3   9  -5 55.1732 55.3009  46
  -3  -9  -5 32.8081 49.8324  43
  -3   9  -5 99.2705 66.6015  37
  -3  -9  -5 101.857 77.0523  49
  -3   9  -6 730.377 80.1976  46
  -3  -9  -6 689.065 67.0752  43
  -3   9  -6 835.852 86.8051  37
  -3  -9  -6 761.652 72.7445  32
  -3  -9  -6 801.649 104.490  49
  -3   9  -7 334.610 47.6905  46
  -3   9  -7 257.786 60.9676  37
  -3  -9  -7 339.286 53.2578  32
  -3   9  -8 5.47851 40.6157  37
  -3  -9  -8 11.9881 34.9965  32
  -3 -10  10 1200.27 74.9398  47
  -3  10  10 1346.01 103.358  45
   3  10 -10 1186.70 88.9206  44
   3 -10 -10 1249.20 102.048  40
   3 -10 -10 1381.07 119.803  35
  -3 -10  10 1106.43 68.7117  34
  -3 -10  10 1196.95 77.3179  55
   3  10 -10 1068.22 76.4747  29
  -3 -10  10 1045.68 73.9216  27
  -3 -10   9 6968.40 362.963  47
  -3  10   9 7159.33 384.063  45
   3  10  -9 7435.29 376.000  44
   3 -10  -9 7083.82 380.932  40
   3 -10  -9 7109.10 400.299  35
  -3 -10   9 6647.27 352.944  34
   3 -10  -9 6925.98 377.294  30
  -3 -10   9 6904.39 363.284  55
   3  10  -9 7050.00 364.824  29
  -3  10   9 8164.78 414.563  28
  -3 -10   8 641.536 65.7464  47
  -3  10   8 691.120 89.8412  45
   3  10  -8 714.858 80.3557  44
   3 -10  -8 390.400 85.3457  40
  -3  10   8 665.373 76.8796  38
   3 -10  -8 737.051 116.636  35
  -3 -10   8 602.063 52.4438  34
   3 -10  -8 687.566 109.331  30
  -3 -10   8 560.374 68.7953  55
  -3  10   8 694.068 127.275  28
  -3 -10   8 590.871 58.3533  27
  -3 -10   7 10582.8 546.552  47
  -3  10   7 11210.9 570.445  45
   3  10  -7 11189.5 559.083  44
  -3  10   7 11299.8 565.711  42
   3 -10  -7 9974.31 552.671  40
  -3  10   7 10787.2 554.898  38
   3 -10  -7 10613.2 582.063  35
  -3 -10   7 10358.0 531.173  34
   3  10  -7 10659.5 548.017  33
  -3 -10   7 10360.8 546.742  55
  -3  10   7 10744.8 594.921  28
  -3 -10   7 10378.9 539.120  27
  -3 -10   6 2526.58 164.507  47
  -3  10   6 2575.45 191.041  45
   3  10  -6 2949.95 180.511  44
  -3  10   6 2816.61 188.535  42
   3 -10  -6 2510.89 231.344  22
  -3  10   6 2371.41 169.092  38
   3 -10  -6 2071.60 196.737  35
  -3 -10   6 2398.74 143.232  34
   3  10  -6 2424.92 162.135  33
   3 -10  -6 2536.96 245.889  30
  -3 -10   6 2494.62 165.946  55
  -3  10   6 2703.18 218.185  28
  -3 -10   6 2473.36 154.377  27
  -3  10   6 2553.21 174.309  50
  -3 -10   6 2689.74 157.971  48
  -3 -10   5 12740.8 662.584  47
  -3  10   5 12693.6 687.784  45
  -3  10   5 13514.2 686.578  42
  -3  10   5 12484.9 666.638  38
   3 -10  -5 11351.5 681.740  35
   3  10  -5 12587.0 662.053  33
   3 -10  -5 13797.2 748.614  30
  -3 -10   5 13612.0 667.445  55
  -3  10   5 12838.1 710.959  28
  -3 -10   5 13165.5 652.471  27
  -3  10   5 12880.0 673.431  50
  -3 -10   5 12732.4 658.391  48
   3  10  -4 366.398 76.3403  25
  -3  10   4 430.756 104.164  45
  -3  10   4 426.152 105.323  42
   3 -10  -4 585.752 172.130  22
  -3  10   4 364.473 76.3689  38
   3  10  -4 390.060 65.4127  21
   3  10  -4 400.732 65.5622  33
  -3  10   4 391.517 135.928  28
  -3 -10   4 423.831 55.6746  27
  -3  10   4 416.874 88.7335  50
  -3 -10   4 387.138 66.6995  26
   3 -10  -4 290.427 171.922  11
  -3 -10   4 355.696 77.8175  48
   3  10  -3 10285.1 554.122  25
  -3 -10   3 10556.5 531.158  47
  -3  10   3 9903.83 554.005  45
  -3 -10   3 10378.4 530.769  55
  -3  10   3 10254.8 552.500  42
   3 -10  -3 10444.7 644.758  22
  -3  10   3 9101.10 526.011  38
   3  10  -3 10132.9 539.279  21
   3  10  -3 9501.07 520.997  33
   3 -10  -3 9191.57 597.433  19
   3 -10  -3 9595.55 607.732  17
   3 -10  -3 8732.53 637.203  11
  -3  10   3 9773.08 572.419  28
  -3 -10   3 9968.88 524.590  26
  -3 -10   3 9904.79 529.840  48
   3  10  -2 2116.34 170.105  25
  -3 -10   2 1994.08 147.602  47
  -3  10   2 1805.65 178.135  45
  -3  10   2 1986.73 179.717  42
   3 -10  -2 2162.97 263.619  22
  -3  10   2 1786.28 147.442  38
   3  10  -2 2273.68 195.629  21
   3  10  -2 1856.37 140.150  33
   3 -10  -2 2018.45 233.830  19
   3  10  -2 1829.54 149.768  18
  -3 -10   2 2065.26 149.227  55
   3 -10  -2 1991.41 239.724  17
  -3 -10   2 1859.55 149.478  26
  -3 -10   2 2041.16 167.137  49
   3 -10  -2 2091.43 255.614  11
  -3 -10   2 1650.23 152.017  48
  -3 -10   1 13082.6 648.518  47
   3  10  -1 13446.1 694.857  25
  -3  10   1 12502.0 686.544  45
  -3  10   1 11562.4 674.435  42
   3 -10  -1 11890.7 757.131  22
  -3  10   1 11026.9 651.844  38
   3  10  -1 13037.3 687.575  21
   3 -10  -1 12283.6 755.630  19
  -3 -10   1 13488.9 648.744  55
   3 -10  -1 11049.2 745.812  11
  -3  10   1 12205.5 697.951  28
  -3 -10   1 12402.3 655.772  26
  -3 -10   1 13996.4 680.393  49
  -3 -10   1 11665.3 661.275  48
  -3 -10   0 1054.04 92.8761  47
   3  10   0 1377.91 219.819  25
  -3  10   0 1145.98 148.061  45
  -3  10   0 1093.41 139.307  42
   3 -10   0 1094.45 194.092  22
  -3  10   0 943.047 107.176  38
   3  10   0 962.844 168.229  21
  -3 -10   0 1141.76 95.6662  55
  -3  10   0 595.288 142.091  28
   3 -10   0 999.180 193.079  17
  -3 -10   0 1327.77 136.545  49
  -3 -10   0 878.431 121.599  48
  -3  10  -1 12366.3 673.036  45
  -3  10  -1 11879.6 662.349  42
   3 -10   1 11455.2 697.511  22
  -3  10  -1 10989.4 640.107  38
   3  10   1 12342.9 664.503  21
   3 -10   1 12559.4 724.487  19
   3 -10   1 11960.7 716.697  17
  -3 -10  -1 12345.6 642.451  26
  -3 -10  -1 13223.6 667.458  49
  -3  10  -2 748.279 99.4571  38
   3 -10   2 873.746 142.473  19
  -3 -10  -2 694.530 78.6965  54
   3 -10   2 976.311 145.400  17
  -3 -10  -2 1057.42 125.621  49
  -3 -10  -2 978.584 106.459  48
  -3  10  -3 6458.46 381.668  42
  -3  10  -3 6158.89 373.753  38
  -3  10  -3 7019.16 370.598  37
   3 -10   3 6230.22 408.056  19
  -3 -10  -3 7629.41 397.713  49
  -3 -10  -3 6721.96 368.727  48
  -3  10  -4 3124.97 197.343  46
  -3 -10  -4 2785.48 179.821  43
  -3  10  -4 2704.26 188.581  42
  -3  10  -4 3200.58 188.961  37
  -3 -10  -4 2905.53 207.866  49
  -3  10  -5 8809.67 478.738  46
  -3 -10  -5 8909.26 465.254  43
  -3  10  -5 9762.04 479.168  37
  -3 -10  -5 8847.15 494.976  49
  -3  10  -6 697.139 68.8882  46
  -3 -10  -6 552.390 52.1634  43
  -3  10  -6 751.016 73.9444  37
  -3 -10  -6 746.375 95.9725  49
  -3  10  -7 4516.32 239.670  37
  -3 -10  -7 4138.06 254.918  49
  -3 -11   8 1119.68 80.9957  47
  -3  11   8 1092.79 101.943  45
   3  11  -8 1117.40 88.4371  44
   3 -11  -8 986.034 100.845  35
   3 -11  -8 1020.82 107.425  30
  -3 -11   8 1232.15 83.8990  55
  -3  11   8 990.676 131.539  28
  -3 -11   8 992.302 71.3464  27
  -3 -11   7 32.1962 38.7816  47
  -3  11   7-31.0593 69.8781  45
   3  11  -7-15.7334 51.9898  44
  -3  11   7 23.8211 48.7005  38
   3 -11  -7 96.5432 69.0267  35
   3  11  -7-25.3170 37.5044  33
  -3 -11   7 63.1378 44.5800  55
  -3  11   7 30.2342 109.263  28
  -3 -11   7 4.41960 28.0722  27
  -3 -11   6 1853.24 115.235  47
  -3  11   6 1519.40 139.788  45
   3  11  -6 1719.30 124.873  44
  -3  11   6 1491.79 132.888  42
  -3  11   6 1664.88 119.672  38
   3 -11  -6 1444.14 126.623  35
   3  11  -6 1466.63 111.344  33
   3 -11  -6 1721.43 164.975  30
  -3 -11   6 1516.11 113.737  55
  -3  11   6 1793.49 176.169  28
  -3 -11   6 1682.10 101.103  27
  -3 -11   6 1628.90 105.007  48
   3 -11  -6 1259.53 105.787  48
  -3 -11   5 44.0175 47.3081  47
  -3  11   5-26.0785 86.3758  45
  -3  11   5 24.3267 76.0333  42
  -3  11   5 48.6179 56.7152  38
   3  11  -5-24.3190 43.3732  33
   3 -11  -5 146.083 116.373  30
  -3  11   5-82.6841 125.427  28
  -3 -11   5-24.8568 32.4589  27
  -3 -11   5-28.7902 47.3389  48
  -3  11   4 1486.71 146.048  45
  -3  11   4 1327.28 138.429  42
   3 -11  -4 1663.63 172.775  22
  -3  11   4 1401.57 115.395  38
   3  11  -4 1417.35 109.157  33
   3 -11  -4 1434.96 166.621  30
  -3  11   4 1154.80 172.322  28
  -3 -11   4 1465.12 91.6611  27
  -3 -11   4 1318.75 103.980  26
  -3 -11   4 1326.39 106.157  48
  -3 -11   3-4.26293 55.4143  47
   3  11  -3 37.6082 52.3945  25
  -3  11   3-44.6335 87.9018  45
  -3  11   3 87.7442 89.9504  42
   3 -11  -3 163.400 114.935  22
  -3  11   3 44.8371 57.9929  38
   3  11  -3 8.82347 47.5794  33
   3 -11  -3 122.490 115.373  30
  -3 -11   3 25.9863 56.7153  55
  -3  11   3-40.3378 126.086  28
  -3 -11   3 41.4227 49.6774  26
  -3 -11   3 66.4602 57.8641  48
   3  11  -2 1961.29 160.869  25
  -3 -11   2 2030.57 136.436  47
  -3  11   2 1992.71 178.363  45
  -3  11   2 1868.30 171.904  42
   3 -11  -2 2030.23 206.153  22
  -3  11   2 1605.01 138.549  38
   3  11  -2 1880.70 134.622  33
  -3 -11   2 2003.11 138.046  55
   3 -11  -2 1540.44 179.313  30
  -3 -11   2 1786.08 132.096  26
  -3 -11   2 2205.56 157.266  49
  -3 -11   2 1800.18 141.524  48
  -3 -11   1 276.014 59.6495  47
   3  11  -1 314.230 78.4027  25
  -3  11   1 363.099 108.552  45
  -3  11   1 318.110 106.696  42
   3 -11  -1 280.888 115.515  22
  -3  11   1 276.549 72.2570  38
   3  11  -1 391.228 61.3382  33
   3 -11  -1 273.379 111.816  30
  -3 -11   1 448.794 63.0221  55
  -3 -11   1 267.570 88.7585  49
  -3 -11   1 361.517 71.7647  26
  -3 -11   1 314.553 77.7649  48
  -3 -11   0 351.049 51.5764  47
   3  11   0 343.454 81.5978  25
  -3  11   0 257.476 101.092  45
  -3  11   0 345.993 101.397  42
   3 -11   0 294.909 104.457  22
  -3  11   0 188.708 70.2474  38
   3 -11   0 268.591 89.9901  30
  -3 -11   0 381.910 52.9373  55
  -3 -11   0 429.294 94.1356  49
  -3 -11   0 320.127 80.2613  48
   3  11   1-60.4423 113.851  25
  -3  11  -1-71.9258 75.6166  42
  -3  11  -1 10.3161 56.7858  38
  -3 -11  -1-46.6903 83.3898  49
  -3 -11  -1 44.3652 56.4954  26
  -3  11  -2 327.652 68.4224  38
  -3 -11  -2 457.911 93.0152  49
  -3 -11  -2 392.326 74.1620  48
  -3  11  -3 248.688 67.3528  46
  -3  11  -3 247.531 66.3180  38
  -3  11  -3 216.538 61.5878  37
  -3 -11  -3 136.080 78.7361  49
  -3 -11  -3 228.703 56.6996  48
  -3  11  -4 717.184 82.7079  46
  -3 -11  -4 852.085 75.5264  43
  -3  11  -4 782.092 79.7487  37
  -3 -11  -4 771.060 100.693  49
  -3  11  -5 132.275 46.8010  46
  -3 -11  -5 155.853 36.9852  43
  -3  11  -5 149.833 47.0538  37
  -3 -11  -5 211.453 68.3349  49
  -3 -12   7 6259.02 279.656  47
  -3  12   7 6050.03 298.777  45
   3  12  -7 5783.38 284.248  44
   3  12  -7 5413.69 273.531  33
   3 -12  -7 6525.24 303.278  30
  -3 -12   7 5816.66 278.909  55
  -3 -12   7 5573.21 267.217  27
  -3 -12   6 67.8057 36.6974  47
  -3  12   6 66.5168 66.6463  45
   3  12  -6 62.7803 43.3417  44
  -3  12   6 67.5027 44.1034  38
   3  12  -6 114.184 36.1980  33
   3 -12  -6 24.0120 68.9193  30
  -3 -12   6 31.4528 40.2656  55
  -3  12   6 93.7557 95.0874  28
  -3 -12   6 35.7750 22.7796  27
  -3 -12   6 60.7606 31.3808  48
  -3  12   5 8700.73 441.053  45
   3  12  -5 8458.22 421.208  44
  -3  12   5 8559.64 428.779  42
  -3  12   5 7758.61 414.805  38
   3  12  -5 8266.46 413.217  33
   3 -12  -5 8900.58 444.123  30
  -3  12   5 6980.17 456.004  28
  -3 -12   5 7777.28 407.798  48
   3 -12  -5 6963.79 409.578  48
  -3 -12   4 281.604 52.4453  47
  -3  12   4 216.872 85.9477  45
  -3  12   4 201.704 76.0150  42
  -3  12   4 178.194 54.7121  38
   3  12  -4 265.998 45.8791  33
   3 -12  -4 151.423 82.4581  30
  -3 -12   4 236.607 54.1627  55
  -3  12   4 132.207 115.097  28
  -3 -12   4 232.139 50.9249  48
  -3 -12   3 12436.4 604.954  47
  -3  12   3 13237.8 638.620  45
  -3  12   3 12676.6 632.496  42
  -3  12   3 10696.7 607.897  38
   3  12  -3 11507.8 605.514  33
   3 -12  -3 11664.9 627.504  30
  -3 -12   3 12654.3 606.505  55
  -3  12   3 11030.3 654.550  28
  -3 -12   3 11559.7 600.904  26
  -3 -12   3 11766.0 604.453  48
  -3 -12   2-15.1809 42.7409  47
  -3  12   2 12.6663 82.4989  45
  -3  12   2 6.01762 81.4195  42
  -3  12   2 63.3738 56.2462  38
   3  12  -2 10.8311 39.4800  33
   3 -12  -2 32.0202 78.2208  30
  -3 -12   2 8.73929 44.0122  55
  -3 -12   2-6.25722 42.9125  26
  -3 -12   2 102.887 55.1466  48
  -3 -12   1 10454.5 535.252  47
  -3  12   1 11165.2 575.269  45
  -3  12   1 10910.5 571.525  42
  -3  12   1 9694.19 549.737  38
   3  12  -1 10552.5 544.477  33
   3 -12  -1 10158.8 555.123  30
  -3 -12   1 10179.6 533.382  55
  -3 -12   1 11545.2 545.522  26
  -3 -12   1 11340.4 552.384  48
  -3  12   0 361.669 82.8494  42
  -3  12   0 491.210 72.2638  38
   3  12   0 410.846 57.0096  33
   3 -12   0 340.465 65.7517  30
  -3 -12   0 566.164 84.7684  49
  -3 -12   0 436.259 74.8482  48
  -3  12  -1 6688.30 388.074  42
  -3  12  -1 6924.93 382.142  38
   3  12   1 6874.03 373.041  33
  -3 -12  -2-16.3421 54.0210  43
  -3  12  -2 16.6532 58.4127  42
  -3  12  -2 15.8430 51.1545  38
  -3  12  -2 101.150 49.6835  37
  -3 -12  -2 78.6782 69.2638  49
  -3 -12  -2 106.226 51.6363  48
   3 -12   2 74.4019 35.4042  26
  -3  12  -3 8683.59 444.041  37
  -3 -12  -3 8453.31 458.340  49
  -3  12  -4 283.015 50.5603  46
  -3 -12  -4 273.560 40.4669  43
  -3  12  -4 405.330 51.2935  37
  -3 -12  -4 357.874 65.9648  49
  -3 -13   4 1283.40 80.1496  47
  -3  13   4 1405.43 107.832  45
   3  13  -4 1405.19 88.2201  44
  -3 -13   4 900.978 68.8447  43
  -3  13   4 1178.95 89.7382  42
  -3  13   4 1067.34 80.9343  38
   3  13  -4 1262.54 79.4314  33
   3 -13  -4 1312.80 99.8061  30
  -3 -13   4 1328.77 79.8999  55
   3 -13  -4 854.187 83.5249  26
  -3 -13   4 1174.31 80.6687  48
   3 -13  -4 981.081 82.2541  48
   3 -13  -3 45.0907 45.8066  48
  -3 -13   3 29.5298 29.7475  47
  -3  13   3 57.5646 60.1867  45
   3 -13  -3-6.78703 53.6521  30
  -3 -13   3 10.4695 31.6743  43
  -3  13   3-38.2958 53.7381  42
  -3  13   3-2.82815 38.7914  38
   3  13  -3 44.3895 30.9226  33
  -3 -13   3 27.2445 32.0791  55
  -3 -13   3-21.2242 38.2726  48
   3 -13  -3 2.85559 43.1422  26
  -3 -13   2 577.452 48.9667  47
  -3  13   2 631.572 86.1998  45
  -3  13   2 678.335 77.7206  42
  -3  13   2 625.439 64.1331  38
   3 -13  -2 555.467 66.1897  30
   3  13  -2 581.459 56.8499  33
  -3 -13   2 722.761 65.3407  48
   3 -13  -2 466.229 63.0871  26
   3 -13  -1 57.0796 52.3480  48
  -3  13   1 163.435 59.7435  42
  -3  13   1 123.186 44.9280  38
   3  13  -1 117.954 34.4046  33
   3 -13  -1 26.5850 43.1414  30
  -3 -13   1 118.819 45.9609  48
   3 -13  -1 136.754 44.2114  26
  -3  13   0 1167.35 97.8218  42
  -3  13   0 1179.30 90.6165  38
   3  13   0 1184.25 80.6903  33
   3 -13   0 1095.24 82.6102  26
  -3 -13   0 1331.63 93.0720  48
   3 -13   0 1057.05 94.3536  48
   3 -13   1 30.3258 46.8310  48
  -3  13  -1 89.9519 48.8656  46
  -3 -13  -1 216.804 44.7935  43
  -3  13  -1 169.000 44.7612  38
  -3  13  -1 180.288 42.7836  37
   3  13   1 127.719 33.0635  33
   3 -13   1 105.837 31.9512  26
   4   0 -12 7068.69 378.043  40
  -4   0  12 6870.63 368.763  34
   4   0 -12 7059.95 379.513  29
   4   0 -12 6951.32 390.065  51
  -4   0  12 7001.71 377.690  50
   4   0 -11 84.7341 73.2971  35
  -4   0  11-3.31356 42.9615  34
   4   0 -11 25.4485 55.3937  29
   4   0 -11 94.0665 75.5506  51
  -4   0  11-17.5079 59.2271  50
   4   0 -10 8992.47 484.945  35
  -4   0  10 8630.88 450.810  34
   4   0 -10 8772.80 457.538  29
   4   0 -10 9433.54 483.104  51
   4   0  -9-19.6909 74.7688  21
  -4   0   9 26.4618 52.7267  34
  -4   0   9 6.23059 76.8469  53
   4   0  -9-53.2648 95.3853  51
  -4   0   9 22.5935 63.0347  27
  -4   0   9 12.2984 71.7752  50
   4   0  -8 5850.00 361.516  21
  -4   0   8 5132.08 308.363  34
   4   0  -8 5856.60 370.518  18
  -4   0   8 5190.46 322.803  53
  -4   0   8 5347.03 320.526  27
   4   0  -8 6221.92 360.014  51
  -4   0   8 5633.59 329.148  50
   4   0  -7-36.5587 85.6245  11
   4   0  -7 81.5927 76.8033  22
   4   0  -7-54.5849 84.6919  21
  -4   0   7 13.6089 53.5989  34
   4   0  -7 59.5046 83.5756  18
  -4   0   7 23.6685 66.0369  53
  -4   0   7-39.2735 59.3802  27
  -4   0   7 123.984 77.7125  50
   4   0  -6 18245.9 1039.58  21
  -4   0   6 19391.4 984.787  34
   4   0  -6 19576.5 1053.11  18
  -4   0   6 19556.6 996.141  53
   4   0  -6 19451.7 1032.21  11
  -4   0   6 20452.3 1002.55  50
   4   0  -5 62.6333 94.9594  11
   4   0  -5 10.0213 80.3970   8
   4   0  -5-70.5681 96.7754  21
  -4   0   5 9.24399 54.1170  34
   4   0  -5 38.5916 101.852  18
  -4   0   5 13.2281 62.4539  54
  -4   0   5 10.9884 60.6958  53
  -4   0   5 41.7204 72.4950  50
   4   0  -4 13813.0 859.681  21
  -4   0   4 15934.1 809.772  34
   4   0  -4 15165.9 877.642  18
  -4   0   4 16714.7 812.097  54
  -4   0   4 15741.8 816.741  53
  -4   0   4 17653.2 829.422  50
   4   0  -4 14392.4 857.900  11
   4   0  -4 15764.7 859.430   8
  -4   0   3 10.1157 69.3627  43
   4   0  -3 46.5870 85.8473  21
   4   0  -3-25.4294 99.3186  18
  -4   0   3-23.5792 72.6584  54
  -4   0   3 16.0020 58.9253  53
  -4   0   3 36.9515 71.2211  50
  -4   0   2 17531.2 850.656  43
   4   0  -2 16708.6 904.987  21
   4   0  -2 17681.2 916.903  18
  -4   0   2 17974.9 851.058  54
  -4   0   2 14046.3 844.965  53
  -4   0   2 17024.3 863.231  50
   4   0  -2 16398.3 885.882   8
  -4   0   1 116.717 71.5672  43
   4   0  -1-26.7287 78.5643   8
  -4   0   1 19.6773 59.5117  34
   4   0  -1 22.5607 86.2952  18
  -4   0   1-5.03507 68.9092  54
  -4   0   1 60.7623 78.0872  50
   4   0   0 8543.30 481.420   8
  -4   0   0 8394.93 452.097  43
   4   0   0 8037.52 497.437  18
  -4   0   0 8487.62 460.864  54
  -4   0  -1-24.1828 67.4983  43
   4   0   1 47.2427 61.9273   8
  -4   0  -1 37.9178 77.0419  54
   4   0   2 16599.8 825.571   8
  -4   0  -2 15599.3 799.435  43
  -4   0  -2 15615.4 961.398  32
  -4   0  -2 14898.5 804.381  54
  -4   0  -3 37.4295 65.7238  43
  -4   0  -3-11.7652 126.019  41
  -4   0  -3 20.4503 572.272  32
  -4   0  -4 11152.3 816.545  32
  -4   0  -5 120.770 64.4984  43
  -4   0  -5 21.3006 81.6200  54
  -4   0  -6 7050.58 331.577  43
  -4   0  -6 5677.62 353.001  41
  -4   0  -6 5396.36 320.809  37
  -4   0  -6 6502.98 502.571  32
  -4   0  -6 6044.58 350.156  54
  -4   0  -7 88.5816 48.8133  43
  -4   0  -7 10.3194 117.670  41
  -4   0  -7-228.631 254.118  32
  -4   0  -7-8.61705 77.5256  54
   4  -1 -12 276.947 63.7451  40
   4   1 -12 259.181 54.3863  40
  -4  -1  12 262.309 43.2219  34
   4  -1 -12 259.867 55.4490  29
   4   1 -12 336.832 56.4693  29
  -4   1  12 289.868 61.1978  53
  -4   1  12 342.079 55.8643  28
  -4  -1  12 337.687 60.3684  28
   4  -1 -12 340.323 74.0548  51
   4   1 -12 255.518 66.5694  51
  -4  -1  12 271.142 46.2397  50
   4   1 -11 2181.64 146.708  40
   4   1 -11 2003.63 140.755  35
   4  -1 -11 2004.89 162.857  35
  -4   1  11 1886.11 132.750  34
  -4  -1  11 1860.11 133.823  34
   4  -1 -11 2206.62 146.074  29
   4   1 -11 2123.48 144.730  29
  -4   1  11 2053.63 153.981  53
  -4  -1  11 2095.98 147.508  53
  -4   1  11 2389.87 162.979  28
   4  -1 -11 2427.67 168.652  51
   4   1 -11 2279.85 162.291  51
  -4  -1  11 2029.81 140.185  50
   4  -1 -10 204.897 111.115  35
   4   1 -10 326.676 97.7100  35
  -4   1  10 229.661 57.0162  34
  -4  -1  10 257.842 60.8619  34
   4  -1 -10 310.096 69.5780  29
   4   1 -10 283.035 67.3323  29
  -4  -1  10 176.500 72.8690  53
   4  -1 -10 434.553 105.845  51
   4   1 -10 227.516 89.0309  51
  -4  -1  10 255.708 69.8756  27
  -4  -1  10 181.633 64.7367  50
   4  -1  -9 3045.04 224.130  21
   4   1  -9 2971.59 212.517  21
  -4   1   9 2581.26 167.526  34
  -4  -1   9 2452.75 171.098  34
   4   1  -9 2517.19 173.680  29
  -4  -1   9 2312.00 182.751  53
  -4  -1   9 2422.54 179.175  27
   4  -1  -9 2717.45 211.073  51
   4   1  -9 3077.94 212.288  51
  -4  -1   9 2231.59 174.475  50
   4  -1  -8-54.2164 90.8574  21
   4   1  -8-9.91938 74.7825  21
  -4   1   8 44.3684 56.6439  34
  -4  -1   8-47.2301 60.2973  34
   4  -1  -8 24.6063 94.1077  18
   4   1  -8-51.9754 95.9815  18
  -4   1   8 30.2759 69.1432  53
  -4  -1   8 18.3228 72.1587  53
   4  -1  -8 87.1426 106.590  51
   4   1  -8-89.5703 98.1987  51
  -4  -1   8 11.8176 66.3817  27
  -4   1   8-12.6839 72.6494  50
  -4  -1   8 146.455 74.5977  50
   4  -1  -7 3964.23 281.576  22
   4  -1  -7 3624.26 277.557  21
   4   1  -7 3742.04 272.332  21
  -4   1   7 3454.27 225.740  34
  -4  -1   7 3721.71 229.430  34
   4  -1  -7 4333.10 304.525  18
   4   1  -7 3594.64 275.960  18
  -4  -1   7 3692.76 241.971  55
  -4   1   7 4136.72 245.006  53
  -4  -1   7 4134.64 244.109  53
  -4  -1   7 3421.21 234.418  27
   4  -1  -7 4137.13 285.853  51
  -4   1   7 3877.67 245.429  50
  -4  -1   7 3925.94 242.739  50
   4  -1  -6-11.2170 98.3628  11
   4   1  -6-59.4721 81.4652  11
   4  -1  -6-51.6124 91.9825  22
   4  -1  -6-45.1536 82.5624  21
   4   1  -6-11.0287 90.1843  21
  -4   1   6-9.26557 56.9828  34
  -4  -1   6 77.4384 56.3372  34
   4  -1  -6-39.3580 98.1767  18
   4   1  -6-46.3411 89.2474  18
  -4  -1   6 5.36244 65.2244  55
  -4  -1   6 75.3423 67.8000  54
  -4   1   6 17.3996 64.9419  53
  -4  -1   6 39.4784 59.6865  53
  -4   1   6-6.10646 68.6023  50
  -4  -1   6 59.1567 72.3587  50
   4  -1  -5 3329.23 258.420  21
   4   1  -5 3216.97 260.825  21
  -4   1   5 3237.48 210.377  34
  -4  -1   5 3600.58 210.084  34
   4  -1  -5 3694.20 283.643  18
   4   1  -5 3657.26 270.933  18
  -4  -1   5 2800.70 213.374  55
  -4  -1   5 3911.87 216.049  54
  -4   1   5 3378.23 218.696  53
  -4  -1   5 3497.25 216.621  53
  -4  -1   5 2818.09 208.110  27
   4  -1  -5 3158.66 265.028  11
  -4  -1   5 3971.57 230.680  50
  -4   1   5 3653.86 228.302  50
   4   1  -5 3553.01 253.535  11
   4  -1  -5 3121.76 256.279   8
   4   1  -5 3420.25 248.248   8
   4   1  -4 215.798 101.708  11
   4  -1  -4 52.5348 83.8484   8
   4   1  -4 283.238 95.7563   8
   4  -1  -4 99.3895 88.6943  21
   4   1  -4 116.933 86.9524  21
  -4   1   4 4.95153 61.2170  34
   4  -1  -4 25.8748 99.0491  18
   4   1  -4 160.610 106.641  18
  -4  -1   4-5.19488 64.2115  55
  -4   1   4 72.4119 68.9930  54
  -4  -1   4 69.1165 67.7962  54
  -4   1   4 151.193 68.2414  53
  -4  -1   4 98.3103 62.1834  53
  -4  -1   4 92.9990 55.1508  27
  -4  -1   4 110.026 73.6705  50
  -4   1   4 97.0590 74.5265  50
  -4   1   3 2298.66 162.745  43
  -4  -1   3 2620.85 164.553  43
   4   1  -3 2140.22 203.774  21
  -4   1   3 2168.30 158.740  34
   4  -1  -3 2163.23 209.455  18
   4   1  -3 2102.17 210.155  18
  -4  -1   3 1774.50 153.990  55
  -4   1   3 2227.06 159.928  54
  -4  -1   3 2304.43 156.897  54
  -4  -1   3 2048.64 153.493  53
  -4   1   3 1877.11 154.714  53
  -4  -1   3 2424.76 169.696  50
  -4   1   3 1967.69 164.726  50
   4  -1  -3 2171.18 200.322  11
   4  -1  -2 634.495 119.012  11
  -4   1   2 630.031 92.7881  43
  -4  -1   2 429.247 83.3593  43
   4  -1  -2 697.997 109.269   8
   4   1  -2 590.120 110.833   8
   4   1  -2 698.694 132.214  21
  -4   1   2 536.921 85.7100  34
  -4  -1   2 595.329 80.9750  34
   4  -1  -2 504.796 112.909  18
   4   1  -2 802.986 131.067  18
  -4   1   2 558.987 91.7097  54
  -4  -1   2 611.900 91.9238  54
  -4   1   2 492.304 87.0988  53
  -4   1   2 780.468 96.5843  28
  -4  -1   2 750.172 100.973  50
  -4   1   2 717.908 105.472  50
   4   1  -1 3695.23 241.374   8
  -4   1   1 2733.61 200.135  43
  -4  -1   1 3249.81 202.311  43
   4   1  -1 3047.16 256.603  21
  -4  -1   1 3071.70 198.138  34
   4  -1  -1 3307.85 244.826  18
   4   1  -1 3100.22 254.001  18
  -4   1   1 2909.89 207.345  54
  -4  -1   1 3123.98 205.074  54
  -4   1   1 3052.98 196.911  28
  -4   1   1 3069.19 219.665  50
   4  -1  -1 3385.89 240.280  11
   4  -1  -1 3361.82 233.983   8
   4  -1   0 136.704 82.9987  11
  -4   1   0 201.439 73.4960  43
  -4  -1   0 218.880 73.0075  43
   4  -1   0 141.505 72.1744   8
   4   1   0 76.1325 69.9973   8
   4   1   0 56.2971 87.6599  21
   4   1   0 172.602 96.7015  18
  -4   1   0 215.014 82.2737  54
  -4  -1   0 167.681 83.8180  54
   4   1   1 2860.40 206.381   8
  -4   1  -1 2607.16 184.862  43
  -4  -1  -1 2789.52 182.368  43
  -4  -1  -1 2713.61 453.342  32
   4   1   1 3123.45 233.754  18
  -4   1  -1 2373.50 192.290  54
  -4  -1  -1 2727.20 190.837  54
   4  -1   1 3225.06 215.830  11
   4  -1   1 2762.08 204.789   8
   4  -1   2 7.47925 68.0524  11
  -4   1  -2 20.0433 69.9440  43
  -4  -1  -2 50.4435 64.6965  43
  -4   1  -2 5.89239 150.267  41
   4  -1   2 79.9651 68.4427   8
   4   1   2 7.23250 58.4175   8
  -4   1  -2 168.906 351.534  32
  -4   1  -2 77.1971 79.5630  54
  -4  -1  -2-20.8957 79.9307  54
  -4   1  -3 1382.46 126.639  43
  -4  -1  -3 1718.59 127.742  43
  -4   1  -3 1295.58 146.087  41
  -4   1  -3 1830.28 419.354  32
  -4  -1  -3 1498.73 684.572  32
  -4   1  -3 1398.98 139.147  54
  -4   1  -4 43.2246 85.4638  41
  -4   1  -4 88.6866 53.1679  37
  -4   1  -4-181.413 399.147  32
  -4  -1  -4-76.4959 639.991  32
  -4  -1  -4-15.0410 77.2831  54
  -4   1  -5 1301.72 110.089  43
  -4  -1  -5 1364.87 105.067  43
  -4  -1  -5 874.876 166.105  41
  -4   1  -5 851.078 122.624  41
  -4   1  -5 848.593 93.5079  37
  -4   1  -5 1207.57 352.870  32
  -4  -1  -5 1701.57 556.301  32
  -4   1  -5 1244.98 136.462  54
  -4  -1  -5 1339.72 123.639  54
  -4   1  -6 249.444 66.6262  43
  -4  -1  -6 403.909 64.1967  43
  -4  -1  -6 646.259 164.297  41
  -4   1  -6 155.839 58.9110  37
  -4   1  -6-26.4034 249.602  32
  -4  -1  -6 182.222 446.301  32
  -4   1  -6 307.509 96.6472  54
  -4  -1  -6 215.186 83.0597  54
  -4  -1  -7 1176.15 81.9742  43
  -4   1  -7 939.759 85.6747  37
  -4  -1  -7 904.177 334.440  32
  -4  -1  -7 1016.84 103.838  54
  -4   1  -7 927.762 116.320  54
  -4   1  -8 835.993 146.758  41
  -4  -1  -8 1182.52 186.464  32
   4   2 -12 6415.26 328.028  40
   4  -2 -12 5770.82 331.695  35
  -4  -2  12 5987.56 328.586  34
   4   2 -12 6825.29 338.008  29
  -4   2  12 6433.31 346.489  53
  -4  -2  12 6279.14 332.780  53
  -4   2  12 7798.60 343.173  28
   4  -2 -12 7204.23 356.916  51
   4   2 -12 6483.58 345.537  51
  -4   2  12 6914.14 347.771  50
  -4  -2  12 5887.54 324.822  50
   4  -2 -11 389.285 91.2156  40
   4   2 -11 456.742 70.4747  40
   4  -2 -11 750.349 109.580  35
  -4  -2  11 550.141 64.9829  34
  -4   2  11 430.186 59.0738  34
   4   2 -11 513.250 69.7927  29
  -4   2  11 568.144 81.4854  53
  -4  -2  11 439.883 65.8227  53
  -4   2  11 649.600 86.2447  28
   4  -2 -11 473.698 97.0808  51
   4   2 -11 628.482 87.0507  51
  -4  -2  11 465.344 65.3894  27
  -4   2  11 478.344 83.6548  50
  -4  -2  11 391.669 54.5498  50
   4  -2 -10 8272.39 417.332  40
   4  -2 -10 7790.28 438.479  35
   4   2 -10 6530.81 392.651  35
  -4   2  10 7346.32 381.714  34
  -4  -2  10 5734.80 378.125  34
   4   2 -10 7366.61 391.280  29
  -4   2  10 7683.45 403.309  53
  -4  -2  10 6070.79 384.164  53
  -4   2  10 9662.87 419.922  28
  -4  -2  10 6522.96 391.416  27
   4  -2 -10 8239.73 423.078  51
   4   2 -10 8005.33 410.320  51
  -4   2  10 7679.53 404.336  50
  -4  -2  10 6712.24 377.705  50
   4   2  -9 981.179 116.089  21
  -4   2   9 946.827 91.4657  34
  -4  -2   9 861.267 93.5185  34
   4   2  -9 1115.85 103.376  29
  -4   2   9 1067.61 109.703  53
  -4  -2   9 755.693 98.8297  53
  -4   2   9 1193.39 131.717  28
  -4  -2   9 868.717 104.069  27
   4   2  -9 1101.15 135.224  51
   4  -2  -9 1069.78 139.099  51
  -4  -2   9 889.141 94.6807  50
   4  -2  -8 13070.6 699.348  21
   4   2  -8 13907.7 691.004  21
  -4   2   8 12711.6 638.970  34
  -4  -2   8 12166.1 643.810  34
   4  -2  -8 14144.7 730.832  18
  -4  -2   8 12049.7 648.505  55
   4   2  -8 11694.4 643.297  29
  -4  -2   8 11776.0 647.875  53
  -4  -2   8 12233.9 655.011  27
   4  -2  -8 13613.0 687.748  51
  -4  -2   8 11592.7 641.779  50
   4  -2  -7 631.736 159.969  11
   4  -2  -7 463.275 141.807  22
   4  -2  -7 682.782 115.947  21
   4   2  -7 718.107 114.750  21
  -4   2   7 603.871 80.4009  34
  -4  -2   7 634.513 82.9806  34
   4  -2  -7 771.588 144.370  18
   4   2  -7 720.928 117.438  18
  -4  -2   7 473.616 88.2359  55
  -4  -2   7 505.279 83.6032  53
   4  -2  -7 515.302 130.002  51
  -4  -2   7 461.885 82.2632  50
   4  -2  -6 11784.3 747.004  22
   4   2  -6 13806.6 735.739  21
  -4   2   6 12575.1 681.927  34
  -4  -2   6 14003.7 684.195  34
   4  -2  -6 12197.1 750.684  18
   4   2  -6 12692.6 731.024  18
  -4  -2   6 12334.3 691.516  55
  -4  -2   6 13576.8 684.928  54
  -4   2   6 12610.7 692.819  53
  -4  -2   6 13295.1 689.238  53
   4  -2  -6 14315.3 774.808  11
   4  -2  -6 12928.8 726.083  51
   4   2  -6 13567.0 712.808  11
  -4  -2   6 14645.4 693.977  50
  -4   2   6 13429.4 697.232  50
   4  -2  -5 520.731 141.162  11
   4   2  -5 768.071 110.069  11
   4  -2  -5 448.930 122.530   8
   4   2  -5 651.706 106.832   8
   4  -2  -5 408.838 125.386  22
   4   2  -5 603.046 120.614  21
  -4   2   5 604.287 83.7575  34
   4  -2  -5 903.501 147.201  18
   4   2  -5 592.471 113.567  18
  -4  -2   5 522.019 86.4251  55
  -4  -2   5 522.555 85.9259  54
  -4   2   5 508.283 87.5890  53
  -4  -2   5 679.803 83.8673  53
  -4  -2   5 530.903 75.5248  27
  -4  -2   5 565.451 88.4403  50
  -4   2   5 579.340 92.4795  50
   4   2  -4 13889.7 763.482   8
   4   2  -4 15074.3 780.870  21
  -4   2   4 13027.9 723.007  34
   4  -2  -4 13939.1 783.152  18
   4   2  -4 15818.7 788.568  18
  -4  -2   4 12979.5 722.125  55
  -4   2   4 14370.6 718.295  54
  -4  -2   4 14521.2 723.391  54
  -4   2   4 12804.8 727.855  53
  -4   2   4 16861.9 750.437  28
  -4  -2   4 12468.6 714.573  27
  -4  -2   4 15615.8 731.017  50
  -4   2   4 13286.7 730.590  50
   4  -2  -4 14138.5 777.450   8
   4  -2  -3 898.742 141.658  11
  -4   2   3 921.599 110.924  43
  -4  -2   3 901.992 102.865  43
   4  -2  -3 796.580 129.253   8
   4   2  -3 1072.27 138.148   8
   4   2  -3 1027.43 144.526  21
  -4   2   3 850.196 102.841  34
  -4  -2   3 1090.88 98.1402  34
   4  -2  -3 1046.95 137.737  18
  -4  -2   3 856.868 99.7937  55
   4   2  -3 1086.31 146.933  18
  -4   2   3 985.348 104.611  54
  -4  -2   3 1120.27 107.208  54
  -4   2   3 847.641 104.388  53
  -4   2   3 1120.72 120.653  28
  -4  -2   3 946.029 88.7832  27
  -4   2   3 1012.24 114.970  50
  -4   2   2 12784.8 688.693  43
  -4  -2   2 14313.2 687.236  43
   4   2  -2 14161.0 754.538  21
  -4   2   2 12237.8 687.145  34
  -4  -2   2 14339.0 685.914  34
   4  -2  -2 12092.4 721.916  18
   4   2  -2 14490.1 756.603  18
  -4  -2   2 12219.8 682.330  55
  -4   2   2 13465.0 687.908  54
  -4  -2   2 14391.1 688.370  54
  -4   2   2 11463.6 686.850  53
  -4   2   2 14901.1 695.605  28
  -4   2   2 12318.9 699.448  50
   4  -2  -2 12693.8 727.801  11
   4  -2  -2 13114.6 721.809   8
   4  -2  -1 1174.05 144.368  11
  -4   2   1 1308.56 124.241  43
  -4  -2   1 1361.56 117.430  43
   4  -2  -1 1072.58 132.020   8
   4   2  -1 1355.07 180.350  21
  -4  -2   1 1495.66 115.038  34
   4   2  -1 1222.25 163.232  18
  -4   2   1 1342.36 128.433  54
  -4  -2   1 1446.22 125.267  54
  -4   2   1 1314.66 115.297  28
  -4   2   1 1189.58 135.161  50
  -4   2   0 16470.7 878.842  43
  -4  -2   0 17537.0 874.248  43
  -4   2   0 16493.7 874.541  42
   4   2   0 16000.6 939.426  21
  -4  -2   0 16428.7 901.242  32
   4   2   0 16508.7 942.848  18
  -4   2   0 17404.5 884.102  54
  -4  -2   0 18891.8 882.441  54
   4  -2   0 18524.7 915.897  11
   4  -2   0 17544.1 909.325   8
   4  -2   1 493.320 97.4928  11
  -4   2  -1 584.114 94.4450  43
  -4  -2  -1 635.662 84.4595  43
  -4   2  -1 459.713 73.5100  42
   4  -2   1 619.528 95.3182   8
   4   2   1 544.969 124.064  21
  -4  -2  -1 727.598 444.963  32
   4   2   1 569.714 126.551  18
  -4   2  -1 571.617 102.038  54
  -4  -2  -1 721.006 98.1091  54
  -4   2  -2 9601.26 512.790  43
  -4  -2  -2 10420.5 507.218  43
  -4   2  -2 8169.56 524.847  41
  -4  -2  -2 10590.1 791.697  32
   4   2   2 9185.30 561.674  18
  -4   2  -2 8995.96 519.242  54
   4  -2   2 10519.6 538.707  11
  -4  -2  -3 803.562 87.1088  43
  -4   2  -3 554.817 92.3600  43
  -4   2  -3 544.155 103.485  41
  -4   2  -3 554.854 73.0106  37
  -4   2  -3 516.972 108.340  54
  -4  -2  -3 514.393 88.2139  54
  -4   2  -4 5827.39 369.630  41
  -4   2  -4 5941.83 348.437  37
  -4  -2  -4 7469.07 725.426  32
  -4  -2  -4 7356.32 361.373  54
  -4   2  -5 245.359 75.8790  43
  -4  -2  -5 259.137 64.4847  43
  -4   2  -5 274.930 92.8773  41
  -4   2  -5 226.670 65.1125  37
  -4  -2  -5 372.372 79.9942  54
  -4   2  -6 5832.68 294.163  43
  -4  -2  -6 5957.84 284.246  43
  -4   2  -6 4929.71 290.380  37
  -4  -2  -6 5581.94 547.270  32
  -4   2  -6 5100.45 319.310  54
  -4  -2  -6 4867.51 294.587  54
  -4  -2  -7 218.432 44.4744  43
  -4   2  -7 171.725 53.1181  37
  -4  -2  -7 166.352 369.713  32
  -4   2  -7 127.622 85.5185  54
  -4   2  -8 2367.11 139.605  37
  -4  -2  -8 2861.08 256.406  32
   4  -3 -11 3183.91 189.464  40
   4   3 -11 2380.89 149.221  40
   4  -3 -11 2890.83 193.416  35
  -4  -3  11 2115.64 144.940  34
   4   3 -11 2562.94 154.848  29
  -4   3  11 2628.41 171.045  53
  -4  -3  11 2487.59 146.279  53
  -4   3  11 2654.87 167.522  28
  -4  -3  11 2001.75 150.633  27
   4  -3 -11 3000.45 185.888  51
  -4   3  11 2668.36 171.724  50
  -4  -3  11 2287.62 136.091  50
   4  -3 -10 288.564 104.923  40
  -4   3  10 175.212 50.1833  34
  -4  -3  10 180.465 56.0415  34
   4   3 -10 237.521 60.2880  29
  -4   3  10 368.953 76.6519  53
  -4  -3  10 213.604 53.4321  53
  -4   3  10 262.196 77.7925  28
   4  -3 -10 275.656 99.3168  51
   4   3 -10 279.862 82.3765  51
  -4  -3  10 142.988 61.6418  27
  -4   3  10 180.959 74.1256  50
  -4  -3  10 248.560 47.9489  50
   4  -3  -9 3013.49 263.158  35
  -4   3   9 2608.85 158.505  34
  -4  -3   9 1933.38 156.501  34
  -4  -3   9 2515.87 164.206  55
   4   3  -9 2490.18 166.912  29
  -4   3   9 2561.07 176.180  53
  -4  -3   9 2082.03 157.284  53
  -4   3   9 2899.06 189.976  28
  -4  -3   9 2137.02 168.365  27
   4  -3  -9 2451.85 196.744  51
   4   3  -9 2564.32 191.538  51
  -4   3   9 2761.60 180.044  50
  -4  -3   9 2357.73 149.784  50
   4   3  -8 199.704 76.1152  21
  -4   3   8 353.932 65.9691  34
  -4  -3   8 290.174 69.4469  34
   4  -3  -8 472.622 134.816  18
   4   3  -8 370.028 86.6862  18
  -4  -3   8 404.575 83.6587  55
   4   3  -8 371.849 71.1328  29
  -4   3   8 530.137 87.4762  53
  -4  -3   8 252.994 64.7356  53
  -4   3   8 413.997 104.384  28
   4  -3  -8 319.333 108.665  51
  -4  -3   8 234.121 72.6537  27
  -4   3   8 408.773 87.9131  50
  -4  -3   8 262.877 59.8684  50
  -4   3   7 2543.09 198.174  45
   4  -3  -7 3014.43 323.073  22
   4   3  -7 3047.41 229.166  21
  -4   3   7 3130.30 196.462  34
  -4  -3   7 3027.46 197.243  34
   4  -3  -7 3252.14 270.251  18
  -4  -3   7 3152.73 211.448  55
   4   3  -7 2819.00 197.875  29
  -4  -3   7 3091.32 200.906  54
  -4  -3   7 2947.56 196.259  53
  -4   3   7 3951.27 230.128  28
   4  -3  -7 3568.21 345.212  11
   4  -3  -7 3120.35 231.633  51
  -4   3   7 3374.19 212.816  50
  -4  -3   7 3325.07 194.844  50
   4  -3  -6 482.914 177.762  11
   4   3  -6 528.487 84.3693  11
  -4   3   6 340.564 85.7640  45
   4  -3  -6 388.194 162.830  22
   4   3  -6 362.993 93.3808  21
  -4   3   6 212.713 66.7338  34
   4  -3  -6 432.332 118.511  18
   4   3  -6 295.317 92.3817  18
  -4  -3   6 275.024 78.3905  55
  -4  -3   6 340.852 68.0998  53
   4  -3  -6 394.470 109.684  51
  -4  -3   6 341.553 68.4595  27
  -4   3   5 2325.99 190.307  45
   4  -3  -5 2767.05 254.388  22
   4   3  -5 2757.89 217.662  21
  -4   3   5 2503.22 178.569  34
   4  -3  -5 2633.40 231.176  18
   4   3  -5 3088.36 223.350  18
  -4  -3   5 2668.55 186.521  55
  -4   3   5 2646.45 189.281  53
   4  -3  -5 2645.06 262.655  11
  -4  -3   5 2679.35 178.218  27
   4  -3  -5 2691.06 251.026   8
  -4   3   4 695.243 109.288  45
   4   3  -4 452.587 99.2576   8
   4   3  -4 519.196 106.097  21
  -4  -3   4 714.897 79.2153  34
  -4   3   4 535.191 86.8698  34
   4  -3  -4 403.037 106.879  18
   4   3  -4 704.636 116.914  18
  -4  -3   4 563.164 86.1781  55
  -4   3   4 359.009 88.2573  53
  -4   3   4 621.371 103.402  28
  -4  -3   4 537.653 71.7440  27
  -4   3   3 1799.10 167.206  45
  -4   3   3 1899.85 153.442  43
  -4  -3   3 2372.66 150.706  43
   4  -3  -3 1788.47 187.926  22
   4   3  -3 2400.24 200.865  21
  -4   3   3 1684.34 143.492  34
  -4  -3   3 2211.10 141.545  34
   4   3  -3 2118.69 188.258  18
  -4  -3   3 1619.67 141.412  55
  -4   3   3 1836.58 143.191  54
  -4  -3   3 1785.64 145.127  54
  -4   3   3 1388.24 145.269  53
  -4   3   3 2211.26 159.156  28
  -4  -3   3 1823.67 131.706  27
   4  -3  -3 1857.75 193.071  11
  -4   3   3 1718.08 155.878  50
   4  -3  -3 1900.34 181.400   8
  -4   3   2 995.585 129.734  45
  -4  -3   2 1036.07 105.844  43
  -4   3   2 856.544 110.515  43
   4  -3  -2 892.620 127.773   8
   4   3  -2 1035.66 168.428  21
  -4  -3   2 1060.84 97.6793  34
  -4  -3   2 786.286 99.7514  55
   4   3  -2 1115.83 150.623  18
  -4  -3   2 1082.47 110.222  54
  -4   3   2 784.973 108.234  54
  -4   3   2 1196.28 116.833  28
   4  -3  -2 1404.42 151.811  11
  -4   3   2 1053.56 124.379  50
  -4   3   1 1577.11 160.965  45
  -4   3   1 1590.86 148.511  43
  -4  -3   1 2084.36 145.494  43
   4   3  -1 2374.18 229.914  21
  -4  -3   1 2274.15 145.162  34
   4   3  -1 2312.00 208.544  18
  -4   3   1 1647.86 152.387  54
  -4  -3   1 2061.92 147.722  54
  -4   3   1 1765.37 145.879  28
   4  -3  -1 2051.09 181.685  11
  -4   3   1 1733.27 166.462  50
   4  -3  -1 2089.24 176.608   8
   4  -3   0 365.271 94.7830  11
  -4   3   0 205.616 79.8112  43
  -4  -3   0 350.657 71.8219  43
  -4   3   0 363.230 72.9607  42
   4  -3   0 312.438 87.4638   8
   4   3   0 425.477 127.429  21
   4   3   0 495.403 121.091  18
  -4   3   0 265.501 95.6101  54
  -4  -3   0 343.393 82.8060  54
  -4  -3  -1 1245.89 107.108  43
  -4   3  -1 936.474 113.846  43
  -4   3  -1 958.748 105.054  42
   4   3   1 1127.85 170.397  21
  -4  -3  -1 1024.34 401.739  32
   4   3   1 1388.11 181.451  18
  -4  -3  -1 1211.07 115.768  54
  -4   3  -1 985.627 125.440  54
   4  -3   1 1266.17 134.896  11
   4  -3   1 1297.94 133.054   8
  -4  -3  -1 1151.09 135.078  49
  -4   3  -2 246.767 81.7211  43
  -4  -3  -2 297.302 67.5016  43
  -4   3  -2 150.452 143.608  41
   4  -3   2 281.329 78.4331  22
  -4   3  -2 206.030 58.4807  37
   4   3   2 404.059 135.380  21
  -4  -3  -2 49.5732 522.293  32
   4   3   2 408.559 128.131  18
  -4   3  -2 379.709 103.409  54
  -4  -3  -2 179.801 81.7025  49
  -4  -3  -3 894.704 91.9462  43
  -4   3  -3 961.086 108.011  43
  -4   3  -3 741.863 126.557  41
  -4   3  -3 790.528 91.9579  37
   4   3   3 1006.30 154.140  18
  -4  -3  -3 1290.60 108.419  54
  -4   3  -3 873.706 129.403  54
   4  -3   3 1031.24 114.000  17
  -4   3  -4 444.822 103.264  41
  -4   3  -4 410.773 75.2474  37
  -4   3  -4 400.112 117.138  54
  -4  -3  -4 645.751 86.9136  54
  -4   3  -5 1057.48 108.470  43
  -4  -3  -5 1358.42 95.3377  43
  -4   3  -5 916.556 124.671  41
  -4   3  -5 949.508 100.920  37
  -4  -3  -5 1565.13 528.458  32
  -4  -3  -5 919.275 102.389  54
  -4  -3  -6 45.0278 46.4656  43
  -4   3  -6 62.7645 86.6698  41
  -4   3  -6-4.05198 54.8317  37
  -4  -3  -6 8.97549 450.980  32
  -4   3  -6-64.7129 105.839  54
  -4  -3  -6 27.6072 61.7527  54
  -4  -3  -7 160.531 38.4099  43
  -4   3  -7 235.588 73.4456  41
  -4   3  -7 244.520 54.8134  37
  -4  -3  -7 219.898 374.718  32
   4  -4 -11 1760.75 137.440  40
   4   4 -11 1210.11 84.8382  40
  -4  -4  11 1209.36 86.3160  34
   4   4 -11 1255.44 91.7881  29
  -4   4  11 1378.16 111.126  53
  -4  -4  11 1062.02 78.7701  53
  -4   4  11 1523.43 113.741  28
  -4  -4  11 1207.76 92.3135  27
   4  -4 -11 1657.58 126.340  51
  -4   4  11 1358.95 111.272  50
   4  -4 -10 9125.89 437.717  40
  -4  -4  10 6800.22 385.190  34
   4   4 -10 7940.85 395.047  29
  -4   4  10 7804.56 408.367  53
  -4  -4  10 6512.10 378.392  53
  -4   4  10 8213.84 411.290  28
  -4  -4  10 6907.64 393.790  27
   4  -4 -10 7894.93 418.438  51
  -4   4  10 7918.13 408.174  50
  -4   4   9 1637.58 136.455  45
   4  -4  -9 1890.08 180.995  40
   4  -4  -9 2186.07 252.879  35
  -4   4   9 1902.16 125.841  34
  -4  -4   9 1393.42 123.119  34
  -4  -4   9 1799.09 133.471  55
   4   4  -9 2002.33 137.691  29
  -4   4   9 2116.96 150.352  53
  -4  -4   9 1680.71 119.403  53
  -4   4   9 2275.81 161.225  28
   4  -4  -9 2062.79 165.578  51
  -4  -4   9 1541.52 135.944  27
   4   4  -9 2051.23 157.084  51
  -4   4   9 2163.41 149.346  50
  -4   4   8 7044.01 430.581  45
   4   4  -8 8051.84 453.716  21
  -4   4   8 8177.87 418.850  34
  -4  -4   8 6194.52 413.725  34
  -4  -4   8 7667.92 430.636  55
   4   4  -8 8288.95 429.269  29
  -4   4   8 8054.33 436.913  53
  -4  -4   8 7816.48 413.382  53
  -4   4   8 9599.82 448.651  28
   4  -4  -8 8532.61 450.943  51
  -4   4   8 8495.17 437.341  50
  -4   4   7 2332.16 186.835  45
   4  -4  -7 2456.62 348.335  22
   4   4  -7 2839.61 205.568  21
  -4   4   7 2560.87 168.364  34
   4  -4  -7 2468.93 233.938  18
  -4  -4   7 2329.76 181.437  55
   4   4  -7 2508.64 174.960  29
  -4   4   7 2699.45 188.296  53
  -4  -4   7 2655.37 163.944  53
  -4   4   7 2744.06 192.774  28
  -4   4   7 2493.61 182.192  50
  -4   4   6 4664.18 305.935  45
   4  -4  -6 5402.87 462.709  22
   4   4  -6 4990.29 321.977  21
  -4   4   6 4734.64 285.073  34
  -4  -4   6 5501.10 289.188  34
   4  -4  -6 5366.42 352.078  18
   4   4  -6 5132.67 323.026  18
  -4  -4   6 4881.00 298.367  55
  -4   4   6 4879.87 299.806  53
   4  -4  -6 3732.60 341.766  17
   4  -4  -6 5717.86 475.640  11
  -4  -4   6 5126.76 294.655  27
  -4   4   6 5000.39 299.639  50
   4  -4  -5 511.771 183.441  11
  -4   4   5 454.921 106.827  45
   4  -4  -5 719.247 190.934  22
   4   4  -5 475.529 93.7633  21
  -4   4   5 468.527 76.8549  34
  -4  -4   5 634.060 78.6032  34
  -4  -4   5 480.923 88.8029  55
  -4  -4   5 713.552 82.8550  27
  -4   4   5 524.221 95.2272  50
  -4   4   4 14112.4 846.984  45
  -4  -4   4 15876.8 824.235  43
   4   4  -4 16145.4 868.516  21
  -4  -4   4 18324.2 828.353  34
   4   4  -4 16496.1 871.251  18
  -4  -4   4 16097.6 833.644  55
  -4   4   4 17638.4 846.263  28
   4  -4  -4 17165.0 924.942  11
  -4  -4   4 16017.9 822.300  27
  -4   4   4 14328.9 838.398  50
  -4   4   3 2063.24 189.253  45
  -4   4   3 2074.40 174.502  43
  -4  -4   3 2241.41 164.880  43
   4  -4  -3 2173.53 212.549  22
   4   4  -3 2723.74 211.373  21
  -4  -4   3 2712.41 157.853  34
   4   4  -3 2936.61 212.366  18
  -4  -4   3 2185.79 161.806  55
  -4   4   3 2027.65 161.701  54
  -4   4   3 2018.95 171.539  53
  -4   4   3 2473.75 178.354  28
  -4  -4   3 2282.17 149.211  27
   4  -4  -3 2196.73 221.582  11
   4  -4  -3 1907.54 203.646   8
  -4   4   2 6934.11 451.103  45
  -4   4   2 6528.69 426.634  43
  -4  -4   2 8118.68 427.390  43
   4  -4  -2 7235.37 470.964  22
   4   4  -2 9113.29 497.680  21
  -4  -4   2 9711.99 427.355  34
   4   4  -2 9007.08 487.423  18
  -4  -4   2 7672.81 424.681  55
  -4   4   2 7156.48 425.698  54
  -4  -4   2 7784.57 425.289  54
  -4   4   2 7799.60 433.594  28
   4  -4  -2 7704.18 472.776  11
   4  -4  -2 7265.36 465.038   8
  -4   4   1 3875.76 273.400  45
  -4   4   1 3354.50 245.318  43
  -4  -4   1 4308.07 244.056  43
  -4   4   1 3624.13 244.691  42
   4  -4  -1 3363.36 272.988  22
   4   4  -1 4576.73 322.892  21
  -4  -4   1 4360.11 236.114  34
   4   4  -1 4655.37 305.962  18
  -4   4   1 3598.10 245.633  54
  -4  -4   1 4510.74 245.343  54
  -4   4   1 3688.77 244.428  28
   4  -4  -1 4025.18 283.195  11
   4  -4  -1 3682.25 274.447   8
  -4   4   0 9148.32 543.507  43
  -4  -4   0 10566.5 537.639  43
  -4   4   0 9498.47 542.464  42
   4  -4   0 9497.14 575.535  22
   4   4   0 12555.9 629.933  21
   4   4   0 11863.9 633.256  18
  -4   4   0 9580.84 548.825  54
  -4  -4   0 11390.2 543.342  54
   4  -4   0 10014.8 577.172  11
  -4  -4   0 10190.6 576.464  49
  -4   4  -1 2548.98 180.715  43
  -4  -4  -1 2556.92 161.540  43
  -4   4  -1 2128.25 166.550  42
   4  -4   1 2498.92 200.390  22
  -4   4  -1 1830.90 147.129  37
   4   4   1 2952.49 260.558  18
  -4   4  -1 2338.50 189.701  54
   4  -4   1 2570.01 200.779  11
  -4  -4  -1 2136.66 194.183  49
  -4   4  -2 9276.74 483.786  43
  -4  -4  -2 9678.96 467.462  43
  -4   4  -2 7977.79 472.575  42
   4  -4   2 9431.13 509.130  22
  -4   4  -2 7061.60 460.891  37
   4   4   2 9569.44 591.406  21
  -4  -4  -2 9787.11 616.844  32
   4   4   2 7519.27 565.437  18
  -4   4  -2 9036.25 496.106  54
  -4  -4  -2 11572.3 480.155  54
   4  -4   2 8262.84 501.474  17
  -4  -4  -2 7903.56 497.339  49
  -4   4  -3 2530.60 182.024  43
  -4  -4  -3 2989.74 166.856  43
  -4   4  -3 2417.91 197.414  41
  -4   4  -3 1941.46 162.754  37
   4   4   3 1939.85 268.811  21
  -4  -4  -3 2261.87 460.256  32
   4   4   3 1938.48 245.166  18
  -4   4  -3 2776.77 204.244  54
  -4  -4  -3 3356.25 179.150  54
   4  -4   3 2173.62 196.428  17
  -4  -4  -3 2251.75 188.098  49
  -4   4  -4 4906.38 317.562  41
  -4   4  -4 5376.58 304.613  37
  -4  -4  -4 4905.35 525.760  32
  -4   4  -4 5401.60 337.495  54
  -4  -4  -4 4425.92 301.677  49
  -4  -4  -5 2389.27 137.579  43
  -4   4  -5 1708.72 159.576  41
  -4   4  -5 2005.93 146.187  37
  -4  -4  -5 1731.48 439.670  32
  -4   4  -5 1713.71 183.964  54
  -4  -4  -5 2028.01 141.587  54
  -4  -4  -6 4984.48 253.722  43
  -4   4  -6 4272.22 272.998  41
  -4   4  -6 4703.48 266.371  37
  -4   4  -7 527.050 81.5116  41
  -4   4  -7 744.370 69.1988  37
  -4  -4  -7 909.915 345.605  32
  -4   5  11 1140.51 78.1988  42
   4  -5 -11 1088.58 115.201  40
  -4  -5  11 810.179 65.9586  34
   4   5 -11 1022.63 74.7128  29
  -4   5  11 979.252 89.4746  53
  -4   5  11 1032.26 94.4405  28
  -4  -5  11 823.379 70.0899  27
   4   5 -11 1034.43 82.7114  51
  -4   5  11 953.701 90.7596  50
  -4   5  10 1190.05 100.692  45
   4   5 -10 1238.40 95.5146  44
   4  -5 -10 1645.18 149.540  40
   4  -5 -10 1471.04 179.774  35
  -4  -5  10 1042.85 83.2511  34
  -4  -5  10 1045.22 82.5233  55
   4   5 -10 1288.30 93.7708  29
  -4   5  10 1247.13 110.081  53
  -4   5  10 1165.56 115.062  28
  -4  -5  10 1145.58 92.3233  27
   4   5 -10 1174.11 105.773  51
  -4   5  10 1153.99 107.817  50
  -4   5   9 1014.35 112.813  45
   4   5  -9 1204.29 99.9266  44
   4  -5  -9 1065.16 145.064  40
   4  -5  -9 1480.68 232.542  35
  -4  -5   9 847.614 83.1587  34
  -4  -5   9 1081.81 93.1403  55
   4   5  -9 1166.21 95.6231  29
  -4   5   9 1134.72 108.489  53
  -4   5   9 1293.94 120.566  28
  -4  -5   9 960.383 95.2006  27
  -4   5   9 1225.84 112.351  50
  -4   5   8 593.162 105.577  45
   4   5  -8 820.111 86.9965  44
   4  -5  -8 722.590 124.017  40
   4  -5  -8 819.624 246.045  35
  -4  -5   8 651.809 91.1282  55
   4   5  -8 718.858 84.5832  29
  -4   5   8 737.740 94.7166  53
  -4   5   8 695.088 98.4139  28
  -4   5   8 862.626 98.3169  50
  -4  -5   7 359.546 84.2860  47
  -4   5   7 561.746 105.180  45
   4   5  -7 597.023 80.2299  44
   4  -5  -7 519.543 111.355  40
  -4  -5   7 424.103 69.3134  34
  -4  -5   7 472.069 86.7388  55
   4   5  -7 461.281 77.1960  29
  -4   5   7 680.743 94.1312  53
  -4   5   7 614.916 94.2003  28
  -4  -5   7 369.373 74.5164  27
  -4   5   7 568.632 91.8429  50
  -4  -5   6 56.8185 76.2071  47
  -4   5   6 335.939 93.0903  45
   4  -5  -6 562.630 298.701  22
   4   5  -6 180.384 75.4957  21
  -4  -5   6 347.554 65.4894  34
   4   5  -6 356.983 83.7173  18
  -4  -5   6 239.402 85.7924  55
   4   5  -6 396.097 76.3540  29
  -4   5   6 252.878 81.2521  53
  -4   5   6 416.485 92.0067  28
  -4  -5   6 329.427 66.6249  27
  -4   5   6 432.848 89.3152  50
  -4  -5   5 1124.93 124.843  47
  -4   5   5 1233.90 140.095  45
   4  -5  -5 1389.34 269.507  22
   4   5  -5 1030.46 126.654  21
  -4  -5   5 1400.39 109.083  34
   4   5  -5 1392.57 136.548  18
  -4  -5   5 1046.03 121.236  55
  -4   5   5 1095.42 125.122  53
  -4  -5   5 1478.05 112.361  27
   4  -5  -5 1110.85 182.993  17
  -4   5   5 1260.94 132.464  50
  -4  -5   4 2929.61 206.763  47
  -4   5   4 2901.75 220.885  45
  -4  -5   4 3031.02 191.363  43
   4   5  -4 3225.06 228.839  21
  -4  -5   4 3415.92 192.241  34
  -4  -5   4 3098.66 203.230  55
   4  -5  -4 2624.52 246.059  17
  -4   5   4 3063.33 214.488  28
   4  -5  -4 2656.27 294.173  11
  -4  -5   4 2900.97 186.620  27
  -4   5   4 2725.36 209.629  50
  -4   5   3 5059.27 331.969  45
  -4  -5   3 4924.65 307.225  43
   4  -5  -3 4920.89 385.531  22
   4   5  -3 5843.83 353.419  21
  -4  -5   3 6739.34 307.859  34
   4   5  -3 5942.87 349.181  18
  -4  -5   3 5561.95 314.969  55
  -4   5   3 5300.61 320.706  28
   4  -5  -3 4434.82 344.970  17
   4  -5  -3 5180.85 389.188  11
  -4  -5   3 5102.95 294.297  27
  -4   5   3 5083.86 326.912  50
   4  -5  -2 486.800 128.468  11
  -4   5   2 359.702 106.075  45
  -4   5   2 261.736 96.5893  43
  -4  -5   2 502.415 86.0633  43
  -4   5   2 403.693 91.9343  42
   4  -5  -2 443.337 127.000  22
   4   5  -2 493.486 161.006  21
  -4  -5   2 435.351 66.5591  34
   4   5  -2 632.575 107.397  18
  -4   5   2 261.484 93.5749  54
  -4   5   2 486.652 93.8468  28
  -4   5   2 348.004 101.757  50
  -4   5   1 1627.11 163.410  45
  -4   5   1 1403.83 151.321  43
  -4  -5   1 2051.03 145.951  43
  -4   5   1 1895.20 151.442  42
   4  -5  -1 1397.93 178.045  22
   4   5  -1 2304.11 232.197  21
  -4  -5   1 1863.06 127.186  34
   4   5  -1 2310.00 193.275  18
  -4  -5   1 1933.08 139.913  55
  -4   5   1 1540.46 156.343  54
  -4  -5   1 2176.19 143.550  54
  -4   5   1 1692.38 150.726  28
   4  -5  -1 1403.51 171.063  17
   4  -5  -1 1575.35 187.337  11
  -4  -5   1 1911.37 168.038  49
   4  -5   0 970.651 135.348  11
  -4  -5   0 917.640 99.1383  43
  -4   5   0 607.706 109.205  43
  -4   5   0 774.279 102.979  42
   4  -5   0 913.295 140.585  22
  -4   5   0 609.388 76.0675  37
   4   5   0 1238.58 182.767  21
  -4  -5   0 964.792 95.5825  55
   4   5   0 1180.61 155.999  18
  -4   5   0 747.848 121.618  54
  -4   5   0 759.744 106.993  28
   4  -5   0 919.885 137.334  17
  -4  -5   0 979.140 131.728  49
  -4   5  -1 1289.94 139.755  43
  -4  -5  -1 1754.21 125.024  43
  -4   5  -1 1440.36 134.271  42
   4  -5   1 1379.70 167.414  22
  -4   5  -1 1316.62 114.148  37
   4   5   1 1982.00 211.675  18
  -4   5  -1 1531.00 158.446  54
   4  -5   1 1398.27 162.919  17
  -4  -5  -1 1503.06 157.599  49
  -4  -5  -2 947.268 90.6935  43
  -4   5  -2 738.228 114.369  43
  -4   5  -2 956.435 105.370  42
   4  -5   2 703.026 123.234  22
  -4   5  -2 669.699 88.8159  37
   4   5   2 1064.52 170.731  21
   4   5   2 1056.13 183.413  18
  -4  -5  -2 1193.25 102.699  54
  -4   5  -2 791.593 134.841  54
   4  -5   2 844.741 132.307  17
  -4  -5  -2 964.673 127.932  49
  -4  -5  -3 1046.48 90.5505  43
  -4   5  -3 897.422 116.318  43
  -4   5  -3 863.337 97.8896  37
   4   5   3 1163.35 196.754  21
  -4  -5  -3 892.359 350.064  32
   4  -5   3 575.850 130.299  19
  -4  -5  -3 1306.81 103.279  54
  -4   5  -3 818.990 143.670  54
  -4  -5  -3 816.245 123.496  49
  -4   5  -4-13.3577 101.523  41
  -4   5  -4 110.516 62.4347  37
  -4   5  -4 81.2837 111.901  54
  -4  -5  -4 41.2849 56.7634  54
  -4  -5  -4 177.018 81.1651  49
  -4  -5  -5 174.649 47.9291  43
  -4   5  -5 76.9700 77.1474  41
  -4   5  -5 115.362 57.4250  37
  -4  -5  -5 104.978 346.329  32
  -4   5  -5 96.9035 111.391  54
  -4  -5  -5 91.7454 55.9364  54
  -4  -5  -5 116.081 55.1157  49
  -4  -5  -6 446.763 53.1731  43
  -4   5  -6 303.541 81.1251  41
  -4   5  -6 541.304 67.1827  37
  -4  -5  -6 264.916 355.724  32
  -4   5  -7 272.907 46.1313  37
  -4  -5  -7 188.045 300.150  32
  -4   6  10 3425.53 197.603  45
   4   6 -10 3231.81 185.419  44
  -4   6  10 3524.53 191.025  42
   4  -6 -10 3605.55 223.470  40
   4  -6 -10 3996.23 261.009  35
  -4  -6  10 3046.01 175.426  55
   4   6 -10 3220.50 181.171  29
  -4   6  10 3191.04 197.784  53
  -4   6  10 3178.76 206.700  28
  -4  -6  10 2828.72 179.349  27
   4   6 -10 3252.60 188.523  51
  -4   6  10 3404.69 199.077  50
  -4   6   9 3606.74 228.396  45
   4   6  -9 3446.10 206.874  44
  -4   6   9 3865.64 213.556  42
   4  -6  -9 3870.71 243.036  40
   4  -6  -9 3208.60 218.874  30
  -4  -6   9 3377.20 201.540  55
   4   6  -9 3395.51 201.738  29
  -4   6   9 3254.12 216.424  53
  -4   6   9 3777.74 229.984  28
   4   6  -9 3412.92 214.780  51
  -4   6   9 3574.94 216.544  50
  -4   6   8 5294.83 302.577  45
   4   6  -8 4897.32 277.491  44
   4  -6  -8 5446.39 305.539  40
   4  -6  -8 6117.77 431.151  35
  -4  -6   8 4467.52 262.463  34
  -4  -6   8 4919.53 278.844  55
   4   6  -8 5211.69 275.838  29
  -4   6   8 4634.06 285.105  53
  -4   6   8 5132.19 294.223  28
  -4  -6   8 4343.70 271.218  27
  -4   6   8 5014.67 286.781  50
  -4  -6   7 3634.23 237.810  47
  -4   6   7 4302.03 257.796  45
   4   6  -7 4308.14 234.046  44
   4  -6  -7 4049.33 249.098  40
   4  -6  -7 5377.45 387.328  35
  -4  -6   7 3691.35 217.709  34
  -4  -6   7 3227.26 233.680  55
   4   6  -7 4098.93 232.858  29
  -4   6   7 3746.78 240.528  53
  -4   6   7 4497.31 254.592  28
  -4  -6   7 2837.36 219.402  27
  -4   6   7 4308.07 245.691  50
  -4  -6   6 5567.48 380.302  47
  -4   6   6 7172.11 397.282  45
   4   6  -6 7427.55 380.040  44
   4  -6  -6 6699.28 382.741  40
   4  -6  -6 5576.31 641.376  22
   4  -6  -6 7880.50 489.396  35
  -4  -6   6 7196.64 368.317  34
  -4  -6   6 5164.23 376.177  55
   4   6  -6 7864.97 385.275  29
  -4   6   6 6598.73 387.197  53
  -4   6   6 7999.37 399.751  28
  -4  -6   6 6296.33 369.534  27
  -4   6   6 7440.22 391.363  50
  -4  -6   5 7745.48 456.721  47
  -4   6   5 8333.14 468.932  45
   4   6  -5 9096.54 456.791  44
   4  -6  -5 7410.79 445.923  40
   4  -6  -5 9256.71 705.324  22
  -4  -6   5 9844.29 443.563  34
   4  -6  -5 6459.79 547.244  19
   4   6  -5 9686.44 482.549  18
  -4  -6   5 6970.73 451.912  55
  -4   6   5 7773.28 460.253  53
  -4  -6   5 8314.91 443.943  27
  -4   6   5 8693.30 465.806  50
   4  -6  -4 1412.35 263.875  11
  -4  -6   4 1211.43 123.011  47
  -4   6   4 1323.95 140.211  45
  -4  -6   4 1328.10 110.646  43
  -4   6   4 1350.58 129.223  42
   4   6  -4 1268.88 133.921  21
  -4  -6   4 1492.88 107.526  34
   4   6  -4 1469.55 135.047  18
  -4  -6   4 1226.86 124.248  55
  -4   6   4 1201.71 134.284  28
  -4  -6   4 1329.83 103.237  27
   4  -6  -4 1118.32 190.754  17
  -4   6   4 1428.03 139.496  50
  -4   6   3 6165.98 389.236  45
  -4  -6   3 5767.80 363.227  43
  -4   6   3 6579.91 379.218  42
   4  -6  -3 6682.70 488.101  22
   4   6  -3 7218.98 404.658  21
  -4  -6   3 7819.78 361.906  34
  -4  -6   3 6973.29 376.121  55
   4  -6  -3 5521.61 436.660  17
  -4   6   3 6725.18 387.665  28
   4  -6  -3 6355.73 480.256  11
  -4   6   3 6222.76 388.957  50
  -4   6   2 10240.2 573.217  45
  -4  -6   2 9628.03 545.625  43
   4  -6  -2 10096.9 635.399  22
  -4   6   2 9156.32 555.036  54
  -4   6   2 10646.6 564.002  28
   4  -6  -2 10744.1 641.121  11
  -4   6   2 10845.8 575.686  50
  -4   6   1 3045.63 243.253  45
  -4  -6   1 3065.18 220.215  43
  -4   6   1 3727.61 236.414  42
   4  -6  -1 3195.34 289.123  22
   4   6  -1 4228.21 301.923  21
   4   6  -1 4419.05 268.937  18
  -4  -6   1 3857.08 223.717  55
  -4   6   1 3001.31 239.007  54
  -4  -6   1 4063.12 224.873  54
  -4   6   1 3466.63 237.606  28
   4  -6  -1 2904.45 277.987  17
   4  -6  -1 3182.13 287.173  11
  -4  -6   1 3769.76 242.847  49
  -4  -6   0 5790.11 321.379  43
  -4   6   0 6287.51 340.222  42
   4  -6   0 5210.25 390.154  22
  -4   6   0 4412.46 305.038  37
   4   6   0 7264.37 400.094  21
   4   6   0 7274.02 386.612  18
  -4  -6   0 6264.35 323.018  55
  -4   6   0 5183.98 344.810  54
  -4   6   0 5473.46 334.059  28
   4  -6   0 5101.45 384.177  17
   4  -6   0 5469.20 387.643  11
  -4  -6   0 6018.60 344.102  49
  -4  -6  -1 3785.55 216.464  43
  -4   6  -1 3837.14 235.012  42
   4  -6   1 2803.12 268.929  22
  -4   6  -1 2913.00 206.660  37
   4   6   1 4078.72 288.768  21
   4  -6   1 2640.52 275.804  19
   4   6   1 4561.19 297.156  18
  -4   6  -1 2993.47 245.964  54
  -4  -6  -1 4201.06 220.359  54
   4  -6   1 3088.69 276.449  17
  -4  -6  -1 3403.14 237.150  49
  -4  -6  -2 3640.25 218.788  43
  -4   6  -2 3666.72 234.317  42
  -4   6  -2 3378.44 222.502  37
   4   6   2 4478.33 300.016  21
   4  -6   2 2022.81 276.445  19
  -4   6  -2 3673.30 271.460  54
  -4  -6  -2 4883.18 230.286  54
  -4  -6  -2 3350.63 246.995  49
  -4  -6  -3 2182.76 134.649  43
  -4   6  -3 1674.37 132.561  42
  -4   6  -3 1969.23 143.476  37
  -4   6  -3 2061.78 192.009  54
  -4  -6  -3 2232.06 139.332  54
  -4  -6  -3 1670.08 157.110  49
  -4   6  -4 5218.56 290.598  37
  -4  -6  -4 4891.93 391.699  32
  -4   6  -4 5908.28 337.773  54
  -4  -6  -4 5480.09 280.574  54
  -4   6  -5 2492.05 161.568  37
  -4  -6  -5 2241.50 321.235  32
  -4  -6  -5 2058.58 162.457  49
  -4  -6  -6 1931.14 110.855  43
  -4   6  -6 1773.78 119.736  37
  -4   7   9 1427.91 122.321  45
   4   7  -9 1288.27 96.9665  44
  -4   7   9 1415.82 103.973  42
   4  -7  -9 1721.00 129.980  40
   4  -7  -9 1614.37 184.132  35
  -4  -7   9 1173.54 81.7102  34
   4  -7  -9 1154.00 105.115  30
  -4  -7   9 1260.33 91.8594  55
   4   7  -9 1322.25 90.3322  29
  -4   7   9 1289.46 123.031  28
   4   7  -9 1297.42 98.3182  51
  -4   7   9 1304.28 107.673  50
  -4   7   8 2494.39 180.609  45
   4   7  -8 2319.72 153.350  44
  -4   7   8 2417.32 160.869  42
   4  -7  -8 2323.82 173.849  40
   4  -7  -8 2887.80 264.040  35
  -4  -7   8 2236.38 139.060  34
   4  -7  -8 2743.54 224.718  30
  -4  -7   8 2565.40 156.239  55
   4   7  -8 2544.62 150.606  29
  -4   7   8 2270.19 161.472  53
  -4   7   8 2672.81 181.678  28
  -4  -7   8 2206.31 144.533  27
   4   7  -8 2629.38 165.400  51
  -4   7   8 2513.54 167.155  50
  -4  -7   7 1073.00 95.1481  47
  -4   7   7 766.341 106.549  45
   4   7  -7 784.350 85.1452  44
  -4   7   7 1043.44 97.8908  42
   4  -7  -7 784.781 101.117  40
   4  -7  -7 1122.55 199.377  35
  -4  -7   7 861.326 72.9952  34
  -4  -7   7 900.902 92.9714  55
   4   7  -7 980.118 83.6381  29
  -4   7   7 647.122 93.5734  53
  -4   7   7 943.692 109.784  28
  -4  -7   7 709.300 74.6625  27
  -4   7   7 840.957 100.724  50
  -4  -7   6 2716.52 188.685  47
  -4   7   6 3263.21 208.867  45
   4   7  -6 3069.82 183.464  44
  -4   7   6 3203.54 194.680  42
   4  -7  -6 2593.53 183.391  40
   4  -7  -6 2343.05 253.086  35
  -4  -7   6 2950.31 168.565  34
  -4  -7   6 2253.17 184.926  55
   4   7  -6 3528.83 190.500  29
  -4   7   6 3043.61 207.785  28
  -4  -7   6 2435.24 169.563  27
  -4   7   6 2973.11 199.308  50
  -4  -7   5 896.937 110.901  47
  -4   7   5 1158.58 128.716  45
   4   7  -5 1591.88 114.135  44
  -4   7   5 1653.35 131.433  42
   4  -7  -5 1163.18 304.414  22
   4  -7  -5 1064.69 171.159  35
  -4  -7   5 1388.42 96.9659  34
  -4  -7   5 1043.25 113.866  55
  -4  -7   5 1239.01 97.2362  27
  -4   7   5 1058.89 127.435  50
  -4   7   4 147.539 81.5126  45
  -4  -7   4 325.984 57.5548  43
  -4   7   4 103.786 77.0634  42
   4  -7  -4 193.086 118.095  35
  -4  -7   4 281.325 49.3383  34
  -4  -7   4 87.1503 69.0321  55
  -4   7   4 176.038 90.0105  28
  -4  -7   4 211.943 47.5209  27
  -4   7   4 146.830 88.5857  50
  -4  -7   3 264.955 69.1796  47
  -4   7   3 180.021 92.8357  45
  -4  -7   3 250.022 66.7571  43
  -4   7   3 335.487 86.6793  42
   4  -7  -3 61.1673 181.178  22
   4  -7  -3 224.615 101.273  35
   4  -7  -3 368.938 158.367  19
  -4   7   3 251.032 94.7533  28
  -4   7   3 397.430 101.328  50
  -4   7   2 953.248 126.741  45
  -4  -7   2 985.581 107.168  43
   4  -7  -2 709.628 199.523  22
   4   7  -2 1441.91 157.541  21
   4   7  -2 1278.02 124.718  18
  -4  -7   2 1184.36 109.782  55
  -4   7   2 1027.52 131.272  28
   4  -7  -2 799.499 180.063  17
  -4   7   1 230.473 88.2109  45
  -4  -7   1 341.278 81.4887  43
   4  -7  -1 240.705 150.988  22
  -4   7   1 185.620 56.6611  37
   4   7  -1 485.433 148.769  21
  -4  -7   1 451.713 74.2914  55
  -4   7   1 324.578 109.230  54
  -4   7   1 426.171 102.421  28
   4  -7  -1 15.3355 135.213  17
  -4  -7   0 650.221 88.8250  43
  -4   7   0 679.340 103.356  42
   4  -7   0 336.388 156.480  22
  -4   7   0 562.159 75.9595  37
   4   7   0 795.296 178.412  21
   4  -7   0 596.761 166.383  19
  -4  -7   0 691.587 81.4496  55
  -4   7   0 575.726 127.827  54
  -4   7   0 609.216 104.712  28
  -4  -7   0 595.584 99.8503  49
  -4  -7  -1 178.812 67.1565  43
  -4   7  -1 287.305 89.2993  42
   4  -7   1 155.196 119.902  22
  -4   7  -1 217.008 62.8107  37
   4   7   1 290.007 139.920  21
   4  -7   1 165.767 139.562  19
  -4   7  -1 275.772 118.907  54
  -4  -7  -1 334.882 70.8558  54
  -4  -7  -1 118.065 77.1882  49
  -4  -7  -2 419.379 68.9576  43
  -4   7  -2 495.120 85.9369  42
  -4   7  -2 419.746 70.7085  37
  -4   7  -2 377.323 120.348  54
  -4  -7  -2 471.107 71.6258  54
  -4  -7  -2 387.787 85.6724  49
  -4  -7  -3 649.814 69.7418  43
  -4   7  -3 461.854 66.7375  42
  -4   7  -3 635.186 77.7852  37
  -4  -7  -3 668.229 71.6073  54
  -4  -7  -3 452.646 85.2717  49
  -4   7  -4 1194.64 91.6419  37
  -4  -7  -4 770.335 100.677  49
  -4  -7  -5 485.171 50.4584  43
  -4   7  -5 319.869 52.4527  37
  -4   8   8 2603.43 169.209  45
   4   8  -8 2452.88 145.872  44
  -4   8   8 2490.39 154.894  42
   4  -8  -8 2490.37 153.385  40
   4  -8  -8 2366.06 197.494  35
  -4  -8   8 2071.18 128.317  34
   4  -8  -8 2691.08 185.643  30
  -4  -8   8 2317.16 141.033  55
   4   8  -8 2438.21 139.566  29
  -4   8   8 2346.08 174.694  28
  -4  -8   8 2284.21 133.995  27
   4   8  -8 2280.08 143.625  51
  -4   8   8 2450.47 156.183  50
  -4  -8   7 4809.99 266.944  47
  -4   8   7 4942.56 287.278  45
   4   8  -7 4951.12 268.583  44
  -4   8   7 5124.83 278.964  42
   4  -8  -7 4739.11 316.283  35
  -4  -8   7 4918.32 251.337  34
  -4  -8   7 4593.22 266.403  55
   4   8  -7 4856.59 263.574  29
  -4   8   7 4983.56 296.369  28
  -4  -8   7 4669.06 255.580  27
  -4   8   7 4680.17 279.042  50
  -4  -8   6 2722.20 182.539  47
  -4   8   6 3179.07 204.048  45
   4   8  -6 2962.90 181.979  44
  -4   8   6 3014.94 194.242  42
   4  -8  -6 2476.68 219.698  35
  -4  -8   6 3106.17 165.038  34
  -4  -8   6 2642.55 182.922  55
   4   8  -6 3308.06 182.089  29
  -4   8   6 3124.21 212.703  28
  -4  -8   6 2899.64 167.743  27
  -4   8   6 2996.46 197.271  50
  -4  -8   5 5361.80 329.985  47
  -4   8   5 6021.56 348.251  45
   4   8  -5 5984.44 332.008  44
  -4   8   5 6342.20 344.940  42
   4  -8  -5 5264.82 357.768  35
  -4  -8   5 6951.03 312.997  34
  -4  -8   5 5302.81 331.335  55
  -4  -8   5 5894.77 314.654  27
  -4   8   5 6035.29 348.997  50
  -4   8   4 4917.53 295.412  45
  -4  -8   4 5047.27 258.076  43
  -4   8   4 4950.14 291.931  42
  -4  -8   4 5036.56 280.008  55
  -4   8   4 5193.31 300.949  50
  -4  -8   3 4652.63 271.341  47
  -4   8   3 4623.53 290.577  45
  -4  -8   3 4768.78 260.035  43
  -4   8   3 5103.31 290.086  42
  -4   8   3 4972.46 304.300  28
  -4   8   2 2412.43 181.369  45
  -4  -8   2 2190.65 151.692  43
  -4   8   2 3144.73 191.112  42
   4  -8  -2 1331.37 245.314  22
  -4   8   2 1901.95 143.015  37
  -4  -8   2 3011.74 169.683  55
  -4   8   2 2703.56 198.680  28
  -4   8   1 5063.18 305.279  45
  -4  -8   1 3991.19 275.561  43
   4  -8  -1 3000.03 355.456  22
  -4   8   1 5083.96 278.013  37
  -4  -8   1 6703.62 295.308  55
  -4   8   1 5831.01 322.965  28
  -4  -8   0 1464.62 126.032  43
  -4   8   0 1696.95 150.070  42
  -4   8   0 1693.19 120.954  37
  -4   8   0 1260.36 141.728  28
  -4   8  -1 4311.55 278.506  46
  -4  -8  -1 5375.43 293.332  43
  -4   8  -1 5824.78 314.069  42
  -4   8  -1 5005.16 287.830  37
  -4  -8  -1 4862.79 301.485  49
  -4  -8  -2 2060.66 130.615  43
  -4   8  -2 1711.84 137.756  42
  -4   8  -2 1774.85 126.420  37
  -4  -8  -2 2174.38 128.701  54
  -4  -8  -2 1540.75 136.222  49
  -4   8  -3 3522.20 211.573  42
  -4   8  -3 4089.54 219.479  37
  -4  -8  -3 4125.57 209.504  54
  -4  -8  -3 3642.32 230.580  49
  -4  -8  -4 1099.75 77.9335  43
  -4   8  -4 967.101 78.6724  37
  -4  -8  -4 880.151 91.5608  49
  -4  -9   7 239.436 39.8769  47
  -4   9   7 252.127 70.2464  45
   4   9  -7 225.298 44.8132  44
  -4   9   7 162.093 57.8258  42
   4  -9  -7 193.170 74.8659  35
  -4  -9   7 156.786 41.0172  55
   4   9  -7 201.543 37.0011  29
  -4   9   7 143.678 78.7614  28
   4   9  -7 175.967 41.2940  51
  -4  -9   7 149.615 25.7932  27
  -4  -9   6 2153.60 130.272  47
  -4   9   6 2009.94 149.980  45
   4   9  -6 2125.28 131.810  44
  -4   9   6 2079.36 147.951  42
   4  -9  -6 1725.82 144.696  35
   4  -9  -6 2392.98 202.679  30
  -4  -9   6 2005.08 131.910  55
   4   9  -6 1995.64 124.710  29
  -4   9   6 1945.92 166.249  28
  -4   9   5 181.092 70.7329  45
   4   9  -5 300.200 51.4081  44
  -4   9   5 262.656 72.3159  42
  -4  -9   5 231.683 54.6264  55
  -4  -9   4 1429.73 104.568  47
   4   9  -4 1527.21 104.511  44
  -4  -9   4 1203.69 84.9880  43
  -4   9   4 1554.26 128.564  42
  -4  -9   3 255.431 45.7962  43
  -4   9   3 238.058 83.2304  42
  -4  -9   3 215.059 59.3686  55
  -4   9   3 232.555 101.095  28
  -4  -9   2 1523.53 101.163  43
  -4   9   2 1508.67 134.840  42
  -4   9   2 1206.19 95.5485  37
  -4  -9   2 1553.87 111.827  55
  -4   9   2 1098.36 146.947  28
  -4  -9   1 323.970 58.0068  43
  -4   9   1 218.928 51.1408  37
  -4  -9   1 384.422 59.0818  55
  -4  -9   1 383.690 67.9985  54
  -4   9   1 210.016 94.8010  28
  -4  -9   0 1418.82 109.420  43
  -4   9   0 1305.99 102.707  37
  -4   9  -1 81.6345 36.0205  46
  -4  -9  -1 66.4936 52.1255  43
  -4   9  -1 82.6091 62.2428  42
  -4   9  -1 138.276 45.8488  37
  -4  -9  -1 75.6728 46.5222  54
  -4   9  -2 973.041 92.7387  42
  -4   9  -2 1168.26 86.1906  37
  -4  -9  -2 1174.02 81.2692  54
  -4   9  -3 123.016 38.3988  37
  -4  -9  -3 149.586 55.3347  49
   4  10  -5 6234.01 334.511  44
  -4  10   5 5995.00 347.680  42
   4 -10  -5 7082.85 368.545  30
  -4  10   5 6710.65 368.423  28
   4  10  -4 1461.20 103.842  44
  -4  10   4 1611.91 127.529  42
   4 -10  -4 1449.51 143.520  30
  -4 -10   4 1695.37 107.618  55
  -4 -10   3 5495.70 313.472  43
  -4  10   3 6621.07 351.290  42
   4 -10  -3 5793.45 354.415  30
  -4  10   3 6540.37 362.896  28
  -4 -10   2 198.119 38.1681  43
  -4  10   2 122.420 67.3056  42
   4 -10  -2 184.739 78.1185  30
  -4 -10   2 223.026 47.8245  55
  -4  10   2 114.193 80.9689  28
  -4 -10   1 3889.29 215.036  43
  -4  10   1 3992.29 242.121  42
  -4  10   1 3705.24 211.855  37
   4 -10  -1 3791.70 236.812  30
  -4  10   0 647.083 63.7425  46
  -4 -10   0 873.588 69.3257  43
  -4  10   0 671.235 60.9579  37
   4 -10   0 771.362 77.8823  30
  -4 -10  -1 4978.81 249.148  43
  -4  10  -1 4694.16 256.504  42
  -4  10  -1 4357.44 241.692  37
  -5   0   8 4648.64 262.668  28
   5   0  -8 4792.04 272.949  51
  -5   0   7-17.3405 53.2717  28
   5   0  -7-65.1720 75.0509  51
  -5   0   6 3036.57 176.186  28
   5   0  -6 2588.88 198.651  51
  -5   0   5-42.2023 45.4133  28
   5   0  -5-41.0588 81.7041  51
  -5   0   4 8696.39 422.849  54
  -5   0   4 7493.47 405.978  28
  -5   0   3 3.98558 67.2134  43
  -5   0   3 30.0131 38.9166  42
  -5   0   3 94.0963 62.9799  54
  -5   0   2 6031.45 334.244  43
  -5   0   2 6023.64 329.432  54
  -5   0   1 3.82587 61.3886  43
  -5   0   1-30.1216 62.9133  54
  -5   0   0 4854.64 272.428  43
  -5   0   0 4904.56 277.121  54
  -5   0  -1 87.1722 54.8513  43
  -5   0  -1 44.9753 63.8243  54
  -5   0  -2 2221.77 143.410  43
  -5   0  -2 2499.50 161.902  54
  -5   0  -3 21.1739 40.1947  43
  -5  -1   7 1598.24 124.939  34
  -5   1   7 1912.97 128.407  28
  -5  -1   7 2183.95 130.175  28
   5  -1  -7 1689.74 136.485  51
   5   1  -7 2458.18 157.449  51
  -5   1   7 1441.16 117.867  50
  -5  -1   6 3.55148 48.7291  34
  -5   1   6 33.2593 51.8051  28
  -5  -1   6 49.7408 47.4793  28
   5  -1  -6 87.2352 70.1308  51
   5   1  -6 100.136 80.2528  51
  -5   1   6-14.4326 54.1258  50
  -5  -1   5 2689.61 166.527  54
  -5   1   5 2494.05 158.096  28
  -5  -1   5 2623.21 156.356  28
  -5   1   4-56.2822 61.4815  54
  -5  -1   4 72.9010 59.9331  54
  -5   1   4 84.6932 42.1091  28
  -5   1   3 1772.74 139.056  43
  -5  -1   3 1748.72 134.873  43
  -5   1   3 1714.07 116.806  42
  -5   1   3 1868.97 133.703  54
  -5  -1   3 2209.47 137.910  54
  -5   1   2 95.8173 72.2610  43
  -5  -1   2 114.417 65.4448  43
  -5   1   2 94.6614 65.5333  54
  -5  -1   2 132.097 61.4492  54
  -5   1   1 1203.81 111.166  43
  -5  -1   1 1300.41 107.487  43
  -5   1   1 1248.23 111.455  54
  -5  -1   1 1144.45 103.825  54
  -5   1   0 135.310 61.9569  43
  -5  -1   0 343.244 63.5611  43
  -5   1   0 214.048 71.8104  54
  -5  -1   0 294.627 68.5883  54
  -5   1  -1 1092.67 97.4553  43
  -5  -1  -1 1083.14 95.3272  43
  -5   1  -1 1426.68 116.882  54
  -5  -1  -1 1206.80 104.048  54
  -5   1  -2 179.771 53.8601  43
  -5  -1  -2 90.4519 47.5917  43
  -5   1  -2 74.5892 71.6234  54
  -5  -1  -2 83.9064 61.9841  54
   5  -2  -7 603.907 96.9224  40
  -5   2   7 475.181 67.5141  28
  -5  -2   7 551.943 68.0216  28
   5   2  -7 522.419 87.8371  51
  -5   2   6 6196.80 332.105  28
  -5  -2   6 6805.08 333.654  28
   5   2  -6 6777.51 364.599  51
  -5  -2   5 389.898 66.3563  54
  -5   2   5 323.530 56.8834  28
  -5  -2   5 320.738 53.1480  28
  -5   2   4 5076.84 268.481  42
  -5  -2   4 5856.85 280.270  54
  -5  -2   3 197.608 61.5874  43
  -5   2   3 149.106 46.4385  42
  -5   2   3 124.828 67.6466  54
  -5  -2   3 223.717 65.0154  54
  -5   2   2 5043.88 278.018  43
  -5  -2   2 5306.49 273.589  43
  -5   2   2 4776.35 272.629  54
  -5  -2   2 5754.20 272.106  54
  -5   2   1 278.500 71.3745  43
  -5  -2   1 382.419 71.2267  43
  -5   2   1 274.595 78.6215  54
  -5  -2   1 440.526 72.4004  54
  -5  -2   0 4567.18 249.185  43
  -5   2   0 4474.38 261.449  54
  -5  -2   0 4848.00 251.530  54
  -5   2  -1 141.626 58.9358  43
  -5  -2  -1 333.674 57.6146  43
  -5   2  -1 224.180 79.2873  54
  -5   2  -2 3984.82 242.934  43
  -5  -2  -2 4761.37 241.434  43
  -5   2  -2 4464.68 262.704  54
  -5   3   7 1639.68 111.848  42
   5  -3  -7 1725.84 132.893  40
  -5   3   7 1730.25 118.261  28
  -5  -3   7 1494.10 108.152  28
   5   3  -7 1656.60 129.455  51
  -5   3   7 1385.55 123.737  50
   5  -3  -6 234.489 73.4040  40
  -5  -3   6 218.079 49.0301  34
  -5  -3   6 345.962 56.3992  54
  -5   3   6 252.716 56.8892  28
  -5  -3   6 172.783 49.5089  28
  -5   3   6 221.599 67.1369  50
  -5   3   5 1690.41 117.285  42
   5  -3  -5 1793.28 123.933  40
  -5  -3   5 1852.27 125.371  54
  -5   3   5 1532.52 114.595  28
  -5   3   4 197.268 49.5938  42
  -5  -3   4 223.110 65.6178  54
  -5   3   4 253.865 52.2061  28
  -5  -3   3 1554.98 106.405  43
  -5   3   3 1193.47 97.3995  42
  -5   3   3 1316.23 117.193  54
  -5  -3   3 1638.84 117.690  54
  -5  -3   2 255.258 64.5845  43
  -5   3   2 174.499 46.9557  42
  -5   3   2 216.248 74.7066  54
  -5  -3   2 355.561 68.4942  54
  -5  -3   1 906.307 89.5665  43
  -5  -3   1 928.127 89.3218  54
  -5   3   1 929.193 102.112  54
  -5  -3   0 445.308 69.2707  43
  -5   3   0 521.704 93.4606  54
  -5  -3   0 499.964 70.9966  54
  -5  -3  -1 1071.89 87.4197  43
  -5   3  -1 1012.85 114.463  54
  -5  -3  -1 1071.98 93.8134  54
  -5  -3  -2 129.303 47.0343  43
  -5   3  -2 174.363 80.4404  54
  -5  -4   6 4177.79 221.839  54
  -5   4   6 3640.77 228.887  28
  -5   4   5 910.391 79.2515  42
  -5  -4   5 928.112 83.3057  54
  -5   4   5 837.955 82.8271  28
  -5   4   4 2148.81 130.735  42
  -5  -4   4 2275.63 139.909  54
  -5  -4   3 266.966 48.3966  43
  -5   4   3 180.700 50.4041  42
  -5  -4   3 172.298 60.8431  54
  -5  -4   2 4790.84 261.732  43
  -5   4   2 4256.27 255.004  42
  -5   4   2 4812.76 275.899  54
  -5  -4   1 803.660 81.6311  43
  -5  -4   1 984.492 86.7153  54
  -5   4   1 688.292 101.567  54
  -5  -4   0 2617.27 159.060  43
  -5   4   0 2388.84 178.114  54
  -5  -4   0 2685.72 162.088  54
  -5  -4  -1 1302.45 94.5234  43
  -5   4  -1 1140.66 119.310  54
   5  -5  -5 401.785 127.399  35
  -5  -5   5 312.572 54.8488  54
  -5   5   5 356.973 58.3902  28
  -5   5   4 117.514 48.1699  42
   5  -5  -4 52.5092 100.100  35
  -5  -5   4 142.331 53.4972  54
  -5  -5   3 881.752 64.1312  43
  -5   5   3 793.347 75.6976  42
   5  -5  -3 842.896 105.868  35
  -5  -5   3 792.727 82.0958  54
  -5  -5   2 1670.23 107.129  43
  -5  -5   2 1844.55 119.074  54
  -5  -5   1 2011.28 142.852  43
  -5   5   1 2331.85 161.430  54
  -5  -5   0 135.442 48.6996  43
  -5   5   0 165.736 71.0045  54
   0   0   0    0.00    0.00   0

TITL r6-S3-C-04 in P2(1)/c
REM P2(1)/c (#14 in standard setting)
CELL 1.54184   4.390129  13.328970  12.927756  90.0000  99.7541  90.0000
ZERR    4.00   0.000105   0.000251   0.000293   0.0000   0.0023   0.0000
LATT  1
SYMM -x, y+1/2,-z+1/2
SFAC C H N I
UNIT 28.00 16.00 12.00 4.00
TREF
HKLF 4
END
;
_shelx_hkl_checksum              56045
loop_
_space_group_symop_operation_xyz
'x, y, z'
'-x, y+1/2, -z+1/2'
'-x, -y, -z'
'x, -y-1/2, z-1/2'
loop_
_atom_site_label
_atom_site_type_symbol
_atom_site_fract_x
_atom_site_fract_y
_atom_site_fract_z
_atom_site_U_iso_or_equiv
_atom_site_adp_type
_atom_site_occupancy
_atom_site_site_symmetry_order
_atom_site_calc_flag
_atom_site_refinement_flags_posn
_atom_site_refinement_flags_adp
I1 I 0.01634(5) 0.51984(2) 0.74849(2) 0.02390(16) Uani 1 1 d . .
N3 N 0.3076(7) 0.41146(18) 0.5933(2) 0.0230(6) Uani 1 1 d . .
N2 N 0.1414(7) 0.22193(18) 0.6557(2) 0.0256(6) Uani 1 1 d . .
N1 N 0.0609(7) 0.30324(18) 0.7032(2) 0.0255(6) Uani 1 1 d . .
C8 C 0.3922(9) 0.3289(3) 0.5437(3) 0.0240(8) Uani 1 1 d . .
C3 C 0.3053(11) 0.2325(3) 0.5756(4) 0.0235(10) Uani 1 1 d . .
C1 C 0.1510(7) 0.3938(2) 0.6691(3) 0.0218(7) Uani 1 1 d . .
C6 C 0.6386(11) 0.2538(4) 0.4114(4) 0.0265(9) Uani 1 1 d . .
H6 H 0.750648 0.259591 0.356764 0.032 Uiso 1 1 calc R U
C5 C 0.5495(9) 0.1569(3) 0.4422(3) 0.0281(8) Uani 1 1 d . .
H5 H 0.602193 0.100344 0.406993 0.034 Uiso 1 1 calc R U
C7 C 0.5617(9) 0.3382(3) 0.4611(3) 0.0241(8) Uani 1 1 d . .
H7 H 0.620860 0.401084 0.440572 0.029 Uiso 1 1 calc R U
C4 C 0.3878(9) 0.1461(3) 0.5228(3) 0.0266(8) Uani 1 1 d . .
H4 H 0.332237 0.082628 0.542876 0.032 Uiso 1 1 calc R U
loop_
_atom_site_aniso_label
_atom_site_aniso_U_11
_atom_site_aniso_U_22
_atom_site_aniso_U_33
_atom_site_aniso_U_23
_atom_site_aniso_U_13
_atom_site_aniso_U_12
I1 0.0278(2) 0.0172(2) 0.0290(2) -0.00040(7) 0.01146(14) 0.00113(6)
N3 0.0229(14) 0.0180(13) 0.0289(14) -0.0008(11) 0.0066(12) 0.0008(11)
N2 0.0292(16) 0.0176(12) 0.0305(15) 0.0022(11) 0.0068(13) -0.0032(11)
N1 0.0275(16) 0.0187(13) 0.0311(15) 0.0015(11) 0.0071(12) -0.0007(11)
C8 0.0271(19) 0.0155(17) 0.0288(19) 0.0016(14) 0.0030(15) -0.0008(14)
C3 0.024(2) 0.020(2) 0.026(2) 0.0013(13) 0.0031(17) -0.0011(14)
C1 0.0190(16) 0.0192(13) 0.0283(17) -0.0015(13) 0.0070(13) 0.0000(12)
C6 0.030(2) 0.0245(16) 0.025(2) 0.0027(16) 0.0045(17) 0.0002(17)
C5 0.031(2) 0.0167(17) 0.036(2) -0.0052(16) 0.0038(16) 0.0038(16)
C7 0.0273(19) 0.0146(16) 0.0315(19) 0.0009(14) 0.0079(15) -0.0008(14)
C4 0.032(2) 0.0143(16) 0.034(2) 0.0008(15) 0.0051(16) -0.0035(14)
loop_
_atom_type_symbol
_atom_type_description
_atom_type_scat_dispersion_real
_atom_type_scat_dispersion_imag
_atom_type_scat_source
C C 0.0181 0.0091 'International Tables Vol C Tables 4.2.6.8 and 6.1.1.4'
H H 0.0000 0.0000 'International Tables Vol C Tables 4.2.6.8 and 6.1.1.4'
I I -0.3257 6.8362 'International Tables Vol C Tables 4.2.6.8 and 6.1.1.4'
N N 0.0311 0.0180 'International Tables Vol C Tables 4.2.6.8 and 6.1.1.4'
loop_
_geom_angle_atom_site_label_1
_geom_angle_atom_site_label_2
_geom_angle_atom_site_label_3
_geom_angle
C1 N3 C8 115.3(3)
N1 N2 C3 119.0(3)
N2 N1 C1 117.3(3)
N3 C8 C7 120.7(4)
N3 C8 C3 119.2(4)
C7 C8 C3 120.1(4)
N2 C3 C4 119.5(3)
N2 C3 C8 121.0(4)
C4 C3 C8 119.5(4)
N3 C1 N1 128.2(3)
N3 C1 I1 116.6(2)
N1 C1 I1 115.3(2)
C7 C6 C5 120.9(4)
C7 C6 H6 119.6
C5 C6 H6 119.6
C4 C5 C6 120.8(4)
C4 C5 H5 119.6
C6 C5 H5 119.6
C6 C7 C8 119.3(4)
C6 C7 H7 120.3
C8 C7 H7 120.3
C5 C4 C3 119.4(4)
C5 C4 H4 120.3
C3 C4 H4 120.3
loop_
_geom_bond_atom_site_label_1
_geom_bond_atom_site_label_2
_geom_bond_distance
I1 C1 2.105(3)
N3 C1 1.310(4)
N3 C8 1.357(5)
N2 N1 1.323(4)
N2 C3 1.365(5)
N1 C1 1.366(4)
C8 C7 1.406(6)
C8 C3 1.421(5)
C3 C4 1.416(5)
C6 C7 1.366(6)
C6 C5 1.426(6)
C6 H6 0.9300
C5 C4 1.363(6)
C5 H5 0.9300
C7 H7 0.9300
C4 H4 0.9300
