#------------------------------------------------------------------------------
#$Date: 2017-11-06 01:13:53 +0200 (Mon, 06 Nov 2017) $
#$Revision: 202625 $
#$URL: file:///home/coder/svn-repositories/cod/cif/4/03/30/4033076.cif $
#------------------------------------------------------------------------------
#
# This file is available in the Crystallography Open Database (COD),
# http://www.crystallography.net/
#
# All data on this site have been placed in the public domain by the
# contributors.
#
data_4033076
loop_
_publ_author_name
'S\;aczewski, Jaros\/law'
'Fedorowicz, Joanna'
'Gdaniec, Maria'
'Wi\'sniewska, Paulina'
'Sieniawska, Emilia'
'Dra\.zba, Zuzanna'
'Rzewnicka, Justyna'
'Balewski, \/Lukasz'
_publ_section_title
;
 The Elusive Paal-Knorr Intermediates in the Trofimov Synthesis of
 Pyrroles: Experimental and Theoretical Studies.
;
_journal_issue                   18
_journal_name_full               'The Journal of organic chemistry'
_journal_page_first              9737
_journal_page_last               9743
_journal_paper_doi               10.1021/acs.joc.7b01851
_journal_volume                  82
_journal_year                    2017
_chemical_formula_moiety         'C13 H14 N2 O4'
_chemical_formula_sum            'C13 H14 N2 O4'
_chemical_formula_weight         262.26
_chemical_name_systematic
'(E)-Ethyl 3-(4,6-dimethyl-3-oxoisoxazolo[3,4-b]pyridin-1(3H)-yl)acrylate'
_space_group_crystal_system      triclinic
_space_group_IT_number           2
_space_group_name_Hall           '-P 1'
_space_group_name_H-M_alt        'P -1'
_symmetry_space_group_name_Hall  '-P 1'
_symmetry_space_group_name_H-M   'P -1'
_atom_sites_solution_hydrogens   geom
_atom_sites_solution_primary     direct
_audit_creation_date             2017-07-21
_audit_creation_method
;
Olex2 1.2
(compiled 2017.03.28 svn.r3405 for OlexSys, GUI svn.r5337)
;
_cell_angle_alpha                69.107(11)
_cell_angle_beta                 76.089(10)
_cell_angle_gamma                74.028(11)
_cell_formula_units_Z            2
_cell_length_a                   6.7758(8)
_cell_length_b                   9.5853(11)
_cell_length_c                   11.3689(13)
_cell_measurement_reflns_used    3649
_cell_measurement_temperature    294
_cell_measurement_theta_max      25.1860
_cell_measurement_theta_min      3.3480
_cell_volume                     654.83(14)
_computing_cell_refinement       'CrysAlisPro 1.171.38.41 (Rigaku OD, 2015)'
_computing_data_collection       'CrysAlisPro 1.171.38.41 (Rigaku OD, 2015)'
_computing_data_reduction        'CrysAlisPro 1.171.38.41 (Rigaku OD, 2015)'
_computing_molecular_graphics    'Olex2 (Dolomanov et al., 2009)'
_computing_publication_material  'Olex2 (Dolomanov et al., 2009)'
_computing_structure_refinement  'ShelXL (Sheldrick, 2015)'
_computing_structure_solution    'ShelXT (Sheldrick, 2015)'
_diffrn_ambient_temperature      294
_diffrn_detector                 'CCD plate'
_diffrn_detector_area_resol_mean 16.1544
_diffrn_detector_type            Eos
_diffrn_measured_fraction_theta_full 0.999
_diffrn_measured_fraction_theta_max 0.999
_diffrn_measurement_details
;
List of Runs (angles in degrees, time in seconds):

  # Type    Start    End  Width  t~exp~   \w     \q     \k     \f   Frames
--------------------------------------------------------------------------
  1  \w    -54.00  46.00   1.00   17.50    --   15.67 -77.00 -60.00  100
  2  \w    -25.00  58.00   1.00   17.50    --   15.67 -99.00  60.00   83
  3  \w     -6.00  84.00   1.00   17.50    --   15.67  57.00 -90.00   90
  4  \w    -87.00  13.00   1.00   17.50    --  -16.84 -77.00-180.00  100
  5  \w    -37.00  52.00   1.00   17.50    --  -16.84  57.00 120.00   89
  6  \w    -37.00  52.00   1.00   17.50    --  -16.84  57.00-150.00   89
  7  \w    -86.00   5.00   1.00   17.50    --  -16.84 -57.00  60.00   91
  8  \w    -86.00   5.00   1.00   17.50    --  -16.84 -57.00 -30.00   91
  9  \w    -77.00   0.00   1.00   17.50    --  -16.84 129.00 140.84   77
 10  \w    -57.00  89.00   1.00   17.50    --   15.67   0.00-150.00  146
 11  \w    -57.00  89.00   1.00   17.50    --   15.67   0.00-180.00  146
 12  \w    -25.00  58.00   1.00   17.50    --   15.67 -99.00   0.00   83
 13  \w    -25.00  58.00   1.00   17.50    --   15.67 -99.00 -30.00   83
 14  \w    -93.00 -92.00   1.00   17.50    --  -16.84 179.00 -90.00    1
;
_diffrn_measurement_device       'four-circle diffractometer'
_diffrn_measurement_device_type  'Xcalibur, Eos'
_diffrn_measurement_method       '\w scans'
_diffrn_orient_matrix_type
'CrysAlisPro convention (1999,Acta A55,543-557)'
_diffrn_orient_matrix_UB_11      0.0088676000
_diffrn_orient_matrix_UB_12      0.0762901000
_diffrn_orient_matrix_UB_13      -0.0354441000
_diffrn_orient_matrix_UB_21      -0.0583811000
_diffrn_orient_matrix_UB_22      0.0001592000
_diffrn_orient_matrix_UB_23      -0.0441567000
_diffrn_orient_matrix_UB_31      -0.0931349000
_diffrn_orient_matrix_UB_32      0.0271971000
_diffrn_orient_matrix_UB_33      0.0369902000
_diffrn_radiation_monochromator  graphite
_diffrn_radiation_probe          x-ray
_diffrn_radiation_type           MoK\a
_diffrn_radiation_wavelength     0.71073
_diffrn_reflns_av_R_equivalents  0.0385
_diffrn_reflns_av_unetI/netI     0.0272
_diffrn_reflns_Laue_measured_fraction_full 0.999
_diffrn_reflns_Laue_measured_fraction_max 0.999
_diffrn_reflns_limit_h_max       8
_diffrn_reflns_limit_h_min       -8
_diffrn_reflns_limit_k_max       11
_diffrn_reflns_limit_k_min       -11
_diffrn_reflns_limit_l_max       13
_diffrn_reflns_limit_l_min       -13
_diffrn_reflns_number            15047
_diffrn_reflns_point_group_measured_fraction_full 0.999
_diffrn_reflns_point_group_measured_fraction_max 0.999
_diffrn_reflns_theta_full        25.027
_diffrn_reflns_theta_max         25.027
_diffrn_reflns_theta_min         3.167
_diffrn_source                   'fine-focus sealed X-ray tube'
_diffrn_source_type              'Enhance (Mo) X-ray Source'
_exptl_absorpt_coefficient_mu    0.100
_exptl_absorpt_correction_T_max  1.00000
_exptl_absorpt_correction_T_min  0.98971
_exptl_absorpt_correction_type   multi-scan
_exptl_absorpt_process_details
;
CrysAlisPro 1.171.38.41 (Rigaku Oxford Diffraction, 2015)
Empirical absorption correction using spherical harmonics,
 implemented in SCALE3 ABSPACK scaling algorithm.
;
_exptl_crystal_colour            colourless
_exptl_crystal_colour_primary    colourless
_exptl_crystal_density_diffrn    1.330
_exptl_crystal_description       needle
_exptl_crystal_F_000             276
_exptl_crystal_size_max          0.4
_exptl_crystal_size_mid          0.2
_exptl_crystal_size_min          0.1
_refine_diff_density_max         0.127
_refine_diff_density_min         -0.198
_refine_diff_density_rms         0.043
_refine_ls_extinction_method     none
_refine_ls_goodness_of_fit_ref   1.044
_refine_ls_hydrogen_treatment    constr
_refine_ls_matrix_type           full
_refine_ls_number_parameters     177
_refine_ls_number_reflns         2315
_refine_ls_number_restraints     0
_refine_ls_restrained_S_all      1.044
_refine_ls_R_factor_all          0.0763
_refine_ls_R_factor_gt           0.0496
_refine_ls_shift/su_max          0.000
_refine_ls_shift/su_mean         0.000
_refine_ls_structure_factor_coef Fsqd
_refine_ls_weighting_details
'w=1/[\s^2^(Fo^2^)+(0.1000P)^2^] where P=(Fo^2^+2Fc^2^)/3'
_refine_ls_weighting_scheme      calc
_refine_ls_wR_factor_gt          0.1449
_refine_ls_wR_factor_ref         0.1678
_reflns_Friedel_coverage         0.000
_reflns_number_gt                1538
_reflns_number_total             2315
_reflns_threshold_expression     'I > 2\s(I)'
_iucr_refine_instructions_details
;
TITL exp_4768_a.res in P-1
    exp_4768.res
    created by SHELXL-2016/6 at 13:34:33 on 21-Jul-2017
REM Old TITL exp_4768 in P-1 #2
REM SHELXT solution in P-1
REM R1 0.291, Rweak 0.064, Alpha 0.082, Orientation as input
REM Formula found by SHELXT: C14 N3 O2
CELL 0.71073 6.775785 9.585333 11.368924 69.1073 76.0894 74.0279
ZERR 2 0.000828 0.001092 0.001271 0.0109 0.0101 0.0105
LATT 1
SFAC C H N O
UNIT 26 28 4 8

L.S. 10
PLAN  5
TEMP 20.85
FREE H12a H12f
FREE H11d H11c
FREE H12b H12f
FREE H12c H12d
FREE H12c H12e
FREE H11b H11d
FREE H12d H12b
FREE H11a H11f
FREE H12e H12a
FREE H11f H11b
FREE H11e H11c
FREE H11e H11a
BOND $H
fmap 2
acta
SHEL 80 0.84
REM <olex2.extras>
REM <HklSrc "%.\\exp_4768.hkl">
REM </olex2.extras>

WGHT    0.100000
FVAR       0.72331   0.55173   0.70052
N1    3    0.227759    0.693249    0.412889    11.00000    0.11201    0.04626 =
         0.04443   -0.00136   -0.01241   -0.01411
O2    4    0.156242    0.805076    0.474873    11.00000    0.14214    0.04503 =
         0.05655   -0.00436   -0.01875   -0.01314
C3    1    0.120368    0.730076    0.606351    11.00000    0.12255    0.05437 =
         0.05166   -0.00910   -0.01800   -0.01098
C4    1    0.164076    0.439331    0.728116    11.00000    0.07108    0.05782 =
         0.04111   -0.00428   -0.00665   -0.01188
C5    1    0.224574    0.304162    0.700832    11.00000    0.08290    0.04775 =
         0.04357    0.00150   -0.00758   -0.01203
AFIX  43
H5    2    0.225498    0.213171    0.767686    11.00000   -1.20000
AFIX   0
C6    1    0.284757    0.298500    0.576250    11.00000    0.07637    0.04731 =
         0.04893   -0.00391   -0.00993   -0.00825
N7    3    0.291012    0.423473    0.473167    11.00000    0.07394    0.05107 =
         0.04361   -0.00685   -0.00845   -0.00892
C8    1    0.232681    0.552360    0.502412    11.00000    0.06410    0.04418 =
         0.04246   -0.00130   -0.01045   -0.01129
C9    1    0.169768    0.569438    0.622271    11.00000    0.07066    0.04855 =
         0.04197   -0.00759   -0.00950   -0.00937
O10   4    0.061437    0.804852    0.676878    11.00000    0.22243    0.06441 =
         0.07301   -0.02863   -0.02281   -0.00831
C11   1    0.096857    0.445757    0.861634    11.00000    0.14575    0.08008 =
         0.04595   -0.01193   -0.00474   -0.01904
AFIX 127
H11A  2   -0.014379    0.392273    0.902692    21.00000   -1.20000
H11B  2    0.049806    0.550342    0.860163    21.00000   -1.20000
H11C  2    0.211973    0.398783    0.907799    21.00000   -1.20000
H11D  2    0.179312    0.501992    0.877744   -21.00000   -1.20000
H11E  2    0.115127    0.343924    0.920273   -21.00000   -1.20000
H11F  2   -0.047039    0.495482    0.872637   -21.00000   -1.20000
AFIX   0
C12   1    0.350833    0.148922    0.550815    11.00000    0.13700    0.05215 =
         0.06732   -0.01267   -0.01071   -0.00940
AFIX 127
H12A  2    0.479212    0.094525    0.582062    31.00000   -1.20000
H12B  2    0.370090    0.165968    0.460691    31.00000   -1.20000
H12C  2    0.245771    0.089897    0.593303    31.00000   -1.20000
H12D  2    0.250836    0.139068    0.508642   -31.00000   -1.20000
H12E  2    0.359959    0.067625    0.630013   -31.00000   -1.20000
H12F  2    0.484278    0.143696    0.497401   -31.00000   -1.20000
AFIX   0
C13   1    0.256545    0.738922    0.283138    11.00000    0.07864    0.05804 =
         0.04334    0.00179   -0.01179   -0.02022
AFIX  43
H13   2    0.303356    0.663142    0.243803    11.00000   -1.20000
AFIX   0
C14   1    0.223213    0.882884    0.208179    11.00000    0.09511    0.05536 =
         0.05280    0.00364   -0.01635   -0.01734
AFIX  43
H14   2    0.176576    0.960546    0.245465    11.00000   -1.20000
AFIX   0
C15   1    0.256858    0.923312    0.070482    11.00000    0.10003    0.06040 =
         0.05353    0.01084   -0.01847   -0.02356
O16   4    0.225313    1.051859   -0.000284    11.00000    0.15460    0.06687 =
         0.06420    0.01946   -0.02592   -0.02541
O17   4    0.327950    0.802440    0.028547    11.00000    0.13678    0.07208 =
         0.04521    0.00472   -0.01854   -0.02012
C18   1    0.361241    0.832536   -0.107225    11.00000    0.18263    0.10713 =
         0.05012   -0.00250   -0.02436   -0.01468
AFIX  23
H18A  2    0.230072    0.848512   -0.135210    11.00000   -1.20000
H18B  2    0.416113    0.924621   -0.149751    11.00000   -1.20000
AFIX   0
C19   1    0.501688    0.709022   -0.139997    11.00000    0.18810    0.16487 =
         0.06767   -0.02862   -0.01004   -0.00193
AFIX 137
H19A  2    0.522646    0.729851   -0.230693    11.00000   -1.50000
H19B  2    0.446458    0.618241   -0.098334    11.00000   -1.50000
H19C  2    0.632018    0.694498   -0.113377    11.00000   -1.50000
AFIX   0
HKLF 4




REM  exp_4768_a.res in P-1
REM R1 =  0.0496 for    1538 Fo > 4sig(Fo)  and  0.0763 for all    2315 data
REM    177 parameters refined using      0 restraints

END  
     
WGHT      0.0724      0.0576 

REM Highest difference peak  0.127,  deepest hole -0.198,  1-sigma level  0.043
Q1    1   0.5980  0.8539 -0.1325  11.00000  0.05    0.13
Q2    1   0.2407  0.9393 -0.1531  11.00000  0.05    0.13
Q3    1  -0.0752  0.7896  0.6583  11.00000  0.05    0.12
Q4    1   0.2605  0.7326 -0.1173  11.00000  0.05    0.12
Q5    1   0.1391  0.7536 -0.1037  11.00000  0.05    0.11

  REM The information below was added by Olex2.
  REM
  REM R1 = 0.0496 for 1538 Fo > 4sig(Fo) and 0.0763 for all 16591 data
  REM n/a parameters refined using n/a restraints
  REM Highest difference peak 0.13, deepest hole -0.20
  REM Mean Shift 0, Max Shift 0.000.

  REM +++ Tabular Listing of Refinement Information +++
  REM R1_all = 0.0763
  REM R1_gt = 0.0496
  REM wR_ref = 0.1678
  REM GOOF = 1.044
  REM Shift_max = 0.000
  REM Shift_mean = 0
  REM Reflections_all = 16591
  REM Reflections_gt = 1538
  REM Parameters = n/a
  REM Hole = -0.20
  REM Peak = 0.13
  REM Flack = n/a

  
;
_cod_data_source_file            jo7b01851_si_002.cif
_cod_data_source_block           2a
_cod_original_cell_volume        654.84(15)
_cod_database_code               4033076
_shelx_shelxl_version_number     2016/6
_shelx_space_group_comment
;
The symmetry employed for this shelxl refinement is uniquely defined
by the following loop, which should always be used as a source of
symmetry information in preference to the above space-group names.
They are only intended as comments.
;
_reflns_odcompleteness_completeness 99.88
_reflns_odcompleteness_iscentric 1
_reflns_odcompleteness_theta     25.30
_olex2_refinement_description
;
1. Fixed Uiso
 At 1.2 times of:
  All C(H) groups, All C(H,H) groups, All C(H,H,H,H,H,H) groups
 At 1.5 times of:
  All C(H,H,H) groups
2. Others
 Sof(H11D)=Sof(H11E)=Sof(H11F)=1-FVAR(1)
 Sof(H11A)=Sof(H11B)=Sof(H11C)=FVAR(1)
 Sof(H12D)=Sof(H12E)=Sof(H12F)=1-FVAR(2)
 Sof(H12A)=Sof(H12B)=Sof(H12C)=FVAR(2)
3.a Secondary CH2 refined with riding coordinates:
 C18(H18A,H18B)
3.b Aromatic/amide H refined with riding coordinates:
 C5(H5), C13(H13), C14(H14)
3.c Disordered Me refined as rotating group:
 C11(H11A,H11B,H11C,H11D,H11E,H11F), C12(H12A,H12B,H12C,H12D,H12E,H12F)
3.d Idealised Me refined as rotating group:
 C19(H19A,H19B,H19C)
;
_olex2_date_sample_data_collection 2016-04-11
_olex2_submission_original_sample_id jf042
_olex2_submission_special_instructions 'No special instructions were received'
_oxdiff_exptl_absorpt_empirical_details
;
Empirical correction (ABSPACK) includes:
- Absorption correction using spherical harmonics
- Frame scaling
;
_oxdiff_exptl_absorpt_empirical_full_max 1.056
_oxdiff_exptl_absorpt_empirical_full_min 0.933
loop_
_space_group_symop_operation_xyz
'x, y, z'
'-x, -y, -z'
loop_
_atom_site_label
_atom_site_type_symbol
_atom_site_fract_x
_atom_site_fract_y
_atom_site_fract_z
_atom_site_U_iso_or_equiv
_atom_site_adp_type
_atom_site_occupancy
_atom_site_site_symmetry_order
_atom_site_calc_flag
_atom_site_refinement_flags_posn
_atom_site_refinement_flags_occupancy
N1 N 0.2278(3) 0.69325(19) 0.41289(15) 0.0717(6) Uani 1 1 d . .
O2 O 0.1562(3) 0.80508(16) 0.47487(13) 0.0853(6) Uani 1 1 d . .
C3 C 0.1204(4) 0.7301(3) 0.6064(2) 0.0791(7) Uani 1 1 d . .
C4 C 0.1641(3) 0.4393(2) 0.72812(17) 0.0605(6) Uani 1 1 d . .
C5 C 0.2246(3) 0.3042(2) 0.70083(17) 0.0633(6) Uani 1 1 d . .
H5 H 0.225498 0.213171 0.767686 0.076 Uiso 1 1 calc R .
C6 C 0.2848(3) 0.2985(2) 0.57625(17) 0.0616(6) Uani 1 1 d . .
N7 N 0.2910(2) 0.42347(18) 0.47317(14) 0.0595(5) Uani 1 1 d . .
C8 C 0.2327(3) 0.5524(2) 0.50241(17) 0.0533(5) Uani 1 1 d . .
C9 C 0.1698(3) 0.5694(2) 0.62227(17) 0.0561(5) Uani 1 1 d . .
O10 O 0.0614(4) 0.8049(2) 0.67688(16) 0.1226(8) Uani 1 1 d . .
C11 C 0.0969(5) 0.4458(3) 0.86163(19) 0.0956(9) Uani 1 1 d . .
H11A H -0.014379 0.392273 0.902692 0.115 Uiso 0.55(3) 1 calc GR P
H11B H 0.049806 0.550342 0.860163 0.115 Uiso 0.55(3) 1 calc GR P
H11C H 0.211973 0.398783 0.907799 0.115 Uiso 0.55(3) 1 calc GR P
H11D H 0.179312 0.501992 0.877744 0.115 Uiso 0.45(3) 1 calc GR P
H11E H 0.115127 0.343924 0.920273 0.115 Uiso 0.45(3) 1 calc GR P
H11F H -0.047039 0.495482 0.872637 0.115 Uiso 0.45(3) 1 calc GR P
C12 C 0.3508(4) 0.1489(3) 0.5508(2) 0.0904(8) Uani 1 1 d . .
H12A H 0.479212 0.094525 0.582062 0.108 Uiso 0.70(2) 1 calc GR P
H12B H 0.370090 0.165968 0.460691 0.108 Uiso 0.70(2) 1 calc GR P
H12C H 0.245771 0.089897 0.593303 0.108 Uiso 0.70(2) 1 calc GR P
H12D H 0.250836 0.139068 0.508642 0.108 Uiso 0.30(2) 1 calc GR P
H12E H 0.359959 0.067625 0.630013 0.108 Uiso 0.30(2) 1 calc GR P
H12F H 0.484278 0.143696 0.497401 0.108 Uiso 0.30(2) 1 calc GR P
C13 C 0.2565(3) 0.7389(2) 0.28314(18) 0.0633(6) Uani 1 1 d . .
H13 H 0.303356 0.663142 0.243803 0.076 Uiso 1 1 calc R .
C14 C 0.2232(3) 0.8829(3) 0.20818(19) 0.0723(6) Uani 1 1 d . .
H14 H 0.176576 0.960546 0.245465 0.087 Uiso 1 1 calc R .
C15 C 0.2569(4) 0.9233(3) 0.0705(2) 0.0768(7) Uani 1 1 d . .
O16 O 0.2253(3) 1.05186(19) -0.00028(15) 0.1044(7) Uani 1 1 d . .
O17 O 0.3279(3) 0.8024(2) 0.02855(14) 0.0908(6) Uani 1 1 d . .
C18 C 0.3612(6) 0.8325(4) -0.1072(2) 0.1217(12) Uani 1 1 d . .
H18A H 0.230072 0.848512 -0.135210 0.146 Uiso 1 1 calc R .
H18B H 0.416113 0.924621 -0.149751 0.146 Uiso 1 1 calc R .
C19 C 0.5017(7) 0.7090(5) -0.1400(3) 0.1516(16) Uani 1 1 d . .
H19A H 0.522646 0.729851 -0.230693 0.227 Uiso 1 1 calc GR .
H19B H 0.446458 0.618241 -0.098334 0.227 Uiso 1 1 calc GR .
H19C H 0.632018 0.694498 -0.113377 0.227 Uiso 1 1 calc GR .
loop_
_atom_site_aniso_label
_atom_site_aniso_U_11
_atom_site_aniso_U_22
_atom_site_aniso_U_33
_atom_site_aniso_U_23
_atom_site_aniso_U_13
_atom_site_aniso_U_12
N1 0.1120(15) 0.0463(10) 0.0444(10) -0.0014(8) -0.0124(9) -0.0141(9)
O2 0.1421(15) 0.0450(8) 0.0566(9) -0.0044(7) -0.0188(8) -0.0131(8)
C3 0.123(2) 0.0544(13) 0.0517(13) -0.0091(11) -0.0180(12) -0.0110(12)
C4 0.0711(13) 0.0578(13) 0.0411(10) -0.0043(9) -0.0067(9) -0.0119(10)
C5 0.0829(14) 0.0477(11) 0.0436(11) 0.0015(9) -0.0076(9) -0.0120(10)
C6 0.0764(14) 0.0473(11) 0.0489(11) -0.0039(9) -0.0099(9) -0.0082(9)
N7 0.0739(11) 0.0511(10) 0.0436(9) -0.0069(8) -0.0085(7) -0.0089(8)
C8 0.0641(12) 0.0442(11) 0.0425(10) -0.0013(9) -0.0105(8) -0.0113(9)
C9 0.0707(13) 0.0485(11) 0.0420(10) -0.0076(9) -0.0095(9) -0.0094(9)
O10 0.222(2) 0.0644(11) 0.0730(12) -0.0286(10) -0.0228(12) -0.0083(13)
C11 0.146(2) 0.0801(17) 0.0459(13) -0.0119(12) -0.0047(13) -0.0190(16)
C12 0.137(2) 0.0521(13) 0.0673(15) -0.0127(12) -0.0107(14) -0.0094(14)
C13 0.0786(14) 0.0580(12) 0.0433(11) 0.0018(10) -0.0118(9) -0.0202(10)
C14 0.0951(16) 0.0554(13) 0.0528(13) 0.0036(10) -0.0163(11) -0.0173(11)
C15 0.1000(17) 0.0604(15) 0.0535(13) 0.0108(12) -0.0185(11) -0.0236(12)
O16 0.1546(17) 0.0669(11) 0.0642(11) 0.0195(9) -0.0259(10) -0.0254(10)
O17 0.1368(15) 0.0721(11) 0.0452(9) 0.0047(8) -0.0185(8) -0.0201(10)
C18 0.183(3) 0.107(2) 0.0501(16) -0.0025(15) -0.0244(17) -0.015(2)
C19 0.188(4) 0.165(4) 0.068(2) -0.029(2) -0.010(2) -0.002(3)
loop_
_atom_type_symbol
_atom_type_description
_atom_type_scat_dispersion_real
_atom_type_scat_dispersion_imag
_atom_type_scat_source
C C 0.0033 0.0016 'International Tables Vol C Tables 4.2.6.8 and 6.1.1.4'
H H 0.0000 0.0000 'International Tables Vol C Tables 4.2.6.8 and 6.1.1.4'
N N 0.0061 0.0033 'International Tables Vol C Tables 4.2.6.8 and 6.1.1.4'
O O 0.0106 0.0060 'International Tables Vol C Tables 4.2.6.8 and 6.1.1.4'
loop_
_geom_angle_atom_site_label_1
_geom_angle_atom_site_label_2
_geom_angle_atom_site_label_3
_geom_angle
C8 N1 O2 108.84(15)
C13 N1 O2 118.60(16)
C13 N1 C8 132.12(18)
C3 O2 N1 107.76(15)
O2 C3 C9 106.61(18)
O10 C3 O2 118.6(2)
O10 C3 C9 134.8(2)
C5 C4 C9 114.91(17)
C5 C4 C11 122.25(18)
C9 C4 C11 122.84(19)
C4 C5 H5 118.9
C4 C5 C6 122.17(18)
C6 C5 H5 118.9
C5 C6 C12 120.44(18)
N7 C6 C5 123.47(18)
N7 C6 C12 116.09(16)
C8 N7 C6 113.05(15)
N1 C8 C9 109.20(17)
N7 C8 N1 123.14(16)
N7 C8 C9 127.66(17)
C4 C9 C3 133.66(18)
C8 C9 C3 107.58(17)
C8 C9 C4 118.75(18)
C4 C11 H11A 109.5
C4 C11 H11B 109.5
C4 C11 H11C 109.5
C4 C11 H11D 109.5
C4 C11 H11E 109.5
C4 C11 H11F 109.5
H11A C11 H11B 109.5
H11A C11 H11C 109.5
H11A C11 H11D 141.1
H11A C11 H11E 56.3
H11A C11 H11F 56.3
H11B C11 H11C 109.5
H11B C11 H11D 56.3
H11B C11 H11E 141.1
H11B C11 H11F 56.3
H11C C11 H11D 56.3
H11C C11 H11E 56.3
H11C C11 H11F 141.1
H11D C11 H11E 109.5
H11D C11 H11F 109.5
H11E C11 H11F 109.5
C6 C12 H12A 109.5
C6 C12 H12B 109.5
C6 C12 H12C 109.5
C6 C12 H12D 109.5
C6 C12 H12E 109.5
C6 C12 H12F 109.5
H12A C12 H12B 109.5
H12A C12 H12C 109.5
H12A C12 H12D 141.1
H12A C12 H12E 56.3
H12A C12 H12F 56.3
H12B C12 H12C 109.5
H12B C12 H12D 56.3
H12B C12 H12E 141.1
H12B C12 H12F 56.3
H12C C12 H12D 56.3
H12C C12 H12E 56.3
H12C C12 H12F 141.1
H12D C12 H12E 109.5
H12D C12 H12F 109.5
H12E C12 H12F 109.5
N1 C13 H13 117.3
C14 C13 N1 125.3(2)
C14 C13 H13 117.3
C13 C14 H14 118.8
C13 C14 C15 122.4(2)
C15 C14 H14 118.8
O16 C15 C14 124.3(3)
O16 C15 O17 122.5(2)
O17 C15 C14 113.16(19)
C15 O17 C18 116.7(2)
O17 C18 H18A 109.7
O17 C18 H18B 109.7
H18A C18 H18B 108.2
C19 C18 O17 110.0(2)
C19 C18 H18A 109.7
C19 C18 H18B 109.7
C18 C19 H19A 109.5
C18 C19 H19B 109.5
C18 C19 H19C 109.5
H19A C19 H19B 109.5
H19A C19 H19C 109.5
H19B C19 H19C 109.5
loop_
_geom_bond_atom_site_label_1
_geom_bond_atom_site_label_2
_geom_bond_distance
N1 O2 1.403(2)
N1 C8 1.368(2)
N1 C13 1.362(2)
O2 C3 1.402(3)
C3 C9 1.436(3)
C3 O10 1.189(3)
C4 C5 1.370(3)
C4 C9 1.392(3)
C4 C11 1.495(3)
C5 H5 0.9300
C5 C6 1.393(3)
C6 N7 1.346(2)
C6 C12 1.490(3)
N7 C8 1.324(2)
C8 C9 1.381(3)
C11 H11A 0.9600
C11 H11B 0.9600
C11 H11C 0.9600
C11 H11D 0.9600
C11 H11E 0.9600
C11 H11F 0.9600
C12 H12A 0.9600
C12 H12B 0.9600
C12 H12C 0.9600
C12 H12D 0.9600
C12 H12E 0.9600
C12 H12F 0.9600
C13 H13 0.9300
C13 C14 1.328(3)
C14 H14 0.9300
C14 C15 1.448(3)
C15 O16 1.201(3)
C15 O17 1.333(3)
O17 C18 1.438(3)
C18 H18A 0.9700
C18 H18B 0.9700
C18 C19 1.404(4)
C19 H19A 0.9600
C19 H19B 0.9600
C19 H19C 0.9600
loop_
_refln_index_h
_refln_index_k
_refln_index_l
_refln_F_squared_meas
_refln_F_squared_sigma
-8 -6 -3 -1.8 1.43
-8 -6 -2 2.37 1.35
-8 -6 -1 1.36 1.13
-8 -6 0 -1.97 1.32
-8 -6 1 -0.28 1
-8 -5 -5 0.34 0.45
-8 -5 -4 0.29 0.7
-8 -5 -3 0.05 0.8
-8 -5 -2 -2.13 1.37
-8 -5 -1 0.64 0.89
-8 -5 0 1.86 1.18
-8 -5 1 -0.13 0.78
-8 -5 1 0.97 1.22
-8 -5 2 0.33 0.83
-8 -4 -6 -1.1 1.01
-8 -4 -5 -0.25 0.84
-8 -4 -4 2.2 1.51
-8 -4 -3 0.39 1.03
-8 -4 -2 -2.63 1.49
-8 -4 -1 0.02 0.58
-8 -4 0 1.18 1.04
-8 -4 0 -0.26 0.52
-8 -4 1 -0.62 0.86
-8 -4 1 0 0.71
-8 -4 2 1.48 1.59
-8 -3 -5 1.77 1.28
-8 -3 -5 2.6 1.57
-8 -3 -4 2.5 1.53
-8 -3 -3 5.46 2.19
-8 -3 -2 -0.83 0.99
-8 -3 -1 0.75 1.36
-8 -3 0 -0.37 0.56
-8 -3 0 1.49 1.2
-8 -3 1 1.07 0.94
-8 -3 1 1.68 1.32
-8 -3 2 -0.19 1.01
-8 -3 2 -0.24 0.52
-8 -2 -6 -1.43 1.2
-8 -2 -5 0.53 1.06
-8 -2 -5 0.38 0.74
-8 -2 -4 0.46 0.88
-8 -2 -4 3 1.5
-8 -2 -3 2.77 1.48
-8 -2 -3 4.28 2.07
-8 -2 -2 0.29 1.14
-8 -2 -1 -0.06 0.52
-8 -2 0 -1.32 1.07
-8 -2 0 -0.02 0.81
-8 -2 1 -0.1 0.83
-8 -2 1 1.44 1.19
-8 -2 2 1.5 0.92
-8 -2 2 0.12 0.6
-8 -1 -7 0.85 0.85
-8 -1 -6 -1.21 1.36
-8 -1 -5 -0.33 0.8
-8 -1 -4 -0.56 0.83
-8 -1 -4 1.25 1.11
-8 -1 -3 -0.58 0.53
-8 -1 -3 1.6 1.37
-8 -1 -2 0.84 1.27
-8 -1 -2 1.54 1.18
-8 -1 -1 -0.4 0.93
-8 -1 -1 1.54 1.34
-8 -1 0 0.74 0.84
-8 -1 1 0.72 0.92
-8 -1 2 -0.48 1.02
-8 -1 2 0.47 1.11
-8 0 -7 -0.69 1.2
-8 0 -6 0.22 1.02
-8 0 -5 1.59 1.15
-8 0 -4 -1.1 1.28
-8 0 -3 1.32 1.06
-8 0 -2 1.61 1.12
-8 0 -2 0.26 1.01
-8 0 -1 0.24 0.68
-8 0 -1 0.46 0.83
-8 0 0 -0.67 0.96
-8 0 1 -0.61 0.76
-8 0 2 -0.55 0.94
-8 1 2 0.9 0.66
-7 -8 -7 3 1.98
-7 -8 -6 -0.21 0.72
-7 -8 -5 0.05 0.48
-7 -8 -4 1.11 1.17
-7 -8 -3 0.49 0.89
-7 -8 -2 1.81 1.59
-7 -8 -1 0.03 0.64
-7 -8 0 0.46 1.33
-7 -8 1 -1.01 1.17
-7 -8 1 -0.7 0.87
-7 -7 -9 0.42 0.66
-7 -7 -8 0.38 0.64
-7 -7 -7 -0.12 0.72
-7 -7 -6 0.55 1.09
-7 -7 -5 -0.84 0.96
-7 -7 -4 0.78 0.91
-7 -7 -3 0.66 0.98
-7 -7 -2 0.64 0.65
-7 -7 -1 1.37 1.08
-7 -7 0 -0.11 0.55
-7 -7 0 1.37 1.23
-7 -7 1 -0.69 0.87
-7 -7 1 -0.64 0.96
-7 -7 2 1.26 1.08
-7 -6 -10 -1.3 1.44
-7 -6 -9 0.61 0.68
-7 -6 -8 1.1 1.17
-7 -6 -7 -0.88 1.19
-7 -6 -6 0.35 0.53
-7 -6 -5 1.74 1.43
-7 -6 -4 -0.01 0.89
-7 -6 -3 -0.17 1.02
-7 -6 -2 -0.65 0.79
-7 -6 -1 0.5 0.44
-7 -6 -1 1.14 1.37
-7 -6 0 1.53 1.09
-7 -6 0 0.03 0.78
-7 -6 1 0 0.5
-7 -6 1 -0.59 0.64
-7 -6 2 1.05 0.39
-7 -6 2 -0.99 0.99
-7 -6 3 -0.29 0.94
-7 -5 -11 -1.05 1.08
-7 -5 -10 -0.1 0.44
-7 -5 -9 0.9 0.94
-7 -5 -8 1.82 1.03
-7 -5 -7 1.67 1.12
-7 -5 -6 -0.5 0.94
-7 -5 -5 -0.52 0.84
-7 -5 -4 1.57 1.21
-7 -5 -3 1.44 1
-7 -5 -2 1.36 1.63
-7 -5 -1 0.27 0.53
-7 -5 -1 0.49 0.41
-7 -5 0 0.77 0.76
-7 -5 0 0.06 0.81
-7 -5 1 -1.73 1.1
-7 -5 1 1.22 1.14
-7 -5 2 -0.66 0.94
-7 -5 2 0.57 1.07
-7 -5 3 0.34 1.16
-7 -4 -11 1.3 1.3
-7 -4 -10 -0.25 1.34
-7 -4 -9 1.71 1.21
-7 -4 -8 0.26 0.74
-7 -4 -7 0.95 1.08
-7 -4 -6 0.83 0.82
-7 -4 -6 -0.19 0.37
-7 -4 -5 1.1 0.72
-7 -4 -4 0.91 1.12
-7 -4 -3 0.25 0.57
-7 -4 -2 4.04 1.77
-7 -4 -2 1.53 1.02
-7 -4 -1 1.03 0.85
-7 -4 -1 0.89 0.83
-7 -4 0 -0.36 0.68
-7 -4 0 -0.05 0.43
-7 -4 1 0.99 1.05
-7 -4 1 -0.09 0.44
-7 -4 2 0.65 0.45
-7 -4 2 0.24 0.61
-7 -4 3 0.88 1.24
-7 -4 4 0.22 0.68
-7 -3 -11 0.06 0.68
-7 -3 -10 1.4 1.44
-7 -3 -9 0.28 0.91
-7 -3 -8 0.02 0.48
-7 -3 -7 0.7 0.65
-7 -3 -6 -0.25 0.77
-7 -3 -6 -0.61 0.66
-7 -3 -5 0.46 0.83
-7 -3 -5 2.15 1.43
-7 -3 -4 -0.84 1.14
-7 -3 -4 0.01 0.43
-7 -3 -3 0.5 0.69
-7 -3 -2 0.54 0.77
-7 -3 -2 0.49 0.69
-7 -3 -1 -0.1 0.61
-7 -3 -1 0.04 0.59
-7 -3 0 -1.02 1.07
-7 -3 0 0.88 0.98
-7 -3 1 0.35 0.77
-7 -3 1 -2.5 1.48
-7 -3 2 0.02 0.5
-7 -3 2 0.63 0.55
-7 -3 3 0.5 0.51
-7 -3 4 2.49 1.62
-7 -2 -10 1.01 0.93
-7 -2 -9 0.45 0.97
-7 -2 -8 -0.62 1.14
-7 -2 -7 -0.14 0.54
-7 -2 -7 0.8 0.63
-7 -2 -6 1.75 1.24
-7 -2 -6 0.9 0.43
-7 -2 -5 1.04 1.03
-7 -2 -5 -0.15 0.65
-7 -2 -4 3.84 1.92
-7 -2 -4 3.27 1.45
-7 -2 -3 1.55 1.19
-7 -2 -3 1.81 1.34
-7 -2 -2 1.48 1.21
-7 -2 -2 -0.23 0.55
-7 -2 -1 0.13 0.66
-7 -2 -1 -0.2 0.55
-7 -2 0 0.98 0.86
-7 -2 0 0.65 0.61
-7 -2 1 -0.14 0.54
-7 -2 1 0.85 0.89
-7 -2 2 0.74 0.75
-7 -2 2 0.2 0.74
-7 -2 3 1.61 1.31
-7 -2 3 0.2 0.74
-7 -2 4 -0.3 0.6
-7 -1 -9 1.08 0.99
-7 -1 -8 -0.78 0.77
-7 -1 -8 2.42 1.48
-7 -1 -7 -1.05 1.13
-7 -1 -7 -0.44 0.83
-7 -1 -6 0.1 0.58
-7 -1 -6 -1.36 1.1
-7 -1 -5 -0.32 0.73
-7 -1 -5 -0.36 0.87
-7 -1 -4 1.67 1.04
-7 -1 -4 -0.11 1.04
-7 -1 -3 0.51 1.21
-7 -1 -3 0.76 0.51
-7 -1 -2 0.99 0.99
-7 -1 -2 3.2 1.66
-7 -1 -1 0.54 0.55
-7 -1 -1 -0.41 0.58
-7 -1 0 -0.02 0.63
-7 -1 1 1.76 1.29
-7 -1 1 0.73 0.94
-7 -1 2 0.14 0.73
-7 -1 2 -0.67 0.83
-7 -1 3 0.26 0.56
-7 -1 3 1.16 1.11
-7 -1 4 -1.37 1.49
-7 0 -8 -0.68 0.87
-7 0 -8 -0.97 1.04
-7 0 -7 2.49 1.24
-7 0 -7 -0.51 0.9
-7 0 -6 0.4 0.96
-7 0 -6 0.91 1.04
-7 0 -5 0.9 1.39
-7 0 -5 0.23 0.95
-7 0 -4 -0.29 0.51
-7 0 -4 0.08 0.92
-7 0 -3 0.96 1.05
-7 0 -3 -0.13 0.63
-7 0 -2 -0.46 0.63
-7 0 -2 -0.14 0.39
-7 0 -1 0.87 1.27
-7 0 -1 1.02 1.07
-7 0 0 -0.81 1.22
-7 0 0 -0.57 0.51
-7 0 1 2.24 1.6
-7 0 1 0.93 0.75
-7 0 2 -0.15 0.57
-7 0 2 1.16 1.15
-7 0 3 0.76 1.22
-7 0 3 0.95 0.83
-7 0 4 0.54 0.47
-7 1 -9 1.17 1.34
-7 1 -8 -0.65 1.12
-7 1 -7 0.39 0.5
-7 1 -6 0.05 0.86
-7 1 -6 0.04 0.86
-7 1 -5 1.9 1.26
-7 1 -5 1 1.15
-7 1 -4 0.16 0.49
-7 1 -4 -0.8 1.1
-7 1 -3 -0.39 0.73
-7 1 -3 0.47 0.92
-7 1 -2 1.82 1.5
-7 1 -2 0.98 1.2
-7 1 -1 0.39 0.52
-7 1 -1 0.6 0.92
-7 1 0 1.04 0.59
-7 1 0 -0.06 0.88
-7 1 1 -1.85 1.19
-7 1 1 0.89 1.11
-7 1 2 -0.41 0.72
-7 1 2 0.44 0.83
-7 1 3 -0.63 0.99
-7 1 4 1.04 0.91
-7 2 -6 4.22 2.22
-7 2 -5 -0.48 0.5
-7 2 -4 1.87 1.3
-7 2 -4 0.43 0.42
-7 2 -3 -0.23 0.87
-7 2 -3 0.59 1.2
-7 2 -2 -0.74 1.17
-7 2 -2 -0.12 1.26
-7 2 -1 0.85 1.05
-7 2 -1 0.91 0.87
-7 2 0 -0.06 0.5
-7 2 0 0.36 0.7
-7 2 1 0.52 0.62
-7 2 1 0.52 0.5
-7 2 2 0.83 0.42
-7 2 2 -3.36 1.73
-7 2 3 -0.25 0.8
-7 3 -2 0.2 1.17
-7 3 -2 -0.15 1.03
-7 3 -1 -0.49 0.71
-7 3 -1 1.91 1.59
-7 3 0 0.78 0.75
-7 3 0 2.05 1.37
-6 -10 -1 0.18 0.69
-6 -9 -10 0.06 0.79
-6 -9 -9 1.27 0.92
-6 -9 -8 0.55 1
-6 -9 -7 1.91 1.37
-6 -9 -6 0.67 0.87
-6 -9 -5 1.36 1.02
-6 -9 -4 0.2 0.63
-6 -9 -3 11.15 3.08
-6 -9 -2 7.89 2.55
-6 -9 -1 -0.49 0.79
-6 -9 -1 2.11 1.45
-6 -9 0 -2.82 1.45
-6 -9 0 -0.8 0.76
-6 -9 0 -0.72 1.18
-6 -9 1 0.2 0.76
-6 -9 1 0.21 0.9
-6 -8 -12 3.05 1.66
-6 -8 -11 3.94 1.79
-6 -8 -10 -0.12 0.48
-6 -8 -9 1.06 0.95
-6 -8 -8 0.18 0.55
-6 -8 -7 -0.55 0.56
-6 -8 -6 1.73 1.41
-6 -8 -5 -2.17 1.32
-6 -8 -4 2.72 1.45
-6 -8 -3 -1.05 0.84
-6 -8 -2 6.13 2.15
-6 -8 -1 0.81 1
-6 -8 -1 1.03 1.19
-6 -8 -1 1.95 1.42
-6 -8 0 1.4 1.2
-6 -8 0 -1.12 1
-6 -8 0 -1.59 1.35
-6 -8 1 -1.03 1.39
-6 -8 1 -1.66 1.62
-6 -8 1 0.63 1.05
-6 -8 2 0.94 0.83
-6 -8 2 0.51 1.01
-6 -7 -13 -0.53 0.63
-6 -7 -12 0.92 0.83
-6 -7 -11 4.77 2.08
-6 -7 -10 3.96 1.77
-6 -7 -9 0.51 0.6
-6 -7 -8 -0.43 1.04
-6 -7 -7 0.5 0.65
-6 -7 -6 7.7 2.44
-6 -7 -5 2.92 1.72
-6 -7 -4 -0.73 0.84
-6 -7 -3 0.14 0.53
-6 -7 -2 1.24 0.89
-6 -7 -2 0.98 1.09
-6 -7 -1 2.31 1.28
-6 -7 -1 -0.78 0.87
-6 -7 0 0.31 0.71
-6 -7 0 -0.6 0.74
-6 -7 0 0.85 1.22
-6 -7 1 -0.21 0.83
-6 -7 1 1.32 1.2
-6 -7 1 1.33 1.02
-6 -7 2 1.46 1.09
-6 -7 2 0.53 0.5
-6 -7 2 0.21 0.9
-6 -7 3 2.71 1.47
-6 -6 -12 2.48 1.4
-6 -6 -11 2.31 1.52
-6 -6 -10 1.61 1.22
-6 -6 -9 -1.03 1.28
-6 -6 -8 -0.85 0.62
-6 -6 -7 0.83 1.03
-6 -6 -6 0.73 1.03
-6 -6 -5 6.71 2.18
-6 -6 -4 0.1 0.62
-6 -6 -3 0.73 0.62
-6 -6 -3 0.17 0.79
-6 -6 -2 -0.26 0.36
-6 -6 -2 0.59 0.56
-6 -6 -1 6.19 1.65
-6 -6 -1 3.71 1.66
-6 -6 0 0.48 0.72
-6 -6 0 -0.32 0.73
-6 -6 0 1.55 1.19
-6 -6 1 0.73 0.97
-6 -6 1 -0.05 0.64
-6 -6 1 1.18 0.85
-6 -6 2 -0.72 0.53
-6 -6 2 0.63 0.86
-6 -6 2 0.56 0.52
-6 -6 3 0.48 0.84
-6 -6 3 -0.61 0.84
-6 -6 3 -0.37 0.74
-6 -6 4 1.94 1.71
-6 -5 -12 -0.17 0.6
-6 -5 -11 -1.28 1.14
-6 -5 -10 -0.07 0.67
-6 -5 -9 1.76 1.31
-6 -5 -8 0.36 0.8
-6 -5 -7 1.46 1.21
-6 -5 -6 2.35 1.35
-6 -5 -5 -1.02 0.9
-6 -5 -4 0.96 0.75
-6 -5 -3 1.08 1.18
-6 -5 -3 -0.28 0.4
-6 -5 -2 1.73 1.22
-6 -5 -2 0.08 0.31
-6 -5 -1 2.97 1.21
-6 -5 -1 4.41 1.68
-6 -5 0 8.16 2.08
-6 -5 0 9.02 2.31
-6 -5 1 0.08 0.76
-6 -5 1 1.21 0.86
-6 -5 1 1.92 1.05
-6 -5 2 0.63 0.82
-6 -5 2 -0.3 0.89
-6 -5 2 0.64 0.75
-6 -5 3 0.82 1.19
-6 -5 3 1.47 0.79
-6 -5 3 1.76 1.32
-6 -5 4 4.56 1.89
-6 -5 4 7.28 2.84
-6 -5 5 1.4 1.24
-6 -4 -12 0.58 0.74
-6 -4 -11 1.04 1.01
-6 -4 -11 -0.24 0.6
-6 -4 -10 -0.17 0.52
-6 -4 -9 2.86 1.39
-6 -4 -8 3.95 1.65
-6 -4 -7 0.54 0.49
-6 -4 -7 -0.13 0.77
-6 -4 -6 -0.09 0.32
-6 -4 -6 0.95 0.83
-6 -4 -5 0.86 0.82
-6 -4 -4 3.69 1.48
-6 -4 -3 3.59 1.13
-6 -4 -3 3.75 1.58
-6 -4 -2 -0.17 0.43
-6 -4 -2 1.56 1.27
-6 -4 -1 0.33 0.38
-6 -4 -1 -1.08 0.82
-6 -4 0 8.12 2.06
-6 -4 0 5.4 1.73
-6 -4 1 4.81 1.76
-6 -4 1 5.94 1.77
-6 -4 2 1.39 1.27
-6 -4 2 -0.49 0.61
-6 -4 2 0.83 0.97
-6 -4 3 -0.07 0.61
-6 -4 3 0.77 0.9
-6 -4 3 0.29 1.11
-6 -4 4 -0.74 1.29
-6 -4 4 2.15 1.59
-6 -4 5 11.89 3.3
-6 -4 5 11.34 3.1
-6 -3 -12 0.8 0.8
-6 -3 -11 -0.27 0.44
-6 -3 -11 1.06 1.16
-6 -3 -10 -0.16 0.83
-6 -3 -9 1.93 1.28
-6 -3 -8 4.99 1.86
-6 -3 -7 4.37 1.38
-6 -3 -7 2.88 1.62
-6 -3 -6 0.15 0.89
-6 -3 -6 0.88 0.54
-6 -3 -5 2.17 1.1
-6 -3 -5 2.63 1.22
-6 -3 -4 4.28 1.66
-6 -3 -4 4.41 1.44
-6 -3 -3 43.19 4.49
-6 -3 -3 46.9 3.9
-6 -3 -3 42.32 4.84
-6 -3 -2 1.41 0.95
-6 -3 -2 0.28 0.77
-6 -3 -1 -1.12 0.85
-6 -3 -1 -1.94 1.09
-6 -3 0 1.01 0.9
-6 -3 0 -0.46 0.54
-6 -3 1 2.49 1.16
-6 -3 1 2.73 1.27
-6 -3 2 -0.53 0.84
-6 -3 2 -0.54 0.61
-6 -3 3 2.98 1.61
-6 -3 3 1.2 0.85
-6 -3 3 0.97 1.11
-6 -3 4 0.45 0.7
-6 -3 4 0.21 0.8
-6 -3 5 1.66 1.35
-6 -3 5 1.83 1.65
-6 -3 6 7.41 2.72
-6 -3 6 6.58 2.45
-6 -2 -12 2.94 1.52
-6 -2 -12 4.57 2
-6 -2 -11 1.65 1.13
-6 -2 -11 -0.37 0.81
-6 -2 -10 -0.51 0.56
-6 -2 -10 1.76 1.42
-6 -2 -9 0.21 0.47
-6 -2 -8 -0.06 0.87
-6 -2 -8 -0.06 0.41
-6 -2 -7 1.79 1.14
-6 -2 -7 2 1.3
-6 -2 -6 2.01 0.81
-6 -2 -6 1.08 0.57
-6 -2 -5 0.13 0.7
-6 -2 -5 0.61 0.66
-6 -2 -4 12.4 2.66
-6 -2 -4 14.93 2.75
-6 -2 -3 41 4.57
-6 -2 -3 36.95 4.66
-6 -2 -2 71.67 5.27
-6 -2 -2 66.89 5.82
-6 -2 -2 64.24 5.96
-6 -2 -1 -0.27 0.9
-6 -2 -1 0.81 0.84
-6 -2 -1 1.18 1.11
-6 -2 0 -0.25 0.66
-6 -2 0 0.42 0.5
-6 -2 1 0.04 0.57
-6 -2 1 0.27 0.75
-6 -2 2 5.21 1.72
-6 -2 2 6.84 2.07
-6 -2 3 -1.7 0.93
-6 -2 3 0.27 0.85
-6 -2 4 0.58 0.81
-6 -2 4 0.96 0.97
-6 -2 4 0.41 0.63
-6 -2 5 0.29 1.03
-6 -2 5 -0.6 1.12
-6 -2 6 2.93 1.85
-6 -2 6 3.02 1.62
-6 -2 7 -0.38 0.93
-6 -1 -11 7.79 2.45
-6 -1 -11 5.5 2.16
-6 -1 -10 3.22 1.76
-6 -1 -10 0.33 1.11
-6 -1 -9 2.79 1.39
-6 -1 -9 4.85 1.85
-6 -1 -8 -0.21 0.48
-6 -1 -8 0.4 0.45
-6 -1 -7 0.49 0.77
-6 -1 -7 0.68 0.58
-6 -1 -6 1.74 1.11
-6 -1 -6 0.49 0.56
-6 -1 -5 0.74 1.2
-6 -1 -5 0.1 0.58
-6 -1 -4 1.76 1.08
-6 -1 -4 1.2 1.13
-6 -1 -3 8.89 2.21
-6 -1 -3 6.73 1.97
-6 -1 -2 9.75 2.52
-6 -1 -2 9.74 2.35
-6 -1 -1 15.69 3
-6 -1 -1 14.4 2.89
-6 -1 0 -0.24 0.43
-6 -1 0 -0.04 0.52
-6 -1 0 0.27 0.77
-6 -1 1 0.82 1.03
-6 -1 1 -0.65 0.94
-6 -1 2 2.17 1.08
-6 -1 2 1.44 1.07
-6 -1 3 10.89 2.7
-6 -1 3 7.24 1.93
-6 -1 4 -0.82 0.93
-6 -1 4 0.65 0.56
-6 -1 5 -0.32 0.75
-6 -1 5 1.14 0.94
-6 -1 6 -0.18 0.52
-6 -1 6 0.72 1.22
-6 -1 7 0.32 0.6
-6 0 -11 2.82 1.68
-6 0 -10 7.2 2.35
-6 0 -10 5.77 2.14
-6 0 -9 1.59 1.16
-6 0 -9 3.39 1.65
-6 0 -8 1.37 1.01
-6 0 -8 0.1 0.74
-6 0 -7 0.83 0.97
-6 0 -7 0.33 0.64
-6 0 -6 3.15 1.31
-6 0 -6 3.17 1.55
-6 0 -5 1.66 1.03
-6 0 -5 2.47 1.37
-6 0 -4 0.74 0.75
-6 0 -4 -0.23 0.4
-6 0 -3 0.49 0.75
-6 0 -3 0.45 0.65
-6 0 -2 0.34 0.74
-6 0 -2 0.19 0.82
-6 0 -1 1.28 1.2
-6 0 -1 0.81 0.78
-6 0 0 1.39 1
-6 0 0 0.93 1.05
-6 0 1 0.06 0.42
-6 0 1 1.34 0.99
-6 0 1 0.15 0.55
-6 0 2 0.41 0.8
-6 0 2 -0.5 0.85
-6 0 3 0.51 0.82
-6 0 3 0.77 0.79
-6 0 4 2.2 1.3
-6 0 4 1.52 0.84
-6 0 5 0.25 1.02
-6 0 6 0.55 1.01
-6 0 8 -0.35 1.1
-6 1 -10 0.1 0.87
-6 1 -10 0.74 0.76
-6 1 -9 3.41 1.66
-6 1 -9 1.13 0.81
-6 1 -8 3.33 1.85
-6 1 -8 1.93 1.28
-6 1 -7 0.87 0.61
-6 1 -7 1.63 1.2
-6 1 -6 2.53 1.59
-6 1 -6 3.27 1.67
-6 1 -5 4.07 1.77
-6 1 -5 5.76 1.94
-6 1 -4 1.52 1.31
-6 1 -4 4.03 1.56
-6 1 -3 -0.26 0.63
-6 1 -3 1.68 1.09
-6 1 -2 -0.28 0.82
-6 1 -2 1.4 1.2
-6 1 -1 1.48 1.41
-6 1 -1 1.04 0.89
-6 1 0 0.74 0.89
-6 1 0 1.71 1.37
-6 1 1 2.01 1.29
-6 1 1 0.29 0.67
-6 1 2 -0.36 0.54
-6 1 2 1.36 1.07
-6 1 3 0.18 0.91
-6 1 3 0.92 1.16
-6 1 4 -0.01 0.49
-6 1 4 -0.01 0.78
-6 1 5 0.14 0.87
-6 1 6 1.11 0.9
-6 2 -9 0.96 0.91
-6 2 -9 1.59 1.06
-6 2 -8 0.26 0.62
-6 2 -8 2.1 1.46
-6 2 -7 0.5 0.56
-6 2 -7 0.69 0.88
-6 2 -6 0.09 0.68
-6 2 -6 1.85 1.45
-6 2 -5 0.9 0.78
-6 2 -5 1.31 1.05
-6 2 -4 3.02 1.58
-6 2 -4 2.05 1.44
-6 2 -3 1.74 1.29
-6 2 -3 1.99 1.35
-6 2 -2 -0.4 0.94
-6 2 -2 -0.3 0.65
-6 2 -1 4.05 1.72
-6 2 -1 6.34 2.17
-6 2 0 3.58 1.58
-6 2 0 3.98 1.75
-6 2 1 3.37 1.48
-6 2 1 3.9 1.7
-6 2 2 -0.06 0.83
-6 2 2 1.02 0.88
-6 2 3 0.39 0.79
-6 2 3 1.43 1.17
-6 2 4 0.88 0.68
-6 2 5 -0.59 0.58
-6 2 6 2.35 1.78
-6 3 -7 0.44 1.17
-6 3 -6 0.88 1.05
-6 3 -5 1.32 0.94
-6 3 -5 0.45 0.55
-6 3 -4 1.38 1.12
-6 3 -4 1.21 1.08
-6 3 -3 0.85 1.25
-6 3 -3 -0.28 0.76
-6 3 -2 1.56 0.94
-6 3 -2 1.47 1.36
-6 3 -1 1.11 0.87
-6 3 -1 1.64 1.39
-6 3 0 8.59 2.63
-6 3 0 7.07 2.29
-6 3 1 2.83 1.51
-6 3 1 3.67 1.72
-6 3 2 -0.1 1.08
-6 3 3 0.42 0.72
-6 3 4 2.58 1.57
-6 4 -5 0.02 0.72
-6 4 -4 2.91 1.64
-6 4 -3 2.02 1.18
-6 4 -2 -0.4 1.19
-6 4 -1 1.61 1.29
-6 4 0 0.77 1.15
-6 4 1 -0.97 1.03
-6 4 2 0.24 0.73
-6 4 3 1 1.43
-6 4 4 -1.42 1.14
-6 4 5 3.01 1.65
-6 5 -1 0.25 1.09
-6 5 0 0.31 1.47
-6 5 1 0.92 1.29
-6 5 2 -0.39 0.69
-5 -11 -2 -0.38 0.53
-5 -11 -1 0.81 0.68
-5 -11 0 0.38 0.97
-5 -10 -11 -0.58 1.02
-5 -10 -10 0.33 0.88
-5 -10 -9 0.48 1.1
-5 -10 -8 2.02 1.64
-5 -10 -7 0.79 1.18
-5 -10 -6 3.92 2.05
-5 -10 -5 3.66 1.79
-5 -10 -4 3.29 1.96
-5 -10 -3 1.05 0.53
-5 -10 -2 0.98 0.94
-5 -10 -2 2.01 1.33
-5 -10 -1 2.8 1.69
-5 -10 -1 0.53 0.92
-5 -10 -1 1 0.71
-5 -10 0 1.49 1.23
-5 -10 0 1.03 0.99
-5 -10 0 -0.14 0.92
-5 -10 1 1.31 1.34
-5 -10 1 -0.21 0.97
-5 -10 1 0.41 0.75
-5 -10 2 0.49 0.8
-5 -9 -12 -0.02 0.56
-5 -9 -11 -0.88 0.78
-5 -9 -10 0.76 0.66
-5 -9 -9 2.43 1.43
-5 -9 -8 0.35 1.08
-5 -9 -7 2.03 1.29
-5 -9 -6 1.07 1.3
-5 -9 -5 -0.2 0.77
-5 -9 -4 2.32 1.69
-5 -9 -3 0.85 1.1
-5 -9 -2 0.38 0.5
-5 -9 -2 0.08 0.72
-5 -9 -2 2.02 1.46
-5 -9 -1 7.31 2.3
-5 -9 -1 7.51 2.5
-5 -9 -1 6.65 1.82
-5 -9 0 4.25 1.91
-5 -9 0 3.26 1.48
-5 -9 0 5.12 2
-5 -9 1 1.89 1.25
-5 -9 1 1.77 1.27
-5 -9 1 1.13 0.58
-5 -9 2 -0.34 0.79
-5 -9 2 -0.16 0.72
-5 -9 2 0.56 0.83
-5 -8 -12 -0.06 0.46
-5 -8 -11 1.44 1.13
-5 -8 -10 4.86 1.98
-5 -8 -9 3.97 1.6
-5 -8 -8 0.93 0.95
-5 -8 -7 -0.89 0.94
-5 -8 -6 2.02 1.14
-5 -8 -5 0.89 0.84
-5 -8 -4 0.53 0.5
-5 -8 -3 -0.59 0.47
-5 -8 -3 -0.18 0.5
-5 -8 -2 0.02 0.65
-5 -8 -2 1.33 1.04
-5 -8 -2 -0.21 0.67
-5 -8 -1 -0.09 0.72
-5 -8 -1 -0.42 0.65
-5 -8 -1 -1.19 1.03
-5 -8 0 0.83 0.7
-5 -8 0 0.91 0.82
-5 -8 0 2.5 1.13
-5 -8 1 1.74 1.47
-5 -8 1 1.95 1.16
-5 -8 1 0.8 0.52
-5 -8 2 -0.24 0.43
-5 -8 2 -0.52 0.54
-5 -8 2 -1.4 1.3
-5 -8 3 1.48 1.05
-5 -8 3 1.78 1.19
-5 -8 3 1.17 1.05
-5 -7 -12 -0.38 0.87
-5 -7 -12 -0.47 0.8
-5 -7 -11 4.71 1.91
-5 -7 -10 0.01 0.63
-5 -7 -9 5.79 2.01
-5 -7 -8 -0.44 0.48
-5 -7 -7 0.21 0.52
-5 -7 -6 0.6 0.49
-5 -7 -5 -0.59 0.79
-5 -7 -4 1.09 1.18
-5 -7 -4 0.38 0.4
-5 -7 -3 1.7 0.97
-5 -7 -3 0.41 0.41
-5 -7 -2 -0.01 0.45
-5 -7 -2 0.04 0.76
-5 -7 -2 0.65 0.6
-5 -7 -1 6.02 2.04
-5 -7 -1 3.16 1.19
-5 -7 -1 5.83 1.91
-5 -7 0 0.29 0.64
-5 -7 0 0.94 1.18
-5 -7 0 0.31 0.67
-5 -7 1 0.69 0.89
-5 -7 1 0.11 0.51
-5 -7 1 0.99 0.91
-5 -7 2 0.46 0.38
-5 -7 2 0.87 0.77
-5 -7 2 0.6 0.51
-5 -7 3 0.44 0.77
-5 -7 3 0.15 0.54
-5 -7 3 -0.62 0.98
-5 -7 4 3.99 1.89
-5 -7 4 3.81 1.9
-5 -6 -12 -0.01 0.54
-5 -6 -12 1.94 1.21
-5 -6 -11 0.43 1.01
-5 -6 -11 -0.55 1.12
-5 -6 -10 3.9 1.52
-5 -6 -9 1.29 0.85
-5 -6 -8 0.52 0.79
-5 -6 -7 0.04 0.73
-5 -6 -6 2.56 1.22
-5 -6 -5 0.27 0.46
-5 -6 -4 4.26 1.04
-5 -6 -4 5.48 1.87
-5 -6 -3 1.78 0.84
-5 -6 -3 1.26 0.99
-5 -6 -2 1.55 0.69
-5 -6 -2 3.49 1.54
-5 -6 -1 1.44 1.09
-5 -6 -1 1.42 0.72
-5 -6 -1 2.15 1.19
-5 -6 0 4.84 1.48
-5 -6 0 3.3 1.76
-5 -6 0 3.46 1.32
-5 -6 1 1.07 0.75
-5 -6 1 3.03 1.6
-5 -6 1 3.19 1.31
-5 -6 2 -1.15 1.28
-5 -6 2 1.73 1.49
-5 -6 2 1.05 0.89
-5 -6 3 1.16 0.92
-5 -6 3 1.31 1.2
-5 -6 3 0 0.96
-5 -6 4 10.1 2.99
-5 -6 4 7.63 2.46
-5 -6 5 -0.57 1.55
-5 -6 5 1.87 1.51
-5 -5 -12 -0.57 1.04
-5 -5 -12 0.58 0.78
-5 -5 -11 -0.21 0.8
-5 -5 -11 2.48 1.66
-5 -5 -10 -0.19 0.57
-5 -5 -10 -0.44 0.58
-5 -5 -9 3.51 1.39
-5 -5 -8 0.84 0.88
-5 -5 -7 2.26 1.26
-5 -5 -6 2.98 1.29
-5 -5 -5 0.87 0.63
-5 -5 -4 -0.02 0.59
-5 -5 -4 -0.13 0.31
-5 -5 -3 0.41 0.56
-5 -5 -3 1.62 0.68
-5 -5 -2 0.18 0.42
-5 -5 -2 0.27 0.4
-5 -5 -1 -0.02 0.32
-5 -5 -1 0.64 0.79
-5 -5 -1 -0.44 0.37
-5 -5 0 0.05 0.41
-5 -5 0 0.2 0.57
-5 -5 0 0.69 0.59
-5 -5 1 0.76 0.89
-5 -5 1 -0.09 0.46
-5 -5 1 0.33 0.83
-5 -5 2 3.41 1.48
-5 -5 2 1.93 1.21
-5 -5 2 0.99 0.76
-5 -5 3 -0.13 0.75
-5 -5 3 0.92 0.63
-5 -5 3 -0.52 1.08
-5 -5 4 0.48 0.58
-5 -5 4 2.13 1.49
-5 -5 4 -0.76 1.09
-5 -5 5 14.49 3.62
-5 -5 5 14.11 3.45
-5 -5 6 0.03 0.61
-5 -5 6 1.92 1.76
-5 -4 -12 -0.36 0.69
-5 -4 -12 0.33 0.67
-5 -4 -11 1.28 1.14
-5 -4 -11 1.24 1.27
-5 -4 -10 -0.18 0.54
-5 -4 -10 0.35 0.81
-5 -4 -9 -0.68 0.82
-5 -4 -9 0.59 0.65
-5 -4 -8 -0.24 0.75
-5 -4 -7 3.18 0.94
-5 -4 -7 4.35 1.59
-5 -4 -6 6.28 1.79
-5 -4 -6 4.89 1.18
-5 -4 -5 2.2 1.19
-5 -4 -4 3.04 1.43
-5 -4 -4 1.18 0.55
-5 -4 -3 1.38 1.17
-5 -4 -3 1.74 0.67
-5 -4 -2 23.39 3.33
-5 -4 -2 20.52 2.48
-5 -4 -1 3.89 1.36
-5 -4 -1 2.81 1.03
-5 -4 0 0.85 0.92
-5 -4 0 0.13 0.69
-5 -4 0 0.93 0.87
-5 -4 1 0.86 0.74
-5 -4 1 0.93 0.94
-5 -4 1 0.52 0.44
-5 -4 2 0.62 0.4
-5 -4 2 1.12 1
-5 -4 2 1.1 0.98
-5 -4 3 0.82 0.93
-5 -4 3 0.12 0.63
-5 -4 3 1.25 1.09
-5 -4 4 0.71 1.16
-5 -4 4 1.56 0.73
-5 -4 4 0.94 0.86
-5 -4 5 2.31 1.79
-5 -4 5 2.76 1.46
-5 -4 6 0.38 0.95
-5 -4 6 3.17 1.59
-5 -4 7 0.44 0.58
-5 -4 7 0.76 0.59
-5 -3 -12 3.34 1.44
-5 -3 -12 4.99 2.34
-5 -3 -11 1.21 0.75
-5 -3 -11 0.17 0.62
-5 -3 -10 0.01 0.6
-5 -3 -10 -0.35 0.77
-5 -3 -9 0.72 0.93
-5 -3 -9 -0.29 0.5
-5 -3 -8 6.63 1.9
-5 -3 -8 5.97 1.39
-5 -3 -8 6.43 2.18
-5 -3 -7 -0.11 0.34
-5 -3 -7 -0.3 0.87
-5 -3 -6 1.07 0.67
-5 -3 -6 1.02 0.84
-5 -3 -5 1.15 0.73
-5 -3 -5 -0.09 0.78
-5 -3 -4 1.67 1.19
-5 -3 -4 1.35 0.72
-5 -3 -3 6.5 1.58
-5 -3 -3 5.96 1.69
-5 -3 -3 6.88 1.3
-5 -3 -2 2.94 1.16
-5 -3 -2 2.53 0.9
-5 -3 -1 6.32 1.49
-5 -3 -1 5.74 1.74
-5 -3 0 3.45 1.3
-5 -3 0 3.46 1.16
-5 -3 1 -0.54 0.5
-5 -3 1 0.38 0.5
-5 -3 1 0.96 0.83
-5 -3 2 -0.38 0.6
-5 -3 2 0.79 0.78
-5 -3 2 2.07 1.18
-5 -3 3 1.8 0.94
-5 -3 3 2.09 1.26
-5 -3 3 2.7 1.44
-5 -3 4 5.65 1.54
-5 -3 4 6.28 2.07
-5 -3 4 4.12 1.85
-5 -3 5 7.68 2.44
-5 -3 5 10.05 2.7
-5 -3 6 3.58 1.75
-5 -3 6 1.7 1.06
-5 -3 7 0.39 1.02
-5 -3 7 -0.02 0.64
-5 -2 -12 0.4 0.71
-5 -2 -11 0.55 0.56
-5 -2 -11 -0.48 0.72
-5 -2 -10 2.15 1.18
-5 -2 -10 1.17 1.03
-5 -2 -9 1.88 1.04
-5 -2 -9 2.42 1.33
-5 -2 -9 3.34 1.44
-5 -2 -8 0.16 0.52
-5 -2 -8 0.81 0.78
-5 -2 -8 0.51 0.43
-5 -2 -7 9.61 1.87
-5 -2 -7 9.62 2.29
-5 -2 -6 -0.05 0.79
-5 -2 -6 0.42 0.7
-5 -2 -5 3.62 1.46
-5 -2 -5 2.3 0.84
-5 -2 -5 0.94 0.58
-5 -2 -4 18.12 2.57
-5 -2 -4 21.95 3.33
-5 -2 -4 18.93 1.96
-5 -2 -3 0.49 0.44
-5 -2 -3 0.1 0.8
-5 -2 -3 1.76 1.19
-5 -2 -2 0.3 0.6
-5 -2 -2 0.23 0.29
-5 -2 -2 0.51 0.69
-5 -2 -2 -0.34 0.75
-5 -2 -1 0.65 0.52
-5 -2 -1 0.4 0.46
-5 -2 -1 1.36 0.88
-5 -2 0 4.96 1.6
-5 -2 0 4.06 1.38
-5 -2 1 0.22 0.47
-5 -2 1 -0.27 0.54
-5 -2 2 -0.23 0.84
-5 -2 2 0.12 0.58
-5 -2 2 1.11 0.72
-5 -2 3 3.17 1.48
-5 -2 3 3.73 1.61
-5 -2 3 3.39 1.24
-5 -2 4 -0.04 0.37
-5 -2 4 0.32 0.74
-5 -2 4 0.37 0.67
-5 -2 5 12.5 2.89
-5 -2 5 11.61 2.88
-5 -2 6 2.45 1.28
-5 -2 6 2.1 1.56
-5 -2 7 0.86 1.15
-5 -2 7 -0.41 0.55
-5 -2 8 0.1 0.76
-5 -2 8 0.04 0.93
-5 -1 -12 1.15 1.19
-5 -1 -11 2.36 1.42
-5 -1 -11 2.36 1.27
-5 -1 -10 3.94 1.47
-5 -1 -10 3.12 1.37
-5 -1 -10 4.02 1.8
-5 -1 -9 6.05 1.98
-5 -1 -9 6.31 1.78
-5 -1 -9 5.28 1.93
-5 -1 -8 1.31 1.16
-5 -1 -8 2.07 1
-5 -1 -8 -0.07 0.48
-5 -1 -7 0.23 0.62
-5 -1 -7 -0.77 0.77
-5 -1 -7 0.27 0.49
-5 -1 -6 1.31 0.8
-5 -1 -6 2.53 1.26
-5 -1 -5 0.03 0.56
-5 -1 -5 -0.1 0.49
-5 -1 -4 0.22 0.52
-5 -1 -4 0.65 0.33
-5 -1 -4 1.47 0.94
-5 -1 -3 15.89 2.77
-5 -1 -3 16.85 2.75
-5 -1 -3 16.42 1.55
-5 -1 -2 18.5 2.85
-5 -1 -2 24.12 3.15
-5 -1 -2 23.05 2.09
-5 -1 -1 6.72 1.58
-5 -1 -1 6.36 1.75
-5 -1 -1 5.93 1.22
-5 -1 -1 7.4 1.92
-5 -1 0 0.82 0.5
-5 -1 0 0.02 0.29
-5 -1 0 0.54 0.75
-5 -1 0 0.48 0.44
-5 -1 0 -0.09 0.53
-5 -1 1 1.44 0.64
-5 -1 1 2.17 1.09
-5 -1 1 1.59 0.63
-5 -1 1 2.92 1.36
-5 -1 2 1.62 0.59
-5 -1 2 1.32 0.53
-5 -1 2 1.54 0.97
-5 -1 3 0.96 0.64
-5 -1 3 -0.09 0.83
-5 -1 3 1.21 1.25
-5 -1 4 2.74 1.29
-5 -1 4 1.02 0.8
-5 -1 4 1.28 0.69
-5 -1 5 0.77 0.95
-5 -1 5 -0.48 0.64
-5 -1 5 0.82 0.63
-5 -1 6 1.23 0.61
-5 -1 6 -0.34 0.57
-5 -1 7 0.17 0.94
-5 -1 7 0.33 0.5
-5 -1 8 0.5 0.83
-5 -1 8 0.38 0.68
-5 -1 9 0.63 0.97
-5 0 -12 1.88 1.49
-5 0 -11 0.53 0.81
-5 0 -11 -0.59 0.58
-5 0 -10 11.36 2.48
-5 0 -10 12.51 2.98
-5 0 -10 12.22 2.75
-5 0 -9 -0.46 0.69
-5 0 -9 1.14 0.66
-5 0 -9 -0.15 0.61
-5 0 -8 0.42 0.42
-5 0 -8 0.47 0.75
-5 0 -8 -0.35 0.71
-5 0 -7 2.88 1.26
-5 0 -7 1.87 0.91
-5 0 -6 1.16 1.02
-5 0 -6 -0.35 0.61
-5 0 -5 0.95 0.79
-5 0 -5 -0.08 0.43
-5 0 -4 0.36 0.38
-5 0 -4 0.18 0.43
-5 0 -3 0.9 1.06
-5 0 -3 -0.04 0.53
-5 0 -2 2.03 0.82
-5 0 -2 2.05 0.99
-5 0 -1 9.18 2.18
-5 0 -1 8.06 2.03
-5 0 0 0.72 0.45
-5 0 0 -0.48 0.5
-5 0 0 0.04 0.22
-5 0 0 1.01 0.83
-5 0 0 -0.09 0.19
-5 0 1 10.84 2.12
-5 0 1 8.54 2.13
-5 0 1 9.84 2.16
-5 0 1 9.38 1.39
-5 0 1 10.27 1.42
-5 0 2 7.71 2.07
-5 0 2 7.71 1.8
-5 0 2 8.59 2.21
-5 0 3 3.78 1.44
-5 0 3 3.65 1.16
-5 0 4 -0.05 0.32
-5 0 4 0.98 0.95
-5 0 5 -0.78 0.99
-5 0 5 0.15 0.42
-5 0 6 0.09 0.59
-5 0 6 0.23 0.93
-5 0 7 5.15 1.91
-5 0 7 5.66 2.46
-5 0 8 1.17 0.88
-5 0 8 -0.48 1.31
-5 0 9 0.43 0.74
-5 0 10 1.58 0.8
-5 1 -11 -1.43 1.21
-5 1 -11 -1.95 1.3
-5 1 -10 0.3 0.98
-5 1 -10 0.37 0.39
-5 1 -10 -0.1 0.46
-5 1 -9 15.81 3.08
-5 1 -9 13.99 2.99
-5 1 -9 14.16 2.95
-5 1 -8 8.71 2.28
-5 1 -8 6.88 1.98
-5 1 -8 5.58 2.01
-5 1 -7 1.24 1.02
-5 1 -7 0.91 0.87
-5 1 -7 0.46 0.87
-5 1 -6 6.15 2
-5 1 -6 4.43 1.61
-5 1 -5 2.25 1.18
-5 1 -5 2.7 1.29
-5 1 -4 0.91 0.88
-5 1 -4 -0.43 0.48
-5 1 -3 -0.38 0.9
-5 1 -3 1.17 0.78
-5 1 -2 0.89 0.61
-5 1 -2 2.25 1.23
-5 1 -1 -0.58 0.48
-5 1 -1 -0.34 0.48
-5 1 0 0.72 0.76
-5 1 0 0.06 0.44
-5 1 0 0.39 0.4
-5 1 1 -0.13 0.72
-5 1 1 0.76 0.88
-5 1 2 14.92 2.99
-5 1 2 12.81 2.48
-5 1 2 8.22 2.14
-5 1 3 2.47 1.03
-5 1 3 2.14 1.18
-5 1 3 0.51 0.48
-5 1 4 -0.06 0.49
-5 1 4 0.73 0.79
-5 1 5 -0.37 0.82
-5 1 5 0.23 0.57
-5 1 6 -0.21 0.52
-5 1 7 0.74 0.71
-5 1 7 0.5 0.8
-5 1 8 0.92 0.88
-5 1 8 0.74 0.86
-5 1 9 0.74 0.7
-5 2 -11 -2.12 1.74
-5 2 -10 1.35 1.4
-5 2 -9 2.61 1.55
-5 2 -8 12.25 2.86
-5 2 -8 11.7 2.95
-5 2 -7 0.32 0.73
-5 2 -7 1.04 0.96
-5 2 -6 2.49 1.29
-5 2 -6 1.01 0.76
-5 2 -5 1.57 1.13
-5 2 -5 1.67 0.99
-5 2 -4 2.25 1.15
-5 2 -4 3.84 1.54
-5 2 -3 -0.01 0.4
-5 2 -3 0.33 0.7
-5 2 -2 2.62 1.31
-5 2 -2 1.27 0.97
-5 2 -1 0.37 0.74
-5 2 -1 -1.02 1.11
-5 2 0 1.2 1
-5 2 0 1 0.81
-5 2 1 -0.17 0.99
-5 2 1 0.38 0.48
-5 2 2 1.25 0.92
-5 2 2 0.68 0.71
-5 2 3 1.5 1.22
-5 2 3 0.5 0.99
-5 2 3 -0.49 1
-5 2 4 0.67 0.53
-5 2 4 0.41 0.64
-5 2 4 2.3 1.3
-5 2 5 0.14 0.71
-5 2 6 0.99 1.11
-5 2 7 -0.4 0.57
-5 2 8 1.86 1.57
-5 3 -9 -0.44 1.22
-5 3 -8 2.2 1.77
-5 3 -7 0.25 0.45
-5 3 -6 1.51 1.49
-5 3 -5 1.69 1.1
-5 3 -5 1.88 1.27
-5 3 -4 0.05 0.44
-5 3 -4 0.61 0.83
-5 3 -3 7.03 2.13
-5 3 -3 7.76 2.28
-5 3 -2 0.57 0.96
-5 3 -2 0.24 0.59
-5 3 -1 1.89 1.06
-5 3 -1 3.26 1.52
-5 3 0 2.87 1.32
-5 3 0 3.98 1.59
-5 3 1 0.75 0.96
-5 3 1 -0.13 0.48
-5 3 2 -0.18 0.58
-5 3 2 -0.01 0.53
-5 3 3 3.01 1.36
-5 3 4 3.13 1.56
-5 3 5 4.9 1.68
-5 3 6 0.96 1.38
-5 3 7 -0.04 0.71
-5 3 8 0.11 0.59
-5 4 -7 2.94 1.88
-5 4 -6 -0.65 1.04
-5 4 -5 0.03 0.92
-5 4 -4 0.47 0.62
-5 4 -3 -0.49 0.56
-5 4 -2 -1.12 1.14
-5 4 -1 1.81 0.98
-5 4 -1 3.15 1.48
-5 4 0 0.23 0.45
-5 4 0 0.77 0.93
-5 4 1 0.13 0.53
-5 4 1 -0.92 1.02
-5 4 2 0.42 1.02
-5 4 2 2.13 1.36
-5 4 3 1.32 1.07
-5 4 3 1.08 0.8
-5 4 4 11.66 3.07
-5 4 4 9.77 2.71
-5 4 5 11.18 2.97
-5 4 6 1.83 1.01
-5 5 -5 9.29 2.78
-5 5 -4 4.03 1.97
-5 5 -3 1.73 1.23
-5 5 -3 0.73 0.65
-5 5 -2 1.94 1.2
-5 5 -2 0.03 0.95
-5 5 -1 -0.14 1
-5 5 -1 0.78 0.82
-5 5 0 0.84 0.98
-5 5 0 0.62 0.72
-5 5 1 0.31 0.69
-5 5 1 0.87 1.12
-5 5 2 -0.21 0.61
-5 5 2 -1.27 1.38
-5 5 3 0.89 0.76
-5 5 3 -0.61 0.7
-5 5 4 3.6 1.76
-5 5 4 4.11 1.85
-5 5 5 6.7 2.18
-5 5 5 4.64 1.88
-5 5 6 2.25 1.78
-5 5 6 1.52 1.37
-5 6 -3 2.95 1.58
-5 6 -3 3.93 1.9
-5 6 -2 0.07 1.07
-5 6 -2 0.31 0.74
-5 6 -1 0.66 0.99
-5 6 -1 0.71 0.95
-5 6 0 1 1.2
-5 6 0 1.55 1.39
-5 6 1 5.1 2.3
-5 6 1 3.92 2.01
-5 6 2 1.07 1.15
-5 6 2 1.24 1.02
-5 6 3 0.7 0.83
-5 6 3 0.7 0.68
-5 6 4 -0.01 1.29
-5 6 4 0.65 1.08
-5 6 5 0.78 0.56
-5 6 5 1.67 1.46
-5 6 6 -0.35 1.13
-5 7 -3 1.16 1.07
-5 7 -2 0.39 1.04
-5 7 -1 0.33 0.66
-5 7 0 0.96 1.05
-5 7 1 1 1.18
-5 7 1 1.08 0.97
-5 7 2 3.77 2
-5 7 3 1.54 1.63
-5 7 4 1.24 1.45
-4 -11 -9 -0.77 0.96
-4 -11 -8 -0.22 1
-4 -11 -7 -0.42 0.92
-4 -11 -6 -0.37 0.79
-4 -11 -5 2.35 1.7
-4 -11 -4 1.66 1.38
-4 -11 -3 -1.16 1.29
-4 -11 -2 0.68 1.07
-4 -11 -1 -0.17 0.91
-4 -11 0 0.25 0.82
-4 -11 0 0.37 0.91
-4 -11 1 1.33 1.06
-4 -11 1 -0.11 0.67
-4 -10 -12 1.29 1.03
-4 -10 -11 0.05 0.87
-4 -10 -10 -0.48 0.72
-4 -10 -9 0.71 0.73
-4 -10 -8 4.34 1.95
-4 -10 -8 3.24 1.6
-4 -10 -7 3.14 1.56
-4 -10 -6 3.08 1.61
-4 -10 -5 1.62 1.09
-4 -10 -4 7.61 2.5
-4 -10 -3 -0.28 0.61
-4 -10 -3 1.42 1.11
-4 -10 -2 6.04 2.28
-4 -10 -2 5.05 1.87
-4 -10 -1 -0.64 0.75
-4 -10 -1 -0.79 0.82
-4 -10 0 -0.2 0.68
-4 -10 0 0.2 0.53
-4 -10 1 0.06 0.93
-4 -10 1 -0.04 0.49
-4 -10 2 -0.97 1.06
-4 -10 2 1.38 1.44
-4 -10 2 1.02 1.17
-4 -9 -12 -0.51 0.56
-4 -9 -11 0.74 0.85
-4 -9 -10 1.98 1.29
-4 -9 -9 0.75 0.66
-4 -9 -8 1.23 1.05
-4 -9 -7 4.38 1.9
-4 -9 -7 0.81 0.73
-4 -9 -6 0.17 0.72
-4 -9 -5 0.39 0.68
-4 -9 -4 -0.33 0.76
-4 -9 -3 27.67 4.34
-4 -9 -3 26.1 3.69
-4 -9 -2 19 3.34
-4 -9 -2 18.89 3.59
-4 -9 -1 19.11 3.55
-4 -9 -1 18.94 3.51
-4 -9 0 0.54 0.88
-4 -9 0 3.06 1.61
-4 -9 1 4.77 1.93
-4 -9 1 5.35 2
-4 -9 1 8.18 2.52
-4 -9 2 -1.23 1.03
-4 -9 2 -0.14 0.77
-4 -9 3 2.33 1.43
-4 -9 3 2.14 1.51
-4 -8 -12 1.19 1.25
-4 -8 -12 -0.39 0.49
-4 -8 -11 9.81 2.51
-4 -8 -11 7.05 2.54
-4 -8 -10 3.11 1.24
-4 -8 -9 0.39 0.81
-4 -8 -8 10.11 2.53
-4 -8 -7 4.37 1.61
-4 -8 -6 3.64 1.48
-4 -8 -5 -0.26 0.73
-4 -8 -5 1.13 0.9
-4 -8 -4 3.73 1.45
-4 -8 -3 0.97 0.62
-4 -8 -3 0.74 0.87
-4 -8 -2 38.29 4.03
-4 -8 -2 27.17 4.05
-4 -8 -2 25.48 3.64
-4 -8 -1 17.2 3.18
-4 -8 -1 26.28 3.75
-4 -8 -1 17.6 3.24
-4 -8 0 5.19 1.81
-4 -8 0 3.42 1.29
-4 -8 1 0.38 0.69
-4 -8 1 -0.91 0.97
-4 -8 2 6.2 2.12
-4 -8 2 4.68 1.72
-4 -8 2 4.07 1.8
-4 -8 3 0.91 1.21
-4 -8 3 0.93 0.82
-4 -8 3 0.96 0.84
-4 -8 4 -1 1.14
-4 -8 4 0.9 1.07
-4 -7 -12 2.82 1.9
-4 -7 -12 0.34 0.6
-4 -7 -11 4.87 1.95
-4 -7 -11 11.54 2.68
-4 -7 -10 23.68 4.16
-4 -7 -10 28.32 4.03
-4 -7 -9 2.98 1.12
-4 -7 -8 0.61 0.79
-4 -7 -7 -0.04 0.54
-4 -7 -6 14.09 2.71
-4 -7 -5 3.54 0.89
-4 -7 -5 1.32 0.89
-4 -7 -4 9.27 1.62
-4 -7 -4 6.68 1.92
-4 -7 -3 9.02 1.75
-4 -7 -3 8.26 2.2
-4 -7 -3 7.28 1.98
-4 -7 -2 -0.19 0.41
-4 -7 -2 0.9 0.91
-4 -7 -1 12.91 2.37
-4 -7 -1 8.57 2.21
-4 -7 -1 9.73 2.3
-4 -7 0 1.35 0.94
-4 -7 0 1.7 1.11
-4 -7 0 2.13 1.11
-4 -7 1 3.67 1.49
-4 -7 1 2.03 1.28
-4 -7 1 0.69 0.61
-4 -7 2 3.75 1.55
-4 -7 2 3.21 1.5
-4 -7 2 2.71 1.58
-4 -7 3 2.06 1.19
-4 -7 3 3.55 1.8
-4 -7 3 1.82 1.01
-4 -7 4 10.18 2.83
-4 -7 4 10.07 2.73
-4 -7 4 11.69 2.39
-4 -7 5 -0.4 1.21
-4 -7 5 1.94 1.49
-4 -6 -13 0.11 1.08
-4 -6 -12 0.38 0.79
-4 -6 -12 -0.45 1.05
-4 -6 -11 6.26 2.21
-4 -6 -11 5.9 1.99
-4 -6 -10 1.97 1.26
-4 -6 -10 2.61 1.08
-4 -6 -9 13.96 2.7
-4 -6 -9 12.51 2.95
-4 -6 -8 3.21 1.59
-4 -6 -7 4.42 1.48
-4 -6 -6 11.22 2.41
-4 -6 -5 53.16 5.07
-4 -6 -5 51.28 2.5
-4 -6 -4 19.94 3.05
-4 -6 -4 18.74 1.86
-4 -6 -3 8.31 1.42
-4 -6 -3 8.42 1.95
-4 -6 -2 -0.24 0.64
-4 -6 -2 0.29 0.59
-4 -6 -2 1.67 0.97
-4 -6 -1 2.63 1.08
-4 -6 -1 2.32 1.21
-4 -6 -1 1.11 0.95
-4 -6 0 1.2 0.74
-4 -6 0 1.18 0.85
-4 -6 0 1.62 1.31
-4 -6 1 -0.29 0.62
-4 -6 1 0.73 0.86
-4 -6 1 0.81 0.86
-4 -6 2 0.88 0.75
-4 -6 2 -0.23 0.46
-4 -6 2 0.1 0.68
-4 -6 3 -0.7 0.59
-4 -6 3 -0.54 0.47
-4 -6 3 -0.37 0.66
-4 -6 4 5.95 2.07
-4 -6 4 5.34 1.6
-4 -6 4 6.9 2.18
-4 -6 5 17.95 3.8
-4 -6 5 11.69 2.84
-4 -6 6 0.48 1.01
-4 -6 6 0.13 0.71
-4 -6 7 0.2 0.89
-4 -5 -13 1.24 1.32
-4 -5 -12 -0.61 0.72
-4 -5 -12 -0.87 0.98
-4 -5 -11 1.35 1.27
-4 -5 -11 1.12 0.9
-4 -5 -10 6.85 2.28
-4 -5 -10 6.39 1.74
-4 -5 -9 0.48 0.39
-4 -5 -9 0.54 1.01
-4 -5 -8 0.38 0.77
-4 -5 -8 -0.96 0.84
-4 -5 -7 0.94 0.64
-4 -5 -6 4.8 1.5
-4 -5 -5 1.93 1.08
-4 -5 -4 37.71 2.29
-4 -5 -4 39.56 4.12
-4 -5 -3 0.36 0.47
-4 -5 -3 0.09 0.55
-4 -5 -2 9.65 1.6
-4 -5 -2 10.3 2.13
-4 -5 -1 3.9 1.31
-4 -5 -1 3.12 0.92
-4 -5 -1 2.66 1.04
-4 -5 0 51.67 4.99
-4 -5 0 56.15 4.76
-4 -5 0 56.57 4.64
-4 -5 1 9.08 1.95
-4 -5 1 8.78 2.22
-4 -5 1 9.26 1.94
-4 -5 2 0.4 0.78
-4 -5 2 -1.54 1.17
-4 -5 2 0.91 0.77
-4 -5 3 1.99 0.78
-4 -5 3 0.99 0.82
-4 -5 3 2.23 1.34
-4 -5 4 4.4 1.86
-4 -5 4 2.33 1.07
-4 -5 4 3.48 1.39
-4 -5 5 0.98 1.25
-4 -5 5 0.01 0.94
-4 -5 6 0.13 0.62
-4 -5 6 2.55 1.46
-4 -5 7 -0.17 0.79
-4 -5 7 -0.38 0.84
-4 -5 7 -0.21 0.53
-4 -4 -13 2.83 1.62
-4 -4 -12 7.02 2.51
-4 -4 -11 2.23 1.01
-4 -4 -11 3.52 1.61
-4 -4 -10 1.59 0.64
-4 -4 -10 2.87 1.32
-4 -4 -9 2.87 1.34
-4 -4 -9 2.67 1.37
-4 -4 -8 17.79 1.62
-4 -4 -8 23.07 3.6
-4 -4 -8 19.11 2.94
-4 -4 -7 1.6 1.07
-4 -4 -7 1.81 0.58
-4 -4 -7 1.85 1.1
-4 -4 -6 0.18 0.23
-4 -4 -6 -0.2 0.5
-4 -4 -5 1.05 0.81
-4 -4 -4 1 0.83
-4 -4 -4 0.77 0.29
-4 -4 -3 5.6 1.32
-4 -4 -3 5.35 0.93
-4 -4 -2 0.78 0.35
-4 -4 -2 0.36 0.46
-4 -4 -1 0.02 0.59
-4 -4 -1 1.04 0.8
-4 -4 -1 0.39 0.47
-4 -4 0 8.53 1.99
-4 -4 0 9.86 2.03
-4 -4 0 9.47 1.78
-4 -4 1 64.93 4.79
-4 -4 1 58.6 4.93
-4 -4 1 62.59 5.51
-4 -4 2 39.41 4.18
-4 -4 2 33.98 3.45
-4 -4 2 29.25 3.96
-4 -4 3 23.45 3.8
-4 -4 3 18.33 2.58
-4 -4 3 27.39 3.71
-4 -4 4 2.8 1.42
-4 -4 4 2.5 0.95
-4 -4 4 2.61 1
-4 -4 5 41.97 3.68
-4 -4 5 43.53 5.4
-4 -4 5 44.77 5.33
-4 -4 6 16.74 3.61
-4 -4 6 21.78 3.98
-4 -4 7 0.17 0.82
-4 -4 7 0.84 1.24
-4 -4 7 -0.1 0.47
-4 -4 8 -0.33 1.02
-4 -4 8 -1.14 1.31
-4 -3 -13 0.08 0.74
-4 -3 -12 2.21 1.34
-4 -3 -11 1.19 0.71
-4 -3 -11 -1 0.73
-4 -3 -10 0.19 0.49
-4 -3 -10 2.01 1.4
-4 -3 -9 5.36 1.52
-4 -3 -9 3.63 0.86
-4 -3 -9 2.85 1.19
-4 -3 -8 4.01 1.26
-4 -3 -8 4.35 1.05
-4 -3 -8 3.75 1.52
-4 -3 -7 49.71 3.29
-4 -3 -7 50.24 4.97
-4 -3 -7 54.9 4.76
-4 -3 -6 9.76 1.51
-4 -3 -6 11.6 2.34
-4 -3 -6 9.19 2.08
-4 -3 -5 1.11 1.01
-4 -3 -5 2.39 1.01
-4 -3 -5 0.33 0.36
-4 -3 -4 -0.09 0.54
-4 -3 -4 -0.1 0.28
-4 -3 -4 0.7 0.54
-4 -3 -3 57.44 4.64
-4 -3 -3 51.71 2.85
-4 -3 -3 56.42 3.72
-4 -3 -3 60.21 3.81
-4 -3 -2 41.77 2.91
-4 -3 -2 38.45 3.76
-4 -3 -1 5.97 1.29
-4 -3 -1 6.49 1.46
-4 -3 0 11.41 1.87
-4 -3 0 13.09 2.16
-4 -3 0 10.42 2.14
-4 -3 1 22.59 3.19
-4 -3 1 25.83 3.09
-4 -3 1 25.52 2.89
-4 -3 2 5.93 1.69
-4 -3 2 7.18 1.99
-4 -3 2 6.6 1.42
-4 -3 3 0.66 0.75
-4 -3 3 -0.1 0.66
-4 -3 3 -0.75 0.64
-4 -3 4 0.11 0.23
-4 -3 4 0.61 0.71
-4 -3 4 0.41 0.8
-4 -3 5 -0.3 0.61
-4 -3 5 -0.44 0.59
-4 -3 6 58.89 6.32
-4 -3 6 58.42 4.93
-4 -3 6 49.46 5.8
-4 -3 7 20.5 3.91
-4 -3 7 20.26 3.92
-4 -3 7 23.46 3.22
-4 -3 8 -0.29 1.17
-4 -3 8 0.83 1.21
-4 -3 9 0.37 0.69
-4 -2 -13 -0.54 0.55
-4 -2 -12 3.6 1.92
-4 -2 -11 2.27 1.39
-4 -2 -11 2.14 1.01
-4 -2 -10 5.43 2
-4 -2 -10 6.36 1.69
-4 -2 -10 5.71 1.45
-4 -2 -9 0.35 0.7
-4 -2 -9 0.51 0.51
-4 -2 -8 5.8 1.84
-4 -2 -8 5.24 1.56
-4 -2 -8 6.92 1.4
-4 -2 -7 27.03 3.29
-4 -2 -7 22.86 2.27
-4 -2 -7 27.11 2.73
-4 -2 -7 29.81 3.78
-4 -2 -6 53.77 3.78
-4 -2 -6 58.39 3.46
-4 -2 -6 54.32 4.65
-4 -2 -6 53.87 4.84
-4 -2 -5 0.68 0.36
-4 -2 -5 -0.1 0.34
-4 -2 -5 0.3 0.47
-4 -2 -4 32.96 3.5
-4 -2 -4 31.12 2.85
-4 -2 -4 34.39 2.46
-4 -2 -3 40.65 2.78
-4 -2 -3 37.99 3.75
-4 -2 -3 39.32 3.25
-4 -2 -2 791.03 14.84
-4 -2 -2 783.22 12.71
-4 -2 -2 803.68 12.88
-4 -2 -1 1.7 0.63
-4 -2 -1 -1.32 1.16
-4 -2 -1 0.65 0.94
-4 -2 -1 -0.54 1.01
-4 -2 -1 -0.65 1.57
-4 -2 0 16.63 2.3
-4 -2 0 14.59 2.07
-4 -2 0 15.06 1.97
-4 -2 0 13.73 1.86
-4 -2 1 2.34 0.82
-4 -2 1 0.56 0.62
-4 -2 1 0.69 0.48
-4 -2 1 1.55 0.87
-4 -2 1 1.51 0.54
-4 -2 2 11.03 1.89
-4 -2 2 9.84 1.87
-4 -2 2 11.51 1.66
-4 -2 2 9.71 2.19
-4 -2 2 9.92 1.57
-4 -2 3 6.59 1.61
-4 -2 3 5.46 1.78
-4 -2 3 5.63 1.26
-4 -2 3 6.45 1.29
-4 -2 3 7.62 1.4
-4 -2 4 6.36 1.78
-4 -2 4 5.59 1.86
-4 -2 4 7.69 1.53
-4 -2 5 5.59 1.93
-4 -2 5 6.43 1.27
-4 -2 5 7.9 2.16
-4 -2 6 3.14 1.38
-4 -2 6 3.78 1.08
-4 -2 6 5.72 2.09
-4 -2 7 15.66 3.27
-4 -2 7 15.07 3.25
-4 -2 8 8.8 2.68
-4 -2 8 9.18 2.72
-4 -2 9 1.22 1.14
-4 -2 9 0.04 0.54
-4 -1 -12 1.28 1.2
-4 -1 -11 15.86 2.79
-4 -1 -11 17.93 3.67
-4 -1 -10 7.48 1.72
-4 -1 -10 10.77 2.62
-4 -1 -10 8.64 1.97
-4 -1 -9 8.94 2.33
-4 -1 -9 10.52 2.19
-4 -1 -9 9.4 1.94
-4 -1 -9 12 1.87
-4 -1 -8 -0.46 0.53
-4 -1 -8 -0.22 0.51
-4 -1 -8 0.86 0.74
-4 -1 -8 -0.12 0.57
-4 -1 -7 3.26 1.27
-4 -1 -7 0.16 0.73
-4 -1 -7 2.72 1.05
-4 -1 -7 1.51 0.88
-4 -1 -6 -0.12 0.47
-4 -1 -6 0.36 0.62
-4 -1 -6 0.78 0.45
-4 -1 -5 17.18 1.43
-4 -1 -5 15.85 2.19
-4 -1 -5 17.83 2.69
-4 -1 -5 18.64 2.73
-4 -1 -4 0.16 0.24
-4 -1 -4 0.82 0.63
-4 -1 -4 1.06 0.72
-4 -1 -3 129.17 6.21
-4 -1 -3 113.95 6.46
-4 -1 -3 117.8 3.77
-4 -1 -2 271.68 9.55
-4 -1 -2 268.92 6.42
-4 -1 -2 273.35 9.1
-4 -1 -1 620.23 10.9
-4 -1 -1 679.31 12.75
-4 -1 -1 603.82 14.13
-4 -1 -1 643.79 12.92
-4 -1 -1 646.34 12.6
-4 -1 0 1.53 0.63
-4 -1 0 1.94 0.72
-4 -1 0 0.76 0.51
-4 -1 0 2.24 0.95
-4 -1 0 1.99 0.78
-4 -1 0 1.85 0.73
-4 -1 1 15.73 2.18
-4 -1 1 14.61 2.3
-4 -1 1 16.33 1.82
-4 -1 1 16.71 1.83
-4 -1 2 -0.03 0.2
-4 -1 2 0.34 0.42
-4 -1 2 0.76 0.59
-4 -1 2 -0.07 0.23
-4 -1 2 0.75 0.56
-4 -1 3 86.44 3.98
-4 -1 3 84.27 6.06
-4 -1 3 76.79 4.59
-4 -1 3 83.91 3.96
-4 -1 3 87.08 6.29
-4 -1 4 1.06 0.44
-4 -1 4 0.82 0.7
-4 -1 4 0.42 0.35
-4 -1 4 0.82 0.46
-4 -1 4 1.41 0.75
-4 -1 5 0.15 0.38
-4 -1 5 0.52 0.29
-4 -1 5 0.75 0.68
-4 -1 5 1.14 0.99
-4 -1 6 -0.22 0.75
-4 -1 6 -0.91 0.86
-4 -1 7 6.58 2.14
-4 -1 7 7.86 2.27
-4 -1 8 0.06 0.8
-4 -1 8 0.61 0.85
-4 -1 9 2.57 1.75
-4 -1 9 2.72 1.37
-4 -1 10 1.91 1.31
-4 0 -12 0.33 0.61
-4 0 -11 8.43 2.17
-4 0 -11 8.48 2.48
-4 0 -10 25.59 4.08
-4 0 -10 27.1 3.72
-4 0 -10 24.96 3.51
-4 0 -9 13.43 2.77
-4 0 -9 14.48 2.65
-4 0 -9 13.89 2.68
-4 0 -8 15.99 2.62
-4 0 -8 21.66 3.18
-4 0 -8 16.19 2.91
-4 0 -7 0.22 0.76
-4 0 -7 0.47 0.43
-4 0 -7 0.29 0.38
-4 0 -7 -0.49 0.76
-4 0 -6 0.43 0.63
-4 0 -6 0.91 0.72
-4 0 -6 0.53 0.26
-4 0 -6 0.63 0.35
-4 0 -6 0.61 0.64
-4 0 -5 8.86 1.97
-4 0 -5 10.05 1.87
-4 0 -5 9.77 1.89
-4 0 -4 0.48 0.61
-4 0 -4 -0.06 0.5
-4 0 -3 2.89 1.15
-4 0 -3 3.19 1.16
-4 0 -2 -0.72 1.09
-4 0 -2 -0.33 0.73
-4 0 -1 1.93 0.42
-4 0 -1 1.66 0.74
-4 0 -1 3.22 0.82
-4 0 -1 2.11 0.87
-4 0 0 53.47 4.15
-4 0 0 48.18 3.1
-4 0 0 50.35 4.11
-4 0 0 45.26 2.94
-4 0 0 55.91 4.53
-4 0 1 0.21 0.48
-4 0 1 0.29 0.32
-4 0 1 0.25 0.35
-4 0 1 0.44 0.67
-4 0 1 -0.23 0.71
-4 0 2 -0.29 0.61
-4 0 2 -0.09 0.32
-4 0 2 -0.71 0.66
-4 0 2 0.13 0.26
-4 0 2 0.38 0.29
-4 0 3 6.71 1.75
-4 0 3 4.83 0.73
-4 0 3 4.63 0.73
-4 0 3 5.23 1.57
-4 0 3 3.64 0.96
-4 0 4 51.43 3.85
-4 0 4 55.92 5.03
-4 0 4 50.95 2.28
-4 0 4 46.6 2.23
-4 0 4 50.34 2.28
-4 0 4 52.15 5
-4 0 5 0.63 0.32
-4 0 5 0.11 0.36
-4 0 5 0.57 0.89
-4 0 5 -0.5 0.87
-4 0 6 0.81 0.46
-4 0 6 0.97 0.97
-4 0 6 0.94 0.97
-4 0 7 0.38 0.78
-4 0 7 0.8 0.92
-4 0 8 1.74 1.33
-4 0 8 0.76 1.19
-4 0 9 1.65 1.48
-4 0 9 -0.6 0.99
-4 0 10 0.35 0.4
-4 0 10 -0.05 0.63
-4 0 11 0.06 0.87
-4 1 -12 1.8 1.41
-4 1 -11 2.48 1.29
-4 1 -11 2.67 1.42
-4 1 -10 10.19 2.45
-4 1 -10 10.01 2.43
-4 1 -10 11.74 2.9
-4 1 -9 32.9 4.12
-4 1 -9 33.43 4.35
-4 1 -9 31.68 4.25
-4 1 -8 15.61 2.78
-4 1 -8 13.07 2.51
-4 1 -8 14.76 2.7
-4 1 -7 4.16 1.34
-4 1 -7 4.84 1.66
-4 1 -7 5.88 1.64
-4 1 -6 23.5 3.25
-4 1 -6 22.17 2.94
-4 1 -6 20.22 3.04
-4 1 -5 35.82 3.91
-4 1 -5 36.89 3.51
-4 1 -5 40.41 4.22
-4 1 -4 24.45 3.15
-4 1 -4 29.29 3.46
-4 1 -3 16.3 2.54
-4 1 -3 13.68 2.41
-4 1 -2 0.86 0.78
-4 1 -2 1.88 0.94
-4 1 -1 1.73 0.92
-4 1 -1 2.33 0.74
-4 1 -1 3.02 1.21
-4 1 0 2.07 1.01
-4 1 0 1.03 0.78
-4 1 0 1.28 0.49
-4 1 1 1.06 0.63
-4 1 1 1.44 0.69
-4 1 1 1.02 0.39
-4 1 1 1.29 0.7
-4 1 2 0.24 0.56
-4 1 2 -0.87 0.83
-4 1 2 0.13 0.48
-4 1 2 0.03 0.07
-4 1 3 0.1 0.47
-4 1 3 -0.05 0.62
-4 1 3 -1.01 0.98
-4 1 4 1.16 0.69
-4 1 4 2.58 1.11
-4 1 4 1.65 0.71
-4 1 5 6.12 1.67
-4 1 5 8.06 2.01
-4 1 5 7.62 1.48
-4 1 6 0.86 0.82
-4 1 6 1.35 1.13
-4 1 7 6.32 2.1
-4 1 7 5.82 1.92
-4 1 8 3.28 1.47
-4 1 8 4.8 1.91
-4 1 9 6.46 2.29
-4 1 9 7.41 2.14
-4 1 10 0.62 0.4
-4 1 10 1.99 1.2
-4 2 -12 1.71 1.33
-4 2 -11 0.44 0.92
-4 2 -11 1.23 1.13
-4 2 -10 3.99 1.52
-4 2 -10 3.35 1.53
-4 2 -9 -0.52 0.72
-4 2 -9 0.46 0.66
-4 2 -8 12.03 2.73
-4 2 -8 11.56 2.49
-4 2 -7 9.69 2.03
-4 2 -7 7.54 2.02
-4 2 -7 7.79 2
-4 2 -6 5.43 1.42
-4 2 -6 7.16 1.9
-4 2 -6 5.16 1.68
-4 2 -5 2.93 1.04
-4 2 -5 4.46 1.49
-4 2 -5 3.48 1.32
-4 2 -4 28.3 3.63
-4 2 -4 26.14 3.5
-4 2 -3 19.48 3
-4 2 -3 18.44 2.89
-4 2 -2 1.39 0.95
-4 2 -2 1.65 1.12
-4 2 -1 0.97 0.83
-4 2 -1 1.96 1.04
-4 2 -1 1.54 0.75
-4 2 0 10.74 2.28
-4 2 0 10.65 2.13
-4 2 0 9.67 1.48
-4 2 1 10.69 2.06
-4 2 1 11.78 2.29
-4 2 2 6.12 1.47
-4 2 2 8.72 2.07
-4 2 3 3.7 1.55
-4 2 3 2.07 1.06
-4 2 3 1.71 1.03
-4 2 4 2.11 0.88
-4 2 4 2.28 1.26
-4 2 4 3.5 1.54
-4 2 5 0.7 0.79
-4 2 6 0.53 0.6
-4 2 6 0.55 0.74
-4 2 7 12.01 2.55
-4 2 7 7.47 2.34
-4 2 8 1.69 1.04
-4 2 8 0.6 0.63
-4 2 9 0.42 0.71
-4 2 9 -0.53 1.21
-4 2 10 1.7 1.6
-4 3 -10 -0.23 0.92
-4 3 -9 0.76 0.85
-4 3 -8 17.82 3.5
-4 3 -7 0.21 0.66
-4 3 -7 -0.7 0.74
-4 3 -6 0.2 0.32
-4 3 -6 0.01 1.3
-4 3 -5 0.54 0.41
-4 3 -5 -0.25 0.83
-4 3 -4 0.9 0.65
-4 3 -4 2.94 1.05
-4 3 -3 1.84 1.22
-4 3 -3 1.05 0.97
-4 3 -3 0.71 0.53
-4 3 -2 7.06 1.87
-4 3 -2 5.48 1.73
-4 3 -2 6.16 1.65
-4 3 -1 1.26 0.92
-4 3 -1 0.25 0.63
-4 3 -1 0.25 0.81
-4 3 0 64.41 5.35
-4 3 0 66.18 5.59
-4 3 0 61.51 5.46
-4 3 1 14.69 2.57
-4 3 1 13.84 2.66
-4 3 1 16.31 2.88
-4 3 2 26.82 3.73
-4 3 2 32.12 4.09
-4 3 3 0.9 1
-4 3 3 1.01 0.86
-4 3 4 -0.31 0.56
-4 3 4 1.07 0.93
-4 3 5 7.39 2.15
-4 3 5 4.82 1.87
-4 3 5 7.63 2.13
-4 3 5 5.54 1.8
-4 3 6 3.76 1.54
-4 3 6 3.78 1.47
-4 3 7 2.83 1.49
-4 3 7 2.73 1.5
-4 3 8 6.11 2.02
-4 3 8 4.77 1.9
-4 3 9 0.07 0.89
-4 3 10 0.41 0.62
-4 4 -9 -0.16 1.37
-4 4 -8 6.88 2.4
-4 4 -7 2.58 1.48
-4 4 -6 0.23 0.45
-4 4 -5 11.35 2.71
-4 4 -4 0.89 0.93
-4 4 -4 -0.75 1.13
-4 4 -3 1.83 1.23
-4 4 -3 3.05 1.22
-4 4 -2 0.73 0.6
-4 4 -2 1.97 1.06
-4 4 -1 3.55 1.83
-4 4 -1 2.44 1.27
-4 4 0 1.34 1.06
-4 4 0 0.7 0.71
-4 4 1 22.8 3.58
-4 4 1 24.92 3.69
-4 4 2 11.1 2.47
-4 4 2 11.32 2.5
-4 4 3 6.99 1.97
-4 4 3 8.96 2.3
-4 4 4 -0.23 0.47
-4 4 4 -0.62 0.76
-4 4 4 0.88 1.03
-4 4 5 7.73 2.38
-4 4 5 6.72 2.15
-4 4 5 9.8 2.55
-4 4 6 11.92 2.9
-4 4 6 12.57 2.95
-4 4 6 12.32 2.75
-4 4 7 13.1 3.14
-4 4 7 10.8 2.84
-4 4 7 13.11 3.12
-4 4 8 -0.12 0.58
-4 4 8 1.63 1.33
-4 4 8 1.37 1.2
-4 4 9 -0.45 0.56
-4 4 9 -0.29 0.71
-4 4 9 -0.9 0.47
-4 4 10 0.21 0.48
-4 4 11 -0.11 0.53
-4 5 -7 0.72 0.86
-4 5 -6 -0.45 1.1
-4 5 -5 3.24 1.44
-4 5 -5 3.16 1.22
-4 5 -4 0.04 0.72
-4 5 -4 -0.39 0.48
-4 5 -3 10.46 2.41
-4 5 -3 14.67 3.09
-4 5 -2 10.89 2.38
-4 5 -2 14.37 3.12
-4 5 -1 5.39 1.86
-4 5 -1 2.15 1.39
-4 5 0 10.6 2.54
-4 5 0 13.4 2.93
-4 5 1 -0.43 0.84
-4 5 1 0.28 0.61
-4 5 2 -0.37 0.9
-4 5 2 0.74 0.79
-4 5 3 1.74 1.11
-4 5 3 1.87 1.34
-4 5 3 2.14 1.44
-4 5 4 4.15 1.79
-4 5 4 5.58 1.89
-4 5 4 5.9 1.97
-4 5 5 2.18 1.53
-4 5 5 0.62 1
-4 5 5 0.28 0.55
-4 5 6 10.39 2.65
-4 5 6 8.04 2.5
-4 5 6 9.89 2.75
-4 5 7 7.58 2.44
-4 5 7 5.62 2.11
-4 5 8 2.41 1.56
-4 5 8 3.53 1.57
-4 5 8 3.1 1.55
-4 5 9 -0.85 0.77
-4 5 9 0.4 0.63
-4 5 9 0.04 0.59
-4 5 10 -1.46 1.25
-4 5 10 0.71 0.76
-4 6 -5 -0.53 0.56
-4 6 -4 5.35 2.03
-4 6 -4 5.4 1.88
-4 6 -3 6.75 2.19
-4 6 -3 6.67 2.33
-4 6 -2 36.34 4.78
-4 6 -2 37.51 5.19
-4 6 -1 4.48 1.86
-4 6 -1 7.62 2.29
-4 6 0 10.21 2.63
-4 6 0 10.12 2.61
-4 6 1 4.5 1.86
-4 6 1 5.09 1.85
-4 6 2 -0.94 1.19
-4 6 2 -0.94 1.22
-4 6 3 -0.67 0.8
-4 6 3 -0.47 0.84
-4 6 3 -0.32 0.88
-4 6 4 0.13 0.65
-4 6 4 0.67 0.54
-4 6 4 0.53 0.86
-4 6 5 0.94 0.82
-4 6 5 0.09 0.8
-4 6 5 1.19 1.11
-4 6 6 -0.25 0.63
-4 6 6 1.83 1.47
-4 6 6 1.24 1.4
-4 6 7 0.8 0.87
-4 6 7 -0.19 0.55
-4 6 8 1.1 1.18
-4 6 8 1.07 1.32
-4 6 9 -0.11 0.75
-4 6 9 -0.99 1.15
-4 7 -3 2.55 1.3
-4 7 -3 1.34 1.33
-4 7 -2 5.15 2.17
-4 7 -2 5.77 2.12
-4 7 -1 6.93 2.35
-4 7 -1 6.44 2.34
-4 7 0 0.9 0.93
-4 7 0 0.34 0.89
-4 7 1 8.32 2.65
-4 7 1 6.3 2.31
-4 7 2 -0.52 0.66
-4 7 2 0.87 1.08
-4 7 3 4.43 1.96
-4 7 3 1.6 1.05
-4 7 3 2.04 1.35
-4 7 4 0.78 0.63
-4 7 4 0.91 1.06
-4 7 5 0.89 1.1
-4 7 5 2.27 1.65
-4 7 5 2.24 1.43
-4 7 6 0.96 1.32
-4 7 6 -0.42 1.07
-4 7 6 -0.08 0.48
-4 7 7 2.36 1.58
-4 7 7 -0.82 0.65
-4 7 8 1.36 1.25
-4 8 -2 -0.6 1.01
-4 8 -1 -0.98 1.06
-4 8 0 0.87 0.97
-4 8 0 1.19 1.18
-4 8 1 1.55 1.33
-4 8 1 0.52 0.56
-4 8 2 0.64 1.3
-4 8 2 0.01 0.97
-4 8 3 1.96 1.27
-4 8 3 0.8 0.79
-4 8 3 3.69 1.87
-4 8 4 1.97 1.44
-4 8 4 1 1.37
-4 8 5 0.71 1.01
-4 8 6 1.33 1.22
-4 8 7 0.14 0.92
-3 -11 -11 0.45 0.65
-3 -11 -10 -0.14 0.75
-3 -11 -9 0.63 0.69
-3 -11 -8 3.2 2.12
-3 -11 -7 0.17 0.7
-3 -11 -6 -0.38 0.67
-3 -11 -5 0.56 0.87
-3 -11 -4 3.39 1.79
-3 -11 -3 1.57 1.31
-3 -11 -2 -1.26 1.42
-3 -11 -1 1.33 0.99
-3 -11 0 -0.37 0.96
-3 -11 1 0.76 0.99
-3 -11 1 -0.43 0.72
-3 -11 2 3.15 1.86
-3 -11 2 0.39 0.81
-3 -10 -12 -0.99 1.2
-3 -10 -11 0.46 0.48
-3 -10 -10 0.09 0.74
-3 -10 -9 0.84 0.94
-3 -10 -8 0.14 0.92
-3 -10 -7 0.94 1.27
-3 -10 -6 2.66 1.57
-3 -10 -5 3.03 1.68
-3 -10 -4 -0.68 0.98
-3 -10 -3 5.55 2.03
-3 -10 -2 -0.37 0.53
-3 -10 -2 0.29 0.53
-3 -10 -1 0.72 0.65
-3 -10 -1 -0.45 0.8
-3 -10 0 -1.21 1.05
-3 -10 0 0.3 0.64
-3 -10 1 5.56 1.93
-3 -10 1 6.75 2.22
-3 -10 2 0.71 0.68
-3 -10 2 0.26 0.51
-3 -10 3 -0.21 0.96
-3 -9 -12 0.86 1.16
-3 -9 -11 0.68 0.95
-3 -9 -10 0.46 0.53
-3 -9 -9 1.21 0.93
-3 -9 -8 2.76 1.23
-3 -9 -7 2.39 1.18
-3 -9 -6 16.9 3.45
-3 -9 -5 13.98 3.08
-3 -9 -4 16.78 3.37
-3 -9 -3 0.12 0.54
-3 -9 -3 0.16 1
-3 -9 -2 2.43 1.11
-3 -9 -2 2.12 1.3
-3 -9 -1 13.89 2.95
-3 -9 -1 12.16 2.55
-3 -9 0 10.72 2.52
-3 -9 0 10.62 2.44
-3 -9 1 3.54 1.47
-3 -9 1 4.35 1.58
-3 -9 2 5.62 1.99
-3 -9 2 3.35 1.39
-3 -9 3 2.82 1.52
-3 -9 3 2.02 1.23
-3 -9 4 -0.37 1.12
-3 -8 -13 -0.46 1.13
-3 -8 -12 0.12 0.7
-3 -8 -11 3.03 1.36
-3 -8 -11 1.62 1.36
-3 -8 -10 0.41 0.51
-3 -8 -10 0.6 0.93
-3 -8 -9 10.02 2.26
-3 -8 -8 9.39 2.4
-3 -8 -7 1.88 1.2
-3 -8 -6 1.03 0.64
-3 -8 -5 -0.55 0.42
-3 -8 -4 0.9 0.92
-3 -8 -3 9.23 2.33
-3 -8 -3 6.59 1.58
-3 -8 -2 1.77 1.23
-3 -8 -2 -0.02 0.4
-3 -8 -1 0.24 0.79
-3 -8 -1 0.15 0.73
-3 -8 0 23.65 3.67
-3 -8 0 20.1 3.25
-3 -8 1 12.3 2.7
-3 -8 1 14.67 2.81
-3 -8 2 13.61 2.93
-3 -8 2 13.58 2.77
-3 -8 3 5.85 2.41
-3 -8 3 1.81 0.97
-3 -8 3 2.82 1.48
-3 -8 4 0.93 0.88
-3 -8 4 6.28 2.51
-3 -8 5 1.86 1.54
-3 -8 5 3.6 1.98
-3 -7 -13 -0.44 1.12
-3 -7 -12 0.15 0.45
-3 -7 -11 3.41 1.61
-3 -7 -11 4.84 1.65
-3 -7 -10 0.94 1.13
-3 -7 -10 -0.17 0.58
-3 -7 -9 37.24 4.75
-3 -7 -9 35.79 4.19
-3 -7 -8 14.87 2.7
-3 -7 -7 1.72 1.09
-3 -7 -6 8.04 2.03
-3 -7 -5 5.44 1.71
-3 -7 -4 -0.28 0.72
-3 -7 -3 0.54 0.52
-3 -7 -3 0.1 0.7
-3 -7 -2 1.55 0.59
-3 -7 -2 2.35 1.18
-3 -7 -1 -0.58 0.7
-3 -7 -1 -0.27 0.52
-3 -7 0 -0.3 0.55
-3 -7 0 -0.81 0.8
-3 -7 1 2.18 1.11
-3 -7 1 1.24 1.02
-3 -7 2 0.95 0.62
-3 -7 2 0.1 0.52
-3 -7 3 1.3 0.86
-3 -7 3 0.54 0.62
-3 -7 4 25.92 3.47
-3 -7 4 31.68 4.63
-3 -7 4 22.48 3.99
-3 -7 5 0.93 1.22
-3 -7 5 0.49 0.72
-3 -7 6 0.39 0.56
-3 -7 6 -0.91 0.83
-3 -7 6 -0.33 0.64
-3 -7 7 0.02 0.76
-3 -6 -13 -0.11 0.52
-3 -6 -12 5.84 2.26
-3 -6 -11 1.71 0.84
-3 -6 -11 3.09 1.59
-3 -6 -10 16.36 2.75
-3 -6 -10 21.22 3.69
-3 -6 -9 0.4 0.79
-3 -6 -9 -0.34 0.48
-3 -6 -8 22.5 3.1
-3 -6 -8 22.51 3.52
-3 -6 -7 0.43 0.69
-3 -6 -7 0.02 0.46
-3 -6 -7 -0.12 0.12
-3 -6 -6 23.78 3.13
-3 -6 -6 19.57 2.99
-3 -6 -6 20.52 1.46
-3 -6 -5 2.89 1.07
-3 -6 -4 8.79 2.03
-3 -6 -3 4.02 1.12
-3 -6 -3 5.3 1.68
-3 -6 -2 6.17 1.6
-3 -6 -2 4.58 1.25
-3 -6 -1 0.95 0.64
-3 -6 -1 0.28 0.48
-3 -6 0 65.76 5.2
-3 -6 0 64.34 5.18
-3 -6 1 13 2.51
-3 -6 1 11.93 2.22
-3 -6 2 3.23 1.17
-3 -6 2 3.37 1.44
-3 -6 3 9.25 1.87
-3 -6 3 8.77 2.18
-3 -6 3 8.91 2.44
-3 -6 4 -0.25 0.89
-3 -6 4 1.96 1.59
-3 -6 4 0.45 0.67
-3 -6 5 8.85 2.4
-3 -6 5 11.92 2.91
-3 -6 6 -1.13 1.41
-3 -6 6 0.17 0.82
-3 -6 7 -1.06 0.93
-3 -6 7 1.93 1.45
-3 -6 7 1.05 1.1
-3 -6 8 2.66 1.47
-3 -5 -13 0.84 1.52
-3 -5 -12 3.32 1.67
-3 -5 -11 0.15 1.03
-3 -5 -11 0.98 0.69
-3 -5 -10 4.24 1.8
-3 -5 -10 3.1 1.21
-3 -5 -9 10.15 2.46
-3 -5 -9 9.21 1.94
-3 -5 -8 5.33 1.83
-3 -5 -8 3.22 1.16
-3 -5 -7 11.76 2.14
-3 -5 -7 13.22 2.5
-3 -5 -6 0.58 0.68
-3 -5 -6 0.3 0.82
-3 -5 -5 13.02 0.94
-3 -5 -5 14.94 2.33
-3 -5 -4 20.76 2.77
-3 -5 -3 41.65 3.9
-3 -5 -2 0.15 0.34
-3 -5 -2 0.95 0.76
-3 -5 -1 25.46 2.95
-3 -5 -1 32.39 3.07
-3 -5 -1 25.36 3
-3 -5 0 2.3 0.89
-3 -5 0 0.92 0.75
-3 -5 1 19.35 2.86
-3 -5 1 22.13 2.94
-3 -5 1 20.11 2.63
-3 -5 2 20.93 3.08
-3 -5 2 19.55 3.04
-3 -5 2 16.31 2.44
-3 -5 3 4.55 1.66
-3 -5 3 4.55 1.53
-3 -5 3 3.86 1.2
-3 -5 4 1.02 0.47
-3 -5 4 -0.19 0.36
-3 -5 4 0.06 0.43
-3 -5 5 71.73 6.68
-3 -5 5 70.1 4.92
-3 -5 5 69.29 6.73
-3 -5 6 3.03 1.57
-3 -5 6 3.34 1.44
-3 -5 7 1.22 0.76
-3 -5 7 -0.12 0.81
-3 -5 7 1.52 0.83
-3 -5 8 1.85 1.51
-3 -5 8 0.28 0.89
-3 -5 8 -0.44 0.87
-3 -5 9 3.97 1.65
-3 -4 -15 -0.88 0.86
-3 -4 -13 -0.42 0.7
-3 -4 -12 -0.28 1.07
-3 -4 -11 1.02 1.1
-3 -4 -11 0.44 0.59
-3 -4 -10 0.8 0.94
-3 -4 -10 0.53 0.56
-3 -4 -9 0.9 1.05
-3 -4 -9 0.6 0.31
-3 -4 -9 0.22 0.65
-3 -4 -8 10.23 1.98
-3 -4 -8 11.47 2.47
-3 -4 -8 9.93 0.86
-3 -4 -7 1.4 0.68
-3 -4 -7 1.85 0.85
-3 -4 -6 32.73 3.36
-3 -4 -6 31.51 3.55
-3 -4 -5 20.93 2.69
-3 -4 -4 7.39 1.6
-3 -4 -4 6.84 0.66
-3 -4 -3 0.69 0.66
-3 -4 -3 0.22 0.23
-3 -4 -2 9.9 1.32
-3 -4 -2 10.79 1.84
-3 -4 -2 12.04 2.01
-3 -4 -1 45.63 3.75
-3 -4 -1 49.86 3.44
-3 -4 -1 49.3 3.98
-3 -4 0 5.18 1.39
-3 -4 0 5.29 1.39
-3 -4 0 4.64 1.29
-3 -4 1 2.2 1.04
-3 -4 1 1.38 0.75
-3 -4 1 0.45 0.35
-3 -4 2 0.5 0.45
-3 -4 2 -0.66 0.91
-3 -4 2 0.44 0.62
-3 -4 3 11.8 2.32
-3 -4 3 13.69 2.04
-3 -4 3 13.9 2.3
-3 -4 4 3.81 1.19
-3 -4 4 2.38 1.29
-3 -4 4 3.28 1.36
-3 -4 5 2.91 1.53
-3 -4 5 2.29 0.87
-3 -4 5 2.24 1.07
-3 -4 6 65.59 6.56
-3 -4 6 66.84 6.46
-3 -4 6 66.66 5.81
-3 -4 7 8.13 2.2
-3 -4 7 8.95 2.35
-3 -4 7 6.51 2.24
-3 -4 8 0.04 0.84
-3 -4 8 -0.37 0.65
-3 -4 8 0.19 1.26
-3 -4 9 0.73 1.06
-3 -4 9 -0.32 1.49
-3 -4 9 -0.43 0.49
-3 -3 -14 1.44 1.28
-3 -3 -13 0.7 0.98
-3 -3 -13 1.01 0.94
-3 -3 -12 2.04 1.41
-3 -3 -11 5.26 2.01
-3 -3 -11 4.35 1.26
-3 -3 -10 10.86 2.64
-3 -3 -10 12.22 2.06
-3 -3 -10 9.73 1.63
-3 -3 -9 1.69 0.82
-3 -3 -9 2.58 1.12
-3 -3 -9 2.18 0.71
-3 -3 -8 0.86 0.5
-3 -3 -8 1.54 0.52
-3 -3 -8 0.88 0.68
-3 -3 -7 4.65 0.88
-3 -3 -7 5.53 1.41
-3 -3 -7 7.57 1.93
-3 -3 -6 25.09 2.85
-3 -3 -6 20.88 1.63
-3 -3 -6 24.71 3.11
-3 -3 -5 8.48 1.75
-3 -3 -5 6.89 0.95
-3 -3 -5 8.84 1.75
-3 -3 -5 6.19 1.04
-3 -3 -4 28.09 2.87
-3 -3 -4 34.53 2.89
-3 -3 -4 29.45 2.02
-3 -3 -3 6.8 1.23
-3 -3 -3 8.85 1.65
-3 -3 -3 6.31 0.75
-3 -3 -2 26.57 2.71
-3 -3 -2 31.88 2.77
-3 -3 -2 29.08 2.04
-3 -3 -1 173.01 7.11
-3 -3 -1 188.95 6.99
-3 -3 -1 178.14 5.86
-3 -3 -1 180.07 6.98
-3 -3 -1 196.37 7.1
-3 -3 0 75.81 4.41
-3 -3 0 71.97 4.18
-3 -3 0 75.11 4.44
-3 -3 0 73.87 4.91
-3 -3 0 74.05 4.43
-3 -3 1 5.36 1.41
-3 -3 1 4.39 1.02
-3 -3 1 5.37 1.3
-3 -3 2 6.52 1.28
-3 -3 2 5.51 1.46
-3 -3 2 5.89 1.4
-3 -3 3 14.19 1.88
-3 -3 3 13.97 2.5
-3 -3 3 13.34 2.22
-3 -3 4 23.33 2.33
-3 -3 4 20.45 3.23
-3 -3 4 23.03 3.14
-3 -3 5 2.27 1.05
-3 -3 5 3.07 1.2
-3 -3 5 2.45 0.77
-3 -3 6 5.45 1.51
-3 -3 6 7.22 2.04
-3 -3 6 6.77 1.96
-3 -3 7 8.43 2.01
-3 -3 7 5.73 1.89
-3 -3 7 5.68 1.75
-3 -3 8 2.63 1.24
-3 -3 8 2.84 1.44
-3 -3 8 3.21 1.62
-3 -3 9 -0.31 1.21
-3 -3 9 -0.22 1
-3 -3 9 -0.34 0.41
-3 -3 10 0.62 1.36
-3 -2 -13 0.54 0.82
-3 -2 -13 -0.29 0.76
-3 -2 -12 1.06 0.9
-3 -2 -12 2.51 1.53
-3 -2 -11 13.12 2.98
-3 -2 -11 13.08 2.54
-3 -2 -10 0.84 0.7
-3 -2 -10 0.68 0.65
-3 -2 -10 0.38 0.53
-3 -2 -9 3.43 0.97
-3 -2 -9 2.68 0.97
-3 -2 -9 3.45 1.44
-3 -2 -8 10.59 1.63
-3 -2 -8 12.5 2.04
-3 -2 -8 10.91 2.39
-3 -2 -7 40.19 4.14
-3 -2 -7 40.59 2.99
-3 -2 -7 42.3 3.67
-3 -2 -6 -0.8 0.79
-3 -2 -6 0.33 0.44
-3 -2 -6 0.18 0.52
-3 -2 -5 12.26 2.06
-3 -2 -5 10.42 1.81
-3 -2 -5 11.09 1.45
-3 -2 -5 12.3 1.4
-3 -2 -4 8.9 1.28
-3 -2 -4 9.96 1.46
-3 -2 -4 9.97 1.75
-3 -2 -4 9.27 1.74
-3 -2 -3 44.83 3.43
-3 -2 -3 35.16 3.19
-3 -2 -3 34.95 2.44
-3 -2 -3 40.71 3.37
-3 -2 -3 37.73 2.59
-3 -2 -2 89.16 4.08
-3 -2 -2 91.73 4.66
-3 -2 -2 92.91 3.49
-3 -2 -2 87.97 4.74
-3 -2 -2 98.44 4.08
-3 -2 -2 91.2 4.7
-3 -2 -1 89.07 4.43
-3 -2 -1 86.15 3.85
-3 -2 -1 84.19 4.03
-3 -2 -1 89.83 4.7
-3 -2 -1 93.25 4.51
-3 -2 0 31.01 2.7
-3 -2 0 30.68 3.04
-3 -2 0 32.95 2.59
-3 -2 0 31.82 2.54
-3 -2 0 27.9 2.44
-3 -2 0 28.68 2.51
-3 -2 1 5.21 1.02
-3 -2 1 6.03 1.19
-3 -2 1 6.13 1.15
-3 -2 1 5.55 1.46
-3 -2 1 5.16 1.22
-3 -2 2 7.84 1.75
-3 -2 2 8.33 1.35
-3 -2 2 9.06 1.43
-3 -2 2 7.45 1.29
-3 -2 2 10.06 1.8
-3 -2 3 18.01 2.64
-3 -2 3 20.42 2.08
-3 -2 3 22.79 2.31
-3 -2 3 20.6 2.22
-3 -2 3 18.67 2.74
-3 -2 4 10.81 2.16
-3 -2 4 9.07 1.35
-3 -2 4 8.49 1.97
-3 -2 5 36.15 2.6
-3 -2 5 35.17 4.25
-3 -2 5 32.37 3.96
-3 -2 6 33.4 3.33
-3 -2 6 28.05 3.9
-3 -2 6 30.95 4.14
-3 -2 6 27.77 2.05
-3 -2 7 9.21 2.4
-3 -2 7 9.74 1.96
-3 -2 7 9.22 2.38
-3 -2 8 3 1.42
-3 -2 8 3.36 1.59
-3 -2 8 1.67 0.76
-3 -2 9 1.04 0.97
-3 -2 9 1.98 1.56
-3 -2 10 2.53 1.71
-3 -2 10 -3.59 1.76
-3 -1 -13 -0.41 0.97
-3 -1 -12 0.52 0.78
-3 -1 -11 -0.17 0.95
-3 -1 -11 1.38 0.81
-3 -1 -10 8.4 1.91
-3 -1 -10 5.98 1.93
-3 -1 -10 5.82 1.48
-3 -1 -10 5.67 1.54
-3 -1 -9 6.52 1.93
-3 -1 -9 5.37 1.34
-3 -1 -9 6.54 1.46
-3 -1 -9 7.57 1.74
-3 -1 -8 24.59 2.9
-3 -1 -8 22.96 3.31
-3 -1 -8 23.02 2.74
-3 -1 -7 2.27 0.71
-3 -1 -7 2.43 0.96
-3 -1 -7 2.52 0.87
-3 -1 -6 96.17 5.94
-3 -1 -6 94.84 5.38
-3 -1 -6 97.66 4.95
-3 -1 -5 2.76 0.91
-3 -1 -5 3.54 1.05
-3 -1 -5 3.41 0.95
-3 -1 -4 9 1.11
-3 -1 -4 7.95 1.52
-3 -1 -4 8.35 1.59
-3 -1 -4 6.91 1.21
-3 -1 -3 181.09 6.94
-3 -1 -3 203.8 7.3
-3 -1 -3 226.99 7.56
-3 -1 -3 206.79 4.64
-3 -1 -3 200.04 6.39
-3 -1 -2 0.49 0.38
-3 -1 -2 0.24 0.58
-3 -1 -2 0.17 0.53
-3 -1 -2 1.25 0.69
-3 -1 -2 -0.26 0.55
-3 -1 -1 7.63 1.18
-3 -1 -1 8.66 1.32
-3 -1 -1 6.7 0.89
-3 -1 -1 6.75 1.16
-3 -1 -1 6.96 1.32
-3 -1 -1 7.38 1.44
-3 -1 0 48.12 3.38
-3 -1 0 44.97 2.78
-3 -1 0 44.35 2.71
-3 -1 0 42.98 3.3
-3 -1 0 43.03 2.86
-3 -1 0 41.66 2.93
-3 -1 1 26.48 2.07
-3 -1 1 26.73 2.07
-3 -1 1 21.29 2.19
-3 -1 1 23.53 2.32
-3 -1 1 22.55 2.64
-3 -1 1 27.25 2.66
-3 -1 2 7.27 1.12
-3 -1 2 6.37 1.63
-3 -1 2 7.74 1.1
-3 -1 2 7.5 1.63
-3 -1 2 6.58 1.26
-3 -1 3 11.2 1.38
-3 -1 3 11.03 1.47
-3 -1 3 11.02 1.99
-3 -1 3 11.3 1.38
-3 -1 3 8.99 1.82
-3 -1 4 40.14 2.69
-3 -1 4 42.95 2.92
-3 -1 4 47.58 4.37
-3 -1 4 42.23 2.88
-3 -1 4 45.23 4.18
-3 -1 5 6.17 1.23
-3 -1 5 5.2 0.96
-3 -1 5 6.19 1.73
-3 -1 5 6.17 1.76
-3 -1 5 5.17 1.06
-3 -1 5 6.26 1.17
-3 -1 6 29.35 1.91
-3 -1 6 32.54 3.98
-3 -1 6 34.37 4.24
-3 -1 6 30.72 2.86
-3 -1 7 4.76 1.67
-3 -1 7 4.11 1.42
-3 -1 7 4 1.07
-3 -1 8 2.02 1.17
-3 -1 8 0.22 0.41
-3 -1 8 0.84 0.87
-3 -1 9 2.12 1.43
-3 -1 9 0.84 0.9
-3 -1 10 1.13 1.29
-3 -1 10 2.31 1.49
-3 -1 11 0.81 0.8
-3 0 -12 1.18 1.41
-3 0 -12 0.82 1.16
-3 0 -11 1.75 1.18
-3 0 -11 -0.64 1.1
-3 0 -10 7.23 2.06
-3 0 -10 8.33 2.13
-3 0 -10 6.29 1.58
-3 0 -10 6.5 1.59
-3 0 -9 15.82 2.61
-3 0 -9 14.31 2.8
-3 0 -9 15.28 2.43
-3 0 -9 12.2 2.03
-3 0 -8 22.32 2.45
-3 0 -8 19.91 2.68
-3 0 -8 22.51 3.05
-3 0 -8 22.93 3.3
-3 0 -7 0.58 0.66
-3 0 -7 -0.22 0.42
-3 0 -7 -0.4 0.62
-3 0 -7 0.54 0.55
-3 0 -6 0.39 0.46
-3 0 -6 1.1 0.82
-3 0 -6 0.08 0.21
-3 0 -6 0.76 0.69
-3 0 -5 -0.29 0.57
-3 0 -5 -0.2 0.28
-3 0 -5 -0.22 0.36
-3 0 -4 1.77 0.74
-3 0 -4 2.08 0.89
-3 0 -4 2.25 0.44
-3 0 -4 0.89 0.35
-3 0 -3 32.53 2.83
-3 0 -3 33.87 2.76
-3 0 -3 36.05 3.02
-3 0 -3 31.72 2.9
-3 0 -3 32.75 3.01
-3 0 -2 67.78 1.94
-3 0 -2 77.46 4.22
-3 0 -2 69.55 3.88
-3 0 -2 72.52 4.21
-3 0 -1 275.24 7.09
-3 0 -1 247.11 7.93
-3 0 -1 272.87 8.25
-3 0 -1 250.12 6.61
-3 0 -1 238.56 4.89
-3 0 0 52.89 2.78
-3 0 0 48.14 2.65
-3 0 0 52.63 3.53
-3 0 0 54.76 3.55
-3 0 0 54.06 2.91
-3 0 0 49.42 3.67
-3 0 1 25.84 2.68
-3 0 1 23.03 2.33
-3 0 1 30.46 2.92
-3 0 1 26.63 1.73
-3 0 1 24.86 1.72
-3 0 2 32.31 2.68
-3 0 2 28.71 2.98
-3 0 2 29.38 3.05
-3 0 2 32.89 1.78
-3 0 2 28.29 2.97
-3 0 2 32.92 1.84
-3 0 3 13.28 1.16
-3 0 3 14.55 2.23
-3 0 3 13.04 1.65
-3 0 3 12.8 1.15
-3 0 3 14.76 2.17
-3 0 4 1.92 0.68
-3 0 4 3.47 1.21
-3 0 4 1.68 0.45
-3 0 4 2.26 0.5
-3 0 4 2.43 1.06
-3 0 4 1.78 0.49
-3 0 5 4.68 0.87
-3 0 5 3.54 0.72
-3 0 5 3.1 0.72
-3 0 5 3.64 0.72
-3 0 5 4.33 1.39
-3 0 5 4.3 1.35
-3 0 6 0.78 0.82
-3 0 6 0.44 0.37
-3 0 6 -0.03 0.3
-3 0 6 -0.09 0.3
-3 0 6 0.43 1.02
-3 0 6 -0.09 0.21
-3 0 6 -0.05 0.2
-3 0 7 0.77 0.49
-3 0 7 -0.31 0.72
-3 0 7 0.26 0.29
-3 0 7 -0.3 0.71
-3 0 7 -0.26 0.41
-3 0 8 6.91 2.08
-3 0 8 8.36 2.12
-3 0 9 5.82 2.06
-3 0 9 5.38 1.89
-3 0 10 0.86 0.92
-3 0 10 -0.34 0.74
-3 0 11 -0.16 0.54
-3 0 11 0.75 0.62
-3 0 12 0.77 1.11
-3 1 -12 1.01 1.12
-3 1 -12 1.66 1.45
-3 1 -11 0.99 0.47
-3 1 -11 0.5 0.96
-3 1 -10 7.28 2.2
-3 1 -10 6.29 2.26
-3 1 -9 61.88 5.85
-3 1 -9 66.54 5.79
-3 1 -9 62.45 5
-3 1 -9 61.16 4.31
-3 1 -8 16.17 1.99
-3 1 -8 17.61 2.94
-3 1 -8 19.04 2.67
-3 1 -8 19.58 3.03
-3 1 -7 1.37 0.98
-3 1 -7 1.93 1.03
-3 1 -7 0.4 0.47
-3 1 -7 0.68 0.33
-3 1 -6 54.36 2.75
-3 1 -6 56.94 4.52
-3 1 -6 58.62 4.5
-3 1 -6 57.29 4.59
-3 1 -5 3.33 0.62
-3 1 -5 2.96 0.95
-3 1 -5 2.15 0.88
-3 1 -5 1.79 0.78
-3 1 -4 1.28 0.48
-3 1 -4 0.54 0.57
-3 1 -4 1.7 0.76
-3 1 -3 28.33 2.93
-3 1 -3 27.59 2.42
-3 1 -3 26.63 2.85
-3 1 -2 12.05 1.68
-3 1 -2 11 1.87
-3 1 -2 12.19 1.87
-3 1 -1 30.62 2.42
-3 1 -1 34.89 3.15
-3 1 -1 29.05 2.91
-3 1 0 16.34 2.14
-3 1 0 16.42 1.55
-3 1 0 17.09 2.26
-3 1 1 0.6 0.25
-3 1 1 0.19 0.47
-3 1 1 -0.42 0.54
-3 1 1 0.82 0.83
-3 1 2 28.6 3.13
-3 1 2 30.68 3.14
-3 1 2 27.63 2.64
-3 1 3 36.74 2.91
-3 1 3 32.92 3.16
-3 1 3 35.45 3.56
-3 1 3 33.22 3.5
-3 1 4 28.83 3.09
-3 1 4 29.98 2.55
-3 1 4 30.48 3.45
-3 1 5 1.88 0.68
-3 1 5 1.99 0.9
-3 1 5 2.75 1.06
-3 1 5 1.31 0.91
-3 1 5 2.1 0.82
-3 1 6 3.96 1.47
-3 1 6 3.2 0.59
-3 1 6 4 0.63
-3 1 6 3.79 0.61
-3 1 6 5.01 1.35
-3 1 6 3.6 0.6
-3 1 6 4.03 1.3
-3 1 6 4.27 1.27
-3 1 7 -0.39 0.44
-3 1 7 -0.02 0.28
-3 1 7 -0.11 0.38
-3 1 8 18.91 2.94
-3 1 8 18.13 2.57
-3 1 8 19.68 3.51
-3 1 8 19.71 3.15
-3 1 9 0.88 1.06
-3 1 9 -0.49 0.87
-3 1 10 0.53 0.93
-3 1 10 2.1 1.24
-3 1 11 -0.39 0.91
-3 1 11 -0.09 0.53
-3 1 12 -1.47 1.26
-3 2 -12 5.84 2.21
-3 2 -12 9.07 2.74
-3 2 -11 -0.35 0.94
-3 2 -11 0.3 1.24
-3 2 -10 1.94 1.77
-3 2 -10 0.24 0.61
-3 2 -9 -1.55 1.15
-3 2 -9 2.16 1.42
-3 2 -8 75.24 6.13
-3 2 -8 67.07 6.07
-3 2 -7 19.75 2.86
-3 2 -7 20.77 2.02
-3 2 -7 19.17 3.03
-3 2 -6 2.36 0.87
-3 2 -6 1.06 0.83
-3 2 -6 1.39 0.94
-3 2 -6 1.64 0.55
-3 2 -5 29.89 3.37
-3 2 -5 22.49 1.41
-3 2 -5 25.74 3.26
-3 2 -5 27.23 2.8
-3 2 -4 15.22 1.92
-3 2 -4 19.39 2.64
-3 2 -4 16.74 2.47
-3 2 -3 33.5 3.15
-3 2 -3 32.97 2.51
-3 2 -3 34.41 3.56
-3 2 -3 33.14 3.47
-3 2 -2 13.9 2.3
-3 2 -2 16.54 2.26
-3 2 -2 15.08 2.37
-3 2 -1 17.96 2.44
-3 2 -1 20.18 2.61
-3 2 -1 23.58 2.27
-3 2 -1 23.62 2.89
-3 2 0 8.71 1.76
-3 2 0 8.52 1.74
-3 2 0 7.24 1.59
-3 2 1 16.6 2.22
-3 2 1 20.3 2.63
-3 2 1 20.51 2.7
-3 2 2 18.99 2.34
-3 2 2 18.16 2.57
-3 2 2 20.48 2.64
-3 2 2 18.02 2.61
-3 2 3 66.53 5.02
-3 2 3 74.89 5.39
-3 2 3 78.71 5.42
-3 2 3 67.9 4.28
-3 2 3 72.79 5.23
-3 2 4 5.82 1.47
-3 2 4 5.91 1.5
-3 2 4 6.99 1.75
-3 2 4 4.59 1.43
-3 2 4 6.06 1.55
-3 2 5 4.34 1.26
-3 2 5 3.21 1.17
-3 2 5 1.25 0.69
-3 2 5 2.13 0.8
-3 2 5 2.44 1.19
-3 2 6 2.92 1.21
-3 2 6 2.81 1
-3 2 6 2.37 0.96
-3 2 6 1.13 0.86
-3 2 7 1.58 0.75
-3 2 7 2.35 1
-3 2 7 2.75 1.19
-3 2 7 2.93 1.24
-3 2 8 0.98 0.57
-3 2 8 0.09 0.4
-3 2 8 -0.02 0.33
-3 2 8 -0.36 0.92
-3 2 9 -0.7 1
-3 2 9 1.12 0.88
-3 2 9 -0.29 0.58
-3 2 9 -0.51 0.44
-3 2 10 -0.11 0.4
-3 2 10 0.37 0.58
-3 2 10 1.35 0.99
-3 2 11 -1 1.41
-3 3 -11 5.33 2.04
-3 3 -11 4.8 1.99
-3 3 -10 1.6 1.29
-3 3 -10 1.42 1.6
-3 3 -9 2.58 1.3
-3 3 -9 1.79 1.1
-3 3 -8 1.32 0.99
-3 3 -8 1.12 0.89
-3 3 -7 50.44 4.61
-3 3 -7 50.44 5.32
-3 3 -6 -0.17 0.46
-3 3 -6 0.71 0.62
-3 3 -5 1.49 0.77
-3 3 -5 1.88 0.86
-3 3 -5 0.27 0.75
-3 3 -5 1.38 0.4
-3 3 -4 12.62 2
-3 3 -4 13.32 2.49
-3 3 -4 14.02 1.8
-3 3 -3 36.93 3.51
-3 3 -3 34.6 2.44
-3 3 -3 35.53 3.92
-3 3 -2 1.38 0.77
-3 3 -2 0.45 0.55
-3 3 -1 37.88 3.67
-3 3 -1 39.08 3.85
-3 3 0 1.44 0.75
-3 3 0 0.95 0.76
-3 3 1 13.64 2.33
-3 3 1 13.98 2.32
-3 3 2 20.37 2.84
-3 3 2 16.51 2.55
-3 3 2 16 2.56
-3 3 3 19.3 2.96
-3 3 3 19.55 2.95
-3 3 3 22.89 3.04
-3 3 4 1.48 1.1
-3 3 4 0.69 0.42
-3 3 4 0.54 0.43
-3 3 4 0.82 0.83
-3 3 4 -0.11 0.65
-3 3 5 11.66 2.42
-3 3 5 15.47 2.75
-3 3 5 14.88 2.6
-3 3 5 15.64 2.54
-3 3 5 15.82 2.74
-3 3 6 1.3 0.92
-3 3 6 0.35 0.52
-3 3 6 -0.28 0.41
-3 3 6 0.5 0.76
-3 3 7 3.02 1.1
-3 3 7 3.13 1.1
-3 3 7 3.38 1.36
-3 3 7 4.05 1.35
-3 3 7 3.14 1.39
-3 3 8 1.42 0.88
-3 3 8 0.73 0.61
-3 3 8 1.03 0.79
-3 3 8 0.9 0.68
-3 3 9 4.6 1.6
-3 3 9 5.23 1.51
-3 3 9 4.49 1.62
-3 3 9 4.57 1.7
-3 3 10 1.34 0.82
-3 3 10 0.58 0.37
-3 3 10 1.01 1.33
-3 3 11 3.17 1.54
-3 4 -10 0.45 1.39
-3 4 -9 0.38 1.1
-3 4 -8 3.93 1.81
-3 4 -7 15.4 2.59
-3 4 -7 16.68 3.28
-3 4 -6 1.17 1.13
-3 4 -6 0.85 0.54
-3 4 -6 1.99 0.95
-3 4 -5 5.24 1.26
-3 4 -5 4.85 1.69
-3 4 -5 3.48 1.19
-3 4 -4 2.43 0.78
-3 4 -4 2.59 1.18
-3 4 -4 2.28 1.1
-3 4 -3 0.54 0.39
-3 4 -3 1.05 0.73
-3 4 -3 1.02 0.71
-3 4 -2 30.83 3.52
-3 4 -2 32.71 3.81
-3 4 -1 0.5 0.51
-3 4 -1 -0.44 0.43
-3 4 0 8.25 1.88
-3 4 0 9.19 1.97
-3 4 1 7.52 1.86
-3 4 1 7.39 1.79
-3 4 1 9.3 1.98
-3 4 2 0.48 0.77
-3 4 2 -0.56 0.81
-3 4 2 0.01 0.59
-3 4 3 1.16 0.79
-3 4 3 0.44 0.79
-3 4 3 2.63 1.24
-3 4 4 13.6 2.46
-3 4 4 12.78 2.52
-3 4 4 14.28 2.75
-3 4 4 13.37 2.52
-3 4 5 7.33 1.87
-3 4 5 7 2
-3 4 5 9.71 2.28
-3 4 5 7.92 1.95
-3 4 6 28.87 3.83
-3 4 6 25.1 3.48
-3 4 6 27.54 3.91
-3 4 6 25.35 3.64
-3 4 6 23.47 3.65
-3 4 7 1.59 1.24
-3 4 7 0.63 0.84
-3 4 7 0.63 0.72
-3 4 7 -0.03 0.62
-3 4 8 18.8 3.44
-3 4 8 17 3.39
-3 4 8 14.43 2.92
-3 4 8 18.54 3.23
-3 4 9 0.86 1.12
-3 4 9 0.53 0.82
-3 4 9 1.21 0.94
-3 4 9 0.98 1
-3 4 10 1.44 1.03
-3 4 10 -0.32 0.79
-3 4 10 0.37 0.59
-3 4 11 -1.09 0.84
-3 4 11 0.95 1.05
-3 5 -8 -0.05 0.84
-3 5 -7 7.66 2.58
-3 5 -6 16.36 3.37
-3 5 -5 3.8 1.27
-3 5 -5 4.12 1.7
-3 5 -4 2.31 1.17
-3 5 -4 0.66 0.78
-3 5 -3 4.33 1.46
-3 5 -3 5.26 1.74
-3 5 -2 5.96 1.8
-3 5 -2 6.72 1.72
-3 5 -1 7 1.98
-3 5 -1 5.32 1.57
-3 5 0 5.7 1.71
-3 5 0 5.58 1.57
-3 5 1 8.42 2.07
-3 5 1 6.78 1.84
-3 5 1 7.87 2.11
-3 5 2 -0.37 0.54
-3 5 2 0.21 0.42
-3 5 2 0.85 0.64
-3 5 3 6.88 1.83
-3 5 3 5.94 1.69
-3 5 3 6.02 1.91
-3 5 4 1.09 0.87
-3 5 4 0.98 0.75
-3 5 4 0.97 0.79
-3 5 4 0.55 0.65
-3 5 5 26.74 3.69
-3 5 5 29.17 4.09
-3 5 5 27.06 4.01
-3 5 5 28.32 3.96
-3 5 6 39.89 5.01
-3 5 6 36.1 4.32
-3 5 6 40.2 4.92
-3 5 6 35.26 4.58
-3 5 7 8.2 2.38
-3 5 7 5.27 1.76
-3 5 7 7.82 2.37
-3 5 7 6.08 1.81
-3 5 8 -0.2 0.84
-3 5 8 0.04 0.69
-3 5 8 1.14 1.14
-3 5 9 2.29 1.58
-3 5 9 3.05 1.51
-3 5 9 2.41 1.22
-3 5 9 1.78 1.54
-3 5 10 0.93 1.23
-3 5 10 -0.19 0.69
-3 5 10 -0.05 0.69
-3 5 10 -0.54 0.87
-3 5 11 2.21 1.72
-3 5 11 1.22 0.75
-3 5 11 0.61 0.78
-3 5 12 0.77 1.16
-3 6 -7 -0.05 0.75
-3 6 -6 6.16 2.08
-3 6 -5 0.46 0.86
-3 6 -4 24.2 3.5
-3 6 -4 28.57 4.4
-3 6 -3 19.64 3.25
-3 6 -3 22.95 3.93
-3 6 -2 8.63 2.22
-3 6 -2 8.05 2.14
-3 6 -1 2.96 1.48
-3 6 -1 1.36 0.96
-3 6 0 -0.39 0.49
-3 6 0 -0.14 0.57
-3 6 1 5.98 1.86
-3 6 1 6.32 1.9
-3 6 1 4.29 1.62
-3 6 2 0.96 0.61
-3 6 2 1.37 1.19
-3 6 2 1.29 1.06
-3 6 3 1.88 1.18
-3 6 3 0.44 0.77
-3 6 3 -1.04 1.21
-3 6 4 -0.13 0.42
-3 6 4 0.01 0.63
-3 6 4 0.61 0.58
-3 6 4 -0.53 0.72
-3 6 5 11.24 2.75
-3 6 5 8.52 2.4
-3 6 5 8.34 2.34
-3 6 5 10.25 2.38
-3 6 6 7.81 2.39
-3 6 6 12.61 2.98
-3 6 6 7.95 2.5
-3 6 6 9.35 2.32
-3 6 7 3.32 1.42
-3 6 7 1.73 1.25
-3 6 7 1.96 1.35
-3 6 7 1.09 1.32
-3 6 8 0.48 0.77
-3 6 8 0.04 0.47
-3 6 8 1.32 1.21
-3 6 9 0.37 0.72
-3 6 9 0.05 0.51
-3 6 9 0.32 0.74
-3 6 10 1.78 1.31
-3 6 10 0.61 0.46
-3 6 10 2.28 1.39
-3 6 11 3.84 1.94
-3 6 11 3.02 1.47
-3 7 -5 1.61 1.45
-3 7 -4 1.12 0.99
-3 7 -3 14.24 2.9
-3 7 -3 11.88 2.83
-3 7 -2 8.04 2.45
-3 7 -2 10.34 2.45
-3 7 -1 1.88 1.12
-3 7 -1 0.47 0.87
-3 7 0 2.24 1.18
-3 7 0 2.74 1.5
-3 7 1 7.86 2.26
-3 7 1 9.14 2.45
-3 7 1 10.03 2.67
-3 7 2 29.5 4.18
-3 7 2 24.34 3.93
-3 7 2 22.1 3.81
-3 7 3 17.29 3.32
-3 7 3 15.76 3.22
-3 7 3 15.36 3.09
-3 7 4 3.36 1.54
-3 7 4 3.09 1.66
-3 7 4 2.59 1.59
-3 7 5 0.61 0.79
-3 7 5 -0.15 0.83
-3 7 5 0.1 0.66
-3 7 5 0.93 0.95
-3 7 6 3.53 1.62
-3 7 6 2.05 1.55
-3 7 6 1.6 1.2
-3 7 6 4.47 1.78
-3 7 7 -0.27 1.04
-3 7 7 -0.91 0.86
-3 7 7 -0.32 0.6
-3 7 7 0.09 0.49
-3 7 8 0.51 1.05
-3 7 8 -0.19 0.75
-3 7 8 0 0.65
-3 7 8 0.55 0.77
-3 7 9 0.79 0.96
-3 7 9 0.35 0.68
-3 7 9 0.36 0.59
-3 7 10 1.11 1.2
-3 7 10 0.42 1.05
-3 8 -3 0.17 1.18
-3 8 -3 0.79 0.87
-3 8 -2 2.25 1.53
-3 8 -2 1.46 1.02
-3 8 -1 -0.15 0.54
-3 8 -1 0.52 0.46
-3 8 0 0.74 0.84
-3 8 0 0.74 1.02
-3 8 1 -0.29 0.77
-3 8 1 0.43 0.48
-3 8 1 1.27 0.99
-3 8 2 3.17 1.59
-3 8 2 1.64 1.26
-3 8 2 2.32 1.51
-3 8 3 6.51 2.18
-3 8 3 5 1.88
-3 8 3 3.85 1.83
-3 8 4 1.02 0.82
-3 8 4 -0.1 0.73
-3 8 5 1.09 1.29
-3 8 5 1.99 1.24
-3 8 5 -0.01 0.67
-3 8 6 0.52 0.99
-3 8 6 0.07 0.53
-3 8 6 -0.5 0.93
-3 8 6 -0.42 0.52
-3 8 7 0.25 0.77
-3 8 7 1.1 0.91
-3 8 7 -1.19 1.21
-3 8 7 0.62 0.68
-3 8 8 -0.02 0.5
-3 8 8 0.9 1.24
-3 9 -2 -0.33 0.8
-3 9 -1 0.02 0.71
-3 9 0 0.8 0.9
-3 9 0 -0.75 0.94
-3 9 1 0.89 0.51
-3 9 1 -0.35 0.64
-3 9 1 1.36 1.17
-3 9 2 -0.35 0.84
-3 9 2 0.82 0.74
-3 9 2 1.6 1.23
-3 9 3 0.89 0.91
-3 9 3 0.56 1.22
-3 9 3 -2.15 1.37
-3 9 4 0.32 0.98
-3 9 4 0.41 0.74
-3 9 4 0.15 1.08
-3 9 5 2.1 1.48
-3 9 5 0.5 0.8
-3 9 6 -0.09 0.86
-3 10 2 -0.29 1
-3 10 3 0.63 0.5
-3 10 4 0.63 0.99
-3 10 5 0.46 0.75
-2 -11 -11 2.44 1.5
-2 -11 -10 1.22 1.4
-2 -11 -9 -0.28 0.75
-2 -11 -8 0.47 0.78
-2 -11 -7 -0.2 0.57
-2 -11 -6 -0.83 0.94
-2 -11 -5 -0.64 1.05
-2 -11 -4 0.44 0.99
-2 -11 -3 -0.69 1.23
-2 -11 -2 -0.14 0.64
-2 -11 -1 0.1 1.42
-2 -11 0 -1.16 1.53
-2 -11 1 0.9 0.9
-2 -11 2 1.43 0.8
-2 -10 -12 -0.13 0.64
-2 -10 -12 -0.41 0.77
-2 -10 -11 1.62 1.27
-2 -10 -10 -0.26 0.76
-2 -10 -9 1.14 1.25
-2 -10 -8 0.88 1.09
-2 -10 -7 0.49 0.79
-2 -10 -6 0.28 0.93
-2 -10 -5 -0.28 0.94
-2 -10 -4 12.29 2.96
-2 -10 -3 0.37 0.62
-2 -10 -2 -0.38 0.51
-2 -10 -1 1.25 1.47
-2 -10 -1 -0.15 0.53
-2 -10 0 1.43 1.4
-2 -10 0 0.15 0.88
-2 -10 1 2.56 1.36
-2 -10 1 3.37 1.49
-2 -10 2 0.5 1.05
-2 -10 2 -1.63 1.34
-2 -10 3 1.57 1.2
-2 -10 3 1.33 1.35
-2 -9 -13 -0.8 1.15
-2 -9 -12 1.76 1.22
-2 -9 -11 0.12 0.62
-2 -9 -11 1.27 1.18
-2 -9 -10 0.7 0.78
-2 -9 -10 0.58 0.92
-2 -9 -9 0.12 0.65
-2 -9 -8 1.16 1.11
-2 -9 -7 13.61 3.12
-2 -9 -6 9.86 2.49
-2 -9 -5 4.28 1.74
-2 -9 -4 0.62 0.52
-2 -9 -3 29.91 3.14
-2 -9 -3 31.34 4.54
-2 -9 -2 0.95 0.58
-2 -9 -2 1.81 1.29
-2 -9 -1 51.22 4.8
-2 -9 -1 52.85 5.75
-2 -9 0 3.42 1.43
-2 -9 0 5.22 1.89
-2 -9 1 2.54 1.28
-2 -9 1 5.81 1.98
-2 -9 2 -0.83 1.04
-2 -9 2 0.52 0.61
-2 -9 3 0.54 0.96
-2 -9 3 0.97 0.97
-2 -9 4 0.41 0.96
-2 -9 4 0.97 0.62
-2 -8 -13 2.55 1.43
-2 -8 -12 -0.33 0.62
-2 -8 -11 -0.28 0.54
-2 -8 -11 0.17 0.99
-2 -8 -10 0.95 1.12
-2 -8 -10 0.03 0.41
-2 -8 -9 3.11 1.26
-2 -8 -9 4.41 1.72
-2 -8 -8 2.07 1.26
-2 -8 -7 1.51 1.01
-2 -8 -6 2.52 1.27
-2 -8 -5 15.28 2.97
-2 -8 -4 0.59 0.55
-2 -8 -4 0.35 0.3
-2 -8 -3 5.37 1.78
-2 -8 -3 4.01 1.11
-2 -8 -2 83.93 5.37
-2 -8 -2 86.02 6.88
-2 -8 -1 50.13 4.51
-2 -8 -1 55.13 5.46
-2 -8 0 57.64 5.65
-2 -8 0 64.22 5.45
-2 -8 1 0.28 0.49
-2 -8 1 0.28 0.85
-2 -8 2 27.88 3.93
-2 -8 2 28.88 4.05
-2 -8 3 0.27 0.52
-2 -8 3 0.41 0.62
-2 -8 4 4.28 1.85
-2 -8 4 2.2 1.06
-2 -8 5 1.54 1.47
-2 -8 6 4.18 2.09
-2 -7 -13 1.36 1.05
-2 -7 -12 1.47 1.04
-2 -7 -11 6.87 1.88
-2 -7 -11 5.07 1.99
-2 -7 -10 43.69 4.44
-2 -7 -10 48.04 5.44
-2 -7 -9 17.38 2.99
-2 -7 -9 20.17 3.34
-2 -7 -8 2.74 0.94
-2 -7 -8 1.99 1.14
-2 -7 -7 31.62 3.79
-2 -7 -7 28.38 3.75
-2 -7 -6 5.39 1.2
-2 -7 -6 5.58 1.72
-2 -7 -5 4.62 1.44
-2 -7 -4 -0.2 0.65
-2 -7 -3 13.4 1.9
-2 -7 -3 14.34 2.61
-2 -7 -2 27.54 2.88
-2 -7 -2 28.58 3.64
-2 -7 -1 29.24 3.24
-2 -7 -1 29.66 3.78
-2 -7 0 33.19 3.7
-2 -7 0 32.34 3.93
-2 -7 0 32.53 2.99
-2 -7 1 9.69 2.19
-2 -7 1 10.74 2.26
-2 -7 2 2.76 1.24
-2 -7 2 2.37 0.96
-2 -7 3 8.33 2.24
-2 -7 3 8.45 2.01
-2 -7 4 -0.3 0.48
-2 -7 4 0.3 0.6
-2 -7 5 2.71 1.41
-2 -7 6 -0.6 1.09
-2 -7 6 -0.14 0.42
-2 -7 7 1.22 1.22
-2 -7 7 -0.3 0.65
-2 -6 -13 0.64 0.73
-2 -6 -12 1.04 0.97
-2 -6 -11 1.09 0.75
-2 -6 -11 0.89 0.84
-2 -6 -10 8.41 2.33
-2 -6 -10 7.84 1.74
-2 -6 -9 51.37 4.46
-2 -6 -9 55.29 5.47
-2 -6 -8 15.27 2.73
-2 -6 -8 19.02 2.89
-2 -6 -7 11.04 1.42
-2 -6 -7 11.57 2.32
-2 -6 -7 11.36 2.25
-2 -6 -6 38.51 3.91
-2 -6 -6 38.33 2.66
-2 -6 -6 38.78 4.02
-2 -6 -5 152.66 7.97
-2 -6 -4 28.76 3.45
-2 -6 -3 67.88 3.9
-2 -6 -3 67.24 5.16
-2 -6 -2 16.52 2.52
-2 -6 -2 18.48 2.22
-2 -6 -1 -0.86 0.88
-2 -6 -1 0.06 0.45
-2 -6 -1 0.2 0.43
-2 -6 0 10.79 2.12
-2 -6 0 9.55 1.39
-2 -6 0 10.17 1.93
-2 -6 1 0.1 0.5
-2 -6 1 1.31 0.89
-2 -6 1 0.51 0.45
-2 -6 2 13.47 1.35
-2 -6 2 15.15 2.64
-2 -6 2 13.2 2.28
-2 -6 3 10.04 1.97
-2 -6 3 9.37 2.15
-2 -6 4 6.99 1.97
-2 -6 4 8.78 1.78
-2 -6 5 45.33 4.15
-2 -6 5 41.65 5.25
-2 -6 5 54.59 6.07
-2 -6 6 0.67 0.88
-2 -6 6 -1.08 1.22
-2 -6 7 1.78 1.37
-2 -6 7 0.77 0.66
-2 -6 7 2.06 1.42
-2 -6 8 0.76 0.91
-2 -6 8 2.1 1.31
-2 -6 8 1.49 1.44
-2 -5 -13 -0.11 0.85
-2 -5 -12 0.22 0.82
-2 -5 -11 5.35 2.03
-2 -5 -10 61.43 4.54
-2 -5 -10 67.27 6.27
-2 -5 -9 1.35 0.77
-2 -5 -9 2.22 1.05
-2 -5 -8 26.18 2.93
-2 -5 -8 21.94 1.87
-2 -5 -8 21.49 3.16
-2 -5 -8 24.46 2.3
-2 -5 -7 6.09 1.64
-2 -5 -7 4.5 0.77
-2 -5 -7 4.7 1.39
-2 -5 -7 6.45 1.47
-2 -5 -6 1.74 0.83
-2 -5 -6 3.29 0.63
-2 -5 -6 2.72 1.09
-2 -5 -5 5.2 1.4
-2 -5 -5 5.24 1.38
-2 -5 -5 5.25 0.84
-2 -5 -4 191.58 8.08
-2 -5 -3 149.46 7.01
-2 -5 -2 85.83 4.43
-2 -5 -2 86.59 5.37
-2 -5 -2 86.64 4.64
-2 -5 -1 6.09 1.36
-2 -5 -1 5.28 1.03
-2 -5 -1 3.98 1.1
-2 -5 0 23.48 2.65
-2 -5 0 26.25 2.13
-2 -5 0 24.61 2.83
-2 -5 1 38.97 2.31
-2 -5 1 37.97 3.68
-2 -5 1 37.33 3.46
-2 -5 2 0.83 0.38
-2 -5 2 0.77 0.55
-2 -5 2 0.4 0.61
-2 -5 3 4.4 1.58
-2 -5 3 2.62 0.95
-2 -5 4 1.62 0.81
-2 -5 4 2.86 1.03
-2 -5 5 3.8 1.65
-2 -5 5 8.05 2.67
-2 -5 5 4.13 1.24
-2 -5 6 37.98 5.01
-2 -5 6 45.47 5.42
-2 -5 6 45.96 5.15
-2 -5 7 7.61 2.4
-2 -5 7 6.52 1.97
-2 -5 7 5.91 2.06
-2 -5 8 5.08 1.79
-2 -5 8 4.4 1.87
-2 -5 8 4.31 1.62
-2 -5 9 0.38 0.69
-2 -5 9 4.71 1.81
-2 -4 -14 1.87 1.28
-2 -4 -13 0.29 0.72
-2 -4 -12 2.7 1.71
-2 -4 -11 1.03 1.05
-2 -4 -10 1.97 1.42
-2 -4 -10 0.24 0.27
-2 -4 -9 10.23 1.68
-2 -4 -9 8.22 1.06
-2 -4 -9 9.42 2.25
-2 -4 -8 0.43 0.85
-2 -4 -8 0.64 0.63
-2 -4 -8 0.2 0.19
-2 -4 -8 0.61 0.33
-2 -4 -8 0.19 0.27
-2 -4 -7 23.86 2.59
-2 -4 -7 23.8 3.14
-2 -4 -7 24.53 2.34
-2 -4 -6 19.68 1.27
-2 -4 -6 22.19 2.1
-2 -4 -6 22.28 2.49
-2 -4 -6 20.28 2.71
-2 -4 -5 30.98 3.18
-2 -4 -5 29.63 2.84
-2 -4 -5 29.32 2.93
-2 -4 -5 28.26 1.42
-2 -4 -4 4.89 1.22
-2 -4 -4 4.55 1.21
-2 -4 -3 140.36 5.95
-2 -4 -3 135.55 6.14
-2 -4 -2 13.06 1.67
-2 -4 -2 15.33 2.07
-2 -4 -2 18.3 1.99
-2 -4 -1 128.61 5.44
-2 -4 -1 120.18 5.69
-2 -4 -1 137.52 4.91
-2 -4 0 6.4 1.34
-2 -4 0 6.73 1.1
-2 -4 0 5.97 1.29
-2 -4 1 287.93 8.6
-2 -4 1 273.79 9.21
-2 -4 2 63.94 4.72
-2 -4 2 67.6 4.14
-2 -4 3 7.48 1.35
-2 -4 3 7.87 1.78
-2 -4 4 59.05 5.26
-2 -4 4 55.7 3.68
-2 -4 4 62.69 5.23
-2 -4 5 26.21 3.74
-2 -4 5 28.55 2.54
-2 -4 5 33.42 4.1
-2 -4 6 31.03 2.54
-2 -4 6 29.35 4.19
-2 -4 6 29.85 3.81
-2 -4 6 26.27 3.85
-2 -4 7 -0.37 0.4
-2 -4 7 0.02 1.07
-2 -4 7 -0.84 1.16
-2 -4 8 0.3 0.79
-2 -4 8 -0.81 0.64
-2 -4 8 0.1 0.47
-2 -4 9 1.26 0.61
-2 -4 9 1.21 1.29
-2 -4 9 -0.05 1.19
-2 -4 10 4.52 1.89
-2 -4 11 4.51 2.04
-2 -3 -14 1.66 1.32
-2 -3 -13 -0.62 0.67
-2 -3 -13 0.16 0.86
-2 -3 -12 14.83 3.32
-2 -3 -11 26.67 4.33
-2 -3 -10 19.12 2.19
-2 -3 -10 16.15 3.09
-2 -3 -9 2.19 0.91
-2 -3 -9 3.31 1.43
-2 -3 -8 2.47 1.08
-2 -3 -8 2.25 0.7
-2 -3 -7 103.16 5.08
-2 -3 -7 110.29 3.61
-2 -3 -7 107.19 5.24
-2 -3 -7 109.85 6.52
-2 -3 -6 51.59 4.22
-2 -3 -6 52.35 3.53
-2 -3 -6 51.67 1.97
-2 -3 -6 50.61 3.4
-2 -3 -5 9.71 1.51
-2 -3 -5 6.93 1.52
-2 -3 -5 8.12 1.33
-2 -3 -4 0.79 0.34
-2 -3 -4 0.96 0.45
-2 -3 -4 2.38 1.01
-2 -3 -4 1.75 0.61
-2 -3 -4 1.75 0.76
-2 -3 -4 -0.15 0.85
-2 -3 -3 30.27 2.7
-2 -3 -3 27.42 2.57
-2 -3 -3 28.55 2.46
-2 -3 -3 29.4 2.52
-2 -3 -2 22.44 2.27
-2 -3 -2 24.63 2.32
-2 -3 -2 23.74 2.2
-2 -3 -2 23.98 2.27
-2 -3 -1 100.31 4.65
-2 -3 -1 99.94 4.71
-2 -3 -1 106.65 4.64
-2 -3 -1 104.24 4.72
-2 -3 -1 109.54 4.81
-2 -3 0 74.89 3.93
-2 -3 0 80.64 3.93
-2 -3 0 75.98 4.07
-2 -3 0 78.82 4.18
-2 -3 0 89.54 4.66
-2 -3 0 65.54 3.91
-2 -3 1 9.04 1.47
-2 -3 1 8.48 1.53
-2 -3 1 13.52 2.09
-2 -3 1 10.71 1.55
-2 -3 1 7.1 1.23
-2 -3 2 230.64 7.77
-2 -3 2 223.76 8.36
-2 -3 2 234.12 8.14
-2 -3 2 223.53 6.62
-2 -3 3 191.87 8.01
-2 -3 3 201.69 6.07
-2 -3 3 204.26 8.51
-2 -3 4 98.5 6.26
-2 -3 4 97.97 4.14
-2 -3 4 99.25 6.43
-2 -3 5 4.74 1.65
-2 -3 5 2.23 1.08
-2 -3 6 116.22 7.92
-2 -3 6 131.22 7.37
-2 -3 6 128.08 4.8
-2 -3 6 121.42 7.9
-2 -3 7 69.33 6.47
-2 -3 7 74.95 6.54
-2 -3 7 77.17 5.99
-2 -3 8 5.85 1.98
-2 -3 8 5.52 1.77
-2 -3 8 6.2 1.93
-2 -3 9 2.38 1.14
-2 -3 9 1.81 1.22
-2 -3 9 1.08 0.83
-2 -3 10 1.62 1.26
-2 -3 10 0.12 0.55
-2 -3 10 0.26 0.75
-2 -2 -14 -0.06 0.76
-2 -2 -13 3.67 1.94
-2 -2 -13 2.72 1.49
-2 -2 -12 -0.69 0.93
-2 -2 -12 0.8 1.23
-2 -2 -11 4.06 1.84
-2 -2 -11 2.62 0.86
-2 -2 -10 6.45 1.24
-2 -2 -10 8.03 2.24
-2 -2 -9 0.14 0.3
-2 -2 -9 0.39 0.68
-2 -2 -8 19.14 3.01
-2 -2 -8 18.43 2.09
-2 -2 -7 0.22 0.33
-2 -2 -7 0.5 0.39
-2 -2 -6 487 12.71
-2 -2 -6 461.66 8.27
-2 -2 -6 449.09 9.94
-2 -2 -6 476.79 11.19
-2 -2 -5 31.28 3.05
-2 -2 -5 28.33 2.49
-2 -2 -5 29.51 1.81
-2 -2 -5 30.12 2.65
-2 -2 -4 39.14 3.14
-2 -2 -4 37.25 2.78
-2 -2 -4 37.33 1.8
-2 -2 -4 36.73 3.07
-2 -2 -4 39.67 3.12
-2 -2 -4 35.62 2.68
-2 -2 -3 1.18 0.39
-2 -2 -3 1.39 0.31
-2 -2 -3 0.51 0.57
-2 -2 -3 0.79 0.47
-2 -2 -3 1.6 0.63
-2 -2 -3 1.54 0.52
-2 -2 -3 1.41 0.61
-2 -2 -2 413.77 8.8
-2 -2 -2 433.91 7.84
-2 -2 -2 430.37 8.96
-2 -2 -2 368.38 8.29
-2 -2 -2 403.06 4.91
-2 -2 -2 394.29 6.34
-2 -2 -1 173.15 5.38
-2 -2 -1 164.2 5.54
-2 -2 -1 175.61 5.41
-2 -2 -1 166.02 5.38
-2 -2 -1 182.31 5.36
-2 -2 0 0.44 0.32
-2 -2 0 0.71 0.79
-2 -2 0 -0.47 0.49
-2 -2 0 0.04 0.47
-2 -2 0 -0.13 0.43
-2 -2 0 0.63 0.39
-2 -2 1 159.39 5.75
-2 -2 1 155.21 5.25
-2 -2 1 147.68 5.09
-2 -2 1 134.05 4.7
-2 -2 1 142.44 5.69
-2 -2 1 135.89 5.22
-2 -2 2 106.37 4.57
-2 -2 2 106.09 5.4
-2 -2 2 98.57 5.09
-2 -2 2 104.24 5.09
-2 -2 2 109.85 4.65
-2 -2 2 116.21 4.29
-2 -2 3 13.29 1.77
-2 -2 3 12.82 1.41
-2 -2 3 10.41 1.8
-2 -2 3 10.71 1.92
-2 -2 3 12.95 1.72
-2 -2 4 48.49 4.22
-2 -2 4 47.28 4.19
-2 -2 4 48.09 2.65
-2 -2 5 5.17 1.15
-2 -2 5 4.86 1.45
-2 -2 5 4.79 0.77
-2 -2 5 4.18 1.4
-2 -2 6 13.03 2.51
-2 -2 6 11.28 0.81
-2 -2 6 13.78 2.59
-2 -2 6 14.47 2.28
-2 -2 6 14.52 1.27
-2 -2 7 119.4 6.85
-2 -2 7 115.07 7.85
-2 -2 7 118.94 7.9
-2 -2 8 60.65 5.28
-2 -2 8 61.27 6.11
-2 -2 8 64.73 6.25
-2 -2 9 1.26 1.09
-2 -2 9 1.21 0.92
-2 -2 9 -0.75 1.03
-2 -2 10 0.4 0.49
-2 -2 10 1.04 1.09
-2 -2 10 -0.2 0.97
-2 -2 11 -0.06 1.21
-2 -2 11 0.81 0.85
-2 -1 -14 -0.92 0.54
-2 -1 -13 2.12 1.2
-2 -1 -13 6.51 2.09
-2 -1 -12 0.46 0.78
-2 -1 -12 3.7 1.95
-2 -1 -11 12.65 2.93
-2 -1 -11 14.36 2.84
-2 -1 -10 3.98 1.62
-2 -1 -10 2.83 0.83
-2 -1 -10 2.37 0.96
-2 -1 -9 15.45 2.84
-2 -1 -9 17.39 2.06
-2 -1 -9 16.7 2.55
-2 -1 -8 30.83 3.78
-2 -1 -8 30.04 2.69
-2 -1 -7 20.95 2.22
-2 -1 -7 19.76 2.79
-2 -1 -6 93.11 5.55
-2 -1 -6 76.25 4.08
-2 -1 -5 240.89 7.9
-2 -1 -5 238.51 6.5
-2 -1 -5 230.74 8.08
-2 -1 -5 224.21 6.75
-2 -1 -4 -0.06 0.45
-2 -1 -4 0.23 0.37
-2 -1 -4 0.24 0.46
-2 -1 -4 1.26 0.73
-2 -1 -4 0.29 0.4
-2 -1 -4 -0.06 0.24
-2 -1 -3 345.58 8.44
-2 -1 -3 339.22 6.56
-2 -1 -3 319.15 7.73
-2 -1 -3 330.02 8.15
-2 -1 -3 339.69 8.1
-2 -1 -3 347.95 8.33
-2 -1 -2 217.55 6.03
-2 -1 -2 220.56 6.13
-2 -1 -2 250 5.55
-2 -1 -2 249.08 6.62
-2 -1 -2 263.47 6.88
-2 -1 -2 234.11 4.56
-2 -1 -1 9999 40.43
-2 -1 -1 9958.24 37.17
-2 -1 -1 9620.48 31.24
-2 -1 -1 9551.8 35.93
-2 -1 0 167.49 4.81
-2 -1 0 149.12 4.77
-2 -1 0 171.08 4.51
-2 -1 0 166.29 5.58
-2 -1 0 169.24 4.66
-2 -1 0 160.65 5.08
-2 -1 0 168.13 4.5
-2 -1 1 289.08 7.71
-2 -1 1 265.33 6.18
-2 -1 1 288.59 5.82
-2 -1 1 287.41 5.87
-2 -1 1 261.08 6.92
-2 -1 1 300.61 7.22
-2 -1 2 9.39 1.1
-2 -1 2 8.92 1.53
-2 -1 2 9.81 1.19
-2 -1 2 9.75 1.16
-2 -1 2 9.02 1.52
-2 -1 2 9.33 1.46
-2 -1 3 31.64 3.01
-2 -1 3 33.18 2.04
-2 -1 3 33.12 2.31
-2 -1 3 32.58 3.05
-2 -1 3 35.93 2.4
-2 -1 4 9.36 1.74
-2 -1 4 11.85 1.51
-2 -1 4 10.33 1.06
-2 -1 4 8.09 1.72
-2 -1 4 9.48 1.36
-2 -1 4 9.75 1.06
-2 -1 5 3.17 0.93
-2 -1 5 2.85 0.6
-2 -1 5 2.71 1
-2 -1 5 2.59 0.71
-2 -1 5 2.79 0.5
-2 -1 5 2.62 0.84
-2 -1 6 44.74 3.58
-2 -1 6 40.55 4.25
-2 -1 6 44.26 2.52
-2 -1 6 42.15 4.25
-2 -1 7 7.78 1.58
-2 -1 7 8.18 1.16
-2 -1 7 7.96 1.91
-2 -1 7 7.27 1.94
-2 -1 8 15.91 2.45
-2 -1 8 16.01 3
-2 -1 8 14.88 2.96
-2 -1 9 15.54 3.06
-2 -1 9 13.26 2.46
-2 -1 9 14.52 2.54
-2 -1 9 14.22 2.98
-2 -1 10 1.25 1.06
-2 -1 10 0.95 1.1
-2 -1 10 0.64 0.75
-2 -1 10 1.56 1.5
-2 -1 11 -0.08 1.01
-2 -1 11 -0.01 0.97
-2 -1 12 -1.14 1.38
-2 0 -13 1.78 1.49
-2 0 -12 4.53 1.73
-2 0 -12 3.01 1.91
-2 0 -11 0.66 0.92
-2 0 -11 0.28 0.72
-2 0 -10 35.45 3.94
-2 0 -10 40.08 4.89
-2 0 -9 40.94 3.31
-2 0 -9 40.64 3.94
-2 0 -9 39.66 4.59
-2 0 -8 45.15 3.41
-2 0 -8 46.44 3.85
-2 0 -8 48 4.69
-2 0 -7 5.61 1.53
-2 0 -7 4.97 1.04
-2 0 -7 4.11 1.1
-2 0 -6 74.56 4.15
-2 0 -6 81.54 4.17
-2 0 -6 74.21 4.98
-2 0 -5 61.08 4.13
-2 0 -5 60.39 3.11
-2 0 -5 63.89 3.98
-2 0 -5 57.16 3.53
-2 0 -4 77.64 4.47
-2 0 -4 68.11 4.13
-2 0 -4 63 3.66
-2 0 -4 74.77 4.07
-2 0 -4 71.06 3.79
-2 0 -3 43.4 3.04
-2 0 -3 49.47 3.15
-2 0 -3 49.18 3.27
-2 0 -3 45.86 2.86
-2 0 -3 47.18 2.95
-2 0 -2 556.78 9.85
-2 0 -2 596.84 10.41
-2 0 -2 586.14 9.74
-2 0 -2 576.05 9.85
-2 0 -2 582.97 9.23
-2 0 -2 618.74 10.92
-2 0 -1 733.83 9.67
-2 0 -1 771.07 11.87
-2 0 -1 767.49 10.09
-2 0 -1 708.37 6.13
-2 0 -1 722.36 10.83
-2 0 -1 750.15 11.24
-2 0 0 2525.92 15.58
-2 0 0 2603.43 15.61
-2 0 0 2467.65 19.4
-2 0 0 2567.34 21.27
-2 0 1 0.43 0.25
-2 0 1 0.63 0.28
-2 0 1 0.73 0.45
-2 0 1 0.35 0.46
-2 0 1 0.37 0.25
-2 0 1 0.55 0.38
-2 0 1 0.71 0.47
-2 0 2 157.22 4.53
-2 0 2 161.68 3.37
-2 0 2 154.53 5.72
-2 0 2 153.95 5.81
-2 0 2 157.88 3.35
-2 0 3 0.4 0.33
-2 0 3 0.35 0.31
-2 0 3 0.19 0.14
-2 0 3 -0.07 0.32
-2 0 3 -0.19 0.19
-2 0 3 0.24 0.39
-2 0 4 720.01 14.06
-2 0 4 705.38 12.66
-2 0 4 713.62 9.71
-2 0 4 729.1 9.77
-2 0 4 683.42 14.53
-2 0 4 704.93 10.88
-2 0 4 713.62 9.71
-2 0 4 695.82 8.41
-2 0 5 6.73 1.11
-2 0 5 6.52 1.06
-2 0 5 6.16 1.07
-2 0 5 6.77 1.57
-2 0 5 5.96 0.67
-2 0 5 4.98 1.44
-2 0 5 5.65 1.19
-2 0 6 0.88 0.47
-2 0 6 1.09 0.51
-2 0 6 0.89 0.44
-2 0 6 1.56 0.61
-2 0 6 0.65 0.85
-2 0 6 1.19 0.66
-2 0 7 0.12 0.46
-2 0 7 0.02 0.65
-2 0 7 0.47 0.43
-2 0 7 0.3 0.31
-2 0 7 0.08 0.45
-2 0 8 25.01 2.85
-2 0 8 19.92 3.3
-2 0 8 21.41 2.63
-2 0 8 23.34 3.35
-2 0 8 21.71 2.55
-2 0 8 25.15 2.57
-2 0 9 0.14 0.62
-2 0 9 -0.15 0.44
-2 0 9 0.27 0.68
-2 0 9 -0.09 0.58
-2 0 10 5.98 2.11
-2 0 10 8.43 2.32
-2 0 11 3.21 1.54
-2 0 11 3.55 1.48
-2 0 12 1.63 1.16
-2 0 12 -2.36 1.4
-2 1 -12 0.07 0.5
-2 1 -11 2.16 1.17
-2 1 -11 -0.36 1.26
-2 1 -10 24 3.92
-2 1 -10 20.3 2.85
-2 1 -9 84.78 6.85
-2 1 -9 86.66 5.71
-2 1 -8 71.12 4.77
-2 1 -8 68.64 5.8
-2 1 -7 31.3 3.59
-2 1 -7 31.21 2.95
-2 1 -7 30.77 2.81
-2 1 -6 3.37 1.16
-2 1 -6 2.32 0.84
-2 1 -6 2.68 0.77
-2 1 -5 19.25 2.27
-2 1 -5 15.6 1.46
-2 1 -5 18.09 2.25
-2 1 -4 88.59 4.92
-2 1 -4 80.97 4.47
-2 1 -4 78.45 2.86
-2 1 -4 88.39 4.43
-2 1 -3 1.13 0.58
-2 1 -3 0.69 0.59
-2 1 -3 0.84 0.71
-2 1 -3 2.49 0.54
-2 1 -3 1.02 0.61
-2 1 -3 0.75 0.39
-2 1 -2 166.7 6.02
-2 1 -2 182.31 4.84
-2 1 -2 200.18 6.66
-2 1 -2 189.11 6.01
-2 1 -2 164 5.94
-2 1 -2 184.8 5.74
-2 1 -1 170.9 5.02
-2 1 -1 157.13 5.55
-2 1 -1 171.1 5.82
-2 1 -1 161.4 5.71
-2 1 0 108.47 4.7
-2 1 0 105.24 4.63
-2 1 0 112.61 3.39
-2 1 0 114.55 4.58
-2 1 1 89.4 4.49
-2 1 1 98.98 4.51
-2 1 1 97.78 4.55
-2 1 1 97.64 2.32
-2 1 2 -0.13 0.54
-2 1 2 0.22 0.44
-2 1 2 0.97 0.68
-2 1 2 -0.19 0.45
-2 1 2 0.22 0.32
-2 1 2 0.41 0.56
-2 1 2 0.25 0.54
-2 1 3 11.79 1.8
-2 1 3 11.54 1.62
-2 1 3 11.83 1.71
-2 1 3 10.02 1.24
-2 1 3 11.58 1.83
-2 1 3 11.53 1.62
-2 1 3 12.13 1.73
-2 1 4 3.54 0.5
-2 1 4 3.94 1.06
-2 1 4 3.48 0.5
-2 1 4 3.82 0.97
-2 1 4 4.57 1.1
-2 1 4 3.75 0.51
-2 1 4 3.24 0.65
-2 1 4 4.24 1.08
-2 1 4 3.45 0.48
-2 1 4 3.24 0.93
-2 1 5 159.05 4.26
-2 1 5 157.7 4.19
-2 1 5 153.73 6.58
-2 1 5 153.68 4.2
-2 1 5 150.82 7.19
-2 1 5 158.82 6.23
-2 1 5 155.03 6.55
-2 1 6 0.72 0.51
-2 1 6 0.13 0.27
-2 1 6 0.67 0.35
-2 1 6 0.32 0.29
-2 1 6 0.36 0.36
-2 1 6 0.11 0.21
-2 1 6 1.1 0.86
-2 1 7 3.93 1.3
-2 1 7 2.5 0.8
-2 1 7 2.21 0.67
-2 1 7 2.85 0.82
-2 1 7 2.7 1.12
-2 1 7 3.71 1.06
-2 1 7 3.81 1.52
-2 1 8 5.83 1.4
-2 1 8 6.97 1.72
-2 1 8 6.35 1.26
-2 1 8 4.98 1.23
-2 1 8 7.51 2.01
-2 1 8 4.91 1.44
-2 1 9 7.69 1.6
-2 1 9 6.46 1.52
-2 1 9 6.98 1.49
-2 1 9 6.33 1.51
-2 1 9 9.18 2.27
-2 1 9 4.33 1.49
-2 1 10 7.1 2.06
-2 1 10 6.35 2.09
-2 1 11 0.68 0.77
-2 1 11 -0.31 0.62
-2 1 12 0.08 0.8
-2 1 12 -1.31 1.08
-2 1 13 2.12 1.61
-2 2 -12 4.13 1.93
-2 2 -11 -0.24 0.56
-2 2 -10 3.43 1.51
-2 2 -10 2.07 1.12
-2 2 -9 10.18 2.03
-2 2 -9 7.52 2.08
-2 2 -8 80.32 6.24
-2 2 -8 76.8 5.03
-2 2 -7 61.25 4.08
-2 2 -7 53.19 4.74
-2 2 -6 93.72 5.71
-2 2 -6 96.56 4.65
-2 2 -5 104.34 5.5
-2 2 -5 101.29 4.05
-2 2 -5 92.47 4.07
-2 2 -5 102.43 6.17
-2 2 -4 176.6 4.68
-2 2 -4 181.02 7.2
-2 2 -4 172.5 6.33
-2 2 -4 180.03 7.66
-2 2 -4 178.63 5.75
-2 2 -3 154.07 3.6
-2 2 -3 149.76 5.08
-2 2 -3 143.97 6.27
-2 2 -3 139.22 5.29
-2 2 -3 144.79 6.68
-2 2 -2 34.36 2.04
-2 2 -2 39.18 3.05
-2 2 -2 34.42 3.01
-2 2 -2 29.98 2.54
-2 2 -2 34.42 3
-2 2 -1 15.44 1.84
-2 2 -1 14.06 1.87
-2 2 -1 16.24 1.97
-2 2 -1 12.96 1.82
-2 2 0 6.66 1.28
-2 2 0 5.48 1.13
-2 2 0 5.74 1.11
-2 2 0 7.01 1.24
-2 2 0 7.23 1.3
-2 2 1 5.83 1.29
-2 2 1 6.32 1.1
-2 2 1 6.22 1.25
-2 2 1 6.62 1.34
-2 2 1 7.2 1.24
-2 2 2 4.08 1.01
-2 2 2 3.94 1.09
-2 2 2 4.08 1.13
-2 2 2 6.31 1.33
-2 2 2 3.93 1.11
-2 2 3 1.02 0.57
-2 2 3 1.6 0.75
-2 2 3 2.35 0.98
-2 2 3 2.33 0.92
-2 2 3 1.95 0.61
-2 2 4 0.05 0.61
-2 2 4 0.21 0.35
-2 2 4 -0.21 0.29
-2 2 4 0.34 0.26
-2 2 4 -0.01 0.39
-2 2 4 -0.02 0.51
-2 2 5 11.17 1.92
-2 2 5 9.82 1.83
-2 2 5 10.84 1.67
-2 2 5 9.28 0.72
-2 2 5 9.64 0.72
-2 2 5 8.31 0.68
-2 2 5 9.64 1.97
-2 2 5 7.66 1.53
-2 2 6 18.93 1.43
-2 2 6 20.27 2.6
-2 2 6 17.72 2.52
-2 2 6 18.91 2.32
-2 2 6 18.94 1.4
-2 2 6 17.31 1.37
-2 2 6 18.3 2.77
-2 2 6 19.87 2.51
-2 2 7 0.07 0.38
-2 2 7 0.68 0.37
-2 2 7 0.54 0.56
-2 2 7 0.61 0.49
-2 2 7 0.25 0.32
-2 2 7 0.47 0.45
-2 2 7 0.72 0.39
-2 2 7 0.63 0.38
-2 2 8 21.65 3.28
-2 2 8 18.82 2.81
-2 2 8 23.46 2.95
-2 2 8 20.44 2.08
-2 2 8 18.69 2.74
-2 2 8 20.93 2.07
-2 2 9 17.75 2.74
-2 2 9 18.03 3.15
-2 2 9 19.92 2.97
-2 2 9 19.5 2.84
-2 2 10 16.29 2.73
-2 2 10 19.51 3.13
-2 2 10 19.44 3.48
-2 2 10 19.85 3.09
-2 2 11 2.69 1.34
-2 2 11 0.46 0.59
-2 2 12 0.61 0.97
-2 2 13 -0.23 0.64
-2 3 -11 0.07 0.78
-2 3 -10 5.77 2.06
-2 3 -9 14.91 2.67
-2 3 -9 11.27 2.61
-2 3 -8 17.77 2.63
-2 3 -8 12.78 2.56
-2 3 -7 13.65 2
-2 3 -7 15.67 2.65
-2 3 -6 6.13 1.1
-2 3 -6 8.16 1.7
-2 3 -6 6.6 1.31
-2 3 -5 1.69 0.71
-2 3 -5 1.82 0.71
-2 3 -5 2.09 0.86
-2 3 -4 0.13 0.33
-2 3 -4 0.42 0.38
-2 3 -4 -0.09 0.23
-2 3 -3 111.69 5.23
-2 3 -3 109.58 3.78
-2 3 -3 108.51 4.38
-2 3 -3 115.77 6.41
-2 3 -2 95.66 4.93
-2 3 -2 101.32 3.37
-2 3 -2 98.1 5.77
-2 3 -1 26.05 2.68
-2 3 -1 24.67 2.75
-2 3 0 0.17 0.38
-2 3 0 0.61 0.73
-2 3 0 -0.03 0.52
-2 3 0 0.65 0.56
-2 3 1 117.7 5.91
-2 3 1 122.15 6.01
-2 3 1 133.33 6.11
-2 3 1 133.6 5.19
-2 3 2 88.66 5.21
-2 3 2 93.23 5.14
-2 3 2 87.8 5.3
-2 3 2 92.74 5.43
-2 3 2 94.44 4.19
-2 3 3 41.27 3.76
-2 3 3 42.53 3.59
-2 3 3 46.48 3.84
-2 3 3 43.76 3.81
-2 3 4 11.09 1.97
-2 3 4 11.78 2.05
-2 3 4 13.82 2.26
-2 3 4 11.96 1.97
-2 3 4 11.3 2.01
-2 3 5 19.56 2.05
-2 3 5 21.98 2.84
-2 3 5 21.29 2.84
-2 3 5 18.05 2.45
-2 3 5 19.76 2.66
-2 3 5 20.09 2.69
-2 3 6 1.06 0.26
-2 3 6 1.84 1.02
-2 3 6 0.5 0.51
-2 3 6 0.91 0.26
-2 3 6 0.79 0.57
-2 3 6 0.92 0.25
-2 3 6 0.64 0.57
-2 3 6 0.41 0.52
-2 3 7 0.35 0.57
-2 3 7 0.4 0.21
-2 3 7 0.51 0.26
-2 3 7 0.52 0.46
-2 3 7 0.89 0.75
-2 3 7 0.06 0.52
-2 3 7 1.06 0.91
-2 3 7 0.39 0.18
-2 3 8 67.03 5.65
-2 3 8 64.39 5.2
-2 3 8 63.59 4.64
-2 3 8 68.7 5.94
-2 3 8 69.27 5.52
-2 3 9 0.33 0.32
-2 3 9 0.26 0.52
-2 3 9 1.06 0.84
-2 3 9 -0.3 0.36
-2 3 9 -0.07 0.51
-2 3 10 -0.3 0.89
-2 3 10 -0.29 0.4
-2 3 10 -0.75 0.8
-2 3 10 0.41 0.81
-2 3 11 0.17 0.44
-2 3 11 1 0.75
-2 3 11 0.78 1.1
-2 3 12 -0.15 0.73
-2 3 13 1.48 1.31
-2 4 -11 1.09 1.3
-2 4 -10 1.06 0.7
-2 4 -9 2.53 1.36
-2 4 -8 0.64 0.8
-2 4 -7 69.29 5.57
-2 4 -7 70.84 4.9
-2 4 -6 7.53 1.63
-2 4 -6 7.13 1.34
-2 4 -6 7.52 1.75
-2 4 -6 10.39 2.81
-2 4 -5 0.78 0.49
-2 4 -5 0 0.55
-2 4 -5 -0.02 0.26
-2 4 -5 1.52 1.57
-2 4 -4 11.07 2.41
-2 4 -4 8.7 1.61
-2 4 -4 11 1.75
-2 4 -4 7.73 1.42
-2 4 -3 5.16 0.98
-2 4 -3 5.49 1.58
-2 4 -3 5.13 1.2
-2 4 -3 4.79 0.83
-2 4 -2 0.08 0.2
-2 4 -2 0.27 0.75
-2 4 -2 0.51 0.6
-2 4 -1 0.23 0.77
-2 4 -1 0.86 0.83
-2 4 -1 0.15 0.31
-2 4 0 3.74 1.16
-2 4 0 4.24 1.28
-2 4 0 2.35 0.89
-2 4 1 298.24 9.92
-2 4 1 271.47 9.79
-2 4 1 293.79 10.02
-2 4 1 302.55 8.4
-2 4 2 38.06 3.76
-2 4 2 43.28 3.89
-2 4 2 46.09 4.11
-2 4 2 45.45 3.85
-2 4 2 40.72 2.89
-2 4 3 191.15 8.55
-2 4 3 196.97 8.57
-2 4 3 196.55 8.65
-2 4 3 206.54 8.25
-2 4 4 35.99 3.72
-2 4 4 35.25 1.85
-2 4 4 35.17 3.76
-2 4 4 34.16 3.72
-2 4 4 31.5 3.31
-2 4 5 9.57 0.83
-2 4 5 8.6 1.96
-2 4 5 12.92 2.32
-2 4 5 9.52 1.94
-2 4 5 10.54 2.17
-2 4 6 44.45 4.09
-2 4 6 42.02 4.43
-2 4 6 41.27 1.69
-2 4 6 42.6 4.32
-2 4 6 47.03 4.59
-2 4 6 45.65 4.52
-2 4 7 13.78 1.1
-2 4 7 15.02 1.87
-2 4 7 15.61 2.74
-2 4 7 13.37 1.07
-2 4 7 13.7 2.61
-2 4 7 14.82 2.78
-2 4 7 15.7 2.69
-2 4 8 4.28 1.41
-2 4 8 5.48 1.88
-2 4 8 5.02 1.19
-2 4 8 4.34 1.63
-2 4 8 6.92 1.88
-2 4 9 9.49 2.18
-2 4 9 8.28 2.25
-2 4 9 8.38 2.24
-2 4 9 10.44 2.28
-2 4 10 -0.22 0.74
-2 4 10 0.6 0.66
-2 4 10 -1.41 0.96
-2 4 10 1.15 1.14
-2 4 11 0.11 0.6
-2 4 11 -0.8 0.68
-2 4 12 1.18 1.23
-2 4 12 1.71 1.27
-2 4 13 8.27 2.65
-2 5 -9 2.77 1.74
-2 5 -8 2.42 1.74
-2 5 -7 13.9 2.56
-2 5 -7 14.8 3.34
-2 5 -6 2.74 1.13
-2 5 -6 2.56 1.73
-2 5 -5 3.9 1.8
-2 5 -5 1.57 0.74
-2 5 -5 2.47 0.85
-2 5 -5 5.14 1.53
-2 5 -4 25.34 2.99
-2 5 -4 28.86 2.72
-2 5 -4 25.2 2.58
-2 5 -4 31.06 4.18
-2 5 -3 -0.88 1.06
-2 5 -3 0.86 0.49
-2 5 -3 0.28 0.74
-2 5 -3 0.4 0.53
-2 5 -2 20.33 1.53
-2 5 -2 18.09 2.94
-2 5 -2 20.72 2.75
-2 5 -1 6 1.63
-2 5 -1 6.81 1.58
-2 5 -1 6.13 1.59
-2 5 0 25.51 3.12
-2 5 0 24.83 3.17
-2 5 0 23.76 3.06
-2 5 1 6.82 1.65
-2 5 1 9.99 2.03
-2 5 1 9.5 1.96
-2 5 2 28.05 3.45
-2 5 2 32.16 3.71
-2 5 2 33.53 3.56
-2 5 2 33.52 3.8
-2 5 2 30.97 2.7
-2 5 3 21.76 3.12
-2 5 3 23.04 2.13
-2 5 3 20.39 3.04
-2 5 3 23.86 3.31
-2 5 3 23.75 2.92
-2 5 3 23.21 2.14
-2 5 4 18.14 1.72
-2 5 4 17.26 2.79
-2 5 4 17.25 2.84
-2 5 4 18.68 3.01
-2 5 4 16.48 2.57
-2 5 5 0.21 0.45
-2 5 5 0.51 0.62
-2 5 5 0.97 0.88
-2 5 5 0.1 0.33
-2 5 5 0.84 0.37
-2 5 6 12.78 2.26
-2 5 6 11.74 2.5
-2 5 6 10.53 2.27
-2 5 6 10.44 1.09
-2 5 6 8.87 2.23
-2 5 7 29.19 3.84
-2 5 7 30.97 4.09
-2 5 7 30.15 4.15
-2 5 7 32 3.61
-2 5 8 58.96 5.58
-2 5 8 55.72 5.56
-2 5 8 56.54 5.79
-2 5 8 53.96 5.69
-2 5 9 7.13 2.11
-2 5 9 5.81 1.95
-2 5 9 8.14 2.35
-2 5 9 5.94 1.87
-2 5 10 1.77 0.94
-2 5 10 0.26 0.63
-2 5 10 0.78 0.78
-2 5 10 2.67 1.34
-2 5 11 -0.04 0.86
-2 5 11 0.32 0.77
-2 5 11 0.84 0.93
-2 5 11 -0.34 0.49
-2 5 12 -0.12 0.67
-2 5 12 -0.56 0.84
-2 5 12 1.89 1.45
-2 5 13 -1.11 0.9
-2 6 -7 0.2 0.77
-2 6 -6 4.06 1.95
-2 6 -5 1.27 1.29
-2 6 -4 24.61 2.71
-2 6 -4 26.3 3.26
-2 6 -4 32.06 4.53
-2 6 -3 0.62 0.66
-2 6 -3 0.35 0.49
-2 6 -2 48.79 4.64
-2 6 -2 50.2 5.29
-2 6 -1 29.48 3.66
-2 6 -1 27.86 3.7
-2 6 -1 28.41 3.39
-2 6 0 21.54 3.13
-2 6 0 21.62 3.21
-2 6 0 23.6 3.17
-2 6 1 25.89 3.53
-2 6 1 30.28 3.68
-2 6 1 31.1 3.81
-2 6 2 0.56 0.73
-2 6 2 -1.24 0.81
-2 6 2 0.38 0.45
-2 6 2 0.78 0.85
-2 6 3 16.85 2.89
-2 6 3 17.86 2.16
-2 6 3 19.13 3.01
-2 6 3 16.96 2.98
-2 6 3 16.78 2.63
-2 6 3 18.34 2.04
-2 6 4 13.43 2.71
-2 6 4 12.99 1.73
-2 6 4 14.73 2.77
-2 6 4 12.88 2.35
-2 6 4 13.47 2.73
-2 6 5 21.45 3.5
-2 6 5 19.22 3.18
-2 6 5 20.3 2.01
-2 6 5 21.38 3.06
-2 6 5 23.07 3.57
-2 6 6 6.19 1.94
-2 6 6 7.75 2.17
-2 6 6 8.2 2.25
-2 6 6 8.02 1.88
-2 6 7 19.04 3.33
-2 6 7 19.15 3.46
-2 6 7 22.97 3.82
-2 6 7 20.23 3.04
-2 6 8 6.44 2.19
-2 6 8 8.22 2.36
-2 6 8 7.74 2.27
-2 6 9 4.41 1.85
-2 6 9 4.55 1.8
-2 6 9 3.84 1.55
-2 6 10 -0.29 0.72
-2 6 10 0.66 1
-2 6 10 -1.06 1.3
-2 6 11 -0.38 1.05
-2 6 11 2.41 1.53
-2 6 11 1.57 1.35
-2 6 12 1.29 1.23
-2 6 12 -0.13 0.69
-2 7 -6 4.17 1.87
-2 7 -5 2.42 1.4
-2 7 -4 0.97 0.84
-2 7 -4 1.54 1.1
-2 7 -3 9.01 2.25
-2 7 -3 11.28 2.7
-2 7 -2 9.01 2.44
-2 7 -2 13.04 2.59
-2 7 -1 97.63 7.26
-2 7 -1 102.64 7.02
-2 7 -1 106.65 7.92
-2 7 0 13.45 2.55
-2 7 0 11.12 2.46
-2 7 0 12.69 2.58
-2 7 1 49.57 5.13
-2 7 1 45.18 4.76
-2 7 1 46.28 5.03
-2 7 2 9.59 2.31
-2 7 2 10.4 2.35
-2 7 2 9.53 2.29
-2 7 3 0.63 0.49
-2 7 3 0.09 1.07
-2 7 3 0.5 0.97
-2 7 3 -0.13 0.42
-2 7 4 -0.43 1.08
-2 7 4 -0.29 0.72
-2 7 4 1.15 0.71
-2 7 4 2.6 1.18
-2 7 4 0.68 0.62
-2 7 5 3.77 1.68
-2 7 5 4.55 1.72
-2 7 5 2.85 1.43
-2 7 5 3.1 1.4
-2 7 6 -0.55 0.66
-2 7 6 1.51 1.14
-2 7 6 -0.05 0.65
-2 7 6 0.86 0.89
-2 7 7 0.8 1.06
-2 7 7 0.1 0.58
-2 7 7 -0.39 0.84
-2 7 7 0.96 0.76
-2 7 8 -1.23 1.47
-2 7 8 -1 0.84
-2 7 8 0.47 0.75
-2 7 8 0.27 0.94
-2 7 9 1.49 0.91
-2 7 9 0.2 0.63
-2 7 9 0.87 0.81
-2 7 10 1.77 1.62
-2 7 10 0.39 0.6
-2 7 10 0.61 0.71
-2 7 11 -0.76 1.04
-2 7 11 0.95 1.26
-2 7 11 1.54 1.32
-2 8 -4 -0.93 1.08
-2 8 -3 1.42 1.02
-2 8 -3 -0.22 1.16
-2 8 -2 2.01 1.01
-2 8 -2 1.74 1.33
-2 8 -1 2.94 1.48
-2 8 -1 1.71 1
-2 8 -1 3.3 1.31
-2 8 0 6.5 2.17
-2 8 0 7.2 2.01
-2 8 0 7.8 2.25
-2 8 1 0.67 0.85
-2 8 1 0.42 0.85
-2 8 1 -0.41 0.68
-2 8 2 15.29 3.03
-2 8 2 11.98 2.69
-2 8 2 13.54 2.99
-2 8 3 0.91 0.94
-2 8 3 1.7 0.94
-2 8 3 1.22 0.73
-2 8 3 0.33 0.4
-2 8 4 13.51 3.11
-2 8 4 9.48 2.63
-2 8 4 10.72 1.98
-2 8 4 10.5 2.37
-2 8 4 7.9 2.4
-2 8 5 2.42 1.22
-2 8 5 1.93 1.23
-2 8 5 2.39 1.66
-2 8 5 1.89 1.57
-2 8 6 1.27 1.26
-2 8 6 0.23 0.38
-2 8 6 1.59 1.37
-2 8 6 -0.26 1.01
-2 8 7 0.55 0.72
-2 8 7 0.68 0.59
-2 8 7 0.26 0.67
-2 8 7 1.33 0.77
-2 8 8 -0.75 1.05
-2 8 8 0.6 0.94
-2 8 8 0.26 0.59
-2 8 9 0.07 0.82
-2 8 9 -0.42 0.8
-2 8 9 1.59 1.3
-2 8 10 0.12 0.62
-2 8 10 -0.01 0.7
-2 8 11 0.62 1.07
-2 9 -2 0.18 0.8
-2 9 -2 1.18 0.57
-2 9 -1 0.81 1.13
-2 9 -1 0.41 0.78
-2 9 0 0.13 0.9
-2 9 0 0.21 0.7
-2 9 0 -0.72 0.81
-2 9 1 1.13 0.93
-2 9 1 0 0.78
-2 9 1 -1.06 1.29
-2 9 2 0.64 1.38
-2 9 2 0.38 0.62
-2 9 2 -0.04 0.52
-2 9 3 4.67 1.84
-2 9 3 2.64 1.67
-2 9 3 3.68 1.81
-2 9 4 0.98 1.07
-2 9 4 2.09 1.33
-2 9 4 -0.49 0.5
-2 9 4 1.69 1.28
-2 9 5 0.7 0.57
-2 9 5 -0.06 0.39
-2 9 5 0.91 0.79
-2 9 5 -1.04 1.51
-2 9 6 0.33 0.48
-2 9 6 0.37 0.69
-2 9 6 1.36 1.05
-2 9 7 1.25 1
-2 9 7 0.05 0.99
-2 9 7 1.48 1.09
-2 9 8 -1.54 1.19
-2 9 8 0.66 1.08
-2 9 8 0.46 1.01
-2 10 -1 0.29 0.9
-2 10 0 0.23 0.47
-2 10 0 2.74 1.83
-2 10 1 -0.04 0.65
-2 10 1 0.16 1.03
-2 10 1 0.36 0.7
-2 10 2 2.19 1.29
-2 10 2 2.92 1.54
-2 10 2 0.47 0.4
-2 10 3 2.57 1.32
-2 10 3 0.64 0.76
-2 10 3 2.54 1.58
-2 10 4 -1.08 1.05
-2 10 4 1.62 1.26
-2 10 4 1.31 1.38
-2 10 5 0.34 0.62
-2 10 5 0.3 0.57
-2 11 2 2.8 1.75
-2 11 3 -0.48 0.86
-1 -11 -10 2.19 1.29
-1 -11 -9 1.87 1.45
-1 -11 -8 0.58 0.57
-1 -11 -7 -0.86 1.14
-1 -11 -6 3.68 1.72
-1 -11 -5 1.39 1.19
-1 -11 -4 1.79 1.54
-1 -11 -3 1.74 1.15
-1 -11 -2 0.45 1.55
-1 -11 -1 2.28 1.36
-1 -11 0 2.81 1.65
-1 -10 -11 1.71 1.24
-1 -10 -10 2.19 1.62
-1 -10 -9 -0.09 0.72
-1 -10 -8 0.58 0.6
-1 -10 -7 1.03 1.09
-1 -10 -6 0.44 0.64
-1 -10 -5 0.24 0.87
-1 -10 -4 2.44 1.4
-1 -10 -3 5.1 2.03
-1 -10 -2 1.71 1.31
-1 -10 -1 0.08 0.7
-1 -10 0 0.56 0.71
-1 -10 1 0.89 0.65
-1 -10 1 0.16 0.81
-1 -10 2 -0.31 0.56
-1 -10 2 -1.49 1.13
-1 -10 3 2.55 1.28
-1 -10 3 2.56 1.42
-1 -10 4 5.79 2.4
-1 -10 4 4.54 1.78
-1 -9 -13 -1.12 1.19
-1 -9 -12 -0.1 0.7
-1 -9 -11 0.28 0.54
-1 -9 -11 0.37 0.62
-1 -9 -10 1.16 0.99
-1 -9 -10 0.79 0.57
-1 -9 -9 -0.53 0.76
-1 -9 -8 3.14 1.58
-1 -9 -7 2.98 1.37
-1 -9 -6 -0.17 0.81
-1 -9 -5 20.3 3.65
-1 -9 -4 26.35 4.16
-1 -9 -3 8.08 2.25
-1 -9 -2 12.92 2.91
-1 -9 -2 15.38 2.32
-1 -9 -1 0.66 1.02
-1 -9 -1 0.8 0.71
-1 -9 0 -0.11 0.65
-1 -9 0 0.63 0.85
-1 -9 1 1.38 0.72
-1 -9 1 1.75 1.33
-1 -9 2 14.83 3
-1 -9 2 11.18 2.72
-1 -9 3 -0.6 0.47
-1 -9 3 -1.04 1.15
-1 -9 4 4.86 2.1
-1 -9 4 3.3 1.56
-1 -9 4 4.01 2.17
-1 -9 5 1 1.03
-1 -8 -13 4.14 2.02
-1 -8 -12 1.38 0.91
-1 -8 -11 -0.13 0.45
-1 -8 -11 0.4 0.75
-1 -8 -10 0.69 0.72
-1 -8 -10 0.2 0.54
-1 -8 -9 0.09 0.52
-1 -8 -9 0.12 0.6
-1 -8 -8 0.18 0.56
-1 -8 -8 0.01 0.49
-1 -8 -7 7.77 2.1
-1 -8 -6 11.07 2.47
-1 -8 -5 33.45 4.27
-1 -8 -4 20.51 3.41
-1 -8 -4 22.65 1.85
-1 -8 -3 28.4 2.52
-1 -8 -3 30.17 4.07
-1 -8 -2 2.2 0.82
-1 -8 -2 2.26 1.37
-1 -8 -1 0.89 0.7
-1 -8 -1 1 0.81
-1 -8 0 47.84 4.39
-1 -8 0 44.23 4.93
-1 -8 1 36.34 4.12
-1 -8 1 37.51 4.52
-1 -8 2 21.93 3.44
-1 -8 2 22.04 3.58
-1 -8 3 7.23 2.11
-1 -8 3 7.7 2.03
-1 -8 4 8.99 2.51
-1 -8 4 10.84 2.54
-1 -8 5 0.92 1.29
-1 -8 5 2.06 2.01
-1 -8 5 0.18 0.53
-1 -8 6 6.79 2.41
-1 -7 -13 4.73 2.09
-1 -7 -12 1.04 0.98
-1 -7 -11 -0.12 0.49
-1 -7 -11 0.59 0.51
-1 -7 -10 2.41 1.51
-1 -7 -10 1.99 1.07
-1 -7 -9 0.7 0.48
-1 -7 -9 0.86 0.8
-1 -7 -8 34.88 3.98
-1 -7 -8 41.68 4.44
-1 -7 -7 34.6 3.84
-1 -7 -7 34.61 4.05
-1 -7 -6 1.43 0.9
-1 -7 -5 13.54 2.52
-1 -7 -4 7.39 1.91
-1 -7 -3 19.27 2.97
-1 -7 -3 17.89 1.83
-1 -7 -2 18.55 2.11
-1 -7 -2 17.72 2.87
-1 -7 -1 4.51 1.18
-1 -7 -1 5.07 1.54
-1 -7 0 1.92 0.79
-1 -7 0 4.43 1.55
-1 -7 1 27.87 3.38
-1 -7 1 26.18 3.52
-1 -7 2 15.26 2.66
-1 -7 2 12.89 2.45
-1 -7 3 31.52 3.92
-1 -7 3 31.06 4.05
-1 -7 4 5.87 1.9
-1 -7 4 5.78 1.7
-1 -7 5 1.71 1.08
-1 -7 5 1.03 0.5
-1 -7 5 0.87 0.84
-1 -7 6 -0.02 0.49
-1 -7 6 0.25 0.84
-1 -7 7 0.58 0.72
-1 -7 7 0.6 0.82
-1 -6 -13 1.71 1.55
-1 -6 -12 0.45 0.86
-1 -6 -11 -0.29 0.58
-1 -6 -10 35.39 4.45
-1 -6 -10 35.26 3.47
-1 -6 -10 34.83 3.8
-1 -6 -9 -0.98 0.66
-1 -6 -9 0.56 0.69
-1 -6 -8 99.86 6.75
-1 -6 -8 94.79 6.23
-1 -6 -7 12.25 2.17
-1 -6 -7 14 2.37
-1 -6 -6 1.81 0.85
-1 -6 -6 1.46 0.98
-1 -6 -5 13.58 2.08
-1 -6 -5 12.09 2.25
-1 -6 -4 5.63 1.53
-1 -6 -3 2.7 0.66
-1 -6 -3 3.43 1.06
-1 -6 -2 -0.08 0.22
-1 -6 -2 1.51 0.86
-1 -6 -1 24.56 2.49
-1 -6 -1 20.53 2.85
-1 -6 0 0.32 0.26
-1 -6 0 -0.18 0.39
-1 -6 0 0.38 0.4
-1 -6 1 0.69 0.67
-1 -6 1 1.27 0.51
-1 -6 1 1.21 0.7
-1 -6 2 0.58 0.44
-1 -6 2 0.55 0.42
-1 -6 2 0.33 0.43
-1 -6 3 4.24 1.34
-1 -6 3 4.02 0.97
-1 -6 3 2.95 1.22
-1 -6 4 5.02 1.74
-1 -6 4 4.78 1.34
-1 -6 5 95.1 7.65
-1 -6 5 86.52 7.39
-1 -6 5 90.27 6.1
-1 -6 6 8.02 1.77
-1 -6 6 6.77 2.08
-1 -6 6 8.29 2.28
-1 -6 7 -0.63 0.87
-1 -6 7 0.3 0.76
-1 -6 8 1.51 1.19
-1 -6 8 1.47 2.08
-1 -6 8 0.3 0.81
-1 -5 -13 2.59 1.79
-1 -5 -12 0.28 0.57
-1 -5 -11 15.78 3.26
-1 -5 -10 1.22 0.87
-1 -5 -10 0.3 0.45
-1 -5 -9 25.94 3.59
-1 -5 -9 22.75 2.59
-1 -5 -8 3.37 1.13
-1 -5 -8 2.99 0.87
-1 -5 -8 3.63 1.09
-1 -5 -8 4.02 0.71
-1 -5 -8 3.9 0.7
-1 -5 -7 57 4.41
-1 -5 -7 58.66 4.71
-1 -5 -7 61.64 3.81
-1 -5 -7 57.14 2.3
-1 -5 -6 4.28 0.94
-1 -5 -6 3.77 1.22
-1 -5 -6 4.98 1.37
-1 -5 -5 154.52 7.07
-1 -5 -5 147.62 6.6
-1 -5 -5 154.74 5.61
-1 -5 -4 13.53 1.87
-1 -5 -4 13.16 2.05
-1 -5 -3 44.79 2.27
-1 -5 -3 47.24 3.85
-1 -5 -2 9.6 1.23
-1 -5 -2 9.29 1.69
-1 -5 -2 11.46 1.72
-1 -5 -1 102.86 4.87
-1 -5 -1 92.77 5.42
-1 -5 -1 90.99 4.34
-1 -5 0 10.75 1.69
-1 -5 0 8.81 1.73
-1 -5 0 10.68 1.44
-1 -5 1 279.91 9.45
-1 -5 1 278.13 9.31
-1 -5 1 285.84 7.32
-1 -5 2 48.07 4.23
-1 -5 2 44.25 3.75
-1 -5 2 48.04 2.83
-1 -5 3 5.54 1.29
-1 -5 3 6.67 0.99
-1 -5 3 5.18 1.49
-1 -5 4 12.22 2.42
-1 -5 4 13.14 2.07
-1 -5 4 11.39 1.26
-1 -5 5 9.87 1.81
-1 -5 5 10.97 2.49
-1 -5 5 7.86 2
-1 -5 6 2.79 0.94
-1 -5 6 1.45 1.34
-1 -5 6 3.29 1.39
-1 -5 7 0.59 1.03
-1 -5 7 0.16 0.52
-1 -5 8 2.18 1.59
-1 -5 8 1.18 0.98
-1 -5 8 3.1 1.78
-1 -5 9 4.56 1.89
-1 -5 9 3.52 1.79
-1 -5 9 4.24 1.86
-1 -4 -14 -1.58 1.55
-1 -4 -13 0.83 0.92
-1 -4 -12 3.3 1.71
-1 -4 -11 -1.02 1.16
-1 -4 -10 -0.08 0.34
-1 -4 -10 -0.45 0.89
-1 -4 -9 18.99 3.01
-1 -4 -9 20.66 2.19
-1 -4 -9 20.61 2.22
-1 -4 -9 18.83 1.94
-1 -4 -8 17.65 1.83
-1 -4 -8 17.22 2.73
-1 -4 -8 15.17 1.89
-1 -4 -8 17.69 2.07
-1 -4 -8 15.32 1.55
-1 -4 -7 23.13 1.61
-1 -4 -7 22.73 2.2
-1 -4 -7 22.6 2.9
-1 -4 -7 23.89 2.54
-1 -4 -7 22.98 1.82
-1 -4 -6 14.08 1.02
-1 -4 -6 14.2 2.04
-1 -4 -6 15.41 2.25
-1 -4 -6 15.79 1.67
-1 -4 -6 14.85 1.3
-1 -4 -5 59.51 4.04
-1 -4 -5 58.62 3.93
-1 -4 -5 57.72 1.76
-1 -4 -5 60.24 3.05
-1 -4 -5 59.14 3.94
-1 -4 -5 59.33 4
-1 -4 -4 19.77 2.23
-1 -4 -4 19.45 2.14
-1 -4 -4 21.2 2.34
-1 -4 -4 21.19 1.75
-1 -4 -4 21.59 2.37
-1 -4 -3 197.13 7.03
-1 -4 -3 199.26 6.78
-1 -4 -3 194.84 6.98
-1 -4 -3 186.71 6.78
-1 -4 -3 200.94 6.77
-1 -4 -2 164.74 5.96
-1 -4 -2 162.77 6.17
-1 -4 -2 165.46 6.19
-1 -4 -2 148.14 4.32
-1 -4 -2 149.59 6.18
-1 -4 -2 167.24 6.2
-1 -4 -1 13.79 1.5
-1 -4 -1 13.82 1.57
-1 -4 -1 12.71 1.75
-1 -4 -1 12.17 1.74
-1 -4 -1 13.39 1.89
-1 -4 -1 14.53 1.87
-1 -4 0 16.58 2.04
-1 -4 0 15.47 2
-1 -4 0 16.31 1.55
-1 -4 0 15.35 2
-1 -4 0 15.96 1.84
-1 -4 0 17.33 2.13
-1 -4 1 116.04 5.37
-1 -4 1 118.94 5.5
-1 -4 1 121.04 4.05
-1 -4 2 43.11 3.65
-1 -4 2 40.59 3.17
-1 -4 2 42.36 2.2
-1 -4 3 50.28 4.24
-1 -4 3 50.06 3.52
-1 -4 3 49.84 2.27
-1 -4 4 41.94 3.24
-1 -4 4 41.1 4.19
-1 -4 4 42.32 2.05
-1 -4 5 1.65 0.5
-1 -4 5 0.53 0.24
-1 -4 5 0.44 0.68
-1 -4 5 0.87 0.73
-1 -4 5 0.86 0.66
-1 -4 6 209.45 10.73
-1 -4 6 210.57 7.25
-1 -4 6 204.17 10.08
-1 -4 7 5.12 1.84
-1 -4 7 3.74 1.52
-1 -4 7 7.52 2.35
-1 -4 8 3.26 1.44
-1 -4 8 2.18 1.28
-1 -4 8 2.84 1.6
-1 -4 9 0.43 0.94
-1 -4 9 -0.33 0.98
-1 -4 9 0.23 1.27
-1 -4 10 17.82 4.02
-1 -4 10 17.78 3.68
-1 -4 10 19.24 3.91
-1 -3 -14 -0.12 1.12
-1 -3 -13 0.07 0.59
-1 -3 -13 -1.15 0.83
-1 -3 -12 -0.08 0.94
-1 -3 -12 -0.82 1.18
-1 -3 -11 3.94 1.52
-1 -3 -10 5.34 1.81
-1 -3 -9 1.38 0.8
-1 -3 -9 0.67 0.31
-1 -3 -8 1.47 0.56
-1 -3 -8 2.78 1.16
-1 -3 -8 2.19 0.58
-1 -3 -7 4.54 1.33
-1 -3 -7 5.33 1
-1 -3 -7 6.95 1.17
-1 -3 -7 6.05 1.13
-1 -3 -6 40.07 3.62
-1 -3 -6 44.97 2.66
-1 -3 -6 45.19 2.71
-1 -3 -6 44.61 2.87
-1 -3 -6 46.24 2.22
-1 -3 -5 170.76 5.96
-1 -3 -5 155.36 6.5
-1 -3 -5 178.81 6.5
-1 -3 -5 167.89 6.31
-1 -3 -5 173.18 4.66
-1 -3 -5 161.34 3.16
-1 -3 -5 165.43 4.46
-1 -3 -4 14.83 1.85
-1 -3 -4 17.07 1.98
-1 -3 -4 18.06 2
-1 -3 -4 16.36 1.27
-1 -3 -4 15.78 1.77
-1 -3 -4 14.78 1.21
-1 -3 -4 16.16 1.84
-1 -3 -3 59.93 3.37
-1 -3 -3 63.22 3.49
-1 -3 -3 59.64 3.4
-1 -3 -3 60.09 3.52
-1 -3 -3 59.21 3.34
-1 -3 -2 4.19 0.83
-1 -3 -2 4.41 0.7
-1 -3 -2 4.35 0.94
-1 -3 -2 4.43 0.9
-1 -3 -2 4.53 0.94
-1 -3 -2 3.53 0.86
-1 -3 -1 92.61 3.6
-1 -3 -1 85.97 3.31
-1 -3 -1 92.92 4.13
-1 -3 -1 95.49 4.16
-1 -3 -1 87.06 4.02
-1 -3 -1 87.25 3.9
-1 -3 0 457.26 9.51
-1 -3 0 426.11 8.43
-1 -3 0 437.91 9.36
-1 -3 0 421.91 8.87
-1 -3 0 414.9 8.88
-1 -3 0 451.09 6.94
-1 -3 1 7.62 1.37
-1 -3 1 7.48 1.26
-1 -3 1 8.26 1.34
-1 -3 1 11.88 1.75
-1 -3 1 7.91 1.22
-1 -3 1 8.75 0.82
-1 -3 2 1.09 0.55
-1 -3 2 2.25 0.75
-1 -3 2 2 0.39
-1 -3 2 2.75 0.92
-1 -3 2 0.4 0.52
-1 -3 2 2.21 0.64
-1 -3 3 0.05 0.43
-1 -3 3 0.02 0.07
-1 -3 3 0.34 0.37
-1 -3 4 98.28 6.02
-1 -3 4 94.67 2.54
-1 -3 4 99.48 4.23
-1 -3 4 89.25 2.48
-1 -3 5 -0.52 0.37
-1 -3 5 -0.07 0.14
-1 -3 5 -0.24 0.54
-1 -3 5 -0.19 0.32
-1 -3 6 58.16 4.95
-1 -3 6 58.2 5.34
-1 -3 6 57.14 3.31
-1 -3 6 55.88 2.43
-1 -3 6 56.27 5.12
-1 -3 6 57.82 3.13
-1 -3 7 158.25 9.21
-1 -3 7 162.52 8.83
-1 -3 7 160.67 9.49
-1 -3 7 177.77 5.22
-1 -3 8 18.86 3.17
-1 -3 8 17.96 3.26
-1 -3 8 19.98 3.57
-1 -3 9 0.27 0.61
-1 -3 9 0.37 0.48
-1 -3 9 -1.54 1.68
-1 -3 10 0.9 0.97
-1 -3 10 0.42 0.81
-1 -3 10 -0.78 1.1
-1 -3 11 8.02 2.72
-1 -3 11 11.44 2.93
-1 -3 11 9.77 2.66
-1 -3 11 8.25 2.44
-1 -2 -14 0.95 1.19
-1 -2 -13 -0.03 0.87
-1 -2 -13 0.88 0.85
-1 -2 -12 -0.29 0.42
-1 -2 -12 0.37 0.62
-1 -2 -11 7.54 2.1
-1 -2 -11 5.82 2.09
-1 -2 -10 29.85 4.16
-1 -2 -9 22.08 1.73
-1 -2 -9 22.45 3.44
-1 -2 -8 12.87 1.35
-1 -2 -8 13 2.41
-1 -2 -7 3.69 1
-1 -2 -7 2.83 0.67
-1 -2 -7 3.34 1.19
-1 -2 -6 15.26 1.8
-1 -2 -6 14.52 1.47
-1 -2 -6 14.33 2.16
-1 -2 -5 79.82 4.23
-1 -2 -5 77.96 4.25
-1 -2 -5 78.99 3.59
-1 -2 -5 85.38 3.24
-1 -2 -5 75.74 4.48
-1 -2 -5 79.76 4.53
-1 -2 -5 76.86 3.31
-1 -2 -4 0.05 0.32
-1 -2 -4 1.48 0.89
-1 -2 -4 1.07 0.5
-1 -2 -4 0.52 0.2
-1 -2 -4 0.82 0.5
-1 -2 -4 0.83 0.35
-1 -2 -4 1.24 0.47
-1 -2 -3 365.2 7.89
-1 -2 -3 387.04 7.88
-1 -2 -3 367.74 4.27
-1 -2 -3 365.79 7.37
-1 -2 -3 371.46 7.9
-1 -2 -3 385.43 8.15
-1 -2 -3 381.52 6.01
-1 -2 -2 59.13 2.82
-1 -2 -2 56.44 2.81
-1 -2 -2 58.49 2.82
-1 -2 -2 59.76 2.9
-1 -2 -2 57.61 2.87
-1 -2 -2 58.09 2.72
-1 -2 -1 717.03 8.56
-1 -2 -1 718.23 9.64
-1 -2 -1 726.01 9.71
-1 -2 -1 701.6 9.61
-1 -2 -1 742.35 9.58
-1 -2 -1 712.18 8.39
-1 -2 0 744.25 7.02
-1 -2 0 720.89 9.92
-1 -2 0 700.66 9.89
-1 -2 0 706.52 9.46
-1 -2 0 692 9.38
-1 -2 0 684.93 9.71
-1 -2 1 1035.76 13.17
-1 -2 1 1085.81 13.24
-1 -2 1 1024.92 11.13
-1 -2 1 1026.51 12.7
-1 -2 1 1068.62 12.88
-1 -2 2 29.92 2.53
-1 -2 2 30.29 2.32
-1 -2 2 32.76 2.5
-1 -2 2 32.89 1.96
-1 -2 3 75.16 4.46
-1 -2 3 77.12 4.39
-1 -2 3 80.2 4.3
-1 -2 3 80.36 3.05
-1 -2 4 27.32 1.33
-1 -2 4 29.66 3.2
-1 -2 4 27.48 2.99
-1 -2 4 29.19 1.78
-1 -2 4 28.43 2.72
-1 -2 5 91.86 5.33
-1 -2 5 89.93 5.71
-1 -2 5 96.15 3.15
-1 -2 5 90.09 5.75
-1 -2 5 92.98 2.99
-1 -2 6 14.27 2.26
-1 -2 6 15.01 2.59
-1 -2 6 14.9 1.33
-1 -2 6 14.25 1.32
-1 -2 6 13.73 2.43
-1 -2 6 14.43 1.14
-1 -2 7 17.99 2.88
-1 -2 7 17.5 2.92
-1 -2 7 18.63 2.76
-1 -2 7 19.39 1.73
-1 -2 8 10.82 2.56
-1 -2 8 11.13 2.28
-1 -2 8 11.9 2.49
-1 -2 9 4.79 1.79
-1 -2 9 5.57 1.59
-1 -2 9 6.05 1.89
-1 -2 10 -0.17 0.53
-1 -2 10 1.09 0.93
-1 -2 10 -0.7 0.73
-1 -2 10 -0.96 1.47
-1 -2 11 4.87 1.95
-1 -2 11 1.24 0.86
-1 -2 11 4.29 1.87
-1 -2 11 0.98 0.72
-1 -2 12 11.27 2.88
-1 -2 12 12.95 3.18
-1 -2 12 12.55 3.24
-1 -1 -14 5.23 2.17
-1 -1 -13 0.79 0.95
-1 -1 -13 1.37 1.28
-1 -1 -12 -0.15 1.03
-1 -1 -12 -0.69 0.52
-1 -1 -11 3.27 1.47
-1 -1 -11 1 0.54
-1 -1 -10 7.39 2.2
-1 -1 -10 6.89 1.77
-1 -1 -9 0.14 0.16
-1 -1 -9 0.02 0.7
-1 -1 -9 0.61 0.51
-1 -1 -8 22.84 3.27
-1 -1 -8 23.51 1.78
-1 -1 -8 21.62 2.83
-1 -1 -7 76.51 5.45
-1 -1 -7 76.23 3.19
-1 -1 -6 166.45 4.63
-1 -1 -6 172.67 7.41
-1 -1 -6 169.87 6.6
-1 -1 -5 0.58 0.46
-1 -1 -5 2.07 0.79
-1 -1 -5 1.04 0.68
-1 -1 -5 0.79 0.4
-1 -1 -4 97.61 3.98
-1 -1 -4 92.11 3.26
-1 -1 -4 106.45 4.61
-1 -1 -4 106.68 4.6
-1 -1 -4 96.81 4.48
-1 -1 -3 72.56 3.4
-1 -1 -3 70.72 2.74
-1 -1 -3 71.46 2.99
-1 -1 -3 76.14 3.38
-1 -1 -3 78.28 3.44
-1 -1 -2 507.67 7.83
-1 -1 -2 561.75 8.1
-1 -1 -2 527.07 7.87
-1 -1 -2 538.76 7.26
-1 -1 -2 534.54 4.82
-1 -1 -2 533.2 7.11
-1 -1 -1 215.99 3.32
-1 -1 -1 226.69 4.58
-1 -1 -1 214.43 3.91
-1 -1 -1 209.54 4.33
-1 -1 0 230.79 4.35
-1 -1 0 232.5 4.78
-1 -1 0 231.23 4.34
-1 -1 0 225.92 4.35
-1 -1 0 225.41 4.11
-1 -1 0 234.67 4.59
-1 -1 1 261.21 4.98
-1 -1 1 263.02 4.99
-1 -1 1 238.08 5.34
-1 -1 1 246.28 5.7
-1 -1 1 261.99 5.64
-1 -1 1 251.33 4.3
-1 -1 2 86.79 3.91
-1 -1 2 88.46 2.35
-1 -1 2 89.95 3.35
-1 -1 2 92.05 3.92
-1 -1 2 82.85 3.73
-1 -1 3 4.18 0.91
-1 -1 3 5.57 0.99
-1 -1 3 3.58 0.9
-1 -1 3 4.51 0.5
-1 -1 3 5.02 0.54
-1 -1 3 4.77 1.06
-1 -1 4 236.66 7.96
-1 -1 4 229.37 6.89
-1 -1 4 238.63 7.07
-1 -1 4 233.45 4.65
-1 -1 4 231.62 7.82
-1 -1 4 232.21 4.55
-1 -1 5 13.01 1.75
-1 -1 5 12.55 0.83
-1 -1 5 14 2.1
-1 -1 5 14.72 1.95
-1 -1 5 13.09 0.84
-1 -1 5 14.17 1.23
-1 -1 5 15.46 2.22
-1 -1 5 14.73 1.35
-1 -1 6 138.58 4.11
-1 -1 6 131.52 7.05
-1 -1 6 139.08 7.27
-1 -1 6 141.86 6.47
-1 -1 6 137.44 4.67
-1 -1 7 34.63 3.86
-1 -1 7 35.36 2.19
-1 -1 7 33.44 3.78
-1 -1 7 37.13 3.57
-1 -1 7 34.61 2.56
-1 -1 8 20.23 2.87
-1 -1 8 18 1.62
-1 -1 8 19.22 2.93
-1 -1 8 18.89 3.1
-1 -1 8 18.44 1.99
-1 -1 9 6.95 1.97
-1 -1 9 6.37 1.75
-1 -1 9 7.51 2.02
-1 -1 9 7.72 2.18
-1 -1 10 6.56 1.83
-1 -1 10 3.87 1.58
-1 -1 10 5.81 1.87
-1 -1 10 5.62 1.71
-1 -1 11 0.72 1.22
-1 -1 11 -0.06 0.6
-1 -1 11 0.07 0.7
-1 -1 11 0.78 0.68
-1 -1 12 0.45 0.68
-1 -1 12 -0.01 0.63
-1 -1 12 1.59 0.83
-1 -1 12 1.74 1.15
-1 0 -14 -1.59 2.35
-1 0 -13 1.48 0.92
-1 0 -12 2.42 1.63
-1 0 -12 4.65 1.91
-1 0 -11 4.99 2.07
-1 0 -11 2.67 1.27
-1 0 -10 7.8 2.11
-1 0 -10 8.98 2.12
-1 0 -9 22 3.13
-1 0 -9 21.31 3.36
-1 0 -8 15.27 2.73
-1 0 -8 20.83 2.77
-1 0 -7 124.14 7.03
-1 0 -7 125.58 6.33
-1 0 -7 120.53 4.29
-1 0 -6 8.8 1.13
-1 0 -6 7.97 1.41
-1 0 -6 9.87 1.78
-1 0 -5 391.82 10.05
-1 0 -5 379.81 10.2
-1 0 -5 368.17 7.11
-1 0 -5 383.93 8.92
-1 0 -4 4.66 1.03
-1 0 -4 3.7 0.83
-1 0 -4 4.81 0.77
-1 0 -4 4.07 0.88
-1 0 -3 181.54 5.46
-1 0 -3 158.89 5.18
-1 0 -3 165.02 4.33
-1 0 -3 179.09 5.34
-1 0 -2 600.87 7.75
-1 0 -2 613.15 8.21
-1 0 -2 622.05 8.87
-1 0 -2 581.44 7.63
-1 0 -1 38.72 1.81
-1 0 -1 38.36 1.67
-1 0 -1 41.37 1.91
-1 0 -1 39.09 1.85
-1 0 -1 36.92 1.9
-1 0 -1 38.93 1.79
-1 0 0 131.42 3.14
-1 0 0 125.09 2.41
-1 0 0 126.58 2.46
-1 0 0 119.5 2.93
-1 0 0 134.43 2.54
-1 0 0 121.29 3.2
-1 0 1 650.94 6.82
-1 0 1 621.63 8.21
-1 0 1 646.38 8.02
-1 0 1 647.47 6.47
-1 0 1 665.32 8.49
-1 0 1 680.03 8
-1 0 2 0.77 0.41
-1 0 2 0.43 0.19
-1 0 2 0.56 0.18
-1 0 2 0.96 0.59
-1 0 2 1.17 0.47
-1 0 2 0.95 0.31
-1 0 3 76.14 2.87
-1 0 3 75.89 2.87
-1 0 3 73.64 3.03
-1 0 3 75.72 3.62
-1 0 3 75.84 3.85
-1 0 3 79.3 2.84
-1 0 4 23.8 1.84
-1 0 4 22.65 2.3
-1 0 4 23.24 1.89
-1 0 4 24.5 1.99
-1 0 4 23.13 2.36
-1 0 4 24.31 1.78
-1 0 5 184.41 7.26
-1 0 5 191.51 7.48
-1 0 5 192.4 6.16
-1 0 5 199.74 6.34
-1 0 5 185.97 5.52
-1 0 5 188.33 5.53
-1 0 6 67.4 3.54
-1 0 6 64.12 4.65
-1 0 6 67.92 4.09
-1 0 6 67.66 4.11
-1 0 6 66.71 4.75
-1 0 6 66.52 3.6
-1 0 7 46.57 3.71
-1 0 7 43.21 2.98
-1 0 7 46.41 4.24
-1 0 7 47.14 4.42
-1 0 7 47.05 3.83
-1 0 7 47.1 3.28
-1 0 8 2.79 0.95
-1 0 8 2.66 1.1
-1 0 8 3.49 1.13
-1 0 8 3.06 0.84
-1 0 8 2.52 0.99
-1 0 8 1.87 0.99
-1 0 9 -0.17 0.47
-1 0 9 0.83 0.9
-1 0 9 0.7 0.66
-1 0 9 -0.43 0.74
-1 0 9 0.78 0.65
-1 0 9 0.22 0.21
-1 0 10 -0.24 0.76
-1 0 10 0.21 0.55
-1 0 10 0.62 0.64
-1 0 10 -0.59 0.8
-1 0 11 0.14 0.56
-1 0 11 0.49 0.41
-1 0 11 1.69 1.17
-1 0 11 0.12 0.51
-1 0 12 2.08 1.28
-1 0 12 3.66 1.76
-1 0 13 3.9 1.56
-1 0 13 6.53 2.41
-1 1 -13 10.72 2.82
-1 1 -12 4.43 1.95
-1 1 -12 0.69 1.12
-1 1 -11 0.42 0.75
-1 1 -11 -0.63 1.62
-1 1 -10 -2.53 1.72
-1 1 -10 0.39 0.76
-1 1 -9 7.64 2.12
-1 1 -9 10.61 2.21
-1 1 -8 26.72 3.2
-1 1 -8 26.05 3.56
-1 1 -7 41.44 4.08
-1 1 -7 36.39 3.4
-1 1 -6 33.89 3.42
-1 1 -6 33.17 2.97
-1 1 -5 3.91 1.02
-1 1 -5 5.15 1.07
-1 1 -4 55.22 3.75
-1 1 -4 54.92 3.51
-1 1 -4 55.41 3
-1 1 -4 51.66 3.61
-1 1 -4 51.67 2.9
-1 1 -3 5.7 1.11
-1 1 -3 5.46 0.68
-1 1 -3 5.54 1.07
-1 1 -3 4.14 0.96
-1 1 -3 5.42 0.96
-1 1 -3 3.51 0.4
-1 1 -2 860.8 9.75
-1 1 -2 862.51 11.95
-1 1 -2 856.54 8.7
-1 1 -2 896.38 11.94
-1 1 -2 795.26 10.47
-1 1 -1 478.74 5.39
-1 1 -1 510.79 7.57
-1 1 -1 500.84 7.95
-1 1 -1 508.18 7.11
-1 1 -1 483.48 7.93
-1 1 0 1174.17 9.16
-1 1 0 1240.7 11.76
-1 1 0 1249.02 11.9
-1 1 0 1203.03 11.76
-1 1 0 1191.45 10.79
-1 1 1 91.29 3.47
-1 1 1 99.87 3.55
-1 1 1 96.61 3.07
-1 1 1 100.48 3.5
-1 1 1 99.71 3.48
-1 1 1 96.53 3.43
-1 1 2 448.47 8.1
-1 1 2 441.24 6.87
-1 1 2 465.36 8.44
-1 1 2 457.65 7.83
-1 1 2 465.3 8.03
-1 1 2 469.29 8.19
-1 1 3 19.09 1.76
-1 1 3 20.81 1.15
-1 1 3 20.21 1.67
-1 1 3 21.61 1.16
-1 1 3 21.01 1.99
-1 1 3 20.35 1.82
-1 1 3 22.67 1.85
-1 1 4 64.31 3.54
-1 1 4 68.19 3.52
-1 1 4 68.89 2.8
-1 1 4 63.02 3.34
-1 1 4 69.38 3.97
-1 1 4 62.96 2.64
-1 1 4 68.26 3.48
-1 1 5 4.68 0.97
-1 1 5 5.97 0.99
-1 1 5 5.45 1.12
-1 1 5 5.02 1.05
-1 1 5 5.44 0.99
-1 1 5 7.37 1.45
-1 1 5 6.32 1.14
-1 1 6 2.37 0.75
-1 1 6 2.15 0.76
-1 1 6 2.11 0.69
-1 1 6 2.78 0.75
-1 1 6 3.96 1.13
-1 1 6 2.62 0.8
-1 1 7 4.24 1.17
-1 1 7 5.88 1.29
-1 1 7 3.91 0.98
-1 1 7 5.26 1.2
-1 1 7 4.47 1.12
-1 1 7 4.38 1.26
-1 1 8 10.93 1.83
-1 1 8 10.04 1.7
-1 1 8 10.06 2.09
-1 1 8 9.41 1.72
-1 1 8 9.67 1.77
-1 1 8 9.8 2.02
-1 1 9 28.51 3.63
-1 1 9 33.11 3.48
-1 1 9 31.26 3.34
-1 1 9 30.74 3.12
-1 1 9 36.04 4.16
-1 1 9 31.95 3.32
-1 1 10 10.03 2.27
-1 1 10 13.12 2.29
-1 1 10 11.74 2.21
-1 1 10 15.23 2.89
-1 1 10 12.39 2.16
-1 1 10 12.12 2.03
-1 1 11 1.1 0.97
-1 1 11 2.26 1.09
-1 1 11 0.68 0.6
-1 1 11 3.34 1.5
-1 1 12 0.47 0.95
-1 1 12 -0.8 1.02
-1 1 13 1.59 1.03
-1 1 13 3.89 1.95
-1 2 -12 6.21 2.06
-1 2 -12 8.57 2.45
-1 2 -11 1.63 1.22
-1 2 -11 0.45 0.79
-1 2 -10 0.82 0.54
-1 2 -10 0.07 0.79
-1 2 -9 20.71 3.52
-1 2 -9 17.77 2.77
-1 2 -8 159.01 9.08
-1 2 -8 159.44 7.91
-1 2 -7 81.32 5.25
-1 2 -7 81.75 5.95
-1 2 -6 3.93 1.13
-1 2 -6 4.48 1.25
-1 2 -5 174.23 3.88
-1 2 -5 185.96 7.49
-1 2 -5 170.75 6.25
-1 2 -4 1.29 0.36
-1 2 -4 3.34 0.94
-1 2 -4 2.4 0.84
-1 2 -3 0.38 0.29
-1 2 -3 0.7 0.41
-1 2 -2 40.28 2.96
-1 2 -2 38.43 2.28
-1 2 -2 35.89 2.09
-1 2 -2 35.84 1.94
-1 2 -1 241.65 6.82
-1 2 -1 274.85 6.76
-1 2 -1 252.49 6.22
-1 2 -1 264.5 4.81
-1 2 -1 254.03 6.06
-1 2 -1 262.59 4.13
-1 2 0 130.53 4.61
-1 2 0 133.72 4.15
-1 2 0 137.72 4.77
-1 2 0 121.26 4.35
-1 2 1 10.53 1.36
-1 2 1 10.9 0.96
-1 2 1 10.92 1.38
-1 2 1 10.72 1.28
-1 2 1 9.41 1
-1 2 1 10.23 1.35
-1 2 2 21.61 1.91
-1 2 2 21.41 1.1
-1 2 2 23.35 2.12
-1 2 2 20.95 1.96
-1 2 2 20.59 1.97
-1 2 2 18.85 1.98
-1 2 3 5.39 0.77
-1 2 3 5.39 0.91
-1 2 3 5.04 0.96
-1 2 3 5.32 0.57
-1 2 3 6.92 1.19
-1 2 3 4.26 0.98
-1 2 3 5.1 0.56
-1 2 3 3.83 0.84
-1 2 3 5.37 1.02
-1 2 4 133.43 3.45
-1 2 4 131.61 3.44
-1 2 4 132.46 5.62
-1 2 4 130.15 5.54
-1 2 4 129.18 5.48
-1 2 4 122.11 5.13
-1 2 4 129.9 4.23
-1 2 4 136.76 5.33
-1 2 5 105.26 4.4
-1 2 5 99.38 4.74
-1 2 5 106.67 3.71
-1 2 5 105.45 3.75
-1 2 5 100.17 5.18
-1 2 5 96.79 5.11
-1 2 5 100.48 5.05
-1 2 6 2.09 0.78
-1 2 6 2.11 0.69
-1 2 6 2.26 0.7
-1 2 6 1.66 0.53
-1 2 6 2.49 0.91
-1 2 6 2.99 0.98
-1 2 6 1.72 0.74
-1 2 7 8.39 1.36
-1 2 7 8.23 1.56
-1 2 7 9.25 1.47
-1 2 7 7.6 1.63
-1 2 7 8.95 1.79
-1 2 7 8.37 1.51
-1 2 7 9.32 1.75
-1 2 8 -0.06 0.27
-1 2 8 0.15 0.35
-1 2 8 0.15 0.48
-1 2 8 -0.03 0.32
-1 2 8 -0.14 0.45
-1 2 8 -0.48 0.61
-1 2 8 0.02 0.29
-1 2 9 24.37 2.82
-1 2 9 28.1 3.25
-1 2 9 26.27 3.23
-1 2 9 26.87 2.97
-1 2 9 21.46 3.15
-1 2 9 25.38 3.13
-1 2 10 1.75 0.76
-1 2 10 2.12 1.03
-1 2 10 1.52 0.81
-1 2 10 2.92 1.11
-1 2 10 3.29 1.27
-1 2 10 2.43 1.14
-1 2 11 1.11 1.1
-1 2 11 0.67 0.9
-1 2 11 -0.37 0.58
-1 2 12 0.57 0.87
-1 2 12 -0.11 0.68
-1 2 13 2.11 1.32
-1 2 14 4.99 1.97
-1 3 -11 21.74 4.15
-1 3 -11 24.89 3.93
-1 3 -10 2.87 1.6
-1 3 -10 0.76 0.9
-1 3 -9 5.22 1.79
-1 3 -9 3.84 1.35
-1 3 -8 7.25 2.17
-1 3 -8 3.46 1.42
-1 3 -7 202.8 9.67
-1 3 -7 195.96 8.46
-1 3 -6 5.05 0.8
-1 3 -6 7.64 1.76
-1 3 -6 5.1 1.56
-1 3 -5 42.36 2.51
-1 3 -5 43.99 3.8
-1 3 -5 46.21 3.53
-1 3 -4 54.97 3.05
-1 3 -4 55.68 3.82
-1 3 -4 54.04 3.5
-1 3 -3 44.46 2.98
-1 3 -3 43.5 2.88
-1 3 -3 40.23 2.73
-1 3 -2 208.96 5.47
-1 3 -2 203.09 6.3
-1 3 -2 222.9 5.85
-1 3 -1 25.72 2.35
-1 3 -1 26.34 2.64
-1 3 -1 28 2.47
-1 3 -1 26.9 1.49
-1 3 -1 26.82 2.18
-1 3 -1 29.51 2
-1 3 0 56.63 3.47
-1 3 0 56.74 3.09
-1 3 0 57.43 3.39
-1 3 0 62.04 3.32
-1 3 0 58.42 3.6
-1 3 1 95.39 4.45
-1 3 1 102.4 3.88
-1 3 1 103.87 4.72
-1 3 1 103.56 3.69
-1 3 1 96.13 4.77
-1 3 1 108.59 5
-1 3 1 98.87 4.81
-1 3 2 194.29 6.19
-1 3 2 196 3.93
-1 3 2 200.12 4.86
-1 3 2 195.44 6.87
-1 3 2 195.98 6.92
-1 3 2 201.74 6.74
-1 3 2 194.56 4.47
-1 3 2 197.87 6.93
-1 3 3 57.96 3.85
-1 3 3 54.6 3.85
-1 3 3 57.1 2.79
-1 3 3 57.43 2.43
-1 3 3 56.14 2.41
-1 3 3 59.91 3.6
-1 3 3 58.44 3.91
-1 3 3 56.61 3.38
-1 3 4 182.43 6.22
-1 3 4 189.97 4.47
-1 3 4 178.7 6.86
-1 3 4 187.93 4.44
-1 3 4 181.83 6.88
-1 3 4 183.02 7.25
-1 3 4 197.39 6.35
-1 3 4 192.69 7.38
-1 3 4 191.85 4.28
-1 3 4 194.83 6.11
-1 3 5 0.9 0.74
-1 3 5 -0.52 0.45
-1 3 5 0.39 0.31
-1 3 5 0.11 0.22
-1 3 5 0.19 0.25
-1 3 5 0.43 0.71
-1 3 5 0.07 0.32
-1 3 5 0.43 0.39
-1 3 5 0.29 0.47
-1 3 6 25.73 2.97
-1 3 6 23.67 2.11
-1 3 6 23.45 2.61
-1 3 6 26.25 2.07
-1 3 6 24.3 1.98
-1 3 6 25.42 2.9
-1 3 6 25.12 2.2
-1 3 6 23.31 2.83
-1 3 7 8.03 1.52
-1 3 7 8.89 1.31
-1 3 7 7.27 1.69
-1 3 7 8.58 1.42
-1 3 7 8.83 1.39
-1 3 7 8.43 1.87
-1 3 7 9.06 1.81
-1 3 8 13.01 1.8
-1 3 8 11.61 1.69
-1 3 8 12.51 2.28
-1 3 8 10.91 1.78
-1 3 8 12.33 2.03
-1 3 8 12.41 2.2
-1 3 8 13.59 2.34
-1 3 9 -0.11 0.29
-1 3 9 0.49 0.41
-1 3 9 0.53 0.47
-1 3 9 0.71 0.58
-1 3 9 0.34 0.51
-1 3 9 0.28 0.33
-1 3 9 1.8 0.84
-1 3 10 1.11 0.68
-1 3 10 0.45 0.63
-1 3 10 0.44 0.42
-1 3 10 1.27 0.73
-1 3 10 0.36 0.74
-1 3 10 1.53 0.86
-1 3 10 1.54 0.86
-1 3 11 2.56 1.23
-1 3 11 1.41 0.96
-1 3 11 1.77 1.08
-1 3 11 0.3 0.52
-1 3 12 0.25 0.6
-1 3 12 -0.49 1.39
-1 3 13 -0.34 0.52
-1 3 14 3.4 1.48
-1 4 -11 -0.06 1.12
-1 4 -10 2.13 1.17
-1 4 -10 5.06 1.99
-1 4 -9 1.65 1.36
-1 4 -9 -0.53 1.45
-1 4 -8 0.09 1.05
-1 4 -8 1.01 1.02
-1 4 -7 2 1.34
-1 4 -7 -0.64 0.74
-1 4 -6 61.76 3.38
-1 4 -6 59.48 5.02
-1 4 -6 58.33 4.62
-1 4 -5 2.9 0.86
-1 4 -5 2.47 0.9
-1 4 -5 5.3 1.6
-1 4 -4 4.44 0.97
-1 4 -4 4.2 1.07
-1 4 -4 4.23 1.13
-1 4 -3 51.55 3.36
-1 4 -3 50.78 3.53
-1 4 -3 52.8 3.51
-1 4 -2 225.52 6
-1 4 -2 216.48 6.71
-1 4 -2 214.83 7.46
-1 4 -1 5.7 1.12
-1 4 -1 6.83 1.04
-1 4 -1 6.6 0.84
-1 4 -1 6.58 1.33
-1 4 -1 6.92 1.63
-1 4 0 174.24 6.53
-1 4 0 176.79 7.04
-1 4 0 171.96 6.52
-1 4 0 180.99 6.25
-1 4 0 172 3.15
-1 4 0 185.33 7.2
-1 4 1 3.47 0.78
-1 4 1 4.15 1.02
-1 4 1 5.53 1.25
-1 4 1 4.17 1.06
-1 4 1 2.92 0.69
-1 4 1 4.33 1.21
-1 4 2 50.19 1.91
-1 4 2 47.57 3.78
-1 4 2 51.04 3.85
-1 4 2 53.63 4.01
-1 4 2 53.05 3.58
-1 4 2 54.91 2.63
-1 4 2 52.78 3.08
-1 4 3 46.26 3.81
-1 4 3 48.51 2.45
-1 4 3 47.06 2.73
-1 4 3 49.92 3.91
-1 4 3 44.83 3.8
-1 4 3 48.78 3.39
-1 4 4 130.55 4.42
-1 4 4 128.71 6.47
-1 4 4 126.24 4.34
-1 4 4 132.18 4.88
-1 4 4 128.2 6.6
-1 4 4 129.42 6.67
-1 4 4 128.26 5.6
-1 4 5 10.11 1.93
-1 4 5 10.89 1.32
-1 4 5 10.72 1.61
-1 4 5 10.33 1.25
-1 4 5 11.37 1.97
-1 4 5 8.72 1.85
-1 4 5 10.25 1.59
-1 4 6 55.56 4.68
-1 4 6 59.41 4.55
-1 4 6 59.23 2.69
-1 4 6 54.38 3.05
-1 4 6 58.99 4.52
-1 4 6 58.26 4.77
-1 4 6 56.99 3.12
-1 4 7 6.13 1.7
-1 4 7 4.89 1.35
-1 4 7 4.08 0.84
-1 4 7 3.72 0.87
-1 4 7 4.75 1
-1 4 7 3.3 1.22
-1 4 7 4.85 1.42
-1 4 7 2.88 0.87
-1 4 8 12.6 1.7
-1 4 8 12.1 1.67
-1 4 8 11.92 1.68
-1 4 8 12.14 2.35
-1 4 8 12.64 2.31
-1 4 8 14.24 2.61
-1 4 8 12.74 2.19
-1 4 9 1.14 0.92
-1 4 9 -0.12 0.42
-1 4 9 1.39 0.95
-1 4 9 0.88 0.36
-1 4 9 0.88 0.73
-1 4 9 1.21 0.69
-1 4 9 1.18 1.16
-1 4 10 17.48 2.44
-1 4 10 16.64 2.9
-1 4 10 17.55 2.66
-1 4 10 20.06 3.26
-1 4 10 19.61 3.25
-1 4 11 1.72 1.1
-1 4 11 1.26 1.17
-1 4 11 1.6 0.86
-1 4 12 1.42 1.09
-1 4 12 1.83 1.15
-1 4 12 0.74 0.73
-1 4 13 -0.26 0.86
-1 5 -10 0.54 0.63
-1 5 -9 2.03 1.39
-1 5 -8 1.98 1.07
-1 5 -8 -0.24 0.75
-1 5 -7 12.05 2.6
-1 5 -7 10.6 2.3
-1 5 -6 78.37 5.91
-1 5 -6 76.63 5.55
-1 5 -5 7.93 1.51
-1 5 -5 9.39 1.92
-1 5 -5 9.02 1.97
-1 5 -4 11.55 1.9
-1 5 -4 9.02 1.67
-1 5 -4 9.91 1.79
-1 5 -3 0.84 0.53
-1 5 -3 2.31 1.46
-1 5 -3 0.88 0.5
-1 5 -2 0.03 0.37
-1 5 -2 0 0.23
-1 5 -2 0.85 0.67
-1 5 -2 0.15 0.36
-1 5 -1 21.33 2.69
-1 5 -1 23.98 1.76
-1 5 -1 23.34 2.35
-1 5 -1 24.44 3.18
-1 5 -1 23.2 2.48
-1 5 0 18.03 2.52
-1 5 0 19.56 2.5
-1 5 0 19.96 1.29
-1 5 0 18.81 2.47
-1 5 0 18.68 2.32
-1 5 1 4.1 1.22
-1 5 1 3.38 0.44
-1 5 1 4.34 1.15
-1 5 1 4.2 1.14
-1 5 1 2.69 0.76
-1 5 1 5.69 1.42
-1 5 1 3.49 1.08
-1 5 2 15.27 2.24
-1 5 2 15.02 1.08
-1 5 2 14.59 1.92
-1 5 2 16.27 2.46
-1 5 2 16.58 2.47
-1 5 2 13.92 2.08
-1 5 2 16.12 1.67
-1 5 3 1.04 0.79
-1 5 3 0.69 0.59
-1 5 3 0.15 0.36
-1 5 3 -0.36 0.38
-1 5 3 0.25 0.46
-1 5 3 -0.08 0.15
-1 5 3 0.09 0.12
-1 5 4 0.68 0.5
-1 5 4 0.95 0.66
-1 5 4 0.75 0.65
-1 5 4 0.62 0.5
-1 5 4 0.92 0.52
-1 5 4 1.32 0.86
-1 5 4 1.16 0.53
-1 5 5 10.13 1.53
-1 5 5 10.53 2.16
-1 5 5 11.69 1.54
-1 5 5 11.26 2.18
-1 5 5 11.72 1.53
-1 5 5 10.3 2.18
-1 5 5 12.04 1.85
-1 5 6 10.98 2.12
-1 5 6 10.78 1.48
-1 5 6 11.98 2.24
-1 5 6 10.94 1.79
-1 5 6 8.31 1.93
-1 5 6 11.08 1.52
-1 5 7 91.32 4.42
-1 5 7 91.71 6.6
-1 5 7 89.33 4.41
-1 5 7 85.56 6.06
-1 5 7 86.73 6.58
-1 5 8 1.78 1
-1 5 8 0.37 0.27
-1 5 8 0.75 0.37
-1 5 8 0.57 0.36
-1 5 8 1.22 0.65
-1 5 8 0.65 0.61
-1 5 8 -0.76 1.12
-1 5 9 49.39 3.57
-1 5 9 51.11 4.81
-1 5 9 52.54 3.71
-1 5 9 52.38 5.36
-1 5 9 48.7 4.91
-1 5 9 46.1 5.05
-1 5 10 2.5 1.26
-1 5 10 1.15 0.74
-1 5 10 0.67 0.64
-1 5 10 0.43 0.54
-1 5 11 1.13 1.08
-1 5 11 -0.23 0.62
-1 5 11 -0.54 0.6
-1 5 11 -0.17 0.6
-1 5 12 -1.88 1.18
-1 5 12 -0.63 0.71
-1 5 12 -0.13 0.83
-1 5 13 -1.04 1.18
-1 5 13 0.01 1.03
-1 5 13 -0.44 0.54
-1 6 -7 1.42 0.77
-1 6 -7 -0.51 0.7
-1 6 -6 2.49 1.22
-1 6 -6 0.61 0.46
-1 6 -5 14.78 2.36
-1 6 -5 17.38 2.61
-1 6 -4 28.59 3.07
-1 6 -4 32.32 3.6
-1 6 -4 27.61 3.21
-1 6 -3 6.44 1.67
-1 6 -3 6.1 1.58
-1 6 -3 7.78 2.57
-1 6 -3 6.53 1.38
-1 6 -2 12.44 1.91
-1 6 -2 13.77 2.33
-1 6 -2 18 3.09
-1 6 -2 14.72 1.76
-1 6 -2 15.4 2.16
-1 6 -1 15.66 1.56
-1 6 -1 15.23 2.48
-1 6 -1 14.85 2.25
-1 6 -1 17.2 2.82
-1 6 0 16.72 1.33
-1 6 0 16.87 1.35
-1 6 0 16.72 2.62
-1 6 0 14.91 2.36
-1 6 0 17.72 2.5
-1 6 0 16.67 2.67
-1 6 1 15.14 2.55
-1 6 1 13.35 2.14
-1 6 1 11.77 2.16
-1 6 1 12.81 0.98
-1 6 1 10.9 2.16
-1 6 1 12.79 2.23
-1 6 2 26.52 3.25
-1 6 2 25.7 3.33
-1 6 2 26.9 2.93
-1 6 2 24.97 3.28
-1 6 2 25.03 1.43
-1 6 2 29.3 3.24
-1 6 2 25.9 2.36
-1 6 3 11 2.26
-1 6 3 9.18 2.03
-1 6 3 10.57 1.68
-1 6 3 10.22 1.09
-1 6 3 9.13 1.76
-1 6 3 10.52 2.17
-1 6 3 10.16 1.25
-1 6 4 32.31 3.24
-1 6 4 30.67 2.28
-1 6 4 31.58 2.88
-1 6 4 30.31 3.66
-1 6 4 32.9 3.83
-1 6 4 32.41 3.87
-1 6 5 11.2 1.56
-1 6 5 12.04 1.76
-1 6 5 12.21 1.73
-1 6 5 12.39 2.43
-1 6 5 11.99 2.43
-1 6 5 11.8 1.95
-1 6 5 12.3 2.41
-1 6 6 45.49 4.88
-1 6 6 46.9 3.39
-1 6 6 53.08 5.01
-1 6 6 48.82 3.5
-1 6 6 48.12 3.96
-1 6 6 51.77 5.17
-1 6 7 62.39 5.57
-1 6 7 64.22 4.6
-1 6 7 65.7 4.05
-1 6 7 65.14 4.02
-1 6 7 64.59 6.01
-1 6 7 65.41 5.98
-1 6 8 7.68 1.93
-1 6 8 6.35 1.27
-1 6 8 6.14 1.25
-1 6 8 4.38 1.61
-1 6 8 6.21 1.84
-1 6 9 -0.45 1.04
-1 6 9 0.11 0.67
-1 6 9 -1.24 1.12
-1 6 10 0.73 0.8
-1 6 10 0.39 0.59
-1 6 10 0.81 0.99
-1 6 11 -0.18 0.79
-1 6 11 0.76 0.84
-1 6 11 -0.47 1.07
-1 6 12 2.58 1.38
-1 6 12 2.03 1.11
-1 6 13 -1.28 0.49
-1 6 13 -0.48 0.57
-1 7 -5 19.98 4
-1 7 -5 19.04 3.05
-1 7 -4 2.89 1.29
-1 7 -4 6.85 2.47
-1 7 -4 3.14 1.29
-1 7 -3 40.49 4.33
-1 7 -3 49.31 5.58
-1 7 -3 38.32 3.89
-1 7 -2 45.74 4.06
-1 7 -2 46.99 4.66
-1 7 -2 45.2 4.22
-1 7 -2 50.39 5.43
-1 7 -1 42.54 4.48
-1 7 -1 42.2 2.69
-1 7 -1 44.13 4.88
-1 7 -1 39.81 3.83
-1 7 0 -0.45 0.74
-1 7 0 -0.21 0.74
-1 7 0 0.22 0.33
-1 7 0 -0.1 0.17
-1 7 0 -0.16 0.48
-1 7 1 3.26 1.3
-1 7 1 3.97 1.26
-1 7 1 2.73 1
-1 7 1 3.11 1.11
-1 7 1 2.16 1.09
-1 7 2 16.96 2.94
-1 7 2 18.04 2.87
-1 7 2 17.55 2.66
-1 7 2 17.84 3
-1 7 2 19.22 2.93
-1 7 3 2.66 1.27
-1 7 3 2.2 1.21
-1 7 3 3.53 1.54
-1 7 3 3.47 1.46
-1 7 3 3.38 1.06
-1 7 4 12.29 2.53
-1 7 4 11.95 2.46
-1 7 4 13.86 2.14
-1 7 4 12.36 2.62
-1 7 4 16.8 2.55
-1 7 5 4 1.23
-1 7 5 5.16 1.23
-1 7 5 5.06 1.83
-1 7 5 5.72 1.79
-1 7 5 6.42 1.96
-1 7 6 13.09 1.97
-1 7 6 15.53 2.96
-1 7 6 14.11 2.82
-1 7 6 14.81 2.9
-1 7 6 13.02 2.21
-1 7 7 3.44 1.44
-1 7 7 2.8 0.99
-1 7 7 4.06 1.7
-1 7 7 3.56 1.02
-1 7 7 3.64 1.06
-1 7 7 3.26 1.51
-1 7 8 0.46 0.4
-1 7 8 0.99 0.55
-1 7 8 0.76 0.95
-1 7 8 -0.67 0.75
-1 7 9 1.6 1.25
-1 7 9 1.8 1.15
-1 7 9 2.29 1.38
-1 7 10 -0.66 0.76
-1 7 10 -0.09 0.68
-1 7 10 0.18 0.94
-1 7 11 0.98 0.63
-1 7 11 1.54 1.27
-1 7 11 2.58 1.78
-1 7 12 1.99 1.22
-1 7 12 5.15 2.15
-1 8 -5 8.41 2.89
-1 8 -4 1.52 1.77
-1 8 -3 4.44 0.74
-1 8 -3 9.41 2.32
-1 8 -3 13.25 3.15
-1 8 -2 10.49 2.38
-1 8 -2 10.18 2.59
-1 8 -1 6.38 1.92
-1 8 -1 3.74 1.26
-1 8 -1 7.15 2.04
-1 8 0 1.06 0.76
-1 8 0 -0.31 0.85
-1 8 0 2.37 1.24
-1 8 1 15.1 3.01
-1 8 1 10.78 2.36
-1 8 1 10.71 2.29
-1 8 1 10.39 2.23
-1 8 2 20.4 3.56
-1 8 2 20.69 3.09
-1 8 2 18.94 3.14
-1 8 2 18.99 3.33
-1 8 2 18.88 3.08
-1 8 3 53.01 5.64
-1 8 3 48.6 5.18
-1 8 3 46.6 4.57
-1 8 3 53.15 5.57
-1 8 3 48.31 4.79
-1 8 4 42.5 4.32
-1 8 4 37.58 4.81
-1 8 4 40.35 4.15
-1 8 4 45.23 5.11
-1 8 4 44.7 5.2
-1 8 5 4.91 1.47
-1 8 5 4.76 1.72
-1 8 5 5.35 1.48
-1 8 5 4.93 1.78
-1 8 5 3.59 1.63
-1 8 6 0.27 0.5
-1 8 6 -0.15 0.61
-1 8 6 0.72 0.8
-1 8 6 -0.14 0.48
-1 8 6 -0.19 0.46
-1 8 7 3.72 1.37
-1 8 7 3.57 1.56
-1 8 7 1.77 1.08
-1 8 7 1.71 0.76
-1 8 8 0.12 0.66
-1 8 8 0.66 0.51
-1 8 9 1.08 1.33
-1 8 9 2.21 1.1
-1 8 9 -0.28 0.61
-1 8 10 0 0.94
-1 8 10 -0.05 0.95
-1 8 10 -0.38 0.99
-1 8 11 0.26 1.48
-1 8 11 -0.8 1.24
-1 8 11 2.13 1.77
-1 8 12 -0.02 0.77
-1 9 -3 0.63 0.74
-1 9 -3 0.04 0.92
-1 9 -2 3.61 1.64
-1 9 -2 3.76 1.8
-1 9 -1 0.29 0.62
-1 9 -1 0.57 0.85
-1 9 0 2.11 1.35
-1 9 0 3.85 1.4
-1 9 0 1.46 0.77
-1 9 1 -0.69 0.95
-1 9 1 1.44 1.17
-1 9 1 0.29 0.88
-1 9 1 -0.56 0.98
-1 9 2 3.3 1.39
-1 9 2 3.85 1.72
-1 9 2 3.81 1.46
-1 9 2 3.97 1.57
-1 9 3 0.19 0.51
-1 9 3 0.17 0.74
-1 9 3 0.85 0.97
-1 9 3 0.07 0.49
-1 9 3 -0.07 0.42
-1 9 4 1.29 0.9
-1 9 4 1.68 0.99
-1 9 4 0.37 0.93
-1 9 4 0.81 0.78
-1 9 4 0.34 0.57
-1 9 5 -0.13 0.9
-1 9 5 1.19 1.22
-1 9 5 -0.17 0.62
-1 9 5 -0.35 0.75
-1 9 5 -0.19 0.58
-1 9 6 2.76 1.5
-1 9 6 2.23 1.6
-1 9 6 3.4 1.46
-1 9 6 2.57 1.46
-1 9 7 -0.02 0.58
-1 9 7 0.19 0.65
-1 9 7 -0.36 0.78
-1 9 8 -0.53 0.69
-1 9 8 -0.01 0.63
-1 9 8 1 1.12
-1 9 9 1.27 1.18
-1 9 9 0.93 1.12
-1 9 9 0.73 0.96
-1 9 10 0.57 0.81
-1 9 11 -1.63 1.52
-1 10 -2 1.23 1.08
-1 10 -1 3.32 1.52
-1 10 -1 4.71 2.06
-1 10 0 2.66 1.43
-1 10 0 0.77 0.53
-1 10 1 0.33 0.67
-1 10 1 -1.39 1.38
-1 10 1 0.35 0.54
-1 10 2 -0.26 0.78
-1 10 2 1.04 0.99
-1 10 2 -0.27 0.5
-1 10 2 -1.6 1.4
-1 10 3 1.08 1.11
-1 10 3 0.34 0.52
-1 10 3 3.16 1.66
-1 10 3 1.53 1.19
-1 10 3 0.84 1.01
-1 10 4 0.42 0.7
-1 10 4 0 0.54
-1 10 4 0.44 0.79
-1 10 4 -0.27 0.48
-1 10 4 0.02 0.59
-1 10 5 1.91 1.36
-1 10 5 2.39 1.23
-1 10 5 5.27 2.21
-1 10 5 2.24 1.31
-1 10 6 1.42 1.16
-1 10 6 2.33 1.52
-1 10 6 0.27 0.55
-1 10 7 1.69 1.19
-1 10 7 0.21 1.1
-1 10 7 0.22 0.6
-1 10 8 2.81 1.9
-1 11 1 -0.22 1
-1 11 2 -0.69 0.98
-1 11 2 0.4 0.62
-1 11 3 -0.5 0.54
-1 11 3 0.47 0.46
-1 11 4 4.37 2.03
-1 11 4 2.01 1.18
-1 11 5 0.2 0.63
0 -11 -9 -0.49 0.85
0 -11 -8 1.15 1.52
0 -11 -7 1.78 1.61
0 -11 -6 2.06 1.54
0 -11 -5 -0.09 0.54
0 -11 -4 1.77 1.15
0 -11 -3 3.57 1.76
0 -11 -2 3.66 2.03
0 -10 -10 2.24 1.48
0 -10 -9 0.04 0.58
0 -10 -8 1.28 1.07
0 -10 -7 1.53 1.2
0 -10 -6 1.45 1.23
0 -10 -5 0.11 0.78
0 -10 -4 0.31 0.64
0 -10 -3 -2.08 1.3
0 -10 -2 0.51 0.64
0 -10 -1 0.04 0.88
0 -10 0 0.36 0.78
0 -10 1 2.39 1.31
0 -10 2 -1.08 1.02
0 -10 3 0.45 0.44
0 -10 3 3.04 1.84
0 -10 4 0.61 1.14
0 -10 4 0.07 0.75
0 -9 -10 1.27 1.2
0 -9 -9 0.02 0.49
0 -9 -8 0.35 0.78
0 -9 -7 0.7 0.98
0 -9 -6 0.83 1.02
0 -9 -5 8.76 2.48
0 -9 -4 3.91 1.76
0 -9 -3 18.44 3.52
0 -9 -2 1.07 0.91
0 -9 -1 1.67 0.76
0 -9 -1 1.68 0.95
0 -9 0 1 0.86
0 -9 0 0 0.67
0 -9 1 0.32 0.77
0 -9 1 -0.12 0.68
0 -9 2 2 1.08
0 -9 2 1.79 1.24
0 -9 3 -0.51 0.8
0 -9 3 -0.23 0.4
0 -9 3 0.87 1.56
0 -9 4 1.62 0.96
0 -9 4 -0.37 1.12
0 -9 4 1.28 1.06
0 -9 5 -0.19 0.93
0 -9 5 0.5 0.94
0 -8 -13 2.02 1.37
0 -8 -12 -1.13 1.36
0 -8 -11 -0.21 0.64
0 -8 -10 0.22 0.66
0 -8 -10 1.81 1.28
0 -8 -9 0.04 0.52
0 -8 -9 0.77 0.56
0 -8 -8 0.12 0.38
0 -8 -8 -0.19 0.68
0 -8 -7 0.18 0.53
0 -8 -7 0.03 0.79
0 -8 -6 18.02 3.18
0 -8 -5 8.26 2.19
0 -8 -4 2.99 1.35
0 -8 -3 8.04 1.17
0 -8 -3 7.87 2.09
0 -8 -2 63.86 4
0 -8 -2 62.78 5.94
0 -8 -1 9.69 1.77
0 -8 -1 7.34 2.09
0 -8 0 138.07 7.37
0 -8 0 130.19 8.74
0 -8 1 9.97 2.42
0 -8 1 10.14 2.09
0 -8 2 8.53 2.19
0 -8 2 7.75 2.1
0 -8 3 -0.58 0.97
0 -8 3 0.34 0.8
0 -8 4 1.41 1.26
0 -8 4 3.09 1.52
0 -8 4 2.76 1.37
0 -8 5 2.04 1.35
0 -8 5 3.19 1.7
0 -8 5 0.35 0.95
0 -8 6 0.34 0.53
0 -7 -13 -0.42 0.79
0 -7 -12 3.93 1.59
0 -7 -11 0.96 0.93
0 -7 -10 0.25 0.53
0 -7 -10 -0.03 0.42
0 -7 -9 0.92 0.76
0 -7 -9 0.66 0.54
0 -7 -8 22.95 3.1
0 -7 -8 22.22 3.21
0 -7 -7 5.95 1.55
0 -7 -7 7.19 1.98
0 -7 -6 20.19 2.52
0 -7 -6 20.36 3.06
0 -7 -5 18.53 2.94
0 -7 -4 40.9 4.41
0 -7 -3 1.36 0.96
0 -7 -3 0.21 0.15
0 -7 -2 16.83 1.86
0 -7 -2 17.31 2.88
0 -7 -1 81.88 4.69
0 -7 -1 77.98 6.17
0 -7 0 51 5
0 -7 0 52.5 4.2
0 -7 1 83.62 5.78
0 -7 1 87.01 6.59
0 -7 2 2.47 1.03
0 -7 2 1.08 0.71
0 -7 3 51.19 5.25
0 -7 3 55.93 5.42
0 -7 4 -0.36 0.91
0 -7 4 -0.28 1.09
0 -7 4 -0.21 0.64
0 -7 5 4.14 1.66
0 -7 5 3.94 1.72
0 -7 5 5.71 1.86
0 -7 6 2.95 1.52
0 -7 6 1.39 1.18
0 -7 6 2.64 1.34
0 -7 7 2.49 1.42
0 -7 7 4.41 2.11
0 -6 -13 0.73 0.82
0 -6 -12 -0.63 0.94
0 -6 -11 1.42 1.07
0 -6 -10 14.92 2.9
0 -6 -10 14.76 2.35
0 -6 -9 95.74 6.21
0 -6 -9 97.18 6.93
0 -6 -8 35.82 3.94
0 -6 -8 35.05 3.73
0 -6 -7 4.67 1.36
0 -6 -7 4.16 0.92
0 -6 -7 5.5 1.49
0 -6 -6 21.16 2.56
0 -6 -6 18.82 2.74
0 -6 -6 22.38 2.27
0 -6 -5 0.74 0.5
0 -6 -5 0.97 0.78
0 -6 -4 3.62 1.11
0 -6 -3 14.83 2.42
0 -6 -3 11.76 1.04
0 -6 -2 31.65 2.3
0 -6 -2 33.5 3.69
0 -6 -1 68.62 5.3
0 -6 -1 68.7 3.9
0 -6 0 14.33 2.02
0 -6 0 15.91 2.58
0 -6 1 40.52 3.72
0 -6 1 40.2 4.13
0 -6 1 40.19 3.22
0 -6 2 8.99 1.49
0 -6 2 7.38 1.8
0 -6 2 5.78 1.55
0 -6 3 16.95 2.88
0 -6 3 14.3 2.46
0 -6 4 2.98 1.33
0 -6 4 2.25 0.88
0 -6 4 5.54 1.78
0 -6 5 0.32 0.76
0 -6 5 0.37 0.88
0 -6 5 0.88 0.86
0 -6 6 9.71 2.7
0 -6 6 7.64 2.24
0 -6 6 8.07 1.97
0 -6 7 3.1 1.52
0 -6 7 -0.06 0.61
0 -6 8 0.69 1.22
0 -6 8 1.09 1.29
0 -5 -13 -0.28 0.99
0 -5 -12 1.16 1.15
0 -5 -11 0.93 1.04
0 -5 -10 1.72 0.62
0 -5 -10 2.07 0.8
0 -5 -9 -0.16 0.49
0 -5 -9 0.46 0.46
0 -5 -8 38.88 4.02
0 -5 -8 38.88 3.02
0 -5 -8 40.13 3.61
0 -5 -7 67.41 4.86
0 -5 -7 65.61 4.59
0 -5 -7 63.23 3.61
0 -5 -6 37.33 3.35
0 -5 -6 34.98 3.05
0 -5 -6 31.67 3.18
0 -5 -6 36.67 3.09
0 -5 -6 35.86 2.63
0 -5 -5 117.2 5.49
0 -5 -5 118.3 5.42
0 -5 -5 127.81 5.61
0 -5 -5 115.98 6.08
0 -5 -5 120.88 4.74
0 -5 -4 399.47 8.76
0 -5 -4 391.65 9.83
0 -5 -4 399.96 9.15
0 -5 -4 396.82 9.81
0 -5 -4 377.07 11.16
0 -5 -3 46.21 3.44
0 -5 -3 41.82 1.44
0 -5 -3 46.59 3.41
0 -5 -3 44.03 3.83
0 -5 -2 300.86 5.91
0 -5 -2 303.27 9.9
0 -5 -1 2.37 0.69
0 -5 -1 1 0.34
0 -5 -1 1.07 0.76
0 -5 0 2.68 0.8
0 -5 0 3.56 1
0 -5 0 3.97 1.18
0 -5 0 2.92 0.83
0 -5 1 6.38 1.37
0 -5 1 6.33 1.14
0 -5 1 5.77 1.28
0 -5 1 5.18 1.34
0 -5 2 1.12 0.6
0 -5 2 2.07 0.97
0 -5 2 1.31 0.61
0 -5 2 0.88 0.61
0 -5 3 25.71 2.58
0 -5 3 26.9 3.25
0 -5 3 23.45 2.91
0 -5 4 5.29 1.78
0 -5 4 3.1 1.39
0 -5 4 2.49 0.83
0 -5 4 3.05 1.01
0 -5 5 15.09 2.8
0 -5 5 14.14 2.8
0 -5 5 15.79 2.41
0 -5 6 88.11 7.11
0 -5 6 87.88 7.28
0 -5 6 94.45 6
0 -5 7 -0.15 0.69
0 -5 7 0.33 0.49
0 -5 7 0.9 0.54
0 -5 8 2.67 1.69
0 -5 8 1.42 1.27
0 -5 9 2.76 1.49
0 -5 9 -0.16 0.58
0 -4 -13 -1.17 1.41
0 -4 -13 -0.13 0.91
0 -4 -12 1.58 1.32
0 -4 -11 4.06 1.65
0 -4 -10 0.21 0.75
0 -4 -9 131.3 4.8
0 -4 -9 128.31 8
0 -4 -8 1.37 0.5
0 -4 -8 1.06 0.44
0 -4 -8 1.85 0.69
0 -4 -8 1.66 0.82
0 -4 -7 14.86 1.27
0 -4 -7 14.55 1.93
0 -4 -7 13.02 1.89
0 -4 -7 14.51 1.93
0 -4 -7 13.81 2.24
0 -4 -7 13.66 1.71
0 -4 -6 5.9 1.01
0 -4 -6 5.18 0.53
0 -4 -6 7.61 1.35
0 -4 -6 5.76 1.27
0 -4 -6 5.95 1.26
0 -4 -6 6.9 1.32
0 -4 -5 5.32 1.06
0 -4 -5 6.46 1.23
0 -4 -5 5.39 0.92
0 -4 -5 5.6 1.23
0 -4 -5 6.48 1.22
0 -4 -5 4.5 1.12
0 -4 -4 19.39 1.96
0 -4 -4 20.41 2.02
0 -4 -4 21.1 2.05
0 -4 -4 22.41 2.19
0 -4 -4 21.05 2.3
0 -4 -4 19.93 1.71
0 -4 -3 287.86 8.74
0 -4 -3 274.39 6.63
0 -4 -3 276.99 7.35
0 -4 -3 284.59 6.66
0 -4 -3 290.46 8.83
0 -4 -3 273.01 8.27
0 -4 -3 270.72 7.34
0 -4 -3 298.41 8.95
0 -4 -2 398.07 9.15
0 -4 -2 390.26 10.04
0 -4 -2 415.73 9.18
0 -4 -2 396.77 5.42
0 -4 -2 417.04 10
0 -4 -2 426.22 9.78
0 -4 -2 416.44 10.36
0 -4 -2 428.69 10.16
0 -4 -1 87.23 3.36
0 -4 -1 86.49 4.37
0 -4 -1 93.63 4.55
0 -4 -1 91.1 4.43
0 -4 -1 87.25 4.71
0 -4 -1 89.7 4.38
0 -4 -1 87.38 4.44
0 -4 0 25.83 2.61
0 -4 0 24.7 2.11
0 -4 0 28.51 2.69
0 -4 0 30.36 2.36
0 -4 0 28.05 2.64
0 -4 0 28.76 2.54
0 -4 0 26.24 2.38
0 -4 1 109.05 5.11
0 -4 1 114.31 4.3
0 -4 1 100.56 5.23
0 -4 1 110.45 4.77
0 -4 1 103.86 4.92
0 -4 2 154.74 6.74
0 -4 2 161.02 4.62
0 -4 2 152.13 6.45
0 -4 2 161.14 5.65
0 -4 2 164.37 6.38
0 -4 3 2.74 1.09
0 -4 3 2.67 0.71
0 -4 3 3.46 0.65
0 -4 3 3.49 1.04
0 -4 4 3.38 0.85
0 -4 4 2.57 1.07
0 -4 4 2.99 0.87
0 -4 4 5.24 1.5
0 -4 5 0.36 0.27
0 -4 5 1.17 0.84
0 -4 5 0.72 0.43
0 -4 5 0.27 0.65
0 -4 6 2.71 1.46
0 -4 6 1.3 0.96
0 -4 6 0.97 0.3
0 -4 7 45.94 5.42
0 -4 7 47.53 5.12
0 -4 7 47.4 3.82
0 -4 8 15.53 3.38
0 -4 8 15.16 3.14
0 -4 9 12.68 2.99
0 -4 9 14.45 3.38
0 -4 9 20.5 3.88
0 -4 10 1.17 1.23
0 -4 10 1.53 1.11
0 -4 10 2.84 1.34
0 -3 -13 1.12 1.25
0 -3 -13 2.04 1.64
0 -3 -12 2.37 1.53
0 -3 -12 1.31 1.19
0 -3 -11 15.13 3.14
0 -3 -10 14.17 2.89
0 -3 -9 17.47 1.26
0 -3 -9 17.47 2.95
0 -3 -8 4.22 1.12
0 -3 -8 4.52 1.04
0 -3 -8 3.54 0.69
0 -3 -8 3.33 1.26
0 -3 -8 3.9 1.08
0 -3 -7 8.44 1.47
0 -3 -7 7.59 1.18
0 -3 -7 7.7 1.4
0 -3 -7 7.2 1.67
0 -3 -7 7.43 1.29
0 -3 -7 7.18 1.38
0 -3 -7 7.36 1.22
0 -3 -6 66.62 3.97
0 -3 -6 65.41 3.79
0 -3 -6 62.4 2.84
0 -3 -6 64.64 3.81
0 -3 -6 66.98 4.05
0 -3 -6 59.34 4.29
0 -3 -6 61.42 3.41
0 -3 -6 65.19 3.44
0 -3 -5 15.69 1.73
0 -3 -5 18.73 2.02
0 -3 -5 16.77 1.16
0 -3 -5 17.04 1.8
0 -3 -5 17.57 1.9
0 -3 -5 17.35 1.81
0 -3 -5 17.55 1.62
0 -3 -5 15.11 1.96
0 -3 -4 20.89 2.23
0 -3 -4 21.22 1.88
0 -3 -4 21.87 2.19
0 -3 -4 20.46 1.87
0 -3 -4 21.82 2.32
0 -3 -4 22.32 1.96
0 -3 -4 22.7 2.02
0 -3 -4 21.2 1.6
0 -3 -4 20.28 2.06
0 -3 -3 38.47 2.38
0 -3 -3 37.37 2.4
0 -3 -3 38.96 2.44
0 -3 -3 39.96 2.89
0 -3 -3 42.48 3.04
0 -3 -3 41.38 2.56
0 -3 -3 38.68 2.69
0 -3 -3 41.41 2.15
0 -3 -3 40.35 2.93
0 -3 -2 77.23 2.95
0 -3 -2 78.57 3.36
0 -3 -2 86.59 4.12
0 -3 -2 80.76 3.88
0 -3 -2 84.24 3.16
0 -3 -2 82.12 3.86
0 -3 -2 78.49 3.39
0 -3 -2 85.99 4
0 -3 -1 133.05 4.56
0 -3 -1 126.42 3.27
0 -3 -1 129.33 4.57
0 -3 -1 127.33 4.46
0 -3 -1 133.61 5.01
0 -3 -1 127.46 4.91
0 -3 -1 135.84 4.62
0 -3 -1 125.06 4.64
0 -3 0 282.27 6.23
0 -3 0 287.52 7.24
0 -3 0 286.55 7.23
0 -3 0 280.48 7.34
0 -3 0 281.4 6.32
0 -3 0 272.99 6.6
0 -3 0 273.87 6.59
0 -3 1 10.76 1.09
0 -3 1 10.92 1.56
0 -3 1 8.29 1.21
0 -3 1 9.76 1.17
0 -3 1 8.96 1.33
0 -3 1 9.19 1.3
0 -3 2 427.8 10.28
0 -3 2 435.95 6.2
0 -3 2 428.55 9.45
0 -3 2 447.57 10.67
0 -3 2 442.64 8.14
0 -3 2 456.23 9.48
0 -3 3 209.1 8.01
0 -3 3 204.86 6.97
0 -3 3 205.7 3.32
0 -3 3 211.43 5.84
0 -3 3 210.43 6.76
0 -3 4 83.74 5.3
0 -3 4 80.52 4.21
0 -3 4 80.67 5.4
0 -3 5 210.16 9.37
0 -3 5 204.75 8.88
0 -3 5 209.87 6.95
0 -3 5 210.31 6.97
0 -3 6 76.47 6.05
0 -3 6 77.64 5.88
0 -3 6 75.79 4.24
0 -3 6 75.26 4.25
0 -3 7 90.33 6.74
0 -3 7 95.46 4.78
0 -3 7 95.32 4.74
0 -3 7 91.35 7.22
0 -3 8 0.42 0.54
0 -3 8 -0.01 0.95
0 -3 9 0.28 0.5
0 -3 9 0.19 0.52
0 -3 10 0.36 0.82
0 -3 10 1.9 1.11
0 -3 10 0.32 0.62
0 -3 11 8.95 2.78
0 -3 11 6.03 2.13
0 -3 11 7.09 2.43
0 -3 11 7.1 2.4
0 -2 -13 0.34 0.69
0 -2 -13 1.54 1.24
0 -2 -12 2.43 1.44
0 -2 -12 2.41 1.51
0 -2 -11 19.43 3.57
0 -2 -11 25.48 4.1
0 -2 -10 28.8 4.16
0 -2 -10 29.29 4.03
0 -2 -9 18.52 3.05
0 -2 -8 0.52 0.54
0 -2 -8 1.65 0.75
0 -2 -7 -0.45 0.47
0 -2 -7 0.56 0.47
0 -2 -7 0.71 0.48
0 -2 -7 -0.04 0.12
0 -2 -6 229.94 6.39
0 -2 -6 231.81 7.79
0 -2 -6 230.48 7.04
0 -2 -6 213.91 8.31
0 -2 -6 234.17 6.65
0 -2 -6 226.52 4.41
0 -2 -5 141.57 4.94
0 -2 -5 135.31 5.04
0 -2 -5 151.09 5.86
0 -2 -5 144.62 5.15
0 -2 -5 144.6 5.86
0 -2 -5 140.91 6.02
0 -2 -5 149.17 4.5
0 -2 -5 148.63 5.4
0 -2 -5 147.32 4.84
0 -2 -5 141.64 4.22
0 -2 -4 49.84 2.1
0 -2 -4 51.53 3.27
0 -2 -4 48.43 3.17
0 -2 -4 50.04 3.17
0 -2 -4 48.61 2.64
0 -2 -4 51.08 2.76
0 -2 -4 51.44 2.82
0 -2 -4 49.19 2.8
0 -2 -4 48.83 2.43
0 -2 -4 50.33 2.51
0 -2 -3 5.18 0.96
0 -2 -3 5.29 0.78
0 -2 -3 4.26 0.83
0 -2 -3 4.91 0.74
0 -2 -3 5.81 0.98
0 -2 -3 5.82 0.88
0 -2 -3 5.19 0.69
0 -2 -3 5.68 0.93
0 -2 -3 4.63 0.78
0 -2 -2 77.01 3.17
0 -2 -2 71.31 2.61
0 -2 -2 71.72 2.62
0 -2 -2 70.3 2.6
0 -2 -2 69.67 2.74
0 -2 -2 73.94 2.99
0 -2 -2 71.12 3.13
0 -2 -2 71.21 2.29
0 -2 -2 75.66 3.23
0 -2 -1 163.61 4.5
0 -2 -1 159.05 4.32
0 -2 -1 160.73 3.95
0 -2 -1 165.2 4.03
0 -2 -1 162.06 4.36
0 -2 -1 157.89 4.4
0 -2 0 650.91 9.17
0 -2 0 682.76 8.97
0 -2 0 675.17 9.06
0 -2 0 677.46 7.87
0 -2 0 674.01 9.03
0 -2 0 681.61 7.99
0 -2 0 670.87 8.4
0 -2 0 670.7 8.29
0 -2 1 448.54 8.3
0 -2 1 448.97 5.53
0 -2 1 440.97 6.59
0 -2 1 441.2 7.63
0 -2 1 434.61 7.24
0 -2 1 424.38 7.86
0 -2 2 5.98 0.51
0 -2 2 6.55 1.17
0 -2 2 5.5 0.88
0 -2 2 5.8 0.97
0 -2 2 6.02 0.83
0 -2 3 287.09 8.49
0 -2 3 309.48 8.52
0 -2 3 298.17 7.59
0 -2 3 289.91 6.53
0 -2 3 292.43 8.25
0 -2 4 245.87 6.17
0 -2 4 243.79 8.73
0 -2 4 255.19 6.32
0 -2 4 246.18 8.28
0 -2 4 245.63 7.77
0 -2 5 71.71 4.79
0 -2 5 75.29 5.29
0 -2 5 75.72 3.54
0 -2 5 72.55 3.41
0 -2 6 7.03 1.08
0 -2 6 6.54 1.25
0 -2 6 5.79 0.98
0 -2 6 8.75 1.9
0 -2 6 6.82 1.56
0 -2 7 153.71 8.12
0 -2 7 143.58 8.37
0 -2 7 152.26 5.08
0 -2 7 153.2 8.11
0 -2 7 158.97 6.08
0 -2 7 155.27 5.1
0 -2 8 133.9 8.64
0 -2 8 130.36 7.98
0 -2 8 128.08 4.5
0 -2 8 124.1 7.75
0 -2 8 123.31 5.75
0 -2 9 24.68 3.9
0 -2 9 31.56 4.13
0 -2 9 28.07 3.96
0 -2 10 4.42 1.85
0 -2 10 3.69 1.73
0 -2 10 2.42 1.48
0 -2 10 1.88 1.08
0 -2 11 -0.75 1.15
0 -2 11 -0.56 0.85
0 -2 11 1.18 1.1
0 -2 11 -0.78 1.06
0 -2 12 8.51 2.63
0 -2 12 8.15 2.56
0 -2 12 9.38 2.75
0 -2 12 9.74 2.84
0 -1 -13 0.31 1.16
0 -1 -12 4.27 1.89
0 -1 -12 4.28 1.67
0 -1 -11 3.88 1.68
0 -1 -11 3.7 1.36
0 -1 -10 0.36 0.53
0 -1 -10 1.08 0.54
0 -1 -9 29.94 4.09
0 -1 -9 28.27 3.74
0 -1 -8 0.82 0.6
0 -1 -8 0.32 0.43
0 -1 -7 17.97 1.44
0 -1 -7 16.58 2.58
0 -1 -7 18.92 2.51
0 -1 -6 -0.2 0.37
0 -1 -6 0.45 0.38
0 -1 -6 0.17 0.16
0 -1 -6 0.31 0.52
0 -1 -5 1524.62 20.16
0 -1 -5 1547.51 12.77
0 -1 -5 1554.61 17.78
0 -1 -5 1547.47 17.21
0 -1 -5 1536.71 17.75
0 -1 -5 1539.11 17.32
0 -1 -4 9.04 1.24
0 -1 -4 7.65 1.14
0 -1 -4 8.59 0.62
0 -1 -4 7.26 0.82
0 -1 -4 11.92 1.42
0 -1 -4 8.23 1.09
0 -1 -4 8.25 1.18
0 -1 -4 9.53 1.44
0 -1 -3 192.42 4.06
0 -1 -3 193.75 4.53
0 -1 -3 192.32 5.37
0 -1 -3 193.13 4.62
0 -1 -3 198.82 5.13
0 -1 -3 197.66 4.93
0 -1 -3 199.09 4.8
0 -1 -3 192.74 3.53
0 -1 -3 196.06 4.26
0 -1 -2 7.46 0.74
0 -1 -2 6.52 0.71
0 -1 -2 6.77 0.81
0 -1 -2 6.81 0.67
0 -1 -2 6.08 0.79
0 -1 -2 6.75 0.72
0 -1 -2 5.67 0.6
0 -1 -2 6.3 0.63
0 -1 -2 6.33 0.81
0 -1 -2 6.54 0.54
0 -1 1 364.38 5.24
0 -1 1 358.62 5.86
0 -1 1 353.51 5.89
0 -1 1 363.5 5
0 -1 2 393.69 7.78
0 -1 2 402.08 7.44
0 -1 2 408.61 7.52
0 -1 2 408.43 6.92
0 -1 2 414.65 5.65
0 -1 3 206.6 4.25
0 -1 3 213.58 6.58
0 -1 3 212.89 6.15
0 -1 3 214.71 4.29
0 -1 3 220.27 5.99
0 -1 4 179.87 6.84
0 -1 4 182.72 6.41
0 -1 4 183.82 4.18
0 -1 4 184.08 5
0 -1 4 182.62 3.22
0 -1 4 192.64 6.52
0 -1 4 179.7 4.17
0 -1 5 225.42 7.8
0 -1 5 222.27 4.15
0 -1 5 216.95 4.69
0 -1 5 212.61 7.72
0 -1 5 225.5 4.83
0 -1 5 220.6 8.32
0 -1 5 213.35 6.04
0 -1 6 10.39 1.01
0 -1 6 9.73 1.39
0 -1 6 10.35 1.97
0 -1 6 9.47 0.98
0 -1 6 11.24 2.09
0 -1 6 9.91 1.02
0 -1 6 9.74 1.76
0 -1 7 56.52 2.52
0 -1 7 55.18 2.42
0 -1 7 57.69 2.45
0 -1 7 54.05 3.63
0 -1 7 57.49 4.67
0 -1 7 57.81 4.67
0 -1 7 60.57 5.09
0 -1 8 105.72 7.26
0 -1 8 110.97 3.71
0 -1 8 112.28 7.13
0 -1 8 103.31 6.78
0 -1 8 114.33 5.67
0 -1 8 108.96 3.15
0 -1 8 104.48 6.79
0 -1 9 75.47 6.58
0 -1 9 76.71 6.15
0 -1 9 78.43 5
0 -1 9 77.07 6.23
0 -1 9 75.69 6.19
0 -1 10 0.69 1.16
0 -1 10 0.11 0.74
0 -1 10 -0.68 0.62
0 -1 10 0.29 0.53
0 -1 11 1.98 1.24
0 -1 11 1.17 0.96
0 -1 11 1.95 1.1
0 -1 11 1.29 0.89
0 -1 12 1.79 1.59
0 -1 12 0.81 0.87
0 -1 12 2.24 1.5
0 -1 12 0.26 0.94
0 -1 13 10.87 2.9
0 -1 13 7.47 2.46
0 -1 13 6.11 2.1
0 0 -13 0.69 1.43
0 0 -12 2.89 1.5
0 0 -12 3.15 1.68
0 0 -11 2.47 1.47
0 0 -11 3.43 1.39
0 0 -10 18.8 3.22
0 0 -10 16.16 3.3
0 0 -9 3.24 1.45
0 0 -9 4.25 1.46
0 0 -8 19.71 3.17
0 0 -8 20.24 2.98
0 0 -7 81.2 5.83
0 0 -7 82.06 5.45
0 0 -6 6.88 0.62
0 0 -6 6.99 1.66
0 0 -6 8.13 1.62
0 0 -5 48.29 3.39
0 0 -5 45.03 1.58
0 0 -5 49.33 3.41
0 0 -5 46.62 3.68
0 0 -5 49.96 3.55
0 0 -4 84.75 2.05
0 0 -4 87.36 4.45
0 0 -4 90.52 4.3
0 0 -4 90.26 3.98
0 0 -4 93.21 4.22
0 0 -3 6.49 1
0 0 -3 5.27 0.95
0 0 -3 4.66 0.82
0 0 -3 6.65 1.04
0 0 -2 879.97 7.91
0 0 -2 890.97 8.91
0 0 -2 880.1 9.75
0 0 -2 881.01 9.16
0 0 2 876.26 8.78
0 0 2 908.67 9.82
0 0 2 870.35 9.4
0 0 2 863.96 7.85
0 0 2 896.81 8.94
0 0 3 5.21 0.63
0 0 3 5.36 0.98
0 0 3 5.43 0.94
0 0 3 7.65 1.06
0 0 3 5.64 1.01
0 0 3 4.79 0.72
0 0 4 84.39 3.5
0 0 4 83.55 3.88
0 0 4 89.23 4.29
0 0 4 92.94 4.57
0 0 4 89.06 1.96
0 0 4 88.46 3.08
0 0 4 90.28 4.03
0 0 5 44.84 1.49
0 0 5 46.26 3.53
0 0 5 43.98 2.8
0 0 5 48 2.54
0 0 5 47.1 3.33
0 0 5 49.55 3.33
0 0 6 8.27 1.13
0 0 6 8.33 1.41
0 0 6 9.23 1.79
0 0 6 7.24 1.48
0 0 6 6.58 0.57
0 0 6 7.25 1.52
0 0 6 7.67 1.37
0 0 6 7.24 0.72
0 0 7 84.53 3.91
0 0 7 78.46 5.2
0 0 7 84.82 4.72
0 0 7 80.83 5.19
0 0 7 89.65 5.43
0 0 7 78.78 2.21
0 0 7 78.13 2.26
0 0 7 80.48 5.52
0 0 8 21.44 3.08
0 0 8 22.39 2.95
0 0 8 24.49 3.13
0 0 8 24.11 2.69
0 0 8 22.41 2.93
0 0 8 22.61 2.11
0 0 9 3.31 0.78
0 0 9 4.03 1.3
0 0 9 5.24 1.49
0 0 9 6.5 1.81
0 0 9 4.28 1.29
0 0 9 3.31 1.12
0 0 10 19.69 2.73
0 0 10 19 3.08
0 0 10 19.44 3.23
0 0 10 20.31 3.26
0 0 10 17.05 3.16
0 0 11 1.3 0.92
0 0 11 2.94 1.5
0 0 11 3.5 1.57
0 0 11 1.83 0.88
0 0 12 2.37 1.26
0 0 12 2.54 1.45
0 0 12 2.37 1.28
0 0 12 4.19 1.72
0 0 13 -0.64 0.83
0 0 13 0.38 0.96
0 0 13 -0.79 0.84
0 0 13 0.74 0.97
0 1 -13 3.47 1.15
0 1 -12 0.52 0.53
0 1 -12 -3.72 2.27
0 1 -11 0.26 0.75
0 1 -11 -2.41 2
0 1 -10 0.23 0.79
0 1 -10 -3.37 2.05
0 1 -9 78.63 6.73
0 1 -9 84.28 6.5
0 1 -8 119.62 7.77
0 1 -8 117.13 7.23
0 1 -7 60 4.8
0 1 -7 56.11 4.93
0 1 -6 10.39 1.96
0 1 -6 8.93 1.86
0 1 -5 232.92 8.31
0 1 -5 224.53 7.68
0 1 -4 173.9 6.51
0 1 -4 188.9 6.32
0 1 -4 188.95 6.76
0 1 -3 198.76 6.07
0 1 -3 206.79 5.8
0 1 -3 214.33 6.47
0 1 -2 411.94 7.28
0 1 -2 402.23 6.77
0 1 -2 414.33 7.75
0 1 -1 356.13 5.84
0 1 -1 378.25 6.03
0 1 -1 365.16 5.07
0 1 -1 359.92 5.18
0 1 -1 371.37 6.01
0 1 2 7.29 0.64
0 1 2 6.45 0.7
0 1 2 6.28 0.84
0 1 2 6.48 0.76
0 1 2 6.39 0.69
0 1 2 5.96 0.75
0 1 2 6.24 0.69
0 1 2 6.61 0.72
0 1 2 6.75 0.63
0 1 3 183.99 5.04
0 1 3 188.62 4.57
0 1 3 190.44 4.02
0 1 3 193.53 5.39
0 1 3 194.08 4.58
0 1 3 189.23 4.53
0 1 3 199.12 4.82
0 1 3 176.86 4.81
0 1 3 192.46 3.56
0 1 4 10.7 1.29
0 1 4 8.15 1.15
0 1 4 8.85 1.14
0 1 4 8.54 0.91
0 1 4 8.62 1.16
0 1 4 8.14 1.28
0 1 4 7.95 1.09
0 1 4 8.52 1.18
0 1 4 8.36 0.79
0 1 5 1505.6 17.82
0 1 5 1510.86 12.51
0 1 5 1554.89 17.43
0 1 5 1612.5 20.47
0 1 5 1542.46 17.54
0 1 5 1454.59 16.24
0 1 5 1511.9 17.74
0 1 5 1554.42 10.77
0 1 6 0.05 0.35
0 1 6 0.08 0.23
0 1 6 0.45 0.58
0 1 6 0.25 0.42
0 1 6 0.5 0.72
0 1 6 -0.01 0.41
0 1 6 0.69 0.46
0 1 6 0.05 0.15
0 1 7 17.91 2.29
0 1 7 17.79 2.42
0 1 7 19.79 2.46
0 1 7 19.96 2.43
0 1 7 19.08 2.12
0 1 7 16.92 2.27
0 1 7 16.93 1.12
0 1 8 0.09 0.4
0 1 8 -0.22 0.45
0 1 8 0.49 0.36
0 1 8 1.05 0.62
0 1 8 0.83 0.45
0 1 8 -0.09 0.39
0 1 8 0.47 0.16
0 1 9 28.26 3.41
0 1 9 29.24 3.21
0 1 9 30.43 2.94
0 1 9 30.78 3.56
0 1 9 27.12 3.45
0 1 9 26.62 3.3
0 1 10 0.78 0.39
0 1 10 0.8 0.55
0 1 10 1.79 1.14
0 1 10 1.38 0.81
0 1 10 0.94 0.78
0 1 10 0.9 0.52
0 1 11 4.73 1.65
0 1 11 2.47 1.32
0 1 11 1.87 0.9
0 1 11 3.2 1.44
0 1 11 2.69 0.97
0 1 12 5.07 2.01
0 1 12 5.77 2
0 1 12 4.06 1.64
0 1 12 5.12 1.68
0 1 13 0.2 0.49
0 1 13 1.15 1.16
0 1 13 -0.09 0.83
0 1 13 1.11 0.5
0 1 14 1.51 1.3
0 2 -12 9.13 2.67
0 2 -11 0.25 0.5
0 2 -11 -1.9 1.42
0 2 -10 3.38 1.32
0 2 -10 4.67 1.9
0 2 -9 24.36 3.83
0 2 -9 21.84 3.09
0 2 -8 134.28 8.48
0 2 -8 125 7.53
0 2 -7 149.34 8.3
0 2 -7 149.93 7.61
0 2 -6 5.77 0.62
0 2 -6 5.07 1.47
0 2 -6 5.1 0.97
0 2 -5 70.62 2.5
0 2 -5 71.47 4.84
0 2 -5 73.58 4.54
0 2 -4 245.6 4.9
0 2 -4 244.11 7.56
0 2 -4 234.19 7.89
0 2 -3 283.43 5.45
0 2 -3 284.97 7.73
0 2 -3 296.67 7.52
0 2 -3 292.89 8.51
0 2 -2 6.8 0.94
0 2 -2 6.92 1.1
0 2 -2 8.74 1.46
0 2 -2 5.97 0.89
0 2 -1 455.83 8.15
0 2 -1 425.84 7.06
0 2 -1 436.65 5.4
0 2 -1 435.41 8.21
0 2 -1 445.5 7.68
0 2 -1 425.95 7.24
0 2 0 687.94 7.91
0 2 0 643.48 8.79
0 2 0 670.79 8.32
0 2 0 697.17 9.37
0 2 0 685.68 8.47
0 2 0 666.52 9.04
0 2 0 642.26 7.97
0 2 1 161.89 4.35
0 2 1 157.41 3.18
0 2 1 158.93 3.95
0 2 1 157.66 4.52
0 2 1 156.89 3.9
0 2 1 168.61 4.53
0 2 1 161.51 4.35
0 2 1 156.35 3.68
0 2 1 158.71 2.81
0 2 2 72.83 2.63
0 2 2 72.04 2.65
0 2 2 70.17 2.59
0 2 2 71.72 3.05
0 2 2 72.03 3.2
0 2 2 74.55 3.02
0 2 2 71.49 2.28
0 2 2 72.08 3.19
0 2 3 5.49 0.71
0 2 3 6.82 1.13
0 2 3 6.52 0.61
0 2 3 4.21 0.7
0 2 3 5.41 0.79
0 2 3 4.62 0.8
0 2 3 5.61 0.99
0 2 3 6.59 1.01
0 2 3 6.3 0.86
0 2 3 6.3 0.9
0 2 4 48.24 2.72
0 2 4 50.63 2.36
0 2 4 48.78 3.12
0 2 4 51.56 2.75
0 2 4 48.99 3.14
0 2 4 48.6 2.63
0 2 4 49.74 2.79
0 2 4 50.35 2.5
0 2 4 46.98 3.1
0 2 5 148.75 5.18
0 2 5 145.19 6.12
0 2 5 145.44 5.18
0 2 5 141.63 4.78
0 2 5 144.58 5.82
0 2 5 144.28 5.25
0 2 5 145.94 4.29
0 2 5 145.01 4.86
0 2 5 139.36 5.77
0 2 6 224.14 7.08
0 2 6 224.97 6.15
0 2 6 239.15 7.27
0 2 6 238.72 7.36
0 2 6 223.29 7.6
0 2 6 220.91 7.23
0 2 6 227.99 5.38
0 2 6 230.83 7.92
0 2 7 0.18 0.21
0 2 7 -0.27 0.32
0 2 7 0.87 0.64
0 2 7 -0.05 0.32
0 2 7 0.21 0.44
0 2 7 0.65 0.48
0 2 7 -0.06 0.35
0 2 7 0.07 0.16
0 2 8 0.46 0.37
0 2 8 0.12 0.52
0 2 8 0.96 0.58
0 2 8 0.07 0.46
0 2 8 0.47 0.69
0 2 8 0.64 0.42
0 2 8 0.36 0.45
0 2 8 0.72 0.34
0 2 9 21.68 1.99
0 2 9 19.32 2.66
0 2 9 22.18 2.97
0 2 9 23.2 2.93
0 2 9 21.41 2.88
0 2 9 21.54 2.88
0 2 9 18.59 2.77
0 2 10 27.47 3.42
0 2 10 31.8 3.43
0 2 10 30.38 3.7
0 2 10 32.41 3.89
0 2 10 24.94 3.39
0 2 10 32.15 3.7
0 2 11 21.24 3.3
0 2 11 22.93 3.34
0 2 11 22.11 3
0 2 11 23.2 3.44
0 2 11 23.46 3.48
0 2 11 22.07 3.24
0 2 12 0.7 0.46
0 2 12 0.04 0.64
0 2 12 1.2 0.85
0 2 12 0.77 0.63
0 2 12 0.81 1.06
0 2 13 0.6 0.69
0 2 13 0.29 0.86
0 3 -12 4.9 2.31
0 3 -11 7.63 2.45
0 3 -11 4.77 1.74
0 3 -10 3.01 1.91
0 3 -10 -0.62 1.11
0 3 -9 1.32 1.25
0 3 -9 -0.75 0.84
0 3 -8 2.26 1.14
0 3 -8 1.98 1.21
0 3 -7 92.76 6.69
0 3 -7 95.91 6.42
0 3 -6 74.55 3.06
0 3 -6 79.64 5.84
0 3 -6 84.19 5.6
0 3 -5 208.06 5.51
0 3 -5 200.13 8.43
0 3 -5 212.32 8.16
0 3 -4 79.52 4.79
0 3 -4 80.83 3.61
0 3 -4 86.11 4.86
0 3 -3 203.66 5.93
0 3 -3 211.96 7.08
0 3 -3 197.61 6.79
0 3 -2 445.35 10.54
0 3 -2 452.23 10.65
0 3 -2 428.28 8.61
0 3 -2 458.95 9.69
0 3 -2 454.84 9.44
0 3 -2 437.53 6.09
0 3 -1 9.55 1.06
0 3 -1 8.68 1.27
0 3 -1 11.64 1.56
0 3 -1 10.52 1.44
0 3 -1 9.3 1.25
0 3 -1 10.95 1.48
0 3 0 276.7 6.21
0 3 0 283.52 7.17
0 3 0 289.25 6.49
0 3 0 266.58 7.05
0 3 0 284.18 6.67
0 3 0 286.89 7.46
0 3 0 287.34 6.74
0 3 1 124.21 4.45
0 3 1 123.47 4.55
0 3 1 131.48 3.58
0 3 1 121.94 4.89
0 3 1 127.96 3.45
0 3 1 128.23 4.51
0 3 1 131.12 4.95
0 3 1 125.99 4.66
0 3 1 131.06 4.26
0 3 2 79.01 3.91
0 3 2 80.88 3.39
0 3 2 76.67 3.31
0 3 2 80.91 1.96
0 3 2 77.44 2.93
0 3 2 75.98 3.86
0 3 2 77.97 3.81
0 3 2 85.97 4.02
0 3 2 77.51 3.04
0 3 3 37.24 2.75
0 3 3 39.31 2.99
0 3 3 39.51 2.38
0 3 3 41.29 2.52
0 3 3 38.95 2.33
0 3 3 40.66 2.75
0 3 3 39.41 2.1
0 3 3 36.96 2.83
0 3 4 21.74 2.13
0 3 4 19.96 2.31
0 3 4 20.23 1.78
0 3 4 21.92 2.07
0 3 4 20.91 1.85
0 3 4 21.49 1.08
0 3 4 20.21 1.88
0 3 4 21.87 2.03
0 3 4 21.35 1.61
0 3 4 23.45 2.35
0 3 5 16.23 1.9
0 3 5 16.63 1.75
0 3 5 17.93 1.38
0 3 5 16.79 2.14
0 3 5 16.86 2
0 3 5 16.86 1.78
0 3 5 18.41 1.92
0 3 5 18 1.84
0 3 5 17.52 2.19
0 3 6 64.2 3.74
0 3 6 60.87 4.32
0 3 6 63.8 3.2
0 3 6 64.72 3.78
0 3 6 60.59 3.77
0 3 6 60.01 3.79
0 3 6 68.62 3.57
0 3 6 60.6 4.45
0 3 7 7.29 1.34
0 3 7 7.86 1.28
0 3 7 7.87 1.64
0 3 7 6.99 1.4
0 3 7 7.98 1.64
0 3 7 8.06 1.52
0 3 7 6.79 1.41
0 3 7 8.34 1.25
0 3 8 3.38 1.28
0 3 8 2.78 0.93
0 3 8 4.3 1.1
0 3 8 5.36 1.3
0 3 8 3.66 1.23
0 3 8 3.46 1.05
0 3 8 3.73 1.15
0 3 8 3.02 0.71
0 3 9 19.12 2.25
0 3 9 19.51 2.63
0 3 9 17.1 2.41
0 3 9 18.13 2.48
0 3 9 20.34 2.9
0 3 9 17.63 2.54
0 3 9 21.2 3.07
0 3 10 18.41 2.18
0 3 10 14.57 2.57
0 3 10 16.8 2.58
0 3 10 14.55 2.42
0 3 10 14.23 2.41
0 3 10 17.36 2.69
0 3 10 16.26 2.73
0 3 11 12.8 2.67
0 3 11 14.65 2.61
0 3 11 15.06 2.63
0 3 11 13.31 2.53
0 3 11 10.38 2.23
0 3 11 13.36 2.53
0 3 12 1.75 1.02
0 3 12 2.59 1.19
0 3 12 0.6 0.37
0 3 12 0.64 0.75
0 3 12 3.19 1.68
0 3 12 0.9 0.56
0 3 13 0.39 0.61
0 3 13 1.41 0.73
0 4 -11 5.73 2.52
0 4 -10 12.38 3.08
0 4 -10 3.01 1.58
0 4 -9 16.16 3.36
0 4 -9 23.9 3.91
0 4 -8 13.27 2.81
0 4 -8 22.01 3.56
0 4 -7 49.47 5.07
0 4 -7 56.52 5.19
0 4 -6 1.63 0.56
0 4 -6 2.1 0.98
0 4 -5 0.78 0.63
0 4 -5 0.33 0.25
0 4 -5 0.95 0.82
0 4 -4 2.65 1.06
0 4 -4 3.37 1.03
0 4 -4 3.28 0.85
0 4 -3 2.52 0.65
0 4 -3 3.24 1.23
0 4 -3 2.91 1
0 4 -2 157.58 4.49
0 4 -2 157.28 7.04
0 4 -2 148.97 5.93
0 4 -2 153.99 6.26
0 4 -1 114.81 5.32
0 4 -1 104.13 5.04
0 4 -1 108.95 5.52
0 4 -1 121.44 5.24
0 4 -1 107.83 4.14
0 4 0 26.43 2.3
0 4 0 26.03 2.38
0 4 0 25.49 2.45
0 4 0 27.29 2.22
0 4 0 28.67 2.68
0 4 0 28.39 2.45
0 4 0 29.14 2.72
0 4 1 89.57 4.78
0 4 1 90.95 4.25
0 4 1 85.5 4.31
0 4 1 89.81 4.46
0 4 1 93.57 4.87
0 4 1 86.41 4.39
0 4 1 88.59 3.63
0 4 2 407.85 10.39
0 4 2 409.76 7.29
0 4 2 407.75 9.02
0 4 2 420.95 10.35
0 4 2 398.1 9.93
0 4 2 405.92 9.95
0 4 2 400.16 8.32
0 4 2 420.82 6.34
0 4 2 416.17 9.12
0 4 3 268.15 8.53
0 4 3 273.44 7.29
0 4 3 282.17 6.67
0 4 3 269.12 8.52
0 4 3 278.73 7.35
0 4 3 288.57 8.5
0 4 3 264.57 8.51
0 4 3 270.01 6.47
0 4 4 20.4 2
0 4 4 21.35 2.05
0 4 4 19.47 1.94
0 4 4 20.81 2.53
0 4 4 20.64 2.42
0 4 4 20.81 2.27
0 4 4 18.99 1.72
0 4 4 19.55 2.4
0 4 5 5.55 1.44
0 4 5 5.93 1.1
0 4 5 5.9 1.07
0 4 5 6.39 1
0 4 5 6.26 1.29
0 4 5 6.4 1.35
0 4 5 4.45 1.05
0 4 5 5.07 1.35
0 4 6 5.83 1.21
0 4 6 6.81 0.82
0 4 6 4.97 1.35
0 4 6 5.97 1.35
0 4 6 6.26 1.23
0 4 6 7.01 1.45
0 4 6 4.34 1.23
0 4 6 7.44 1.38
0 4 7 14.28 2.08
0 4 7 13.25 1.46
0 4 7 16.71 2.06
0 4 7 15.33 2.41
0 4 7 14.88 1.98
0 4 7 15.21 2.08
0 4 7 14.8 1.9
0 4 7 15.56 2.49
0 4 8 1.69 0.87
0 4 8 1.01 0.38
0 4 8 1.57 0.88
0 4 8 1.18 0.57
0 4 8 0.98 0.62
0 4 8 0.52 0.31
0 4 8 2.05 0.9
0 4 8 0.94 0.55
0 4 9 130.06 6.51
0 4 9 132.44 6.68
0 4 9 133.97 6.03
0 4 9 132.7 6.75
0 4 9 135.68 7.13
0 4 9 136.97 8.06
0 4 9 122.78 7.57
0 4 10 1.77 0.91
0 4 10 1.59 0.73
0 4 10 2.15 0.94
0 4 10 1.87 0.85
0 4 10 1.73 0.91
0 4 10 2.17 0.97
0 4 10 1.59 0.53
0 4 11 1.91 1.02
0 4 11 1.87 0.9
0 4 11 2.2 1
0 4 11 3.65 1.41
0 4 11 2.77 1.22
0 4 11 3.41 1.41
0 4 12 -0.55 0.77
0 4 12 0.8 0.71
0 4 12 0 0.57
0 4 13 0.1 0.59
0 5 -10 3.65 1.75
0 5 -10 5.4 1.92
0 5 -9 -0.88 0.73
0 5 -9 2.32 1.45
0 5 -8 0.18 0.98
0 5 -8 2.33 1.34
0 5 -7 -1.43 1.26
0 5 -7 1.17 1.13
0 5 -6 94.22 6.74
0 5 -6 89.52 6.45
0 5 -5 15.68 2.53
0 5 -5 18.39 2.98
0 5 -5 14.66 2.02
0 5 -4 1.76 0.53
0 5 -4 3.22 1.17
0 5 -3 25.4 2.69
0 5 -3 26.67 2.85
0 5 -3 26.55 2.95
0 5 -2 -0.14 0.55
0 5 -2 0.65 0.55
0 5 -2 0.91 0.41
0 5 -1 6.51 1.18
0 5 -1 4.99 1.43
0 5 -1 4.75 1.31
0 5 0 3.65 0.97
0 5 0 1.99 0.55
0 5 0 3.28 0.83
0 5 0 2.49 0.8
0 5 0 2.98 0.8
0 5 0 1.81 0.63
0 5 1 1.75 0.65
0 5 1 2.05 0.69
0 5 1 2.22 0.78
0 5 1 1.91 0.67
0 5 1 1.03 0.61
0 5 1 2.26 0.85
0 5 2 293.65 9.82
0 5 2 308.84 8.95
0 5 2 309.55 6.89
0 5 2 314.41 9.09
0 5 2 310.62 6.73
0 5 2 305.17 9.58
0 5 2 302.26 8.41
0 5 2 297.7 9.3
0 5 3 44.32 3.81
0 5 3 46.6 2.01
0 5 3 48.23 3.5
0 5 3 47.34 2.87
0 5 3 48.35 3.48
0 5 3 47.61 3.97
0 5 3 46.19 3.87
0 5 3 47.88 3.15
0 5 4 396.44 11.64
0 5 4 397.68 9.9
0 5 4 390.54 9.03
0 5 4 399.04 9.92
0 5 4 382.28 11.66
0 5 4 398.12 11.84
0 5 4 395.23 8.65
0 5 5 122.87 5.49
0 5 5 121.45 5.64
0 5 5 123.68 5.5
0 5 5 121.89 4.79
0 5 5 120.27 6.81
0 5 5 120.98 6.76
0 5 5 126.05 6.61
0 5 6 37.11 3.64
0 5 6 39.47 3.21
0 5 6 37.98 3.93
0 5 6 36.46 3.08
0 5 6 35.18 2.58
0 5 6 35.22 3.8
0 5 7 65.41 4.92
0 5 7 68.24 5.53
0 5 7 66.26 4.29
0 5 7 68.82 4.36
0 5 7 61.9 2.08
0 5 7 63.4 5.37
0 5 8 37.52 2.25
0 5 8 40.38 3.92
0 5 8 39.06 3.5
0 5 8 36.12 3.32
0 5 8 35.5 4.18
0 5 8 39.17 4.34
0 5 9 0.26 1
0 5 9 -0.27 0.4
0 5 9 0.13 0.42
0 5 9 -0.2 0.35
0 5 9 -0.04 0.6
0 5 9 -0.41 0.52
0 5 9 1.35 1
0 5 10 1.49 0.93
0 5 10 1.61 0.8
0 5 10 2.01 1.11
0 5 10 2.94 1.01
0 5 10 2 0.86
0 5 10 1.94 0.91
0 5 11 0.1 0.39
0 5 11 0.1 0.64
0 5 11 0.57 0.45
0 5 11 0.72 0.73
0 5 11 -0.98 0.82
0 5 11 0.67 0.93
0 5 12 -0.12 0.61
0 5 12 -0.3 0.8
0 5 12 0.56 0.69
0 5 13 0.47 1.06
0 5 13 0.53 0.97
0 5 14 8.02 2.62
0 6 -9 2.7 1.28
0 6 -9 2.03 1.4
0 6 -8 0.81 1.16
0 6 -8 -0.41 0.7
0 6 -7 1.4 1.53
0 6 -7 -0.76 0.9
0 6 -6 12.61 2.72
0 6 -6 8.06 2.02
0 6 -5 0.09 0.26
0 6 -5 -0.12 0.41
0 6 -4 3.79 1.2
0 6 -4 1.92 0.62
0 6 -4 3.46 1.12
0 6 -3 16.83 2.43
0 6 -3 17.13 2.5
0 6 -3 16.46 1.76
0 6 -2 7.31 1.52
0 6 -2 5.63 1.58
0 6 -2 11.64 2.36
0 6 -2 7.59 1.34
0 6 -1 39.15 3.15
0 6 -1 36.52 3.76
0 6 -1 44.88 4.25
0 6 -1 36.06 3.53
0 6 0 13.75 2.32
0 6 0 14.43 2.32
0 6 0 11.18 1.71
0 6 0 13.26 2.12
0 6 0 14.09 1.98
0 6 1 70.9 4.7
0 6 1 70.22 3.63
0 6 1 67.61 5.07
0 6 1 70.94 5.06
0 6 1 70.03 4.99
0 6 1 73.14 4.86
0 6 1 73.1 4.29
0 6 2 34.58 2.61
0 6 2 30.47 3.44
0 6 2 34.51 2.49
0 6 2 32.67 3.28
0 6 2 32.93 3.37
0 6 2 31.9 3.06
0 6 2 32.9 3.39
0 6 3 14.42 2.18
0 6 3 12.54 1.57
0 6 3 14.18 2.29
0 6 3 11.34 1.97
0 6 3 13.41 1.34
0 6 3 12.62 2.17
0 6 3 13.21 2.26
0 6 3 12.52 1.85
0 6 4 1.6 0.96
0 6 4 3.61 1.03
0 6 4 1.98 0.74
0 6 4 2.93 0.91
0 6 4 2.85 0.78
0 6 4 2.42 0.72
0 6 4 3.41 1.22
0 6 4 2.1 0.36
0 6 5 0.71 0.73
0 6 5 1.46 0.63
0 6 5 0.82 0.61
0 6 5 0.88 0.55
0 6 5 1.43 1
0 6 5 0.77 0.82
0 6 5 1.22 0.72
0 6 6 21.7 2.49
0 6 6 19.85 3.11
0 6 6 20.04 2.42
0 6 6 22.82 3.09
0 6 6 22.95 2.26
0 6 6 21.38 3.08
0 6 7 2.48 0.89
0 6 7 4.02 1.36
0 6 7 5.27 1.69
0 6 7 3.57 1.08
0 6 7 4.08 1.36
0 6 7 4.26 1.07
0 6 8 33.9 3.97
0 6 8 36.99 3.48
0 6 8 39.74 4.63
0 6 8 36.47 3.45
0 6 8 32.04 4.25
0 6 9 99.39 5.94
0 6 9 99.1 5.93
0 6 9 90.56 7.25
0 6 9 101.27 7.71
0 6 9 91.54 6.7
0 6 10 12.48 2.44
0 6 10 12 2.76
0 6 10 13.49 2.26
0 6 10 16.11 2.45
0 6 10 13.11 2.96
0 6 11 -0.66 0.85
0 6 11 0.13 0.61
0 6 11 1.06 0.77
0 6 12 0.27 0.63
0 6 12 0.44 0.99
0 6 13 0.02 0.75
0 6 13 0.95 0.97
0 6 14 0.57 0.73
0 6 14 -0.07 0.8
0 7 -7 1.9 0.92
0 7 -7 1.82 1.08
0 7 -6 1.02 0.96
0 7 -6 3.43 1.39
0 7 -5 13.37 3.15
0 7 -5 5 1.63
0 7 -4 -0.5 0.59
0 7 -4 0.09 0.47
0 7 -3 57.46 5.04
0 7 -3 53.18 4.48
0 7 -3 58.35 5.31
0 7 -2 2.34 1.08
0 7 -2 0.53 0.53
0 7 -2 3.36 1.44
0 7 -2 1.49 0.63
0 7 -1 78.56 6.1
0 7 -1 86.78 6.6
0 7 -1 88.95 6.06
0 7 -1 86.3 5.16
0 7 0 47.96 4.65
0 7 0 56.98 5.16
0 7 0 50.29 4.23
0 7 0 54.44 4.61
0 7 0 60.9 5.2
0 7 0 49.28 4.33
0 7 1 76.36 6.07
0 7 1 84.99 4.27
0 7 1 81.75 5.59
0 7 1 82.58 5.99
0 7 1 87.97 5.93
0 7 1 86.31 5.8
0 7 2 19.86 2.02
0 7 2 17.86 2.87
0 7 2 23.29 3.05
0 7 2 18.57 2.12
0 7 2 18.77 2.8
0 7 2 18.58 2.63
0 7 2 17.68 2.63
0 7 3 0.88 0.55
0 7 3 -0.14 0.39
0 7 3 0.3 0.21
0 7 3 0.12 0.39
0 7 3 -0.27 0.55
0 7 3 -0.26 0.4
0 7 3 -0.11 0.39
0 7 4 45.83 4.15
0 7 4 42.68 4
0 7 4 46.64 4.72
0 7 4 43.11 3.21
0 7 4 41.82 4.49
0 7 4 44.23 3.72
0 7 4 44.08 2.18
0 7 4 41.3 4.38
0 7 5 19.49 3.21
0 7 5 19.96 2.64
0 7 5 16.47 2.37
0 7 5 16.47 2.86
0 7 5 19.6 2.33
0 7 5 16.94 2.89
0 7 6 19.45 3.11
0 7 6 21.99 3.36
0 7 6 21.58 2.7
0 7 6 20.54 2.64
0 7 6 20.88 3.34
0 7 6 20.81 2.36
0 7 7 7.45 2
0 7 7 7.99 1.44
0 7 7 5.55 1.71
0 7 7 9.58 1.83
0 7 7 8.09 1.68
0 7 7 5.32 1.91
0 7 8 23.93 2.94
0 7 8 24.73 3.65
0 7 8 25.01 3
0 7 8 22.38 3.76
0 7 8 24.83 3.77
0 7 9 1.52 1.06
0 7 9 1.58 0.67
0 7 9 0.68 0.74
0 7 9 1.27 0.79
0 7 9 0.89 0.63
0 7 10 -0.31 0.96
0 7 10 0.59 0.69
0 7 10 0.14 0.58
0 7 11 1.78 1.18
0 7 11 2 1.36
0 7 11 -0.13 0.95
0 7 12 3.49 1.74
0 7 12 5.48 2.14
0 7 13 -0.37 0.8
0 7 13 -0.61 1.28
0 8 -6 8.64 2.67
0 8 -5 3.73 1.97
0 8 -4 3.5 1.65
0 8 -4 1.87 0.89
0 8 -3 1.59 1.17
0 8 -3 -1 1.13
0 8 -2 8.44 2.08
0 8 -2 10.86 2.2
0 8 -1 8.72 2.28
0 8 -1 7.02 1.43
0 8 -1 9.96 1.89
0 8 -1 11.22 2.45
0 8 0 131.67 8.44
0 8 0 135.04 8.69
0 8 0 136.81 7.35
0 8 0 139.55 8.51
0 8 1 9.18 2.31
0 8 1 10.08 2.1
0 8 1 11.32 2.58
0 8 1 7.3 1.72
0 8 1 9.72 2.11
0 8 2 61.99 5.9
0 8 2 65.87 5.62
0 8 2 62.55 5.56
0 8 2 61.24 5.17
0 8 2 62.73 5.44
0 8 3 9.01 2.16
0 8 3 8.13 1.88
0 8 3 6.32 1.53
0 8 3 8.58 1.97
0 8 3 7.56 2.15
0 8 4 1.41 0.99
0 8 4 0.91 0.71
0 8 4 -0.1 0.37
0 8 4 0.22 0.42
0 8 4 0.67 0.65
0 8 5 7.66 2.08
0 8 5 7.75 1.61
0 8 5 8.7 2
0 8 5 8.13 1.85
0 8 5 7.7 2.11
0 8 5 8.42 2.27
0 8 6 21.08 3.64
0 8 6 17.87 2.69
0 8 6 17.18 2.64
0 8 6 17.89 3.28
0 8 6 17.67 2.38
0 8 6 17.77 3.27
0 8 7 0.97 0.59
0 8 7 0.32 0.53
0 8 7 0.09 0.35
0 8 7 0.36 1.23
0 8 7 0.23 0.59
0 8 7 -0.27 0.5
0 8 8 0.6 0.58
0 8 8 0.32 0.51
0 8 8 0.3 0.39
0 8 8 -0.79 0.84
0 8 8 -0.35 0.66
0 8 9 1.61 1.37
0 8 9 1.09 0.98
0 8 9 2.4 1.05
0 8 9 1.12 0.79
0 8 10 1.29 1.05
0 8 10 0.53 0.79
0 8 10 0.73 0.71
0 8 11 1.29 1.08
0 8 11 -0.4 0.68
0 8 11 0.81 0.8
0 8 12 -0.49 0.97
0 8 12 -0.73 1.42
0 8 12 -1.07 1.36
0 9 -4 -0.66 1.56
0 9 -3 4.23 2.28
0 9 -3 -0.99 1.11
0 9 -2 2.69 1.43
0 9 -2 6.97 2.64
0 9 -1 0.33 0.7
0 9 -1 1.58 1.14
0 9 -1 -0.28 0.96
0 9 0 -0.75 0.94
0 9 0 1.59 1.48
0 9 0 -0.1 0.64
0 9 0 0.94 0.84
0 9 1 1.69 0.92
0 9 1 3.08 1.23
0 9 1 3.18 1.42
0 9 1 2.33 1.14
0 9 1 1.19 0.93
0 9 2 0.53 0.33
0 9 2 0.1 0.55
0 9 2 0.59 0.54
0 9 2 1.34 1.02
0 9 2 1.59 0.99
0 9 3 17.41 3.48
0 9 3 19.21 3.25
0 9 3 24.41 3.85
0 9 3 17.53 2.81
0 9 3 19.42 3.32
0 9 4 3.17 1.37
0 9 4 4.92 1.6
0 9 4 1.14 0.96
0 9 4 2.99 1.38
0 9 4 2.24 1.42
0 9 5 11.97 2.8
0 9 5 11.05 2.11
0 9 5 8.25 2.49
0 9 5 8.21 2.3
0 9 5 11.01 2.33
0 9 6 1.29 1.06
0 9 6 1.38 0.52
0 9 6 1.4 1.29
0 9 6 0.76 0.89
0 9 6 0.28 0.3
0 9 7 0.69 0.87
0 9 7 0.35 0.49
0 9 7 0.64 0.56
0 9 7 1.6 1.15
0 9 7 1.11 0.82
0 9 8 2.05 1.32
0 9 8 0.87 0.48
0 9 8 1.79 1.02
0 9 8 0.22 0.87
0 9 8 -0.07 0.47
0 9 9 0.01 0.47
0 9 9 0.12 0.63
0 9 9 -0.34 0.88
0 9 10 1.68 1.23
0 9 10 -0.57 0.87
0 9 10 0.83 0.86
0 9 11 -0.62 0.49
0 9 12 1.24 0.79
0 10 -2 0.57 0.86
0 10 -2 0.95 1.26
0 10 -1 1.1 0.85
0 10 -1 4.11 1.87
0 10 0 0.25 0.57
0 10 0 0.01 1.07
0 10 0 -0.41 1.12
0 10 1 -1.08 0.97
0 10 1 -0.24 0.95
0 10 1 -0.38 1
0 10 1 0.98 0.98
0 10 2 -0.77 1.03
0 10 2 -0.16 0.58
0 10 2 -1.79 1.12
0 10 2 2.03 1.28
0 10 2 -0.82 1.25
0 10 3 -0.61 1
0 10 3 -0.69 0.74
0 10 3 0.61 0.7
0 10 3 0.45 0.8
0 10 3 0.14 0.93
0 10 4 1.34 0.99
0 10 4 0.85 0.89
0 10 4 0.97 0.92
0 10 4 1.33 0.97
0 10 4 2.11 1.3
0 10 5 -0.45 1.08
0 10 5 1.46 1.16
0 10 5 0.92 0.89
0 10 5 -0.18 0.4
0 10 6 -0.02 0.72
0 10 6 0.42 0.92
0 10 6 0.12 0.59
0 10 6 -0.43 1
0 10 7 -0.97 1.08
0 10 7 0.61 0.52
0 10 7 0.72 1.01
0 10 7 -1.18 1.15
0 10 8 2.63 1.4
0 10 8 1.89 1.32
0 10 8 1.73 1.21
0 10 9 -0.04 0.89
0 10 9 0.71 1.13
0 10 9 -2.05 1.77
0 10 10 4.31 2.03
0 11 -1 0.02 0.87
0 11 0 0.43 0.84
0 11 0 1.36 1.08
0 11 1 -0.93 1.17
0 11 1 2.46 1.72
0 11 1 -1.73 1.45
0 11 2 3.62 2.13
0 11 2 2.35 1.23
0 11 2 1.73 1.09
0 11 3 1.33 0.86
0 11 3 5.01 2.34
0 11 3 4.1 1.86
0 11 3 3.01 1.45
0 11 3 4.14 1.72
0 11 4 3.29 1.71
0 11 4 2.13 1.37
0 11 4 1.02 1.17
0 11 4 2.69 1.51
0 11 5 0.17 0.62
0 11 5 -0.76 0.94
0 11 5 -1.11 1.4
0 11 5 0.05 1.11
0 11 6 4.3 1.93
0 11 6 3.53 1.85
0 11 7 -0.61 0.69
0 11 7 0.56 0.71
0 12 4 -0.72 0.56
0 12 4 -0.38 0.88
1 -10 -10 0.64 1.01
1 -10 -9 2.12 1.22
1 -10 -8 1.27 0.93
1 -10 -7 0.57 0.73
1 -10 -6 1.97 1.36
1 -10 -5 4.06 1.94
1 -10 -4 -0.57 1.05
1 -10 -3 1.23 1.12
1 -10 -2 0.88 1.08
1 -10 -1 0.45 0.82
1 -10 0 2.09 1.43
1 -10 1 3.7 1.48
1 -10 1 3.28 1.76
1 -10 2 -0.5 0.6
1 -9 -10 0.87 0.97
1 -9 -9 0.4 0.54
1 -9 -8 -0.14 0.84
1 -9 -7 -0.03 0.53
1 -9 -6 1.98 1.37
1 -9 -5 0.8 1.15
1 -9 -4 1.97 1.4
1 -9 -3 0.18 0.59
1 -9 -2 2.39 1.28
1 -9 -1 -0.47 0.87
1 -9 0 3.58 1.71
1 -9 1 0.47 0.49
1 -9 1 2.66 1.65
1 -9 1 1.46 1.28
1 -9 2 3.97 1.35
1 -9 2 5.81 2.19
1 -9 2 4.81 1.87
1 -9 3 0.11 0.7
1 -9 3 0.63 0.86
1 -9 3 0.98 0.99
1 -9 4 0.2 0.64
1 -9 4 -0.68 0.5
1 -9 5 0.57 0.87
1 -9 5 2.39 1.4
1 -8 -10 0.99 0.37
1 -8 -9 1.18 0.72
1 -8 -8 -0.75 0.96
1 -8 -7 2.27 1.19
1 -8 -6 0.25 0.64
1 -8 -5 4.83 1.81
1 -8 -4 38.79 4.88
1 -8 -3 46.61 5.33
1 -8 -2 20.28 3.48
1 -8 -1 13.48 2.12
1 -8 -1 13.48 2.97
1 -8 0 0.24 0.43
1 -8 0 0.47 0.9
1 -8 1 5.58 1.64
1 -8 1 4.63 1.71
1 -8 2 11.02 2.39
1 -8 2 10.83 2.78
1 -8 2 8.62 2.38
1 -8 3 11.58 2.62
1 -8 3 9.94 2.61
1 -8 3 9.27 2.58
1 -8 4 2.12 1.45
1 -8 4 -0.16 1.04
1 -8 4 0.49 0.74
1 -8 5 4.65 1.76
1 -8 5 4.51 1.87
1 -8 5 6.05 2.17
1 -8 6 3.92 1.85
1 -8 6 2.7 1.55
1 -7 -13 1.8 1.41
1 -7 -12 4.2 1.76
1 -7 -11 1.2 0.85
1 -7 -10 0.07 0.36
1 -7 -9 1.97 0.93
1 -7 -9 2.77 1.23
1 -7 -8 0.19 0.5
1 -7 -8 -0.38 0.76
1 -7 -7 3.09 0.97
1 -7 -7 3.17 1.18
1 -7 -6 12.91 1.9
1 -7 -6 14.54 2.71
1 -7 -5 5.12 1.61
1 -7 -4 14.09 2.75
1 -7 -3 2.42 0.59
1 -7 -3 3.64 1.39
1 -7 -2 18.96 1.99
1 -7 -2 20.63 3.29
1 -7 -1 2.74 0.89
1 -7 -1 2.5 1.15
1 -7 0 -0.07 0.57
1 -7 0 1.69 0.86
1 -7 1 37.93 3.98
1 -7 1 40.84 4.73
1 -7 2 45.7 4.63
1 -7 2 45.26 5.04
1 -7 2 43.66 5.03
1 -7 3 39.09 4.59
1 -7 3 38.41 4.93
1 -7 3 41.25 4.85
1 -7 4 3.49 1.68
1 -7 4 3.46 1.68
1 -7 4 2.19 1.03
1 -7 5 16.03 3.11
1 -7 5 20.82 3.86
1 -7 5 17.23 3.44
1 -7 6 0.3 0.71
1 -7 6 0.58 0.77
1 -7 6 0.56 0.87
1 -7 7 8.62 2.63
1 -6 -13 -0.65 0.94
1 -6 -12 2.1 1.47
1 -6 -11 0.8 0.56
1 -6 -10 0.35 0.7
1 -6 -9 -1.3 0.84
1 -6 -9 -0.39 0.45
1 -6 -8 7.62 1.78
1 -6 -8 6.02 1.58
1 -6 -7 62.99 4.65
1 -6 -7 62.48 5.1
1 -6 -6 45.78 3.37
1 -6 -6 47.27 3.67
1 -6 -6 43.05 3.29
1 -6 -6 43.09 4.32
1 -6 -5 11.71 1.62
1 -6 -5 10.06 1.59
1 -6 -5 9.34 1.52
1 -6 -5 11.68 2.21
1 -6 -4 32.99 3.78
1 -6 -3 10.51 1.04
1 -6 -3 13.33 2.44
1 -6 -2 25.41 2.11
1 -6 -2 29.15 3.61
1 -6 -1 12.15 1.69
1 -6 -1 14.25 2.47
1 -6 0 16.61 2.26
1 -6 0 18.32 2.96
1 -6 1 17.34 2.49
1 -6 1 13.24 2.51
1 -6 2 15.06 2.51
1 -6 2 14.99 2.64
1 -6 2 13.75 2.66
1 -6 3 5.39 1.69
1 -6 3 4.99 1.58
1 -6 3 6.36 1.91
1 -6 4 29.75 4.06
1 -6 4 25.94 3.83
1 -6 4 27.99 3.78
1 -6 5 14.52 3.05
1 -6 5 15.82 3.1
1 -6 5 15.68 2.83
1 -6 6 2.29 1.44
1 -6 6 1.27 1.03
1 -6 6 1.37 1.02
1 -6 7 -0.15 0.5
1 -6 7 0.41 0.57
1 -6 7 -0.29 0.57
1 -6 8 -0.5 1.38
1 -6 8 0.23 1.12
1 -5 -13 -0.82 1.04
1 -5 -12 -0.46 0.65
1 -5 -11 -0.59 0.8
1 -5 -10 1.99 0.87
1 -5 -9 53.46 5.13
1 -5 -9 51.15 4.02
1 -5 -8 1.08 0.84
1 -5 -8 1.34 0.81
1 -5 -7 84.19 4.23
1 -5 -7 90.6 4.4
1 -5 -7 89.64 5.44
1 -5 -7 87.71 5.61
1 -5 -6 10.68 1.46
1 -5 -6 10.32 1.71
1 -5 -6 11.11 1.5
1 -5 -6 9.98 1.83
1 -5 -5 11.9 1.54
1 -5 -5 12.27 1.67
1 -5 -5 10.62 1.52
1 -5 -5 11.89 2.04
1 -5 -4 0.67 0.4
1 -5 -4 0.47 0.39
1 -5 -4 0.72 0.45
1 -5 -4 0.35 0.57
1 -5 -3 -0.14 0.17
1 -5 -3 0.06 0.14
1 -5 -3 -0.36 0.37
1 -5 -3 0.2 0.23
1 -5 -3 0.22 0.52
1 -5 -2 15.7 1.44
1 -5 -2 15.77 1.98
1 -5 -2 15.6 1.96
1 -5 -2 14.35 2.3
1 -5 -2 14.82 1.56
1 -5 -1 2.81 0.78
1 -5 -1 3.2 0.81
1 -5 -1 4.69 1.34
1 -5 0 21.51 2.31
1 -5 0 18.76 2.68
1 -5 0 23.73 2.49
1 -5 1 25.79 2.75
1 -5 1 25.31 3.13
1 -5 2 0.73 0.55
1 -5 2 0.61 0.72
1 -5 2 -0.43 0.7
1 -5 2 0.01 0.41
1 -5 3 -0.17 0.4
1 -5 3 0.05 0.46
1 -5 3 0.63 0.5
1 -5 3 0.8 0.62
1 -5 4 11.18 2.36
1 -5 4 13.4 2.45
1 -5 4 10.52 2.18
1 -5 4 11.48 1.5
1 -5 5 7.51 2.04
1 -5 5 6.79 1.94
1 -5 5 8.86 1.98
1 -5 6 72.52 6.59
1 -5 6 78.23 7.01
1 -5 6 77.88 5.89
1 -5 7 10.23 2.71
1 -5 7 8.15 2.27
1 -5 7 8.47 1.94
1 -5 8 -2.05 1.34
1 -5 8 0.32 0.62
1 -5 9 -0.07 0.85
1 -5 9 1.69 1.77
1 -4 -13 -0.31 0.69
1 -4 -12 1.71 1.2
1 -4 -12 -0.51 0.72
1 -4 -11 1 0.89
1 -4 -10 16.83 3.15
1 -4 -9 1.98 1.12
1 -4 -9 0.87 0.56
1 -4 -8 11.64 1.66
1 -4 -8 14.34 2.48
1 -4 -8 11.84 1.71
1 -4 -7 4.24 0.92
1 -4 -7 3.8 1.2
1 -4 -7 4.06 0.87
1 -4 -7 4.14 0.98
1 -4 -7 4.07 0.73
1 -4 -7 4.53 1.11
1 -4 -6 56.27 3.07
1 -4 -6 54.93 4.08
1 -4 -6 56.3 3.09
1 -4 -6 60.28 4.02
1 -4 -6 54.25 2.27
1 -4 -6 54.96 2.28
1 -4 -5 10.37 0.9
1 -4 -5 10.55 1.29
1 -4 -5 10 1.26
1 -4 -5 10.41 1.67
1 -4 -5 11.3 1.64
1 -4 -5 10.72 1.63
1 -4 -5 10.84 0.83
1 -4 -4 131.15 4.45
1 -4 -4 120.07 2.5
1 -4 -4 129.37 5.95
1 -4 -4 131.88 5.63
1 -4 -4 131.11 4.43
1 -4 -4 123.83 2.77
1 -4 -4 123.52 4.75
1 -4 -3 46.79 2.77
1 -4 -3 51.78 2.55
1 -4 -3 47.13 1.74
1 -4 -3 48.92 2.83
1 -4 -3 47.9 2.06
1 -4 -3 48.53 3.7
1 -4 -3 48.48 3.39
1 -4 -2 50.11 3.07
1 -4 -2 53.99 3.14
1 -4 -2 50.86 2.54
1 -4 -2 53.03 3.95
1 -4 -2 57.44 3.73
1 -4 -1 3.75 0.98
1 -4 -1 4.79 0.94
1 -4 -1 4.76 1.14
1 -4 -1 3.99 0.98
1 -4 -1 2.96 0.62
1 -4 -1 2.77 1.01
1 -4 0 185.49 6.77
1 -4 0 192.7 6.89
1 -4 0 178.54 7.39
1 -4 0 187.16 6.02
1 -4 0 186.43 6.34
1 -4 1 7.34 1.5
1 -4 1 7.36 1.39
1 -4 1 5.84 1.17
1 -4 1 7.15 1.2
1 -4 1 6.8 1.49
1 -4 2 232.1 7.78
1 -4 2 223.19 8.31
1 -4 2 220.95 8.54
1 -4 2 231.63 6.94
1 -4 2 217.33 8.38
1 -4 2 228.21 6.83
1 -4 2 226.17 8.47
1 -4 3 56.41 4.52
1 -4 3 49.71 4.31
1 -4 3 53.84 3.15
1 -4 3 53.71 4.22
1 -4 3 50.47 3.47
1 -4 4 5.02 0.89
1 -4 4 3.81 1.23
1 -4 4 5.21 1.55
1 -4 4 4.41 1.35
1 -4 5 2.45 1.22
1 -4 5 2.48 1.19
1 -4 5 2.1 0.52
1 -4 5 3.29 1.12
1 -4 6 56.6 5.67
1 -4 6 56.06 5.48
1 -4 6 57.94 4.67
1 -4 7 0.95 1.21
1 -4 7 0 0.29
1 -4 8 0.5 0.98
1 -4 8 -1.51 1.41
1 -4 8 1.17 0.71
1 -4 9 1.7 1.35
1 -4 9 1.31 1.32
1 -4 10 6.95 2.52
1 -4 10 6.71 2.46
1 -4 10 10.68 3.12
1 -4 11 1.9 1.66
1 -3 -13 0.89 1.33
1 -3 -12 -0.25 0.51
1 -3 -12 1.48 1.55
1 -3 -11 0.48 0.55
1 -3 -11 2 1.28
1 -3 -10 0.54 0.95
1 -3 -10 -0.28 0.76
1 -3 -9 -0.27 0.61
1 -3 -8 10.43 1.58
1 -3 -8 13.24 2.48
1 -3 -8 11.81 1.71
1 -3 -8 10.67 1.32
1 -3 -7 9.46 1.14
1 -3 -7 8.18 1.31
1 -3 -7 9.7 1.88
1 -3 -7 8.31 1.24
1 -3 -7 10.17 1.42
1 -3 -6 24.7 1.97
1 -3 -6 23.6 2.74
1 -3 -6 23.08 1.88
1 -3 -6 24.45 2.12
1 -3 -6 24.54 2.17
1 -3 -5 -0.43 0.34
1 -3 -5 0.16 0.25
1 -3 -5 -0.2 0.21
1 -3 -5 0.65 0.37
1 -3 -5 -0.13 0.33
1 -3 -5 -0.14 0.32
1 -3 -4 193.17 7.22
1 -3 -4 194.5 4.3
1 -3 -4 187.29 6.05
1 -3 -4 194.98 4.59
1 -3 -4 186.72 4.45
1 -3 -4 187.59 6.2
1 -3 -4 194.93 6.37
1 -3 -4 186.69 4.07
1 -3 -3 57.26 3.83
1 -3 -3 56.01 2.01
1 -3 -3 63.91 4.08
1 -3 -3 54.59 2.75
1 -3 -3 56.48 2.42
1 -3 -3 56.72 2.42
1 -3 -3 60.49 3.79
1 -3 -3 56.07 3.44
1 -3 -3 54.35 3.77
1 -3 -3 56.38 3.33
1 -3 -3 58.73 2.14
1 -3 -2 217.22 7.16
1 -3 -2 199.85 4.9
1 -3 -2 199.35 3.95
1 -3 -2 196.08 4.86
1 -3 -2 197.45 4.36
1 -3 -2 207.57 6.88
1 -3 -2 186.89 6.42
1 -3 -2 192.18 6.88
1 -3 -2 203.02 6.32
1 -3 -2 203.39 7
1 -3 -1 105.89 4.84
1 -3 -1 101.85 3.86
1 -3 -1 114.6 5.06
1 -3 -1 105.39 3.7
1 -3 -1 104.61 3.94
1 -3 -1 93.91 4.66
1 -3 -1 106.82 4.95
1 -3 -1 105.36 4.66
1 -3 0 60.94 3.59
1 -3 0 57.19 3.12
1 -3 0 59.7 3.28
1 -3 0 61.15 3.75
1 -3 0 51.75 3.51
1 -3 0 59.83 2.9
1 -3 0 56.37 3.37
1 -3 1 27.52 2.35
1 -3 1 25.11 2.4
1 -3 1 29.96 2.64
1 -3 1 27.52 2.46
1 -3 1 25.55 2.14
1 -3 1 25.99 2.45
1 -3 1 24.03 2.49
1 -3 1 27.76 1.95
1 -3 2 201.39 7.31
1 -3 2 226.98 6.73
1 -3 2 216.79 7.31
1 -3 2 212.54 7.06
1 -3 2 214.4 5.77
1 -3 2 199.93 7.25
1 -3 2 212.12 5.93
1 -3 2 210.99 7.44
1 -3 3 45.53 2.93
1 -3 3 41.31 2.51
1 -3 3 41.17 3.59
1 -3 3 39.9 3.3
1 -3 3 38.06 2.64
1 -3 3 44.59 3.71
1 -3 4 56.95 2.78
1 -3 4 52.26 4.32
1 -3 4 58.76 4.63
1 -3 4 57.26 3.61
1 -3 4 53.45 3.95
1 -3 5 40.68 4.09
1 -3 5 43.64 4.38
1 -3 5 42.72 3.57
1 -3 5 42.38 2.24
1 -3 6 4.51 1.45
1 -3 6 7.49 1.92
1 -3 6 5.05 1.33
1 -3 6 4.58 0.66
1 -3 7 201.28 10.68
1 -3 7 186.54 9.9
1 -3 7 195.73 7.98
1 -3 8 2.17 1.19
1 -3 8 2.02 1.22
1 -3 8 3.27 1.06
1 -3 9 5.59 1.9
1 -3 9 4.39 1.68
1 -3 10 0.2 1.21
1 -3 10 -0.55 0.8
1 -3 10 -0.51 0.5
1 -3 11 20.4 4.3
1 -3 11 18.52 3.87
1 -3 11 22.47 4.48
1 -3 11 25.67 4.33
1 -3 12 1 0.88
1 -2 -12 0.81 0.95
1 -2 -12 2.11 1.38
1 -2 -11 0.51 0.96
1 -2 -11 -1.21 1.3
1 -2 -10 3.48 1.39
1 -2 -10 4.19 1.53
1 -2 -9 25.78 3.71
1 -2 -9 27.39 3.85
1 -2 -8 -0.72 0.97
1 -2 -8 0.16 0.26
1 -2 -8 0.01 0.63
1 -2 -7 8.37 1.45
1 -2 -7 10.13 1.44
1 -2 -7 7.87 1.81
1 -2 -7 7.78 0.86
1 -2 -6 2.52 0.77
1 -2 -6 2.15 0.65
1 -2 -6 2.49 0.96
1 -2 -6 2 0.42
1 -2 -6 2.57 0.56
1 -2 -6 2.08 0.77
1 -2 -5 103.41 5.12
1 -2 -5 109.15 4.96
1 -2 -5 103.56 5.26
1 -2 -5 105.65 5.29
1 -2 -5 100.64 3.23
1 -2 -5 101.9 3.58
1 -2 -5 100.31 3.58
1 -2 -5 105.49 4.99
1 -2 -5 103.47 4.39
1 -2 -4 133.57 5.33
1 -2 -4 133.73 4.3
1 -2 -4 127.94 5.16
1 -2 -4 136.16 3.49
1 -2 -4 131.34 3.96
1 -2 -4 128.08 3.33
1 -2 -4 130.44 5.58
1 -2 -4 125.87 4.16
1 -2 -4 133.5 5.19
1 -2 -4 130.53 5.49
1 -2 -4 137.57 5.82
1 -2 -3 4.84 0.98
1 -2 -3 4.34 0.98
1 -2 -3 6.55 0.82
1 -2 -3 4.95 0.56
1 -2 -3 5.15 0.99
1 -2 -3 6.79 1.15
1 -2 -3 5.06 0.58
1 -2 -3 5.52 0.91
1 -2 -3 4.47 1.07
1 -2 -3 5.13 0.84
1 -2 -3 4.79 0.83
1 -2 -2 22.89 2
1 -2 -2 20.23 1.11
1 -2 -2 20.71 1.3
1 -2 -2 22.66 1.47
1 -2 -2 20.37 1.1
1 -2 -2 23.05 1.81
1 -2 -2 21.27 2.06
1 -2 -2 21.98 2.01
1 -2 -2 19.39 1.73
1 -2 -2 21.93 2.1
1 -2 -2 20.45 1.85
1 -2 -2 21.7 1.36
1 -2 -1 10.22 0.94
1 -2 -1 10.55 0.95
1 -2 -1 10 1.18
1 -2 -1 10.42 1.29
1 -2 -1 11.58 1.36
1 -2 -1 11.08 1.35
1 -2 -1 10.69 1.38
1 -2 -1 10.16 1
1 -2 -1 10.4 1.36
1 -2 0 132.05 4.05
1 -2 0 139.87 4.74
1 -2 0 142.04 4.73
1 -2 0 140.53 4.86
1 -2 0 120.83 4.68
1 -2 0 138.07 3.52
1 -2 0 137.78 4.77
1 -2 0 142.78 4.71
1 -2 0 134.53 4.15
1 -2 1 262.15 6.28
1 -2 1 273.21 6.64
1 -2 1 266.58 6.68
1 -2 1 289.39 7.12
1 -2 1 271.51 6.23
1 -2 1 258.26 7.13
1 -2 1 281.21 4.92
1 -2 1 258.67 6.58
1 -2 2 35.37 2.22
1 -2 2 38.45 2.76
1 -2 2 38.69 2.88
1 -2 2 39.02 2.7
1 -2 2 35.89 2.22
1 -2 2 39.75 2.82
1 -2 2 37.38 2.79
1 -2 2 33.57 1.88
1 -2 3 0.28 0.36
1 -2 3 0.13 0.41
1 -2 3 0.32 0.4
1 -2 3 0.25 0.31
1 -2 3 0.36 0.41
1 -2 3 0.49 0.62
1 -2 3 0.51 0.45
1 -2 3 0.67 0.39
1 -2 4 1.98 0.73
1 -2 4 1.76 0.66
1 -2 4 1.5 0.79
1 -2 4 2.08 0.74
1 -2 4 1.11 0.4
1 -2 4 1.48 0.52
1 -2 5 177.63 8.23
1 -2 5 176.36 7.81
1 -2 5 182.92 6.42
1 -2 5 181 6.64
1 -2 6 5.89 1.61
1 -2 6 4.84 1.08
1 -2 6 5.69 1.68
1 -2 6 4.68 1.03
1 -2 7 80.66 3.05
1 -2 7 85.32 6.57
1 -2 7 84.54 6.21
1 -2 7 82 4.7
1 -2 8 167.23 9.81
1 -2 8 171.47 7.84
1 -2 8 161.19 9.23
1 -2 8 164.6 6.7
1 -2 9 18.68 3.31
1 -2 9 21.25 3.67
1 -2 9 22.13 3.71
1 -2 9 23.55 3.56
1 -2 9 23.79 3.07
1 -2 10 0.44 0.99
1 -2 10 0.39 0.62
1 -2 10 -0.86 0.64
1 -2 10 0.92 1.18
1 -2 11 0.05 0.93
1 -2 11 1.07 1.1
1 -2 11 0.12 0.94
1 -2 11 1.87 1.06
1 -2 12 7.77 2.63
1 -2 12 7.82 2.35
1 -2 12 7.55 2.51
1 -2 12 5.69 1.94
1 -2 13 -0.3 0.61
1 -1 -12 2.21 1.39
1 -1 -12 2.78 1.69
1 -1 -11 3.08 1.63
1 -1 -11 2.32 1.62
1 -1 -10 11.26 2.75
1 -1 -10 12.14 2.84
1 -1 -9 28.72 4.11
1 -1 -9 30.44 4.05
1 -1 -8 10.55 1.51
1 -1 -8 10.99 2.37
1 -1 -8 9.34 2.1
1 -1 -7 4.71 1.18
1 -1 -7 4.15 0.95
1 -1 -7 3.99 1.26
1 -1 -7 4.5 1.53
1 -1 -6 2.49 0.79
1 -1 -6 2.08 0.68
1 -1 -6 2.85 0.77
1 -1 -6 1.98 0.42
1 -1 -6 2.63 1.02
1 -1 -6 2.52 1.1
1 -1 -5 5.69 1.01
1 -1 -5 6.37 1.23
1 -1 -5 5.72 1.25
1 -1 -5 5.59 0.95
1 -1 -5 5.98 1.27
1 -1 -5 6.68 1.09
1 -1 -5 4.52 0.49
1 -1 -5 6.14 1.21
1 -1 -4 68.27 3.46
1 -1 -4 64.64 3.38
1 -1 -4 72.91 3.62
1 -1 -4 66.64 2.72
1 -1 -4 67.38 3.88
1 -1 -4 67.3 1.93
1 -1 -4 65.03 3.54
1 -1 -4 67.81 3.97
1 -1 -4 66.91 2.14
1 -1 -4 69.47 3.81
1 -1 -3 19.14 1.79
1 -1 -3 22.23 1.71
1 -1 -3 20.26 1.14
1 -1 -3 20.11 1.85
1 -1 -3 20.76 1.23
1 -1 -3 23.31 1.98
1 -1 -3 21.35 2.04
1 -1 -3 21.55 1.33
1 -1 -3 21.93 1.96
1 -1 -3 23.22 1.86
1 -1 -2 431.57 7.04
1 -1 -2 466.25 6.39
1 -1 -2 438.85 7.8
1 -1 -2 473.86 8.44
1 -1 -2 446.68 6.5
1 -1 -2 481.86 8.19
1 -1 -2 456.42 7.83
1 -1 -2 469.92 8.26
1 -1 -2 463.09 6.93
1 -1 -1 100.94 3.58
1 -1 -1 104.27 2.95
1 -1 -1 102.16 3.21
1 -1 -1 96.69 3.55
1 -1 -1 101.28 3.52
1 -1 -1 98.48 3.45
1 -1 -1 100.47 2.92
1 -1 -1 106.87 3.69
1 -1 0 1131.21 8.77
1 -1 0 1207.92 11.91
1 -1 0 1155.09 11.48
1 -1 0 1187.25 12.09
1 -1 0 1189.98 11.86
1 -1 0 1171.55 10.6
1 -1 1 486.38 7.03
1 -1 1 483.28 7.92
1 -1 1 459.66 7.22
1 -1 1 479.94 5.36
1 -1 1 452.94 7.08
1 -1 1 476.68 7.78
1 -1 2 873.13 8.76
1 -1 2 857.92 9.76
1 -1 2 901.75 11.03
1 -1 2 897.41 7.79
1 -1 3 4.81 1.07
1 -1 3 5.73 1.12
1 -1 3 5.53 0.62
1 -1 3 4.81 0.84
1 -1 3 4.91 0.89
1 -1 4 51.52 3.68
1 -1 4 53.41 3.64
1 -1 4 50.29 3.33
1 -1 4 49.6 2.81
1 -1 4 52.81 1.68
1 -1 5 4.67 1.25
1 -1 5 5.65 1.38
1 -1 5 4.75 0.9
1 -1 6 31.99 3.54
1 -1 6 29.93 3.29
1 -1 6 29.48 2.35
1 -1 7 35.88 4.06
1 -1 7 40.93 3.6
1 -1 7 38.43 3.93
1 -1 7 41.63 4.18
1 -1 7 39.51 2.84
1 -1 7 39.33 2.52
1 -1 8 23.42 2.86
1 -1 8 26.69 3.74
1 -1 8 24.81 3.44
1 -1 8 26.19 3.6
1 -1 8 25.03 2.28
1 -1 8 24.72 2.02
1 -1 8 33.07 3.72
1 -1 8 25.96 2.42
1 -1 9 7.91 2.24
1 -1 9 6.93 2
1 -1 9 7.52 2.09
1 -1 9 8.46 2.08
1 -1 9 9.91 1.51
1 -1 9 9.59 1.94
1 -1 10 -0.45 0.88
1 -1 10 -0.08 0.76
1 -1 10 0.15 0.59
1 -1 10 0.24 0.67
1 -1 10 -0.38 0.92
1 -1 11 0.14 0.68
1 -1 11 1.21 1.3
1 -1 11 1.95 1.21
1 -1 11 -0.01 0.92
1 -1 12 4.83 2.11
1 -1 12 3.64 1.62
1 -1 12 5.59 2.21
1 -1 12 1.52 0.7
1 -1 13 14.16 3.46
1 -1 13 13.25 3.25
1 -1 13 13.45 3.13
1 0 -12 0.98 0.54
1 0 -12 5.22 2.29
1 0 -11 1.41 1.23
1 0 -11 0.59 1.1
1 0 -10 0.38 0.77
1 0 -10 -0.17 1.06
1 0 -9 -0.02 0.7
1 0 -9 0.5 1.08
1 0 -8 2.7 0.67
1 0 -8 3.44 1.38
1 0 -8 1.41 1.15
1 0 -7 44.89 2.77
1 0 -7 43.59 4.41
1 0 -7 47.47 4.42
1 0 -7 47.67 3.17
1 0 -6 64.07 3.26
1 0 -6 69.1 3.72
1 0 -6 69.3 5.08
1 0 -6 66.69 3.52
1 0 -6 70.57 5
1 0 -5 183.18 5.38
1 0 -5 190.86 5.68
1 0 -5 188.23 5.6
1 0 -5 179.84 7.52
1 0 -5 189.85 7.51
1 0 -4 22.33 1.81
1 0 -4 21.6 1.7
1 0 -4 24.74 1.89
1 0 -4 22.51 2.36
1 0 -4 25.4 2.39
1 0 -4 26.13 2.49
1 0 -4 24.43 2.5
1 0 -3 70.7 3.16
1 0 -3 73.84 3.83
1 0 -3 76.83 3.7
1 0 -3 76.05 3.78
1 0 -3 73.98 3.89
1 0 -3 76.9 3.06
1 0 -3 77.3 2.86
1 0 -2 0.96 0.36
1 0 -2 1.07 0.43
1 0 -2 1.3 0.5
1 0 -2 0.92 0.26
1 0 -2 0.93 0.44
1 0 -2 0.98 0.4
1 0 -2 1.13 0.36
1 0 -1 629.13 8.14
1 0 -1 652.66 8.01
1 0 -1 615.92 6.47
1 0 -1 625.15 8.32
1 0 -1 645.06 6.85
1 0 -1 609.2 7.6
1 0 -1 669.24 8.53
1 0 -1 693.1 7.97
1 0 0 122.76 2.38
1 0 0 129.68 2.48
1 0 0 135.34 3.29
1 0 0 120.1 3.01
1 0 0 127.08 2.46
1 0 0 130.71 3.45
1 0 0 124.99 3.25
1 0 0 134.07 3.34
1 0 1 41.01 1.83
1 0 1 38.81 1.65
1 0 1 38.03 1.78
1 0 1 37.3 1.86
1 0 1 39.49 1.79
1 0 1 39.5 1.94
1 0 2 653.75 9.02
1 0 2 633.36 8.32
1 0 2 570.29 8.56
1 0 2 593.5 7.81
1 0 2 627.89 8.79
1 0 3 178.28 5.32
1 0 3 175.79 2.92
1 0 3 168.83 5.5
1 0 3 181.87 4.56
1 0 3 179.89 5.4
1 0 4 4.23 0.94
1 0 4 3.77 0.75
1 0 4 5.42 1.18
1 0 4 4.14 0.94
1 0 4 4.49 1.02
1 0 5 397.25 10.23
1 0 5 384.88 10.27
1 0 5 373.21 7.22
1 0 5 391.95 10.03
1 0 6 10.99 1.9
1 0 6 8.99 1.72
1 0 6 8.11 1.1
1 0 6 9.45 1.71
1 0 6 8.15 1.6
1 0 6 12.58 2.01
1 0 7 126.93 6.25
1 0 7 115.37 6.79
1 0 7 131.13 6.95
1 0 7 128.22 6.94
1 0 7 123.61 4.39
1 0 7 122.69 4.99
1 0 7 124.09 6.03
1 0 8 16.33 1.61
1 0 8 13.71 2.22
1 0 8 17.62 2.84
1 0 8 13.26 2.39
1 0 8 18.17 2.88
1 0 8 16 2.33
1 0 8 16.34 1.9
1 0 9 21.33 2.26
1 0 9 19.24 2.61
1 0 9 20.88 3.31
1 0 9 20.19 3.11
1 0 9 22.6 2.97
1 0 9 21.56 3.19
1 0 10 7.06 1.92
1 0 10 7.63 2.22
1 0 10 6.86 1.88
1 0 10 9.56 2.39
1 0 10 5.72 1.33
1 0 11 3.87 1.59
1 0 11 3.9 1.46
1 0 11 4.52 1.64
1 0 11 5.69 1.66
1 0 11 3.51 1.53
1 0 12 1.55 1.11
1 0 12 2.31 1.77
1 0 12 3.7 1.68
1 0 12 1.39 0.58
1 0 13 -0.13 1.04
1 0 13 1.58 1.36
1 0 13 -1.45 0.7
1 0 13 -0.63 1.11
1 1 -12 -3.59 2.33
1 1 -11 1.95 1.36
1 1 -11 -2.59 2.12
1 1 -10 6.52 2.23
1 1 -10 1.54 1.62
1 1 -9 5.17 1.74
1 1 -9 8.02 1.84
1 1 -8 18.33 3.13
1 1 -8 21.48 3.38
1 1 -7 34.26 2.22
1 1 -7 35.52 4.07
1 1 -7 36.63 4
1 1 -6 137.36 4.53
1 1 -6 141.66 7.46
1 1 -6 143.35 7.26
1 1 -5 13.88 2.16
1 1 -5 13.55 1.49
1 1 -5 15.6 2.37
1 1 -5 15.2 1.3
1 1 -4 238.98 4.71
1 1 -4 234.75 8.16
1 1 -4 239.79 7.88
1 1 -3 4.98 0.65
1 1 -3 5.63 1.13
1 1 -3 4.64 0.5
1 1 -3 6.48 1.37
1 1 -2 90.33 3.89
1 1 -2 85.41 3.31
1 1 -2 90.32 2.39
1 1 -2 86.93 2.52
1 1 -1 267.19 5.85
1 1 -1 249.53 4.87
1 1 -1 271.51 5.71
1 1 -1 270.26 4.46
1 1 0 224.84 4.32
1 1 0 229.7 4.76
1 1 0 236.7 4.37
1 1 0 236.98 4.27
1 1 0 215.03 4.28
1 1 0 218.07 4.29
1 1 1 224.09 4.5
1 1 1 228.35 4.7
1 1 1 219.61 4.49
1 1 1 242.44 4.66
1 1 1 225.08 3.36
1 1 1 230.99 4.07
1 1 1 229.75 4.42
1 1 2 514.26 7.78
1 1 2 534.14 7.94
1 1 2 533.18 7.98
1 1 2 533.14 7.25
1 1 2 533.15 7.07
1 1 3 71.41 3.49
1 1 3 68.49 3.24
1 1 3 74.76 3.45
1 1 3 62.31 3.15
1 1 3 73.87 2.82
1 1 3 76.03 2.12
1 1 3 70.33 2.97
1 1 4 98 4.37
1 1 4 89.11 4.2
1 1 4 103.5 4.64
1 1 4 99.29 4.48
1 1 4 101.76 3.44
1 1 4 95.07 3.12
1 1 4 96.33 3.98
1 1 5 1.81 0.77
1 1 5 1.02 0.53
1 1 5 0.92 0.76
1 1 5 0.65 0.32
1 1 5 1.19 0.72
1 1 5 2.12 0.95
1 1 5 0.22 0.31
1 1 5 0.63 0.22
1 1 6 162.53 3.08
1 1 6 167.92 6.7
1 1 6 159.56 6.71
1 1 6 170.76 4.74
1 1 6 185.92 7.3
1 1 6 170.68 5.84
1 1 6 169.69 6.04
1 1 6 170.42 6.67
1 1 7 82.38 4.42
1 1 7 76.93 4.97
1 1 7 81.9 5.25
1 1 7 79.54 5.28
1 1 7 86.39 5.43
1 1 7 84.75 4.59
1 1 7 83.3 3.8
1 1 8 23.78 2.78
1 1 8 23.11 3.04
1 1 8 28.35 3.37
1 1 8 25.58 3.19
1 1 8 20.66 2.49
1 1 8 24.11 2.08
1 1 8 25.47 2.61
1 1 9 -0.57 0.81
1 1 9 -0.09 0.7
1 1 9 -0.22 0.76
1 1 9 0.3 0.47
1 1 9 0.88 0.48
1 1 9 0.4 0.29
1 1 10 10.94 1.87
1 1 10 8.61 2.17
1 1 10 6.02 1.84
1 1 10 8.05 1.7
1 1 10 8.15 2.06
1 1 10 8.64 2.05
1 1 11 1.63 1.1
1 1 11 0.87 0.92
1 1 11 3.99 1.58
1 1 11 2.85 1.33
1 1 11 3.69 1.42
1 1 12 1.49 1.32
1 1 12 -0.13 0.63
1 1 12 1.39 1.15
1 1 12 0.44 0.74
1 1 12 1.23 0.91
1 1 13 -0.07 0.53
1 1 13 -0.24 0.75
1 1 13 -0.02 0.61
1 1 14 3.45 1.93
1 1 14 7.07 2.32
1 1 14 5.58 2.13
1 2 -12 11.21 2.94
1 2 -11 4.44 2.13
1 2 -11 2.55 1.34
1 2 -10 0.56 1.25
1 2 -10 -1.58 1.28
1 2 -9 5.36 1.79
1 2 -9 0.93 0.72
1 2 -8 10.7 2.49
1 2 -8 8.33 1.62
1 2 -7 18.2 1.65
1 2 -7 16.1 2.82
1 2 -7 12.87 2.22
1 2 -6 13.53 2.42
1 2 -6 13.41 2.08
1 2 -5 87.96 5.64
1 2 -5 86.86 5.37
1 2 -4 26.67 1.71
1 2 -4 26.41 2.73
1 2 -3 84.87 4.76
1 2 -3 83.39 4.32
1 2 -3 83.63 3.07
1 2 -3 77.65 4.35
1 2 -2 37.57 2.82
1 2 -2 34.38 2.58
1 2 -2 33.66 1.97
1 2 -2 34.12 2.75
1 2 -1 1080.97 13.43
1 2 -1 1047.98 12.82
1 2 -1 1025.24 11.11
1 2 -1 1026.56 13.08
1 2 0 742.57 9.67
1 2 0 721.8 6.93
1 2 0 715.47 9.88
1 2 0 712 9.84
1 2 0 702.6 9.4
1 2 1 705.99 9.6
1 2 1 727.66 8.5
1 2 1 705.76 9.62
1 2 1 693.99 8.5
1 2 1 685.58 9.27
1 2 2 51.11 2.63
1 2 2 55.34 2.77
1 2 2 59.38 2.86
1 2 2 59.69 2.84
1 2 2 51.91 2.7
1 2 2 61.19 2.26
1 2 3 363.71 8.08
1 2 3 382.56 7.79
1 2 3 378.7 7.88
1 2 3 361.29 7.4
1 2 3 373 5.84
1 2 3 367.3 7.98
1 2 4 1.01 0.39
1 2 4 1 0.49
1 2 4 0.13 0.77
1 2 4 2.69 0.79
1 2 4 1.31 0.71
1 2 4 0.56 0.5
1 2 4 1.02 0.37
1 2 4 1.07 0.53
1 2 5 74.55 3.19
1 2 5 76.36 4.18
1 2 5 75.99 4.58
1 2 5 80.63 4.34
1 2 5 73.7 4.32
1 2 5 75.16 3.03
1 2 5 76.51 3.68
1 2 5 78.02 3.58
1 2 5 79.83 4.3
1 2 6 14.11 1.36
1 2 6 16.2 2.15
1 2 6 11.92 1.75
1 2 6 16.31 2.19
1 2 6 14.98 1.62
1 2 6 15.87 1.7
1 2 6 17.48 2.19
1 2 6 17.16 1.89
1 2 7 5.11 1.37
1 2 7 3.64 1.01
1 2 7 3.49 0.68
1 2 7 3.68 1.11
1 2 7 3.74 1.1
1 2 7 3.73 1.16
1 2 7 3.01 0.83
1 2 7 3.28 0.83
1 2 8 12.42 1.25
1 2 8 11.61 2.18
1 2 8 12.76 2.21
1 2 8 14.02 2.04
1 2 8 14.44 2.22
1 2 8 12.66 2.32
1 2 8 14.31 1.96
1 2 8 12.5 1.58
1 2 9 23.76 1.6
1 2 9 26.07 3.33
1 2 9 20.91 3.01
1 2 9 22.61 2.77
1 2 9 24.05 3.23
1 2 9 21.57 3.1
1 2 9 24.52 2.81
1 2 9 23.44 2.15
1 2 10 30.74 3.8
1 2 10 31.42 3.91
1 2 10 31.63 3.88
1 2 10 31.98 3.96
1 2 10 32.24 3.53
1 2 10 28.6 3.28
1 2 11 7.45 1.69
1 2 11 5.66 1.77
1 2 11 5.98 1.83
1 2 11 6.22 1.75
1 2 11 6.27 1.68
1 2 11 5.67 1.74
1 2 12 1.34 1.02
1 2 12 2.71 1.52
1 2 12 1.25 0.66
1 2 12 1.34 1.23
1 2 12 1.05 1.09
1 2 13 0.86 0.55
1 2 13 0.01 0.73
1 2 13 -0.71 0.75
1 2 14 -0.28 0.57
1 2 14 1.11 0.9
1 2 14 0.06 0.64
1 3 -11 13.54 3.41
1 3 -11 10.05 2.95
1 3 -10 0.04 0.61
1 3 -10 0.59 1.16
1 3 -9 0.95 1.32
1 3 -9 0.27 0.51
1 3 -8 22.49 3.68
1 3 -8 21.61 3.43
1 3 -7 168.76 9.53
1 3 -7 171.51 9.06
1 3 -6 58.7 5.19
1 3 -6 60.22 5.05
1 3 -5 2.78 1.41
1 3 -5 0.02 0.33
1 3 -4 107.48 4.4
1 3 -4 98.22 5.73
1 3 -3 0.02 0.5
1 3 -3 0.26 0.32
1 3 -2 0.6 1.01
1 3 -2 2.44 0.81
1 3 -2 1.31 0.62
1 3 -2 2.15 0.64
1 3 -2 1.84 0.33
1 3 -1 9.46 1.04
1 3 -1 8.71 1.48
1 3 -1 6.21 1.11
1 3 -1 8.76 1.4
1 3 -1 7.99 0.83
1 3 -1 7.71 1.17
1 3 0 441.53 9.26
1 3 0 458.34 8.69
1 3 0 430.77 9.28
1 3 0 427.94 7.47
1 3 0 464.7 9.15
1 3 0 433.39 8.94
1 3 0 443.39 6.92
1 3 1 93.83 3.92
1 3 1 93.68 3.43
1 3 1 88.15 3.99
1 3 1 88.17 3.98
1 3 1 96.05 4.22
1 3 1 86.71 3.99
1 3 1 87.57 3.47
1 3 2 7.61 1.15
1 3 2 3.89 0.62
1 3 2 4.17 0.86
1 3 2 3.26 0.77
1 3 2 7.95 1.25
1 3 2 6.28 1.27
1 3 2 5.81 1.08
1 3 3 64.71 3.61
1 3 3 61.74 3.39
1 3 3 63.25 3.42
1 3 3 60.54 2.31
1 3 3 58.48 3.36
1 3 3 58.41 3.41
1 3 3 60.79 2.19
1 3 3 64.24 3.72
1 3 4 16.28 2.05
1 3 4 16.96 1.96
1 3 4 14.7 1.76
1 3 4 16.06 2.11
1 3 4 16.8 1.94
1 3 4 13.43 1.73
1 3 4 17.62 1.93
1 3 4 16.22 1.2
1 3 5 162.26 6.21
1 3 5 165.41 6.88
1 3 5 168.89 4.47
1 3 5 168.81 6.74
1 3 5 178.35 6.53
1 3 5 171.97 5.9
1 3 5 167.26 4.56
1 3 5 176.67 6.1
1 3 5 165.95 6.7
1 3 6 46.43 3.74
1 3 6 41.7 2.9
1 3 6 43.45 3.78
1 3 6 47.61 3.59
1 3 6 38.14 3.33
1 3 6 43.94 2.65
1 3 6 48.71 3.22
1 3 6 44.89 2.67
1 3 7 6.63 1.19
1 3 7 5.99 1.18
1 3 7 5.57 1.35
1 3 7 6.29 1.49
1 3 7 5.2 1.31
1 3 7 5.24 1.07
1 3 7 5.93 1.58
1 3 7 5.31 1.09
1 3 8 2.7 0.79
1 3 8 2.38 0.97
1 3 8 2.86 1.23
1 3 8 1.69 0.91
1 3 8 2.22 0.77
1 3 8 2.72 1.07
1 3 8 2.26 0.79
1 3 8 1.28 0.49
1 3 9 -0.06 0.83
1 3 9 1.1 0.68
1 3 9 -0.01 0.48
1 3 9 0.97 0.49
1 3 9 0.81 0.63
1 3 9 0.92 0.7
1 3 9 0.48 0.5
1 3 9 0.74 0.35
1 3 10 5.54 1.53
1 3 10 5.17 0.98
1 3 10 5.15 1.47
1 3 10 5.23 1.65
1 3 10 4.38 1.52
1 3 10 5.3 1.49
1 3 10 5.09 1.33
1 3 11 3.94 1.48
1 3 11 3.89 1.41
1 3 11 4.06 1.55
1 3 11 5.71 1.59
1 3 11 4.5 1.53
1 3 11 5.6 1.57
1 3 12 1.31 1.01
1 3 12 0.33 0.64
1 3 12 1.38 1.07
1 3 12 0.35 0.59
1 3 12 1.32 0.9
1 3 12 -0.11 0.6
1 3 13 1.15 0.98
1 3 13 -0.76 0.72
1 3 13 -0.56 1.01
1 3 13 0.14 0.81
1 3 14 0.55 0.88
1 3 14 0.64 0.9
1 4 -10 17.65 3.83
1 4 -10 18.68 3.89
1 4 -9 0.94 0.73
1 4 -9 7.54 2.66
1 4 -8 5.3 1.82
1 4 -8 9.99 2.87
1 4 -7 3.05 1.17
1 4 -7 8.83 2.82
1 4 -6 211.79 7.13
1 4 -6 210.57 10.3
1 4 -6 221.57 10.24
1 4 -5 2.62 1.14
1 4 -5 -0.51 0.82
1 4 -4 47.07 3.45
1 4 -4 41.29 3.91
1 4 -3 50.77 4.31
1 4 -3 54.07 3.64
1 4 -3 53.74 4.26
1 4 -2 39.89 3.59
1 4 -2 42.95 3.25
1 4 -2 42.91 3.52
1 4 -2 44.73 2.12
1 4 -1 128.96 5.81
1 4 -1 118.94 5.88
1 4 -1 122.16 4.02
1 4 -1 120.85 5.48
1 4 -1 119.71 5.56
1 4 -1 118.89 4.07
1 4 0 14.39 1.57
1 4 0 17.48 2.13
1 4 0 16.55 1.87
1 4 0 16.02 1.98
1 4 0 14.87 1.59
1 4 0 20.5 2.8
1 4 1 12.98 1.84
1 4 1 14.67 1.52
1 4 1 13.53 1.81
1 4 1 14.26 1.92
1 4 1 13.38 1.85
1 4 1 13.6 1.62
1 4 1 13.87 1.62
1 4 2 158.71 5.53
1 4 2 151.67 5.95
1 4 2 160.74 4.44
1 4 2 154.55 5.97
1 4 2 149.52 5.77
1 4 2 165.14 6.35
1 4 2 151.83 5.67
1 4 3 177.89 6.72
1 4 3 183.82 6.57
1 4 3 192.51 4.22
1 4 3 191.6 6.29
1 4 3 203.86 7.19
1 4 3 180.11 6.5
1 4 3 203.69 7.14
1 4 3 184.62 6.74
1 4 3 189.74 4.16
1 4 4 20.24 2.25
1 4 4 19.29 2.2
1 4 4 18.82 2.17
1 4 4 23.28 2.58
1 4 4 21.94 2.54
1 4 4 21.85 2.36
1 4 4 21.19 1.15
1 4 4 21.27 1.35
1 4 4 20.66 1.22
1 4 4 19.73 2.28
1 4 5 58.08 2.12
1 4 5 60.34 3.99
1 4 5 58.31 4.3
1 4 5 60.65 4.03
1 4 5 57.95 4.21
1 4 5 61.95 3.99
1 4 5 62.97 4.07
1 4 6 14.45 1.95
1 4 6 14.8 2.05
1 4 6 15.71 2.12
1 4 6 16.55 1.31
1 4 6 14.94 2.3
1 4 6 16.45 2.38
1 4 7 21.12 2.03
1 4 7 24.7 2.79
1 4 7 21.72 2.42
1 4 7 25.17 2.83
1 4 7 26.35 2.33
1 4 7 23.6 3.12
1 4 7 21.35 2.77
1 4 8 15.74 2.09
1 4 8 16.76 2.42
1 4 8 17.05 2.47
1 4 8 17.48 2.7
1 4 8 14.38 1.86
1 4 8 15.79 1.96
1 4 8 15.45 2.6
1 4 9 19.38 2.37
1 4 9 20.4 2.47
1 4 9 20.15 2.86
1 4 9 20.39 2.88
1 4 9 17.78 2.24
1 4 9 19.24 3.14
1 4 9 18.21 2.82
1 4 10 -0.63 0.63
1 4 10 0.6 0.42
1 4 10 0.36 0.43
1 4 10 -1.6 1.33
1 4 10 0.3 0.5
1 4 10 0.21 0.54
1 4 10 -0.57 0.67
1 4 11 -0.29 0.65
1 4 11 0.24 0.69
1 4 11 1.02 1
1 4 11 0.45 0.75
1 4 11 0.22 0.53
1 4 11 0.12 0.36
1 4 12 3.93 1.39
1 4 12 3.19 1.26
1 4 12 2.66 1.06
1 4 12 1.92 1.17
1 4 12 2.79 1.2
1 4 13 0.29 0.41
1 4 13 0.41 1.08
1 4 13 1.26 1.01
1 4 13 0.58 0.46
1 4 14 -0.21 0.91
1 5 -10 -2.78 2.24
1 5 -9 1.84 0.92
1 5 -9 2.31 1.52
1 5 -8 -1.54 1.35
1 5 -8 0.67 1.05
1 5 -7 -1.41 0.88
1 5 -7 0.02 0.83
1 5 -6 3.09 0.98
1 5 -6 3.58 0.95
1 5 -6 3.11 1.43
1 5 -5 14.33 2.74
1 5 -5 11.14 1.91
1 5 -5 11.79 2.38
1 5 -4 10.85 2.24
1 5 -4 12.74 2.16
1 5 -3 6.9 1.68
1 5 -3 7.94 1.73
1 5 -3 5 1.55
1 5 -3 6.56 0.75
1 5 -2 50.82 3.97
1 5 -2 46.43 4.27
1 5 -2 54 4.25
1 5 -2 48.33 2.59
1 5 -1 284.81 10.05
1 5 -1 287.55 7.22
1 5 -1 282.28 7.3
1 5 -1 292.65 9.57
1 5 0 14.78 2.37
1 5 0 11.99 1.61
1 5 0 11.83 1.76
1 5 0 8.92 1.73
1 5 0 10.58 1.47
1 5 0 14.88 2.45
1 5 1 95.25 4.83
1 5 1 97.43 4.48
1 5 1 90.37 5.44
1 5 1 94.01 5.37
1 5 1 95.84 5.45
1 5 1 95.26 4.77
1 5 1 95.48 5.28
1 5 2 8.83 1.42
1 5 2 10.55 1.99
1 5 2 10.25 1.75
1 5 2 10.93 1.3
1 5 2 10.62 1.69
1 5 2 8.89 1.51
1 5 2 8.93 1.72
1 5 3 51.68 4.11
1 5 3 42.71 3.64
1 5 3 46.12 3.62
1 5 3 47.09 2.31
1 5 3 46.45 3.29
1 5 3 45.74 3.6
1 5 3 45.63 3.65
1 5 3 46.6 2.71
1 5 4 10.87 1.86
1 5 4 13.49 2.18
1 5 4 15.05 2.09
1 5 4 11.4 1.72
1 5 4 12.67 1.01
1 5 4 13.91 2.02
1 5 4 13.57 1.26
1 5 4 15.72 2.25
1 5 4 12.94 1.06
1 5 5 153.94 7.48
1 5 5 154.75 7.2
1 5 5 152.83 6.71
1 5 5 147.14 3.26
1 5 5 152.36 6.69
1 5 5 154.66 3.77
1 5 5 153.42 7.46
1 5 5 140.98 2.59
1 5 6 3.3 1.07
1 5 6 3.62 0.6
1 5 6 3.83 1
1 5 6 4.33 1.19
1 5 6 4.33 1.35
1 5 6 2.3 0.77
1 5 7 58.68 4.54
1 5 7 60.72 2.87
1 5 7 60.02 4.53
1 5 7 58.09 4.46
1 5 7 61.17 5.14
1 5 7 58.34 5.07
1 5 8 3.41 1.15
1 5 8 4.15 0.89
1 5 8 2.78 1.12
1 5 8 3.83 1.55
1 5 8 3.21 1.04
1 5 8 2.62 0.8
1 5 9 24.03 2.37
1 5 9 24.28 3.13
1 5 9 22.78 3.09
1 5 9 24.95 2.97
1 5 9 23.88 2.61
1 5 9 25.77 3.64
1 5 9 25.79 3.72
1 5 10 0.53 0.55
1 5 10 0.7 0.91
1 5 10 1.18 0.69
1 5 10 0.57 0.63
1 5 10 1.15 1.07
1 5 10 0.73 0.67
1 5 10 -0.05 0.44
1 5 11 20.35 2.68
1 5 11 17.69 2.94
1 5 11 18.13 2.98
1 5 11 21.31 2.81
1 5 11 17.56 3.37
1 5 11 18.11 3.3
1 5 12 1.42 1.58
1 5 12 -0.07 0.59
1 5 12 0.96 0.98
1 5 12 0.34 0.4
1 5 13 3.06 1.57
1 5 13 0.89 0.78
1 5 13 1.09 1.16
1 5 13 0.34 0.64
1 5 14 -0.43 0.62
1 6 -9 -0.07 1.31
1 6 -9 4.55 1.88
1 6 -8 0.5 1.01
1 6 -8 -0.04 1
1 6 -7 1.18 1.31
1 6 -7 0.29 0.9
1 6 -6 9.69 2.42
1 6 -6 12.75 2.8
1 6 -5 93.22 5.83
1 6 -5 82.14 6.58
1 6 -5 94.76 7.03
1 6 -4 7.48 2.12
1 6 -4 5.71 1.45
1 6 -3 3.19 0.61
1 6 -3 3.84 1.25
1 6 -3 4.27 1.65
1 6 -3 4.14 1.48
1 6 -2 0.38 0.32
1 6 -2 2.45 1.63
1 6 -2 1.6 0.95
1 6 -2 1.25 0.66
1 6 -1 1.72 0.67
1 6 -1 1.61 0.67
1 6 -1 1.05 0.59
1 6 -1 1.01 0.84
1 6 0 0.03 0.35
1 6 0 -0.14 0.37
1 6 0 0.04 0.29
1 6 0 -0.24 0.56
1 6 1 25.31 2.76
1 6 1 23.71 3.09
1 6 1 27.17 2.61
1 6 1 26.33 3.14
1 6 1 26.26 2.72
1 6 1 25.63 2.93
1 6 2 -0.12 0.37
1 6 2 0.03 0.24
1 6 2 0.84 0.52
1 6 2 0.64 0.32
1 6 2 0.05 0.61
1 6 2 -0.04 0.29
1 6 2 0.98 0.8
1 6 3 3.72 1
1 6 3 3.66 0.75
1 6 3 3.8 0.99
1 6 3 3.49 1.11
1 6 3 3.5 1.23
1 6 3 3.45 0.93
1 6 3 2.76 0.99
1 6 3 2.98 0.99
1 6 4 4.49 1.27
1 6 4 5.44 0.71
1 6 4 4.87 1.3
1 6 4 4.94 0.9
1 6 4 5.13 1.38
1 6 4 6.22 1.57
1 6 4 3.83 1.16
1 6 5 13.05 2.31
1 6 5 11.44 1.97
1 6 5 13.47 2.36
1 6 5 12.94 2.11
1 6 5 10.89 0.71
1 6 5 11.99 1.31
1 6 5 11.34 2.18
1 6 5 10.63 0.71
1 6 6 0.84 0.55
1 6 6 1.78 1.09
1 6 6 1.72 0.66
1 6 6 0.05 0.66
1 6 6 0.46 0.6
1 6 6 1.01 0.34
1 6 7 13.68 2.61
1 6 7 14.57 2.38
1 6 7 14.55 2.37
1 6 7 12.35 2.25
1 6 7 13.79 2.54
1 6 8 103.47 6.64
1 6 8 106.18 6.45
1 6 8 96.42 3.09
1 6 8 101.59 6.27
1 6 8 109.53 7.51
1 6 8 108.76 7.58
1 6 9 1.21 0.71
1 6 9 -0.44 0.67
1 6 9 0.42 0.6
1 6 9 -0.08 0.75
1 6 9 0.24 0.76
1 6 10 35.61 3.96
1 6 10 33.16 3.86
1 6 10 35.33 3.98
1 6 10 34.29 4.61
1 6 10 34.73 4.64
1 6 11 0.14 0.93
1 6 11 -0.21 0.52
1 6 11 -0.4 0.45
1 6 11 0.54 0.58
1 6 11 0.01 0.58
1 6 12 -0.05 0.64
1 6 12 0.02 0.77
1 6 12 0.52 1
1 6 12 0.13 0.59
1 6 13 -0.12 0.45
1 6 13 -1.09 1.06
1 6 14 1.05 0.9
1 6 14 0.89 1.31
1 7 -8 3.62 2.33
1 7 -8 -0.94 1.34
1 7 -7 1.31 1.65
1 7 -7 1.25 1.23
1 7 -6 1.75 1.5
1 7 -6 1.07 1.01
1 7 -5 3.14 1.4
1 7 -5 1.28 0.8
1 7 -4 7.24 1.89
1 7 -4 6.65 1.77
1 7 -4 5.61 1.47
1 7 -3 32.69 3.9
1 7 -3 29.24 4.26
1 7 -2 13.04 2.37
1 7 -2 15.39 2.81
1 7 -2 14.85 1.82
1 7 -1 26.83 3.52
1 7 -1 32.13 4.06
1 7 -1 31.8 3.85
1 7 -1 27.9 2.72
1 7 0 2.95 1.01
1 7 0 3.02 0.95
1 7 0 3.31 1.33
1 7 0 2.06 1.13
1 7 0 1.87 0.77
1 7 1 5.05 1.39
1 7 1 5.53 1.65
1 7 1 2.2 0.61
1 7 1 4.27 1.11
1 7 1 3.44 1.16
1 7 2 16.84 2.86
1 7 2 20.14 2.89
1 7 2 14.89 2.42
1 7 2 18.29 2.67
1 7 2 21.3 2.77
1 7 3 16.8 2.7
1 7 3 16.89 2.65
1 7 3 18.86 2.78
1 7 3 16.74 2.59
1 7 3 19.48 2.35
1 7 3 19.5 2.89
1 7 3 16.22 1.87
1 7 4 6.73 1.76
1 7 4 7.38 1.78
1 7 4 7.7 1.84
1 7 4 8.27 1.12
1 7 4 6.94 1.26
1 7 4 6.85 1.65
1 7 4 8.36 1.84
1 7 5 14.64 2.44
1 7 5 14.36 2.59
1 7 5 14.04 2.36
1 7 5 16.33 2.7
1 7 5 15.42 1.78
1 7 5 14.57 1.05
1 7 5 15.66 2.83
1 7 5 14.43 1.03
1 7 6 1.27 0.7
1 7 6 2.19 0.65
1 7 6 1.93 0.58
1 7 6 2.23 1.04
1 7 6 1.45 0.68
1 7 6 1.27 0.76
1 7 7 33.85 3.74
1 7 7 37.58 3.94
1 7 7 34.79 2.21
1 7 7 35.12 4.33
1 7 7 34.3 4.13
1 7 7 31.35 4.18
1 7 8 41.25 4.53
1 7 8 44.52 4.37
1 7 8 41.69 4.18
1 7 8 46.77 5.16
1 7 8 41.08 4.92
1 7 9 0.13 0.6
1 7 9 0.93 0.62
1 7 9 0.93 0.67
1 7 9 0.6 0.84
1 7 9 0.81 0.77
1 7 10 0.95 1.14
1 7 10 3.51 1.7
1 7 10 2.53 1.25
1 7 10 1.38 0.89
1 7 10 4.73 1.65
1 7 11 -0.13 0.68
1 7 11 0.24 0.84
1 7 11 -0.56 0.89
1 7 11 -0.52 0.79
1 7 11 0.03 0.41
1 7 12 0.58 1.08
1 7 12 0.94 0.94
1 7 13 7.3 2.58
1 7 13 3.19 1.82
1 7 14 -0.48 0.39
1 8 -7 4.18 1.88
1 8 -6 9.46 2.67
1 8 -6 8.54 2.44
1 8 -5 11.09 3.16
1 8 -5 -0.35 0.41
1 8 -4 13.98 3.43
1 8 -4 8.81 2.16
1 8 -4 7.56 2.04
1 8 -3 11.88 2.94
1 8 -3 7.03 2.07
1 8 -3 8.34 2.09
1 8 -2 22.24 3.7
1 8 -2 20 3.22
1 8 -2 27.61 3.9
1 8 -1 35.51 4.35
1 8 -1 38.93 4.91
1 8 -1 40.95 4.56
1 8 -1 41.82 3.64
1 8 0 46.77 5.16
1 8 0 42.72 4.8
1 8 0 46.88 4.3
1 8 0 44.14 4.56
1 8 0 47.29 4.09
1 8 1 1.72 0.95
1 8 1 1.02 0.95
1 8 1 0.79 0.69
1 8 1 1.84 1.07
1 8 2 2.44 1.25
1 8 2 1.67 0.88
1 8 2 3.85 1.48
1 8 2 1.15 0.59
1 8 2 3.16 1.27
1 8 3 31.35 3.87
1 8 3 30.2 4.12
1 8 3 32.13 3.94
1 8 3 27.86 3.6
1 8 3 29.16 3.2
1 8 4 21.42 3.49
1 8 4 23.06 3.33
1 8 4 21.28 3.11
1 8 4 23.57 3.4
1 8 4 20.91 2.52
1 8 4 21.22 3.23
1 8 5 36.18 4.54
1 8 5 39.02 4.21
1 8 5 37.45 4.12
1 8 5 39.13 4.6
1 8 5 39.38 3.21
1 8 5 37.53 4.53
1 8 6 9.88 2.3
1 8 6 12.12 2.4
1 8 6 7.79 2.22
1 8 6 12.08 2.4
1 8 6 9.27 2.34
1 8 6 10.83 1.57
1 8 7 7.59 2.17
1 8 7 9.66 2.12
1 8 7 7.21 1.7
1 8 7 7.8 2.19
1 8 7 8.54 2.21
1 8 8 0.82 0.94
1 8 8 0.8 1.13
1 8 8 0.27 0.52
1 8 8 -0.64 0.64
1 8 8 0.56 0.94
1 8 9 0.71 0.78
1 8 9 0.36 0.48
1 8 9 0.32 0.85
1 8 9 -0.12 0.37
1 8 9 1.3 1.1
1 8 10 1.66 0.97
1 8 10 1.03 0.92
1 8 10 1.29 0.85
1 8 10 1.35 0.86
1 8 10 1.37 1.05
1 8 11 0.14 0.87
1 8 11 -0.61 0.53
1 8 11 -0.03 0.68
1 8 11 -0.51 0.85
1 8 11 -0.19 0.81
1 8 12 2.58 1.53
1 8 12 0.7 0.83
1 8 12 1.11 1.08
1 9 -6 9.74 3.09
1 9 -5 4.66 2.26
1 9 -4 4.91 2.06
1 9 -3 0.79 0.46
1 9 -3 0.57 0.93
1 9 -2 13.17 2.87
1 9 -2 16.14 3.55
1 9 -2 14.49 2.94
1 9 -1 0.17 0.99
1 9 -1 -0.51 1.54
1 9 -1 1.47 1.09
1 9 0 0.07 0.48
1 9 0 -2.04 1.58
1 9 0 0.87 0.98
1 9 0 -1.15 1.19
1 9 1 0.37 0.64
1 9 1 -0.39 0.99
1 9 1 0.69 0.5
1 9 1 -0.72 1.1
1 9 1 2.14 1.32
1 9 2 12.47 2.39
1 9 2 14.54 2.96
1 9 2 13.29 2.87
1 9 2 14.43 2.53
1 9 2 14.91 2.69
1 9 3 8.42 2.08
1 9 3 8.45 2.3
1 9 3 8.72 2.16
1 9 3 10.8 2.43
1 9 3 11.45 2.19
1 9 4 27.02 4.12
1 9 4 32.47 4.25
1 9 4 27.15 3.92
1 9 4 27.8 3.19
1 9 4 27.7 4.02
1 9 5 21.11 3.36
1 9 5 25.54 3.7
1 9 5 21.27 3.65
1 9 5 25.31 3.93
1 9 5 23.81 3.78
1 9 5 20.89 2.65
1 9 6 0.58 0.73
1 9 6 -1 1.29
1 9 6 1.65 0.84
1 9 6 1.88 1.09
1 9 6 -0.15 0.75
1 9 7 1.27 0.7
1 9 7 2.5 1.6
1 9 7 2.68 1.33
1 9 7 1.2 1.2
1 9 7 1.68 1.21
1 9 8 1.14 0.93
1 9 8 0.66 0.74
1 9 8 0.29 0.47
1 9 8 1.68 1.26
1 9 8 1.96 1.39
1 9 9 1.14 1.18
1 9 9 -0.19 0.85
1 9 9 -1.17 0.92
1 9 9 1.09 0.82
1 9 9 0.73 0.96
1 9 10 0.04 0.69
1 9 10 0.37 0.59
1 9 10 0 0.79
1 9 10 1.34 1.12
1 9 10 1.04 1.24
1 9 11 -0.22 0.59
1 9 11 0.75 1.59
1 9 11 0.24 0.6
1 9 12 0.91 1.19
1 10 -4 0.87 1.14
1 10 -3 -2.4 1.85
1 10 -2 -0.38 0.92
1 10 -2 -0.34 0.84
1 10 -1 0.37 0.69
1 10 -1 1.42 0.91
1 10 0 0.51 0.46
1 10 0 4.24 1.97
1 10 0 2.6 1.62
1 10 1 0.07 0.69
1 10 1 -1.4 1.29
1 10 1 1.85 1.11
1 10 1 1.25 1.03
1 10 1 1.14 1.1
1 10 2 1.04 1.03
1 10 2 0.12 0.82
1 10 2 1.88 1.06
1 10 2 -0.05 0.62
1 10 2 1.09 0.96
1 10 3 3.86 1.32
1 10 3 4.38 1.68
1 10 3 7.07 2.3
1 10 3 3.11 1.2
1 10 3 2.39 1.03
1 10 4 3.57 1.58
1 10 4 0.25 0.74
1 10 4 2.49 0.84
1 10 4 3.44 1.91
1 10 4 2.58 1.39
1 10 5 -0.78 0.9
1 10 5 0.04 0.59
1 10 5 -0.75 0.84
1 10 5 0.01 0.57
1 10 6 -0.21 0.82
1 10 6 0.91 0.85
1 10 6 -1.68 1.33
1 10 6 -0.07 0.64
1 10 6 -0.11 0.71
1 10 7 1.69 1.21
1 10 7 1.22 0.84
1 10 7 0.91 1.08
1 10 7 0.76 0.86
1 10 7 1.25 0.85
1 10 8 2.49 1.4
1 10 8 0.38 1.03
1 10 8 0.12 0.77
1 10 8 0.02 0.57
1 10 8 0.02 0.47
1 10 9 0.89 0.86
1 10 9 0.74 0.93
1 10 9 1.37 1.27
1 10 9 0.62 0.69
1 10 9 0.1 0.58
1 10 10 1.79 1.15
1 10 10 0.45 0.92
1 10 10 0.5 0.59
1 10 11 -0.05 0.53
1 10 12 -0.05 0.5
1 11 -2 -3.51 2.44
1 11 -1 0.47 0.89
1 11 -1 3.83 2.13
1 11 0 2.87 1.63
1 11 0 2.2 1.51
1 11 1 2.22 1.58
1 11 1 1.26 1.39
1 11 1 1.33 1.15
1 11 2 1.43 1.35
1 11 2 -0.4 0.63
1 11 2 -1.23 1.13
1 11 2 -0.25 0.82
1 11 3 1.5 1.07
1 11 3 -0.27 1.2
1 11 3 0.32 0.73
1 11 3 -0.4 1.07
1 11 4 0.08 0.75
1 11 4 0.11 0.94
1 11 4 -1.19 0.99
1 11 4 -0.48 0.72
1 11 5 1.06 0.8
1 11 5 -0.17 0.97
1 11 5 2.4 1.77
1 11 5 -0.31 0.98
1 11 6 3.39 1.49
1 11 6 2.2 1.38
1 11 6 2.09 1.36
1 11 6 3.96 1.84
1 11 7 -0.51 0.9
1 11 7 1.62 1.12
1 11 7 1.48 1.35
1 11 7 1.52 1.51
1 11 8 -1.67 1.54
1 11 8 0.34 0.54
1 11 8 0.05 0.8
1 11 8 -0.68 0.9
1 11 8 -2.37 1.77
1 12 4 0.05 0.74
1 12 4 0.11 0.7
1 12 4 -0.75 1.32
1 12 5 1.26 1.22
1 12 5 2.3 1.24
1 12 5 2.44 1.58
1 12 6 0.79 1.02
1 12 6 2.18 1.36
1 12 7 0.53 0.98
2 -10 -9 0.18 0.7
2 -10 -8 0.38 0.97
2 -10 -7 -0.59 0.89
2 -10 -6 1.65 1.57
2 -10 -5 0.79 1.19
2 -10 -4 -0.67 0.85
2 -10 -3 1.99 1.41
2 -10 -2 1.48 1.21
2 -10 -1 -0.17 0.95
2 -10 0 -0.24 0.6
2 -10 1 -0.63 0.61
2 -9 -9 0.07 0.5
2 -9 -8 0.17 0.51
2 -9 -7 0.71 0.91
2 -9 -6 0.71 0.63
2 -9 -5 -0.94 1.23
2 -9 -4 0.63 0.84
2 -9 -3 0.82 0.86
2 -9 -2 -0.19 0.7
2 -9 -2 0.61 0.65
2 -9 -1 -0.42 0.93
2 -9 -1 0.34 0.61
2 -9 0 0.48 0.5
2 -9 0 -0.16 0.72
2 -9 1 1.4 1.22
2 -9 1 1.91 1.34
2 -9 2 2.67 1.68
2 -9 2 0.76 0.88
2 -9 3 -1.03 0.81
2 -9 3 0.09 1.03
2 -9 4 -0.49 1.09
2 -8 -9 -0.22 0.73
2 -8 -8 2.19 1.35
2 -8 -7 -0.12 0.63
2 -8 -6 0.07 0.38
2 -8 -5 3.33 1.75
2 -8 -4 11.15 2.64
2 -8 -3 0.65 0.96
2 -8 -2 19.11 3.58
2 -8 -1 0.63 0.85
2 -8 -1 -0.09 0.98
2 -8 0 6.96 1.76
2 -8 0 6.03 1.78
2 -8 0 7.85 2.44
2 -8 1 4.83 1.52
2 -8 1 4.05 1.63
2 -8 1 5.29 1.87
2 -8 2 3.5 1.47
2 -8 2 6.05 2.13
2 -8 2 2.58 1.52
2 -8 3 2.52 1.37
2 -8 3 -0.09 0.9
2 -8 3 0.51 0.95
2 -8 4 -0.65 0.7
2 -8 4 -0.66 0.63
2 -8 4 -1.04 1.22
2 -8 5 2.77 1.71
2 -8 5 1.41 1.08
2 -8 5 0.74 0.87
2 -8 6 0.15 0.77
2 -8 6 0.37 0.71
2 -7 -9 0.95 0.66
2 -7 -8 -0.54 0.86
2 -7 -7 0.01 0.65
2 -7 -6 1.23 1.02
2 -7 -5 4.59 1.7
2 -7 -4 1.09 1.09
2 -7 -3 0.29 0.46
2 -7 -2 9.77 1.58
2 -7 -2 11.15 2.57
2 -7 -1 45.1 3.8
2 -7 -1 48.08 4.49
2 -7 -1 43.44 5.1
2 -7 0 13.98 2.39
2 -7 0 12.77 2.38
2 -7 0 14.46 2.97
2 -7 1 116.94 7.19
2 -7 1 107.43 7.32
2 -7 1 101.49 7.97
2 -7 2 11.39 2.37
2 -7 2 9.55 2.31
2 -7 2 9.4 2.55
2 -7 3 9.94 2.38
2 -7 3 11.98 2.8
2 -7 3 10.43 2.61
2 -7 4 1.5 1.34
2 -7 4 1.8 1.18
2 -7 4 1.46 1.31
2 -7 5 2.33 1.32
2 -7 5 1.8 1.03
2 -7 5 1.87 1.19
2 -7 6 2.05 1.22
2 -7 6 2.13 1.4
2 -7 6 1.04 1.11
2 -7 7 -0.05 0.93
2 -7 7 0.6 0.79
2 -6 -12 0.3 0.63
2 -6 -11 0.17 0.74
2 -6 -10 0.87 0.76
2 -6 -9 2.05 1.04
2 -6 -8 6.77 1.69
2 -6 -8 7.13 1.74
2 -6 -7 19.72 2.6
2 -6 -7 18.4 2.99
2 -6 -6 5.61 1.25
2 -6 -6 6.85 1.79
2 -6 -5 21.87 2.07
2 -6 -5 22.34 3.32
2 -6 -4 14 1.54
2 -6 -4 13.06 1.77
2 -6 -4 13.51 1.27
2 -6 -4 12.06 1.74
2 -6 -4 13.53 2.58
2 -6 -3 17.82 1.98
2 -6 -3 17.55 2.91
2 -6 -2 0.28 0.45
2 -6 -2 -0.79 0.74
2 -6 -1 33.64 3.31
2 -6 -1 27.74 3.81
2 -6 0 21.79 2.86
2 -6 0 22.03 3.43
2 -6 0 23.43 2.89
2 -6 1 30.8 3.47
2 -6 1 28.66 3.47
2 -6 1 28.56 3.94
2 -6 1 29.15 3.47
2 -6 2 49.5 4.69
2 -6 2 45.93 4.68
2 -6 2 41.55 4.89
2 -6 3 0.21 0.68
2 -6 3 1.24 0.98
2 -6 3 0.56 0.8
2 -6 4 28.5 4.1
2 -6 4 29.14 4.18
2 -6 4 29.09 4.18
2 -6 5 0.73 1.04
2 -6 5 0.48 0.48
2 -6 5 0.12 0.4
2 -6 6 2.28 1.26
2 -6 6 5.69 1.93
2 -6 6 3.76 1.52
2 -6 7 0.97 0.79
2 -6 7 -0.46 0.77
2 -6 7 1.22 1.07
2 -6 8 -0.57 0.67
2 -5 -12 -0.38 1.04
2 -5 -11 -0.68 0.71
2 -5 -10 0.94 0.68
2 -5 -9 5.01 1.64
2 -5 -8 51.35 4.3
2 -5 -8 57.18 4.96
2 -5 -7 26.67 3.14
2 -5 -7 30.06 3.33
2 -5 -6 9.41 1.67
2 -5 -6 11.46 2.07
2 -5 -6 10.06 1.14
2 -5 -5 0.18 0.25
2 -5 -5 0.61 0.31
2 -5 -5 0.35 0.23
2 -5 -5 0.6 0.27
2 -5 -5 0.69 0.38
2 -5 -5 -0.01 0.4
2 -5 -4 17.83 1.71
2 -5 -4 15.72 1.45
2 -5 -4 15.11 1.57
2 -5 -4 17.1 1.68
2 -5 -4 17.89 2.76
2 -5 -4 16.53 1.62
2 -5 -3 23.27 2.16
2 -5 -3 21.38 1.34
2 -5 -3 23.38 1.93
2 -5 -3 20.71 2.05
2 -5 -3 23.27 3.05
2 -5 -3 21.97 2.05
2 -5 -2 32.93 2.79
2 -5 -2 33.67 2.84
2 -5 -2 37.33 3.96
2 -5 -2 32.5 2.72
2 -5 -1 9.05 1.55
2 -5 -1 8.83 1.62
2 -5 -1 9.56 2.05
2 -5 0 25.68 2.9
2 -5 0 28.25 3.52
2 -5 0 31.3 2.72
2 -5 0 27.22 2.87
2 -5 1 6.76 1.55
2 -5 1 5.68 1.17
2 -5 1 5.66 1.33
2 -5 1 4.81 1.46
2 -5 2 19.68 2.85
2 -5 2 23.11 3.32
2 -5 2 21.89 2.29
2 -5 2 18.43 2.82
2 -5 3 1.07 0.85
2 -5 3 0.09 0.33
2 -5 3 -0.61 0.56
2 -5 3 0.2 0.64
2 -5 4 26.1 3.76
2 -5 4 25.05 3.67
2 -5 4 25.13 3.61
2 -5 4 31.6 4
2 -5 5 1.07 0.81
2 -5 5 1.99 1.31
2 -5 5 1.45 0.91
2 -5 6 3.97 1.85
2 -5 6 2.7 1.39
2 -5 6 0.9 0.83
2 -5 7 12.09 2.94
2 -5 7 11.36 2.82
2 -5 7 12.69 2.64
2 -5 8 1.09 0.73
2 -5 8 4.35 1.89
2 -5 8 2.99 1.32
2 -5 9 0.13 1.08
2 -4 -12 0.85 1.07
2 -4 -12 -0.27 1.08
2 -4 -11 1.18 1.21
2 -4 -11 1.01 0.61
2 -4 -10 0.51 0.9
2 -4 -10 -1.22 1.35
2 -4 -9 12.34 2.63
2 -4 -8 3.44 1.33
2 -4 -8 5.42 1.22
2 -4 -7 14.08 2.35
2 -4 -7 14.81 2.05
2 -4 -7 15.75 1.81
2 -4 -6 40.81 2.81
2 -4 -6 39.69 3.6
2 -4 -6 42.31 3.58
2 -4 -6 44.15 2.76
2 -4 -5 9.73 1.25
2 -4 -5 8.39 0.77
2 -4 -5 9.82 1.63
2 -4 -5 8.39 0.8
2 -4 -5 9.26 1.79
2 -4 -5 10.06 1.27
2 -4 -4 34.8 1.83
2 -4 -4 34.73 2.3
2 -4 -4 33.54 2.52
2 -4 -4 35.96 1.89
2 -4 -4 33.09 2.31
2 -4 -4 38.13 3.47
2 -4 -3 197.48 5.08
2 -4 -3 196.43 5.56
2 -4 -3 199.25 4.92
2 -4 -3 191.28 5.01
2 -4 -3 188.31 7.97
2 -4 -3 190.88 5.73
2 -4 -2 41 2.64
2 -4 -2 41.73 2.68
2 -4 -2 45.48 3.95
2 -4 -2 40.54 2.82
2 -4 -1 284.61 7.8
2 -4 -1 299.68 7.82
2 -4 -1 282.97 7.8
2 -4 -1 284.31 10.06
2 -4 -1 293.26 7.87
2 -4 -1 280.52 8.12
2 -4 0 3.43 0.94
2 -4 0 4.69 1.05
2 -4 0 2.57 0.75
2 -4 0 2.8 0.8
2 -4 0 2.43 1.14
2 -4 1 0.99 0.72
2 -4 1 0.36 0.39
2 -4 1 1.12 0.68
2 -4 1 0.46 0.63
2 -4 2 0.87 0.64
2 -4 2 -0.15 0.42
2 -4 2 0.17 0.68
2 -4 2 1.67 0.79
2 -4 3 7.1 1.69
2 -4 3 6.08 1.64
2 -4 3 5.12 1.55
2 -4 3 4.2 0.72
2 -4 4 8.27 1.97
2 -4 4 7.57 1.84
2 -4 4 8.64 1.38
2 -4 4 6.91 1.72
2 -4 4 9.32 1.58
2 -4 5 -0.29 0.43
2 -4 5 0.16 0.78
2 -4 5 -0.09 0.75
2 -4 5 0.45 0.37
2 -4 5 0.25 0.6
2 -4 6 7.71 2.1
2 -4 6 6.35 1.84
2 -4 6 5.58 1.63
2 -4 7 69.77 6.83
2 -4 7 65.85 6.47
2 -4 7 68.96 5.77
2 -4 8 -2.4 1.39
2 -4 8 0.54 1.25
2 -4 8 0.61 0.79
2 -4 9 3.6 1.89
2 -4 9 3.48 1.79
2 -4 9 3.79 1.69
2 -4 10 -1.22 0.88
2 -4 10 -0.56 0.82
2 -4 10 0.23 0.95
2 -4 11 4.43 2.32
2 -3 -12 0.36 0.96
2 -3 -12 0.55 0.89
2 -3 -11 -0.46 0.88
2 -3 -11 0.34 1.32
2 -3 -10 -0.75 1.18
2 -3 -10 0.75 0.77
2 -3 -9 -0.22 0.58
2 -3 -9 -0.68 0.63
2 -3 -8 63.12 5.55
2 -3 -8 65.79 3.42
2 -3 -7 -0.32 0.7
2 -3 -7 0.58 0.3
2 -3 -7 0.28 0.32
2 -3 -6 0.8 0.44
2 -3 -6 1.51 0.86
2 -3 -6 1.09 0.5
2 -3 -6 0.64 0.4
2 -3 -5 20.58 2.04
2 -3 -5 20.26 2.35
2 -3 -5 19.88 2.13
2 -3 -5 19.03 2.14
2 -3 -5 18.32 1.91
2 -3 -4 11.24 1.4
2 -3 -4 12.09 1.63
2 -3 -4 13.8 1.79
2 -3 -4 10.73 1.7
2 -3 -4 11.78 1.46
2 -3 -3 42.41 1.6
2 -3 -3 36.74 1.48
2 -3 -3 44.7 2.72
2 -3 -3 43.32 2.6
2 -3 -3 41.21 1.6
2 -3 -3 45.72 3.34
2 -3 -3 44.47 3.44
2 -3 -3 42.48 2.67
2 -3 -2 90.54 3.09
2 -3 -2 95.09 3.1
2 -3 -2 95.4 4.03
2 -3 -2 91.2 3.11
2 -3 -2 93.88 2.96
2 -3 -2 92.87 5.18
2 -3 -2 91.71 4.05
2 -3 -1 120.16 4.91
2 -3 -1 131.1 4.36
2 -3 -1 126.29 4.37
2 -3 -1 127.99 6.14
2 -3 0 0.33 0.34
2 -3 0 -0.44 0.56
2 -3 0 0.31 0.39
2 -3 0 1.23 0.6
2 -3 0 0.86 0.84
2 -3 1 23.92 2.36
2 -3 1 27.01 2.53
2 -3 1 25.63 2.9
2 -3 1 29.25 1.82
2 -3 1 24.99 2.64
2 -3 1 23.98 2.56
2 -3 2 108.58 5.31
2 -3 2 97.78 5.53
2 -3 2 97.17 5.19
2 -3 2 99.04 5.02
2 -3 2 83.44 5.38
2 -3 2 92.53 3.24
2 -3 3 110.41 5.25
2 -3 3 114.02 5.32
2 -3 3 102.96 5.86
2 -3 3 98.34 5.94
2 -3 3 107.52 3.81
2 -3 3 109.16 6.25
2 -3 4 0.2 0.26
2 -3 4 0.3 0.23
2 -3 4 0.86 0.79
2 -3 4 -0.41 0.6
2 -3 4 0.38 0.3
2 -3 4 0.02 0.31
2 -3 5 1.87 0.67
2 -3 5 2.07 0.7
2 -3 5 2.55 1.13
2 -3 5 2.28 1.01
2 -3 5 3.37 1.24
2 -3 6 5.51 1.13
2 -3 6 8.07 1.92
2 -3 6 7.13 1.91
2 -3 6 5.71 1.61
2 -3 7 15.36 2.97
2 -3 7 15.98 3.16
2 -3 7 16.29 2.61
2 -3 8 15.77 3.21
2 -3 8 12.84 2.69
2 -3 8 11.17 2.67
2 -3 8 11.86 2.33
2 -3 9 9.3 2.69
2 -3 9 12.61 2.98
2 -3 9 10.77 2.86
2 -3 9 9.81 2.08
2 -3 10 6.82 2.46
2 -3 10 8.25 2.56
2 -3 10 6.74 2.36
2 -3 11 4.09 2.19
2 -3 12 0.77 1.13
2 -2 -12 0.85 1.17
2 -2 -12 -1.44 0.71
2 -2 -11 1.26 0.92
2 -2 -11 2.49 1.39
2 -2 -10 16.87 3.34
2 -2 -10 20.17 3.66
2 -2 -9 21.19 3.52
2 -2 -9 20.06 3.37
2 -2 -8 19.67 3.1
2 -2 -8 20.21 3.26
2 -2 -7 0.4 0.21
2 -2 -7 0.94 0.76
2 -2 -7 0.22 0.76
2 -2 -7 0.56 0.32
2 -2 -6 18.11 2.53
2 -2 -6 17.85 1.58
2 -2 -6 18.55 1.68
2 -2 -5 10.2 1.54
2 -2 -5 9.43 1.22
2 -2 -5 8.14 1.53
2 -2 -5 11.14 1.42
2 -2 -4 -0.03 0.19
2 -2 -4 -0.01 0.23
2 -2 -4 0.28 0.55
2 -2 -4 -0.15 0.41
2 -2 -3 1.52 0.58
2 -2 -3 1.89 0.64
2 -2 -3 1.8 0.55
2 -2 -3 2.49 0.7
2 -2 -3 1.61 0.78
2 -2 -3 2.01 0.75
2 -2 -2 4.97 1.13
2 -2 -2 3.53 0.83
2 -2 -2 3.04 0.78
2 -2 -2 4.61 1.02
2 -2 -2 4.44 0.9
2 -2 -2 4.58 1.07
2 -2 -2 4.44 0.97
2 -2 -2 3.91 0.74
2 -2 -2 5.23 1.09
2 -2 -1 5.57 1.19
2 -2 -1 5.68 1.07
2 -2 -1 6.69 1.36
2 -2 -1 4.97 0.72
2 -2 -1 6.41 0.79
2 -2 -1 6.57 1.29
2 -2 -1 5.72 1.24
2 -2 -1 3.58 0.92
2 -2 -1 5.79 1.26
2 -2 0 6.88 1.22
2 -2 0 8.91 1.47
2 -2 0 7.98 1.39
2 -2 0 6.27 0.61
2 -2 0 7.66 1.48
2 -2 0 5.96 1.01
2 -2 0 6.87 1.02
2 -2 0 6.75 1.19
2 -2 0 6.97 1.3
2 -2 1 15.13 1.83
2 -2 1 17.31 1.77
2 -2 1 13.55 0.99
2 -2 1 13.96 1.87
2 -2 1 16.83 1.11
2 -2 1 15.67 2.03
2 -2 1 16.3 1.94
2 -2 1 13.58 1.76
2 -2 2 36.75 2.77
2 -2 2 36.67 3.1
2 -2 2 34.54 2.85
2 -2 2 34.75 2.04
2 -2 2 31.29 1.33
2 -2 2 36.18 2.83
2 -2 3 159.48 5.62
2 -2 3 154.86 6.54
2 -2 3 151.84 5.08
2 -2 3 163.34 5.98
2 -2 3 152.77 6.81
2 -2 4 183.62 5.74
2 -2 4 165.42 7.48
2 -2 4 175.58 6.32
2 -2 4 182.91 6.36
2 -2 4 175.95 7.85
2 -2 5 106.66 4.08
2 -2 5 99.11 6.12
2 -2 5 100.07 6.31
2 -2 6 91.78 6.3
2 -2 6 97.57 3.49
2 -2 6 93.46 6.46
2 -2 7 63.8 5.61
2 -2 7 53.38 5.24
2 -2 7 58.97 5.51
2 -2 8 82.88 7.16
2 -2 8 89.39 7.05
2 -2 8 87.26 7.14
2 -2 8 83.91 5.69
2 -2 9 7.52 2.27
2 -2 9 6.76 2.15
2 -2 9 7 2.15
2 -2 9 8.75 1.86
2 -2 10 2.87 1.52
2 -2 10 1.71 1.3
2 -2 10 2.51 1.5
2 -2 10 4.66 1.97
2 -2 11 -0.3 0.86
2 -2 11 -0.13 0.64
2 -2 11 0.66 0.79
2 -2 11 1.48 1.3
2 -2 12 5.67 1.95
2 -1 -12 -0.18 0.8
2 -1 -12 0.62 1.38
2 -1 -11 1.27 1.09
2 -1 -11 0.81 0.77
2 -1 -10 7.69 2.35
2 -1 -10 8.7 2.5
2 -1 -9 7.69 2.26
2 -1 -9 7.93 2.16
2 -1 -8 4.82 1.73
2 -1 -8 6.96 2.03
2 -1 -7 3.66 1.33
2 -1 -7 2.96 1.16
2 -1 -6 0.37 0.2
2 -1 -6 0.48 0.61
2 -1 -6 0.98 0.52
2 -1 -6 0.12 0.13
2 -1 -6 1.18 0.79
2 -1 -5 158.33 7.14
2 -1 -5 157.34 4.19
2 -1 -5 156.61 7.4
2 -1 -5 148.02 4.02
2 -1 -5 158.64 6.23
2 -1 -4 2.25 0.77
2 -1 -4 4.22 1
2 -1 -4 4.24 1.05
2 -1 -4 4.01 1
2 -1 -4 3.74 0.72
2 -1 -4 3.37 0.97
2 -1 -4 4.05 0.77
2 -1 -4 2.8 0.91
2 -1 -3 11.96 1.59
2 -1 -3 13.53 1.41
2 -1 -3 11.55 1.67
2 -1 -3 11.82 1.74
2 -1 -3 11.91 1.66
2 -1 -3 11.88 1.75
2 -1 -3 13.24 1.71
2 -1 -2 0.59 0.42
2 -1 -2 -0.38 0.35
2 -1 -2 -0.07 0.36
2 -1 -2 0.04 0.21
2 -1 -2 0.82 0.43
2 -1 -2 0.24 0.18
2 -1 -2 -0.23 0.31
2 -1 -2 -0.62 0.51
2 -1 -1 100.53 4.63
2 -1 -1 99.7 2.33
2 -1 -1 103.62 4.22
2 -1 -1 89.59 4.42
2 -1 -1 98.7 2.37
2 -1 -1 99.43 4.21
2 -1 -1 107.66 4.71
2 -1 -1 91.23 4.28
2 -1 -1 98.94 3.63
2 -1 -1 100.97 4.56
2 -1 -1 100.31 4.15
2 -1 0 111.46 4.7
2 -1 0 118.76 4.93
2 -1 0 104.75 3.29
2 -1 0 104.09 3.31
2 -1 0 128.6 4.92
2 -1 0 103.66 4.44
2 -1 0 98.94 2.91
2 -1 0 113.45 4.69
2 -1 0 107.07 4.29
2 -1 1 163.49 5.45
2 -1 1 175.01 5.11
2 -1 1 161.18 4.03
2 -1 1 169.95 5.14
2 -1 1 150.14 5.49
2 -1 1 172.34 5.91
2 -1 1 168.28 5.74
2 -1 2 191.77 5.69
2 -1 2 183.61 6.03
2 -1 2 186.88 4.88
2 -1 2 186.99 6.19
2 -1 2 189.01 6.28
2 -1 2 180.83 6.39
2 -1 2 191.16 6.4
2 -1 3 0.16 0.3
2 -1 3 0.54 0.31
2 -1 3 0.64 0.29
2 -1 3 1.61 0.82
2 -1 3 0.8 0.41
2 -1 3 0.46 0.54
2 -1 4 88.24 3.48
2 -1 4 81.85 4.94
2 -1 4 89.03 4.46
2 -1 4 87.31 5.15
2 -1 4 87.34 4.52
2 -1 4 87.75 5.1
2 -1 5 18.16 1.45
2 -1 5 17.83 2.52
2 -1 5 20.6 2.69
2 -1 5 20.08 2.7
2 -1 6 3.38 1.17
2 -1 6 3.15 1.21
2 -1 6 2.15 0.43
2 -1 6 2.76 1.18
2 -1 7 32.25 3.81
2 -1 7 32.08 3.83
2 -1 7 32.69 3.8
2 -1 8 66.57 5.88
2 -1 8 74.39 6.32
2 -1 8 72.89 6.08
2 -1 9 88.48 7.39
2 -1 9 82.72 6.36
2 -1 9 87.4 7.13
2 -1 9 90.96 7.36
2 -1 10 25.14 4.25
2 -1 10 23.03 3.89
2 -1 10 25.04 3.62
2 -1 10 20.02 3.73
2 -1 10 24.4 3.61
2 -1 11 1.81 1.04
2 -1 11 2.87 1.78
2 -1 11 1.67 1.1
2 -1 11 1.8 1.23
2 -1 11 2.52 1.13
2 -1 12 -0.1 0.72
2 -1 12 2.02 1.36
2 -1 12 -0.06 0.54
2 -1 12 0.49 0.48
2 0 -11 4.69 1.98
2 0 -11 8.18 2.84
2 0 -10 7.54 2.34
2 0 -10 6.07 2.14
2 0 -9 0.77 1.08
2 0 -9 0.81 1.38
2 0 -8 22.23 3.53
2 0 -8 23.38 3.56
2 0 -7 -0.59 0.4
2 0 -7 0.13 0.5
2 0 -7 0.54 0.75
2 0 -6 0.93 0.59
2 0 -6 0.63 0.42
2 0 -6 -0.23 0.67
2 0 -6 0.84 0.83
2 0 -6 -0.03 0.7
2 0 -5 6.52 1.23
2 0 -5 5.5 1.24
2 0 -5 6.77 1.11
2 0 -5 6.18 1.53
2 0 -5 5.5 0.52
2 0 -5 4.71 0.52
2 0 -5 8.77 1.72
2 0 -4 718.78 13.22
2 0 -4 721.54 8.65
2 0 -4 746.34 14.85
2 0 -4 717.12 10.97
2 0 -4 725.47 12.5
2 0 -3 0.22 0.3
2 0 -3 0.61 0.4
2 0 -3 0.27 0.25
2 0 -3 0.13 0.21
2 0 -3 0.04 0.25
2 0 -3 0.14 0.23
2 0 -3 0.45 0.62
2 0 -2 166.89 5.91
2 0 -2 166.98 5.83
2 0 -2 158.05 3.34
2 0 -2 160.66 4.68
2 0 -2 169.7 6.19
2 0 -2 158.77 4.83
2 0 -2 168.51 5.76
2 0 -2 163.12 6.02
2 0 -2 153.78 5.48
2 0 -1 0.66 0.34
2 0 -1 -0.37 0.5
2 0 -1 0.58 0.26
2 0 -1 0.87 0.46
2 0 -1 0.08 0.37
2 0 -1 0.51 0.21
2 0 -1 0.1 0.3
2 0 -1 1.03 0.52
2 0 -1 0.44 0.51
2 0 -1 0.51 0.44
2 0 0 2533.78 21.71
2 0 0 2594.8 15.75
2 0 0 2638.38 21.21
2 0 0 2595.25 15.78
2 0 0 2722.17 20.83
2 0 0 2707.62 19.89
2 0 0 2540.16 15.78
2 0 0 2667.34 21.31
2 0 0 2558.56 21.31
2 0 1 839.12 11.93
2 0 1 748 9.74
2 0 1 662.27 9.26
2 0 1 776.04 10.14
2 0 1 716.47 11.23
2 0 1 757.88 9.97
2 0 1 697.63 6.02
2 0 1 749.32 10.95
2 0 1 720.26 11.18
2 0 2 573.54 9.49
2 0 2 622.75 10.22
2 0 2 590.76 9.27
2 0 2 604.74 10.23
2 0 2 544.75 10.04
2 0 2 612.46 10.02
2 0 2 584.34 10.67
2 0 3 53.62 2.76
2 0 3 50.74 3.28
2 0 3 49.27 2.94
2 0 3 44.55 3.12
2 0 3 52.05 3.25
2 0 3 49.53 3.29
2 0 4 69.2 2.95
2 0 4 68.83 4.19
2 0 4 76.84 4.13
2 0 4 67.47 4.23
2 0 4 71.21 3.91
2 0 4 70.14 4.29
2 0 5 59.04 2.47
2 0 5 61.32 4.38
2 0 5 56.51 3.59
2 0 5 57.88 4.17
2 0 6 71.71 2.29
2 0 6 81.33 5.39
2 0 6 74.93 5.26
2 0 6 79.39 4.41
2 0 6 77.41 5.19
2 0 7 4.04 1.19
2 0 7 2.88 1.08
2 0 7 3.24 0.96
2 0 7 2.88 1.31
2 0 8 48.8 4.63
2 0 8 42.66 4.45
2 0 8 41.7 4.43
2 0 8 45.83 4.62
2 0 9 44.78 3.71
2 0 9 41.47 4.89
2 0 9 36.68 4.51
2 0 9 40.78 4.74
2 0 9 43.96 4.48
2 0 9 42.73 4.06
2 0 10 39.69 4.4
2 0 10 40.33 5.15
2 0 10 41.58 4.94
2 0 10 48.18 5.39
2 0 10 37.88 3.98
2 0 10 43.12 3.68
2 0 11 0.11 0.62
2 0 11 0.04 0.84
2 0 11 0.03 0.55
2 0 11 -0.26 0.61
2 0 11 -0.69 1.11
2 0 12 0.73 0.59
2 0 12 2.38 1.47
2 0 12 -0.41 0.93
2 0 12 2.13 1.37
2 0 12 0.26 0.86
2 0 13 -0.47 1.14
2 0 13 1.03 1.05
2 0 13 -0.67 0.8
2 1 -11 -1.86 1.65
2 1 -11 -2.3 1.75
2 1 -10 0.8 1.32
2 1 -10 -3.06 1.95
2 1 -9 15.21 3.17
2 1 -9 7.97 1.85
2 1 -8 14.49 2.89
2 1 -8 9.01 1.93
2 1 -7 7.52 1.38
2 1 -7 6.38 1.11
2 1 -7 7.08 1.91
2 1 -7 8.74 1.76
2 1 -6 41.51 3.28
2 1 -6 40.52 2.48
2 1 -6 42.45 4.38
2 1 -6 48.96 4.53
2 1 -6 42.05 2.91
2 1 -5 2.54 0.68
2 1 -5 2.94 0.8
2 1 -5 2.25 0.91
2 1 -5 2.8 0.64
2 1 -4 9.99 1.05
2 1 -4 8.64 1.45
2 1 -4 9.9 0.9
2 1 -4 11.64 1.87
2 1 -4 9.88 1.34
2 1 -3 34.02 2.34
2 1 -3 27.68 2.46
2 1 -3 32.26 1.85
2 1 -3 32.33 1.73
2 1 -3 33.39 2.38
2 1 -2 10.05 1.52
2 1 -2 9.43 1.15
2 1 -2 9.84 1.19
2 1 -2 6.52 1.29
2 1 -2 10.6 0.99
2 1 -2 7.26 1.04
2 1 -2 9.65 1.33
2 1 -1 267.19 5.67
2 1 -1 291.97 7.67
2 1 -1 276.3 5.72
2 1 -1 290.8 6.5
2 1 -1 265.65 6.99
2 1 -1 255.38 6.6
2 1 -1 285.83 7.42
2 1 0 165.97 4.45
2 1 0 164.76 5.51
2 1 0 164.09 4.46
2 1 0 183.24 5.31
2 1 0 167.39 4.89
2 1 0 159.51 4.68
2 1 0 173.68 5.29
2 1 1 9466.32 36.04
2 1 1 9365.57 40.53
2 1 1 9832.13 36.98
2 1 1 9406.27 35.67
2 1 2 227.64 6.13
2 1 2 252.16 6.48
2 1 2 246.43 6.5
2 1 2 247.88 6.57
2 1 2 252.44 4.35
2 1 2 249 5.5
2 1 2 240.11 6.53
2 1 3 336.61 8.29
2 1 3 347.93 8.22
2 1 3 315.88 7.58
2 1 3 322.95 6.42
2 1 3 336.89 8.15
2 1 4 0.92 0.51
2 1 4 0.47 0.38
2 1 4 0.71 0.5
2 1 4 0.14 0.26
2 1 4 0.53 0.37
2 1 5 240.01 8.43
2 1 5 237.87 7.84
2 1 6 87.14 5.33
2 1 6 93.58 5.66
2 1 6 104.22 5.92
2 1 6 95.4 4.56
2 1 6 88.44 5.2
2 1 7 22.59 1.34
2 1 7 23.68 3.13
2 1 7 22.57 2.98
2 1 7 21.63 2.84
2 1 7 20.04 2.16
2 1 7 23.92 2.27
2 1 7 21.76 2.8
2 1 8 33.24 3.75
2 1 8 30.82 3.71
2 1 8 29.65 3.47
2 1 8 32.23 3.77
2 1 8 32.06 2.81
2 1 8 29.46 2.74
2 1 9 18.14 2.9
2 1 9 15.01 2.77
2 1 9 16 2.96
2 1 9 16 2.24
2 1 9 18.05 2.56
2 1 9 19.31 2.87
2 1 10 4.54 1.27
2 1 10 2.54 1.32
2 1 10 3.78 1.54
2 1 10 2.54 1.42
2 1 10 1.36 0.54
2 1 10 2.37 1
2 1 11 16.65 3.29
2 1 11 13.78 2.98
2 1 11 16.67 3.37
2 1 11 11.95 2.53
2 1 11 13.34 2.34
2 1 12 -0.07 0.88
2 1 12 0.33 0.6
2 1 12 0.85 0.76
2 1 12 0.12 1
2 1 13 2.5 1.38
2 1 13 3.91 1.71
2 1 13 2.47 1.38
2 1 13 4.97 1.83
2 1 14 0.53 0.83
2 2 -11 -1.18 1.77
2 2 -10 -1.33 1.56
2 2 -10 0.41 0.66
2 2 -9 2.15 1.46
2 2 -9 -0.42 1.13
2 2 -8 66.65 6.41
2 2 -8 60.83 5.8
2 2 -7 118.12 8.06
2 2 -7 109.58 7.4
2 2 -6 12.07 1.81
2 2 -6 13.24 2.63
2 2 -6 6.94 1.6
2 2 -6 11.75 1.22
2 2 -5 4.25 0.75
2 2 -5 4.33 0.62
2 2 -5 3.72 0.57
2 2 -4 48.01 3.54
2 2 -4 48.52 2.37
2 2 -4 51.85 4.04
2 2 -4 47.9 2.54
2 2 -3 11.64 1.58
2 2 -3 11.88 1.27
2 2 -3 10.76 1.25
2 2 -3 11.32 1.89
2 2 -2 114.28 5.5
2 2 -2 102.08 4.45
2 2 -2 110.64 5.27
2 2 -2 107.79 4
2 2 -1 143.66 5.03
2 2 -1 156.83 6.02
2 2 -1 138.39 4.93
2 2 -1 146.4 5.65
2 2 -1 135.93 4.69
2 2 0 -0.07 0.36
2 2 0 1.23 0.66
2 2 0 0.27 0.46
2 2 0 0.32 0.55
2 2 0 0.94 0.55
2 2 1 167.34 5.32
2 2 1 175.85 5.68
2 2 1 155.14 5.22
2 2 1 174.23 4.75
2 2 1 182.3 5.73
2 2 1 154.08 4.87
2 2 2 442.16 9.07
2 2 2 421.08 9
2 2 2 418.54 8.67
2 2 2 402.44 8.61
2 2 2 414.62 8.74
2 2 2 464.72 9.38
2 2 2 424.75 6.56
2 2 2 387.11 7.51
2 2 2 421.64 8.6
2 2 3 1.45 0.59
2 2 3 1.26 0.3
2 2 3 1.32 0.64
2 2 3 1.84 0.59
2 2 3 0.82 0.47
2 2 3 0.93 0.5
2 2 4 36.11 3.35
2 2 4 38.09 3.08
2 2 4 36.88 3.08
2 2 4 38.28 3.13
2 2 4 33.6 2.64
2 2 4 38 2.72
2 2 5 33.1 3.2
2 2 5 30.39 2.93
2 2 5 34.89 3.15
2 2 5 28.87 2.49
2 2 5 28.73 1.37
2 2 5 28.97 2.54
2 2 6 479.31 12.49
2 2 6 464.6 12.29
2 2 6 441.55 9.89
2 2 6 461.15 7.24
2 2 6 470.21 10.86
2 2 6 462.86 10.99
2 2 7 2.38 0.8
2 2 7 1.33 0.7
2 2 7 1.35 0.76
2 2 7 1.69 0.83
2 2 7 0.77 0.54
2 2 7 0.67 0.17
2 2 8 18.66 2.78
2 2 8 19.29 2.86
2 2 8 18.92 2.86
2 2 8 20.18 1.6
2 2 8 19.5 2.02
2 2 8 18.8 2.51
2 2 9 1.7 1.11
2 2 9 0.18 0.09
2 2 9 0.68 0.63
2 2 9 1.37 1.08
2 2 9 0.06 0.62
2 2 9 -0.73 1.2
2 2 9 0.42 0.3
2 2 10 7.19 1.69
2 2 10 6.57 1.93
2 2 10 7.8 2.14
2 2 10 2.76 1.11
2 2 10 7.35 2.15
2 2 10 8.12 1.53
2 2 11 3.83 1.3
2 2 11 3.73 1.43
2 2 11 3.34 1.34
2 2 11 5.16 1.77
2 2 11 4.17 1.59
2 2 11 5.1 1.44
2 2 12 -0.31 0.63
2 2 12 -0.63 0.72
2 2 12 -0.15 1.16
2 2 12 -0.27 0.68
2 2 13 3.28 1.39
2 2 13 4.4 2.04
2 2 13 2.13 1.29
2 2 13 2.53 1.47
2 2 14 -0.38 0.57
2 2 14 -0.21 0.96
2 2 14 0.2 0.71
2 3 -10 -0.6 0.58
2 3 -10 0.38 1.1
2 3 -9 -0.12 0.52
2 3 -9 1.51 1.13
2 3 -8 7.25 2.32
2 3 -8 6.49 2.11
2 3 -7 78.41 6.83
2 3 -7 75.04 6.46
2 3 -6 124.39 8.12
2 3 -6 121.78 7.7
2 3 -5 3.91 0.8
2 3 -5 3.22 0.48
2 3 -5 4.77 1.87
2 3 -4 102.27 5.78
2 3 -4 102.55 4.21
2 3 -4 101.6 6.31
2 3 -4 95.08 3
2 3 -3 203.71 7.72
2 3 -3 207.62 6.17
2 3 -3 207.05 8.39
2 3 -3 190.75 4.73
2 3 -2 223.42 7.71
2 3 -2 235.16 6.78
2 3 -2 218.21 8.03
2 3 -1 7.94 1.48
2 3 -1 7.95 1.39
2 3 -1 8.46 1.47
2 3 -1 8.12 1.4
2 3 -1 9.56 1.43
2 3 -1 8.54 0.72
2 3 0 72.32 2.85
2 3 0 68.6 3.9
2 3 0 71.22 4.01
2 3 0 71.48 3.92
2 3 0 71.25 3.86
2 3 0 74.9 4.21
2 3 1 98.79 3.83
2 3 1 99.6 4.71
2 3 1 108.79 4.64
2 3 1 100.27 4.66
2 3 1 106.78 4.85
2 3 1 114.37 4.93
2 3 2 24.01 2.05
2 3 2 22.19 2.21
2 3 2 24.99 2.17
2 3 2 22.26 2.21
2 3 2 27.24 2.49
2 3 2 24.29 2.1
2 3 3 29.17 2.31
2 3 3 20.4 2.42
2 3 3 26.26 2.47
2 3 3 28.1 2.65
2 3 3 30.43 2.8
2 3 3 26.24 2.54
2 3 3 28.71 1.39
2 3 3 28.68 2.23
2 3 4 3.48 1.04
2 3 4 1.58 0.55
2 3 4 2.79 0.93
2 3 4 2.1 0.7
2 3 4 0.64 0.5
2 3 4 3.36 1
2 3 5 7.68 1.51
2 3 5 7.96 1.6
2 3 5 5.84 1.23
2 3 5 6.4 1.34
2 3 5 8.1 1.27
2 3 6 56.19 4.34
2 3 6 49.09 4.03
2 3 6 58.71 4.42
2 3 6 54.66 2
2 3 6 57.52 3.57
2 3 7 112.03 4.88
2 3 7 103.92 6.37
2 3 7 106.44 6.2
2 3 7 117.33 6.58
2 3 7 107.52 3.58
2 3 7 110.41 5.31
2 3 8 3.76 1.48
2 3 8 2.49 0.85
2 3 8 3.1 1.24
2 3 8 0.54 0.75
2 3 8 1.54 0.88
2 3 8 2.64 0.69
2 3 8 2.22 0.66
2 3 9 2.12 0.93
2 3 9 1.66 0.62
2 3 9 -0.03 0.83
2 3 9 1.52 0.77
2 3 9 0.16 0.79
2 3 9 2.24 1.01
2 3 9 2.09 0.7
2 3 10 15.35 2.96
2 3 10 19.47 2.99
2 3 10 19.84 3.22
2 3 10 17.81 3.08
2 3 10 16.97 2.11
2 3 10 16.46 2.66
2 3 11 29.67 3.98
2 3 11 27.45 4.06
2 3 11 31.8 4.33
2 3 11 30.92 3.1
2 3 11 27.37 3.64
2 3 11 27.54 4.08
2 3 12 15.47 3.04
2 3 12 16.34 3.4
2 3 12 17.07 3.31
2 3 12 16.93 3.35
2 3 12 16.74 2.94
2 3 13 0.4 0.79
2 3 13 0.42 0.62
2 3 13 0.69 0.62
2 3 13 0.64 1.03
2 3 14 1.22 1.15
2 3 14 0.87 1.1
2 3 14 0.31 0.65
2 3 14 -0.32 0.57
2 4 -10 11.6 3.31
2 4 -9 1.77 1.03
2 4 -9 5.01 2.32
2 4 -8 -1.14 1.02
2 4 -8 3.46 2.2
2 4 -7 0.98 0.98
2 4 -7 4.05 2.11
2 4 -6 28.14 4
2 4 -6 34.76 4.64
2 4 -5 38.66 4.45
2 4 -4 56.16 4.77
2 4 -4 58.04 3.71
2 4 -4 60.08 5.11
2 4 -3 7.71 1.68
2 4 -3 7.16 1.66
2 4 -3 8.13 1.41
2 4 -2 69.71 4.84
2 4 -2 69.41 4.16
2 4 -2 65.62 4.77
2 4 -1 276.48 9.19
2 4 -1 291.22 8.64
2 4 -1 282.42 5.07
2 4 -1 277.57 9.37
2 4 0 8.97 1.86
2 4 0 5.16 1.38
2 4 0 7.03 1.36
2 4 0 5.61 1.25
2 4 0 5.42 1.23
2 4 0 6.5 0.92
2 4 1 137.05 6.07
2 4 1 135.78 5.5
2 4 1 128.4 5.92
2 4 1 129.47 5.86
2 4 1 129.91 6.06
2 4 1 132.27 4.75
2 4 2 14.34 1.78
2 4 2 13.4 1.82
2 4 2 14.71 2.11
2 4 2 17.73 1.91
2 4 2 14.65 2.07
2 4 3 125.58 5.85
2 4 3 126.46 5.91
2 4 3 134.43 5
2 4 3 116.98 5.75
2 4 3 124.87 5.55
2 4 4 3.32 1.1
2 4 4 5.19 1
2 4 4 4.05 1.07
2 4 4 4.72 0.93
2 4 4 5.58 1.33
2 4 5 30.21 3.18
2 4 5 28.58 2.97
2 4 5 33.54 3.17
2 4 5 29.68 2.25
2 4 6 20.74 2.64
2 4 6 20.81 2.83
2 4 6 22.15 2.81
2 4 6 21.85 2.04
2 4 6 26.66 3.32
2 4 7 22.98 2.5
2 4 7 25.88 3.11
2 4 7 21.17 3.15
2 4 7 22.48 2.97
2 4 7 23.26 2.24
2 4 7 27.17 3.32
2 4 8 0.04 0.3
2 4 8 -0.31 0.65
2 4 8 0.18 0.45
2 4 8 0.02 0.34
2 4 8 1.45 0.98
2 4 8 0.3 0.3
2 4 8 0.39 1.1
2 4 9 12.41 2.42
2 4 9 9.74 1.59
2 4 9 9.83 2.17
2 4 9 10.85 2.33
2 4 9 8.23 1.25
2 4 9 8.96 2.38
2 4 9 9.88 1.7
2 4 10 0.15 0.53
2 4 10 0.42 0.42
2 4 10 1.73 1.01
2 4 10 -1.22 1.25
2 4 10 1.35 0.99
2 4 10 0.24 0.35
2 4 10 1.04 0.63
2 4 11 1.14 0.62
2 4 11 1.62 1.19
2 4 11 1.18 0.84
2 4 11 0.62 0.49
2 4 11 1.26 0.96
2 4 12 0.47 0.63
2 4 12 3.12 1.38
2 4 12 3.23 1.36
2 4 12 2.35 1.09
2 4 12 1.56 1.04
2 4 13 0.74 0.9
2 4 13 -0.83 0.78
2 4 13 1.11 1.05
2 4 13 -1.2 1.26
2 4 13 0.14 0.87
2 4 14 0.43 0.67
2 4 14 -0.11 0.81
2 4 14 0.76 0.7
2 4 15 -1.15 1.21
2 4 15 0.51 1.22
2 5 -9 -0.95 1.28
2 5 -9 3.2 1.6
2 5 -8 4.31 1.41
2 5 -8 4.98 1.76
2 5 -7 5.76 1.79
2 5 -7 7.73 2.31
2 5 -6 42.76 5.17
2 5 -6 40.63 4.72
2 5 -5 2.96 1.81
2 5 -4 2.72 1.35
2 5 -4 3.14 1.3
2 5 -3 1.88 0.44
2 5 -3 1.24 0.96
2 5 -2 2.06 1.16
2 5 -2 0.87 0.89
2 5 -2 0.14 0.39
2 5 -1 34.6 3.57
2 5 -1 39.74 2.27
2 5 -1 37.28 3.78
2 5 -1 38.15 2.78
2 5 0 28.46 2.65
2 5 0 22.5 2.86
2 5 0 24.64 2.94
2 5 0 26.28 2.15
2 5 1 9.44 2.01
2 5 1 6.07 1.3
2 5 1 5.21 1.25
2 5 1 3.91 1.22
2 5 1 5.57 1.08
2 5 1 9.92 1.77
2 5 2 84.97 5.29
2 5 2 89.79 4.47
2 5 2 86.87 5.34
2 5 2 83.99 5.18
2 5 2 89.98 4.65
2 5 2 93.13 5.17
2 5 3 140.87 6.78
2 5 3 149.1 5.41
2 5 3 141.04 6.76
2 5 3 146.24 6.34
2 5 3 144.31 6.84
2 5 4 185.71 7.82
2 5 4 190.97 5.9
2 5 4 192.54 7.97
2 5 4 190.22 5.91
2 5 4 185.79 7.7
2 5 4 189.75 8.14
2 5 5 4.96 0.94
2 5 5 4.93 1.4
2 5 5 5.22 0.96
2 5 5 5.06 1.38
2 5 5 5.46 1.66
2 5 5 6.13 1.61
2 5 6 4.04 1.52
2 5 6 2.98 0.7
2 5 6 3.04 1.07
2 5 6 6.66 1.77
2 5 6 3.15 1.1
2 5 6 4.19 1.42
2 5 7 4.55 1.52
2 5 7 4.83 0.9
2 5 7 6.8 1.6
2 5 7 4.54 1.43
2 5 7 5.23 1.57
2 5 7 3.1 1.25
2 5 8 25.29 3.47
2 5 8 24.82 2.93
2 5 8 24.75 3.26
2 5 8 25.44 3.35
2 5 8 26.52 2.33
2 5 8 24.43 3.32
2 5 9 0.53 0.45
2 5 9 0.7 0.46
2 5 9 0.32 0.44
2 5 9 0.92 0.89
2 5 9 0.67 0.45
2 5 9 0.83 0.71
2 5 10 65.91 5.98
2 5 10 69.83 5.99
2 5 10 74.31 5.08
2 5 10 74.2 6.23
2 5 10 66.56 4.83
2 5 10 67.16 6.29
2 5 11 2.73 0.92
2 5 11 2.51 1.05
2 5 11 3.35 1.49
2 5 11 3.11 1.41
2 5 11 1.2 0.57
2 5 12 1.28 0.98
2 5 12 0.54 0.7
2 5 12 1.28 1.29
2 5 12 0.45 0.62
2 5 13 0.72 0.61
2 5 13 1.11 1.01
2 5 13 -0.67 1.02
2 5 13 0.07 0.58
2 5 14 0.93 1.1
2 5 14 -0.96 1.28
2 5 14 0.54 0.94
2 5 14 -0.73 0.52
2 6 -8 3.7 2.06
2 6 -8 0.95 0.87
2 6 -7 3.27 2.06
2 6 -7 3.06 1.59
2 6 -6 1.94 1.6
2 6 -6 1.18 1.1
2 6 -5 42.37 4.99
2 6 -4 6.98 2.2
2 6 -4 8.69 2.26
2 6 -3 10.55 2.58
2 6 -3 9.23 1.07
2 6 -3 11.84 2.4
2 6 -2 17.39 2.96
2 6 -2 15.45 2.67
2 6 -2 14.04 1.62
2 6 -1 0.87 1.95
2 6 -1 0.36 0.26
2 6 -1 1.48 0.55
2 6 -1 0.75 0.51
2 6 0 10.79 2.14
2 6 0 12.33 1.63
2 6 0 10.32 1.64
2 6 1 1.3 1.29
2 6 1 1.35 0.81
2 6 1 0.52 0.42
2 6 1 0.71 0.78
2 6 1 0.08 0.3
2 6 2 16.13 2.47
2 6 2 11.64 2.18
2 6 2 18.04 2.18
2 6 2 18.06 2.74
2 6 2 19.2 2.36
2 6 2 19.51 2.56
2 6 3 67.19 5.02
2 6 3 67.35 3.88
2 6 3 67.81 5.08
2 6 3 71.09 4.72
2 6 3 67.3 4.89
2 6 4 26.57 3.15
2 6 4 23.84 2.14
2 6 4 25.09 3.08
2 6 4 24.56 2.91
2 6 4 26.83 1.99
2 6 4 24.37 3.15
2 6 5 161.21 7.97
2 6 5 168.34 5.38
2 6 5 151.07 7.71
2 6 5 149.8 7.95
2 6 5 155.25 3.48
2 6 5 167.95 5.27
2 6 5 144.9 7.59
2 6 5 151.31 7.98
2 6 6 38.67 4.07
2 6 6 34.98 3.77
2 6 6 37.78 2.51
2 6 6 40.14 4.02
2 6 6 35.82 3.96
2 6 6 37.09 2.33
2 6 6 35.42 4.07
2 6 7 9.61 2.13
2 6 7 10.57 2.15
2 6 7 11.43 1.43
2 6 7 12.36 2.32
2 6 7 11.1 2.28
2 6 7 12.61 2.3
2 6 7 10.29 1.2
2 6 8 18.88 2.87
2 6 8 17.71 2.99
2 6 8 17.6 2.87
2 6 8 18.01 3.15
2 6 8 19.23 1.72
2 6 8 19.06 3.17
2 6 9 53.37 4.74
2 6 9 52.42 5.03
2 6 9 54.5 5.07
2 6 9 46.08 5.4
2 6 9 50.09 5.31
2 6 9 54.16 3.08
2 6 10 6.03 1.85
2 6 10 9.85 2.09
2 6 10 9.84 2.38
2 6 10 7.02 2.1
2 6 10 9.55 2.32
2 6 11 -0.76 1.03
2 6 11 1.21 0.88
2 6 11 1.41 0.98
2 6 11 0.71 0.58
2 6 11 0.58 0.52
2 6 12 1.42 1.09
2 6 12 1.67 1
2 6 12 1.19 0.84
2 6 12 1.85 1.19
2 6 13 0.09 0.86
2 6 13 -0.31 0.68
2 6 13 1.4 1.17
2 6 13 2.19 1.32
2 6 14 -0.66 1.05
2 6 14 0.77 1.47
2 6 14 1.04 0.62
2 6 14 -0.62 1
2 7 -7 3.88 2.04
2 7 -7 0.84 1.21
2 7 -6 1.61 1.27
2 7 -6 0.59 0.81
2 7 -5 4.08 1.81
2 7 -5 1.53 0.98
2 7 -4 1.21 0.99
2 7 -4 -0.63 0.6
2 7 -3 6.27 1.88
2 7 -3 10.04 2.46
2 7 -3 5.87 1.83
2 7 -2 1.84 0.65
2 7 -2 2.06 0.85
2 7 -1 6.77 1.95
2 7 -1 7.4 1.35
2 7 -1 8.75 1.53
2 7 0 33.57 4
2 7 0 33.22 2.97
2 7 0 39.27 4.48
2 7 0 32.94 3.19
2 7 1 31.4 3.83
2 7 1 30.6 3.05
2 7 1 32.74 3.77
2 7 1 27.01 3.06
2 7 2 29.42 3.91
2 7 2 29.3 3.62
2 7 2 27.54 3.57
2 7 2 28.6 3.09
2 7 2 20.57 2.98
2 7 2 25.22 3.1
2 7 3 17.64 3.01
2 7 3 15.55 1.97
2 7 3 13.83 2.46
2 7 3 15.22 2.6
2 7 3 11.73 2.12
2 7 3 14.34 2.38
2 7 4 1.27 0.86
2 7 4 0.03 0.52
2 7 4 0.03 0.17
2 7 4 2.08 1.48
2 7 4 0.48 0.52
2 7 4 0.59 0.57
2 7 4 0.91 0.75
2 7 5 4.62 0.93
2 7 5 4.59 1.38
2 7 5 5.34 1.6
2 7 5 5.81 1.72
2 7 5 5.2 0.98
2 7 5 4.47 0.79
2 7 5 4.79 1.5
2 7 5 6.71 1.92
2 7 6 6.39 1.85
2 7 6 4.47 1.4
2 7 6 5.82 1.77
2 7 6 5.29 0.87
2 7 6 6.33 1.78
2 7 6 4.82 1.57
2 7 6 5.16 0.62
2 7 6 6.16 0.94
2 7 7 30.48 3.89
2 7 7 28.75 3.68
2 7 7 30.95 3.87
2 7 7 30.44 3.94
2 7 7 28.63 1.75
2 7 7 26.77 3.82
2 7 8 0.51 0.93
2 7 8 1.51 1.03
2 7 8 1.76 1.07
2 7 8 2.17 1.24
2 7 8 0.62 0.58
2 7 9 16.71 3.22
2 7 9 17.47 2.89
2 7 9 19.28 3.19
2 7 9 16.72 3.13
2 7 9 16.57 2.86
2 7 10 52.63 5.23
2 7 10 51.59 5.29
2 7 10 47.18 5.05
2 7 10 45.36 5.56
2 7 10 49.5 5.81
2 7 11 6.99 2.25
2 7 11 4.12 1.41
2 7 11 4.82 2.05
2 7 11 4.87 1.67
2 7 11 4.58 1.54
2 7 12 1.46 1.56
2 7 12 -1.73 1.5
2 7 12 -0.53 0.65
2 7 12 0.75 0.68
2 7 13 -0.34 0.76
2 7 13 -0.49 0.62
2 7 13 -0.65 1.01
2 7 13 1.06 1.13
2 7 14 -0.25 0.93
2 8 -7 -0.55 1.05
2 8 -6 6.15 2.49
2 8 -6 1.79 1.25
2 8 -5 2.1 1.83
2 8 -5 1.34 0.98
2 8 -4 1.99 1.93
2 8 -4 2.02 1.21
2 8 -4 4.01 1.53
2 8 -3 -0.35 1
2 8 -3 0.55 0.86
2 8 -2 28.77 4.03
2 8 -2 27.55 4.22
2 8 -2 36.03 4.8
2 8 -1 1.5 0.61
2 8 -1 1.87 1.22
2 8 -1 3.18 1.65
2 8 -1 2.65 1.2
2 8 0 67.55 6.09
2 8 0 65.42 6.19
2 8 0 65.44 4.58
2 8 0 63.27 5.84
2 8 0 60.42 4.63
2 8 1 50.62 5.39
2 8 1 51.86 5.39
2 8 1 49.49 4.15
2 8 1 51.24 5.14
2 8 1 54.02 4.62
2 8 2 80.42 6.73
2 8 2 91.41 7.07
2 8 2 84.16 6.72
2 8 2 87.57 5.86
2 8 2 79.08 6.32
2 8 2 85.38 6.08
2 8 3 5.5 1.81
2 8 3 5.49 1.65
2 8 3 4.24 1.43
2 8 3 3.63 1.3
2 8 3 4.54 1.41
2 8 4 0.05 0.89
2 8 4 0.91 1.17
2 8 4 1.58 1.15
2 8 4 0.48 0.8
2 8 4 0.87 0.84
2 8 4 0.61 0.54
2 8 5 15.8 2.89
2 8 5 15.61 3
2 8 5 13.43 2.6
2 8 5 12.78 2.62
2 8 5 15.17 2.71
2 8 5 15.15 1.77
2 8 6 0.48 0.46
2 8 6 1.84 0.94
2 8 6 0.34 0.51
2 8 6 0.35 0.7
2 8 6 0.48 0.5
2 8 7 1.21 1.06
2 8 7 0.33 0.84
2 8 7 2.64 1.22
2 8 7 1.06 0.93
2 8 7 3.73 1.46
2 8 8 0.7 0.61
2 8 8 1.09 0.66
2 8 8 1.24 0.56
2 8 8 0.82 0.63
2 8 8 0.86 0.59
2 8 9 4.93 1.94
2 8 9 5.75 1.99
2 8 9 4.15 1.57
2 8 9 5.74 1.95
2 8 9 3.95 1.26
2 8 10 0.35 1.03
2 8 10 0.84 1.26
2 8 10 1.29 0.94
2 8 10 1.04 0.96
2 8 10 0.74 0.98
2 8 11 0.39 0.89
2 8 11 -0.14 0.42
2 8 11 -0.41 0.94
2 8 11 1.03 0.8
2 8 11 -1.43 1.13
2 8 12 1.21 1.5
2 8 12 -0.31 0.59
2 8 12 -0.37 0.84
2 8 12 3.41 1.71
2 8 12 0.88 1.21
2 8 13 -1.66 1.28
2 8 13 3.44 1.71
2 8 13 1.74 1.24
2 9 -5 6.07 2.8
2 9 -5 -0.1 0.74
2 9 -4 4.04 2.59
2 9 -3 0.44 0.58
2 9 -3 1.65 1.21
2 9 -2 1.17 1.42
2 9 -2 -0.84 1.23
2 9 -2 0.29 0.81
2 9 -1 2.1 1.24
2 9 -1 2.77 1.49
2 9 -1 2.97 1.85
2 9 0 2.81 1.22
2 9 0 4.13 1.79
2 9 0 -0.61 1.52
2 9 0 4.07 1.76
2 9 1 48.37 5.59
2 9 1 51.19 5.79
2 9 1 46.9 4.41
2 9 1 41.18 4.96
2 9 1 47.38 4.56
2 9 2 1.44 0.96
2 9 2 1.45 0.91
2 9 2 2.66 1.41
2 9 2 2.83 1.3
2 9 3 32.85 4.52
2 9 3 28.68 4.2
2 9 3 30.77 4.28
2 9 3 27.28 3.66
2 9 3 30.81 4.03
2 9 3 35.82 3.78
2 9 4 0.07 0.64
2 9 4 -1.14 1.08
2 9 4 0.91 0.91
2 9 4 0.22 0.88
2 9 4 1.09 0.66
2 9 4 0.15 0.44
2 9 5 5.11 1.76
2 9 5 4.03 1.69
2 9 5 4.42 1.62
2 9 5 5.94 1.88
2 9 5 5.62 1.78
2 9 6 12.26 2.9
2 9 6 10.15 2.52
2 9 6 12.73 2.75
2 9 6 12.96 2.75
2 9 6 10.87 2.63
2 9 7 14.42 3.16
2 9 7 12.04 2.8
2 9 7 13.68 2.84
2 9 7 15.21 3.12
2 9 7 13.05 2.81
2 9 8 0.63 1.01
2 9 8 -0.19 0.85
2 9 8 1.04 0.85
2 9 8 -0.74 0.53
2 9 8 -0.2 0.71
2 9 9 -0.7 0.7
2 9 9 -0.37 1.16
2 9 9 -0.29 0.7
2 9 9 -0.03 0.64
2 9 9 -0.52 0.81
2 9 10 1.72 1.39
2 9 10 1.98 1.28
2 9 10 0.94 0.92
2 9 10 0.46 0.53
2 9 10 0.64 0.79
2 9 11 0.14 0.76
2 9 11 1.97 1.05
2 9 11 1 0.77
2 9 11 -1.16 0.51
2 9 11 0.76 1.05
2 9 12 -0.6 0.69
2 9 12 0.73 0.75
2 9 12 -0.77 1.22
2 9 12 -1.12 1.05
2 10 -3 -0.17 1.38
2 10 -2 -1.52 1.69
2 10 -2 0.02 0.56
2 10 -2 0.46 0.82
2 10 -1 0.54 0.73
2 10 -1 2.54 1.56
2 10 0 -0.88 0.85
2 10 0 -2.93 2.03
2 10 0 -0.74 0.84
2 10 1 -0.31 0.63
2 10 1 -0.1 0.76
2 10 2 0.5 0.82
2 10 2 -1.02 1.48
2 10 2 0.36 0.76
2 10 2 0.26 0.61
2 10 2 1.8 1.43
2 10 3 0.16 0.61
2 10 3 0.56 0.67
2 10 3 1.25 0.89
2 10 3 0.77 0.86
2 10 3 0.14 0.94
2 10 4 10.22 2.49
2 10 4 10.07 2.83
2 10 4 10.65 2.57
2 10 4 11.97 2.71
2 10 5 2.41 1.2
2 10 5 2.8 1.41
2 10 5 2.8 1.64
2 10 5 1.99 1.37
2 10 5 4.62 1.77
2 10 6 1.75 1.12
2 10 6 2.54 1.4
2 10 6 2.49 1.51
2 10 6 2.71 1.39
2 10 6 1.36 1.31
2 10 7 0.32 0.96
2 10 7 -0.63 0.92
2 10 7 2.26 1.46
2 10 7 0.61 1.08
2 10 7 -1.96 1.21
2 10 8 -0.62 0.46
2 10 8 -1.29 1.42
2 10 8 1.1 0.77
2 10 8 0.13 0.47
2 10 8 -0.01 0.6
2 10 9 1.15 0.95
2 10 9 2.83 1.28
2 10 9 -1.1 0.96
2 10 9 0.87 1.02
2 10 9 1.09 1.33
2 10 10 -0.11 0.68
2 10 10 0.3 0.72
2 10 10 -0.35 0.51
2 10 10 -0.24 1.09
2 10 10 0.28 0.96
2 10 11 2.01 1.12
2 10 11 1.41 1.35
2 10 11 2.14 1.28
2 10 12 1.61 1.42
2 11 -1 -7.07 3.06
2 11 -1 -1.23 0.97
2 11 0 -0.02 1.16
2 11 0 -5.72 2.72
2 11 1 0.12 0.83
2 11 1 0.46 0.76
2 11 2 -0.04 0.97
2 11 2 -0.7 1.6
2 11 3 1.45 1.02
2 11 3 1.01 0.92
2 11 3 1.32 1.2
2 11 3 -1.03 1.19
2 11 4 1.39 1.24
2 11 4 -0.68 0.98
2 11 4 0.61 1.04
2 11 4 0.11 0.51
2 11 5 -0.29 0.77
2 11 5 0.31 0.72
2 11 5 -0.8 0.83
2 11 5 0.14 0.73
2 11 6 0.25 0.61
2 11 6 -0.22 0.76
2 11 6 -1.95 1.67
2 11 6 1.99 1.45
2 11 6 0.25 0.76
2 11 7 0.62 0.76
2 11 7 -1.6 1.66
2 11 7 -0.33 0.53
2 11 7 0.87 0.89
2 11 7 -0.52 0.77
2 11 8 -0.93 1.31
2 11 8 0.65 1.36
2 11 8 0.99 1.15
2 11 8 -1.19 0.97
2 11 8 0.99 1.08
2 11 9 0.8 1.17
2 11 9 3.67 1.65
2 11 9 1.33 1.1
2 11 9 1.84 1.36
2 11 10 -0.94 0.96
2 11 10 -0.17 0.7
2 12 4 1.22 1.1
2 12 5 0.58 0.92
2 12 5 2.21 1.39
2 12 5 1.19 1.02
2 12 6 0.53 0.88
2 12 6 -0.15 1.05
2 12 6 -0.29 0.98
2 12 7 1.42 1.29
2 12 7 1.46 1.12
2 12 8 0.19 0.81
2 12 8 0.66 0.81
2 12 9 -0.57 1.02
2 12 9 -3.94 1.82
3 -9 -8 0.65 0.96
3 -9 -7 -0.09 0.63
3 -9 -6 -0.3 0.96
3 -9 -5 -0.04 0.73
3 -9 -4 0.29 0.72
3 -9 -3 0.05 0.52
3 -9 -2 1.09 1.37
3 -9 -1 0.23 0.78
3 -9 1 1.35 1.12
3 -9 2 1.68 1.52
3 -8 -8 -0.62 0.79
3 -8 -7 0.4 0.76
3 -8 -6 -0.24 0.58
3 -8 -5 -0.12 0.72
3 -8 -4 0.69 0.63
3 -8 -3 4.43 1.72
3 -8 -2 2.33 1.58
3 -8 -1 0.47 0.8
3 -8 -1 1.48 1.18
3 -8 0 2.34 1.4
3 -8 0 0.32 0.82
3 -8 1 0.88 0.99
3 -8 1 -1.38 1.21
3 -8 2 0.83 1.06
3 -8 2 1.89 1.16
3 -8 2 0.45 0.85
3 -8 3 1.5 1.02
3 -8 3 0.74 1.25
3 -8 3 1.53 1.03
3 -8 4 1.33 1.08
3 -8 4 0.41 1.21
3 -8 4 0.07 0.83
3 -8 5 1.92 1.34
3 -7 -8 0.69 0.66
3 -7 -7 -0.75 0.67
3 -7 -6 2.22 1.24
3 -7 -5 -0.07 0.54
3 -7 -4 0.99 0.76
3 -7 -3 17.94 3.47
3 -7 -2 20.88 2.71
3 -7 -2 25.82 4.11
3 -7 -2 23.82 2.99
3 -7 -1 8.66 1.89
3 -7 -1 9.88 1.91
3 -7 -1 6.85 2.09
3 -7 0 2.17 1.06
3 -7 0 1.99 1.26
3 -7 0 3.57 1.3
3 -7 1 1.68 1.08
3 -7 1 1.26 0.71
3 -7 1 2.24 1.44
3 -7 2 11.89 2.69
3 -7 2 10.53 2.44
3 -7 2 8.51 2.3
3 -7 2 10.44 2.77
3 -7 3 16.98 3.32
3 -7 3 12.82 2.77
3 -7 3 12.86 3.11
3 -7 4 1.27 1.2
3 -7 4 -0.09 0.71
3 -7 4 2.13 1.43
3 -7 5 0.66 0.86
3 -7 5 -0.77 1.01
3 -7 5 0.53 0.98
3 -7 6 1.65 1.18
3 -7 6 0.84 0.88
3 -7 7 0.23 0.71
3 -6 -8 1.07 0.81
3 -6 -7 1.45 0.76
3 -6 -6 8.49 2.11
3 -6 -5 8.99 2.21
3 -6 -4 1.06 0.63
3 -6 -4 1.6 1.03
3 -6 -3 1.08 0.57
3 -6 -3 0.57 0.34
3 -6 -3 1.54 1.11
3 -6 -2 0.46 0.55
3 -6 -2 0.64 0.62
3 -6 -2 0.71 0.57
3 -6 -1 5.09 1.38
3 -6 -1 4.15 1.2
3 -6 -1 4.82 1.73
3 -6 0 -0.08 0.35
3 -6 0 -0.57 0.7
3 -6 0 0.18 0.54
3 -6 1 2.04 1.14
3 -6 1 2.2 1.1
3 -6 1 3.11 1.45
3 -6 2 6.78 1.81
3 -6 2 10.19 2.35
3 -6 2 6.82 2.17
3 -6 3 23.5 3.58
3 -6 3 22.77 3.87
3 -6 3 25.23 3.82
3 -6 4 28.51 4.25
3 -6 4 26.08 3.93
3 -6 4 28.25 4.38
3 -6 4 25.94 4.14
3 -6 5 0.48 0.8
3 -6 5 2.02 1.46
3 -6 5 -0.11 0.72
3 -6 6 5.16 2.05
3 -6 6 6.04 2.13
3 -6 6 5.5 2
3 -6 7 -0.12 0.73
3 -6 7 -0.23 0.69
3 -6 7 -1.6 1.14
3 -6 8 3.44 1.69
3 -5 -10 -0.74 0.83
3 -5 -10 0.02 0.76
3 -5 -9 1.2 0.92
3 -5 -8 0.59 0.66
3 -5 -7 6.97 1.67
3 -5 -7 5.53 1.5
3 -5 -6 34.56 3.28
3 -5 -6 42.97 4.35
3 -5 -5 26.54 2.5
3 -5 -5 28.55 3.66
3 -5 -5 26.09 2.51
3 -5 -4 0.87 0.44
3 -5 -4 0.6 0.36
3 -5 -4 -0.31 0.68
3 -5 -3 5.46 1.18
3 -5 -3 4.02 0.48
3 -5 -3 5.71 0.99
3 -5 -3 5.36 1.66
3 -5 -2 0.7 0.55
3 -5 -2 0.22 0.32
3 -5 -2 0.9 0.61
3 -5 -2 -0.16 0.36
3 -5 -2 -0.31 0.58
3 -5 -1 6.25 1.56
3 -5 -1 6.41 1.33
3 -5 -1 5.23 1.71
3 -5 0 4.76 1.34
3 -5 0 4.89 1.25
3 -5 0 6.06 1.79
3 -5 1 6.69 1.73
3 -5 1 4.82 1.41
3 -5 1 5.33 1.73
3 -5 2 5.47 1.67
3 -5 2 7.19 1.76
3 -5 2 8.51 2.06
3 -5 3 4.12 1.51
3 -5 3 3.41 1.25
3 -5 3 4.05 1.49
3 -5 4 1.32 0.88
3 -5 4 0.19 0.56
3 -5 4 0.56 0.63
3 -5 5 6.14 2.02
3 -5 5 5.36 1.85
3 -5 5 3.83 1.37
3 -5 6 16.19 3.45
3 -5 6 15.07 3.34
3 -5 6 15.36 3.19
3 -5 6 16.07 3.19
3 -5 7 8.43 2.61
3 -5 7 6.45 2.2
3 -5 7 6.67 2.2
3 -5 8 0.1 0.75
3 -5 8 0.77 0.64
3 -5 8 -0.31 0.9
3 -5 8 -0.17 0.47
3 -4 -12 -0.46 0.86
3 -4 -11 0.55 0.86
3 -4 -11 0.37 0.94
3 -4 -10 0.15 0.51
3 -4 -10 -0.65 1.06
3 -4 -9 1.73 1.05
3 -4 -9 1.59 1.13
3 -4 -8 15.74 2.77
3 -4 -8 18.6 3.37
3 -4 -7 0.54 0.46
3 -4 -7 0.36 0.49
3 -4 -7 0.81 0.69
3 -4 -6 25.95 2.98
3 -4 -6 23.96 2.99
3 -4 -6 23.71 2.54
3 -4 -5 8.01 1.43
3 -4 -5 7.98 1.5
3 -4 -5 7.24 1.71
3 -4 -4 12.29 1.74
3 -4 -4 13.95 1.74
3 -4 -4 14.1 2.4
3 -4 -4 12.45 1.82
3 -4 -3 1.08 0.67
3 -4 -3 1.31 0.37
3 -4 -3 1.42 0.39
3 -4 -3 1.04 0.49
3 -4 -3 1.39 0.36
3 -4 -3 1.35 0.38
3 -4 -3 0.95 0.28
3 -4 -3 1.97 0.96
3 -4 -2 0 0.35
3 -4 -2 -0.1 0.24
3 -4 -2 0.11 0.31
3 -4 -2 -0.36 0.32
3 -4 -2 -0.15 0.25
3 -4 -2 0.18 0.13
3 -4 -2 0.22 0.62
3 -4 -1 9.51 1.73
3 -4 -1 8.57 1.32
3 -4 -1 6.94 1.22
3 -4 -1 9.61 2.05
3 -4 0 8.02 1.6
3 -4 0 8.75 1.5
3 -4 0 12.37 2.42
3 -4 0 8.99 1.22
3 -4 1 0.03 0.4
3 -4 1 -0.39 0.54
3 -4 1 -0.51 0.58
3 -4 1 -0.61 0.9
3 -4 2 34.32 3.58
3 -4 2 31.47 4
3 -4 2 30.99 1.93
3 -4 2 34.3 3.85
3 -4 3 1.09 1.03
3 -4 3 0.74 0.56
3 -4 3 0.73 0.88
3 -4 4 2.15 1.17
3 -4 4 2.23 1.18
3 -4 4 2.71 1.32
3 -4 5 5.39 1.92
3 -4 5 2.9 1.11
3 -4 5 5.13 1.78
3 -4 6 1.58 1.05
3 -4 6 0.36 0.75
3 -4 6 0.4 0.67
3 -4 7 15.17 3.27
3 -4 7 14.38 3.1
3 -4 7 12.31 2.88
3 -4 7 14.88 3.01
3 -4 8 3.28 1.88
3 -4 8 1.56 1.31
3 -4 8 2.1 1.08
3 -4 8 1.45 1.03
3 -4 9 -0.49 0.65
3 -4 9 -1.4 1.33
3 -4 9 -0.11 0.92
3 -4 9 -1.2 1.01
3 -3 -12 0.53 0.97
3 -3 -11 -1.32 1.17
3 -3 -11 1.94 1.1
3 -3 -10 1.64 1.05
3 -3 -10 3.46 1.72
3 -3 -9 4.53 1.67
3 -3 -9 4.85 1.76
3 -3 -8 0.19 0.53
3 -3 -8 1.36 1.02
3 -3 -7 4.46 1.45
3 -3 -7 4.19 1.03
3 -3 -7 1.79 0.83
3 -3 -6 0.79 0.53
3 -3 -6 1.62 0.9
3 -3 -6 -0.08 0.42
3 -3 -6 1.15 0.45
3 -3 -5 14.06 2.14
3 -3 -5 14.26 2.17
3 -3 -5 12.4 1.88
3 -3 -4 0.76 0.34
3 -3 -4 0.64 0.38
3 -3 -4 0.65 0.46
3 -3 -4 0.35 0.28
3 -3 -3 23.21 2.45
3 -3 -3 20.02 1.98
3 -3 -3 20.34 2.64
3 -3 -3 21.91 2.44
3 -3 -2 15.82 1.24
3 -3 -2 15.49 1.23
3 -3 -2 16.5 2.06
3 -3 -2 15.82 1.48
3 -3 -2 15.49 1.26
3 -3 -2 16.7 1.3
3 -3 -2 17.7 2.54
3 -3 -2 16.94 2.13
3 -3 -1 13.43 1.43
3 -3 -1 13.26 1.09
3 -3 -1 13.57 1.5
3 -3 -1 14.95 1.58
3 -3 -1 14.5 2.07
3 -3 0 1.78 0.89
3 -3 0 1.19 0.46
3 -3 0 1.53 0.58
3 -3 0 1.72 0.33
3 -3 1 37.83 3.18
3 -3 1 31.8 1.49
3 -3 1 40.83 2.01
3 -3 1 32.71 3.38
3 -3 2 0.4 0.55
3 -3 2 1.5 0.76
3 -3 2 1.29 0.42
3 -3 2 0.75 0.22
3 -3 3 35.17 3.57
3 -3 3 35.96 2.45
3 -3 3 41.31 4.09
3 -3 4 15.18 2.62
3 -3 4 12.77 1.7
3 -3 4 16.17 2.68
3 -3 5 0.95 0.82
3 -3 5 1.8 0.94
3 -3 5 2.15 0.99
3 -3 6 -0.28 0.92
3 -3 6 0.16 0.71
3 -3 6 -0.24 0.62
3 -3 7 38.36 4.8
3 -3 7 48.9 5.54
3 -3 7 49.61 5.11
3 -3 7 49.78 5.56
3 -3 8 2.12 1.03
3 -3 8 2.86 1.54
3 -3 8 2.16 1.45
3 -3 8 1.42 0.97
3 -3 9 0.37 0.82
3 -3 9 2.3 1.45
3 -3 9 2.43 1.6
3 -3 9 1.43 1.12
3 -3 10 1.88 1.46
3 -3 10 1.4 1.57
3 -3 10 -0.43 0.86
3 -2 -11 0.31 0.76
3 -2 -11 0.2 0.81
3 -2 -10 -0.43 0.73
3 -2 -10 1.55 1.35
3 -2 -9 -0.42 0.46
3 -2 -9 -1.02 0.84
3 -2 -8 0.83 0.88
3 -2 -8 -0.43 0.96
3 -2 -7 0.87 0.7
3 -2 -7 3.07 0.78
3 -2 -7 2.75 1.17
3 -2 -6 2.22 0.76
3 -2 -6 2.86 1.03
3 -2 -6 2.63 0.83
3 -2 -6 2.12 0.86
3 -2 -5 2.64 0.86
3 -2 -5 2.05 0.95
3 -2 -5 3.32 0.97
3 -2 -5 3.5 1.19
3 -2 -4 4.53 1.13
3 -2 -4 5.35 1.19
3 -2 -4 6.66 1.38
3 -2 -4 6.14 1.53
3 -2 -3 70.84 4.38
3 -2 -3 73.49 4.16
3 -2 -3 68.47 4.55
3 -2 -3 71.81 4.42
3 -2 -2 19.2 2.29
3 -2 -2 16.25 0.89
3 -2 -2 17.35 0.89
3 -2 -2 23.12 2.36
3 -2 -2 20.36 2.35
3 -2 -1 20.94 1.58
3 -2 -1 20.19 2.34
3 -2 -1 18.8 1.5
3 -2 -1 20.74 1.56
3 -2 -1 19.5 1.87
3 -2 -1 19.66 2.32
3 -2 0 8.46 1.04
3 -2 0 9.32 1.33
3 -2 0 9.97 1.29
3 -2 0 9.11 1.07
3 -2 0 10.01 1.76
3 -2 1 20.89 2.11
3 -2 1 23.49 1.67
3 -2 1 23.35 2.33
3 -2 1 21.31 1.19
3 -2 1 20.04 1.12
3 -2 1 20.5 2.6
3 -2 2 15.74 2.37
3 -2 2 13.39 1.9
3 -2 2 14.03 1.4
3 -2 2 16.14 2.16
3 -2 3 31.34 3.18
3 -2 3 32 2.44
3 -2 3 34.63 3.37
3 -2 3 30.7 3.45
3 -2 4 17.97 2.26
3 -2 4 15.89 2.47
3 -2 4 15.89 1.94
3 -2 4 19.5 2.82
3 -2 4 16.88 2.61
3 -2 5 23.41 2.45
3 -2 5 26.73 3.31
3 -2 5 29.13 3.56
3 -2 5 28.28 3.49
3 -2 6 1.27 1.11
3 -2 6 2.53 0.79
3 -2 6 1.86 0.96
3 -2 6 1.91 1.19
3 -2 7 17.24 3.07
3 -2 7 19.76 3.29
3 -2 7 17.72 3.14
3 -2 8 67.96 6.41
3 -2 8 77.23 6.96
3 -2 8 68.83 6.53
3 -2 9 0.33 0.66
3 -2 9 0.39 0.81
3 -2 9 -0.08 0.69
3 -2 10 0.19 0.66
3 -2 10 -0.66 0.86
3 -2 10 0.48 0.76
3 -2 11 0.26 0.74
3 -2 11 1.7 1.45
3 -2 11 -0.25 0.71
3 -1 -11 -1.27 1.38
3 -1 -11 0.91 0.89
3 -1 -10 1.07 1
3 -1 -10 2.1 1.54
3 -1 -9 0.22 1.18
3 -1 -9 1.22 0.63
3 -1 -8 15.53 2.96
3 -1 -8 20.04 3.44
3 -1 -7 0.17 0.42
3 -1 -7 -0.66 0.82
3 -1 -6 3.78 0.8
3 -1 -6 3.8 1.31
3 -1 -6 3.16 0.68
3 -1 -6 2.99 1.17
3 -1 -5 2.16 0.71
3 -1 -5 3.39 1.15
3 -1 -5 1.29 0.49
3 -1 -5 1.83 1.03
3 -1 -4 31.97 2.66
3 -1 -4 33.34 3.39
3 -1 -3 33.11 2.82
3 -1 -3 35.85 3.26
3 -1 -2 29.4 2.86
3 -1 -2 29.04 2.68
3 -1 -2 29.2 2.64
3 -1 -2 27.43 2.85
3 -1 -1 0.43 0.42
3 -1 -1 0.27 0.21
3 -1 -1 0.36 0.45
3 -1 -1 0.28 0.27
3 -1 -1 0.26 0.41
3 -1 0 17.51 1.61
3 -1 0 16.3 1.54
3 -1 0 15.5 1.41
3 -1 0 16.61 2.1
3 -1 1 38.16 2.71
3 -1 1 33.95 2.3
3 -1 1 33.4 2.55
3 -1 1 33.44 2.94
3 -1 1 31.62 1.42
3 -1 1 32.18 3.04
3 -1 2 12.54 1.81
3 -1 2 12.52 1.73
3 -1 2 12.26 1.45
3 -1 2 13.89 1.85
3 -1 2 13.02 2.05
3 -1 3 24.66 2.54
3 -1 3 28.08 2.77
3 -1 3 28.7 2.42
3 -1 3 28.42 2.86
3 -1 3 27.43 3.04
3 -1 4 1.19 0.76
3 -1 4 0.66 0.38
3 -1 4 2.06 0.86
3 -1 4 2.12 0.74
3 -1 4 0.79 0.42
3 -1 5 3.32 1.18
3 -1 5 2.29 0.71
3 -1 5 1.65 0.8
3 -1 5 3.07 1.15
3 -1 6 57.08 3.36
3 -1 6 59.42 5.05
3 -1 6 58.57 5.08
3 -1 6 59.92 5.18
3 -1 7 1.42 0.51
3 -1 7 0.48 0.47
3 -1 7 2.05 1.06
3 -1 7 0.66 0.6
3 -1 8 17.39 3.12
3 -1 8 13.68 2.83
3 -1 8 15.6 3.09
3 -1 9 58.8 6.17
3 -1 9 60.82 6.26
3 -1 9 64.63 6.44
3 -1 10 5.57 2.01
3 -1 10 5.25 2.13
3 -1 10 7.79 2.43
3 -1 10 9.8 2.62
3 -1 10 9.39 2.73
3 -1 11 -0.09 0.72
3 -1 11 -0.35 0.56
3 -1 11 2.14 1.36
3 -1 11 1.8 1.47
3 -1 11 3.17 1.56
3 -1 12 1.77 1.11
3 -1 12 0.68 0.56
3 0 -11 -0.21 0.67
3 0 -10 -0.1 1.06
3 0 -10 -2.48 1.84
3 0 -9 5.41 1.92
3 0 -9 7.33 2.4
3 0 -8 8.79 2.37
3 0 -8 9.57 2.4
3 0 -7 -0.07 0.56
3 0 -7 1.23 0.92
3 0 -6 -0.06 0.29
3 0 -6 0.35 0.53
3 0 -6 0.06 0.1
3 0 -5 3.19 0.89
3 0 -5 3.34 0.75
3 0 -4 2.74 0.8
3 0 -4 2.49 0.81
3 0 -4 3.85 1.35
3 0 -3 13.01 1.11
3 0 -3 13.8 1.69
3 0 -3 16.11 2.21
3 0 -3 13.83 1.77
3 0 -2 30.41 1.7
3 0 -2 31.57 1.7
3 0 -2 35.7 2.81
3 0 -2 33.61 2.74
3 0 -2 33.68 2.93
3 0 -1 27.47 1.75
3 0 -1 27 2.72
3 0 -1 28.85 1.8
3 0 -1 25.95 2.48
3 0 -1 28.08 2.59
3 0 -1 27.02 2.14
3 0 -1 27.32 2.75
3 0 0 55.39 2.76
3 0 0 57.18 3.87
3 0 0 53.97 2.75
3 0 0 46.3 3.43
3 0 0 50.95 3.51
3 0 0 50.08 2.65
3 0 0 57.73 3.88
3 0 0 54.87 3.81
3 0 1 276.69 7.06
3 0 1 269.73 7.06
3 0 1 257.08 7.33
3 0 1 256.88 5.05
3 0 1 279.72 8.3
3 0 1 266.98 8.43
3 0 2 73.21 4.3
3 0 2 71.24 3.96
3 0 2 79.84 3.95
3 0 2 77.95 4.15
3 0 2 77.3 3.83
3 0 2 65.86 1.91
3 0 2 75.95 4.36
3 0 2 73.93 4.52
3 0 3 34.89 2.96
3 0 3 32.14 2.9
3 0 3 34.36 2.76
3 0 3 35.7 3.14
3 0 3 33.34 2.93
3 0 3 33.95 3.2
3 0 4 1.49 0.72
3 0 4 2.17 0.73
3 0 4 1.57 0.79
3 0 4 1.49 0.67
3 0 4 1.95 0.79
3 0 5 -0.22 0.28
3 0 5 0.57 0.68
3 0 5 0.35 0.7
3 0 5 0.08 0.56
3 0 6 0.02 0.22
3 0 6 0.47 0.45
3 0 6 0.38 0.73
3 0 6 1.17 0.85
3 0 7 -0.05 0.19
3 0 7 0.08 0.39
3 0 7 -0.9 1.04
3 0 7 -0.22 0.72
3 0 8 20.91 3.43
3 0 8 21.43 3.37
3 0 8 22.67 3.42
3 0 9 11.78 2.71
3 0 9 16.39 2.98
3 0 9 16.85 3.19
3 0 10 4.18 1.65
3 0 10 5.71 2.04
3 0 10 8.75 2.49
3 0 10 10.33 2.11
3 0 10 13.13 3.02
3 0 11 0.83 1.04
3 0 11 1.19 1.02
3 0 11 0.4 0.74
3 0 11 1.52 1.55
3 0 12 2.04 1.33
3 0 12 0.79 1.01
3 0 12 2.13 1.65
3 0 12 1.69 1.54
3 0 13 0.32 1.05
3 1 -10 2.57 1.48
3 1 -10 -6.09 2.26
3 1 -9 1.42 1.02
3 1 -9 -1.34 2
3 1 -8 0.93 0.49
3 1 -8 -8.85 2.41
3 1 -7 3.87 1.7
3 1 -7 -0.23 1.56
3 1 -6 29.9 2.26
3 1 -6 27.76 3.81
3 1 -6 22.59 1.09
3 1 -6 28.09 3.5
3 1 -5 4.86 0.84
3 1 -5 4.57 0.77
3 1 -5 3.63 0.65
3 1 -4 39.97 2.81
3 1 -4 44.19 3.9
3 1 -4 43.88 2.69
3 1 -4 41.36 2.57
3 1 -4 40.8 3.34
3 1 -3 12.1 1.41
3 1 -3 10.18 1.5
3 1 -3 11.54 1.39
3 1 -3 8.64 1.43
3 1 -3 9.74 1.63
3 1 -2 6.76 1.06
3 1 -2 8.36 1.13
3 1 -2 7.42 1.3
3 1 -2 7.37 1.16
3 1 -2 6.92 1.07
3 1 -2 6.57 1.34
3 1 -1 27.1 2.04
3 1 -1 26.88 2.01
3 1 -1 26.87 2.49
3 1 -1 27.38 2.69
3 1 -1 23.93 2.35
3 1 0 45.15 2.72
3 1 0 49.09 3.64
3 1 0 45.19 2.72
3 1 0 40.5 3.12
3 1 0 48.39 3.25
3 1 0 47.47 2.98
3 1 0 47.39 3.45
3 1 0 42.26 3.43
3 1 1 6.62 1.17
3 1 1 8.21 1.57
3 1 1 8.15 1.38
3 1 1 5.52 0.94
3 1 1 8.28 1.48
3 1 1 7.65 1.23
3 1 1 8.14 1.46
3 1 1 6.9 1.15
3 1 2 0.63 0.73
3 1 2 2.24 0.83
3 1 2 -0.12 0.51
3 1 2 0.11 0.38
3 1 2 0.2 0.26
3 1 2 1.1 0.77
3 1 2 0.72 0.5
3 1 3 190.12 7.01
3 1 3 201.1 7.02
3 1 3 194.63 7.2
3 1 3 199.71 5.16
3 1 3 204.58 6.48
3 1 3 202.73 7.44
3 1 4 7.39 1.44
3 1 4 6.67 1.45
3 1 4 7.53 1.45
3 1 4 6.09 1.3
3 1 4 7.28 0.96
3 1 4 9.07 1.46
3 1 5 1.41 0.71
3 1 5 2.21 0.99
3 1 5 2.23 1.13
3 1 6 96.7 6.2
3 1 6 88.87 6.03
3 1 6 103.65 6.11
3 1 7 2.94 0.75
3 1 7 2.96 1.19
3 1 7 2.27 1.04
3 1 7 3.16 1.34
3 1 8 21.07 1.71
3 1 8 26.61 3.66
3 1 8 30.09 4.02
3 1 8 25.63 3.6
3 1 8 22.9 3.26
3 1 9 3.87 1.44
3 1 9 5.8 1.94
3 1 9 5.73 1.9
3 1 9 7.36 1.58
3 1 9 8.34 2.36
3 1 10 5.43 1.72
3 1 10 4.9 1.62
3 1 10 3.69 1.57
3 1 10 5.32 1.27
3 1 10 9.31 2.61
3 1 11 3.51 1.49
3 1 11 1.6 1.11
3 1 11 1.51 1.17
3 1 11 -0.01 0.66
3 1 11 2.36 1.54
3 1 12 0.69 1
3 1 12 0.92 0.96
3 1 12 0.44 1.03
3 1 12 -0.47 0.66
3 1 13 2.32 1.67
3 1 13 1.8 1.59
3 1 13 -0.83 0.68
3 2 -10 -0.63 1.14
3 2 -10 1.31 1.08
3 2 -9 0.74 0.95
3 2 -9 -1.88 1.7
3 2 -8 4.49 1.89
3 2 -8 -0.13 0.99
3 2 -7 8.34 2.28
3 2 -7 6.86 1.73
3 2 -6 28.19 3.99
3 2 -6 27.5 3.67
3 2 -5 31.94 3.79
3 2 -5 33.9 2.15
3 2 -5 31.76 2.74
3 2 -4 9.54 0.88
3 2 -4 10.34 1.62
3 2 -4 10.61 1.37
3 2 -4 10.22 1.59
3 2 -4 11.34 2.08
3 2 -3 18.81 2.08
3 2 -3 20.61 2.69
3 2 -3 19.49 1.99
3 2 -3 19.66 1.38
3 2 -3 19.22 2.13
3 2 -2 8.56 1.35
3 2 -2 8.24 1.01
3 2 -2 11.94 2.24
3 2 -2 6.39 1.29
3 2 -1 8.97 1.99
3 2 -1 5.61 1.09
3 2 -1 5.46 1.09
3 2 -1 5.49 1.14
3 2 0 33.87 2.66
3 2 0 31.13 2.51
3 2 0 32.53 2.83
3 2 0 32.23 2.65
3 2 0 31.09 2.81
3 2 0 25.3 2.36
3 2 1 83.26 4.22
3 2 1 90.62 4.37
3 2 1 74.14 4.29
3 2 1 92.63 3.99
3 2 1 84.74 3.99
3 2 1 90.53 4.47
3 2 1 89.28 4.96
3 2 2 84.7 4.49
3 2 2 92.58 4.91
3 2 2 94.1 5.01
3 2 2 94.37 4.72
3 2 2 99.25 3.62
3 2 2 94.81 4.17
3 2 2 91.07 4.18
3 2 2 90.66 5
3 2 3 35.19 3.01
3 2 3 40.33 3.28
3 2 3 40.92 3.31
3 2 3 36.21 1.89
3 2 3 39.2 2.61
3 2 3 42.3 3.35
3 2 4 8.88 1.59
3 2 4 8.62 1.67
3 2 4 10.53 1.76
3 2 4 7.54 0.72
3 2 4 9.8 1.27
3 2 5 9.79 1.74
3 2 5 11.55 1.97
3 2 5 10.76 1.91
3 2 5 10.62 0.83
3 2 6 -0.13 0.38
3 2 6 -0.18 0.44
3 2 6 -0.5 0.49
3 2 7 39.69 4.16
3 2 7 39.96 4.36
3 2 7 41.68 4.27
3 2 7 39.99 2.23
3 2 7 42.22 3.94
3 2 8 8.53 1.85
3 2 8 14.49 2.87
3 2 8 10.58 2.31
3 2 8 11.96 2.44
3 2 8 11.29 1.38
3 2 9 2.01 0.9
3 2 9 4.06 0.88
3 2 9 3.59 1.33
3 2 9 2.95 1.29
3 2 9 2.49 1.37
3 2 9 2.12 0.6
3 2 10 1.99 1.2
3 2 10 1.5 1.3
3 2 10 0.37 0.46
3 2 10 1.7 1.24
3 2 10 -0.05 0.58
3 2 11 14.19 2.91
3 2 11 13.77 3.01
3 2 11 12.23 2.99
3 2 11 8.36 2.24
3 2 11 13.62 2.71
3 2 12 2.42 1.43
3 2 12 2.68 1.54
3 2 12 0.4 1.15
3 2 12 2.86 1.48
3 2 13 -1.87 1.95
3 2 13 0.07 0.61
3 2 13 -0.05 0.69
3 2 13 0.63 1.08
3 2 14 1.13 1.35
3 2 14 2.79 1.69
3 3 -9 -0.41 1.2
3 3 -9 3.68 1.81
3 3 -8 4.54 2.13
3 3 -8 7.49 2.54
3 3 -7 5.53 1.94
3 3 -7 10.78 2.69
3 3 -6 9.28 2.43
3 3 -5 3.03 0.79
3 3 -5 4.22 1.73
3 3 -4 23.22 2.82
3 3 -4 22.1 2.11
3 3 -4 28.05 3.63
3 3 -4 20.03 2
3 3 -3 12.51 1.94
3 3 -3 13.19 1.77
3 3 -3 12.81 1.68
3 3 -2 4.47 0.64
3 3 -2 7.02 1.42
3 3 -2 4.96 0.59
3 3 -2 9.4 2.38
3 3 -2 6.52 1.24
3 3 -1 2.2 0.84
3 3 -1 5.58 1.03
3 3 -1 4.4 1.02
3 3 -1 4.44 1.04
3 3 -1 3.08 1.05
3 3 0 74.47 4.32
3 3 0 72.13 4.31
3 3 0 76.93 4.46
3 3 0 77.5 4.5
3 3 0 77.7 4.61
3 3 1 178.14 6.79
3 3 1 183.43 6.87
3 3 1 197.61 6.58
3 3 1 180.49 6.59
3 3 2 28.08 2.71
3 3 2 36.2 2.99
3 3 2 27.2 2.65
3 3 2 29.83 2.36
3 3 2 38.53 3.1
3 3 2 30.12 2.87
3 3 3 6.78 1.39
3 3 3 5.14 0.66
3 3 3 8.52 2.13
3 3 3 5.81 1.24
3 3 3 6.33 1.42
3 3 3 7.36 1.06
3 3 4 30.41 3.08
3 3 4 30.97 3.28
3 3 4 27.31 2.95
3 3 4 28.49 1.93
3 3 4 28.26 2.76
3 3 5 7.83 1.53
3 3 5 7.5 1.62
3 3 5 7.9 2.2
3 3 5 8.67 1.73
3 3 6 17.94 2.9
3 3 6 21.36 2.96
3 3 6 19.64 2.86
3 3 6 20.14 2.49
3 3 7 6.42 1.52
3 3 7 5.09 1.56
3 3 7 4.76 1.42
3 3 7 8.18 2.11
3 3 8 1.79 0.98
3 3 8 0.58 0.78
3 3 8 2.29 1.06
3 3 8 1.59 0.96
3 3 8 1.36 0.34
3 3 9 2.24 0.91
3 3 9 1.54 0.84
3 3 9 1.95 1.33
3 3 9 2.17 1.24
3 3 9 1.54 0.47
3 3 9 -0.39 1.05
3 3 10 11.27 2.23
3 3 10 9.43 2.41
3 3 10 8.6 2.4
3 3 10 9.32 2.24
3 3 10 10.86 2.62
3 3 11 7.11 1.93
3 3 11 7.68 2.2
3 3 11 5.1 1.42
3 3 11 6.13 2.15
3 3 11 6.4 1.92
3 3 12 0 0.44
3 3 12 -0.95 1.18
3 3 12 1.69 1.24
3 3 12 0.63 0.91
3 3 13 0.2 0.51
3 3 13 0.12 0.55
3 3 13 0.5 1.17
3 3 13 0.17 0.57
3 3 14 -1.86 1.27
3 3 14 0.37 0.69
3 3 14 0.62 0.73
3 3 14 -0.06 0.88
3 4 -9 1.28 1.41
3 4 -9 7.13 2.93
3 4 -8 1.08 0.72
3 4 -8 6.23 2.82
3 4 -7 9.04 2.57
3 4 -7 16.44 3.55
3 4 -6 72.25 6.8
3 4 -5 9.96 3.15
3 4 -5 2.45 1
3 4 -4 3.33 0.8
3 4 -4 3.4 1.19
3 4 -4 3.3 0.88
3 4 -3 10.99 2.02
3 4 -3 13.05 2.22
3 4 -3 14.51 2.04
3 4 -2 -1.05 1.17
3 4 -2 0.46 0.33
3 4 -1 2.71 1.21
3 4 -1 1.89 0.85
3 4 -1 2.96 0.99
3 4 -1 1.89 0.47
3 4 0 6.2 1.7
3 4 0 3.68 0.69
3 4 0 5.35 1.42
3 4 0 5.46 1.36
3 4 1 43.72 3.08
3 4 1 50.46 4
3 4 1 47.16 3.85
3 4 1 57.03 4.13
3 4 2 9.97 1.83
3 4 2 10.13 1.87
3 4 2 11.46 1.52
3 4 2 8.14 1.4
3 4 3 0.89 0.56
3 4 3 0.64 0.32
3 4 3 -0.71 1.19
3 4 3 -0.51 0.74
3 4 3 -0.13 0.5
3 4 3 0.66 0.62
3 4 4 8.41 1.47
3 4 4 6.12 1.5
3 4 4 5.95 1.43
3 4 4 7.62 0.92
3 4 4 5.59 1.45
3 4 5 23.07 2.82
3 4 5 25.03 2.99
3 4 5 21.35 2.87
3 4 5 23.05 1.29
3 4 5 22.88 2.47
3 4 6 33.09 3.56
3 4 6 32.87 3.63
3 4 6 32.34 3.55
3 4 6 33.64 3.04
3 4 7 1.32 0.57
3 4 7 1.08 0.62
3 4 7 1.28 0.86
3 4 7 0.27 0.74
3 4 8 10.42 2.21
3 4 8 9.51 2.04
3 4 8 13.03 2.58
3 4 8 11.09 1.96
3 4 9 -0.17 0.34
3 4 9 2.19 1
3 4 9 0.67 0.7
3 4 9 -0.79 1.35
3 4 9 0.37 0.56
3 4 10 3.62 1.85
3 4 10 2.06 0.99
3 4 10 2.31 0.83
3 4 10 -1.03 1.45
3 4 10 1.34 1.16
3 4 10 1.34 1.01
3 4 11 0.06 0.54
3 4 11 1.07 1.05
3 4 11 1.38 1.24
3 4 11 0.8 0.65
3 4 11 0.49 0.95
3 4 12 1.07 0.51
3 4 12 0.36 0.8
3 4 12 1.41 0.68
3 4 12 -0.44 0.66
3 4 13 0.15 0.72
3 4 13 0.92 0.95
3 4 13 -1.22 0.89
3 4 13 0.59 1.25
3 4 13 0.7 1.09
3 4 14 0.08 0.89
3 4 14 2.79 1.92
3 4 14 -0.02 0.87
3 4 14 -0.57 0.87
3 5 -8 -1.69 1.95
3 5 -8 0.61 1.04
3 5 -7 -1.32 1.93
3 5 -7 0.7 0.88
3 5 -6 0.07 1.44
3 5 -5 70.95 6.14
3 5 -5 65.74 6.19
3 5 -4 1.26 1.36
3 5 -4 0.74 0.85
3 5 -3 8.13 2.06
3 5 -3 3.28 1.24
3 5 -2 20.64 3.07
3 5 -2 16.35 2.57
3 5 -1 17.53 2.94
3 5 -1 17.63 2.7
3 5 -1 19.36 1.44
3 5 0 1.05 0.93
3 5 0 0.96 0.76
3 5 0 2.11 0.64
3 5 0 2.11 0.89
3 5 1 21.35 2.9
3 5 1 21.82 2.82
3 5 1 30.53 3.61
3 5 1 23.44 2.24
3 5 2 1.7 0.99
3 5 2 0.91 0.86
3 5 2 0.88 0.8
3 5 2 1.09 0.71
3 5 3 40.22 3.91
3 5 3 39.82 3.89
3 5 3 39.41 2.63
3 5 3 40.45 3.68
3 5 3 43.47 3.61
3 5 4 17.72 2.6
3 5 4 18.13 2.69
3 5 4 19.57 2.76
3 5 4 16.33 1.4
3 5 4 16.22 2.13
3 5 5 11.98 2.14
3 5 5 14.83 2.46
3 5 5 12.38 2.36
3 5 5 10.8 0.77
3 5 5 11.99 1.79
3 5 6 0.8 0.46
3 5 6 1.34 0.69
3 5 6 0.67 0.84
3 5 6 -0.33 0.65
3 5 7 14.55 2.63
3 5 7 10.34 2.23
3 5 7 13.06 2.39
3 5 7 11.43 1.82
3 5 8 4.4 1.77
3 5 8 3.94 1.09
3 5 8 4.9 1.58
3 5 8 2.09 1.13
3 5 9 7.75 2.08
3 5 9 9.26 1.75
3 5 9 9.58 1.95
3 5 9 9.85 2.21
3 5 9 8.52 2.22
3 5 9 10.1 2.62
3 5 10 5.42 1.76
3 5 10 4.8 1.39
3 5 10 5.03 1.41
3 5 10 2.77 1.45
3 5 10 5.61 1.85
3 5 10 4.11 1.94
3 5 11 0.51 0.95
3 5 11 -0.59 0.6
3 5 11 -0.02 0.74
3 5 11 0.46 0.52
3 5 11 1.04 1.24
3 5 12 0.55 0.76
3 5 12 -0.23 0.99
3 5 12 1.31 0.56
3 5 12 1.33 1.08
3 5 13 1.82 0.99
3 5 13 1.26 1.31
3 5 13 0.14 0.87
3 5 13 1.73 1.51
3 5 14 -0.69 1.01
3 5 14 -0.21 0.71
3 5 14 -0.25 0.94
3 5 14 -0.84 1.16
3 6 -7 1.86 1.49
3 6 -7 0.88 1.11
3 6 -6 -0.29 1.09
3 6 -5 13.39 3.04
3 6 -5 11.79 2.75
3 6 -4 0.77 1.33
3 6 -4 0.89 1.08
3 6 -3 17.21 3.34
3 6 -3 11.36 2.47
3 6 -2 4.39 1.2
3 6 -2 5.82 2.09
3 6 -2 1.1 0.54
3 6 -1 11.55 2.4
3 6 -1 12.14 2.37
3 6 -1 11.64 1.26
3 6 0 59.83 5.21
3 6 0 64.64 5.39
3 6 0 71.75 5.87
3 6 0 64.49 3.53
3 6 1 0.61 0.51
3 6 1 0.87 0.53
3 6 1 0.65 0.4
3 6 2 3.98 1.19
3 6 2 5.04 1.47
3 6 2 5.05 1.17
3 6 2 5.93 1.59
3 6 3 0.67 0.83
3 6 3 4.71 1.38
3 6 3 4.86 1.53
3 6 3 4.99 1.29
3 6 4 7.78 1.53
3 6 4 8.93 1.99
3 6 4 7.99 1.92
3 6 4 8.91 1.84
3 6 5 3.74 1.02
3 6 5 3.65 1.27
3 6 5 4.52 1.64
3 6 5 4.65 1.48
3 6 5 3.63 0.55
3 6 6 22.68 3.2
3 6 6 18.56 2.94
3 6 6 19.69 3.08
3 6 6 21.23 2.29
3 6 6 25.54 3.8
3 6 7 0.01 0.24
3 6 7 -0.08 0.72
3 6 7 -0.18 0.46
3 6 7 -0.64 0.8
3 6 8 26.15 3.83
3 6 8 27.07 3.61
3 6 8 19.67 3.25
3 6 8 25.65 3.62
3 6 8 26.54 2.64
3 6 8 25.32 3.85
3 6 9 -0.15 0.25
3 6 9 -0.04 0.42
3 6 9 -0.3 0.64
3 6 9 0.2 0.95
3 6 9 -0.14 0.46
3 6 9 0.03 0.47
3 6 10 19.67 3.02
3 6 10 16.31 3.21
3 6 10 19.23 3.47
3 6 10 14.88 3.17
3 6 10 17.48 2.35
3 6 10 18.26 3.53
3 6 11 0.87 0.94
3 6 11 0.34 0.57
3 6 11 0.58 0.49
3 6 11 0.21 0.51
3 6 12 4.92 1.8
3 6 12 2.92 1.48
3 6 12 2.77 1.53
3 6 12 4.4 1.82
3 6 13 -0.87 1.64
3 6 13 0.84 1.13
3 6 13 0.58 0.58
3 6 13 0.39 0.8
3 6 14 -0.44 1.18
3 6 14 0.22 0.68
3 6 14 -0.86 1.22
3 7 -6 2.26 2.03
3 7 -6 -0.13 0.76
3 7 -5 2.66 1.75
3 7 -4 27.56 4.27
3 7 -4 33.46 4.85
3 7 -3 2.1 1.33
3 7 -3 0.94 0.98
3 7 -2 -0.32 0.83
3 7 -2 0.76 0.76
3 7 -1 0.88 0.45
3 7 -1 0.65 0.79
3 7 0 2.01 0.97
3 7 0 1.18 0.96
3 7 0 1.57 0.67
3 7 1 1.74 1.56
3 7 1 0.19 0.7
3 7 1 1.14 1.04
3 7 1 0.09 0.57
3 7 1 0.4 0.44
3 7 2 1.49 0.71
3 7 2 0.75 0.78
3 7 2 1.28 0.75
3 7 2 2.22 1.15
3 7 3 1.99 1.22
3 7 3 0.2 0.34
3 7 3 0.6 0.92
3 7 3 0.97 1.02
3 7 4 1.38 1.18
3 7 4 0.31 0.62
3 7 4 -0.52 0.59
3 7 4 0.84 0.67
3 7 5 6.24 1.39
3 7 5 5.02 1.67
3 7 5 9.38 2.32
3 7 5 5.45 1.65
3 7 5 6.43 1.82
3 7 6 13.44 2.82
3 7 6 12.75 2.56
3 7 6 10.66 2.33
3 7 6 11.72 2.53
3 7 6 9.82 1.6
3 7 7 0.62 0.46
3 7 7 2.11 1.24
3 7 7 0.72 0.85
3 7 7 0.81 0.82
3 7 7 0.79 0.64
3 7 7 1.11 0.52
3 7 8 12.33 2.69
3 7 8 12.2 2.78
3 7 8 13.14 2.77
3 7 8 14.86 3
3 7 8 13.94 2.8
3 7 8 12.9 1.75
3 7 9 37.35 4.38
3 7 9 37.45 4.66
3 7 9 33.65 4.42
3 7 9 35.91 4.76
3 7 9 32.11 4.6
3 7 10 0.16 0.59
3 7 10 -0.21 0.91
3 7 10 0.89 0.89
3 7 10 1.1 0.97
3 7 10 0.34 0.42
3 7 11 4.55 1.48
3 7 11 5.61 1.69
3 7 11 6.8 2.26
3 7 11 6.28 2.07
3 7 11 2.76 1.43
3 7 12 -1.29 1.49
3 7 12 -0.04 0.44
3 7 12 1.21 1.16
3 7 12 0 0.63
3 7 13 -1.94 1.32
3 7 13 -0.73 0.88
3 7 13 -0.34 0.93
3 7 13 -1.04 0.79
3 7 14 0.54 1.4
3 7 14 0.03 0.68
3 7 14 1 0.98
3 8 -6 -1.24 1.17
3 8 -5 2.79 2.51
3 8 -4 4.3 1.72
3 8 -4 2.53 1.62
3 8 -3 -0.68 1.02
3 8 -3 1.67 1.17
3 8 -2 11.96 2.77
3 8 -2 25.3 4.42
3 8 -1 16 3.13
3 8 -1 20.79 4.07
3 8 0 20.64 3.55
3 8 0 24.85 3.06
3 8 1 -0.09 0.79
3 8 1 -0.83 0.97
3 8 1 0.63 0.91
3 8 1 -0.12 0.39
3 8 2 0.94 0.74
3 8 2 0.85 0.82
3 8 2 1.85 1.3
3 8 2 0.95 0.92
3 8 2 0.58 0.59
3 8 3 6.48 1.76
3 8 3 3.52 0.9
3 8 3 6.78 2.17
3 8 3 6.86 2.08
3 8 3 6.9 1.68
3 8 4 0.58 0.47
3 8 4 1.38 0.73
3 8 4 1.65 1.07
3 8 4 -0.05 0.85
3 8 5 1.01 0.66
3 8 5 0.32 0.59
3 8 5 2.04 1.2
3 8 5 1.18 0.95
3 8 5 -0.45 0.86
3 8 5 1.13 0.7
3 8 6 0.06 0.22
3 8 6 0.04 0.54
3 8 6 1.25 1.06
3 8 6 0.08 0.48
3 8 6 -0.76 0.87
3 8 7 -0.32 0.88
3 8 7 0.9 0.64
3 8 7 0.91 0.83
3 8 7 -0.26 0.84
3 8 8 9.3 2.54
3 8 8 9.01 2.44
3 8 8 10.51 2.53
3 8 8 10.18 2.61
3 8 8 11.55 2.6
3 8 9 7.66 2.05
3 8 9 9.88 2.43
3 8 9 10.89 2.7
3 8 9 8.97 2.53
3 8 9 10.55 2.64
3 8 10 -1.13 0.91
3 8 10 -1.12 1.39
3 8 10 1.41 1.17
3 8 10 0.04 0.74
3 8 10 0.38 0.72
3 8 11 0.83 0.61
3 8 11 0.49 0.46
3 8 11 0.77 0.55
3 8 11 1.79 0.78
3 8 12 -2.35 1.47
3 8 12 0.83 1.03
3 8 12 -0.78 0.76
3 8 12 -0.3 0.55
3 8 13 -0.25 1.12
3 8 13 0.17 0.48
3 8 13 1.01 0.89
3 8 14 1.92 1.68
3 8 14 2.8 1.43
3 9 -5 2.42 1.34
3 9 -4 15.19 4.05
3 9 -3 4.72 2.01
3 9 -3 0.88 1.23
3 9 -2 11.01 3.17
3 9 -2 5.88 2.22
3 9 -2 5.73 2.13
3 9 -1 4.12 2.02
3 9 -1 5.69 2.35
3 9 -1 4.46 1.77
3 9 0 11 2.71
3 9 0 13.09 3.15
3 9 0 8.96 2.57
3 9 1 10.72 2.17
3 9 1 9.33 2.29
3 9 1 13.55 3.15
3 9 1 13.56 3.05
3 9 2 2.04 0.99
3 9 2 0.77 0.81
3 9 2 3.23 1.12
3 9 3 -0.43 0.97
3 9 3 0.26 0.77
3 9 3 1.43 0.9
3 9 3 0.56 0.69
3 9 4 18.24 3.65
3 9 4 15.7 3.22
3 9 4 18.61 3.45
3 9 4 16.5 2.86
3 9 4 16.52 3.07
3 9 5 14.87 3.37
3 9 5 13.91 3.01
3 9 5 17.11 3.31
3 9 5 14.86 2.93
3 9 5 16.92 3.24
3 9 6 13.98 3.12
3 9 6 15.69 3.36
3 9 6 15.1 3.14
3 9 6 16.83 3.25
3 9 6 15.29 3.03
3 9 7 1.06 0.73
3 9 7 2.3 1.25
3 9 7 0.71 0.97
3 9 7 2.17 1.28
3 9 7 1.63 1.12
3 9 8 1.13 0.93
3 9 8 2.46 1.33
3 9 8 2.49 1.24
3 9 8 1.21 1.1
3 9 8 3.32 1.65
3 9 9 -1.46 1.15
3 9 9 0.37 0.93
3 9 9 1.15 1.11
3 9 9 -0.91 1.07
3 9 9 -0.43 0.8
3 9 10 -0.47 1.14
3 9 10 -0.32 0.61
3 9 10 -0.51 0.48
3 9 10 0.57 0.88
3 9 10 0.17 1.05
3 9 11 -0.56 1.48
3 9 11 -2.92 1.47
3 9 11 -0.27 0.88
3 9 11 -1.05 1.21
3 9 11 1.02 1.3
3 9 12 0 0.91
3 9 12 -1 1.35
3 9 12 0.48 0.64
3 9 13 0.82 1.18
3 9 13 1.63 1.35
3 10 -2 -0.76 1.52
3 10 -2 1.81 1.41
3 10 -1 4.88 2.04
3 10 -1 5.46 2.03
3 10 -1 4.89 2.11
3 10 0 -1.91 1.9
3 10 0 1.52 1.47
3 10 0 1.21 1.48
3 10 1 0.11 1
3 10 1 -0.55 0.72
3 10 2 -0.18 0.65
3 10 2 -0.52 0.94
3 10 2 0.05 0.66
3 10 3 3.43 1.46
3 10 3 6.5 2.28
3 10 3 5.66 2.21
3 10 3 5.43 1.7
3 10 4 -0.12 0.54
3 10 4 1.27 1.35
3 10 4 0.36 0.56
3 10 4 0.8 0.75
3 10 4 0.83 0.64
3 10 5 4.68 1.79
3 10 5 6.66 2.35
3 10 5 3.91 1.61
3 10 5 8.21 2.42
3 10 5 4.69 1.76
3 10 6 2.65 1.36
3 10 6 5.83 2.25
3 10 6 2.41 1.39
3 10 6 3.3 1.91
3 10 6 3.99 1.54
3 10 7 1.12 0.69
3 10 7 0.75 0.63
3 10 7 -0.39 0.67
3 10 7 0.89 0.89
3 10 8 -0.92 1.39
3 10 8 1.57 0.99
3 10 8 3.12 1.63
3 10 8 0.85 0.82
3 10 8 3.01 1.71
3 10 9 -0.13 0.9
3 10 9 -1.1 1.51
3 10 9 -0.87 0.93
3 10 9 0.67 0.6
3 10 9 -0.63 0.98
3 10 10 -0.42 0.84
3 10 10 0.24 1.13
3 10 10 -1.21 1.29
3 10 10 0.57 1.26
3 10 10 0.07 1.2
3 10 11 -1.51 0.58
3 10 11 0 0.62
3 10 12 0.06 0.45
3 10 12 0.49 0.54
3 10 12 0.63 1.14
3 11 -1 0.42 0.66
3 11 0 -0.3 1.14
3 11 1 0.96 0.72
3 11 2 -0.58 1.56
3 11 2 0.18 0.85
3 11 3 0.88 0.86
3 11 3 0.71 0.79
3 11 3 -1.06 1.51
3 11 4 1.64 1.26
3 11 4 1.77 1.47
3 11 4 2.68 1.43
3 11 4 1.76 1.18
3 11 5 1.82 1.12
3 11 5 0.65 1.31
3 11 5 1.74 1.14
3 11 5 0.55 0.71
3 11 5 1.62 1.01
3 11 6 -0.18 0.77
3 11 6 -0.9 1.24
3 11 6 -2 1.52
3 11 6 1.75 1.46
3 11 6 -0.81 0.99
3 11 7 0.53 0.65
3 11 7 0.99 1.2
3 11 7 0.01 0.99
3 11 7 0.86 0.99
3 11 7 0.68 1.01
3 11 8 -0.28 0.98
3 11 8 1.75 1.17
3 11 8 0.42 1.13
3 11 8 0.72 0.69
3 11 8 0.33 0.88
3 11 9 -0.74 1.4
3 11 9 0.68 0.67
3 11 9 -0.27 0.72
3 11 9 0.86 1.13
3 11 10 0.08 0.67
3 11 10 0.79 0.91
3 11 11 0.57 0.63
3 11 11 0.72 0.96
3 12 5 0.24 0.8
3 12 6 -0.42 0.73
3 12 6 -0.29 0.67
3 12 7 0.77 0.97
4 -8 -7 1.2 0.83
4 -8 -6 -1.16 1.05
4 -8 -5 -0.39 0.88
4 -8 -4 -0.13 1.12
4 -8 -3 -0.65 1.23
4 -8 -2 1.1 1.21
4 -8 -1 -1.6 1.26
4 -8 0 0.87 0.83
4 -8 3 0.8 0.69
4 -7 -9 0.03 0.81
4 -7 -7 0.37 0.85
4 -7 -6 0.74 0.98
4 -7 -5 0.76 0.82
4 -7 -4 0.75 0.86
4 -7 -3 5.27 2.05
4 -7 -2 0.52 0.9
4 -7 -1 4.07 1.4
4 -7 -1 3.84 1.76
4 -7 0 0.99 1.05
4 -7 0 0.9 1.12
4 -7 1 6.08 2.03
4 -7 1 6.01 1.81
4 -7 1 7.44 2.53
4 -7 2 3.88 1.7
4 -7 2 4.54 1.49
4 -7 2 5.68 2.09
4 -7 3 0.47 0.85
4 -7 3 3.36 1.54
4 -7 3 1.31 1.07
4 -7 4 0.47 0.51
4 -7 4 1.04 1.2
4 -7 4 1.17 0.92
4 -7 4 -0.92 1.33
4 -7 5 0.23 0.58
4 -7 5 0.51 1.05
4 -7 5 0.52 0.61
4 -6 -9 -1.66 1.5
4 -6 -8 -0.29 1.05
4 -6 -7 0.4 0.69
4 -6 -6 0.6 0.87
4 -6 -5 1.5 1.19
4 -6 -4 0.52 0.53
4 -6 -3 0.06 0.47
4 -6 -2 -0.12 0.52
4 -6 -2 -0.5 0.79
4 -6 -1 3.76 1.39
4 -6 -1 3.85 1.51
4 -6 0 9.83 2.28
4 -6 0 9.29 2
4 -6 0 9.65 2.65
4 -6 1 5.37 1.75
4 -6 1 6.9 1.8
4 -6 1 6.43 2.17
4 -6 2 33.62 4.17
4 -6 2 30.41 4.78
4 -6 2 35.67 4.67
4 -6 3 6.06 1.98
4 -6 3 6.76 2.07
4 -6 3 6.5 2.24
4 -6 4 4.12 1.76
4 -6 4 6.82 2.19
4 -6 4 5.31 1.89
4 -6 4 3.74 1.6
4 -6 5 -0.83 1.39
4 -6 5 1.76 1.24
4 -6 5 2.87 1.65
4 -6 5 1.23 1.32
4 -6 6 2.39 1.34
4 -6 6 0.67 0.95
4 -6 6 0.65 0.88
4 -6 6 1.18 1.38
4 -6 6 -0.18 0.95
4 -6 7 0.44 0.73
4 -5 -9 -0.5 0.93
4 -5 -8 2.76 1
4 -5 -7 5.2 1.62
4 -5 -7 5.46 1.89
4 -5 -6 13.58 2.66
4 -5 -5 2.18 1.24
4 -5 -4 4.69 1.3
4 -5 -4 4.69 1.67
4 -5 -3 1.36 0.73
4 -5 -3 0.72 0.48
4 -5 -2 0.07 0.44
4 -5 -2 0.1 0.93
4 -5 -1 0.02 0.33
4 -5 -1 0.44 0.43
4 -5 -1 0.53 0.37
4 -5 -1 -0.13 0.5
4 -5 0 11.27 2.3
4 -5 0 10.84 1.91
4 -5 0 12.95 2.17
4 -5 0 11.98 2.66
4 -5 1 3.45 1.34
4 -5 1 4.53 1.37
4 -5 1 2.42 1.05
4 -5 1 1.77 1.18
4 -5 2 12.24 2.61
4 -5 2 9.6 2.15
4 -5 2 12.82 2.44
4 -5 2 8.8 2.45
4 -5 3 11.34 2.55
4 -5 3 12.08 2.48
4 -5 3 14.71 2.81
4 -5 3 13.48 3.12
4 -5 4 -1.27 1.1
4 -5 4 0.36 0.49
4 -5 4 0.11 0.49
4 -5 4 0.25 1.02
4 -5 5 4.23 1.91
4 -5 5 5.15 2
4 -5 5 5.23 1.94
4 -5 5 4.04 1.71
4 -5 6 -0.53 0.88
4 -5 6 0.21 0.64
4 -5 6 0.97 0.86
4 -5 6 0.05 0.46
4 -5 7 0.26 0.67
4 -5 7 0.33 0.83
4 -5 7 0.23 1.05
4 -5 7 1.07 0.83
4 -5 8 -0.37 0.9
4 -5 9 0.4 0.99
4 -4 -10 -0.64 0.6
4 -4 -9 -0.5 0.84
4 -4 -8 0.29 0.36
4 -4 -8 0.78 0.81
4 -4 -7 10.53 2.18
4 -4 -7 13.41 2.94
4 -4 -6 11.8 2.17
4 -4 -6 12.68 2.43
4 -4 -6 14.62 2.75
4 -4 -6 11.25 2.08
4 -4 -5 7.86 1.68
4 -4 -5 5.91 1.32
4 -4 -5 7.46 1.9
4 -4 -5 9.19 2.09
4 -4 -4 0.57 0.71
4 -4 -4 -0.12 0.25
4 -4 -4 0.11 0.4
4 -4 -4 -0.19 0.35
4 -4 -3 8.77 1.79
4 -4 -3 7.91 1.19
4 -4 -3 7.48 2.04
4 -4 -2 11.23 2.04
4 -4 -2 12.19 1.36
4 -4 -2 12.94 1.42
4 -4 -2 13.15 2.64
4 -4 -1 21.98 2.19
4 -4 -1 24.7 2.38
4 -4 -1 17.22 3.14
4 -4 -1 24.84 3.23
4 -4 0 0.5 0.46
4 -4 0 0.59 0.55
4 -4 0 1.33 0.72
4 -4 0 0.47 0.85
4 -4 1 3.03 1.14
4 -4 1 3.11 1.15
4 -4 1 2.82 1.16
4 -4 1 1.35 0.91
4 -4 2 -0.07 0.51
4 -4 2 1.74 0.94
4 -4 2 1.31 0.87
4 -4 2 0.17 0.9
4 -4 3 4.13 1.61
4 -4 3 2.03 1.1
4 -4 3 2 1.02
4 -4 3 3.53 1.4
4 -4 4 0.16 0.68
4 -4 4 -0.12 0.81
4 -4 4 -0.3 0.83
4 -4 4 0.36 1.03
4 -4 5 15.31 3.08
4 -4 5 13.53 2.83
4 -4 5 14.92 3.05
4 -4 5 11.85 2.92
4 -4 6 3.19 1.5
4 -4 6 1.11 1.14
4 -4 6 2.76 1.56
4 -4 6 0.94 1.02
4 -4 7 4.12 1.6
4 -4 7 4.18 1.78
4 -4 7 7.86 2.41
4 -4 7 3.57 1.67
4 -4 8 4.59 2.07
4 -4 8 5.16 2.14
4 -4 8 5.62 2.28
4 -4 8 2.09 1.37
4 -4 9 0.35 0.5
4 -3 -11 0.27 1.01
4 -3 -10 -0.35 0.6
4 -3 -10 -0.43 0.86
4 -3 -9 -0.91 1.28
4 -3 -9 0.67 0.99
4 -3 -8 5.91 1.85
4 -3 -8 9.98 2.59
4 -3 -7 2.72 1.17
4 -3 -7 4.06 1.58
4 -3 -7 3.07 1.31
4 -3 -6 3.2 1.16
4 -3 -6 2.71 1.15
4 -3 -6 3.52 1.13
4 -3 -6 4.88 1.67
4 -3 -5 8.62 1.84
4 -3 -5 5.98 1.63
4 -3 -5 6.26 1.64
4 -3 -5 7.83 1.86
4 -3 -4 0.57 0.56
4 -3 -4 0.29 0.43
4 -3 -4 -0.08 0.38
4 -3 -4 0.22 0.7
4 -3 -3 0.7 0.44
4 -3 -3 0.67 0.43
4 -3 -3 0.28 0.31
4 -3 -3 1.25 0.83
4 -3 -2 24.7 1.53
4 -3 -2 27.46 1.63
4 -3 -2 27.41 2.34
4 -3 -2 24.79 1.56
4 -3 -2 28.97 1.68
4 -3 -2 29.73 2.96
4 -3 -2 27.88 3.18
4 -3 -1 14.2 1.47
4 -3 -1 13.53 1.58
4 -3 -1 13.75 1.59
4 -3 -1 16.51 1.76
4 -3 -1 14.81 1.78
4 -3 -1 13.3 2.33
4 -3 0 55.91 3.66
4 -3 0 55.21 2.59
4 -3 0 52.99 3.62
4 -3 0 57.68 3.74
4 -3 0 57.6 2.97
4 -3 0 60.38 4.92
4 -3 1 -0.29 0.58
4 -3 1 1.15 0.42
4 -3 1 0.25 0.33
4 -3 1 0.23 0.16
4 -3 1 0.73 0.58
4 -3 1 0.18 0.18
4 -3 2 5.86 1.6
4 -3 2 5.82 0.92
4 -3 2 4.58 1.21
4 -3 2 6.1 1.46
4 -3 3 0.96 0.72
4 -3 3 0.33 0.44
4 -3 3 1.32 0.91
4 -3 4 2.83 1.28
4 -3 4 2.54 1.23
4 -3 4 2.36 1.18
4 -3 5 2.87 1.22
4 -3 5 1.69 0.89
4 -3 5 1.52 0.96
4 -3 6 1.03 0.89
4 -3 6 0.35 0.69
4 -3 6 -0.07 0.66
4 -3 7 -0.19 0.81
4 -3 7 0.49 0.67
4 -3 7 0.96 0.87
4 -3 8 17.35 3.61
4 -3 8 19.69 3.99
4 -3 8 17.26 3.74
4 -3 8 16.22 3.29
4 -3 9 -0.53 0.64
4 -3 9 0.25 0.64
4 -3 9 0.9 1.17
4 -3 9 -0.23 0.61
4 -3 10 0.56 0.46
4 -2 -11 -0.29 1.16
4 -2 -10 1.8 1.56
4 -2 -10 0.37 0.93
4 -2 -9 0.84 1.01
4 -2 -9 0.4 0.7
4 -2 -8 2.35 1.35
4 -2 -8 3.92 1.78
4 -2 -7 10.44 2.41
4 -2 -7 12.58 2.63
4 -2 -6 0.16 0.48
4 -2 -6 0.19 0.45
4 -2 -6 0.25 0.32
4 -2 -6 0.06 0.44
4 -2 -5 0.05 0.45
4 -2 -5 -0.22 0.47
4 -2 -5 -0.33 0.44
4 -2 -5 0.07 0.4
4 -2 -4 2.62 1.1
4 -2 -4 2.55 0.99
4 -2 -4 3.59 1.17
4 -2 -4 2.4 1.09
4 -2 -3 2.23 0.82
4 -2 -3 1.05 0.67
4 -2 -2 6.82 1.62
4 -2 -2 6.73 0.64
4 -2 -2 5.98 0.61
4 -2 -2 6.76 0.64
4 -2 -2 8.01 1.51
4 -2 -1 10.74 2.01
4 -2 -1 12.02 1.34
4 -2 -1 11.64 1.33
4 -2 -1 9.37 1.44
4 -2 0 10.28 1.42
4 -2 0 10.55 1.51
4 -2 0 10.93 1.51
4 -2 0 9.53 1.22
4 -2 0 10.38 2.1
4 -2 1 2.14 1.02
4 -2 1 1.93 0.78
4 -2 1 1.33 0.46
4 -2 1 1.43 0.63
4 -2 1 1.34 0.32
4 -2 2 1.31 0.94
4 -2 2 1.62 0.77
4 -2 2 1.22 0.47
4 -2 2 1.13 0.68
4 -2 3 19.72 2.71
4 -2 3 20.36 2.11
4 -2 3 23.38 3.02
4 -2 3 23.2 3.18
4 -2 4 31.41 3.61
4 -2 4 26.28 2.63
4 -2 4 28.35 3.54
4 -2 4 30.91 3.91
4 -2 5 3.41 1.44
4 -2 5 4.43 1.37
4 -2 5 2.72 1.24
4 -2 6 6.85 1.95
4 -2 6 5.97 1.83
4 -2 6 6.9 1.95
4 -2 7 10.77 2.55
4 -2 7 11.14 2.48
4 -2 7 10.12 2.49
4 -2 8 9.82 2.68
4 -2 8 10.68 2.75
4 -2 8 11.24 2.86
4 -2 9 1.27 1.17
4 -2 9 -0.24 0.55
4 -2 9 0.38 0.53
4 -2 10 6.24 2.24
4 -2 10 3.5 1.79
4 -2 10 3 1.4
4 -1 -10 -0.41 0.81
4 -1 -10 4.86 2.11
4 -1 -9 6.25 2.36
4 -1 -9 7.14 2.53
4 -1 -8 6.44 1.98
4 -1 -8 5.1 1.81
4 -1 -7 5.13 1.77
4 -1 -7 8.68 2.24
4 -1 -6 -0.26 0.84
4 -1 -6 0.41 0.33
4 -1 -6 -0.34 0.68
4 -1 -5 7.16 1.78
4 -1 -5 11.4 2.25
4 -1 -4 4.81 1.43
4 -1 -3 0.51 0.69
4 -1 -3 0.16 0.66
4 -1 -2 -0.41 0.5
4 -1 -2 -0.02 0.1
4 -1 -2 0.12 0.12
4 -1 -2 0.05 0.66
4 -1 -1 1.05 0.63
4 -1 -1 1.21 0.42
4 -1 -1 1.16 0.37
4 -1 -1 0.09 0.6
4 -1 0 1.49 0.85
4 -1 0 1.28 0.56
4 -1 0 1.67 0.65
4 -1 0 0.56 0.48
4 -1 1 1.81 0.81
4 -1 1 2.64 0.84
4 -1 1 3.06 0.81
4 -1 1 2.66 0.77
4 -1 2 1.61 0.97
4 -1 2 0.56 0.63
4 -1 2 1.71 0.67
4 -1 2 1.22 0.64
4 -1 3 11.42 1.94
4 -1 3 14.46 1.94
4 -1 3 15.3 2.28
4 -1 3 14.6 2.55
4 -1 4 23.92 3.02
4 -1 4 22.44 3
4 -1 4 27.17 3.49
4 -1 5 35.26 3.98
4 -1 5 38.26 4.13
4 -1 5 39.07 4.35
4 -1 6 21.19 3.3
4 -1 6 21.72 3.31
4 -1 6 22.13 3.46
4 -1 7 6.07 1.95
4 -1 7 6.24 1.91
4 -1 7 6.01 2.06
4 -1 8 14.87 3.16
4 -1 8 12.91 2.84
4 -1 8 14.05 3.01
4 -1 9 30.62 4.71
4 -1 9 36.86 5.1
4 -1 9 33.88 4.85
4 -1 10 6.37 1.98
4 -1 10 10.42 2.77
4 -1 10 12.25 3.13
4 -1 11 2.12 1
4 -1 11 2.58 1.73
4 -1 11 1.77 1.04
4 -1 12 1.49 1.77
4 0 -10 -0.11 0.75
4 0 -9 1.31 1.24
4 0 -9 -1.34 1.94
4 0 -8 1.61 1.21
4 0 -8 -0.98 1.76
4 0 -7 0 0.39
4 0 -7 -4 2.15
4 0 -6 -0.28 0.43
4 0 -6 -2.37 1.32
4 0 -5 -2.87 1.41
4 0 -4 53.26 4.52
4 0 -3 5.5 0.74
4 0 -3 3.84 0.48
4 0 -2 0.59 0.61
4 0 -2 0.22 0.19
4 0 -2 -0.03 0.16
4 0 -1 0.32 0.16
4 0 -1 -0.03 0.21
4 0 0 48.74 3.02
4 0 0 50.62 3.08
4 0 0 50.87 3.15
4 0 0 52.13 4.39
4 0 1 2.85 0.55
4 0 1 3.01 1.15
4 0 1 1.78 0.54
4 0 1 4.41 1.17
4 0 2 1.12 0.41
4 0 2 2.92 0.63
4 0 2 1.5 0.62
4 0 2 1.34 0.57
4 0 2 2.4 0.91
4 0 3 2.83 0.86
4 0 3 2.83 0.98
4 0 3 3.75 1.13
4 0 4 0.76 0.63
4 0 4 -0.41 0.65
4 0 4 -0.93 0.67
4 0 5 9.34 1.99
4 0 5 8.05 1.88
4 0 5 8.25 1.89
4 0 6 -0.37 0.58
4 0 6 0.49 0.71
4 0 6 0.06 0.71
4 0 7 1.48 1.12
4 0 7 -0.17 0.5
4 0 7 1.36 0.79
4 0 8 18.46 3.35
4 0 8 18.31 3.35
4 0 8 18.53 3.28
4 0 9 12.81 2.81
4 0 9 15.07 3.29
4 0 9 9.51 2.62
4 0 10 32.49 4.87
4 0 10 24.41 4.24
4 0 10 29.17 4.53
4 0 11 7.95 2.49
4 0 11 9.47 2.78
4 0 11 11.63 3.14
4 0 11 10.71 2.98
4 0 12 0.38 1.02
4 0 12 2.42 1.8
4 0 13 -0.43 0.71
4 1 -9 3.05 1.67
4 1 -9 0.09 1.34
4 1 -8 1.06 0.88
4 1 -8 -1.42 1.61
4 1 -7 8.6 2.37
4 1 -7 3.47 1.35
4 1 -6 -0.27 0.97
4 1 -5 -1.08 1.64
4 1 -4 1.32 0.6
4 1 -4 0.72 0.41
4 1 -3 75.47 3.72
4 1 -3 79.15 4.42
4 1 -2 0.29 0.25
4 1 -2 0.42 0.48
4 1 -2 0.06 0.36
4 1 -2 0.82 0.8
4 1 -1 16.43 1.8
4 1 -1 13.78 1.66
4 1 -1 20.31 2.47
4 1 0 0.91 0.71
4 1 0 2.43 0.85
4 1 0 1.51 0.52
4 1 1 646.34 12.32
4 1 1 641.75 12.28
4 1 1 663.74 15.37
4 1 2 265.52 8.4
4 1 2 284.8 8.79
4 1 2 277.45 8.03
4 1 2 258.68 6.29
4 1 2 281.27 10.04
4 1 3 124.76 6.27
4 1 3 138.05 6.59
4 1 3 125.36 5.11
4 1 3 132.62 6.97
4 1 4 0.46 0.44
4 1 4 0.78 0.71
4 1 4 0.83 0.86
4 1 4 1.09 0.5
4 1 5 16.8 2.65
4 1 5 22.06 3
4 1 5 18.18 1.86
4 1 5 22.39 3.04
4 1 6 0.08 0.67
4 1 6 0.14 0.66
4 1 6 0.95 0.94
4 1 7 2.07 0.92
4 1 7 4.94 1.71
4 1 7 4.3 1.6
4 1 8 0.93 0.96
4 1 8 0.52 0.48
4 1 8 1.73 1.28
4 1 9 12.84 2.8
4 1 9 12.28 2.84
4 1 9 10.44 2.66
4 1 10 8.79 2.6
4 1 10 7.54 2.4
4 1 10 8.77 2.54
4 1 10 11.5 3.09
4 1 11 16.47 3.69
4 1 11 13.3 3.17
4 1 11 16.26 3.65
4 1 11 17.06 3.72
4 1 12 -0.78 0.9
4 1 12 2.12 1.9
4 1 12 -0.26 0.78
4 1 12 0.56 0.95
4 1 13 2.21 1.56
4 2 -9 -0.88 0.65
4 2 -9 0.89 1.53
4 2 -8 10.22 2.84
4 2 -8 12.9 2.99
4 2 -7 19.02 3.64
4 2 -7 14.48 3.06
4 2 -6 2.72 1.23
4 2 -5 7.93 2.1
4 2 -4 5.59 1.24
4 2 -4 6.89 1.05
4 2 -4 6.19 1.3
4 2 -4 7.13 2.09
4 2 -3 6.49 1.34
4 2 -3 6.08 1.07
4 2 -3 5.8 1.43
4 2 -3 9.03 2.18
4 2 -2 10.75 1.66
4 2 -2 10.92 1.63
4 2 -2 9.52 1.39
4 2 -1 1.46 0.74
4 2 -1 1.02 0.54
4 2 0 11.32 1.85
4 2 0 14.93 1.97
4 2 0 13.7 1.84
4 2 1 -0.36 1.11
4 2 1 3.74 1.08
4 2 1 4.58 1.25
4 2 1 0.16 1.04
4 2 1 1.94 0.85
4 2 2 761.16 14.91
4 2 2 776.76 15.16
4 2 2 800.52 13.08
4 2 2 766.15 12.45
4 2 2 792.55 16.96
4 2 3 39.18 3.48
4 2 3 37.28 3.35
4 2 3 39.94 2.66
4 2 3 34.12 2.48
4 2 3 41.76 3.89
4 2 4 35.63 3.56
4 2 4 31.47 3.39
4 2 4 33.71 2.21
4 2 4 33.73 2.95
4 2 4 34.03 3.54
4 2 5 0.29 0.44
4 2 5 0.74 0.61
4 2 5 -0.57 0.52
4 2 5 0.3 0.43
4 2 5 0.11 0.24
4 2 6 57.2 5.05
4 2 6 67.76 5.52
4 2 6 54.35 2.54
4 2 6 58.91 5
4 2 7 30.02 3.9
4 2 7 28.62 3.79
4 2 7 25.74 1.81
4 2 7 27.48 3.47
4 2 8 7.5 1.98
4 2 8 6.74 1.97
4 2 8 6.67 2.04
4 2 9 1.8 1.07
4 2 9 3.61 1.88
4 2 9 0.47 0.78
4 2 9 3.32 1.63
4 2 10 9.08 2.67
4 2 10 5.86 1.87
4 2 10 2.45 1.27
4 2 10 4.88 2.07
4 2 11 0.59 0.45
4 2 11 0.82 0.53
4 2 11 1.26 1.17
4 2 11 0.49 1.01
4 2 12 0.65 1.12
4 2 12 2.31 0.88
4 2 12 3.6 1.61
4 2 12 2.95 1.6
4 2 13 1.57 1.01
4 2 13 -0.13 0.78
4 3 -8 0.48 0.61
4 3 -8 2.38 2.13
4 3 -7 24.44 4.34
4 3 -7 32.1 4.85
4 3 -6 68.5 6.61
4 3 -5 0.39 0.45
4 3 -5 3.94 2.3
4 3 -4 0.28 0.49
4 3 -4 4.47 2.26
4 3 -3 0.51 0.67
4 3 -3 0.25 0.23
4 3 -2 5.58 1.96
4 3 -2 5.47 0.92
4 3 -2 4.69 1.25
4 3 -1 23.23 2.72
4 3 -1 23.34 2.67
4 3 -1 25.19 3
4 3 0 12.38 2.06
4 3 0 10.89 1.8
4 3 0 10.2 1.73
4 3 1 8.08 1.71
4 3 1 5.83 1.4
4 3 1 6.56 1.45
4 3 1 7.35 1.48
4 3 2 44.18 3.77
4 3 2 33.05 3.23
4 3 2 34.66 2.65
4 3 2 46.89 3.71
4 3 2 36.44 3.64
4 3 3 55.45 4.34
4 3 3 52.06 4.26
4 3 3 52.43 2.86
4 3 3 46.28 3.28
4 3 3 56.47 3.74
4 3 3 59.92 4.62
4 3 4 0.33 0.68
4 3 4 -0.15 0.5
4 3 4 0.75 0.45
4 3 4 -0.15 0.47
4 3 4 0.44 0.35
4 3 5 0.67 0.57
4 3 5 0.62 0.53
4 3 5 0.37 0.35
4 3 5 0.84 0.82
4 3 6 8.96 1.95
4 3 6 14.1 3.15
4 3 6 9.9 2.16
4 3 6 11.31 2.25
4 3 7 57.35 5.23
4 3 7 58.27 5.46
4 3 7 55.24 5.25
4 3 7 47.29 4.44
4 3 8 5 1.53
4 3 8 6.36 1.97
4 3 8 6.85 2.17
4 3 8 4.27 1.67
4 3 9 2.12 1.06
4 3 9 2.77 1.24
4 3 9 4.72 1.73
4 3 9 4.35 1.84
4 3 10 0.02 0.44
4 3 10 -0.27 0.62
4 3 10 1.04 1.23
4 3 10 -0.96 1.15
4 3 11 0.39 0.99
4 3 11 0.74 0.91
4 3 11 -1.01 0.61
4 3 11 -0.31 0.79
4 3 12 6.18 2.27
4 3 12 6.85 2.08
4 3 12 4.45 2
4 3 12 3.82 1.88
4 3 12 1.59 1.38
4 3 13 -1.39 1.24
4 3 13 0.35 0.89
4 3 13 -1.22 1.33
4 3 13 0.15 0.61
4 3 14 -0.27 0.57
4 4 -8 12.27 3.63
4 4 -8 -0.56 0.83
4 4 -7 6.2 2.78
4 4 -7 0.92 1.52
4 4 -6 28.78 4.73
4 4 -5 41.65 4.35
4 4 -5 59.84 6.15
4 4 -4 2.29 1.7
4 4 -4 3.86 1.38
4 4 -3 23.69 3.48
4 4 -3 22.99 3.01
4 4 -2 28.83 1.66
4 4 -2 31.74 3.52
4 4 -2 27.84 1.63
4 4 -2 34.72 3.92
4 4 -1 57.7 3.11
4 4 -1 68.24 5
4 4 -1 63.72 4.78
4 4 -1 65.76 5.24
4 4 0 10.9 2.27
4 4 0 9.88 1.53
4 4 0 8.41 1.78
4 4 0 9.87 1.94
4 4 1 1.26 0.59
4 4 1 0.64 0.78
4 4 1 1.32 1
4 4 1 -0.48 0.32
4 4 2 6.71 1.83
4 4 2 0.61 0.85
4 4 2 1.18 0.69
4 4 2 5.52 1.5
4 4 3 7.57 1.7
4 4 3 5.36 1.08
4 4 3 7.63 2.03
4 4 3 6.72 1.32
4 4 3 4.59 1.3
4 4 3 6.66 1.57
4 4 4 1.43 0.94
4 4 4 1.26 0.68
4 4 4 0.72 0.34
4 4 4 3.06 1.37
4 4 4 0.47 0.67
4 4 5 0.59 0.57
4 4 5 0.36 0.42
4 4 5 -0.46 0.48
4 4 5 0.6 0.55
4 4 6 -0.24 0.61
4 4 6 -0.52 0.66
4 4 6 -0.5 0.69
4 4 6 1.13 0.63
4 4 6 1.87 1.17
4 4 7 1.04 0.79
4 4 7 0.85 0.74
4 4 7 3.82 1.54
4 4 7 4.05 1.75
4 4 8 20.07 3.38
4 4 8 21.03 3.44
4 4 8 18.82 3.24
4 4 8 21.67 3.01
4 4 9 1.38 1.05
4 4 9 1.49 0.83
4 4 9 1.92 1.33
4 4 9 2.08 1.17
4 4 10 0.84 0.81
4 4 10 0.52 0.6
4 4 10 1.4 1.23
4 4 10 -0.11 0.94
4 4 11 4.64 1.62
4 4 11 3.62 1.7
4 4 11 0.77 1.1
4 4 11 1.83 1.31
4 4 12 9.7 2.7
4 4 12 4.31 1.52
4 4 12 11.48 3.01
4 4 12 4.12 1.74
4 4 12 8.84 2.75
4 4 13 3.94 1.82
4 4 13 3.6 1.7
4 4 13 2.6 1.95
4 4 13 3.9 1.88
4 4 13 6.94 2.67
4 4 14 -0.63 0.79
4 5 -7 -2.69 2.3
4 5 -7 -0.22 0.84
4 5 -6 1.51 1.23
4 5 -5 -1.13 1.62
4 5 -5 1.18 0.94
4 5 -4 3.09 1.7
4 5 -4 2.88 1.37
4 5 -3 -0.52 1.44
4 5 -3 2.29 0.98
4 5 -2 4.19 1.83
4 5 -2 0.92 1.06
4 5 -1 12.44 2.45
4 5 -1 7.53 1.88
4 5 -1 8.49 1.98
4 5 -1 8.83 1.06
4 5 0 56.75 3.42
4 5 0 55.07 4.81
4 5 0 53.16 4.77
4 5 0 57.7 5.01
4 5 1 2.54 1.24
4 5 1 2.54 1.27
4 5 2 9.73 2.11
4 5 2 8.31 1.81
4 5 2 9.18 1.56
4 5 3 0.55 0.6
4 5 3 0.02 0.27
4 5 3 -1.71 1.03
4 5 3 0.43 0.7
4 5 3 0.12 0.53
4 5 3 -0.5 0.59
4 5 4 34.41 3.67
4 5 4 36.74 3.99
4 5 4 38.96 4.13
4 5 4 40.17 2.85
4 5 4 40.62 3.92
4 5 5 -0.05 0.39
4 5 5 1.01 1.05
4 5 5 0.37 0.31
4 5 5 1.27 0.82
4 5 5 0.01 0.49
4 5 6 3.67 1.2
4 5 6 3.24 1.22
4 5 6 3.22 1.36
4 5 6 3 0.57
4 5 6 2.55 0.86
4 5 7 0.61 0.51
4 5 7 1.31 0.82
4 5 7 -0.78 1.23
4 5 8 0.28 0.36
4 5 8 -0.51 0.88
4 5 8 0.08 0.65
4 5 8 -2.13 1.68
4 5 9 0.73 0.84
4 5 9 1.07 0.88
4 5 9 -1.01 1.52
4 5 9 0.82 1.2
4 5 10 5.94 1.76
4 5 10 7.54 2.25
4 5 10 5.1 1.69
4 5 10 5.37 1.8
4 5 11 1.19 0.94
4 5 11 -0.05 0.87
4 5 11 0.68 1
4 5 11 2.63 1.52
4 5 12 1.8 1.55
4 5 12 0.99 1.33
4 5 12 0.91 0.82
4 5 12 -0.18 1.09
4 5 12 0.08 1.19
4 5 13 0.72 1.13
4 5 13 -0.97 1.08
4 5 13 -0.83 0.71
4 5 13 2.24 1.67
4 5 14 -0.6 1.19
4 6 -6 0.26 1.3
4 6 -5 11.2 2.88
4 6 -5 13.75 2.92
4 6 -4 6.46 2.46
4 6 -4 6.65 2.02
4 6 -3 2.17 1.64
4 6 -3 -0.94 0.97
4 6 -2 3.15 1.91
4 6 -2 0.46 0.5
4 6 -1 0.85 1.01
4 6 -1 -0.27 0.89
4 6 0 1.19 1.02
4 6 0 0.57 0.34
4 6 0 0.79 0.74
4 6 1 3.76 1.43
4 6 1 2.64 1.12
4 6 1 3.05 0.87
4 6 2 0.79 1.44
4 6 2 -0.25 0.8
4 6 2 0.51 0.74
4 6 2 0.73 0.65
4 6 3 5.95 1.55
4 6 3 9.95 2.24
4 6 3 9.04 2.12
4 6 3 9.55 1.85
4 6 4 21.58 2.96
4 6 4 22.62 3.31
4 6 4 18.38 2.97
4 6 4 18.23 1.99
4 6 4 20.75 2.84
4 6 5 53.15 4.92
4 6 5 53.25 5.18
4 6 5 54.51 5.22
4 6 5 52.68 2.83
4 6 5 51.69 4.41
4 6 6 7.81 2.17
4 6 6 12.23 2.59
4 6 6 9.26 2.28
4 6 6 11.56 2.11
4 6 7 2.79 1.01
4 6 7 4.23 1.43
4 6 7 3.14 1.6
4 6 7 5.13 1.73
4 6 8 2.37 0.95
4 6 8 3.84 1.6
4 6 8 2.63 1.29
4 6 8 2.23 1.21
4 6 9 11.58 2.84
4 6 9 11.08 2.64
4 6 9 10.67 2.65
4 6 9 12.03 2.17
4 6 10 5.45 2.1
4 6 10 5.63 2.45
4 6 10 2.38 1.09
4 6 10 4.48 1.64
4 6 10 3.76 1.64
4 6 10 3.69 1.9
4 6 11 8.4 2.75
4 6 11 7.63 1.94
4 6 11 6.38 2.08
4 6 11 7.74 2.45
4 6 11 7.94 2.77
4 6 12 2.08 1.37
4 6 12 0.48 0.83
4 6 12 1.12 1.07
4 6 12 1.09 1.13
4 6 13 -1.42 1.27
4 6 13 0.63 1.27
4 6 13 0.17 0.69
4 6 13 -0.44 0.64
4 6 14 -0.71 1.25
4 7 -5 -1.14 1.57
4 7 -5 0.58 1.17
4 7 -4 17.02 3.79
4 7 -4 10.06 2.67
4 7 -3 3.67 2.07
4 7 -3 3.47 1.49
4 7 -2 5.19 2.04
4 7 -2 1.52 0.68
4 7 -1 -0.31 1.32
4 7 -1 1.7 0.92
4 7 0 2.48 1.23
4 7 0 2.08 1.11
4 7 1 8.65 2.25
4 7 1 8.15 2.14
4 7 1 9.32 1.64
4 7 2 0.34 0.68
4 7 2 0.15 0.36
4 7 2 -0.18 0.32
4 7 2 -0.39 0.57
4 7 3 5.78 1.39
4 7 3 5.21 1.72
4 7 3 5.58 1.56
4 7 3 6.34 1.86
4 7 4 5.66 1.6
4 7 4 5.02 1.1
4 7 4 7.41 2.02
4 7 4 8.2 2.14
4 7 4 6.18 1.71
4 7 5 3.24 1.24
4 7 5 1.74 1.29
4 7 5 3.11 1.55
4 7 5 3.68 1.39
4 7 6 15.47 3
4 7 6 13.58 2.92
4 7 6 14.22 2.97
4 7 6 15.18 2.37
4 7 7 0.07 0.5
4 7 7 0.25 0.43
4 7 7 0.54 0.82
4 7 7 -0.07 0.6
4 7 8 -0.33 0.64
4 7 8 -0.45 0.84
4 7 8 0.22 0.58
4 7 8 0.66 0.84
4 7 9 1.16 0.72
4 7 9 3.35 1.63
4 7 9 2.71 1.61
4 7 9 3.67 1.67
4 7 9 4.35 2.18
4 7 10 25.01 4.3
4 7 10 26.58 3.98
4 7 10 32.97 4.78
4 7 10 26.79 4.34
4 7 10 28.33 4.57
4 7 11 11.33 3.03
4 7 11 8.19 2.18
4 7 11 8.55 2.75
4 7 11 7.96 2.33
4 7 11 7.42 2.41
4 7 12 0.62 0.68
4 7 12 -0.85 0.5
4 7 12 -0.84 0.54
4 7 12 1.24 1.49
4 7 13 -0.96 1.25
4 7 13 -0.23 0.59
4 7 13 0.26 0.67
4 8 -5 1.67 1.19
4 8 -4 0.05 1.12
4 8 -4 -0.4 0.98
4 8 -3 2.1 1.26
4 8 -3 0.98 0.84
4 8 -2 14.64 3.05
4 8 -2 6.65 2.14
4 8 -1 10.79 3.36
4 8 -1 1 1.16
4 8 0 4.78 1.54
4 8 0 4.16 1.94
4 8 1 20.31 3.53
4 8 1 21.75 3.74
4 8 1 27.42 4.23
4 8 1 18.64 2.97
4 8 2 28.21 4.15
4 8 2 25.01 3.89
4 8 2 22.06 3.66
4 8 2 27.67 3.18
4 8 2 31.52 4.02
4 8 3 2.39 1.6
4 8 3 -1.42 1.52
4 8 3 0.78 0.41
4 8 3 0.66 0.86
4 8 3 0.3 0.51
4 8 4 5 1.76
4 8 4 1.32 0.82
4 8 4 4.17 1.88
4 8 4 3.33 1.59
4 8 5 1.7 1.01
4 8 5 -0.12 0.52
4 8 5 1.4 0.9
4 8 5 0.31 0.54
4 8 6 3.3 1.12
4 8 6 4.59 1.93
4 8 6 1.61 1.11
4 8 6 3.2 1.7
4 8 7 1.98 0.87
4 8 7 2.38 1.33
4 8 7 2.71 1.27
4 8 7 2.46 1.23
4 8 8 6.19 2.25
4 8 8 8.2 2.32
4 8 8 9.45 2.59
4 8 8 3.72 1.88
4 8 9 -0.14 1.07
4 8 9 3.8 1.99
4 8 9 0.94 0.78
4 8 9 2.33 1.51
4 8 9 0.46 0.57
4 8 10 2.95 1.27
4 8 10 2.77 1.8
4 8 10 2.23 1.36
4 8 10 2.42 1.35
4 8 10 2.98 1.65
4 8 11 6.61 2.33
4 8 11 5.68 1.87
4 8 11 8.87 2.61
4 8 11 6.73 2.21
4 8 11 8.88 2.77
4 8 12 -0.74 1.23
4 8 12 0.85 1.15
4 8 12 -2.66 1.55
4 8 12 2.19 1.65
4 8 13 -0.21 1.2
4 8 13 -0.61 1.1
4 9 -3 2.84 1.72
4 9 -2 7.15 3.11
4 9 -2 -1.07 0.71
4 9 -1 10.19 3.23
4 9 -1 6.76 2.47
4 9 0 2.29 1.66
4 9 0 2.36 1.33
4 9 1 20.43 3.69
4 9 1 17.68 3.53
4 9 1 14.29 2.62
4 9 2 16.69 3.12
4 9 2 16.36 3.48
4 9 2 17.97 3.63
4 9 2 17.3 3.04
4 9 3 30.91 4.68
4 9 3 26.56 4.43
4 9 3 26.75 3.47
4 9 3 27.82 4.14
4 9 3 30.43 4.15
4 9 4 0.37 0.49
4 9 4 1.77 1.44
4 9 4 0.8 0.83
4 9 4 1.1 1.14
4 9 5 0.81 0.77
4 9 5 0.96 0.97
4 9 5 -0.88 0.77
4 9 5 -1.33 1.08
4 9 5 0.92 0.98
4 9 6 -0.59 0.67
4 9 6 0.73 0.94
4 9 6 0.46 0.4
4 9 6 0.4 1.13
4 9 6 -0.26 0.75
4 9 7 1.05 1.07
4 9 7 3.96 2.32
4 9 7 1.4 1.09
4 9 7 1.51 1.08
4 9 7 1.05 0.81
4 9 8 0.52 1.21
4 9 8 2.33 1.85
4 9 8 0.58 0.53
4 9 8 -0.69 1.09
4 9 8 -0.05 0.71
4 9 9 0.12 0.78
4 9 9 -0.18 0.6
4 9 9 0.54 0.99
4 9 9 -1.28 1.4
4 9 9 0.14 0.67
4 9 10 -0.11 1.02
4 9 10 0.59 0.82
4 9 10 0.35 0.78
4 9 10 0.08 0.46
4 9 10 1.92 1.22
4 9 11 0.05 0.59
4 9 11 -0.51 0.77
4 9 11 0.2 0.52
4 9 11 -0.95 1.21
4 9 11 1.3 1.03
4 9 12 -2.07 1.73
4 9 12 -0.32 0.49
4 9 12 0.54 1.11
4 10 -2 4.01 2.03
4 10 0 -2.83 1.95
4 10 0 -2.95 1.63
4 10 1 -6.88 2.39
4 10 1 0.76 1.1
4 10 2 4.74 1.65
4 10 2 2.12 0.74
4 10 2 5 2.09
4 10 3 -2.16 1.2
4 10 3 -0.24 0.99
4 10 3 1.16 1.08
4 10 4 6.48 1.98
4 10 4 5.66 2.05
4 10 4 10.08 2.95
4 10 4 9.48 2.25
4 10 5 0.23 1.01
4 10 5 1.43 1.11
4 10 5 1.05 0.77
4 10 5 0.45 0.61
4 10 6 1.83 1.11
4 10 6 -0.13 0.97
4 10 6 2.33 1.52
4 10 6 1.5 1.47
4 10 7 1.14 0.9
4 10 7 3.26 1.46
4 10 7 3.42 1.94
4 10 7 2.72 1.57
4 10 7 3.06 1.7
4 10 8 0.49 0.98
4 10 8 4.96 1.95
4 10 8 4.2 2.18
4 10 8 3.27 1.71
4 10 8 3.61 1.95
4 10 9 0.02 1.14
4 10 9 0.87 1.36
4 10 9 -1.09 1.32
4 10 9 1.86 1.61
4 10 9 1.08 1.3
4 10 10 0.16 0.65
4 10 10 -0.07 0.82
4 10 10 -0.21 0.86
4 10 10 0.02 0.65
4 10 10 0.49 0.97
4 10 11 -0.06 0.57
4 10 11 0.07 0.87
4 10 12 -4.61 1.95
4 11 1 -0.82 0.67
4 11 2 3.8 2.1
4 11 3 1.06 1.44
4 11 3 1.2 0.89
4 11 4 1.84 1.07
4 11 4 2.75 2.06
4 11 4 0.94 1.41
4 11 4 1.32 1.09
4 11 5 1.34 0.79
4 11 5 2.76 1.77
4 11 5 -0.24 0.64
4 11 5 2.04 1.51
4 11 5 2.03 1.2
4 11 6 -0.19 0.61
4 11 6 0.95 1.13
4 11 6 0.53 0.91
4 11 6 1.16 1.06
4 11 6 -0.26 0.71
4 11 7 -0.51 1.08
4 11 7 1.86 1.39
4 11 7 0.98 1.19
4 11 7 -1.34 1.35
4 11 7 1.02 1.08
4 11 8 -1.37 1.72
4 11 8 -0.26 0.74
4 11 8 1.76 1.65
4 11 8 -0.65 1.3
4 11 8 -0.92 0.96
4 11 9 -0.23 0.91
4 11 9 0.47 0.61
4 11 9 -0.16 0.92
4 12 5 0.84 1.21
4 12 6 0.14 0.68
4 12 7 0.05 0.84
5 -7 -6 -0.61 0.9
5 -7 -5 -0.15 0.76
5 -7 -4 1.4 0.94
5 -7 -3 0.43 0.5
5 -7 -2 3.03 1.82
5 -7 -1 3.24 1.96
5 -7 1 0.58 0.79
5 -7 2 -1.11 0.92
5 -7 3 1.29 0.56
5 -6 -8 -0.82 0.69
5 -6 -6 -0.85 1.24
5 -6 -5 2.25 1.3
5 -6 -4 0.16 0.62
5 -6 -3 0.8 1.03
5 -6 -2 1.36 1.04
5 -6 -1 6.31 2.02
5 -6 -1 4.55 1.66
5 -6 0 1.01 0.99
5 -6 0 -1.88 1.31
5 -6 1 0.04 0.46
5 -6 1 0.51 0.95
5 -6 2 -0.63 1.13
5 -6 2 0.91 1.14
5 -6 3 3.47 1.75
5 -6 3 4.16 1.94
5 -6 4 9.34 2.79
5 -6 4 6.61 2.29
5 -6 4 6.15 2.11
5 -6 5 0.56 1.04
5 -6 5 -1.86 1.61
5 -5 -8 0.1 0.95
5 -5 -7 -0.4 0.67
5 -5 -6 1.64 0.96
5 -5 -6 3.35 1.57
5 -5 -5 5.41 1.88
5 -5 -5 4.26 1.54
5 -5 -4 4.31 1.87
5 -5 -3 -0.16 0.42
5 -5 -3 -0.5 0.97
5 -5 -2 -0.17 0.4
5 -5 -2 1.78 1.39
5 -5 -1 1.34 0.98
5 -5 -1 -0.66 0.83
5 -5 0 0.94 0.98
5 -5 0 2 1.3
5 -5 1 1.16 0.8
5 -5 1 0.89 1.09
5 -5 2 0.76 0.94
5 -5 2 1.56 0.98
5 -5 2 1.31 0.84
5 -5 2 1.95 1.34
5 -5 3 -0.62 0.75
5 -5 3 0.44 0.45
5 -5 3 -0.62 0.81
5 -5 3 1.57 1.33
5 -5 4 5.37 1.93
5 -5 4 4.97 1.82
5 -5 4 6.09 2.06
5 -5 4 4.51 2.13
5 -5 5 9.91 2.85
5 -5 5 8.2 2.44
5 -5 5 6.86 2.24
5 -5 5 6.92 2.54
5 -5 6 0.69 0.9
5 -5 6 -0.92 0.97
5 -5 6 0.42 0.65
5 -5 6 -0.22 0.82
5 -4 -9 0.61 1.08
5 -4 -8 3.12 1.48
5 -4 -7 -0.53 0.7
5 -4 -6 0.44 0.36
5 -4 -6 1.2 1.18
5 -4 -5 10.5 2.4
5 -4 -5 9.69 2.34
5 -4 -4 10.41 2.2
5 -4 -4 10.81 2.66
5 -4 -4 8.85 2.04
5 -4 -3 0.7 0.76
5 -4 -3 0.15 0.45
5 -4 -3 0.11 0.44
5 -4 -2 0.13 0.53
5 -4 -2 0.67 0.73
5 -4 -1 -0.14 0.55
5 -4 -1 -1.18 1.15
5 -4 0 0.94 0.7
5 -4 0 -0.18 0.67
5 -4 1 2.47 1.29
5 -4 1 1.23 0.78
5 -4 1 2.24 1.12
5 -4 1 1.95 1.24
5 -4 2 -0.06 0.76
5 -4 2 -0.45 0.44
5 -4 2 -0.77 0.66
5 -4 2 -0.06 0.45
5 -4 3 -0.34 0.71
5 -4 3 -0.12 0.47
5 -4 3 0.34 0.62
5 -4 4 0.9 0.81
5 -4 4 -0.15 0.58
5 -4 4 2.02 1.41
5 -4 4 1.81 1.39
5 -4 5 -0.92 1.12
5 -4 5 0.18 0.48
5 -4 5 0.9 0.92
5 -4 5 0.09 1.24
5 -4 6 0.28 0.79
5 -4 6 -0.3 0.74
5 -4 6 1.2 1.14
5 -4 6 -0.94 0.92
5 -4 7 4.1 1.9
5 -4 7 2.75 1.73
5 -4 7 5.02 2.27
5 -4 7 4.57 2.19
5 -4 8 1.53 1.11
5 -3 -9 0.72 1.01
5 -3 -8 1.43 1.4
5 -3 -7 4.51 2.04
5 -3 -6 0.94 0.82
5 -3 -6 0.3 0.42
5 -3 -5 2.63 1.12
5 -3 -5 5.65 1.77
5 -3 -5 6.51 2
5 -3 -4 3.25 1.35
5 -3 -4 2.77 1.14
5 -3 -4 4.29 1.54
5 -3 -3 3.82 1.31
5 -3 -3 1.76 1.17
5 -3 -3 4.42 1.53
5 -3 -2 -0.15 0.47
5 -3 -2 0.6 0.62
5 -3 -1 1.02 0.88
5 -3 -1 1.2 0.83
5 -3 0 1.78 0.99
5 -3 0 2.94 0.88
5 -3 0 2.28 0.73
5 -3 1 2.16 1.02
5 -3 1 2.63 0.99
5 -3 1 3.03 1.1
5 -3 2 0.83 0.51
5 -3 2 1.08 0.67
5 -3 2 0.54 0.56
5 -3 3 5.34 1.83
5 -3 3 6.9 1.88
5 -3 3 8.44 2.09
5 -3 4 -0.97 0.89
5 -3 4 -0.17 0.47
5 -3 4 -0.28 0.74
5 -3 5 0.75 0.51
5 -3 5 2.4 1.28
5 -3 5 1.97 1.2
5 -3 6 0.88 1.12
5 -3 6 1.15 0.87
5 -3 6 0.09 0.86
5 -3 7 1.17 1.08
5 -3 7 1.81 1.22
5 -3 7 2.42 1.41
5 -3 8 0.48 0.71
5 -3 8 0.33 1.09
5 -3 8 -0.92 1.33
5 -3 9 -0.33 0.74
5 -3 10 -0.62 0.89
5 -2 -10 0.78 0.54
5 -2 -9 0.58 0.83
5 -2 -9 1.26 1.29
5 -2 -8 0.15 0.48
5 -2 -8 0.53 1.18
5 -2 -7 0.72 0.93
5 -2 -7 1.47 1.2
5 -2 -7 1.25 1.27
5 -2 -6 2.42 1.24
5 -2 -6 0.84 0.6
5 -2 -6 3.49 1.57
5 -2 -5 -0.35 0.5
5 -2 -5 0.47 0.34
5 -2 -5 -1.6 0.86
5 -2 -5 -0.11 0.71
5 -2 -4 1.15 0.98
5 -2 -4 1.67 0.95
5 -2 -4 1.07 0.61
5 -2 -3 0.62 0.69
5 -2 -3 1.05 0.84
5 -2 -2 -0.25 0.61
5 -2 -2 2.92 1.08
5 -2 -1 0.28 0.75
5 -2 -1 0.8 0.39
5 -2 -1 0.88 0.36
5 -2 -1 -0.02 0.89
5 -2 0 1.3 1.13
5 -2 0 1.23 0.56
5 -2 0 1.7 0.57
5 -2 0 0.69 0.31
5 -2 1 0.05 0.41
5 -2 1 0.64 0.47
5 -2 1 0.13 0.33
5 -2 2 0.6 0.98
5 -2 2 2.31 0.96
5 -2 2 1.5 0.72
5 -2 3 1.86 1.03
5 -2 3 0.61 0.74
5 -2 3 0.6 0.7
5 -2 4 2.67 1.16
5 -2 4 5.14 1.65
5 -2 4 3.53 1.34
5 -2 5 0.61 0.68
5 -2 5 0.24 0.39
5 -2 5 1.24 0.79
5 -2 6 -0.15 0.98
5 -2 6 2.29 1.35
5 -2 6 2.21 1.29
5 -2 7 0.87 1.04
5 -2 7 -1.42 1.23
5 -2 7 0.94 0.99
5 -2 8 10.3 2.8
5 -2 8 13.42 3.26
5 -2 8 11.67 3.04
5 -2 9 1.13 1.23
5 -2 9 0.99 0.81
5 -2 9 2.48 1.77
5 -1 -9 0.45 0.97
5 -1 -9 -2.19 2.03
5 -1 -8 2.05 1.38
5 -1 -8 -2.18 1.87
5 -1 -7 0.22 0.76
5 -1 -7 -1.71 1.83
5 -1 -6 0.1 0.4
5 -1 -6 1.39 1.04
5 -1 -5 0.62 0.81
5 -1 -5 0.12 0.66
5 -1 -4 0.66 0.55
5 -1 -4 -6.55 1.77
5 -1 -3 2.14 1.07
5 -1 -3 -0.82 1.28
5 -1 -2 12.38 2.54
5 -1 -2 13.76 2.04
5 -1 -1 1.06 0.91
5 -1 -1 0.28 0.33
5 -1 -1 1.03 0.37
5 -1 -1 1.19 0.5
5 -1 0 0.6 0.61
5 -1 0 0.52 0.43
5 -1 0 1.13 0.49
5 -1 0 1.77 0.9
5 -1 1 -0.05 0.36
5 -1 1 -0.26 0.52
5 -1 1 0.18 0.52
5 -1 1 -0.35 0.25
5 -1 2 3.92 1.55
5 -1 2 1.99 0.91
5 -1 2 1.91 0.74
5 -1 3 1.74 0.98
5 -1 3 0.88 0.75
5 -1 3 1.05 0.66
5 -1 4 1.01 1
5 -1 4 -0.85 0.69
5 -1 4 -0.13 0.46
5 -1 5 2.01 0.89
5 -1 5 2.49 1.14
5 -1 5 1.93 1.05
5 -1 6 4.12 1.55
5 -1 6 6.93 2.09
5 -1 6 4.38 1.67
5 -1 7 -0.49 0.76
5 -1 7 0.2 0.46
5 -1 8 7.68 2.35
5 -1 8 9.16 2.75
5 -1 8 7.66 2.41
5 -1 9 13.08 3.13
5 -1 9 15.94 3.59
5 -1 9 17.53 3.73
5 -1 10 0.1 0.62
5 -1 10 -0.35 1.28
5 -1 10 0.22 0.86
5 0 -9 1.13 1.15
5 0 -8 0.89 0.75
5 0 -8 -8.38 2.58
5 0 -7 3.39 1.59
5 0 -7 2.06 0.98
5 0 -6 -0.04 0.49
5 0 -6 -2.32 1.6
5 0 -5 -1.19 1.24
5 0 -4 -0.52 0.8
5 0 -3 5.04 1.72
5 0 -3 2.27 0.8
5 0 -2 7.5 2
5 0 -2 6.12 0.96
5 0 -2 8.32 1.14
5 0 -2 8.36 1.76
5 0 -1 11.63 2.4
5 0 -1 11.68 1.5
5 0 -1 11.72 1.52
5 0 -1 12.1 1.99
5 0 0 0.53 0.79
5 0 0 -0.02 0.37
5 0 0 0.23 0.44
5 0 1 8.82 1.29
5 0 1 8.19 1.98
5 0 1 8.51 1.66
5 0 1 8.63 1.57
5 0 2 2.56 1.23
5 0 2 1.2 0.67
5 0 2 1.69 0.91
5 0 2 4.03 0.84
5 0 3 0.93 0.96
5 0 3 0.08 0.6
5 0 3 0.65 0.63
5 0 4 1.69 0.98
5 0 4 1.56 0.76
5 0 4 1.2 0.73
5 0 5 0.9 0.82
5 0 5 0.39 0.49
5 0 5 -0.12 0.4
5 0 6 -0.19 0.61
5 0 6 0.52 1.02
5 0 6 1.33 1.1
5 0 7 2.72 1.34
5 0 7 4.3 1.64
5 0 7 3.37 1.37
5 0 8 0.49 1.08
5 0 8 0.46 0.7
5 0 8 -1.8 1.12
5 0 9 0.76 0.91
5 0 9 0.2 0.99
5 0 9 0.6 0.77
5 0 10 10.17 2.87
5 0 10 12.59 3.22
5 0 10 15.92 3.71
5 0 11 -0.64 0.92
5 0 11 -0.26 0.9
5 0 11 -1.48 1.58
5 1 -8 2.55 1.48
5 1 -8 0.62 0.94
5 1 -7 0.25 1
5 1 -7 0.32 0.87
5 1 -6 0.19 0.83
5 1 -5 -0.75 0.81
5 1 -4 0.75 0.74
5 1 -3 0.45 0.45
5 1 -3 1.23 1.03
5 1 -2 3.52 1.49
5 1 -2 2.2 0.77
5 1 -2 3 0.84
5 1 -1 2.36 1.06
5 1 -1 2.22 0.83
5 1 -1 1.2 0.61
5 1 0 -0.49 0.85
5 1 0 0.76 0.64
5 1 0 0.45 0.4
5 1 0 0.55 0.51
5 1 1 6.94 1.77
5 1 1 7.62 1.53
5 1 1 8.89 1.54
5 1 1 7.52 1.54
5 1 2 19.49 2.61
5 1 2 19.72 2.62
5 1 2 27.08 2.33
5 1 2 21.6 3.26
5 1 3 18.45 2.67
5 1 3 17.07 2.54
5 1 3 15.09 1.39
5 1 3 15.91 2.78
5 1 4 1.07 1.02
5 1 4 1.77 0.95
5 1 4 1.01 0.61
5 1 5 0.16 0.46
5 1 5 1 0.67
5 1 5 -0.4 0.49
5 1 6 2.67 1.39
5 1 6 0.72 0.79
5 1 6 2.6 1.33
5 1 7 0.62 0.79
5 1 7 0.32 0.58
5 1 7 0.89 1.01
5 1 8 1.68 1.21
5 1 8 1.03 0.62
5 1 8 1.25 1.14
5 1 9 7.24 2.24
5 1 9 4.53 2
5 1 9 5.09 1.94
5 1 10 2.62 1.6
5 1 10 2.83 1.55
5 1 10 3.63 1.62
5 1 11 2.64 1.57
5 1 11 3.85 1.99
5 1 11 3.66 2.09
5 1 11 9.01 3.16
5 1 12 0.08 0.74
5 1 12 5.57 2.61
5 2 -8 2.52 1.78
5 2 -8 3.12 1.85
5 2 -7 1.21 1.3
5 2 -7 3.33 1.55
5 2 -6 6.11 2.2
5 2 -5 15.65 3.4
5 2 -4 0.4 0.24
5 2 -4 3.64 1.95
5 2 -3 3.61 1.03
5 2 -3 8.35 2.44
5 2 -2 0.28 0.53
5 2 -2 0.62 0.52
5 2 -1 0.3 0.45
5 2 -1 0.22 0.36
5 2 0 5.01 1.64
5 2 0 4.97 1.4
5 2 0 3.17 0.97
5 2 0 3.56 1.04
5 2 1 1.05 0.84
5 2 1 1.96 0.99
5 2 1 0.33 0.39
5 2 1 0.38 0.35
5 2 2 0.51 0.76
5 2 2 -0.28 0.47
5 2 2 0.71 0.55
5 2 3 1.18 0.89
5 2 3 -0.04 0.6
5 2 3 0.13 0.33
5 2 3 1.32 0.8
5 2 4 19.99 2.98
5 2 4 21.27 2.98
5 2 4 17.79 2.05
5 2 4 18.85 3.07
5 2 5 1.03 0.93
5 2 5 0.62 0.9
5 2 5 0.9 0.71
5 2 5 0.66 0.33
5 2 6 0.76 0.55
5 2 6 0.1 0.58
5 2 6 0.81 1.01
5 2 7 11.34 2.57
5 2 7 10.83 2.55
5 2 7 10.57 2.47
5 2 8 2.18 1.27
5 2 8 0.69 0.7
5 2 8 0.59 1.06
5 2 9 1.97 1.19
5 2 9 1.47 1.08
5 2 9 4.25 1.84
5 2 10 1.15 1.09
5 2 10 1.13 0.95
5 2 10 3.65 1.59
5 2 11 1 1.25
5 2 11 0.07 0.74
5 2 11 2.55 2.08
5 2 11 -0.39 1.1
5 2 12 0.28 0.96
5 2 12 1.51 1.44
5 2 12 -0.26 0.58
5 2 12 2.47 1.83
5 2 13 -0.45 1.24
5 3 -7 2.59 1.67
5 3 -7 7.06 2.76
5 3 -6 9.62 3.03
5 3 -5 16.03 3.41
5 3 -4 12.06 3
5 3 -4 5.41 1.4
5 3 -3 7.92 2.68
5 3 -3 1.78 0.73
5 3 -2 -0.1 1.2
5 3 -2 0.3 0.5
5 3 -2 0.67 0.53
5 3 -1 0.32 0.78
5 3 -1 1.7 0.99
5 3 -1 0.04 0.37
5 3 0 4.36 1.5
5 3 0 2.51 0.94
5 3 0 3.44 1.06
5 3 1 4.1 1.53
5 3 1 7.93 1.76
5 3 1 3.97 1.24
5 3 1 6.06 1.6
5 3 2 2.96 1.18
5 3 2 3.87 1.42
5 3 2 2.78 1.21
5 3 3 7.36 1.85
5 3 3 4.62 1.13
5 3 3 4.5 1.47
5 3 3 6.2 1.64
5 3 3 6.25 1.22
5 3 4 0.75 0.7
5 3 4 1.41 0.8
5 3 4 0.85 0.51
5 3 4 1.35 0.46
5 3 5 1.03 1
5 3 5 0.61 0.98
5 3 5 1.17 0.87
5 3 5 0.5 0.19
5 3 6 2.48 1.24
5 3 6 0.89 0.86
5 3 6 0.31 0.55
5 3 7 0.18 0.56
5 3 7 0.16 0.46
5 3 7 1.68 1.07
5 3 8 3.73 1.55
5 3 8 5.95 2.1
5 3 8 6.32 2.01
5 3 9 1.74 1.15
5 3 9 -0.14 0.79
5 3 9 -0.1 0.71
5 3 9 2.37 1.95
5 3 10 0.24 0.66
5 3 10 -0.3 0.67
5 3 10 -0.79 0.74
5 3 10 0.14 0.68
5 3 11 1.8 1.12
5 3 11 0.34 0.62
5 3 11 0.46 1.11
5 3 11 2.4 1.44
5 3 12 3.13 1.55
5 3 12 5.39 2.53
5 3 12 4.19 2.28
5 3 12 3.74 1.99
5 3 13 2.23 0.99
5 4 -7 9.95 3.43
5 4 -6 11.28 3.04
5 4 -5 1.87 0.97
5 4 -5 2.98 1.36
5 4 -4 0.31 1.29
5 4 -4 1.06 0.83
5 4 -3 0.51 0.82
5 4 -3 0.64 0.75
5 4 -2 3.71 1.64
5 4 -2 0.51 0.5
5 4 -1 0.08 0.34
5 4 -1 -0.14 0.63
5 4 0 2.74 1.54
5 4 0 0.76 0.65
5 4 0 0.74 0.72
5 4 1 2.76 1.17
5 4 1 1.86 0.9
5 4 1 2.45 1.07
5 4 2 20.07 2.97
5 4 2 22.02 3.06
5 4 2 27.95 3.56
5 4 2 23.68 3.5
5 4 3 0.37 0.57
5 4 3 0.22 0.39
5 4 3 1.51 0.59
5 4 3 1.18 0.75
5 4 4 0.86 0.6
5 4 4 -0.15 1.12
5 4 4 1.25 0.94
5 4 4 1.07 0.85
5 4 5 3.31 1.29
5 4 5 3.77 1.38
5 4 5 3.3 1.4
5 4 6 5.81 1.79
5 4 6 4.61 1.54
5 4 6 5.19 1.61
5 4 6 3.92 1.05
5 4 6 6.5 2.39
5 4 7 4.34 1.53
5 4 7 4.07 1.54
5 4 7 3.17 1.38
5 4 7 5.62 2.33
5 4 8 1.61 1.25
5 4 8 1.89 1.37
5 4 8 0 0.62
5 4 8 -0.52 1.06
5 4 9 0.2 0.7
5 4 9 0.2 0.61
5 4 9 -0.61 0.86
5 4 10 0.24 0.53
5 4 10 -0.01 0.67
5 4 10 -0.72 1.03
5 4 10 2.01 1.22
5 4 11 0.89 1.33
5 4 11 0.79 0.74
5 4 11 2.15 1.17
5 4 11 2.47 1.6
5 4 12 1.15 1.14
5 4 12 1.07 1.38
5 4 12 0.98 0.65
5 4 12 -1.11 1.69
5 4 13 4.11 2.28
5 4 13 -0.63 1.14
5 5 -6 0.83 1.38
5 5 -5 11.3 2.87
5 5 -5 14.54 2.92
5 5 -4 3.5 1.94
5 5 -4 -0.2 0.83
5 5 -3 1.25 0.97
5 5 -3 0.17 0.78
5 5 -2 2.1 1.78
5 5 -2 0.41 0.59
5 5 -1 0.43 0.83
5 5 -1 0.1 0.45
5 5 0 0.22 0.99
5 5 0 -0.21 0.46
5 5 0 0.75 0.62
5 5 0 0.38 0.46
5 5 1 -0.34 0.68
5 5 1 0.57 0.62
5 5 1 0.83 0.75
5 5 2 -0.23 0.86
5 5 2 1.2 0.91
5 5 2 0.29 0.92
5 5 2 0.71 0.82
5 5 3 0.51 0.86
5 5 3 0.8 0.74
5 5 3 -0.17 0.36
5 5 3 0.3 0.62
5 5 3 1.54 1.1
5 5 4 0.37 0.7
5 5 4 0.32 0.77
5 5 4 0.32 0.55
5 5 4 2.33 1.11
5 5 5 1.05 0.73
5 5 5 0.92 0.75
5 5 5 1.36 0.64
5 5 5 1.24 1.01
5 5 5 3.26 1.57
5 5 6 1.73 0.93
5 5 6 1.86 0.96
5 5 6 1.74 1.15
5 5 6 5.08 1.76
5 5 7 2.38 1.24
5 5 7 2.01 1.16
5 5 7 1.48 1.4
5 5 7 2.27 1.41
5 5 8 1.24 0.77
5 5 8 -0.04 0.72
5 5 8 0.2 0.62
5 5 8 -0.2 0.48
5 5 9 2.62 1.35
5 5 9 4.65 1.82
5 5 9 3.92 1.88
5 5 9 1.83 1.3
5 5 10 0.28 0.6
5 5 10 -0.43 0.98
5 5 10 0.7 0.72
5 5 10 -0.79 1.24
5 5 11 -0.8 0.71
5 5 11 -0.06 0.86
5 5 11 -0.52 1.02
5 5 11 -0.67 1.71
5 5 12 -0.26 0.5
5 5 12 2.03 1.4
5 5 12 -0.08 0.55
5 5 12 -0.98 1.21
5 5 13 3.09 2.1
5 5 14 2 1.57
5 6 -5 2.16 1.87
5 6 -5 2.46 1.65
5 6 -4 10.62 2.85
5 6 -4 8.19 2.26
5 6 -3 2.27 1.5
5 6 -3 0.2 0.67
5 6 -2 0.8 1.4
5 6 -2 -0.08 0.41
5 6 -1 2.63 1.54
5 6 -1 2.65 1.14
5 6 0 1.96 1.06
5 6 0 3.73 1.51
5 6 0 2.09 0.91
5 6 1 1.81 0.89
5 6 1 2.01 1.33
5 6 1 3 1.41
5 6 2 2.88 1.22
5 6 2 0.27 0.62
5 6 2 1.96 0.95
5 6 3 1.08 0.88
5 6 3 -0.76 0.96
5 6 3 1.99 1.04
5 6 3 0.18 1.11
5 6 3 1.48 1.01
5 6 4 3.99 1.32
5 6 4 2.05 0.75
5 6 4 5.11 1.81
5 6 4 4.72 1.62
5 6 4 2.25 1.11
5 6 5 0.21 0.59
5 6 5 0.35 1.02
5 6 5 0.48 0.51
5 6 5 -0.39 0.82
5 6 6 2.88 1.23
5 6 6 2.92 1.42
5 6 6 1.3 1.03
5 6 6 0.32 0.86
5 6 7 0.53 0.65
5 6 7 0.14 0.58
5 6 7 0.12 0.47
5 6 7 -1.39 1.58
5 6 8 1.48 1.04
5 6 8 2.85 1.39
5 6 8 -1.29 1.31
5 6 8 -0.45 0.68
5 6 9 1.76 1.03
5 6 9 1.17 1.18
5 6 9 -1.84 1.61
5 6 9 1.09 1.15
5 6 10 2.87 1.21
5 6 10 3.64 1.79
5 6 10 3.52 1.65
5 6 10 3.9 1.88
5 6 11 -0.1 0.49
5 6 11 -0.96 0.97
5 6 11 1.02 0.79
5 6 12 2.03 1.52
5 6 12 2.58 1.41
5 6 12 0.32 0.78
5 6 12 1.25 1.21
5 6 13 4.29 2.24
5 7 -5 1.05 1.21
5 7 -4 6.38 2.5
5 7 -4 6.13 2.17
5 7 -3 2.3 2.07
5 7 -3 0.17 1
5 7 -2 2.61 1.67
5 7 -2 -0.26 0.8
5 7 -1 0.23 1.04
5 7 -1 1.33 1.24
5 7 0 1.07 1.12
5 7 0 0.52 0.6
5 7 1 2.61 1.39
5 7 1 5.37 1.92
5 7 2 1.8 1.33
5 7 2 -0.05 0.64
5 7 2 0.33 0.76
5 7 2 0.16 0.44
5 7 3 -0.89 0.65
5 7 3 -0.36 0.52
5 7 3 1.07 0.88
5 7 3 0.47 0.52
5 7 4 -0.44 0.89
5 7 4 -0.26 1.15
5 7 4 1.01 0.97
5 7 4 1.37 0.83
5 7 4 1.05 1
5 7 5 -0.32 0.34
5 7 5 1.2 1
5 7 5 0.54 0.46
5 7 5 0.7 1.07
5 7 6 1.37 0.98
5 7 6 2.58 1.41
5 7 6 0.89 0.63
5 7 6 0.18 0.75
5 7 7 0.21 0.53
5 7 7 -0.04 0.53
5 7 7 0.81 0.94
5 7 8 0.41 0.78
5 7 8 1.55 1.03
5 7 8 0.02 0.88
5 7 8 -0.01 0.67
5 7 9 7.73 2.76
5 7 9 7.22 1.84
5 7 9 5.43 2.21
5 7 9 7.53 2.45
5 7 10 4.05 1.88
5 7 10 1.13 0.93
5 7 10 1.79 1.51
5 7 10 0.95 1.35
5 7 11 8.34 2.81
5 7 11 6.98 2.23
5 7 11 2.9 1.53
5 7 11 4.74 2.15
5 7 11 4.26 2.22
5 7 12 1.9 1.53
5 7 12 -0.66 0.89
5 7 12 2.3 1.63
5 7 12 1.32 1.42
5 8 -4 0.66 1.29
5 8 -3 5.11 2.14
5 8 -3 4.25 1.88
5 8 -2 -0.22 0.82
5 8 -2 0.53 0.6
5 8 -1 9.4 3.17
5 8 -1 1.2 1
5 8 0 8.66 2.93
5 8 0 1.91 1.38
5 8 1 0.08 0.62
5 8 1 1.19 1.19
5 8 2 -0.98 1.09
5 8 2 -0.38 0.69
5 8 2 1.75 1.22
5 8 3 -0.38 1.32
5 8 3 -1.51 1.08
5 8 3 0.13 0.37
5 8 3 -0.43 0.56
5 8 4 0.92 0.76
5 8 4 -0.45 0.72
5 8 4 1 1.13
5 8 4 -0.36 0.49
5 8 5 0.74 0.69
5 8 5 0.06 0.53
5 8 5 0.16 0.72
5 8 5 0.22 0.79
5 8 6 0.51 0.71
5 8 6 0.12 0.44
5 8 6 -0.16 0.84
5 8 6 0.9 0.94
5 8 7 0.77 0.59
5 8 7 0.21 0.88
5 8 7 -0.09 0.77
5 8 7 0.81 0.9
5 8 8 1.44 0.84
5 8 8 0.82 0.78
5 8 8 0.84 1.17
5 8 8 1.5 1.27
5 8 9 8.41 2.96
5 8 9 6.27 2.33
5 8 9 5.24 2.15
5 8 9 2.8 1.76
5 8 10 9.77 3.07
5 8 10 7.15 2.55
5 8 10 5.09 2.2
5 8 10 2.06 1.42
5 8 11 4.22 2.21
5 8 11 1.76 1.7
5 8 11 0.12 0.69
5 8 11 0.55 0.85
5 8 11 1.43 1.7
5 9 -2 -1.3 1.17
5 9 -1 7.39 3.02
5 9 -1 0.22 0.93
5 9 0 8.59 2.75
5 9 0 7.29 2.39
5 9 1 7 2.44
5 9 1 6.28 2.43
5 9 2 2.81 1.66
5 9 2 -0.42 0.52
5 9 2 1.9 1.37
5 9 3 -1.24 2
5 9 3 0.5 1.16
5 9 3 -0.11 0.79
5 9 4 4.16 1.95
5 9 4 1.25 0.83
5 9 4 1.15 1.08
5 9 4 1.44 0.93
5 9 5 0.1 0.87
5 9 5 0.7 0.96
5 9 5 -0.3 0.86
5 9 5 -0.37 0.85
5 9 6 0.45 0.4
5 9 6 4.3 2.35
5 9 6 1.35 1.12
5 9 6 1.53 1.16
5 9 6 2.54 1.69
5 9 7 2.86 1.87
5 9 7 0.28 0.7
5 9 7 1.58 1.11
5 9 7 3.71 2.04
5 9 8 -0.29 0.65
5 9 8 -0.24 0.78
5 9 8 1.51 1.18
5 9 9 0.47 0.81
5 9 9 0.13 0.96
5 9 9 0.06 0.79
5 9 10 1.68 1.46
5 9 10 2.57 1.94
5 9 10 0.4 0.9
5 9 10 3.12 2.05
5 9 10 1.2 1.54
5 9 11 2.72 1.72
5 10 1 -0.67 1.72
5 10 1 3.69 1.89
5 10 2 0.64 0.71
5 10 2 2.99 1.62
5 10 3 1.1 0.94
5 10 3 -1.7 1.59
5 10 3 0.74 1.21
5 10 3 2.12 1.11
5 10 4 -0.31 0.52
5 10 4 1.84 1.41
5 10 4 -0.9 1.12
5 10 5 3.08 1.48
5 10 5 2.74 1.67
5 10 5 3.02 1.27
5 10 5 2.78 1.53
5 10 5 4.48 2.05
5 10 6 1.37 1.07
5 10 6 1.79 1.17
5 10 6 2 1.37
5 10 6 2.06 1.32
5 10 7 2.28 1.53
5 10 7 -1.78 1.17
5 10 7 0.93 1.09
5 10 8 -0.12 1.08
5 10 8 0.57 1.03
5 10 8 -0.58 0.99
5 10 8 1.65 1.42
5 10 9 -0.72 0.87
5 10 9 1.49 1.39
5 10 9 -1.62 1.54
5 10 9 -0.03 0.6
5 10 10 2.31 1.83
5 10 10 -1.22 1.27
5 10 11 0.24 0.56
5 10 12 -0.84 0.85
5 11 4 -1.4 1.3
5 11 5 0.07 0.57
5 11 6 -1.34 1.05
5 11 7 -1.47 1.52
5 11 7 1.64 1.24
5 11 8 -0.45 0.92
5 11 9 0.34 0.51
5 12 5 0.74 0.6
6 -6 -5 0.04 0.4
6 -6 -4 -0.74 0.77
6 -6 1 0.43 0.79
6 -6 2 4.17 1.84
6 -5 -5 1.17 0.97
6 -5 -4 0.88 1.19
6 -5 -3 -0.12 0.58
6 -5 -2 0.87 1.02
6 -5 -1 -0.58 0.95
6 -5 -1 0.34 0.53
6 -5 0 0.55 0.87
6 -5 0 0.36 0.73
6 -5 1 0.2 0.68
6 -5 1 0.56 1.35
6 -5 2 -0.15 0.53
6 -5 2 1.26 1.31
6 -5 3 6.06 2.37
6 -5 4 2.54 1.63
6 -4 -5 1.27 0.96
6 -4 -4 0.27 0.58
6 -4 -3 0.45 0.59
6 -4 -3 1.07 0.97
6 -4 -2 -0.85 0.91
6 -4 -2 0.4 0.6
6 -4 -1 1.79 1.23
6 -4 -1 -0.62 0.56
6 -4 0 0.49 0.97
6 -4 0 -0.33 0.84
6 -4 1 1.14 0.94
6 -4 1 2.19 1.34
6 -4 2 0.04 0.88
6 -4 2 1.19 1.3
6 -4 3 3.31 1.68
6 -4 4 2.08 1.32
6 -4 4 1.41 0.99
6 -4 5 0.4 0.89
6 -4 5 -0.6 0.76
6 -4 5 -2.16 1.43
6 -4 5 0.08 0.85
6 -4 6 -0.1 0.62
6 -4 6 -0.11 1.05
6 -3 -7 0.77 1.03
6 -3 -6 2.25 1.41
6 -3 -5 1.93 1.32
6 -3 -4 1.49 1.13
6 -3 -4 3.14 1.44
6 -3 -3 0.29 0.74
6 -3 -3 -0.24 0.53
6 -3 -2 1.58 1.03
6 -3 -1 2.48 1.36
6 -3 0 5.86 2.04
6 -3 1 -0.06 0.82
6 -3 2 0.17 0.86
6 -3 3 0.45 0.69
6 -3 3 0.63 0.71
6 -3 3 -0.16 0.52
6 -3 4 0.05 0.7
6 -3 4 -0.07 0.49
6 -3 4 -0.98 0.94
6 -3 5 -0.2 0.63
6 -3 5 0.62 0.95
6 -3 5 0.72 0.66
6 -3 6 2.71 1.49
6 -3 6 2.29 1.43
6 -3 6 0.88 0.86
6 -3 7 0.06 0.95
6 -3 7 0.63 0.75
6 -2 -7 -2.63 1.98
6 -2 -6 0.93 0.77
6 -2 -6 -4.95 1.86
6 -2 -5 -0.04 0.6
6 -2 -5 -6.25 1.94
6 -2 -4 0.25 0.82
6 -2 -4 0.37 0.65
6 -2 -4 -0.82 0.64
6 -2 -3 0.44 0.73
6 -2 -2 -0.2 0.55
6 -2 -1 2.82 1.34
6 -2 0 1.9 1.18
6 -2 1 4.8 1.93
6 -2 2 0.06 0.49
6 -2 2 -0.28 0.76
6 -2 2 -0.1 0.61
6 -2 3 2.08 1.47
6 -2 3 1.68 1
6 -2 3 1.65 0.95
6 -2 4 0.85 1.03
6 -2 4 1.27 0.85
6 -2 4 0 0.5
6 -2 5 0.17 0.55
6 -2 5 -0.29 0.54
6 -2 5 -0.5 0.64
6 -2 6 1.34 0.91
6 -2 6 0.3 0.64
6 -2 6 -0.37 0.49
6 -2 7 0.93 0.91
6 -2 7 0.49 0.58
6 -2 7 1.06 0.97
6 -2 8 -0.64 0.93
6 -2 8 -1.24 1.4
6 -1 -8 4.6 2.03
6 -1 -7 2.44 1.44
6 -1 -7 -0.12 0.87
6 -1 -7 1.09 0.86
6 -1 -6 -0.31 0.57
6 -1 -6 0.64 0.7
6 -1 -6 -1.16 1.38
6 -1 -5 2.07 1
6 -1 -5 -0.75 0.94
6 -1 -5 -2 1.52
6 -1 -4 0.46 0.67
6 -1 -4 -0.85 1.31
6 -1 -3 0.29 0.58
6 -1 -3 0.2 0.45
6 -1 -2 -0.06 0.92
6 -1 -2 1.12 1.15
6 -1 -1 0.1 0.59
6 -1 0 0.49 0.63
6 -1 1 1.29 1.28
6 -1 1 0.79 0.51
6 -1 1 0.67 0.69
6 -1 2 1.07 0.76
6 -1 2 0.41 0.59
6 -1 2 1.27 0.75
6 -1 3 -0.1 0.74
6 -1 3 -0.08 0.42
6 -1 3 0 0.38
6 -1 4 2.77 1.47
6 -1 4 0.93 0.86
6 -1 4 2.39 1.09
6 -1 5 5.09 1.79
6 -1 5 3.48 1.6
6 -1 5 4.24 1.69
6 -1 6 4.13 1.96
6 -1 6 0.75 0.97
6 -1 6 1.45 1.31
6 -1 7 0.37 0.68
6 -1 7 1.46 1.41
6 -1 7 0.48 0.59
6 -1 8 1.41 1.3
6 -1 8 2.65 1.6
6 -1 8 -1.07 0.76
6 -1 9 4.25 1.99
6 -1 9 5.04 2.29
6 0 -8 1.49 0.93
6 0 -7 0.67 1.17
6 0 -7 0.21 0.82
6 0 -6 1.13 1.42
6 0 -6 1.41 1.29
6 0 -6 -1.58 1.52
6 0 -5 1.28 0.98
6 0 -5 -0.34 0.59
6 0 -4 0.26 0.72
6 0 -4 3.23 1.45
6 0 -3 1.89 1.1
6 0 -3 2.43 1.5
6 0 -2 0.31 0.63
6 0 -2 0.81 0.94
6 0 -1 3.02 1.48
6 0 -1 0.71 0.79
6 0 0 -0.15 0.81
6 0 0 0.64 0.45
6 0 0 1.28 0.57
6 0 0 1.22 0.71
6 0 1 0.72 0.47
6 0 1 -0.15 0.39
6 0 1 0.36 0.71
6 0 2 0.61 0.51
6 0 2 0.5 0.61
6 0 2 -0.28 0.68
6 0 3 0.17 0.33
6 0 3 0.77 0.72
6 0 4 1.91 1.13
6 0 4 1.61 1.04
6 0 4 0.12 0.38
6 0 5 4.9 1.97
6 0 5 1.51 0.81
6 0 5 2.36 1.18
6 0 6 3.38 1.66
6 0 6 2.44 1.3
6 0 6 3.49 1.61
6 0 7 2.15 1.54
6 0 7 3.51 1.64
6 0 7 2.19 1.37
6 0 8 -0.34 0.95
6 0 8 -0.49 0.89
6 0 8 0.29 0.78
6 0 9 3.18 1.64
6 0 9 2.11 1.28
6 0 9 1.45 1.28
6 0 10 5.08 2.27
6 0 10 5.57 2.35
6 1 -7 0.67 0.6
6 1 -7 -0.82 0.73
6 1 -6 1.12 1.46
6 1 -5 1.14 1.07
6 1 -4 0.22 1.04
6 1 -4 3.94 2
6 1 -3 9.63 2.5
6 1 -3 16.92 3.09
6 1 -2 11.78 2.65
6 1 -2 1.8 1.16
6 1 -1 -1.01 1.08
6 1 -1 -0.72 0.58
6 1 0 0.74 0.8
6 1 0 -0.17 0.51
6 1 0 0 0.37
6 1 0 0.01 0.28
6 1 1 11.56 2.67
6 1 1 12.82 2.12
6 1 1 12.73 2.11
6 1 1 15.89 2.18
6 1 2 10.71 2.1
6 1 2 12.05 2.2
6 1 2 17.17 2.07
6 1 2 14.15 3.11
6 1 3 6.93 2.07
6 1 3 7.59 1.84
6 1 3 6.16 1.71
6 1 4 -0.81 1.11
6 1 4 0 0.43
6 1 4 0.93 0.46
6 1 5 1.09 1.31
6 1 5 1.35 1.14
6 1 5 0.41 0.43
6 1 6 1.54 1.3
6 1 6 0.3 0.84
6 1 6 2.06 1.21
6 1 7 1.14 0.77
6 1 7 0.7 1.02
6 1 7 0.01 0.88
6 1 8 0.25 0.88
6 1 8 0.15 0.48
6 1 8 0.25 1.03
6 1 9 4.2 2.1
6 1 9 2.97 1.68
6 1 9 3.2 1.63
6 1 10 2.07 1.29
6 1 10 2.82 1.75
6 1 10 2.63 1.56
6 2 -6 7.36 2.74
6 2 -5 3.61 2.38
6 2 -4 6.8 2.37
6 2 -3 6.74 2.39
6 2 -2 4.8 1.9
6 2 -2 3.71 1.22
6 2 -1 -0.24 0.95
6 2 -1 -0.44 0.7
6 2 -1 0.27 0.45
6 2 -1 0.1 0.36
6 2 0 0.21 0.5
6 2 0 -0.86 0.72
6 2 0 -0.45 0.63
6 2 0 0.15 0.41
6 2 1 0.55 0.7
6 2 1 1.18 1.05
6 2 1 0.11 0.49
6 2 1 0.45 0.45
6 2 2 64.39 5.18
6 2 2 71.22 5.31
6 2 2 76.27 4.8
6 2 2 72.74 6.53
6 2 3 44.25 4.47
6 2 3 41.81 4.29
6 2 3 35.45 2.95
6 2 3 44.4 5.13
6 2 4 11.6 2.6
6 2 4 14.79 2.74
6 2 4 15.81 2.75
6 2 5 -0.79 1.05
6 2 5 0.52 0.62
6 2 5 -0.22 0.53
6 2 6 1.42 1.22
6 2 6 3.08 1.32
6 2 6 3.45 1.41
6 2 7 2.46 1.21
6 2 7 2.53 1.64
6 2 7 3.34 1.57
6 2 8 1.07 0.96
6 2 8 0.55 0.57
6 2 8 0.1 0.71
6 2 9 -0.38 0.72
6 2 9 -0.42 0.83
6 2 9 0.07 0.57
6 2 10 2.17 1.5
6 2 10 4.72 2.55
6 2 10 2.49 1.38
6 2 10 0.3 0.95
6 2 11 0.97 0.91
6 2 11 2.89 2.25
6 3 -6 19.32 4.04
6 3 -5 16.37 3.77
6 3 -4 -1.39 0.72
6 3 -3 0.54 0.77
6 3 -2 -0.92 1.23
6 3 -2 -0.06 0.59
6 3 -1 3.28 1.59
6 3 -1 1.83 1.2
6 3 -1 3.41 1.19
6 3 -1 2.88 1.02
6 3 0 0.4 0.69
6 3 0 0.87 0.98
6 3 0 0.09 0.37
6 3 0 -0.9 0.73
6 3 1 -0.38 0.72
6 3 1 -0.4 0.7
6 3 1 0.08 0.42
6 3 1 -0.26 0.45
6 3 2 1.71 1.18
6 3 2 0.39 0.91
6 3 2 0.66 1.08
6 3 3 42.51 4.55
6 3 3 40.74 4.43
6 3 3 39.24 3.45
6 3 3 40.75 5.02
6 3 4 4.15 1.65
6 3 4 4.44 1.49
6 3 4 6.71 1.91
6 3 5 1.04 0.77
6 3 5 2.35 1.51
6 3 5 1.04 0.67
6 3 6 0.16 0.63
6 3 6 0.7 0.73
6 3 6 0.25 0.46
6 3 7 5.17 1.81
6 3 7 7.45 2.36
6 3 7 6.53 2.22
6 3 8 5.6 1.96
6 3 8 5.79 2.29
6 3 8 4.08 1.84
6 3 9 1.22 1.09
6 3 9 2.73 1.56
6 3 9 4.62 2.63
6 3 9 0.97 0.84
6 3 10 0.91 1.03
6 3 10 -0.61 0.72
6 3 10 -0.85 1.13
6 3 11 0.34 1.06
6 3 11 1.05 1.97
6 3 11 1.88 1.71
6 3 11 -0.44 1.01
6 3 12 1 1.12
6 4 -5 12.89 3.19
6 4 -4 0.45 1.06
6 4 -3 0.65 0.91
6 4 -2 0.96 1.43
6 4 -2 0.33 0.6
6 4 -1 2 1.06
6 4 -1 5.44 1.66
6 4 -1 2.89 1.17
6 4 0 4.51 1.72
6 4 0 4.38 1.62
6 4 0 5.83 1.65
6 4 0 5.93 1.64
6 4 1 -1 1.04
6 4 1 0.94 1.29
6 4 1 -1.03 0.85
6 4 1 -0.43 0.68
6 4 2 0.76 0.84
6 4 2 0.42 0.73
6 4 2 0.91 0.83
6 4 3 4.26 1.84
6 4 3 1.54 0.96
6 4 3 3.44 1.54
6 4 3 2.89 1.35
6 4 4 4.52 1.77
6 4 4 0.09 1.38
6 4 4 3.94 1.63
6 4 4 4.66 1.7
6 4 5 0.35 0.46
6 4 5 1.35 0.96
6 4 5 0.1 0.46
6 4 6 -0.09 0.43
6 4 6 0.26 0.45
6 4 6 0.8 0.74
6 4 7 1.02 0.93
6 4 7 0.56 0.93
6 4 7 0.16 0.79
6 4 8 7.06 2.24
6 4 8 6.68 2.12
6 4 8 7.76 2.89
6 4 8 6.7 2.27
6 4 9 1.19 1.06
6 4 9 1.85 1.48
6 4 9 5.03 2.25
6 4 9 1.78 1.3
6 4 10 1.77 1.34
6 4 10 0.24 0.53
6 4 10 0.8 1.11
6 4 10 1.64 2.05
6 4 11 0.07 0.69
6 4 11 0.37 0.9
6 4 11 0.54 1.01
6 4 11 -0.54 0.95
6 4 12 0.34 0.9
6 4 13 3.47 1.88
6 5 -5 2.05 1.62
6 5 -4 6.36 2.48
6 5 -3 -0.46 1.42
6 5 -3 -0.19 0.61
6 5 -2 2.01 1.57
6 5 -2 2.07 1.08
6 5 -1 5.06 2.03
6 5 -1 1.85 1.18
6 5 -1 2.24 1.39
6 5 0 7.79 2.37
6 5 0 10.23 2.42
6 5 0 9.66 2.38
6 5 1 3.6 1.56
6 5 1 3.58 1.56
6 5 1 2.91 1.38
6 5 1 2.23 1.1
6 5 2 0.19 0.55
6 5 2 -0.03 0.61
6 5 2 1.28 1.07
6 5 2 1.83 1.4
6 5 3 0.14 0.4
6 5 3 0.23 0.9
6 5 3 -0.02 0.82
6 5 3 -0.05 0.62
6 5 4 1.09 0.84
6 5 4 -1.33 1.39
6 5 4 1.94 1.08
6 5 4 2.58 1.29
6 5 4 3.97 1.82
6 5 5 0.74 1.14
6 5 5 -0.14 0.62
6 5 5 -0.31 0.7
6 5 5 2.44 1.66
6 5 6 -0.48 0.58
6 5 6 -0.95 0.74
6 5 6 0.49 0.82
6 5 7 -0.72 0.9
6 5 7 -0.11 0.53
6 5 7 0.54 0.78
6 5 7 1.85 1.46
6 5 8 0.2 0.76
6 5 8 0.86 1.16
6 5 8 0.23 0.91
6 5 8 0.25 1.15
6 5 9 1.79 1.1
6 5 9 2.11 1.25
6 5 9 3.14 1.7
6 5 9 0.67 0.84
6 5 10 0.91 1.14
6 5 10 2.36 1.58
6 5 10 0.97 1.24
6 5 10 1.17 1.45
6 5 11 0.5 0.92
6 5 11 -0.18 0.97
6 5 11 -0.4 0.81
6 5 11 0.7 0.8
6 5 12 0.93 1.1
6 5 13 1.67 1.54
6 6 -4 3.32 2.07
6 6 -3 0.58 1.19
6 6 -3 0.39 0.63
6 6 -2 1.22 1.69
6 6 -2 -0.86 0.85
6 6 -1 1.23 1.54
6 6 -1 1.74 1.08
6 6 0 -1.2 1.29
6 6 0 1.82 1.14
6 6 0 1.23 1.03
6 6 1 3.75 1.66
6 6 1 6.66 2.04
6 6 2 0.73 0.76
6 6 2 0.97 0.85
6 6 2 0.53 0.73
6 6 2 0.37 0.42
6 6 3 0.7 0.69
6 6 3 -0.12 0.42
6 6 3 0.02 0.83
6 6 3 0.04 0.51
6 6 3 0.39 0.76
6 6 4 2.39 1.55
6 6 4 0.68 0.62
6 6 4 1.25 1.09
6 6 4 2.05 1.14
6 6 5 9.15 2.42
6 6 5 9.73 2.34
6 6 5 3.93 1.74
6 6 5 8.65 2.26
6 6 6 1.56 1.14
6 6 6 2.1 1.61
6 6 6 5.02 1.94
6 6 6 0.82 0.98
6 6 7 0.28 0.45
6 6 7 -0.4 1.03
6 6 7 -0.05 0.94
6 6 7 0.79 0.67
6 6 8 0.46 0.53
6 6 8 0.26 0.62
6 6 8 -0.78 1.17
6 6 8 0.01 0.84
6 6 9 0.97 0.94
6 6 9 0.05 0.55
6 6 9 0.8 1.15
6 6 9 -0.29 0.95
6 6 10 0.36 0.78
6 6 10 0.36 0.78
6 6 10 -0.57 0.69
6 6 10 -0.11 0.83
6 6 11 1.73 1.13
6 6 11 1.54 1.32
6 6 11 -1.79 1.41
6 6 11 1.59 1.23
6 7 -3 1.97 1.36
6 7 -2 0.98 1.44
6 7 -2 0.99 0.61
6 7 -1 0.09 0.93
6 7 -1 -0.38 0.51
6 7 0 -0.33 0.8
6 7 0 -0.51 0.78
6 7 1 0.19 0.63
6 7 1 0.62 1.04
6 7 2 0.76 1.52
6 7 2 0.4 0.86
6 7 2 0.23 0.48
6 7 3 -0.83 0.89
6 7 3 -0.35 0.63
6 7 3 0.17 1.16
6 7 3 -0.53 0.89
6 7 3 -1.29 1.19
6 7 4 0.6 1.06
6 7 4 0.15 0.83
6 7 4 -0.61 1.34
6 7 4 0.96 0.88
6 7 5 2.55 1.13
6 7 5 2.42 1.55
6 7 5 2.06 1.32
6 7 6 6.29 2.03
6 7 6 7.64 2.35
6 7 6 4.63 1.54
6 7 6 7.08 2.41
6 7 7 1.5 0.9
6 7 7 1.75 1.53
6 7 7 -1.2 1.59
6 7 7 2.43 1.76
6 7 8 -0.21 0.71
6 7 8 1.48 0.99
6 7 8 -0.05 0.43
6 7 9 0.69 0.64
6 7 9 -0.63 1
6 7 9 1.7 1.46
6 7 10 3.41 1.53
6 7 10 4.49 1.98
6 7 10 1.82 0.68
6 7 10 2.67 1.48
6 7 11 2.52 1.59
6 8 -3 2.39 1.51
6 8 -2 2.87 1.63
6 8 -1 13.27 3.73
6 8 -1 0.17 0.85
6 8 0 7.77 2.78
6 8 0 -1.04 1.15
6 8 1 4.31 1.86
6 8 1 0.79 1.05
6 8 1 1.68 1.31
6 8 2 3.01 1.53
6 8 2 3.8 1.64
6 8 2 4.79 2
6 8 3 1.47 1.1
6 8 3 -1.49 1.55
6 8 3 0.63 1.19
6 8 3 -0.82 0.96
6 8 4 0.17 0.75
6 8 4 0.64 0.47
6 8 4 0.36 0.66
6 8 4 2.53 1.22
6 8 5 1.07 0.68
6 8 5 0.09 0.77
6 8 5 -0.07 0.82
6 8 5 1.56 0.99
6 8 6 0.18 0.48
6 8 6 -0.5 0.59
6 8 6 -0.03 0.59
6 8 6 -0.47 0.69
6 8 7 0.31 0.58
6 8 7 -0.7 1.24
6 8 7 1 0.86
6 8 7 1.37 1.24
6 8 8 0.16 0.42
6 8 8 2.54 1.89
6 8 8 0.05 0.81
6 8 8 0.62 0.84
6 8 9 -0.3 0.46
6 8 9 -0.78 0.93
6 8 9 -0.18 0.97
6 8 9 -0.33 1.11
6 8 10 -0.05 0.89
6 8 10 1.77 1.3
6 8 10 0.07 0.64
6 9 0 -0.25 0.91
6 9 1 1.38 1.55
6 9 1 0.74 1.27
6 9 1 0.83 0.95
6 9 2 0.61 0.97
6 9 2 3.41 1.97
6 9 2 5.09 2.16
6 9 3 7.68 2.29
6 9 3 9.7 2.88
6 9 3 11.65 3.14
6 9 4 1.02 0.82
6 9 4 0.52 0.7
6 9 4 -0.46 0.97
6 9 5 0.91 0.99
6 9 5 0.73 0.94
6 9 5 1.17 0.5
6 9 5 0.79 1.03
6 9 6 0.47 0.55
6 9 6 -0.11 1.18
6 9 6 1.24 1.12
6 9 6 -1.05 0.97
6 9 7 0.08 0.79
6 9 7 -0.29 0.87
6 9 7 0.37 0.82
6 9 7 1.34 1.17
6 9 8 -1.12 1.2
6 9 8 -0.4 1.06
6 9 8 -0.87 0.87
6 9 9 5.16 2.62
6 9 9 2.07 1.63
6 9 10 -0.96 1.28
6 10 3 5.74 2.23
6 10 4 4.85 2.06
6 10 4 4.93 2.25
6 10 5 2.3 1.14
6 10 5 5.51 2.44
6 10 6 3.04 2.1
6 10 7 2 1.7
6 10 7 0.67 1.07
6 10 8 -0.3 1.05
6 10 9 -1.17 1.13
6 11 5 3.5 2.12
6 11 8 0.24 0.95
7 -4 -3 -0.12 0.95
7 -4 -2 0.64 0.83
7 -4 -1 0.97 1.22
7 -4 0 -0.31 0.89
7 -4 1 -0.24 0.47
7 -4 2 0.59 0.98
7 -3 -3 1.87 1.31
7 -3 -3 3.03 1.77
7 -3 -2 0.78 0.95
7 -3 -2 1.26 1.21
7 -3 -1 0.79 1.07
7 -3 0 -1.24 0.71
7 -3 1 3.24 1.98
7 -3 2 -0.44 0.6
7 -3 3 -0.48 0.46
7 -3 4 -0.23 0.57
7 -2 -5 -0.08 1.03
7 -2 -4 0.49 0.56
7 -2 -3 1.78 1.35
7 -2 -2 -0.03 0.82
7 -2 -1 1.4 1.15
7 -2 0 0.16 0.71
7 -2 1 1.5 1.06
7 -2 2 1.53 1.13
7 -2 3 0.5 0.53
7 -2 4 1.11 0.97
7 -2 5 -0.51 0.53
7 -2 6 1.04 0.79
7 -2 6 0.87 0.87
7 -2 7 0.54 1.12
7 -2 7 -0.71 1.07
7 -1 -6 -1.53 1.1
7 -1 -5 -0.98 1.08
7 -1 -4 1.27 1.29
7 -1 -3 -0.98 1.14
7 -1 -2 0.02 0.77
7 -1 -1 0.42 0.85
7 -1 0 1.4 1.06
7 -1 1 0.82 1.11
7 -1 2 1.41 1.4
7 -1 3 1.79 1.25
7 -1 4 0.61 0.86
7 -1 5 1.1 1.23
7 -1 5 1.14 0.82
7 -1 5 0.05 0.53
7 -1 6 -1.13 1.06
7 -1 6 0.09 0.57
7 -1 6 0.94 0.8
7 -1 7 -0.81 1
7 -1 7 0.36 0.44
7 -1 8 2.94 2
7 -1 8 -0.04 0.77
7 0 -6 -0.25 1.18
7 0 -6 1.72 1.59
7 0 -5 -0.16 0.64
7 0 -5 1.7 1.58
7 0 -4 -0.25 0.84
7 0 -4 2.96 1.83
7 0 -3 -0.06 0.65
7 0 -2 0.46 0.64
7 0 -1 3.55 1.68
7 0 0 0.45 1.05
7 0 1 0.5 1.04
7 0 2 -1.39 1.06
7 0 3 0.26 0.87
7 0 4 -0.47 0.52
7 0 4 0.02 0.57
7 0 4 -0.32 0.59
7 0 5 1.67 1.44
7 0 5 0.21 0.46
7 0 5 0.42 0.71
7 0 6 -0.3 0.61
7 0 6 -0.13 0.81
7 0 6 -0.94 0.82
7 0 7 -1.6 1.6
7 0 7 1.31 1.19
7 0 7 -0.6 1.16
7 0 8 -0.43 0.95
7 0 8 0.26 0.78
7 1 -6 1.34 1.43
7 1 -6 2.15 1.75
7 1 -5 -0.17 0.82
7 1 -5 7.18 2.64
7 1 -4 6.85 2.49
7 1 -4 -0.58 1.08
7 1 -3 4.48 1.71
7 1 -3 1.45 1.44
7 1 -2 -0.83 1.33
7 1 -2 -1.09 1.18
7 1 -1 0.6 0.76
7 1 0 1 0.78
7 1 1 0.34 0.91
7 1 2 1.39 0.88
7 1 3 1.53 0.98
7 1 3 0.26 0.46
7 1 3 1.19 0.89
7 1 4 0.16 0.5
7 1 4 0.87 0.67
7 1 4 -0.28 0.86
7 1 5 -0.35 0.59
7 1 5 0.1 0.42
7 1 5 1.05 1.03
7 1 6 0.35 0.74
7 1 6 -0.34 0.52
7 1 6 -0.11 0.64
7 1 7 0.55 0.78
7 1 7 0.57 0.92
7 1 7 0.9 0.95
7 1 8 -0.08 0.81
7 1 8 -0.06 0.68
7 1 9 2.1 1.6
7 1 9 0.25 0.69
7 2 -5 7.26 2.96
7 2 -4 0.76 1.24
7 2 -4 -3.28 2.12
7 2 -3 -0.61 0.78
7 2 -3 -2.78 1.57
7 2 -2 -1.36 1.2
7 2 -2 -0.11 0.82
7 2 -1 -0.18 0.48
7 2 -1 0.77 0.9
7 2 0 0.53 1
7 2 0 1.04 1.1
7 2 1 0.22 0.76
7 2 2 -0.01 0.73
7 2 2 1.08 1.05
7 2 2 -0.18 0.72
7 2 3 1.74 1.32
7 2 3 1.34 1.04
7 2 3 0.37 0.37
7 2 4 2.67 1.5
7 2 4 1.98 1.41
7 2 4 3.17 1.41
7 2 5 2.41 1.52
7 2 5 1.47 1.03
7 2 5 -0.57 0.97
7 2 6 -0.22 0.73
7 2 6 -0.68 0.63
7 2 6 0.6 0.61
7 2 7 1.52 1.07
7 2 7 -0.07 0.54
7 2 7 0.69 0.72
7 2 8 0.5 1.21
7 2 8 0.51 0.65
7 2 8 -0.69 0.77
7 2 9 -0.8 0.54
7 2 9 -0.96 1.12
7 3 -5 -2.16 1.95
7 3 -4 3.18 2.02
7 3 -3 1.1 1.03
7 3 -3 -0.84 1.24
7 3 -2 -0.31 0.68
7 3 -2 -0.49 1.05
7 3 -1 -0.68 1.09
7 3 -1 0.88 1.11
7 3 0 0.79 1.25
7 3 0 2.08 1.54
7 3 1 -0.27 0.62
7 3 1 -0.29 0.98
7 3 1 0.05 0.42
7 3 1 0.87 0.84
7 3 2 -0.87 0.96
7 3 2 -0.69 0.51
7 3 2 -0.57 0.96
7 3 3 -1.45 1.19
7 3 3 0.27 0.71
7 3 3 -0.34 0.83
7 3 4 -0.06 0.74
7 3 4 1.27 0.7
7 3 4 -0.49 0.54
7 3 5 0.3 0.59
7 3 5 0.44 0.5
7 3 5 0.82 0.95
7 3 6 1.79 1.17
7 3 6 1.03 1.25
7 3 6 -0.82 0.89
7 3 7 -0.28 0.83
7 3 7 1.54 1.2
7 3 7 1.64 1.17
7 3 8 0.35 0.87
7 3 8 1.15 0.95
7 3 8 2.6 1.65
7 3 9 -0.55 0.56
7 3 9 0.38 1.13
7 3 9 1.28 1.17
7 3 10 -0.65 1.18
7 4 -4 5.24 2.52
7 4 -3 2.83 2.11
7 4 -2 0.58 0.95
7 4 -2 0.65 1.52
7 4 -1 0.14 0.78
7 4 -1 1.44 1.36
7 4 0 -0.96 0.56
7 4 0 3.23 1.51
7 4 1 -0.16 0.96
7 4 1 -0.1 0.77
7 4 1 0.59 0.36
7 4 2 2.08 1.4
7 4 2 0.58 0.83
7 4 2 0.54 0.58
7 4 3 -0.54 0.69
7 4 3 -1.62 1.23
7 4 3 -0.23 0.51
7 4 3 0 0.39
7 4 4 0.51 0.86
7 4 4 0.68 0.91
7 4 4 0.18 0.41
7 4 5 -0.12 0.79
7 4 5 -0.13 0.67
7 4 5 0.26 0.51
7 4 6 0.13 0.47
7 4 6 0.68 0.93
7 4 6 0.6 1
7 4 7 -0.06 0.92
7 4 7 0.91 1.01
7 4 7 -0.26 0.83
7 4 8 0.44 1.06
7 4 8 0.02 0.92
7 4 8 -0.11 0.84
7 4 9 1.35 1.2
7 4 9 1.84 1.89
7 4 9 0.66 0.8
7 4 9 0.78 0.8
7 4 10 -0.08 0.78
7 4 11 2.59 1.62
7 5 -3 2.48 1.78
7 5 -2 1.27 1.74
7 5 -1 -0.31 1.37
7 5 -1 3.79 1.98
7 5 0 -1.68 1.66
7 5 0 -1.84 1.14
7 5 0 0.73 0.79
7 5 0 -0.57 0.95
7 5 1 -0.44 1.11
7 5 1 2 1.28
7 5 1 2.41 1.18
7 5 2 0.12 0.53
7 5 2 3.35 1.68
7 5 2 3.43 1.76
7 5 2 0.84 1.09
7 5 2 -0.11 0.58
7 5 3 1.74 1.23
7 5 3 0.37 0.65
7 5 3 1.12 1.1
7 5 3 3.96 1.82
7 5 3 1.14 0.9
7 5 4 0.08 0.88
7 5 4 -1.05 1.58
7 5 4 -0.93 0.98
7 5 4 -0.23 0.76
7 5 5 0.34 0.83
7 5 5 0.39 0.69
7 5 5 0.33 0.66
7 5 5 2.04 1.73
7 5 6 1.94 1.35
7 5 6 2.38 1.7
7 5 6 -1.2 1.22
7 5 6 -0.42 0.68
7 5 7 0.57 0.63
7 5 7 1.39 0.91
7 5 7 0.6 0.71
7 5 8 -0.16 0.89
7 5 8 1.06 1.67
7 5 8 0.74 1.08
7 5 8 1.72 1.43
7 5 9 1.26 1.09
7 5 9 -0.22 0.87
7 5 9 0.21 0.68
7 5 10 0.16 0.56
7 5 11 -0.16 0.91
7 6 -2 -0.31 1.13
7 6 -1 3.96 1.82
7 6 0 0.78 1.34
7 6 0 1.22 0.95
7 6 0 -0.13 0.46
7 6 1 0.6 0.94
7 6 1 0.26 1.14
7 6 1 0.42 0.82
7 6 2 1.02 0.88
7 6 2 1.84 1.47
7 6 2 -0.56 0.84
7 6 2 -0.83 0.59
7 6 3 -0.52 0.95
7 6 3 -1.37 1.27
7 6 3 0.45 1.01
7 6 3 0.56 1.35
7 6 3 -0.61 1.07
7 6 4 0.89 0.92
7 6 4 -0.12 0.46
7 6 4 0.05 0.69
7 6 4 1.4 0.96
7 6 5 -0.48 0.59
7 6 5 -0.63 0.8
7 6 5 -0.16 0.53
7 6 5 0.85 0.76
7 6 6 0.16 0.75
7 6 6 0.63 0.69
7 6 6 1.68 1.42
7 6 6 0.65 1.16
7 6 7 -0.68 0.86
7 6 7 0.24 0.89
7 6 7 0.3 1.13
7 6 7 -0.28 0.64
7 6 8 1.29 1.06
7 6 8 0.23 0.83
7 6 8 0.47 0.61
7 6 8 0.99 1.2
7 6 9 0.1 0.79
7 6 9 -0.55 1.33
7 6 9 -0.55 1.16
7 6 9 1.2 1.52
7 6 10 1.32 1.39
7 6 11 0.16 0.7
7 6 12 -0.06 0.86
7 7 -1 10.7 3.14
7 7 -1 1.41 1.39
7 7 0 0.15 0.63
7 7 0 1.8 1.41
7 7 1 0.32 1.08
7 7 1 -0.44 1.08
7 7 1 -0.41 0.49
7 7 2 1.26 1.12
7 7 2 0.59 0.96
7 7 2 0.32 1.05
7 7 2 -0.46 0.49
7 7 3 -0.35 0.89
7 7 3 -2.1 1.61
7 7 3 -0.85 0.76
7 7 3 0.52 0.79
7 7 4 0.81 0.8
7 7 4 1.02 1.21
7 7 4 0.14 0.85
7 7 4 -0.18 0.9
7 7 5 0.81 0.92
7 7 5 0.69 0.86
7 7 5 1.92 1.57
7 7 5 -0.84 0.98
7 7 6 0.95 0.96
7 7 6 -1.51 0.82
7 7 6 -0.6 1
7 7 6 -2.56 1.38
7 7 7 -0.12 0.74
7 7 7 0.13 0.94
7 7 7 -0.11 0.48
7 7 8 1.09 0.95
7 7 8 0.05 0.75
7 7 8 0.69 0.94
7 7 9 -1.04 1.18
7 7 9 0.55 1.23
7 7 9 0.97 1.32
7 7 9 -1.16 1.33
7 7 10 1.22 1.43
7 8 -1 0.43 0.85
7 8 0 2.19 1.43
7 8 1 2.85 2.04
7 8 1 0.66 1
7 8 1 0.14 0.8
7 8 2 1.72 1.53
7 8 2 -1.97 1.51
7 8 2 0.92 1.19
7 8 2 -0.44 0.71
7 8 3 -0.4 1.09
7 8 3 -2.21 1.54
7 8 3 0.01 1.12
7 8 3 0.1 0.64
7 8 4 1.15 1.23
7 8 4 -0.25 0.56
7 8 4 -0.34 0.75
7 8 5 1.6 1.26
7 8 5 1.3 1.24
7 8 5 0.46 0.83
7 8 6 -0.09 0.61
7 8 6 0.41 1.15
7 8 6 -1.35 1.4
7 8 6 1.62 1.12
7 8 7 0.04 0.81
7 8 7 1.04 1
7 8 7 0.3 1.03
7 8 7 2.13 1.71
7 8 8 -0.07 0.41
7 8 8 -1.05 1.41
7 8 9 0.91 0.97
7 8 9 1.04 0.64
7 9 3 -0.41 0.86
7 9 3 -9.39 2.82
7 9 4 -1.42 1.39
7 9 4 -2.32 1.67
7 9 5 0.55 0.67
7 9 6 0.41 0.89
7 9 7 0.34 0.61
7 9 7 -0.49 1.01
7 9 8 1.04 1.2
7 10 4 0.67 1
7 10 5 -1.12 0.91
7 10 6 -1.15 1.1
7 10 8 2.09 1.32
8 0 0 -1.11 1.02
8 0 1 -1.45 1.38
8 0 2 -0.18 0.56
8 1 0 -0.14 0.59
8 1 1 0.17 0.8
8 1 2 -0.36 0.88
8 1 3 -1.33 1.3
8 1 4 -0.5 0.82
8 1 6 0.11 0.64
8 1 6 0.42 0.66
8 1 7 0.12 0.75
8 1 7 4 2
8 2 0 0.43 1.05
8 2 1 0.81 1.28
8 2 2 -0.3 0.82
8 2 3 4.12 2.12
8 2 4 1.94 1.6
8 2 5 -1.02 0.93
8 2 5 1.51 0.97
8 2 5 0.93 0.78
8 2 6 0.96 0.73
8 2 6 -0.67 1.18
8 2 7 1.4 0.99
8 2 7 0.77 0.67
8 2 8 -0.87 1.36
8 2 8 -1.62 1.44
8 3 1 -0.2 1.2
8 3 2 -0.52 0.53
8 3 3 5.51 2.45
8 3 4 2.39 2.21
8 3 4 2.07 0.91
8 3 4 2.09 1.28
8 3 5 2.35 1.7
8 3 5 1.88 1.25
8 3 5 1.36 1.31
8 3 6 -1.25 1.28
8 3 6 0 0.9
8 3 6 -0.55 0.84
8 3 7 1.25 1.76
8 3 7 0.22 0.7
8 3 8 -0.37 0.73
8 3 8 0.62 0.6
8 4 -2 4.09 2.35
8 4 1 -0.05 0.56
8 4 2 0.39 0.49
8 4 3 1.4 1.21
8 4 4 2.88 1.74
8 4 4 1.87 1.3
8 4 4 2.89 1.66
8 4 5 2.39 1.68
8 4 5 0.18 1.08
8 4 5 1.66 1.48
8 4 6 0.36 0.91
8 4 6 1.23 0.77
8 4 6 0.51 0.9
8 4 7 -0.19 0.98
8 4 7 0.46 1.05
8 4 8 0.29 1.1
8 4 8 1.47 1.69
8 5 -1 0.5 1.05
8 5 0 7.44 2.72
8 5 2 0.64 0.73
8 5 3 -0.09 0.73
8 5 3 -0.71 0.9
8 5 3 -0.92 0.79
8 5 4 0.84 0.8
8 5 4 0.66 1.02
8 5 4 1.78 1.36
8 5 5 1.39 1.32
8 5 5 0.63 0.74
8 5 5 -0.43 0.66
8 5 6 3.08 1.76
8 5 6 0.93 1.12
8 5 6 0.09 0.56
8 5 7 1.89 1.9
8 5 7 1.35 1.41
8 5 7 0.07 0.84
8 5 7 1.13 1.07
8 5 8 0.39 0.86
8 6 0 7.89 3.12
8 6 1 3.23 2.03
8 6 2 -0.66 0.71
8 6 3 0.95 1.17
8 6 3 -1.04 1.11
8 6 4 -0.8 0.92
8 6 4 -0.46 0.65
8 6 4 0.84 0.78
8 6 5 -0.39 1.03
8 6 5 0.77 0.62
8 6 5 0.16 1.09
8 6 5 3.06 1.83
8 6 6 -0.39 0.74
8 6 6 0.43 1.18
8 6 6 -0.49 0.87
8 6 6 2.83 1.5
8 6 7 0.05 0.9
8 6 7 -0.33 0.69
8 6 7 1.19 1.78
8 7 1 2.01 1.73
8 7 2 -0.93 1.42
8 7 2 1.16 1.23
8 7 2 0.22 0.51
8 7 3 -0.55 0.94
8 7 3 0.19 0.97
8 7 4 -0.41 0.54
8 7 4 0.36 0.53
8 7 5 -0.21 1.43
8 7 5 -1.18 1.11
8 7 6 1.02 0.85
8 7 6 2.28 1.54
8 7 6 1.52 1.4
8 7 6 -1.1 1.26
8 7 7 2.24 1.36
8 8 7 -3.01 1.66
