#------------------------------------------------------------------------------
#$Date: 2019-11-04 18:20:46 +0200 (Mon, 04 Nov 2019) $
#$Revision: 223228 $
#$URL: file:///home/coder/svn-repositories/cod/cif/4/03/36/4033630.cif $
#------------------------------------------------------------------------------
#
# This file is available in the Crystallography Open Database (COD),
# http://www.crystallography.net/
#
# All data on this site have been placed in the public domain by the
# contributors.
#
data_4033630
loop_
_publ_author_name
'Leonard, Peter'
'Kondhare, Dasharath'
'Jentgens, Xenia'
'Daniliuc, Constantin'
'Seela, Frank'
_publ_section_title
;
 Nucleobase-Functionalized 5-Aza-7-deazaguanine Ribo- and
 2'-Deoxyribonucleosides: Glycosylation, Pd-Assisted Cross-Coupling, and
 Photophysical Properties.
;
_journal_issue                   21
_journal_name_full               'The Journal of organic chemistry'
_journal_page_first              13313
_journal_page_last               13328
_journal_paper_doi               10.1021/acs.joc.9b01347
_journal_volume                  84
_journal_year                    2019
_chemical_absolute_configuration ad
_chemical_formula_sum            'C10 H12 I N5 O4'
_chemical_formula_weight         393.15
_space_group_crystal_system      monoclinic
_space_group_IT_number           4
_space_group_name_Hall           'P 2yb'
_space_group_name_H-M_alt        'P 1 21 1'
_symmetry_space_group_name_Hall  'P 2yb'
_symmetry_space_group_name_H-M   'P 1 21 1'
_atom_sites_solution_hydrogens   mixed
_audit_creation_method           'APEX3 v2016.1-0'
_cell_angle_alpha                90
_cell_angle_beta                 96.6740(10)
_cell_angle_gamma                90
_cell_formula_units_Z            2
_cell_length_a                   4.9620(2)
_cell_length_b                   13.1568(6)
_cell_length_c                   10.7648(5)
_cell_measurement_reflns_used    9953
_cell_measurement_temperature    100.(2)
_cell_measurement_theta_max      70.1151
_cell_measurement_theta_min      4.1348
_cell_volume                     698.01(5)
_computing_cell_refinement       'SAINT V8.37A (Bruker AXS Inc., 2015)'
_computing_data_collection
;

APEX3 v2016.1-0 (Bruker AXS Inc., 2016)
;
_computing_data_reduction        'SAINT V8.37A (Bruker AXS Inc., 2015)'
_computing_molecular_graphics    'XP (Sheldrick, 2014)'
_computing_publication_material  'SHELXL-2014/7 (Sheldrick, 2014)'
_computing_structure_refinement  'SHELXL-2014/7 (Sheldrick, 2014)'
_computing_structure_solution    'SHELXL-2014/7 (Sheldrick, 2014)'
_diffrn_ambient_temperature      100.(2)
_diffrn_detector_area_resol_mean 10.4167
_diffrn_measured_fraction_theta_full 0.999
_diffrn_measured_fraction_theta_max 0.999
_diffrn_measurement_device_type  'Bruker D8 Venture PHOTON 100 CMOS'
_diffrn_measurement_method       'omega and phi scans'
_diffrn_radiation_monochromator  'MX mirror'
_diffrn_radiation_type           'Cu K\a'
_diffrn_radiation_wavelength     1.54178
_diffrn_reflns_av_R_equivalents  0.0314
_diffrn_reflns_av_unetI/netI     0.0355
_diffrn_reflns_limit_h_max       6
_diffrn_reflns_limit_h_min       -6
_diffrn_reflns_limit_k_max       16
_diffrn_reflns_limit_k_min       -15
_diffrn_reflns_limit_l_max       13
_diffrn_reflns_limit_l_min       -12
_diffrn_reflns_number            11870
_diffrn_reflns_theta_full        70.14
_diffrn_reflns_theta_max         70.14
_diffrn_reflns_theta_min         4.13
_diffrn_source                   'Cu ImS'
_diffrn_source_type              'micro focus tube'
_exptl_absorpt_coefficient_mu    18.248
_exptl_absorpt_correction_T_max  0.42
_exptl_absorpt_correction_T_min  0.28
_exptl_absorpt_correction_type   multi-scan
_exptl_absorpt_process_details
;
Bruker AXS (2014). SADABS, Version 2014/5, Bruker AXS Inc., Madison, Wisconsin,
USA.
;
_exptl_crystal_colour            colourless
_exptl_crystal_density_diffrn    1.871
_exptl_crystal_density_method    'not measured'
_exptl_crystal_description       needle
_exptl_crystal_F_000             384
_exptl_crystal_size_max          0.189
_exptl_crystal_size_mid          0.075
_exptl_crystal_size_min          0.057
_refine_diff_density_max         0.884
_refine_diff_density_min         -0.512
_refine_ls_abs_structure_details
;

Flack x determined using 1071 quotients [(I+)-(I-)]/[(I+)+(I-)]
(Parsons, Flack and Wagner, Acta Cryst. B69 (2013) 249-259).
;
_refine_ls_abs_structure_Flack   0.069(5)
_refine_ls_extinction_method     none
_refine_ls_goodness_of_fit_ref   1.054
_refine_ls_hydrogen_treatment    mixed
_refine_ls_matrix_type           full
_refine_ls_number_parameters     191
_refine_ls_number_reflns         2493
_refine_ls_number_restraints     9
_refine_ls_restrained_S_all      1.057
_refine_ls_R_factor_all          0.0202
_refine_ls_R_factor_gt           0.0199
_refine_ls_shift/su_max          0.002
_refine_ls_shift/su_mean         0.000
_refine_ls_structure_factor_coef Fsqd
_refine_ls_weighting_details
'w=1/[\s^2^(Fo^2^)+0.9670P] where P=(Fo^2^+2Fc^2^)/3'
_refine_ls_weighting_scheme      calc
_refine_ls_wR_factor_gt          0.0476
_refine_ls_wR_factor_ref         0.0478
_reflns_number_gt                2462
_reflns_number_total             2493
_reflns_threshold_expression     'I > 2\s(I)'
_cod_data_source_file            jo9b01347_si_002.cif
_cod_data_source_block           dan9407
_cod_depositor_comments          'Adding full bibliography for 4033630.cif.'
_cod_database_code               4033630
_shelx_res_file
;


    dan9407.res created by SHELXL-2014/7


TITL dan9407.res in P2(1)
CELL  1.54178   4.9620  13.1568  10.7648   90.000   96.674   90.000
ZERR    2.000   0.0002   0.0006   0.0005    0.000    0.001    0.000
LATT -1
SYMM -X, 1/2+Y, -Z
SFAC C  H  N  O  I
UNIT 20  24  10  8  2
SIZE 0.057 0.075 0.189
TEMP -173.140
ACTA
CONF

L.S. 25
BOND $H
FMAP 2
PLAN 10

OMIT     0   0   2
OMIT     0   1   1

EQIV $2 x, y, z+1
HTAB N2 O3'_$2
EQIV $3 -x, y+1/2, -z+1
HTAB N2 O5'_$3
EQIV $4 x, y, z-1
HTAB O3' N1_$4
EQIV $5 x-1, y, z-1
HTAB O5' O6_$5

EQIV $1 -x+2, -1/2+y, -z+1

RTAB CONN I7 O3'_$1
RTAB ANGL C7 I7 O3'_$1

ABIN
WGHT    0.000000    0.967000
FVAR       0.62282
C1'   1    0.328814    0.572596    0.487744    11.00000    0.01719    0.02033 =
         0.01054   -0.00013   -0.00012    0.00173
AFIX  13
H1'   2    0.167054    0.606920    0.516295    11.00000   -1.20000
AFIX   0
I7    5    1.101318    0.325736    0.764903    11.00000    0.01539    0.01347 =
         0.01357    0.00047    0.00102    0.00302
N1    3    0.552970    0.583427    0.963608    11.00000    0.02246    0.01873 =
         0.01063   -0.00030    0.00116    0.00597
O4'   4    0.242051    0.492257    0.404782    11.00000    0.02113    0.02274 =
         0.00897    0.00056   -0.00030   -0.00556
C2    1    0.365611    0.633274    0.884094    11.00000    0.02103    0.01800 =
         0.01228    0.00421    0.00126    0.00044
ISOR 0.004 C2'
C2'   1    0.485288    0.648299    0.416011    11.00000    0.02564    0.01476 =
         0.00420   -0.00137   -0.00009   -0.00098
AFIX  23
H2'1  2    0.654641    0.670056    0.466788    11.00000   -1.20000
H2'2  2    0.373645    0.709033    0.391720    11.00000   -1.20000
AFIX   0

DFIX 0.92 N2 H2A
DFIX 0.92 N2 H2B

N2    3    0.207763    0.697674    0.938911    11.00000    0.02236    0.01671 =
         0.01564   -0.00429    0.00518    0.01033
H2A   2    0.234213    0.693352    1.020103    11.00000    0.00736
H2B   2    0.080311    0.728220    0.884955    11.00000    0.07216
C3'   1    0.547269    0.588796    0.300778    11.00000    0.01405    0.01865 =
         0.00849    0.00587   -0.00182   -0.00458
AFIX  13
H3'   2    0.721257    0.550299    0.318503    11.00000   -1.20000
AFIX   0
N3    3    0.326930    0.624454    0.758523    11.00000    0.01998    0.01533 =
         0.00826   -0.00046    0.00134    0.00465
O3'   4    0.558208    0.656651    0.198350    11.00000    0.02785    0.01342 =
         0.00885   -0.00058    0.00448   -0.00432
AFIX 147
H3'1  2    0.604447    0.624510    0.136814    11.00000   -1.50000
AFIX   0
C4    1    0.490153    0.555407    0.715644    11.00000    0.01744    0.01237 =
         0.01110   -0.00071    0.00078    0.00660
C4'   1    0.307928    0.516755    0.280702    11.00000    0.01845    0.01777 =
         0.00763    0.00103   -0.00035   -0.00338
AFIX  13
H4'   2    0.150731    0.553068    0.233805    11.00000   -1.20000
AFIX   0
C5'   1    0.359364    0.419195    0.212504    11.00000    0.02783    0.01369 =
         0.01799   -0.00283    0.00084   -0.00477
AFIX  23
H5'1  2    0.436056    0.435610    0.134014    11.00000   -1.20000
H5'2  2    0.493969    0.377539    0.265191    11.00000   -1.20000
AFIX   0
N5    3    0.684920    0.501422    0.787705    11.00000    0.01669    0.01455 =
         0.00668    0.00179    0.00009    0.00423
O5'   4    0.115903    0.362402    0.184069    11.00000    0.03746    0.01975 =
         0.02053    0.00305   -0.01076   -0.01293
AFIX 147
H5'   2    0.005359    0.396120    0.135377    11.00000   -1.50000
AFIX   0
C6    1    0.719070    0.515889    0.918595    11.00000    0.02158    0.01987 =
         0.00938    0.00219   -0.00082   -0.00009
O6    4    0.893612    0.465964    0.982865    11.00000    0.03046    0.02979 =
         0.01365   -0.00016   -0.00551    0.01622
C7    1    0.813241    0.436050    0.709238    11.00000    0.01487    0.01432 =
         0.01542   -0.00097    0.00392    0.00091
C8    1    0.696818    0.452744    0.592263    11.00000    0.01705    0.01526 =
         0.01425    0.00312    0.00217    0.00400
AFIX  43
H8    2    0.742281    0.419671    0.519061    11.00000   -1.20000
AFIX   0
N9    3    0.496150    0.527518    0.596574    11.00000    0.01751    0.02108 =
         0.01002   -0.00148    0.00054    0.00471
HKLF 4

REM  dan9407.res in P2(1)
REM R1 =  0.0199 for    2462 Fo > 4sig(Fo)  and  0.0202 for all    2493 data
REM    191 parameters refined using      9 restraints

END

WGHT      0.0000      0.9674

REM Highest difference peak  0.884,  deepest hole -0.512,  1-sigma level  0.081
Q1    1   0.9183  0.2797  0.4106  11.00000  0.05    0.88
Q2    1   0.9117  0.3744  0.4071  11.00000  0.05    0.56
Q3    1   0.8829  0.3309  0.4956  11.00000  0.05    0.34
Q4    1   0.7267  0.6406  0.6677  11.00000  0.05    0.31
Q5    1   1.0060  0.2365  0.7072  11.00000  0.05    0.30
Q6    1   1.1713  0.3306  0.8479  11.00000  0.05    0.30
Q7    1   1.1189  0.3211  0.6589  11.00000  0.05    0.28
Q8    1   0.1655  0.6788  0.3653  11.00000  0.05    0.27
Q9    1   0.1400  0.7157  0.9249  11.00000  0.05    0.26
Q10   1  -0.1273  0.4307  0.0822  11.00000  0.05    0.26
;
_shelx_res_checksum              84715
_shelx_hkl_file
;
  -1   0   0  133.39   10.40
  -1   0   0  133.99    9.30
   1   0   0  129.49   10.40
   1   0   0  128.79    9.30
   2   0   0  106.09    9.50
   2   0   0  110.89   10.10
  -2   0   0  116.79   12.20
  -2   0   0  112.89   10.00
  -2   0   0  114.09    8.90
   2   0   0  117.79   12.10
   3   0   0  274.27   20.90
   3   0   0  299.87   21.30
   3   0   0  278.37   20.50
   3   0   0  305.67   31.30
   3   0   0  282.77   22.60
   3   0   0  288.17   21.40
  -3   0   0  285.07   20.50
  -3   0   0  259.97   43.00
  -3   0   0  296.47   21.20
  -3   0   0  280.37   22.60
  -3   0   0  290.67   21.30
  -3   0   0  295.37   21.30
  -4   0   0  580.34   42.90
   4   0   0  589.34   42.60
  -4   0   0  550.44   44.50
  -4   0   0  611.24   40.60
  -4   0   0  609.34   42.90
  -4   0   0  586.54   40.80
   4   0   0  549.74   41.80
   4   0   0  616.74   41.60
  -5   0   0 1286.57   88.99
   5   0   0 1224.18   87.09
  -6   0   0  136.39   11.90
   6   0   0  107.69    9.60
   6   0   0  112.29   10.70
   0  -1   0   -0.20    0.70
   0  -1   0   -0.20    0.70
   1  -1   0  539.85   44.40
  -1   1   0  706.73   45.70
   1   1   0  688.23   44.40
   1   1   0  712.93   45.50
   2  -1   0 1776.12  114.79
   2  -1   0 1693.53  111.79
   2  -1   0 1662.43  111.89
  -2  -1   0 1591.14  111.49
   2  -1   0 1533.35  111.39
  -2  -1   0 1687.23  111.89
  -2  -1   0 1762.62  114.49
  -2   1   0 1694.33  111.89
  -2   1   0 1618.94  111.69
   2   1   0 1751.72  114.49
   2   1   0 1752.12  111.69
  -2   1   0 1679.83  114.69
  -2   1   0 1472.95  111.39
  -3  -1   0 1915.51  120.89
   3  -1   0 1710.03  120.19
  -3  -1   0 1949.01  120.49
   3  -1   0 1955.20  120.29
  -3  -1   0 1910.61  119.99
   3  -1   0 1826.02  119.99
  -3  -1   0 1904.01  119.89
  -3  -1   0 1907.81  119.39
   3  -1   0 1888.91  119.59
   3  -1   0 1912.31  127.69
   3  -1   0 1861.91  119.49
  -3   1   0 1666.13  120.69
  -3   1   0 1611.94  121.29
  -3   1   0 1551.14  119.39
   3   1   0 1700.63  126.79
   3   1   0 1607.54  120.19
  -3   1   0 1696.83  127.49
  -3   1   0 1809.52  120.19
   3   1   0 1616.84  119.89
   3   1   0 1716.63  119.69
  -3   1   0 1732.63  119.59
  -3   1   0 1748.43  119.99
   4  -1   0  223.38   20.00
  -4  -1   0  217.88   18.10
  -4  -1   0  211.38   20.30
   4  -1   0  205.68   21.50
   4  -1   0  211.08   17.80
  -4  -1   0  221.98   21.40
   4  -1   0  221.38   18.90
  -4   1   0  288.97   23.40
  -4   1   0  297.57   20.40
   4   1   0  280.27   18.40
   4   1   0  284.07   20.00
  -5  -1   0   23.70   13.30
  -5  -1   0   28.40    7.50
  -5  -1   0   24.50    7.80
   5   1   0   42.50    7.70
  -5   1   0   27.10   14.50
  -5   1   0   33.20    7.60
   6   1   0  135.59   10.90
   0   2   0  844.92   63.39
   0   2   0 1022.80   62.89
  -1   2   0 9999.00  664.53
   2  -2   0  514.75   32.80
  -2  -2   0  515.95   35.40
  -2   2   0  393.66   32.50
  -3  -2   0  238.98   20.40
  -3  -2   0  230.58   16.90
   3  -2   0  252.97   30.60
   3  -2   0  236.68   17.00
  -3  -2   0  241.68   16.50
  -3  -2   0  252.07   16.20
   3  -2   0  249.48   16.50
  -3  -2   0  222.78   17.10
   3  -2   0  247.48   17.00
   3  -2   0  224.98   17.20
  -3   2   0  201.78   16.80
  -3   2   0  195.48   18.30
  -3   2   0  214.18   16.60
   3   2   0  184.58   17.60
   3   2   0  199.28   15.70
  -3   2   0  188.18   19.00
  -3   2   0  210.38   16.40
  -3   2   0  194.78   17.70
   3   2   0  203.98   17.20
  -3   2   0  211.88   48.00
  -3   2   0  210.98   17.40
   4  -2   0 1259.27   83.29
  -4  -2   0 1205.48   83.79
  -4  -2   0 1263.77   83.79
   4  -2   0 1236.48   84.09
   4  -2   0 1199.28   82.29
   4  -2   0 1115.99   83.19
  -4  -2   0 1213.48   82.39
  -4  -2   0 1269.97   82.89
   4   2   0 1271.07   83.39
  -4   2   0 1205.18   85.19
  -4   2   0 1191.08   83.89
  -4   2   0 1180.08   82.39
  -4   2   0 1213.48   82.49
  -4   2   0 1233.68   84.29
  -5  -2   0  374.16   27.40
  -5  -2   0  359.16   30.00
  -5   2   0  408.36   34.80
   0  -3   0   -3.30    1.40
   0  -3   0   -2.30    0.60
   0  -3   0   -3.30    2.00
   0   3   0   -4.20    2.10
   0   3   0   -4.40    1.30
   1  -3   0 2963.20  185.58
  -1  -3   0 2775.32  184.98
   1  -3   0 2907.01  184.08
  -1  -3   0 2678.33  183.98
   1  -3   0 2608.64  183.98
  -1   3   0 2773.02  185.48
   1   3   0 2665.23  184.78
  -1   3   0 2728.83  183.88
  -2  -3   0 2594.84  169.28
  -2  -3   0 2596.24  171.38
   2  -3   0 2448.06  170.18
   2  -3   0 2636.44  172.18
  -2  -3   0 2369.76  168.48
  -2  -3   0 2530.35  168.58
  -2   3   0 2487.15  168.78
  -2   3   0 2405.46  169.08
  -2   3   0 2657.13  172.38
   3  -3   0 1146.99   86.09
  -3  -3   0 1177.08   86.09
  -3  -3   0 1177.08   85.39
  -3  -3   0 1196.98   85.89
  -3  -3   0 1105.49   87.09
   3  -3   0 1241.48   86.49
   3  -3   0 1215.58   86.19
   3  -3   0 1202.58   85.89
   3  -3   0 1172.78   85.49
  -3   3   0 1314.27   85.89
  -3   3   0 1303.17   87.69
  -3   3   0 1422.96   86.39
  -3   3   0 1320.87   85.99
   3   3   0 1435.46   86.59
   3   3   0 1320.87   86.69
  -3   3   0 1341.87   86.29
  -3   3   0 1433.76   87.49
  -3   3   0 1354.66   85.59
  -4  -3   0  652.03   42.90
  -4  -3   0  603.84   43.20
   4  -3   0  680.13   44.00
  -4  -3   0  616.64   42.60
  -4  -3   0  634.94   41.30
   4  -3   0  620.54   41.50
  -4  -3   0  524.45   46.30
   4  -3   0  599.04   41.50
  -4   3   0  518.15   41.00
  -4   3   0  549.65   43.70
  -4   3   0  593.84   42.20
  -4   3   0  583.64   43.20
  -4   3   0  582.54   41.90
   4   3   0  586.84   42.30
  -5  -3   0   87.89    9.60
  -5  -3   0   90.49   10.00
  -5  -3   0  105.39   10.20
   5  -3   0   98.79   11.00
  -5   3   0   82.09   12.10
  -5   3   0   86.29   12.30
   5   3   0   75.79   10.40
   0  -4   0 2545.25  159.58
   0  -4   0 2242.58  161.18
   0   4   0 2308.57  160.78
   0   4   0 2490.15  160.38
  -1  -4   0 1107.39   80.09
  -1  -4   0 1258.47   81.49
   1  -4   0 1169.48   80.29
   1  -4   0 1224.78   81.99
   1  -4   0 1218.28   80.19
   2  -4   0  997.20   73.29
   2  -4   0 1062.09   73.69
   2  -4   0 1096.19   77.79
  -2  -4   0 1205.28   76.09
  -2  -4   0 1089.89   73.39
  -2  -4   0  975.00   73.19
   2  -4   0 1103.59   73.89
  -2   4   0 1119.99   73.79
  -2   4   0 1165.98   78.09
  -3  -4   0  216.08   19.40
  -3  -4   0  202.88   17.80
   3  -4   0  193.08   17.00
   3  -4   0  210.68   16.90
  -3  -4   0  208.58   16.00
  -3  -4   0  206.18   16.90
   3  -4   0  203.08   16.20
   3  -4   0  207.38   17.60
   3  -4   0  200.28   17.50
  -3   4   0  236.68   19.60
   3   4   0  247.98   17.70
  -3   4   0  231.38   17.70
  -3   4   0  222.68   19.70
  -3   4   0  234.18   18.70
  -3   4   0  226.58   16.70
  -3   4   0  227.58   16.90
  -4  -4   0  639.74   45.00
   4  -4   0  604.34   47.70
   4  -4   0  631.24   45.40
  -4  -4   0  614.94   46.10
   4  -4   0  627.44   45.30
   4  -4   0  612.44   47.20
   4  -4   0  653.63   46.20
  -4  -4   0  622.64   45.30
  -4   4   0  797.92   47.00
  -4   4   0  743.33   47.30
  -5  -4   0  952.20   59.69
  -5  -4   0  922.71   59.19
   5  -4   0  929.61   59.69
  -5  -4   0  980.20   60.29
  -5  -4   0  923.61   61.19
  -5   4   0  816.62   63.69
  -5   4   0  798.32   60.39
   5   4   0  817.52   59.29
  -5   4   0  732.03   59.19
   5   4   0  767.52   59.59
   0  -5   0   16.70    2.80
   0   5   0   16.00    3.80
   1  -5   0 1214.28   86.69
   1  -5   0 1188.78   86.89
  -1  -5   0 1236.68   86.29
  -1  -5   0 1168.08   90.19
   1  -5   0 1226.18   88.89
  -1   5   0 1426.96   89.29
   1   5   0 1411.66   88.09
   1   5   0 1463.15   87.49
   2  -5   0 2907.71  194.58
  -2  -5   0 2560.84  193.18
  -2  -5   0 2714.93  193.48
   2  -5   0 2879.91  193.98
   2  -5   0 2786.82  198.08
  -2  -5   0 2870.41  197.08
  -2  -5   0 2794.72  194.18
   2  -5   0 2746.53  193.48
  -2   5   0 3195.68  199.08
   2   5   0 3188.58  195.18
  -2   5   0 2926.31  193.88
  -2   5   0 2845.92  193.28
  -2   5   0 3142.89  198.88
   2   5   0 3050.09  196.48
  -3  -5   0 1110.19   80.79
  -3  -5   0 1093.59   80.19
   3  -5   0 1104.39   81.29
  -3  -5   0 1037.70   81.89
   3  -5   0 1107.59   81.69
   3  -5   0 1151.78   81.09
  -3  -5   0 1072.39   81.19
  -3   5   0 1360.66   82.59
  -3   5   0 1289.97   81.29
   3   5   0 1347.67   81.69
  -3   5   0 1275.77   80.49
  -3   5   0 1348.37   81.09
   4  -5   0   87.99   17.00
  -4  -5   0   87.49    9.20
  -4  -5   0   97.39   11.60
   4  -5   0   89.49   12.10
  -4  -5   0   89.99    9.30
   4  -5   0  106.09   10.80
   4  -5   0   93.09   14.40
  -4  -5   0   90.19   18.10
  -5  -5   0   37.50    6.60
   5  -5   0   38.90    5.80
  -5  -5   0   23.80   12.60
  -5  -5   0   37.40    6.90
  -5  -5   0   27.10    5.80
  -5   5   0   45.50    9.40
   5   5   0   42.70    6.80
   5   5   0   49.60    8.40
   5   5   0   31.00    6.00
  -5   5   0   48.30    8.70
   0  -6   0 3453.85  235.98
   0  -6   0 3794.42  236.58
   0   6   0 3559.64  236.68
   0   6   0 3375.36  236.78
  -1  -6   0 1505.35   98.39
   1  -6   0 1447.26   97.79
  -1  -6   0 1429.66   96.99
   1  -6   0 1475.45   97.69
   1  -6   0 1417.86  100.39
  -1  -6   0 1512.45   99.29
  -1   6   0 1462.25   99.59
   1   6   0 1471.65   97.69
  -1   6   0 1347.47  100.09
  -2   6   0   14.10    6.80
  -2   6   0   25.50    7.50
   2   6   0   22.20    5.60
  -2   6   0   16.10    4.90
  -2   6   0   23.00    6.80
  -2   6   0   12.50    8.80
  -2   6   0   16.50    5.90
   2   6   0   23.60    5.70
  -3  -6   0  111.39   13.50
  -3  -6   0  123.89   10.90
   3  -6   0  134.39   12.50
   3  -6   0  117.29   13.10
   3  -6   0  124.09   11.60
   3  -6   0  127.89   10.80
  -3  -6   0  116.79   10.30
   3  -6   0  111.99   12.50
  -4  -6   0  591.54   38.30
   4  -6   0  538.55   41.60
  -4  -6   0  603.04   39.30
   4  -6   0  583.04   38.90
   4  -6   0  608.74   39.00
   4  -6   0  619.14   41.10
   4   6   0  457.25   38.70
  -4   6   0  471.35   39.40
  -4   6   0  465.55   38.30
   4   6   0  486.25   38.40
  -5  -6   0  687.83   48.20
  -5  -6   0  666.83   49.90
  -5  -6   0  633.54   48.10
   5  -6   0  717.13   48.70
  -5  -6   0  713.93   48.20
  -5   6   0  718.33   49.80
   5   6   0  657.83   48.80
   5   6   0  709.63   48.60
  -5   6   0  818.22   52.09
   0  -7   0    6.60    3.40
   1  -7   0  473.85   42.80
   1  -7   0  503.85   39.00
   1  -7   0  482.65   38.70
  -1  -7   0  531.35   39.80
   1   7   0  547.65   39.40
  -1   7   0  609.34   42.90
  -1   7   0  599.44   38.40
  -1   7   0  612.24   39.40
  -1   7   0  591.34   39.70
   1   7   0  574.94   39.10
  -1   7   0  602.64   41.50
  -1   7   0  596.64   39.10
   2  -7   0 1121.49   82.99
   2  -7   0 1062.29   81.19
   2  -7   0 1050.39   81.69
  -2  -7   0 1099.59   81.09
  -2   7   0 1241.28   82.29
  -2   7   0 1311.07   81.79
   2   7   0 1177.08   82.29
  -2   7   0 1255.77   81.99
  -2   7   0 1273.17   85.09
   2   7   0 1279.47   82.09
  -2   7   0 1287.87   81.29
  -2   7   0 1294.17   83.39
  -3  -7   0  732.03   57.29
   3  -7   0  784.62   58.09
   3  -7   0  778.22   59.09
   3  -7   0  779.82   57.09
   3  -7   0  784.42   57.99
  -3  -7   0  788.72   56.59
  -3   7   0  928.71   59.29
  -3   7   0  832.22   57.09
   3   7   0  851.91   58.19
  -3   7   0  879.91   58.69
  -3   7   0  895.21   57.49
  -3   7   0  907.61   58.19
   3   7   0  908.01   58.09
   4  -7   0  320.47   23.00
   4  -7   0  367.16   32.90
   4  -7   0  292.97   29.40
  -4  -7   0  325.87   22.60
  -4  -7   0  309.07   25.40
   4  -7   0  321.57   23.40
   4  -7   0  324.07   22.80
  -4   7   0  299.47   24.20
   4   7   0  270.87   23.40
  -4   7   0  293.67   22.50
   4   7   0  266.27   23.20
   4   7   0  301.97   23.10
  -4   7   0  299.27   23.70
  -5  -7   0    1.90    2.30
   5  -7   0    4.30    3.40
  -5  -7   0   -1.80    4.20
   5   7   0   -4.60    2.90
  -5   7   0    1.20    3.40
   5   7   0   -0.70    3.00
  -5   7   0    2.10    3.60
   0  -8   0 1321.27   85.89
   0   8   0 1237.38   85.59
   0   8   0 1269.47   86.39
   0   8   0 1291.97   86.59
   0   8   0 1246.68   86.09
  -1  -8   0 1306.37   97.99
   1  -8   0 1258.17   98.39
   1  -8   0 1340.67   98.79
   1   8   0 1541.25   98.79
  -1   8   0 1607.54   99.39
  -1   8   0 1522.15   98.29
  -1   8   0 1559.94   98.99
  -1   8   0 1445.86   99.09
   1   8   0 1459.25   99.19
  -1   8   0 1505.95   98.69
   1   8   0 1500.45   98.29
  -1   8   0 1523.25   98.89
  -2  -8   0  177.58   14.10
   2  -8   0  177.88   15.80
  -2  -8   0  184.38   14.20
   2  -8   0  196.48   19.50
   2  -8   0  178.68   14.60
  -2   8   0  131.49   18.50
  -3  -8   0  320.17   23.50
   3  -8   0  339.97   25.30
  -3  -8   0  333.07   24.10
   3  -8   0  337.07   24.10
  -3  -8   0  376.36   26.70
  -3   8   0  305.17   23.50
  -3   8   0  283.87   23.90
   3   8   0  272.67   24.80
   3   8   0  296.17   24.20
  -3   8   0  331.87   27.00
  -3   8   0  304.97   24.60
  -3   8   0  316.17   25.60
  -4  -8   0  546.55   39.70
  -4  -8   0  559.84   41.50
  -4  -8   0  554.54   41.40
   4  -8   0  530.05   40.50
   4  -8   0  515.35   44.80
  -4  -8   0  601.44   41.50
  -4   8   0  657.43   43.70
   4   8   0  625.44   40.80
  -5  -8   0  293.37   21.50
  -5  -8   0  270.77   24.00
   5  -8   0  312.37   23.20
  -5   8   0  329.87   22.80
   5   8   0  253.87   21.40
  -5   8   0  347.87   22.70
   0  -9   0    2.70    4.60
   0   9   0    2.00    3.10
   0   9   0   -4.10    4.50
   0   9   0    6.00    4.30
   0   9   0   -2.20    4.30
  -1  -9   0  276.77   18.70
   1  -9   0  245.68   19.40
   1  -9   0  259.97   19.80
   1   9   0  240.88   19.00
  -1   9   0  241.08   19.30
   1   9   0  235.48   19.70
  -1   9   0  257.87   18.50
  -1   9   0  262.47   19.60
  -1   9   0  263.27   19.30
  -1   9   0  251.67   20.00
   1   9   0  246.48   19.20
  -1   9   0  233.68   20.20
  -2   9   0 1102.79   73.89
   2   9   0 1090.39   73.29
  -2   9   0 1078.69   72.59
  -2   9   0 1105.39   73.59
  -2   9   0 1022.70   73.69
  -2   9   0 1105.89   73.19
   2   9   0 1006.90   73.59
   3  -9   0 1007.80   80.79
   3  -9   0 1195.48   77.79
   3  -9   0 1192.58   78.69
  -3  -9   0 1136.49   80.39
   3  -9   0 1234.88   78.19
   3   9   0 1134.49   77.39
  -3   9   0 1117.19   78.79
  -3   9   0 1102.69   78.39
  -3   9   0 1137.89   77.49
  -3   9   0 1193.18   77.69
   3   9   0 1034.50   77.69
  -3   9   0 1136.39   77.89
  -4  -9   0  289.77   21.40
  -4  -9   0  287.17   22.40
  -4  -9   0  284.27   21.50
   4  -9   0  290.87   21.60
   4  -9   0  297.17   21.70
   4  -9   0  286.17   22.90
   4  -9   0  307.87   25.90
  -4   9   0  317.27   23.20
   4   9   0  311.77   22.50
  -4   9   0  296.07   22.60
   4   9   0  262.47   20.80
   0 -10   0 1241.18   83.29
   0  10   0 1206.08   82.89
   0  10   0 1256.67   83.29
   0  10   0 1178.68   82.29
   1 -10   0  517.55   34.60
   1 -10   0  482.45   33.90
   1  10   0  459.35   34.20
  -1  10   0  492.25   34.20
   1  10   0  449.06   33.70
  -1  10   0  459.55   33.20
  -1  10   0  480.75   34.00
  -1  10   0  494.45   34.40
   1  10   0  453.25   33.30
  -2  10   0  100.09   13.00
  -2  10   0   95.69   11.00
   2  10   0   95.99   11.00
  -2  10   0   98.39    9.40
   2  10   0   97.79   10.20
   2  10   0  103.79    9.60
  -2  10   0  100.19   12.60
  -2  10   0  107.09   10.20
   3 -10   0   45.10    8.40
  -3 -10   0   46.30    7.10
   3 -10   0   51.69    7.30
  -3 -10   0   48.40    9.60
   3 -10   0   58.29   11.60
   3 -10   0   46.70    6.70
   4 -10   0  345.17   33.40
  -4 -10   0  366.56   26.30
   4 -10   0  371.06   26.60
   4 -10   0  364.96   26.40
  -4 -10   0  347.77   26.40
  -4 -10   0  366.26   29.10
   4 -10   0  355.16   26.30
   4  10   0  393.36   26.20
  -4  10   0  344.37   27.70
  -4  10   0  400.56   26.90
  -4  10   0  376.56   26.30
   4  10   0  401.36   26.90
   0 -11   0    7.30    5.60
   0  11   0    5.50    4.40
   0  11   0   -1.50    3.10
   0  11   0    0.40    4.60
   1 -11   0  464.65   37.30
   1  11   0  491.25   34.60
  -1  11   0  496.35   35.40
   1  11   0  504.45   35.30
   1  11   0  511.15   36.10
  -1  11   0  504.55   34.70
  -1  11   0  498.05   35.30
  -1  11   0  507.25   35.60
   2 -11   0 1008.40   69.59
  -2 -11   0 1071.49   69.69
   2 -11   0 1077.09   70.29
   2 -11   0  857.41   70.29
   2  11   0 1001.10   68.49
   2  11   0 1013.80   69.59
   2  11   0 1026.20   69.09
  -2  11   0  993.60   68.59
  -2  11   0 1051.79   69.39
  -2  11   0 1024.10   69.19
  -2  11   0  980.40   68.99
  -2  11   0 1029.50   69.49
   3 -11   0  530.65   41.70
  -3 -11   0  515.15   42.50
  -3 -11   0  527.65   41.80
  -3 -11   0  566.94   43.70
   3 -11   0  556.94   43.40
   3 -11   0  523.25   41.20
   3 -11   0  564.34   42.30
   3  11   0  693.03   42.40
  -3  11   0  698.83   41.60
  -3  11   0  715.63   41.90
  -3  11   0  690.63   42.90
  -4 -11   0  196.48   14.70
   4 -11   0  195.78   14.80
  -4 -11   0  190.28   14.40
   4 -11   0  203.78   17.80
   4 -11   0  177.28   13.80
   4  11   0  172.18   13.80
   4  11   0  148.19   14.50
   0 -12   0  831.22   62.59
   0  12   0  920.81   62.49
   0  12   0  958.70   61.99
   0  12   0  931.11   62.39
  -1 -12   0  257.17   21.40
   1 -12   0  243.98   20.40
  -1  12   0  266.97   19.60
   1  12   0  265.67   18.90
  -1  12   0  250.47   19.70
   1  12   0  251.57   19.60
   1  12   0  270.67   19.40
  -1  12   0  242.88   18.70
  -1  12   0  250.27   20.20
  -2 -12   0  161.88   14.60
   2 -12   0  155.78   12.50
   2 -12   0  168.98   15.60
  -2  12   0  138.19   11.40
  -2  12   0  132.49   13.80
  -2  12   0  135.29   12.30
   2  12   0  127.79   11.90
  -2  12   0  140.39   11.80
   2  12   0  132.19   12.20
   3 -12   0   50.09    6.70
   3 -12   0   58.89    7.40
   3 -12   0   41.80    7.60
  -3 -12   0   43.70    8.90
  -3 -12   0   59.69    8.70
   3 -12   0   64.89   12.60
  -3 -12   0   55.29    9.90
   3  12   0   57.99    6.80
   3  12   0   54.69    5.70
  -3  12   0   49.99    6.90
  -3  12   0   60.19    7.40
   0  13   0    2.50    4.00
   0  13   0    5.30    3.70
   0  13   0    7.10    3.00
   1 -13   0  541.45   39.50
   1 -13   0  509.65   38.90
  -1  13   0  569.94   38.10
  -1  13   0  569.24   38.90
   1  13   0  590.84   38.80
  -1  13   0  522.35   38.60
   1  13   0  566.44   39.30
   2 -13   0  355.06   26.60
   2 -13   0  343.97   26.70
  -2 -13   0  323.37   30.50
  -2 -13   0  363.86   27.10
   2 -13   0  345.97   29.80
   2  13   0  379.46   26.30
  -2  13   0  396.26   26.60
  -2  13   0  404.56   26.80
   2  13   0  409.76   26.90
  -2  13   0  392.26   26.10
   3 -13   0  408.26   34.10
   3 -13   0  462.45   30.50
   3 -13   0  450.45   30.00
   3 -13   0  442.06   30.00
  -3  13   0  417.96   29.80
  -3  13   0  402.06   30.60
   3  13   0  359.16   29.50
   3  13   0  494.85   30.90
   0 -14   0  222.38   18.00
   0  14   0  228.48   17.00
   0  14   0  239.78   17.40
   0  14   0  231.88   16.80
   1 -14   0  520.05   40.10
   1 -14   0  541.15   40.80
  -1 -14   0  543.65   41.80
   1  14   0  567.14   39.50
  -1  14   0  622.64   39.80
  -1  14   0  607.74   39.40
   1  14   0  593.84   39.60
   1  14   0  542.15   38.90
  -1  14   0  605.34   39.70
   2 -14   0   80.49    8.00
   2 -14   0   81.49    9.00
   2 -14   0   89.99   12.80
   2  14   0   66.79    7.30
  -2  14   0   66.09    6.50
  -2  14   0   64.99    6.00
  -2  14   0   64.09    6.50
   0  15   0    5.60    3.30
   0  15   0    3.30    2.00
   0  15   0    3.20    2.40
   1  15   0   51.79    5.70
   1  15   0   60.49    6.10
   1  15   0   53.19    5.40
  -1  15   0   46.30    5.30
  -1  15   0   61.89    5.50
  -1  15   0   53.39    6.10
   2 -15   0  553.94   36.00
   2 -15   0  547.95   34.90
   2  15   0  529.95   35.60
   2  15   0  478.75   34.60
  -2  15   0  429.76   34.80
   0  16   0  527.35   37.50
   0  16   0  539.05   36.60
  -6   0   1   61.79   13.10
   6   0  -1   58.69    8.60
  -6   0   1   37.50   10.90
  -5   0   1    1.80    5.50
   5   0  -1    3.40    4.60
  -5   0   1    0.90    4.60
  -5   0   1    5.90   10.20
   4   0  -1  487.65   34.40
   4   0  -1  461.05   34.10
   4   0  -1  487.65   35.20
  -4   0   1  489.55   36.00
  -4   0   1  466.05   37.30
  -4   0   1  470.15   35.30
  -4   0   1  471.85   33.30
  -4   0   1  487.25   33.70
   3   0  -1 2649.93  171.38
  -3   0   1 2653.33  171.78
   3   0  -1 2480.35  171.68
  -3   0   1 2573.24  171.38
  -3   0   1 2563.74  171.18
  -3   0   1 2635.04  178.68
  -3   0   1 2523.15  172.18
  -3   0   1 2498.95  170.68
   3   0  -1 2531.15  177.48
   3   0  -1 2464.65  171.28
   2   0  -1 1839.52  123.29
  -2   0   1 1848.02  120.79
   2   0  -1 1862.41  121.39
  -2   0   1 1855.01  123.29
   2   0  -1 1758.62  120.49
  -2   0   1 1812.82  120.59
  -2   0   1 1632.44  120.29
   1   0  -1   24.80    3.00
   1   0  -1   22.80    3.90
   1   0  -1   21.90    2.60
  -1   0   1   22.60    3.80
  -1   0   1   26.80    2.60
   0   0   1   18.90    2.00
   0   0   1   11.70    3.10
   0   0   1   14.10    2.80
   0   0   1   18.80    1.80
   0   0  -1   16.40    2.10
   0   0  -1   11.00    2.80
   1   0   1  814.72   57.29
  -1   0  -1  841.62   56.09
   1   0   1  842.32   56.19
  -1   0  -1  846.72   57.39
  -2   0  -1 1712.73  118.09
   2   0   1 1731.63  115.29
   2   0   1 1875.51  119.29
  -2   0  -1 1722.53  115.19
   2   0   1 1572.44  114.69
   2   0   1 1696.53  115.09
   3   0   1 1923.51  136.39
   3   0   1 1961.50  129.09
   3   0   1 1924.71  128.89
  -3   0  -1 1803.02  130.39
  -3   0  -1 2018.90  129.29
  -3   0  -1 1947.31  128.59
   3   0   1 1894.41  128.39
  -3   0  -1 1899.31  129.79
  -3   0  -1 1960.10  128.89
  -3   0  -1 1859.01  139.69
  -3   0  -1 1925.91  128.19
   3   0   1 1873.51  128.19
   4   0   1   16.50    7.00
  -4   0  -1   18.50    7.30
  -4   0  -1   20.30    9.60
  -4   0  -1   12.60    7.50
  -4   0  -1   15.70    8.50
  -4   0  -1   12.30    4.00
   4   0   1   16.10    4.90
  -5   0  -1   15.60    6.10
  -5   0  -1   16.20   11.50
  -5   0  -1   12.60    5.80
   5   0   1    9.90    6.60
  -6   1   1  244.08   19.50
   6   1  -1  241.48   21.10
   6   1  -1  282.87   20.30
  -6   1   1  247.68   20.00
  -5  -1   1  600.04   45.10
   5  -1  -1  626.14   45.90
  -5  -1   1  709.43   50.39
  -5  -1   1  650.53   44.60
  -4  -1   1  403.96   34.80
  -4  -1   1  380.16   30.20
   4  -1  -1  381.46   29.10
  -4  -1   1  403.96   28.50
   4  -1  -1  377.86   28.70
  -4  -1   1  390.86   27.70
  -4  -1   1  374.36   29.70
   4  -1  -1  357.76   29.10
   4   1  -1  408.86   29.40
  -4   1   1  354.06   32.90
  -4   1   1  400.16   27.70
  -4   1   1  398.66   27.90
  -4   1   1  382.26   31.40
   4   1  -1  419.76   28.80
  -4   1   1  424.26   30.60
  -4   1   1  394.96   29.50
  -3  -1   1   43.10   11.60
   3  -1  -1   61.99   10.90
   3  -1  -1   63.69    8.40
   3  -1  -1   63.69    7.10
   3  -1  -1   61.99    7.60
   3  -1  -1   52.89    8.30
  -3  -1   1   64.09    7.70
  -3  -1   1   75.99   19.30
  -3  -1   1   63.89    7.40
  -3  -1   1   62.79    6.70
   3  -1  -1   83.39   20.90
  -3  -1   1   62.89    7.10
   3   1  -1   68.59    6.70
  -3   1   1   74.89    7.30
   3   1  -1   66.99   17.80
   3   1  -1   55.89   13.10
  -3   1   1   61.79   13.40
  -3   1   1   70.49    8.70
  -3   1   1   63.09    6.90
  -3   1   1   56.79   17.00
  -3   1   1   60.19    9.90
   3   1  -1   66.99    8.20
  -3   1   1   68.29    8.10
  -2  -1   1  457.25   28.50
   2  -1  -1  424.56   31.50
  -2  -1   1  451.25   31.10
   2  -1  -1  440.26   28.50
   2  -1  -1  460.65   28.50
  -2  -1   1  422.06   28.40
   2   1  -1  408.96   29.60
  -2   1   1  388.06   28.40
   2   1  -1  384.56   28.00
   2   1  -1  374.46   30.60
  -2   1   1  390.56   28.50
  -2   1   1  377.16   31.20
  -2   1   1  347.97   28.10
   1  -1  -1 1446.66   81.89
  -1  -1   1 1330.47   82.69
   1  -1  -1 1408.86   83.29
   1   1  -1 1053.39   82.99
  -1   1   1 1141.59   81.69
  -1   1   1 1063.49   82.79
   1   1  -1 1115.29   81.49
   0  -1  -1 2060.79  156.58
   0  -1  -1 2333.37  156.78
   0   1   1 2482.05  157.58
   0   1   1 2234.28  156.68
   0   1   1 2562.64  155.68
   1  -1   1 1241.08   94.39
   1  -1   1 1304.97   95.49
  -1  -1  -1 1361.66   94.39
  -1  -1  -1 1260.27   94.39
   1  -1   1 1358.06   94.49
  -1  -1  -1 1321.47   95.59
  -1   1  -1 1630.54   95.89
  -1   1  -1 1614.04   94.39
   1   1   1 1630.74   95.99
  -2  -1  -1  231.88   18.80
   2  -1   1  243.58   15.50
   2  -1   1  232.88   19.10
  -2  -1  -1  237.08   15.50
  -2   1  -1  182.88   18.30
  -2   1  -1  185.48   15.40
  -2   1  -1  206.68   15.10
   2   1   1  183.78   15.00
   2   1   1  175.08   18.10
   3  -1   1  704.43   45.90
  -3  -1  -1  704.93   46.00
   3  -1   1  743.83   56.89
  -3  -1  -1  670.23   49.50
   3  -1   1  707.33   46.50
   3  -1   1  692.13   46.40
  -3  -1  -1  600.74   50.39
   3  -1   1  681.43   46.20
  -3  -1  -1  739.53   46.70
   3  -1   1  709.53   46.60
  -3  -1  -1  731.23   46.40
  -3  -1  -1  729.53   45.60
  -3   1  -1  652.43   57.09
  -3   1  -1  641.94   46.20
  -3   1  -1  619.84   45.80
   3   1   1  605.64   45.60
  -3   1  -1  640.44   46.20
  -3   1  -1  646.44   46.60
   3   1   1  674.73   46.20
  -3   1  -1  629.84   47.10
   3   1   1  663.13   46.40
   3   1   1  607.54   46.60
  -3   1  -1  590.24   47.60
  -4  -1  -1  645.84   49.90
   4  -1   1  697.33   46.00
  -4  -1  -1  542.65   47.50
   4  -1   1  675.33   45.00
  -4  -1  -1  663.03   45.40
  -4  -1  -1  674.43   45.10
  -4  -1  -1  683.83   46.90
  -4   1  -1  588.74   47.60
  -4   1  -1  671.03   45.40
  -4   1  -1  672.53   46.00
  -4   1  -1  623.04   47.70
   4   1   1  674.73   46.00
   4   1   1  625.84   46.20
  -4   1  -1  702.63   47.20
  -5  -1  -1  677.33   43.30
   5  -1   1  583.34   44.10
  -5  -1  -1  611.14   42.20
  -5  -1  -1  604.44   44.60
  -5   1  -1  583.94   44.80
  -5   1  -1  586.84   45.60
  -5   1  -1  621.94   43.10
   6   2  -1  178.28   13.60
  -6   2   1  180.58   15.00
  -5  -2   1   29.90    9.00
  -5  -2   1   31.50    5.70
  -5   2   1   40.30    9.30
   4  -2  -1  476.35   35.00
   4  -2  -1  456.35   34.00
  -4  -2   1  477.05   34.40
  -4  -2   1  480.65   36.30
   4  -2  -1  444.76   35.40
  -4  -2   1  480.25   33.90
  -4  -2   1  483.65   35.60
   4  -2  -1  473.85   35.70
  -4  -2   1  458.05   36.40
  -4   2   1  478.45   34.10
  -4   2   1  527.25   39.30
  -4   2   1  494.35   34.80
  -4   2   1  507.65   35.70
  -4   2   1  496.95   34.00
   4   2  -1  518.85   35.10
  -4   2   1  504.75   36.10
   4   2  -1  505.55   35.50
  -3  -2   1 1147.99   77.29
  -3  -2   1 1142.09   77.29
   3  -2  -1 1059.29   77.69
   3  -2  -1 1148.89   77.09
   3  -2  -1 1209.18   77.79
  -3  -2   1 1141.79   78.69
   3  -2  -1 1127.09   77.59
  -3  -2   1 1150.38   76.99
   3  -2  -1 1152.18   86.09
   3  -2  -1 1148.19   77.59
  -3  -2   1 1177.78   77.89
   3   2  -1 1083.99   77.89
  -3   2   1 1119.49   78.49
  -3   2   1 1157.58   77.59
  -3   2   1 1204.98   77.79
  -3   2   1 1109.69   82.29
  -3   2   1 1086.09   77.39
  -3   2   1 1164.88   89.29
  -3   2   1 1145.59   77.49
   3   2  -1 1133.69   77.59
   2  -2  -1 2741.73  182.08
   2  -2  -1 2758.82  182.08
   2  -2  -1 2795.92  185.08
   2  -2  -1 2761.02  181.78
  -2  -2   1 2924.71  184.38
  -2  -2   1 2669.13  181.98
   2   2  -1 2698.23  181.18
  -2   2   1 2985.00  186.48
   2   2  -1 2759.22  184.28
  -2   2   1 2651.83  181.88
   2   2  -1 2583.84  181.18
  -2   2   1 2645.54  181.98
  -2   2   1 2452.65  181.48
   1  -2  -1 4045.70  239.88
  -1  -2   1 4276.67  237.98
  -1   2   1 3157.38  239.38
  -1   2   1 3129.49  237.98
   1   2  -1 3274.27  238.58
   0  -2  -1   92.59    8.70
   0  -2   1   99.29    6.50
   0  -2  -1   88.99    8.70
   0   2  -1   74.49    6.50
   0   2   1   89.09    6.60
   0   2   1   88.29    6.60
   0   2   1   76.19    8.30
  -1  -2  -1 1894.11  111.69
   1  -2   1 1927.81  111.79
  -1   2  -1 1453.15  111.69
   1   2   1 1419.36  111.69
  -2  -2  -1 2488.35  187.08
  -2  -2  -1 2544.65  189.58
   2  -2   1 2523.55  189.98
   2  -2   1 2571.84  187.08
  -2   2  -1 3128.19  187.08
   2   2   1 2941.41  187.08
   2   2   1 3188.08  190.58
  -2   2  -1 3011.80  187.08
   3  -2   1  586.84   41.20
  -3  -2  -1  605.64   40.90
  -3  -2  -1  587.44   41.50
  -3  -2  -1  624.04   41.10
  -3  -2  -1  593.64   42.70
   3  -2   1  589.94   40.70
   3  -2   1  582.34   40.30
   3  -2   1  554.74   52.89
  -3  -2  -1  569.64   41.00
   3  -2   1  603.54   41.20
   3  -2   1  599.04   41.50
  -3   2  -1  607.64   42.50
   3   2   1  606.54   41.30
   3   2   1  572.24   41.60
  -3   2  -1  581.34   40.90
  -3   2  -1  570.64   41.00
   3   2   1  611.34   40.70
  -3   2  -1  636.64   41.20
  -3   2  -1  563.14   42.50
  -3   2  -1  554.04   40.80
  -4  -2  -1  609.74   40.70
  -4  -2  -1  597.04   45.30
  -4  -2  -1  599.74   43.00
   4  -2   1  597.94   40.50
   4  -2   1  593.84   40.40
  -4  -2  -1  634.94   42.00
   4  -2   1  612.84   41.20
  -4  -2  -1  654.63   40.80
  -4   2  -1  544.45   42.50
  -4   2  -1  510.35   40.10
  -4   2  -1  517.15   42.70
   4   2   1  541.05   41.10
  -4   2  -1  544.65   41.20
  -5  -2  -1   32.90    8.40
  -5  -2  -1   35.60    7.40
  -5  -2  -1   25.70    5.70
  -5  -2  -1   30.10    6.30
   5  -2   1   30.60    6.80
   5   2   1   30.00    6.20
  -5   2  -1   30.40    6.70
  -5   2  -1   31.30    8.60
  -5   2  -1   44.40    7.90
  -5  -3   1  471.95   37.20
  -5  -3   1  550.74   34.60
   5  -3  -1  524.85   35.20
  -5  -3   1  527.75   36.00
  -5  -3   1  514.45   35.00
  -5   3   1  421.46   34.90
  -5   3   1  442.56   36.70
  -5   3   1  441.06   36.10
  -4  -3   1  551.44   38.60
   4  -3  -1  549.54   39.30
   4  -3  -1  513.65   39.10
  -4  -3   1  536.25   37.30
   4  -3  -1  533.95   37.80
  -4  -3   1  530.85   40.20
   4  -3  -1  544.85   38.50
  -4  -3   1  545.75   40.00
  -4  -3   1  565.34   37.90
   4   3  -1  548.55   38.50
  -4   3   1  528.35   40.40
  -4   3   1  542.65   39.40
  -4   3   1  506.75   37.20
  -4   3   1  535.75   37.90
   4   3  -1  516.55   38.70
  -3  -3   1   45.30    8.70
   3  -3  -1   38.60    8.20
   3  -3  -1   26.40   18.80
  -3  -3   1   42.90    5.90
  -3  -3   1   44.10    5.90
   3  -3  -1   39.30    9.70
  -3  -3   1   42.10    9.80
   3  -3  -1   55.19    6.90
  -3  -3   1   49.00    9.90
   3  -3  -1   42.30    7.90
   3  -3  -1   42.10    6.70
   3  -3  -1   44.60    6.20
  -2  -3   1  480.05   32.60
  -2  -3   1  476.25   34.90
  -2  -3   1  446.76   32.50
   2  -3  -1  472.95   32.60
   1  -3  -1 5351.36  399.26
  -1  -3   1 5482.05  398.86
   1  -3  -1 5686.13  400.96
  -1   3   1 6422.36  401.36
  -1   3   1 6138.79  399.26
  -1   3   1 6241.68  401.16
  -1   3   1 6705.43  399.46
   0  -3  -1 1547.55  100.39
   0  -3  -1 1564.04   98.69
   0  -3  -1 1445.56  100.69
   0  -3   1 1503.35   98.49
   0   3   1 1312.37   99.89
   0   3   1 1471.75   98.29
  -1  -3  -1  625.94   40.40
  -1  -3  -1  604.34   40.00
   1  -3   1  581.74   40.10
   1  -3   1  657.73   40.20
  -1  -3  -1  649.74   42.10
   1  -3   1  649.64   41.80
  -1   3  -1  559.94   41.40
   1   3   1  571.14   39.70
   1   3   1  559.74   41.70
  -1   3  -1  505.35   39.80
   1   3   1  565.44   39.70
  -2  -3  -1  212.68   19.10
   2  -3   1  200.28   15.40
  -2  -3  -1  202.78   15.30
  -2  -3  -1  208.98   16.10
  -2  -3  -1  215.28   15.60
   2  -3   1  219.68   15.90
   2  -3   1  218.78   19.90
  -2   3  -1  233.38   20.40
   2   3   1  219.58   19.40
   2   3   1  229.28   15.00
   2   3   1  189.98   15.70
   3  -3   1   53.59    6.80
  -3  -3  -1   55.29    6.70
   3  -3   1   52.49    7.80
   3  -3   1   52.99    6.50
   3  -3   1   59.99    8.30
  -3  -3  -1   44.30    8.30
  -3  -3  -1   47.90    6.00
  -3  -3  -1   49.00    9.60
   3  -3   1   59.09    7.50
  -3   3  -1   46.90    8.00
  -3   3  -1   59.49    9.30
   3   3   1   49.10    7.90
  -3   3  -1   39.50    9.30
  -3   3  -1   47.40    6.30
  -3   3  -1   42.80    8.90
  -3   3  -1   56.79    8.10
  -3   3  -1   38.00    9.40
   4  -3   1 1101.69   70.79
  -4  -3  -1 1134.29   69.99
  -4  -3  -1 1090.19   71.09
   4  -3   1  985.70   71.79
  -4  -3  -1  902.81   72.79
  -4  -3  -1 1024.10   72.79
  -4  -3  -1 1070.19   70.49
   4  -3   1  990.80   69.89
   4  -3   1 1033.40   69.99
   4  -3   1 1119.59   72.79
  -4   3  -1  993.30   72.69
  -4   3  -1 1021.20   71.89
  -4   3  -1  983.80   74.39
  -4   3  -1  955.10   71.89
   4   3   1 1023.60   70.79
  -5  -3  -1  524.05   34.80
  -5  -3  -1  515.35   34.70
  -5  -3  -1  519.45   37.40
   5  -3   1  544.95   34.90
  -5  -3  -1  482.15   44.80
  -5   3  -1  442.16   34.50
  -5   3  -1  448.26   35.80
   5   3   1  454.15   34.90
  -5   3  -1  459.95   37.20
   5  -4  -1    6.50    4.80
  -5  -4   1    6.30    3.70
  -5  -4   1    5.40    3.90
  -5   4   1    4.80    5.80
  -5   4   1   11.20    5.10
   5   4  -1    8.10    4.60
  -5   4   1    3.70    6.70
   5   4  -1    3.20    5.10
   4  -4  -1  335.67   26.00
  -4  -4   1  326.77   26.10
   4  -4  -1  314.17   29.50
  -4  -4   1  327.17   25.00
   4  -4  -1  336.97   26.60
   4  -4  -1  316.97   25.90
   4  -4  -1  352.76   28.00
  -4  -4   1  321.17   26.50
  -4   4   1  390.76   28.90
   4   4  -1  403.06   26.90
  -4   4   1  415.86   27.60
  -4   4   1  361.56   27.10
  -4   4   1  414.26   28.00
   3  -4  -1 1273.17   78.29
   3  -4  -1 1091.09   78.69
  -3  -4   1 1214.18   78.09
  -3  -4   1 1180.38   78.09
  -3  -4   1 1211.98   79.39
  -3  -4   1 1186.18   77.49
   3  -4  -1 1220.28   78.69
   3  -4  -1 1261.47   78.69
   3  -4  -1 1212.28   78.79
   3  -4  -1 1184.58   77.69
   3   4  -1 1118.89   78.39
   3   4  -1 1089.29   78.59
  -3   4   1 1153.98   79.49
  -3   4   1 1096.79   77.99
  -3   4   1 1052.29   77.49
  -3   4   1 1061.49   78.09
  -3   4   1 1062.59   79.39
  -3   4   1 1023.90   77.99
  -2  -4   1 2258.77  143.99
  -2  -4   1 2186.98  143.49
  -2  -4   1 2184.48  145.89
   2  -4  -1 2162.08  147.89
   2  -4  -1 1987.90  143.39
   2  -4  -1 2168.58  143.99
   2  -4  -1 2079.39  143.89
  -1  -4   1 2515.35  161.28
  -1  -4   1 2247.48  161.48
   1  -4  -1 2329.37  163.48
   1  -4  -1 2351.86  161.28
   1  -4  -1 2158.98  161.38
  -1   4   1 2710.93  164.48
   1   4  -1 2466.65  161.18
  -1   4   1 2552.64  163.68
  -1   4   1 2409.16  160.98
   0  -4   1  205.08   15.40
   0  -4  -1  231.68   15.40
   0  -4  -1  200.48   15.70
   0  -4  -1  205.28   18.30
   0   4   1  248.28   18.40
   1  -4   1 1443.46   95.89
   1  -4   1 1307.97   94.09
  -1  -4  -1 1316.67   94.39
  -1  -4  -1 1399.16   96.59
   1  -4   1 1446.66   94.29
  -1  -4  -1 1387.36   94.09
   1   4   1 1549.94   96.39
   2  -4   1 1772.82  125.49
   2  -4   1 1760.12  121.29
  -2  -4  -1 1908.51  125.79
  -2  -4  -1 1842.02  122.19
  -2  -4  -1 1711.33  121.19
  -2  -4  -1 1864.91  121.59
   2  -4   1 1807.32  124.19
   2  -4   1 1844.32  121.79
  -3  -4  -1 1282.77   82.99
   3  -4   1 1300.07   83.89
   3  -4   1 1265.27   83.29
  -3  -4  -1 1321.87   83.19
   3  -4   1 1309.77   82.59
   3  -4   1 1314.17   83.89
  -3  -4  -1 1272.77   84.19
  -3  -4  -1 1293.77   82.49
  -3   4  -1 1096.69   83.39
  -3   4  -1 1160.28   84.09
  -3   4  -1 1114.69   84.19
  -3   4  -1 1145.09   82.79
  -3   4  -1 1156.48   82.99
  -3   4  -1 1140.09   82.69
   3   4   1 1180.48   83.39
   4  -4   1  322.57   24.20
   4  -4   1  325.17   24.50
   4  -4   1  339.97   27.10
  -4  -4  -1  315.67   25.70
  -4  -4  -1  314.07   31.00
   4  -4   1  307.67   24.40
   4  -4   1  322.07   27.40
  -4  -4  -1  325.37   24.00
  -4  -4  -1  323.87   24.60
  -4   4  -1  356.06   26.80
  -4   4  -1  372.86   26.60
  -4   4  -1  334.97   25.60
   4   4   1  368.06   25.50
  -4   4  -1  337.37   25.00
  -5  -4  -1   16.60   14.50
  -5  -4  -1    6.40    4.50
  -5  -4  -1   11.80    3.60
   5  -4   1   15.40    4.60
  -5  -4  -1   20.10    6.60
  -5   4  -1    6.20    5.20
  -5   4  -1    8.70    6.90
   5   4   1    6.00    4.60
  -5   4  -1   -1.60    5.30
   5   4   1    7.00    4.90
  -5  -5   1  629.24   43.10
   5  -5  -1  647.54   43.70
  -5  -5   1  697.93   45.10
  -5   5   1  577.84   44.10
   5   5  -1  583.84   43.60
  -5   5   1  601.24   46.00
   5   5  -1  615.44   43.20
   4  -5  -1  612.14   43.40
  -4  -5   1  623.54   41.80
   4  -5  -1  598.64   41.00
   4  -5  -1  671.93   42.20
   4  -5  -1  577.84   44.20
   4  -5  -1  617.24   41.20
  -4  -5   1  609.54   41.20
  -4   5   1  510.45   40.70
  -4   5   1  531.45   42.60
   4   5  -1  542.85   41.50
  -4   5   1  530.25   42.80
  -3  -5   1   87.99   11.00
  -3  -5   1   86.59    8.90
   3  -5  -1   90.29    9.40
   3  -5  -1   96.59   11.10
   3  -5  -1   89.59   11.30
  -3  -5   1   87.29    8.90
   3  -5  -1   81.19    9.90
  -3   5   1  117.39   10.10
  -3   5   1  111.19   12.70
  -3   5   1  104.09   12.20
   3   5  -1  115.39   16.60
  -3   5   1  101.89   12.90
  -3   5   1  114.89   12.70
   3   5  -1  106.39   10.90
  -2  -5   1 1533.25  105.69
   2  -5  -1 1568.54  106.49
   2  -5  -1 1380.76  106.19
  -2  -5   1 1536.45  106.39
   2  -5  -1 1479.05  106.29
   2  -5  -1 1511.45  111.09
  -2   5   1 1771.82  111.99
  -2   5   1 1633.04  111.39
   2   5  -1 1563.24  107.29
  -2   5   1 1527.55  107.19
   2   5  -1 1632.74  107.79
  -2   5   1 1795.82  106.39
  -2   5   1 1588.74  106.09
  -2   5   1 1564.24  106.49
   1  -5  -1  734.43   51.99
  -1  -5   1  692.63   49.10
   1  -5  -1  778.82   49.20
   1  -5  -1  684.33   49.99
   0  -5  -1 2758.12  171.38
   0  -5  -1 2505.45  168.98
   0   5   1 2330.97  173.88
   1  -5   1 1032.30   63.39
   1  -5   1  940.31   63.19
   1  -5   1  960.60   65.19
  -1  -5  -1  944.31   66.19
  -1  -5  -1  905.11   63.59
  -1  -5  -1  973.70   63.09
  -1   5  -1  884.91   64.89
   1   5   1  862.11   64.79
   2  -5   1  144.69   15.30
  -2  -5  -1  153.98   21.00
  -2  -5  -1  146.79   11.50
  -2  -5  -1  140.79   12.80
  -2  -5  -1  163.08   12.00
   2  -5   1  153.38   19.80
   2  -5   1  146.89   12.20
   2  -5   1  154.28   12.90
  -2   5  -1  168.98   13.30
   2   5   1  163.08   14.00
  -2   5  -1  152.88   13.10
  -2   5  -1  171.08   15.20
  -2   5  -1  148.29   18.20
  -2   5  -1  145.39   14.70
   2   5   1  142.19   13.40
   2   5   1  166.28   18.30
   3  -5   1  566.74   40.50
  -3  -5  -1  567.24   40.10
  -3  -5  -1  564.44   40.10
  -3  -5  -1  532.45   41.70
   3  -5   1  607.44   39.70
   3  -5   1  597.94   41.60
   3  -5   1  600.94   40.60
  -3   5  -1  551.64   40.60
   4  -5   1  333.67   28.00
  -4  -5  -1  368.46   34.10
  -4   5  -1  292.87   24.00
  -4   5  -1  308.57   24.70
  -4   5  -1  292.47   24.80
   4   5   1  312.57   23.50
   4   5   1  287.47   23.60
  -5  -5  -1  621.14   42.60
  -5  -5  -1  543.95   43.90
  -5  -5  -1  561.24   45.20
   5  -5   1  633.04   43.00
  -5  -5  -1  616.34   42.60
   5   5   1  611.84   43.60
  -5   5  -1  646.64   44.40
   5   5   1  665.13   43.00
  -5   5  -1  642.14   44.10
  -5  -6   1   -0.80    3.80
   5  -6  -1   -2.00    4.50
  -5  -6   1    3.40    2.80
  -5  -6   1    5.80    7.60
  -5  -6   1    4.60    3.40
   5   6  -1    1.40    3.10
   5   6  -1    5.00    4.70
  -5   6   1    5.40    6.60
  -5   6   1    2.70    4.70
  -4  -6   1  522.95   34.30
  -4  -6   1  524.05   35.10
   4  -6  -1  509.55   38.90
   4  -6  -1  513.35   37.90
   4  -6  -1  537.95   35.30
  -4   6   1  398.46   35.20
   4   6  -1  442.36   34.40
   4   6  -1  400.06   34.60
   3  -6  -1 1376.76   88.49
   3  -6  -1 1298.27   88.29
  -3  -6   1 1320.17   86.49
  -3  -6   1 1345.67   87.19
  -3  -6   1 1351.56   88.39
   3  -6  -1 1358.16   88.29
   3  -6  -1 1310.77   87.09
   3   6  -1 1355.96   87.69
   3   6  -1 1210.88   87.79
  -3   6   1 1164.18   88.09
  -3   6   1 1157.78   88.49
  -3   6   1 1202.18   86.99
  -3   6   1 1257.27   88.39
  -2  -6   1 1506.45  115.09
   2  -6  -1 1644.34  114.39
   2  -6  -1 1474.65  112.89
   2  -6  -1 1471.65  112.39
  -2  -6   1 1554.34  112.09
   2  -6  -1 1446.16  113.89
  -2   6   1 1690.63  113.19
  -2   6   1 1791.82  112.89
  -2   6   1 1876.91  112.79
  -2   6   1 1799.32  114.09
  -2   6   1 1716.13  113.19
  -2   6   1 1701.83  113.79
  -2   6   1 1797.02  112.79
   2   6  -1 1815.72  113.09
   2   6  -1 1660.93  113.29
   2   6  -1 1848.81  114.29
   1  -6  -1  649.24   49.50
   1  -6  -1  634.44   45.60
   1  -6  -1  701.33   45.50
   0  -6  -1   64.09    7.30
   0  -6  -1   75.49    7.90
   0   6   1   87.59   10.20
   1  -6   1 1042.70   68.09
  -1  -6  -1 1034.50   67.59
   1  -6   1  960.10   70.29
  -1  -6  -1  993.30   68.69
   1  -6   1  895.11   67.99
  -1  -6  -1 1058.09   71.49
   1   6   1 1039.80   69.89
  -1   6  -1  973.50   69.99
   1   6   1 1018.90   70.59
  -1   6  -1 1032.90   69.59
   2  -6   1 1268.77   79.79
  -2  -6  -1 1282.57   79.99
  -2  -6  -1 1255.47   81.59
   2  -6   1 1301.77   81.49
   2  -6   1 1362.46   80.49
   2   6   1 1069.69   80.59
  -2   6  -1 1063.79   80.79
   2   6   1 1098.89   80.39
  -2   6  -1 1157.18   80.09
  -2   6  -1 1179.88   81.79
  -2   6  -1 1108.29   80.69
  -2   6  -1 1139.19   80.29
  -2   6  -1 1098.99   79.59
   3  -6   1 1836.42  122.39
  -3  -6  -1 1619.24  124.39
  -3  -6  -1 1818.42  121.89
   3  -6   1 1843.42  121.99
   3  -6   1 1840.72  123.49
  -3  -6  -1 1799.82  121.29
   3  -6   1 1951.70  123.59
   3  -6   1 1844.02  121.59
  -3   6  -1 1805.92  122.19
  -3   6  -1 1891.41  121.99
   3   6   1 1707.43  122.49
   3   6   1 1847.62  122.29
  -3   6  -1 1728.73  122.89
  -3   6  -1 1763.52  123.29
  -3   6  -1 1833.52  121.89
  -4  -6  -1   71.89    8.30
   4  -6   1   77.39    9.50
   4  -6   1   74.99   12.30
   4  -6   1   80.49   17.00
  -4  -6  -1   67.69   37.30
   4  -6   1   74.39    8.20
  -4  -6  -1   74.19    9.20
  -4  -6  -1   74.99    8.30
   5  -6   1   44.90    7.00
  -5  -6  -1   35.10   10.10
   5  -6   1   35.60    6.60
  -5  -6  -1   43.00    5.50
   5   6   1   29.10    5.70
  -5   6  -1   33.80    6.00
   5   6   1   39.20    6.50
  -5   6  -1   38.10    8.20
   5   6   1   34.80    7.00
  -5  -7   1  568.94   40.90
   5  -7  -1  557.14   39.60
  -5  -7   1  513.35   42.80
  -5  -7   1  560.94   39.10
  -5  -7   1  526.85   39.00
   5   7  -1  542.85   39.50
   5   7  -1  613.04   39.50
  -5   7   1  621.54   40.30
   4  -7  -1  607.64   46.50
   4  -7  -1  597.64   44.00
  -4  -7   1  596.54   44.30
   4  -7  -1  608.24   43.90
   4  -7  -1  545.95   49.40
   4  -7  -1  611.84   44.70
  -4  -7   1  571.54   45.00
  -4  -7   1  595.24   43.90
  -4   7   1  708.43   44.10
   4   7  -1  626.54   44.50
   4   7  -1  628.04   44.00
   4   7  -1  698.63   44.60
  -4   7   1  703.03   46.00
  -4   7   1  697.03   45.70
  -3   7   1  166.18   15.70
  -3   7   1  161.58   16.10
  -3   7   1  146.29   18.30
   3   7  -1  161.98   15.60
  -3   7   1  156.58   14.30
   3   7  -1  189.48   14.90
   3   7  -1  159.58   14.70
  -2   7   1    7.40    6.10
   2   7  -1   22.30    7.50
  -2   7   1   11.40    6.00
   2   7  -1    8.00    5.40
  -2   7   1    8.00    6.30
  -2   7   1    4.50    4.80
  -2   7   1   15.20    5.60
  -2   7   1    8.70    4.40
  -2   7   1    9.10    8.50
   2   7  -1    7.80    5.80
   1  -7  -1 1184.88   72.19
   1  -7  -1 1228.78   78.69
  -1   7   1 1025.50   76.29
  -1   7   1 1051.09   80.29
  -1   7   1 1053.49   72.19
  -1   7   1 1044.70   72.59
   1   7  -1 1022.30   72.09
   1   7  -1  947.91   72.49
  -1   7   1 1014.80   72.59
   0  -7  -1 2583.64  167.78
   0  -7  -1 2594.64  168.28
   0   7   1 2396.66  169.78
   0   7   1 2460.25  169.48
   1  -7   1 1277.77   93.19
  -1  -7  -1 1185.78   89.89
  -1  -7  -1 1209.08   98.39
  -1  -7  -1 1258.07   92.99
   1   7   1 1482.75   92.99
  -1   7  -1 1414.46   93.19
  -1   7  -1 1392.36   91.49
   1   7   1 1290.67   90.89
  -1   7  -1 1362.96   90.59
  -1   7  -1 1386.76   90.59
  -1   7  -1 1388.26   90.09
  -1   7  -1 1325.17   92.39
   1   7   1 1455.45   92.99
   2  -7   1  114.49   14.50
   2  -7   1  132.29   19.40
   2  -7   1  104.59   10.40
  -2  -7  -1  115.89   10.20
  -2  -7  -1  107.89    9.90
   2  -7   1  115.39   10.60
  -2   7  -1  124.59   12.00
  -2   7  -1  126.39   12.60
  -2   7  -1  126.09   10.80
  -2   7  -1  116.69   12.60
   2   7   1  118.39   12.40
  -2   7  -1  133.29   10.50
  -2   7  -1  127.89   16.10
   2   7   1  135.49   12.20
   3  -7   1   56.69    9.20
  -3  -7  -1   67.89    7.10
  -3  -7  -1   59.09    8.40
   3  -7   1   45.80   10.30
   3  -7   1   67.99    8.70
  -3  -7  -1   64.39    8.80
   3  -7   1   71.59    7.50
   3  -7   1   74.69    9.80
   4  -7   1  899.81   62.29
   4  -7   1  858.01   62.39
   4  -7   1  894.31   62.09
  -4  -7  -1  942.11   61.89
   4  -7   1  908.81   64.09
  -4  -7  -1  882.71   62.89
  -4  -7  -1  906.81   61.99
  -4  -7  -1  907.51   62.09
  -4   7  -1  938.11   61.99
   4   7   1  865.91   62.79
  -4   7  -1  940.51   63.79
  -4   7  -1  895.91   64.49
   4   7   1  921.91   62.29
   5  -7   1  466.45   33.30
  -5  -7  -1  486.65   32.50
   5  -7   1  506.65   32.60
  -5  -7  -1  500.75   32.50
  -5  -7  -1  494.05   33.40
   5   7   1  379.36   32.60
  -5   7  -1  452.15   33.30
  -5   7  -1  414.76   33.20
   5  -8  -1    4.80    3.20
  -5  -8   1    1.40    4.90
  -5  -8   1    6.30    3.40
  -5   8   1    9.50    4.90
   5   8  -1    5.00    3.20
  -5   8   1    8.50    4.50
  -4  -8   1  211.18   16.80
  -4  -8   1  224.48   18.60
   4  -8  -1  222.28   17.70
   4  -8  -1  231.18   24.80
   4   8  -1  244.88   18.50
   4   8  -1  218.58   18.40
  -4   8   1  253.77   20.10
   4   8  -1  232.78   18.00
  -4   8   1  205.88   18.20
  -3  -8   1 1408.46   95.09
  -3  -8   1 1392.16   95.29
   3  -8  -1 1376.86   95.19
   3  -8  -1 1458.75   96.99
   3  -8  -1 1435.16   99.99
   3  -8  -1 1439.86   97.39
   3   8  -1 1310.27   97.19
  -3   8   1 1524.45   97.39
  -3   8   1 1377.76   94.99
   3   8  -1 1341.97   96.09
  -3   8   1 1402.36   97.19
   3   8  -1 1428.56   95.29
  -3   8   1 1412.16   96.19
  -3   8   1 1421.46   96.59
  -3   8   1 1363.96   95.79
  -2  -8   1 1067.49   64.89
   2  -8  -1 1077.89   65.89
   2  -8  -1 1030.50   66.19
   2  -8  -1 1050.09   66.29
  -2   8   1  836.52   66.69
   2   8  -1  834.12   65.49
  -2   8   1  791.42   65.89
   1  -8  -1  401.96   26.30
   1  -8  -1  386.06   26.70
   1   8  -1  325.77   26.20
   1   8  -1  347.07   25.50
  -1   8   1  359.56   25.90
  -1   8   1  337.37   24.90
  -1   8   1  355.76   25.60
  -1   8   1  369.66   26.20
  -1   8   1  323.07   26.60
   1   8  -1  337.17   24.90
  -1   8   1  344.77   25.60
   0  -8  -1  115.29   12.80
   0  -8  -1  122.69   11.70
   0   8  -1  163.48   13.40
   0   8  -1  148.99   12.80
   0   8  -1  141.29   11.10
   0   8  -1  143.79   12.00
   0   8   1  152.08   11.60
   0   8   1  145.59   12.80
   0   8   1  140.69   12.50
   0   8   1  131.49   12.00
  -1  -8  -1  872.51   58.59
   1  -8   1  886.41   58.79
   1   8   1  813.22   59.29
  -1   8  -1  900.51   59.59
  -1   8  -1  874.91   58.99
   1   8   1  807.82   59.49
  -1   8  -1  816.72   59.19
  -1   8  -1  889.01   58.39
  -1   8  -1  911.91   59.19
   1   8   1  878.01   58.99
   1   8   1  824.02   58.89
   2  -8   1 1682.93  119.39
   2  -8   1 1738.73  119.59
  -2  -8  -1 1708.63  118.29
   2  -8   1 1744.73  118.59
  -2   8  -1 1864.61  120.69
   2   8   1 1661.53  119.69
   2   8   1 1892.11  119.19
  -2   8  -1 1834.12  119.39
   2   8   1 1832.92  118.49
   2   8   1 1726.93  119.39
   2   8   1 1511.25  119.49
  -2   8  -1 1999.30  119.39
   3   8   1  178.58   16.40
  -3   8  -1  199.98   18.10
  -3   8  -1  209.58   19.60
  -3   8  -1  201.48   17.10
   3   8   1  216.88   16.80
  -3   8  -1  205.58   16.00
  -3   8  -1  187.98   16.70
   4  -8   1  324.47   22.60
   4  -8   1  297.87   23.10
   4  -8   1  308.57   25.40
  -4  -8  -1  323.97   22.40
  -4  -8  -1  310.47   22.50
  -4  -8  -1  315.47   23.90
  -4  -8  -1  311.67   23.30
  -4   8  -1  265.77   25.60
   4   8   1  275.37   22.00
   4   8   1  279.57   23.50
   4   8   1  310.67   26.40
  -5  -8  -1   35.20    6.40
  -5  -8  -1   32.00   10.50
   5  -8   1   35.80    7.50
  -5  -8  -1   47.40    5.60
  -5   8  -1   57.19    7.90
   5   8   1   51.19    5.50
  -5   8  -1   53.89    7.10
  -5  -9   1  437.96   29.20
   5  -9  -1  462.65   29.70
  -5   9   1  366.26   29.50
  -4  -9   1  270.47   20.80
  -4  -9   1  289.17   20.60
   4  -9  -1  268.67   21.00
  -4  -9   1  284.87   21.00
   4  -9  -1  310.87   24.10
   4  -9  -1  280.27   21.70
   4  -9  -1  267.07   25.80
   4   9  -1  287.57   21.30
  -4   9   1  277.17   22.20
   4   9  -1  280.67   21.50
  -4   9   1  295.07   22.10
  -4   9   1  277.47   20.70
  -3  -9   1  288.87   23.60
   3  -9  -1  309.07   25.90
   3  -9  -1  285.27   23.80
  -3   9   1  337.27   24.80
  -3   9   1  332.37   25.70
  -3   9   1  339.17   24.50
   3   9  -1  311.57   24.20
  -3   9   1  336.47   23.60
  -3   9   1  335.37   24.50
  -3   9   1  312.57   23.50
   3   9  -1  307.87   23.80
   2  -9  -1  108.99   16.40
   2  -9  -1  127.19   12.80
   2  -9  -1  106.59   11.90
  -2   9   1  139.19   12.90
  -2   9   1  126.59   11.20
  -2   9   1  125.09   10.90
  -2   9   1  117.29   12.30
   2   9  -1  117.79   12.30
  -2   9   1  120.99   13.30
   2   9  -1  133.89   11.70
   1  -9  -1 1538.65  106.79
   1  -9  -1 1583.04  107.69
  -1   9   1 1599.94  107.09
   1   9  -1 1601.24  106.49
  -1   9   1 1593.74  106.49
   1   9  -1 1530.55  107.49
  -1   9   1 1518.55  107.49
  -1   9   1 1664.43  107.59
   1   9  -1 1577.24  106.99
  -1   9   1 1590.04  107.19
  -1   9   1 1656.93  107.29
   0  -9  -1 1617.44  108.39
   0   9   1 1626.24  108.09
   0   9  -1 1577.64  107.99
   0   9   1 1652.63  107.59
   0   9  -1 1652.83  108.49
   0   9   1 1487.75  108.29
   0   9   1 1653.33  108.39
   0   9  -1 1549.45  107.49
   0   9   1 1604.44  108.09
  -1  -9  -1  760.32   57.79
   1  -9   1  862.41   60.99
  -1  -9  -1  791.42   59.09
   1  -9   1  725.93   58.09
   1   9   1  963.30   59.29
  -1   9  -1  895.91   59.09
  -1   9  -1  864.61   58.29
   1   9   1  902.11   57.89
   1   9   1  865.41   58.29
  -1   9  -1  870.21   58.89
   2  -9   1  103.69   14.60
  -2  -9  -1  104.29   10.40
   2  -9   1  109.79   10.40
   2   9   1  118.39   11.90
   2   9   1  106.99   10.70
  -2   9  -1  121.39   10.20
  -2   9  -1  109.89   12.00
  -2   9  -1  129.09   14.80
  -2   9  -1  120.09   11.70
  -2   9  -1  118.79   12.20
  -2   9  -1  114.99   11.70
   2   9   1  127.69   11.20
  -3   9  -1  178.38   14.70
  -3   9  -1  174.18   14.80
  -3   9  -1  183.58   17.60
   3   9   1  173.08   15.70
  -3   9  -1  187.38   16.80
   3   9   1  188.58   16.00
  -3   9  -1  193.28   16.00
   3   9   1  204.68   15.20
   4  -9   1  463.15   34.10
  -4  -9  -1  431.26   33.60
   4  -9   1  464.25   31.40
  -4  -9  -1  444.36   31.40
   4  -9   1  477.95   31.40
   4  -9   1  458.55   31.30
  -4  -9  -1  489.55   31.40
  -4   9  -1  423.86   31.90
   4   9   1  387.36   31.40
  -4   9  -1  393.96   32.00
   4   9   1  432.06   31.00
   4 -10  -1  303.47   23.30
  -4 -10   1  296.27   23.70
   4 -10  -1  278.97   32.40
   4 -10  -1  290.57   23.70
  -4 -10   1  288.17   23.10
   4 -10  -1  301.07   23.50
  -4  10   1  373.06   24.70
   4  10  -1  378.36   24.00
  -4  10   1  360.86   23.40
   4  10  -1  355.06   23.10
  -3 -10   1  419.56   30.80
   3 -10  -1  435.16   31.50
   3 -10  -1  447.16   34.10
   3 -10  -1  472.35   32.20
   3  10  -1  410.16   31.60
  -3  10   1  465.25   34.10
   3  10  -1  427.46   32.00
  -3  10   1  423.66   31.70
  -3  10   1  470.85   32.50
  -3  10   1  454.75   35.20
  -3  10   1  425.86   31.30
   2 -10  -1 1381.56   89.89
   2 -10  -1 1409.56   89.89
   2 -10  -1 1427.06   88.79
  -2  10   1 1300.97   89.09
   2  10  -1 1213.78   89.49
  -2  10   1 1299.47   89.29
  -2  10   1 1267.77   88.29
  -2  10   1 1260.97   88.79
  -2  10   1 1242.08   89.29
   2  10  -1 1279.77   88.69
   1 -10  -1  291.67   20.60
  -1 -10   1  292.27   21.60
   1  10  -1  256.57   20.50
  -1  10   1  262.17   19.80
  -1  10   1  276.27   20.90
   1  10  -1  275.87   19.90
   1  10  -1  265.37   21.00
  -1  10   1  276.97   20.60
  -1  10   1  285.57   21.70
  -1  10   1  249.68   20.70
  -1  10   1  257.37   21.40
   0 -10   1   18.30    6.60
   0 -10  -1   29.00    7.00
   0  10   1   27.80    5.30
   0  10  -1   19.90    5.00
   0  10  -1   22.10    4.00
   0  10   1   16.70    3.90
   0  10   1   21.00    5.20
   0  10  -1   13.50    5.40
   0  10   1   20.30    4.90
  -1  10  -1  627.64   42.90
  -1  10  -1  611.14   44.20
   1  10   1  617.14   43.40
   1  10   1  639.24   43.10
   1  10   1  608.44   43.90
  -1  10  -1  615.84   43.50
  -1  10  -1  646.34   43.70
   2 -10   1  729.23   45.00
   2 -10   1  750.02   45.80
  -2  10  -1  721.03   48.60
  -2  10  -1  599.04   45.00
   2  10   1  610.94   44.50
   2  10   1  608.44   44.40
  -2  10  -1  576.04   44.10
  -2  10  -1  614.34   45.30
  -2  10  -1  631.84   44.80
   2  10   1  597.54   45.10
  -2  10  -1  634.34   45.10
   3 -10   1  933.91   71.89
   3 -10   1 1058.39   72.19
   3 -10   1 1085.69   71.09
   3 -10   1 1083.19   71.49
  -3 -10  -1 1061.09   72.09
  -3  10  -1  936.41   76.29
  -3  10  -1 1113.89   71.69
   3  10   1 1113.49   71.29
  -3  10  -1 1056.59   71.69
  -3  10  -1 1058.59   71.29
  -3  10  -1  989.90   70.79
   3  10   1 1028.10   71.59
   4 -10   1  168.68   13.70
   4 -10   1  174.58   13.40
  -4 -10  -1  190.28   22.00
  -4 -10  -1  170.38   13.40
   4 -10   1  177.58   29.80
  -4 -10  -1  169.78   13.40
   4 -10   1  165.58   13.00
  -4  10  -1  151.08   14.50
  -4  10  -1  160.58   14.00
   4  10   1  157.48   13.60
   4 -11  -1  442.66   29.60
   4 -11  -1  448.46   29.50
  -4 -11   1  406.36   30.20
   4 -11  -1  428.86   29.80
  -4  11   1  425.36   30.10
   4  11  -1  379.46   29.40
   3 -11  -1   65.69    8.60
   3 -11  -1   70.29   11.60
   3 -11  -1   65.29    9.10
   3 -11  -1   53.59    8.20
   3  11  -1   62.59    7.80
  -3  11   1   64.29    7.20
  -3  11   1   74.79    9.20
   3  11  -1   65.19   11.70
  -3  11   1   68.69    8.40
  -3  11   1   49.00    8.20
   2 -11  -1  204.48   17.60
   2 -11  -1  204.38   16.40
   2 -11  -1  203.48   16.70
   2  11  -1  182.48   16.10
  -2  11   1  192.08   15.70
  -2  11   1  183.38   14.90
   2  11  -1  183.88   15.10
  -2  11   1  215.08   16.20
  -2  11   1  192.58   16.10
  -2  11   1  197.98   19.10
   1 -11  -1  950.30   65.69
   1 -11  -1  811.82   63.09
   1 -11  -1  827.52   63.19
  -1  11   1  941.91   62.69
  -1  11   1  930.41   62.59
  -1  11   1  946.11   62.89
  -1  11   1  938.51   62.89
  -1  11   1  925.71   62.89
   1  11  -1  961.60   62.09
  -1  11   1  924.41   61.99
   1  11  -1  942.61   62.99
   1  11  -1  838.42   62.59
   0  11   1 1341.27   90.79
   0  11   1 1326.47   90.59
   0  11   1 1287.97   89.99
   0  11  -1 1298.37   90.59
   0  11  -1 1361.56   90.99
   0  11   1 1372.16   90.79
   0  11  -1 1363.36   90.09
   1 -11   1 1103.89   70.89
   1  11   1  967.90   67.99
  -1  11  -1  971.80   68.09
  -1  11  -1  964.30   67.49
   1  11   1 1001.60   67.99
  -1  11  -1  989.50   68.19
  -1  11  -1  992.50   68.39
   1  11   1 1010.80   67.49
   1  11   1  955.40   68.29
  -2 -11  -1   16.20    5.90
   2 -11   1   16.10    6.30
   2 -11   1   16.90    5.30
  -2 -11  -1   21.40    9.20
  -2  11  -1   18.80    3.90
   2  11   1   26.30    5.00
   2  11   1   24.20    5.40
  -2  11  -1   27.20    5.60
  -2  11  -1   27.10    5.60
   2  11   1   27.90    5.20
  -2  11  -1   17.40    4.60
   3 -11   1  194.98   19.30
   3 -11   1  202.38   15.60
   3 -11   1  179.18   16.20
  -3 -11  -1  182.38   15.40
  -3 -11  -1  198.98   16.90
   3 -11   1  194.78   15.60
  -3  11  -1  193.78   15.10
   3  11   1  205.38   17.00
  -3  11  -1  195.38   15.60
   3  11   1  203.58   15.10
  -3  11  -1  212.38   15.90
  -3  11  -1  211.28   15.00
  -3  11  -1  188.38   18.30
  -4 -11  -1  300.57   20.90
   4 -11   1  273.77   20.10
   4 -11   1  295.47   20.40
  -4 -11  -1  282.37   20.40
   4  11   1  260.57   20.30
   4 -12  -1  152.08   11.90
   3 -12  -1  658.73   45.10
   3 -12  -1  610.44   45.20
  -3 -12   1  644.54   47.00
   3 -12  -1  629.24   45.20
   3 -12  -1  657.63   46.80
  -3  12   1  646.54   44.80
   3  12  -1  715.83   45.50
  -3  12   1  661.83   44.80
   3  12  -1  710.53   44.90
  -3  12   1  616.94   44.80
   2 -12  -1  503.25   44.20
  -2  12   1  616.34   43.00
   2  12  -1  639.14   43.20
  -2  12   1  616.34   42.40
  -2  12   1  658.43   43.10
  -2  12   1  649.54   43.20
   2  12  -1  628.34   42.90
  -1  12   1  211.78   17.10
   1  12  -1  212.08   17.30
  -1  12   1  222.28   17.10
   1  12  -1  219.08   17.00
  -1  12   1  229.08   16.40
  -1  12   1  220.48   17.30
   1  12  -1  213.88   16.30
   0 -12  -1    0.00    5.70
   0 -12   1    8.30    6.90
   0  12  -1    4.00    4.40
   0  12   1    5.00    4.70
   0  12  -1    3.10    4.30
   0  12   1    8.70    4.50
   0  12   1    7.60    4.20
   0  12   1    0.10    2.90
   0  12  -1    3.00    3.30
  -1  12  -1  226.28   17.60
   1  12   1  263.77   18.00
   1  12   1  255.57   19.00
  -1  12  -1  235.28   18.60
   1  12   1  242.48   18.50
  -1  12  -1  234.48   18.90
  -2 -12  -1 1290.87   85.59
  -2 -12  -1 1153.18   84.59
   2 -12   1 1212.68   84.99
   2 -12   1 1168.38   83.79
   2  12   1 1312.47   84.19
   2  12   1 1253.97   83.49
  -2  12  -1 1269.67   84.59
  -2  12  -1 1259.97   84.39
   2  12   1 1245.28   84.39
  -3 -12  -1  618.14   41.90
   3 -12   1  611.14   41.70
   3 -12   1  560.94   41.80
   3 -12   1  607.34   41.80
   3 -12   1  592.84   43.30
  -3 -12  -1  607.14   43.30
  -3 -12  -1  603.64   42.20
  -3  12  -1  641.04   41.40
  -3  12  -1  622.94   41.90
   3  12   1  585.04   41.50
   3 -13  -1   56.29   13.10
  -3  13   1   37.20    6.30
   3  13  -1   37.30    5.30
  -3  13   1   35.80    4.70
   3  13  -1   50.39    5.70
  -2 -13   1   57.59   16.60
   2 -13  -1   78.59    9.20
   2 -13  -1   76.29    8.00
  -2  13   1  100.39    9.60
   2  13  -1   98.89    9.10
  -2  13   1  102.49    8.90
  -2  13   1   78.29    8.00
  -2  13   1   96.59    8.70
   2  13  -1  106.49    8.70
   1 -13  -1  492.15   35.00
   1 -13  -1  480.45   33.50
   1 -13  -1  487.25   35.00
   1  13  -1  513.65   34.10
  -1  13   1  436.36   34.40
  -1  13   1  470.85   33.10
   1  13  -1  453.05   33.50
   0 -13  -1 1231.98   76.39
   0 -13   1 1126.99   76.79
   0 -13  -1 1221.18   75.29
   0  13  -1 1082.99   74.99
   0  13   1 1047.50   75.39
   0  13  -1 1074.39   75.49
   0  13   1 1041.70   75.59
   0  13  -1 1074.89   75.59
   0  13   1 1091.69   74.99
  -1 -13  -1  329.87   27.30
  -1 -13  -1  349.87   25.20
   1  13   1  364.76   27.50
  -2 -13  -1  195.98   14.10
   2 -13   1  170.28   14.70
   2 -13   1  187.78   14.80
   2 -13   1  176.68   16.60
   2 -13   1  180.68   13.80
  -2  13  -1  165.98   13.90
  -2  13  -1  167.78   13.50
   2  13   1  163.28   13.70
  -3 -13  -1   49.90    8.20
   3 -13   1   62.69    6.80
   3 -13   1   63.19    7.10
  -3 -13  -1   53.99    8.60
  -3  13  -1   72.79    6.10
   3  13   1   54.59    6.10
   3  13   1   77.39    5.90
   2 -14  -1  508.25   36.00
   2 -14  -1  523.95   35.40
  -2  14   1  516.75   34.10
   2  14  -1  450.75   34.20
  -2  14   1  488.85   34.30
  -2  14   1  515.05   34.60
   2  14  -1  485.95   34.90
   1 -14  -1  235.78   21.90
   1 -14  -1  262.17   20.40
  -1  14   1  288.67   19.40
  -1  14   1  275.47   19.60
   1  14  -1  283.07   19.90
   1  14  -1  267.17   19.40
  -1  14   1  267.07   19.70
   1  14  -1  276.07   19.20
   0 -14  -1   22.00    9.30
   0 -14  -1   14.90    6.60
   0  14   1   15.70    3.50
   0  14   1   24.80    4.70
   0  14  -1   13.20    3.40
   0  14  -1   23.00    3.90
   0  14  -1   14.90    4.30
   0  14   1   19.10    3.50
  -1 -14  -1  584.24   42.40
   1 -14   1  543.55   41.40
   1  14   1  584.04   40.30
  -1  14  -1  607.54   39.90
   1  14   1  605.74   40.30
   1  14   1  595.54   39.80
  -1  14  -1  554.14   40.10
  -1  14  -1  582.74   40.30
  -2 -14  -1  546.25   34.30
   2 -14   1  466.35   34.80
   2 -14   1  505.35   34.70
   2  14   1  473.65   33.90
  -2  14  -1  470.75   33.70
   2  14   1  480.95   33.70
  -2  14  -1  490.25   33.40
  -2  14  -1  479.15   33.70
   2 -15  -1   24.70    4.80
   2 -15  -1   29.10    6.00
  -2  15   1   29.90    3.70
   2  15  -1   24.40    4.00
   2  15  -1   22.80    3.90
  -2  15   1   39.30    5.30
   1 -15  -1  496.75   33.40
   1 -15  -1  503.75   33.20
   1  15  -1  494.95   33.00
  -1  15   1  455.75   32.50
   1  15  -1  460.85   32.80
   1  15  -1  486.35   33.10
  -1  15   1  463.65   32.80
  -1  15   1  454.85   32.80
   0  15   1  359.66   24.40
   0  15   1  383.06   24.00
   0  15  -1  323.37   24.10
   0  15  -1  310.97   23.80
   0  15   1  362.06   24.40
   0  15  -1  330.57   24.30
  -1  15  -1  516.45   34.80
  -1  15  -1  504.15   35.10
  -1  15  -1  503.35   35.10
   1  15   1  458.15   35.20
   1  15   1  556.14   35.30
   1  15   1  531.55   34.80
   2 -15   1   22.30    5.80
  -2  15  -1   36.60    5.00
  -2  15  -1   31.50    5.50
   0  16   1    6.30    5.30
   0  16  -1    7.30    2.40
   0  16   1    7.10    1.80
   0  16  -1    2.30    3.20
   0  16  -1    9.30    2.40
   0  16   1    8.90    3.20
  -6   0   2  119.49   13.00
   6   0  -2  112.39   10.10
  -6   0   2  123.99   12.60
  -5   0   2  728.53   49.00
  -5   0   2  665.63   50.69
   5   0  -2  739.93   49.80
  -4   0   2  844.92   62.09
  -4   0   2  888.91   62.09
   4   0  -2  900.01   61.49
   4   0  -2  903.61   60.99
  -4   0   2  890.31   59.99
  -4   0   2  888.91   60.39
  -4   0   2  845.02   64.89
   3   0  -2  158.88   13.30
  -3   0   2  153.38   12.70
  -3   0   2  161.98   12.00
   3   0  -2  153.88   12.10
  -3   0   2  152.18   12.90
   3   0  -2  169.08   23.50
  -3   0   2  123.49   29.30
   3   0  -2  138.99   14.00
  -3   0   2  156.78   13.30
   2   0  -2  233.98   16.10
   2   0  -2  219.88   21.70
  -2   0   2  231.78   16.30
  -2   0   2  209.38   19.20
  -1   0   2 2088.49  133.59
   1   0  -2 1997.30  133.49
  -1   0   2 1956.90  133.59
   1   0  -2 1984.90  135.09
  -1   0   2 1915.01  134.99
   1   0  -2 2108.29  133.59
  -1   0   2 1959.40  134.99
   0   0   2 3810.22  258.67
   0   0   2 3942.11  261.47
   0   0  -2 4080.69  259.07
   0   0  -2 3730.03  260.07
   0   0   2 3849.42  260.07
   1   0   2  216.68   17.00
   1   0   2  222.58   15.30
  -1   0  -2  203.98   15.50
  -1   0  -2  218.28   17.00
   1   0   2  202.88   15.10
  -1   0  -2  226.48   15.20
  -2   0  -2  249.78   21.70
  -2   0  -2  239.28   17.40
   2   0   2  237.38   17.50
   2   0   2  237.98   21.60
   2   0   2  239.88   17.50
  -2   0  -2  236.28   17.70
   3   0   2   42.40    7.80
   3   0   2   45.40    8.90
  -3   0  -2   50.59    6.50
   3   0   2   40.40   18.60
  -3   0  -2   56.49    6.60
   3   0   2   51.29    6.60
  -3   0  -2   52.79    9.90
   3   0   2   53.29    7.50
   3   0   2   54.79    6.40
  -3   0  -2   49.70   10.80
  -3   0  -2   52.69   20.70
  -3   0  -2   45.40    6.70
  -4   0  -2  795.12   57.19
  -4   0  -2  726.83   57.29
  -4   0  -2  821.32   55.39
  -4   0  -2  875.31   56.19
  -4   0  -2  797.02   56.29
  -4   0  -2  793.12   54.79
   4   0   2  770.22   56.59
   4   0   2  785.82   55.19
  -5   0  -2  533.95   41.40
   5   0   2  592.44   40.60
  -5   0  -2  574.04   42.70
  -5   0  -2  620.44   41.00
   6  -1  -2   62.09    8.70
  -6  -1   2   67.69    8.30
  -6   1   2   63.49    8.00
   6   1  -2   66.39    8.90
  -6   1   2   67.39    9.00
   6   1  -2   87.19   11.40
  -5  -1   2   30.30    5.60
   5  -1  -2   22.20    6.00
  -5  -1   2   45.00   12.20
  -5  -1   2   24.80    6.50
   5  -1  -2   44.00   11.20
   5   1  -2   22.40    6.10
  -5   1   2   20.70   11.70
  -4  -1   2  520.95   40.20
  -4  -1   2  503.25   39.60
  -4  -1   2  476.55   37.80
   4  -1  -2  490.45   38.50
   4  -1  -2  501.45   38.60
  -4  -1   2  498.45   38.00
   4  -1  -2  503.55   39.10
   4   1  -2  605.54   39.50
  -4   1   2  603.04   40.20
  -4   1   2  542.35   39.70
  -4   1   2  555.84   43.00
  -4   1   2  591.14   37.80
   4   1  -2  606.14   38.90
  -4   1   2  605.64   38.40
   3  -1  -2 1883.91  127.29
  -3  -1   2 1889.21  127.29
   3  -1  -2 2024.00  128.09
   3  -1  -2 1877.91  127.99
  -3  -1   2 2109.59  128.49
  -3  -1   2 1996.50  127.99
   3  -1  -2 1797.22  128.19
  -3  -1   2 1943.71  127.89
   3  -1  -2 1950.10  135.69
  -3   1   2 1837.02  136.09
  -3   1   2 1889.71  127.79
  -3   1   2 1921.81  127.89
  -3   1   2 1966.70  128.39
  -3   1   2 1864.71  127.29
   3   1  -2 1812.52  128.29
   3   1  -2 1810.32  127.89
  -3   1   2 1725.23  129.89
   3   1  -2 1922.21  127.09
   2  -1  -2 2358.86  168.98
   2  -1  -2 2288.97  166.08
  -2  -1   2 2323.57  168.28
   2  -1  -2 2313.87  165.88
  -2  -1   2 2416.46  166.08
  -2   1   2 2717.73  169.58
  -2   1   2 2592.94  167.08
   2   1  -2 2691.53  168.88
   2   1  -2 2664.93  165.68
   1  -1  -2  927.41   65.09
  -1  -1   2  935.51   64.29
  -1  -1   2  918.61   64.39
  -1  -1   2  916.71   63.29
  -1  -1   2  856.31   63.19
   1  -1  -2  929.51   63.59
  -1   1   2  999.10   65.19
  -1   1   2  915.91   63.29
  -1   1   2  977.70   65.19
   1   1  -2  973.40   62.69
  -1   1   2  997.40   63.29
   0   1   2  321.57   24.20
   0   1  -2  316.07   23.50
   0   1   2  308.57   24.40
   0   1   2  347.47   22.50
   1  -1   2 3298.47  221.98
   1  -1   2 3393.56  220.48
  -1  -1  -2 3437.76  222.38
   1  -1   2 3189.38  220.28
  -1  -1  -2 3327.97  220.48
   1   1   2 3293.57  220.48
   1   1   2 3257.37  222.28
   1   1   2 3242.18  220.38
  -1   1  -2 3276.77  220.18
  -1   1  -2 3375.06  221.98
  -2  -1  -2 2837.02  188.78
   2  -1   2 3074.39  189.48
  -2  -1  -2 3063.99  189.48
  -2  -1  -2 3146.99  193.18
   2   1   2 2612.14  188.68
  -2   1  -2 2780.02  189.18
  -2   1  -2 2721.03  189.28
  -2   1  -2 2760.72  192.58
  -2   1  -2 2552.54  188.68
   2   1   2 2717.43  192.58
   2   1   2 2881.61  189.78
   3  -1   2 1863.51  127.79
  -3  -1  -2 1802.32  128.09
   3  -1   2 1807.42  127.29
  -3  -1  -2 1850.51  127.19
   3  -1   2 1866.11  128.29
  -3  -1  -2 1728.33  128.39
   3  -1   2 1739.93  137.29
  -3  -1  -2 1677.63  128.99
   3  -1   2 1775.02  126.99
   3  -1   2 1801.52  127.69
  -3  -1  -2 1836.82  127.49
  -3  -1  -2 1756.12  127.69
  -3   1  -2 2093.29  129.09
  -3   1  -2 2081.89  127.59
  -3   1  -2 2048.99  127.89
   3   1   2 1938.01  127.99
  -3   1  -2 1959.50  128.99
   3   1   2 2011.00  127.89
  -3   1  -2 2067.79  128.09
  -3   1  -2 2019.10  128.09
   3   1   2 1983.00  127.19
  -3   1  -2 2055.59  127.59
  -4  -1  -2  241.38   21.20
  -4  -1  -2  237.88   21.80
  -4  -1  -2  232.58   21.80
  -4  -1  -2  235.38   23.50
  -4  -1  -2  263.07   22.00
  -4  -1  -2  274.97   20.50
   4  -1   2  230.88   19.10
  -4  -1  -2  253.47   19.40
   4  -1   2  225.48   22.90
   4  -1   2  233.08   20.00
   4   1   2  282.27   21.00
  -4   1  -2  273.97   22.40
  -4   1  -2  314.27   21.90
  -4   1  -2  304.47   23.00
  -5  -1  -2   32.10    8.80
  -5  -1  -2   25.70    5.80
   5  -1   2   19.40    5.00
  -5  -1  -2   23.70    6.80
  -5  -1  -2   26.60    5.30
  -5   1  -2   42.80   12.60
  -5   1  -2   35.60    7.10
  -5   1  -2   19.30    5.90
  -6   2   2  293.97   23.00
   6   2  -2  342.37   23.70
   5  -2  -2  528.95   39.40
  -5  -2   2  513.95   39.90
  -5  -2   2  555.14   35.00
  -5  -2   2  555.34   36.70
  -5   2   2  416.46   37.60
  -5   2   2  430.76   34.30
  -5   2   2  459.95   35.30
  -4  -2   2  741.13   50.89
   4  -2  -2  734.43   51.59
  -4  -2   2  737.43   52.29
  -4  -2   2  762.02   50.39
   4  -2  -2  751.52   51.89
   4  -2  -2  769.92   51.29
  -4  -2   2  743.93   54.59
  -4   2   2  680.93   50.79
   4   2  -2  744.73   51.79
  -4   2   2  713.83   54.19
  -4   2   2  756.42   52.59
  -4   2   2  690.93   52.09
  -4   2   2  725.03   50.59
  -4   2   2  729.33   50.59
   4   2  -2  727.33   51.29
   3  -2  -2  233.98   18.30
  -3  -2   2  223.48   20.00
  -3  -2   2  222.08   18.60
   3  -2  -2  232.78   19.60
  -3  -2   2  243.78   17.60
   3  -2  -2  210.78   20.50
   3  -2  -2  216.48   19.10
   3  -2  -2  223.18   32.50
   3  -2  -2  215.28   17.80
  -3  -2   2  237.18   17.90
   3  -2  -2  224.18   18.70
  -3   2   2  266.67   33.70
   3   2  -2  267.97   19.00
  -3   2   2  243.08   19.00
  -3   2   2  246.88   18.30
  -3   2   2  257.77   42.30
  -3   2   2  245.08   18.50
  -3   2   2  255.67   18.30
  -3   2   2  261.17   20.30
  -3   2   2  264.17   17.60
  -3   2   2  248.68   22.90
   3   2  -2  258.57   19.30
  -2  -2   2  291.67   24.00
   2  -2  -2  302.97   21.60
  -2  -2   2  323.27   21.70
   2  -2  -2  317.27   21.70
   2  -2  -2  313.47   22.00
   2  -2  -2  300.27   25.70
  -2  -2   2  295.17   21.80
  -2   2   2  313.87   26.10
  -2   2   2  304.27   21.70
  -2   2   2  303.57   21.80
  -2   2   2  291.17   25.80
   2   2  -2  301.57   27.60
  -1  -2   2 2298.87  145.09
  -1  -2   2 2253.77  146.29
   1  -2  -2 2206.38  145.49
   1  -2  -2 2191.38  147.69
  -1  -2   2 2297.87  146.39
   1  -2  -2 2379.86  146.89
   1   2  -2 2140.19  146.29
  -1   2   2 1999.60  145.49
  -1   2   2 2091.89  147.49
  -1   2   2 2049.99  147.39
  -1   2   2 2059.39  145.39
   0  -2   2 3126.19  201.18
   0  -2  -2 2770.32  201.58
   0  -2  -2 3012.70  201.58
   0  -2  -2 2931.51  203.68
   0   2   2 3160.08  203.78
   0   2   2 3175.68  201.58
   0   2   2 3090.39  204.08
   0   2  -2 2915.01  202.28
  -1  -2  -2 2447.16  169.38
   1  -2   2 2408.56  169.08
   1  -2   2 2475.65  169.28
  -1  -2  -2 2573.24  171.48
   1  -2   2 2521.95  170.78
   1   2   2 2569.94  171.48
  -1   2  -2 2595.64  168.88
   1   2   2 2591.74  169.28
  -1   2  -2 2658.03  170.88
  -2  -2  -2  237.38   17.70
   2  -2   2  265.07   17.80
   2  -2   2  259.77   18.00
  -2  -2  -2  237.28   23.40
   2  -2   2  259.37   22.20
  -2  -2  -2  246.48   17.90
   2  -2   2  264.17   17.80
  -2   2  -2  221.88   21.70
  -2   2  -2  226.38   17.60
   2   2   2  206.78   21.90
   3  -2   2  438.96   28.60
  -3  -2  -2  455.05   29.60
   3  -2   2  456.25   29.70
  -3  -2  -2  466.95   30.10
   3  -2   2  450.95   29.20
   3  -2   2  441.76   30.00
  -3  -2  -2  444.86   28.70
  -3  -2  -2  389.06   33.00
   3  -2   2  443.96   29.60
  -3  -2  -2  419.96   30.90
  -3  -2  -2  462.55   29.50
  -3   2  -2  354.06   29.30
   3   2   2  365.46   29.50
  -3   2  -2  349.87   29.90
  -3   2  -2  350.66   30.40
   3   2   2  344.87   28.90
  -3   2  -2  338.57   28.90
  -4  -2  -2  843.22   55.99
  -4  -2  -2  868.11   56.79
  -4  -2  -2  778.72   58.19
   4  -2   2  792.42   55.89
   4  -2   2  787.42   55.19
  -4  -2  -2  833.92   55.69
   4  -2   2  709.13   58.29
   4  -2   2  807.32   55.29
  -4  -2  -2  766.62   57.29
   4   2   2  862.41   56.19
  -4   2  -2  822.52   56.19
  -4   2  -2  749.82   56.49
  -4   2  -2  833.52   57.99
  -4   2  -2  829.92   57.19
   5  -2   2  601.54   40.90
  -5  -2  -2  528.75   40.00
  -5  -2  -2  597.24   48.10
  -5  -2  -2  559.34   40.60
  -5   2  -2  583.44   41.00
   5   2   2  592.84   41.10
  -5   2  -2  566.34   41.80
  -5   2  -2  633.84   45.00
  -5  -3   2   33.10    8.50
  -5  -3   2   23.60    5.30
  -5  -3   2   30.60    8.50
   5  -3  -2   19.50    6.70
   5  -3  -2   25.90    6.50
  -5   3   2   15.60    6.80
   5   3  -2   13.90    4.40
  -5   3   2   20.20    7.90
  -5   3   2    9.90    5.10
  -4  -3   2  643.34   47.20
  -4  -3   2  671.33   46.20
   4  -3  -2  635.54   45.00
  -4  -3   2  628.04   45.10
   4  -3  -2  636.34   46.50
   4  -3  -2  661.93   46.30
  -4  -3   2  642.94   48.30
  -4  -3   2  661.53   45.70
  -4   3   2  621.44   44.90
  -4   3   2  661.83   47.20
  -4   3   2  639.84   44.90
  -4   3   2  681.63   45.80
  -4   3   2  664.23   48.40
   4   3  -2  689.93   46.20
   4   3  -2  665.23   46.50
  -4   3   2  641.04   49.20
   3  -3  -2 1456.05  105.99
   3  -3  -2 1541.95  106.39
   3  -3  -2 1381.66  107.29
   3  -3  -2 1430.66  116.29
  -3  -3   2 1508.35  106.49
   3  -3  -2 1458.85  106.79
  -3  -3   2 1513.85  107.19
  -3  -3   2 1453.25  106.69
  -3  -3   2 1412.56  105.89
   3  -3  -2 1522.25  106.89
   3  -3  -2 1370.56  106.89
  -3   3   2 1734.33  106.29
  -3   3   2 1676.73  117.79
  -3   3   2 1642.04  106.39
  -3   3   2 1690.03  106.79
   3   3  -2 1727.23  107.29
  -3   3   2 1678.83  105.89
  -3   3   2 1630.94  108.59
  -3   3   2 1804.12  107.29
  -3   3   2 1805.12  108.09
   3   3  -2 1728.43  106.89
  -2  -3   2  931.91   59.89
   2  -3  -2  961.40   60.39
   2  -3  -2  895.41   59.79
  -2  -3   2  979.60   60.49
  -2  -3   2  954.90   64.19
  -2   3   2  870.11   64.49
   2   3  -2  801.22   61.89
  -2   3   2  810.62   64.19
  -2   3   2  847.52   60.19
  -2   3   2  803.32   60.39
   1  -3  -2  870.21   61.29
  -1  -3   2  937.61   61.59
   1  -3  -2  882.51   63.59
   1  -3  -2  923.71   61.19
  -1  -3   2  937.11   61.29
   1   3  -2  899.01   61.39
  -1   3   2  890.51   61.19
  -1   3   2  911.31   63.69
  -1   3   2  896.01   63.69
  -1   3   2  913.51   61.39
   0  -3  -2  673.13   41.50
   0  -3   2  680.13   41.30
   0  -3  -2  682.23   44.40
   0   3   2  509.25   43.90
   0   3   2  545.85   43.70
   0   3   2  582.74   41.40
   0   3   2  591.54   41.20
  -1  -3  -2  960.00   65.39
  -1  -3  -2  960.80   67.79
  -1  -3  -2  928.21   64.99
   1  -3   2  996.20   66.69
   1  -3   2 1013.60   65.19
   1   3   2  919.71   67.49
   1   3   2 1010.70   66.29
   1   3   2  948.91   64.89
  -1   3  -2  966.90   66.59
  -2  -3  -2 3061.09  203.88
  -2  -3  -2 3447.56  209.98
   2  -3   2 2919.81  202.78
  -2  -3  -2 2886.51  203.18
   2  -3   2 3031.40  207.18
   2  -3   2 3155.48  203.78
  -2  -3  -2 2911.01  202.78
   2  -3   2 2961.50  203.18
   2   3   2 3084.69  207.58
  -2   3  -2 2922.41  203.08
  -2   3  -2 3102.49  207.18
   3  -3   2  753.52   50.99
   3  -3   2  732.73   50.49
  -3  -3  -2  732.33   50.09
  -3  -3  -2  750.92   49.60
  -3  -3  -2  758.62   50.39
  -3  -3  -2  744.53   51.09
   3  -3   2  739.13   49.50
   3  -3   2  754.82   49.90
   3  -3   2  739.83   50.29
  -3   3  -2  732.43   50.09
   3   3   2  704.03   49.40
  -3   3  -2  693.43   50.89
  -3   3  -2  683.23   49.80
  -3   3  -2  721.93   51.39
  -3   3  -2  683.53   51.49
   3   3   2  705.93   50.49
  -3   3  -2  715.83   50.19
  -4  -3  -2  198.48   21.50
   4  -3   2  203.08   16.30
   4  -3   2  192.48   16.90
   4  -3   2  183.48   24.30
  -4  -3  -2  220.88   16.80
  -4  -3  -2  220.98   16.50
  -4  -3  -2  231.68   17.50
   4  -3   2  203.68   20.50
  -4  -3  -2  219.98   19.00
   4  -3   2  218.48   17.30
  -4   3  -2  257.47   19.10
  -5  -3  -2   66.29    7.20
   5  -3   2   61.09    8.00
  -5  -3  -2   61.29    6.80
  -5  -3  -2   68.79   10.60
  -5   3  -2   96.69   12.90
  -5   3  -2   78.69   11.00
   5   3   2   71.09    8.20
   5   3   2   62.59    7.60
  -5   3  -2   76.89    8.60
  -5  -4   2  954.30   66.19
  -5  -4   2 1006.80   66.09
   5  -4  -2 1030.50   67.69
  -5   4   2  911.41   68.09
   5   4  -2  919.41   66.69
  -5   4   2  999.40   68.99
   4  -4  -2  277.47   21.60
   4  -4  -2  269.17   25.60
  -4  -4   2  284.97   22.20
  -4  -4   2  275.27   21.50
   4  -4  -2  267.57   23.50
   4  -4  -2  298.97   22.70
  -4  -4   2  275.87   25.00
  -4  -4   2  283.77   20.90
   4  -4  -2  264.07   21.70
  -4   4   2  275.27   24.40
  -4   4   2  291.07   24.80
  -4   4   2  268.57   22.20
  -4   4   2  308.27   22.20
   4   4  -2  295.07   22.60
  -4   4   2  305.67   23.40
   4   4  -2  323.87   22.50
   3  -4  -2  133.39   11.20
  -3  -4   2  131.49   17.90
  -3  -4   2  126.19   10.40
   3  -4  -2  133.89   12.00
   3  -4  -2  128.79   10.50
   3  -4  -2  132.29   12.70
  -3  -4   2  126.79   10.30
  -3  -4   2  125.59   12.70
   3  -4  -2  127.19   12.70
   3  -4  -2  104.39   13.00
   3   4  -2  101.29   11.70
  -3   4   2  108.79   10.60
  -3   4   2  104.69   10.80
   3   4  -2  116.29   12.10
  -3   4   2  110.49   13.20
  -3   4   2  104.89   10.90
  -3   4   2   95.39   15.80
   2  -4  -2  283.87   20.70
   2  -4  -2  286.17   20.30
  -2  -4   2  303.97   21.60
   2  -4  -2  329.87   22.80
   2  -4  -2  295.87   26.80
  -2  -4   2  326.97   23.00
  -2   4   2  235.28   20.80
  -2   4   2  251.27   25.90
   2   4  -2  272.97   22.70
  -2   4   2  250.27   26.10
  -2   4   2  253.27   20.10
   1  -4  -2 1426.56   97.99
  -1  -4   2 1347.77   97.59
  -1  -4   2 1414.96   97.39
   1  -4  -2 1398.16  100.79
  -1   4   2 1579.84   97.79
  -1   4   2 1578.74  101.39
   0  -4   2 2996.80  226.28
   0  -4  -2 3318.77  229.48
   0  -4  -2 3061.09  226.68
   0  -4  -2 3208.08  226.68
   0   4   2 3651.13  234.98
   0   4   2 3800.22  226.38
   0   4   2 3765.32  229.68
   1  -4   2 3191.28  209.88
  -1  -4  -2 3133.69  213.08
   1  -4   2 2994.10  209.48
  -1  -4  -2 2948.70  210.08
   1   4   2 3221.18  209.28
   1   4   2 3158.18  212.88
   1   4   2 3306.87  213.38
  -1   4  -2 3217.88  211.38
   2  -4   2   91.89    9.00
   2  -4   2  101.89   16.80
   2  -4   2   95.89    8.90
   2  -4   2   95.09    9.20
  -2  -4  -2  105.29   19.20
  -2  -4  -2  104.69   13.80
  -2  -4  -2  101.79    8.90
  -2  -4  -2   92.69    8.90
  -2   4  -2  126.99   10.30
  -2   4  -2  121.59   11.90
  -2   4  -2  120.89   11.90
   2   4   2  132.79   11.70
   2   4   2   94.69    9.40
   2   4   2  122.79   16.00
   3  -4   2  566.74   41.20
  -3  -4  -2  568.84   40.60
  -3  -4  -2  594.04   41.40
   3  -4   2  564.94   41.40
   3  -4   2  571.24   41.40
  -3  -4  -2  565.64   42.60
  -3  -4  -2  603.54   41.40
   3  -4   2  585.74   42.20
  -3   4  -2  652.43   41.50
   3   4   2  663.23   43.30
  -3   4  -2  646.74   40.60
  -3   4  -2  510.65   43.00
  -4  -4  -2  889.51   57.99
   4  -4   2  774.92   58.99
   4  -4   2  788.42   57.29
  -4  -4  -2  741.23   60.99
  -4  -4  -2  842.32   57.69
   4  -4   2  832.22   57.89
   4  -4   2  772.62   60.19
  -4  -4  -2  822.42   58.89
  -4   4  -2  854.21   58.29
  -4   4  -2  908.81   59.69
   4   4   2  899.11   58.39
  -4   4  -2  923.61   59.79
  -5  -4  -2  516.05   34.30
   5  -4   2  538.85   34.90
  -5  -4  -2  508.75   34.80
  -5  -4  -2  490.25   34.70
  -5   4  -2  497.35   36.30
  -5   4  -2  453.15   34.90
   5   4   2  447.86   34.80
  -5   4  -2  487.65   35.90
   5   4   2  497.25   34.60
  -5  -5   2   16.90    7.80
   5  -5  -2   33.00    5.80
  -5  -5   2   26.90    5.20
  -5  -5   2   17.20    4.40
   5   5  -2   24.90    5.20
   5   5  -2   32.80    6.60
  -5   5   2   21.50    6.40
  -5   5   2   34.10    8.50
  -5   5   2   20.90    7.30
   4  -5  -2  300.87   33.50
  -4  -5   2  369.06   25.90
   4  -5  -2  359.46   26.00
  -4  -5   2  350.96   25.80
   4  -5  -2  349.47   26.80
  -4  -5   2  356.86   26.50
   4  -5  -2  357.76   29.70
   4  -5  -2  339.97   28.30
  -3  -5   2 1096.09   69.19
   3  -5  -2  988.10   70.09
   3  -5  -2  928.61   69.19
   3  -5  -2 1050.29   70.09
  -3  -5   2 1011.50   68.49
   3  -5  -2 1083.19   70.29
  -3   5   2  981.40   68.99
  -3   5   2 1032.80   70.49
   3   5  -2 1058.39   70.99
  -3   5   2  918.01   69.19
  -3   5   2  985.00   69.29
   3   5  -2 1018.60   69.79
  -2  -5   2 3434.56  219.68
   2  -5  -2 3371.26  226.28
   2  -5  -2 2952.80  221.08
   2  -5  -2 3264.27  219.98
   2  -5  -2 3570.64  220.68
   2  -5  -2 3559.64  223.68
  -2   5   2 3219.78  220.38
  -2   5   2 3199.38  226.08
  -2   5   2 2980.90  221.18
   2   5  -2 3402.96  221.28
   2   5  -2 3206.98  220.58
  -2   5   2 3471.45  226.48
  -2   5   2 3194.18  219.98
  -2   5   2 3311.77  220.08
  -1   5   2  416.06   29.10
  -1   5   2  439.46   29.40
  -1   5   2  444.16   33.50
  -1   5   2  412.96   33.70
   0  -5  -2  592.74   43.80
   0  -5  -2  593.44   40.70
   0  -5  -2  596.24   40.90
  -1  -5  -2 1430.26  101.99
  -1  -5  -2 1525.25   97.89
  -1  -5  -2 1406.16   97.59
   1  -5   2 1409.46   97.49
   1  -5   2 1571.94   97.99
  -1  -5  -2 1449.46   98.39
   1  -5   2 1574.24   99.79
  -1   5  -2 1291.27   99.09
  -2  -5  -2 1047.90   73.19
  -2  -5  -2 1047.10   71.89
   2  -5   2 1040.70   71.99
   2  -5   2 1111.29   72.69
   2   5   2 1081.09   72.49
  -2   5  -2  999.10   72.59
  -2   5  -2 1073.09   71.99
   2   5   2 1022.90   72.59
  -2   5  -2 1108.69   73.69
  -2   5  -2 1111.39   72.19
  -2   5  -2 1037.90   71.59
   3  -5   2 1405.26  100.69
  -3  -5  -2 1492.35   99.59
   3  -5   2 1515.35  100.09
  -3  -5  -2 1460.75   99.09
   3  -5   2 1485.75   99.19
  -3  -5  -2 1400.46  101.29
   3  -5   2 1508.75   99.69
   3   5   2 1617.04  100.09
   3   5   2 1484.65  100.29
  -3   5  -2 1314.67   99.79
  -3   5  -2 1407.66  100.19
  -3   5  -2 1509.85  101.29
  -3   5  -2 1447.16   99.49
  -3   5  -2 1560.74   99.89
  -3   5  -2 1481.95  100.89
  -4  -5  -2  162.88   14.20
   4  -5   2  164.08   14.60
  -4  -5  -2  166.08   13.50
   4  -5   2  161.48   13.20
  -4  -5  -2  163.68   16.30
  -4  -5  -2  177.98   15.20
  -4  -5  -2  131.59   24.20
   4  -5   2  157.98   20.70
   4  -5   2  170.48   17.70
  -5   5  -2    2.50    5.20
  -5   5  -2    2.30    4.90
   5   5   2    5.20    3.40
   5   5   2    1.10    4.70
  -5  -6   2  447.46   31.30
   5  -6  -2  429.86   32.00
  -5  -6   2  406.46   32.80
  -5  -6   2  409.06   31.00
   5   6  -2  454.45   31.90
  -5   6   2  496.45   33.60
  -5   6   2  448.16   32.00
  -5   6   2  442.76   31.20
  -4  -6   2  732.93   51.39
   4  -6  -2  638.44   52.29
   4  -6  -2  680.93   53.39
   4  -6  -2  660.53   53.29
   4  -6  -2  695.13   50.49
  -4  -6   2  685.13   50.19
   4  -6  -2  687.63   49.80
  -4  -6   2  720.33   50.49
   4   6  -2  804.12   50.59
  -4   6   2  785.22   52.49
  -4   6   2  758.42   51.39
   4   6  -2  748.63   50.79
  -4   6   2  724.23   49.80
  -3  -6   2   18.50    4.10
   3  -6  -2   11.60    4.70
   3  -6  -2   20.60   13.10
   3  -6  -2   16.20    6.40
   3  -6  -2    9.10    5.30
   3  -6  -2   22.10    6.40
   3   6  -2   28.00    6.40
  -3   6   2   21.00    6.40
  -3   6   2   22.00    5.20
   3   6  -2   38.00    9.40
  -3   6   2   19.70    6.40
  -3   6   2   20.30    5.70
   3   6  -2   25.60    6.60
   2   6  -2  320.87   25.20
   2   6  -2  318.17   25.50
  -2   6   2  325.17   25.00
   2   6  -2  302.27   23.60
  -2   6   2  304.17   23.00
  -2   6   2  316.97   22.50
  -2   6   2  291.77   23.20
  -2   6   2  294.27   24.30
  -2   6   2  301.97   25.20
  -2   6   2  321.67   21.80
   2   6  -2  322.37   23.70
  -2   6   2  302.07   23.40
   1  -6  -2 1451.45  106.49
   1  -6  -2 1454.15  101.99
   1  -6  -2 1605.34  101.99
   1  -6  -2 1372.26  101.39
  -1   6   2 1616.34  105.99
  -1   6   2 1565.04  106.99
   0  -6  -2 2060.89  141.49
   0  -6  -2 2067.19  141.09
   0  -6  -2 2112.29  141.19
   0  -6  -2 2202.18  145.39
   0   6   2 2094.79  146.09
  -1  -6  -2  353.06   25.60
   1  -6   2  365.16   25.60
  -1  -6  -2  353.56   26.40
   1  -6   2  367.16   27.80
  -1  -6  -2  365.66   25.50
   1  -6   2  356.76   25.10
   2  -6   2   46.40    6.70
   2  -6   2   65.39   10.70
   2  -6   2   54.99   11.70
   2  -6   2   49.70    6.80
  -2  -6  -2   74.09    6.80
  -2   6  -2   76.79   10.10
  -2   6  -2   64.49   11.10
   2   6   2   51.69    9.40
  -2   6  -2   65.09    8.30
   2   6   2   44.30    8.90
  -2   6  -2   68.49    7.50
  -2   6  -2   58.49    7.10
  -2   6  -2   76.29   12.80
  -3  -6  -2  194.58   16.20
  -3  -6  -2  173.28   21.10
   3  -6   2  173.68   15.50
  -3  -6  -2  189.68   14.90
   3  -6   2  170.38   16.10
  -3  -6  -2  179.28   15.80
   3  -6   2  181.38   14.90
   3  -6   2  170.58   18.10
  -3   6  -2  219.88   15.80
  -3   6  -2  219.88   18.10
  -3   6  -2  217.38   15.70
  -3   6  -2  223.68   16.60
   3   6   2  211.98   17.10
   3   6   2  217.58   16.90
   4  -6   2  516.15   43.90
   4  -6   2  564.64   39.00
  -4  -6  -2  572.44   40.40
   4  -6   2  557.54   41.20
  -4  -6  -2  577.14   38.90
  -4  -6  -2  541.05   39.00
   4  -6   2  549.35   38.60
  -4  -6  -2  550.44   38.90
   4  -6   2  544.15   38.30
   4   6   2  534.05   39.60
  -4   6  -2  539.05   40.20
  -4   6  -2  564.94   40.60
   4   6   2  551.24   39.60
  -5  -6  -2  641.24   46.40
  -5  -6  -2  612.54   46.50
   5  -6   2  651.53   47.80
   5   6   2  653.63   46.20
  -5   6  -2  753.82   47.50
  -5   6  -2  749.53   47.70
   5   6   2  663.13   46.00
  -5  -7   2   25.20    5.30
   5  -7  -2   17.80    5.20
  -5  -7   2   21.80    4.60
   5   7  -2    8.50    5.10
  -5   7   2   12.40    5.90
  -5   7   2   19.30    4.80
   5   7  -2   16.80    3.80
  -5   7   2   18.40    6.30
   4  -7  -2  345.77   32.60
   4  -7  -2  373.36   27.60
   4  -7  -2  338.47   29.10
  -4  -7   2  374.46   27.40
   4  -7  -2  371.06   26.60
   4  -7  -2  335.87   34.20
  -4  -7   2  329.47   25.80
  -4  -7   2  344.17   26.30
   4   7  -2  357.36   26.90
  -4   7   2  379.06   28.80
  -4   7   2  386.76   27.80
   4   7  -2  341.57   27.00
  -4   7   2  370.06   26.10
   3  -7  -2 1609.04   99.99
   3  -7  -2 1488.45   99.69
   3  -7  -2 1620.24   98.89
   3  -7  -2 1611.44  100.39
   3  -7  -2 1531.55   99.49
  -3  -7   2 1585.34   97.39
  -3  -7   2 1576.34   98.79
  -3   7   2 1268.97   98.09
  -3   7   2 1316.07   99.19
   3   7  -2 1315.67   97.79
   3   7  -2 1386.76   98.39
  -3   7   2 1356.36   97.89
  -3   7   2 1310.67   99.59
   3   7  -2 1294.37   98.59
  -2   7   2 1263.37   86.49
  -2   7   2 1361.06   87.09
   2   7  -2 1141.49   87.59
  -2   7   2 1304.67   88.39
   2   7  -2 1290.47   87.39
   2   7  -2 1336.17   86.99
  -2   7   2 1281.57   87.69
  -2   7   2 1294.87   88.29
   1  -7  -2  856.91   64.19
   1  -7  -2  889.51   64.29
   1  -7  -2  819.12   71.39
   1  -7  -2  861.11   63.79
  -1   7   2  953.70   65.19
  -1   7   2 1012.20   63.99
  -1   7   2 1010.10   64.39
  -1   7   2  986.50   64.39
   1   7  -2  975.90   64.19
  -1   7   2 1025.50   64.19
   1   7  -2  937.31   64.89
   0  -7  -2  181.58   15.50
   0  -7  -2  162.98   14.40
   0  -7  -2  173.38   14.00
   0   7   2  180.28   19.90
   0   7   2  180.98   15.20
   0   7   2  189.98   20.00
   0   7   2  185.28   15.50
   0   7  -2  194.48   14.60
  -1  -7  -2  788.72   52.69
  -1  -7  -2  813.72   51.49
   1  -7   2  769.62   54.29
  -1  -7  -2  779.52   51.09
   1  -7   2  786.52   51.19
  -1   7  -2  754.52   51.49
   1   7   2  707.13   51.89
  -1   7  -2  699.93   52.19
   1   7   2  682.53   52.79
  -1   7  -2  748.33   52.29
  -1   7  -2  726.93   51.49
  -1   7  -2  752.72   50.99
   2  -7   2 2362.66  148.99
   2  -7   2 2252.07  149.29
  -2  -7  -2 2285.17  149.09
  -2  -7  -2 2365.36  148.99
  -2  -7  -2 2402.86  154.78
   2  -7   2 2183.38  148.29
  -2  -7  -2 2307.17  148.39
  -2   7  -2 2140.29  148.29
   2   7   2 2019.40  148.99
  -2   7  -2 2088.49  148.99
  -2   7  -2 2227.78  150.38
  -2   7  -2 2148.58  148.89
  -2   7  -2 2206.28  148.79
  -2   7  -2 2052.89  149.19
  -3  -7  -2  705.53   48.10
   3  -7   2  635.34   50.39
  -3  -7  -2  669.73   48.30
   3  -7   2  692.93   47.80
   3  -7   2  702.83   47.50
  -3  -7  -2  668.03   48.20
  -3  -7  -2  571.94   52.09
  -3  -7  -2  704.13   47.30
   3  -7   2  669.83   48.00
  -3   7  -2  707.83   47.80
   3   7   2  601.84   49.60
   3   7   2  726.93   48.40
  -3   7  -2  749.33   48.30
  -3   7  -2  757.12   49.99
  -3   7  -2  738.73   49.20
  -4  -7  -2  134.19   11.60
  -4  -7  -2  120.99   11.10
   4  -7   2  132.39   13.90
  -4  -7  -2  110.19   15.10
   4  -7   2  123.89   10.80
   4  -7   2  117.99   11.80
   4  -7   2  117.59   16.20
   4   7   2  149.09   12.80
   5  -7   2   48.50    7.20
  -5  -7  -2   53.49    5.90
  -5  -7  -2   48.20    6.80
  -5   7  -2   66.49    8.00
  -5   7  -2   64.39    8.30
   5   7   2   52.39    9.70
  -5  -8   2  370.16   26.20
  -5  -8   2  348.67   25.10
   5  -8  -2  296.87   25.20
  -5   8   2  415.96   26.60
  -5   8   2  339.47   25.50
   5   8  -2  365.76   25.20
   4  -8  -2  129.69   12.90
  -4  -8   2  157.78   13.80
  -4  -8   2  132.19   16.10
   4  -8  -2  106.69   23.40
   4  -8  -2  145.99   13.60
  -4  -8   2  151.68   11.70
  -4   8   2  172.58   20.10
   3  -8  -2  286.97   23.40
   3  -8  -2  269.47   21.40
   3  -8  -2  245.08   23.80
   3  -8  -2  262.97   20.70
  -3  -8   2  266.07   20.10
  -3  -8   2  273.07   19.90
  -3   8   2  254.37   20.80
   3   8  -2  234.88   21.60
  -3   8   2  277.77   22.80
  -3   8   2  270.67   20.30
  -3   8   2  236.58   24.00
  -3   8   2  253.67   21.30
   3   8  -2  258.37   20.40
   3   8  -2  259.87   20.70
  -3   8   2  260.97   23.00
   2  -8  -2  715.73   51.79
  -2  -8   2  735.93   51.29
   2  -8  -2  753.02   53.29
   2  -8  -2  740.23   52.79
   2  -8  -2  720.63   54.09
   2   8  -2  718.83   51.69
  -2   8   2  767.32   52.39
  -2   8   2  745.53   52.09
  -2   8   2  732.23   52.79
  -2   8   2  861.71   52.89
  -2   8   2  783.12   51.69
  -2   8   2  744.53   54.49
   1  -8  -2 1660.53  115.29
   1  -8  -2 1674.63  116.19
   1  -8  -2 1611.04  114.59
   1   8  -2 1721.03  114.79
   1   8  -2 1665.23  115.39
  -1   8   2 1752.02  114.99
  -1   8   2 1676.63  115.69
   1   8  -2 1704.43  114.29
  -1   8   2 1819.62  115.19
  -1   8   2 1772.32  115.19
  -1   8   2 1708.13  114.79
  -1   8   2 1708.73  114.39
   0  -8  -2  816.82   51.29
   0  -8  -2  786.32   49.80
   0  -8  -2  814.92   50.09
   0   8   2  706.23   49.80
   0   8  -2  700.03   49.10
   0   8   2  689.23   49.90
   0   8   2  664.03   50.39
   0   8   2  682.63   49.70
   0   8  -2  684.03   49.60
   0   8  -2  685.83   50.29
   1  -8   2  617.94   43.70
  -1  -8  -2  600.44   44.40
  -1  -8  -2  645.04   44.00
  -1   8  -2  640.04   44.00
  -1   8  -2  624.24   46.20
   1   8   2  613.84   45.10
   1   8   2  642.14   44.10
  -1   8  -2  648.94   44.80
  -1   8  -2  636.34   44.10
  -1   8  -2  653.73   43.50
   1   8   2  675.33   44.40
   1   8   2  630.94   44.50
  -2  -8  -2   27.50    4.60
   2  -8   2   35.70    6.40
  -2  -8  -2   25.90    6.10
   2  -8   2   28.50    4.80
   2   8   2   28.00    6.40
   2   8   2   25.50    7.80
  -2   8  -2   31.30    5.80
  -2   8  -2   34.70    6.40
  -2   8  -2   30.20    4.40
  -2   8  -2   36.10    6.60
  -2   8  -2   23.20    7.90
  -2   8  -2   18.20    8.50
  -3  -8  -2  370.36   24.30
   3  -8   2  364.06   24.10
   3  -8   2  349.87   24.60
   3  -8   2  364.36   30.10
  -3  -8  -2  361.66   24.90
   3  -8   2  355.06   25.10
  -3   8  -2  291.77   23.80
   3   8   2  274.37   24.30
  -3   8  -2  275.47   23.60
  -3   8  -2  285.37   24.10
  -3   8  -2  306.27   26.70
  -3   8  -2  285.87   25.10
  -4  -8  -2  528.05   39.50
  -4  -8  -2  554.04   44.70
   4  -8   2  528.95   39.40
  -4  -8  -2  513.85   39.40
   4  -8   2  553.74   39.40
   4  -8   2  541.15   39.40
   4   8   2  599.84   40.00
   4   8   2  555.64   40.60
   4   8   2  653.53   39.70
  -4   8  -2  634.74   40.80
   5   8   2  303.07   21.50
  -5   8  -2  327.57   22.70
  -5   8  -2  297.57   24.40
   5   8   2  292.57   21.20
   5   9  -2    8.50    7.70
   4  -9  -2  510.95   34.40
   4  -9  -2  447.76   40.10
  -4  -9   2  542.45   34.20
  -4  -9   2  529.05   34.30
   4  -9  -2  519.25   34.40
  -4   9   2  474.95   35.70
  -4   9   2  462.05   34.00
  -4   9   2  450.45   35.00
   4   9  -2  432.26   34.30
  -3   9   2  893.01   60.19
  -3   9   2  795.92   58.19
  -3   9   2  794.42   59.59
  -3   9   2  863.91   59.09
  -3   9   2  870.51   58.59
   3   9  -2  860.71   58.49
   3   9  -2  833.92   59.19
  -3   9   2  890.41   60.49
   2  -9  -2  590.44   47.50
   2  -9  -2  550.94   45.90
   2  -9  -2  558.14   45.00
   2  -9  -2  596.74   43.90
   2  -9  -2  573.74   46.20
  -2   9   2  644.04   45.00
   2   9  -2  632.54   44.70
   2   9  -2  644.94   43.90
  -2   9   2  670.23   43.50
  -2   9   2  677.23   44.50
  -2   9   2  673.93   44.40
  -2   9   2  683.13   44.00
  -2   9   2  690.03   44.60
   1  -9  -2  201.08   19.90
   1  -9  -2  160.78   13.70
   1  -9  -2  186.78   22.50
   1  -9  -2  149.09   17.70
  -1   9   2  161.18   14.20
   1   9  -2  156.98   19.00
   1   9  -2  134.59   13.60
   1   9  -2  161.48   14.80
   0  -9  -2   90.09    8.40
   0   9   2   76.09    9.10
   0   9  -2   65.09    7.70
   0   9   2   76.09    9.30
   0   9  -2   62.09    8.90
   0   9   2   69.19    8.60
   0   9   2   73.39   11.60
   0   9  -2   64.89   10.20
   1  -9   2 1070.99   66.29
  -1  -9  -2 1061.39   66.19
  -1  -9  -2 1074.69   66.39
  -1   9  -2  981.90   66.79
   1   9   2  921.51   66.09
   1   9   2  893.61   66.39
   1   9   2  859.01   67.09
  -1   9  -2  924.91   65.59
   1   9   2  944.81   66.09
  -1   9  -2  949.21   66.19
   2  -9   2 1117.49   92.79
   2  -9   2 1147.69   92.99
  -2   9  -2 1401.36   93.09
   2   9   2 1394.16   92.39
   2   9   2 1437.06   93.19
  -2   9  -2 1505.85   95.39
  -2   9  -2 1408.36   93.29
  -2   9  -2 1421.16   92.59
   2   9   2 1398.26   93.79
   2   9   2 1354.06   93.49
  -2   9  -2 1448.66   93.49
  -2   9  -2 1449.26   93.39
   3  -9   2  469.75   33.70
  -3  -9  -2  500.35   34.10
   3  -9   2  456.85   34.40
  -3  -9  -2  475.85   35.20
  -3  -9  -2  466.05   34.20
   3  -9   2  530.25   36.60
   3  -9   2  486.65   35.20
  -3   9  -2  466.55   34.70
   3   9   2  477.75   34.00
  -3   9  -2  496.75   34.40
  -3   9  -2  482.25   36.50
   3   9   2  463.65   35.50
  -3   9  -2  472.05   33.90
  -3   9  -2  442.66   34.80
   3   9   2  478.35   35.00
   4  -9   2   68.89    7.10
  -4  -9  -2   74.99   11.70
   4  -9   2   78.59   18.40
  -4  -9  -2   76.19    7.40
   4  -9   2   68.59   10.10
  -4  -9  -2   80.49    7.60
   4  -9   2   70.09    7.60
   4   9   2   54.39    6.30
  -4   9  -2   64.49    9.30
  -4   9  -2   57.59    8.00
   4   9   2   57.09    8.00
   4 -10  -2  395.26   31.90
  -4 -10   2  391.96   29.20
   4 -10  -2  404.76   27.50
   4 -10  -2  422.76   27.80
   4 -10  -2  402.26   27.20
  -4 -10   2  415.06   27.60
  -4  10   2  345.37   27.00
  -4  10   2  372.46   27.90
   4  10  -2  345.87   27.10
  -4  10   2  326.07   28.20
  -3 -10   2   58.69   10.80
   3 -10  -2   49.70    7.80
   3 -10  -2   59.99   14.20
  -3 -10   2   48.20    8.20
  -3  10   2   74.29    7.50
   3  10  -2   70.69    8.70
   3  10  -2   79.19   10.20
  -3  10   2   66.69    9.90
   2 -10  -2  169.28   14.20
  -2  10   2  139.49   11.60
  -2  10   2  125.59   12.00
   2  10  -2  127.69   13.10
  -2  10   2  125.49   12.40
  -2  10   2  134.89   12.60
  -2  10   2  147.49   13.00
   2  10  -2  123.79   12.30
  -2  10   2  133.29   14.20
   1 -10  -2 1048.00   75.29
   1 -10  -2 1053.49   74.39
   1  10  -2 1101.99   73.99
  -1  10   2 1114.89   74.79
   1  10  -2 1100.09   74.59
  -1  10   2 1090.89   74.09
  -1  10   2 1121.99   74.69
  -1  10   2 1079.89   75.19
  -1  10   2 1146.39   74.99
   1  10  -2 1103.79   75.09
  -1  10   2 1087.69   74.99
   0 -10  -2 1895.91  130.29
   0 -10   2 1820.42  130.49
   0 -10  -2 1676.13  131.39
   0  10   2 2043.40  130.79
   0  10   2 2013.60  131.59
   0  10  -2 1958.20  130.49
   0  10   2 1978.30  129.99
   0  10  -2 2012.30  130.89
   0  10   2 1969.00  130.59
   0  10  -2 1945.91  129.99
   0  10   2 2014.20  130.49
  -1 -10  -2  506.25   35.50
  -1 -10  -2  510.95   37.00
  -1  10  -2  508.85   36.00
   1  10   2  517.15   35.80
   1  10   2  509.15   36.20
   1  10   2  515.05   35.60
  -1  10  -2  518.55   36.30
   1  10   2  518.15   36.40
  -1  10  -2  508.85   35.30
   1  10   2  473.45   36.10
  -1  10  -2  499.05   35.90
  -2 -10  -2   47.80    8.90
   2 -10   2   46.10    9.40
   2 -10   2   48.60    7.50
   2 -10   2   39.10    8.30
  -2 -10  -2   45.10    8.50
  -2  10  -2   53.89    8.00
   2  10   2   62.79    7.70
  -2  10  -2   60.89    6.70
  -2  10  -2   64.89   14.40
  -2  10  -2   58.89   12.40
  -2  10  -2   51.99    7.70
   2  10   2   47.80    8.60
   2  10   2   69.49    8.70
  -3 -10  -2  225.28   20.60
   3 -10   2  286.97   22.30
  -3 -10  -2  232.98   18.20
   3 -10   2  252.27   18.40
   3 -10   2  218.88   22.00
   3 -10   2  240.18   19.80
  -4 -10  -2  596.54   39.90
   4 -10   2  523.55   39.60
  -4 -10  -2  574.14   41.40
   4 -10   2  553.54   44.30
  -4  10  -2  588.54   39.90
  -4  10  -2  588.74   41.10
   4  10   2  592.04   39.70
   4  10   2  604.24   40.10
  -4 -11   2  141.69   15.30
   4 -11  -2  150.88   11.90
  -4 -11   2  146.69   13.40
   4 -11  -2  165.28   13.40
   4 -11  -2  144.39   12.60
   4  11  -2  176.08   12.20
   3 -11  -2  758.92   47.00
   3 -11  -2  734.83   46.00
   3 -11  -2  747.13   48.60
  -3  11   2  621.34   45.80
   3  11  -2  620.54   45.30
  -3  11   2  602.44   46.00
  -3  11   2  680.63   45.90
  -3  11   2  619.84   46.00
   3  11  -2  566.44   45.80
   2 -11  -2  611.74   40.10
   2  11  -2  572.84   39.30
  -2  11   2  541.25   40.40
  -2  11   2  551.14   39.30
  -2  11   2  589.84   39.60
  -2  11   2  536.65   39.20
   2  11  -2  535.95   39.50
  -2  11   2  551.14   39.60
   1 -11  -2  154.98   17.10
  -1  11   2  194.68   15.60
   1  11  -2  187.98   15.30
  -1  11   2  188.98   15.30
   1  11  -2  202.88   15.90
  -1  11   2  189.68   14.30
   1  11  -2  189.18   14.70
  -1  11   2  191.28   16.20
  -1  11   2  185.78   15.40
  -1  11   2  188.78   16.00
   0 -11  -2  146.89   12.60
   0  11  -2  123.09   11.00
   0  11  -2  132.99   11.90
   0  11   2  135.79   12.00
   0  11   2  140.09   11.60
   0  11   2  128.19   11.00
   0  11   2  118.99   13.00
   0  11   2  125.69   13.50
   0  11  -2  126.89   12.70
   1  11   2  459.25   33.50
   1  11   2  459.35   32.60
  -1  11  -2  471.05   33.30
   1  11   2  458.85   33.10
  -1  11  -2  475.85   33.70
   1  11   2  477.65   33.50
  -1  11  -2  470.05   32.60
  -2 -11  -2  335.67   26.70
   2  11   2  282.27   20.90
   2  11   2  299.67   21.60
   2  11   2  271.07   21.50
  -2  11  -2  285.47   21.90
  -2  11  -2  293.37   23.20
  -2  11  -2  284.57   21.00
  -3 -11  -2  417.86   30.90
   3 -11   2  410.56   31.70
  -3 -11  -2  401.06   31.10
   3 -11   2  406.26   31.80
  -3  11  -2  435.26   31.30
   3  11   2  494.95   31.50
  -3  11  -2  460.65   30.60
   3  11   2  490.85   31.60
  -3  11  -2  451.75   32.60
   4 -11   2  109.99    9.20
   4 -11   2   93.39    9.40
  -4 -11  -2  100.29    9.50
   4  11   2  129.09   10.00
   4  11   2  128.39   11.80
  -4  11  -2  128.19   11.40
   3 -12  -2    9.90    3.70
   3 -12  -2    8.90    7.50
  -3 -12   2   20.00   12.30
   3 -12  -2   12.40    4.80
   3 -12  -2   12.00    4.00
  -3  12   2   14.60    3.20
   3  12  -2   11.00    4.40
  -3  12   2   11.50    4.00
   3  12  -2   15.70    4.50
  -3  12   2   14.20    4.90
  -3  12   2    8.70    4.80
   2 -12  -2  304.17   23.90
   2 -12  -2  311.97   25.40
  -2  12   2  347.87   24.20
   2  12  -2  344.67   24.60
   1 -12  -2  628.04   44.80
   1 -12  -2  683.43   45.60
   1 -12  -2  628.64   46.50
   1 -12  -2  655.13   44.60
   1  12  -2  626.34   44.50
  -1  12   2  635.44   44.40
  -1  12   2  629.54   43.70
  -1  12   2  645.04   44.40
  -1  12   2  661.73   44.70
   1  12  -2  615.54   43.60
  -1  12   2  626.64   44.50
   1  12  -2  604.94   44.20
   0 -12  -2  875.21   66.99
   0 -12  -2  887.01   66.79
   0 -12   2  847.22   67.59
   0  12   2 1002.60   66.89
   0  12   2 1036.60   66.49
   0  12   2  996.10   65.89
   0  12  -2 1003.10   65.89
   0  12  -2 1015.60   66.49
   0  12   2 1028.90   66.69
   0  12  -2 1022.80   66.69
  -1 -12  -2  361.46   31.30
   1  12   2  471.45   31.00
  -1  12  -2  447.96   31.60
   1  12   2  439.26   31.60
   1  12   2  455.75   31.50
   1  12   2  471.75   31.80
  -1  12  -2  436.36   31.00
  -1  12  -2  468.45   31.90
  -2 -12  -2   71.39    7.60
   2 -12   2   72.39    8.30
  -2 -12  -2   80.59   11.30
   2 -12   2   79.39   11.10
  -2  12  -2   66.89    8.80
   2  12   2   60.19    9.90
  -2  12  -2   71.49    8.90
  -3 -12  -2  231.48   19.10
  -3 -12  -2  242.38   17.30
   3 -12   2  247.38   19.90
   3 -12   2  241.48   16.80
   3 -12   2  229.48   19.10
  -3  12  -2  202.88   16.20
   3  12   2  210.18   16.40
   3  12   2  206.78   16.70
  -3  12  -2  199.78   16.30
   3 -13  -2  670.93   41.10
   3 -13  -2  593.44   40.60
   3  13  -2  577.74   40.70
  -3  13   2  587.14   40.60
  -3  13   2  570.94   40.40
  -3  13   2  557.84   40.60
   2 -13  -2  550.34   40.50
   2 -13  -2  527.55   38.40
   2 -13  -2  519.05   38.60
  -2  13   2  565.44   38.20
   2  13  -2  588.04   38.70
   2  13  -2  572.34   38.30
  -2  13   2  552.94   38.40
  -2  13   2  549.05   38.20
   1 -13  -2  117.39   12.60
   1 -13  -2  122.39   10.30
   1 -13  -2  139.09   18.60
  -1  13   2   99.19   13.00
   1  13  -2  112.69   10.30
   0 -13  -2   70.79    8.30
   0 -13  -2   82.59   12.50
   0 -13  -2   74.69   12.30
   0  13   2   95.39    8.70
   0  13   2   85.19    8.70
   0  13  -2   91.39    9.10
   0  13  -2   90.49    8.10
   0  13   2   98.69    8.10
   0  13  -2   88.79   10.40
   1  13   2  264.87   20.10
   1  13   2  263.97   21.40
   1  13   2  291.77   20.80
  -1  13  -2  261.17   22.00
  -2 -13  -2  526.75   37.00
   2 -13   2  488.35   37.40
   2 -13   2  510.25   38.10
  -2 -13  -2  525.75   38.30
   2 -13   2  492.85   37.40
  -2 -13  -2  514.05   37.50
   2  13   2  559.44   37.00
   2  13   2  581.74   37.20
  -2  13  -2  577.34   37.40
  -2  13  -2  535.65   37.00
   2  13   2  569.34   37.40
  -2  13  -2  556.94   36.90
   3 -13   2  380.66   28.90
  -3 -13  -2  394.66   26.90
  -3 -13  -2  370.66   26.80
   3 -13   2  354.76   27.20
   3  13   2  397.66   26.70
  -3  13  -2  383.46   26.30
  -3  13  -2  379.76   26.70
   3  13   2  402.56   26.90
   2 -14  -2  174.48   16.00
   2 -14  -2  176.18   13.30
  -2  14   2  166.78   12.70
   2  14  -2  159.68   12.70
  -2  14   2  162.08   12.50
  -2  14   2  175.38   13.00
   1 -14  -2  452.95   30.70
   1 -14  -2  412.36   30.70
   1 -14  -2  457.15   32.00
   1  14  -2  409.66   30.40
   1  14  -2  424.26   30.10
   1  14  -2  447.36   30.60
  -1  14   2  498.25   30.70
  -1  14   2  415.36   30.50
  -1  14   2  413.16   30.30
   0 -14  -2  491.85   35.40
   0 -14  -2  474.35   34.00
   0  14   2  488.45   33.60
   0  14   2  468.65   33.20
   0  14  -2  485.05   33.70
   0  14   2  494.05   33.80
   0  14  -2  473.65   33.70
   0  14  -2  482.15   33.30
   1 -14   2  203.08   15.60
   1  14   2  158.98   13.00
   1  14   2  162.68   13.60
   1  14   2  163.28   12.60
  -1  14  -2  175.18   13.50
  -1  14  -2  174.18   13.50
  -1  14  -2  178.18   13.00
  -2 -14  -2   15.30    4.60
   2 -14   2   10.30    4.40
   2 -14   2    7.30    5.00
  -2 -14  -2    0.70    5.00
   2  14   2    9.30    3.20
  -2  14  -2    7.00    2.90
  -2  14  -2    4.50    3.70
   2  14   2    6.10    2.70
   2 -15  -2  344.57   23.30
   2 -15  -2  357.46   23.40
   2 -15  -2  336.37   23.30
  -2  15   2  315.17   22.80
  -2  15   2  314.57   23.10
   1  15  -2  104.09    9.00
  -1  15   2  101.69    8.30
  -1  15   2  108.89    8.40
   1  15  -2  110.19    9.00
  -1  15   2   95.99    8.00
   1  15  -2  111.49    8.90
   0 -15  -2   14.40    4.70
   0  15   2    3.10    2.40
   0  15   2    8.50    2.60
   0  15  -2    6.90    2.70
   0  15  -2    9.00    3.60
   0  15   2    6.00    3.40
   0  15  -2    5.80    2.20
   1  15   2  468.45   30.40
  -1  15  -2  475.65   30.50
   1  15   2  466.35   30.80
  -1  15  -2  396.86   30.60
  -1  15  -2  419.36   30.80
  -6   0   3  205.18   15.70
   6   0  -3  222.28   16.90
  -6   0   3  197.58   17.20
   5   0  -3  153.98   14.50
  -5   0   3  149.99   12.90
  -5   0   3  165.38   21.10
  -4   0   3  868.71   60.69
  -4   0   3  910.71   61.19
   4   0  -3  909.71   61.59
  -4   0   3  891.81   62.09
  -4   0   3  893.01   62.79
   4   0  -3  899.81   61.99
  -4   0   3  853.21   62.79
   3   0  -3  557.64   41.50
  -3   0   3  567.34   40.90
  -3   0   3  621.54   41.20
   3   0  -3  607.84   40.40
  -3   0   3  596.74   41.90
  -3   0   3  589.44   40.40
   3   0  -3  575.44   41.20
   2   0  -3  944.31   62.99
  -2   0   3  961.80   63.39
  -2   0   3  957.20   67.19
  -2   0   3  981.90   70.19
   2   0  -3  953.70   66.99
  -2   0   3  813.42   62.79
  -1   0   3  490.45   37.60
   1   0  -3  544.45   35.20
   1   0  -3  526.95   35.30
  -1   0   3  491.95   35.40
  -1   0   3  534.05   35.50
  -1   0   3  519.15   37.90
   1   0  -3  521.35   38.00
   0   0   3  154.28   12.00
   0   0  -3  156.48   11.90
   0   0   3  139.39   14.50
   0   0   3  145.79   14.00
   0   0   3  154.38   11.50
   0   0  -3  167.48   11.20
   0   0  -3  146.09   14.30
   1   0   3 1498.85  102.19
  -1   0  -3 1556.34  104.49
   1   0   3 1482.05  101.79
  -1   0  -3 1537.75  102.09
  -1   0  -3 1537.55  101.79
   1   0   3 1510.05  104.39
  -2   0  -3  871.41   63.19
   2   0   3  901.11   62.09
  -2   0  -3  930.31   62.59
  -2   0  -3  854.81   62.19
   2   0   3  936.51   67.69
   2   0   3  954.20   63.89
   2   0   3  983.50   62.99
  -2   0  -3  944.11   67.39
  -3   0  -3 1412.06  101.19
   3   0   3 1477.65   99.89
  -3   0  -3 1434.46   99.99
  -3   0  -3 1509.65  100.79
  -3   0  -3 1531.05  100.99
   3   0   3 1507.15  100.79
   3   0   3 1569.24  100.29
   3   0   3 1535.95  100.69
   3   0   3 1468.55  101.29
  -3   0  -3 1493.75  101.59
  -3   0  -3 1415.36  101.89
  -3   0  -3 1498.55  101.09
   4   0   3    4.20    4.50
  -4   0  -3    7.10    7.30
   4   0   3   11.80    5.00
  -4   0  -3    3.00    8.80
  -4   0  -3    7.00    5.00
  -4   0  -3   12.30    6.90
  -4   0  -3    8.30    5.20
   4   0   3   -4.70    8.00
  -5   0  -3    9.60    7.00
   5   0   3    9.80    3.40
  -5   0  -3    8.70    4.40
  -5   0  -3    4.00    5.80
   6   1  -3  321.67   24.40
  -6   1   3  360.66   25.20
  -5  -1   3  463.85   33.20
  -5  -1   3  449.56   35.10
   5  -1  -3  504.55   35.80
  -5  -1   3  427.16   38.30
   5   1  -3  527.85   35.70
  -5   1   3  443.76   33.00
  -5   1   3  465.05   39.80
  -5   1   3  468.75   34.50
  -4  -1   3  463.55   34.70
  -4  -1   3  473.15   32.50
  -4  -1   3  452.75   35.20
   4  -1  -3  482.95   33.30
   4  -1  -3  512.65   34.60
   4  -1  -3  453.35   32.60
  -4  -1   3  484.95   34.20
  -4  -1   3  462.05   33.00
  -4   1   3  432.36   37.30
  -4   1   3  471.65   33.00
  -4   1   3  466.75   34.50
  -4   1   3  419.66   37.40
  -4   1   3  425.46   34.80
  -4   1   3  460.15   32.40
   4   1  -3  446.56   33.00
   4   1  -3  471.45   34.20
   3  -1  -3   67.39    9.40
   3  -1  -3   70.19    9.70
  -3  -1   3   68.19   10.10
   3  -1  -3   76.79    6.90
  -3  -1   3   79.99    7.90
  -3   1   3   55.09   16.00
   3   1  -3   63.59    9.40
  -3   1   3   63.59    8.00
  -3   1   3   59.29    7.00
  -3   1   3   60.69    7.90
   3   1  -3   59.19    9.50
  -3   1   3   63.69   11.30
  -3   1   3   50.49    8.30
  -2  -1   3 1122.99   76.89
   2  -1  -3 1193.68   77.09
   2  -1  -3 1181.68   81.29
  -2  -1   3 1135.99   79.89
  -2  -1   3 1244.08   77.19
  -2  -1   3 1199.68   80.39
  -2   1   3 1102.29   80.99
  -2   1   3 1089.19   76.99
  -2   1   3 1146.49   81.09
   2   1  -3 1028.40   76.29
   2   1  -3 1135.29   80.19
  -2   1   3 1144.79   77.19
   2   1  -3 1102.79   76.09
  -1  -1   3 4900.21  333.37
  -1  -1   3 5001.50  333.27
   1  -1  -3 4479.65  332.27
  -1  -1   3 4760.02  331.37
   1  -1  -3 4987.70  334.27
   1  -1  -3 4854.91  331.47
  -1  -1   3 4945.10  331.37
  -1   1   3 5310.97  331.57
  -1   1   3 5408.96  334.67
  -1   1   3 5150.28  334.27
   0  -1   3 3591.94  225.18
   0  -1   3 3486.75  223.18
   0  -1  -3 3294.97  222.98
   0  -1  -3 3576.44  222.88
   0  -1   3 3702.63  224.78
   0  -1  -3 3552.74  226.08
   0   1   3 3108.49  225.48
   0   1   3 3076.49  223.28
   0   1   3 3076.39  225.58
   0   1   3 3158.08  222.88
   0   1  -3 3212.18  224.98
   0   1  -3 3307.67  222.48
   1  -1   3  982.20   65.09
   1  -1   3  982.60   67.09
  -1  -1  -3  982.70   64.99
   1  -1   3  996.80   64.69
  -1  -1  -3  997.70   64.89
  -1  -1  -3  976.40   67.89
   1   1   3  919.71   64.99
   1   1   3  906.51   67.59
   1   1   3  953.70   64.79
  -1   1  -3  970.40   67.09
  -1   1  -3  902.91   64.49
  -2  -1  -3  164.68   12.80
  -2  -1  -3  149.79   11.90
   2  -1   3  147.29   11.50
   2  -1   3  161.88   12.10
  -2  -1  -3  151.48   12.50
   2  -1   3  147.99   18.20
  -2  -1  -3  147.79   18.60
   2   1   3  152.48   12.00
  -2   1  -3  144.99   14.00
  -2   1  -3  151.18   11.50
  -2   1  -3  159.38   17.90
   2   1   3  141.79   11.80
   2   1   3  140.29   18.50
  -3  -1  -3  923.21   67.49
  -3  -1  -3  911.31   66.69
   3  -1   3  918.81   65.49
  -3  -1  -3  966.00   66.59
   3  -1   3  933.41   65.89
  -3  -1  -3  921.11   65.69
   3  -1   3  919.41   66.99
   3  -1   3  955.90   67.29
   3  -1   3  946.51   66.29
  -3  -1  -3  927.01   66.69
  -3  -1  -3  925.41   72.19
  -3   1  -3 1037.10   66.89
  -3   1  -3 1008.60   66.09
   3   1   3 1020.80   65.79
   3   1   3  985.50   65.99
  -3   1  -3 1030.00   67.59
   3   1   3 1044.40   66.59
   3   1   3 1009.90   67.09
  -3   1  -3  974.70   67.79
  -3   1  -3 1040.20   66.59
  -4  -1  -3  700.73   49.20
  -4  -1  -3  647.84   48.50
  -4  -1  -3  739.83   47.20
  -4  -1  -3  642.54   48.30
   4  -1   3  703.83   46.80
   4  -1   3  647.84   48.80
   4  -1   3  672.93   45.90
  -4  -1  -3  686.83   46.30
  -4  -1  -3  679.63   49.20
  -4   1  -3  692.73   47.20
   4   1   3  597.34   47.70
  -4   1  -3  666.53   48.80
  -4   1  -3  659.63   48.00
  -4   1  -3  606.74   47.70
   4   1   3  678.53   47.00
  -5  -1  -3  364.86   24.10
  -5  -1  -3  298.47   27.40
   5  -1   3  360.26   23.70
  -5   1  -3  313.37   23.90
  -5   1  -3  317.57   25.80
   5   1   3  321.57   23.50
   5   1   3  303.17   23.70
  -5   1  -3  291.17   24.30
  -5  -2   3    8.00    5.70
  -5  -2   3   10.00    9.90
   5  -2  -3   15.40    5.60
   5  -2  -3    9.20    5.90
  -5  -2   3   13.00    5.10
  -5   2   3   21.30    7.50
   5   2  -3   22.40    6.60
   5   2  -3   17.20    5.80
  -4  -2   3  511.65   41.10
   4  -2  -3  554.54   39.20
  -4  -2   3  544.25   39.60
  -4  -2   3  531.75   40.20
  -4  -2   3  518.25   38.00
  -4  -2   3  522.45   38.60
   4  -2  -3  534.45   40.00
  -4   2   3  560.74   38.30
  -4   2   3  547.15   40.30
  -4   2   3  590.64   41.10
   4   2  -3  590.74   39.30
  -4   2   3  594.64   40.10
   4   2  -3  552.74   39.80
  -4   2   3  531.35   44.30
  -4   2   3  527.85   42.30
   3  -2  -3 2009.90  131.99
   3  -2  -3 1955.80  130.49
  -3  -2   3 1976.20  131.39
  -3  -2   3 2043.50  130.69
   3  -2  -3 2012.60  131.49
  -3  -2   3 2129.69  131.49
   3  -2  -3 2051.59  130.79
   3  -2  -3 2152.18  131.59
  -3   2   3 1658.13  130.89
   3   2  -3 1847.22  131.29
  -3   2   3 1839.62  131.29
  -3   2   3 2053.89  147.19
   3   2  -3 1825.12  131.59
  -3   2   3 1851.31  130.89
  -3   2   3 1854.41  131.69
  -2  -2   3  938.21   62.69
  -2  -2   3  858.41   62.49
  -2  -2   3  928.91   65.69
  -2  -2   3  904.81   65.49
   2  -2  -3  970.50   63.19
   2  -2  -3  940.11   67.89
  -1  -2   3   43.30    7.00
  -1  -2   3   48.40    4.60
  -1  -2   3   50.59    8.60
   1  -2  -3   52.39    5.00
   1  -2  -3   57.29    6.10
   1  -2  -3   50.39    9.40
  -1  -2   3   45.70    5.20
   0  -2  -3  762.02   49.00
   0  -2   3  737.23   50.39
   0  -2  -3  792.12   48.70
   0  -2   3  792.22   48.60
   0  -2  -3  762.52   52.29
   0  -2   3  789.42   49.70
   0   2  -3  604.74   49.99
   0   2   3  658.23   48.60
   0   2   3  669.53   51.49
   0   2   3  671.13   48.50
   0   2   3  632.74   51.69
   1  -2   3  755.22   58.09
   1  -2   3  769.22   56.09
  -1  -2  -3  763.72   56.39
   1  -2   3  754.22   56.49
  -1  -2  -3  757.02   56.39
  -1  -2  -3  729.23   59.29
  -1  -2  -3  761.62   56.29
  -1   2  -3  974.70   55.79
   1   2   3  963.40   56.49
   1   2   3  920.31   60.39
  -1   2  -3  942.91   59.19
  -1   2  -3  903.31   56.19
   2  -2   3 2558.74  178.98
   2  -2   3 2565.44  182.78
   2  -2   3 2678.33  178.18
  -2  -2  -3 2488.85  177.98
  -2  -2  -3 2597.74  178.58
   2  -2   3 2555.24  178.28
  -2  -2  -3 2667.53  178.88
  -2   2  -3 2862.61  192.08
   2   2   3 2675.93  183.88
  -2   2  -3 2829.82  178.28
   2   2   3 2757.72  178.68
   2   2   3 2770.32  178.48
   3  -2   3  378.76   26.80
   3  -2   3  366.26   24.40
  -3  -2  -3  366.46   24.30
   3  -2   3  360.86   25.10
  -3  -2  -3  360.96   25.40
  -3  -2  -3  331.57   26.60
   3  -2   3  359.16   24.40
   3  -2   3  351.26   25.00
  -3  -2  -3  317.97   27.50
  -3  -2  -3  369.06   24.70
  -3  -2  -3  355.46   25.90
  -3  -2  -3  366.36   25.10
  -3   2  -3  324.67   26.10
   3   2   3  305.47   25.10
   3   2   3  298.77   25.20
  -3   2  -3  294.07   25.80
  -3   2  -3  315.37   26.20
   3   2   3  296.77   24.60
  -3   2  -3  316.17   24.60
  -4  -2  -3  148.19   23.50
  -4  -2  -3  165.28   19.70
  -4  -2  -3  152.38   21.60
   4  -2   3  142.79   18.20
  -4  -2  -3  151.98   13.20
  -4  -2  -3  178.68   14.40
   4  -2   3  156.38   14.10
  -4  -2  -3  163.58   26.50
   4  -2   3  164.08   13.30
   4   2   3  175.98   14.50
  -4   2  -3  137.79   16.30
  -4   2  -3  162.08   15.10
  -4   2  -3  168.38   17.80
  -4   2  -3  181.88   15.80
  -5  -2  -3  181.38   15.30
   5  -2   3  204.18   15.10
  -5  -2  -3  203.58   21.00
  -5   2  -3  162.48   14.80
  -5   2  -3  185.98   16.90
   5   2   3  180.68   15.10
  -5   2  -3  171.38   15.00
   5   2   3  161.88   15.20
  -5  -3   3 1279.17   79.99
  -5  -3   3 1114.79   78.29
   5  -3  -3 1137.89   78.89
  -5  -3   3 1096.39   78.89
  -5   3   3 1129.39   79.69
   5   3  -3 1158.58   78.69
  -5   3   3 1183.68   82.49
  -5   3   3 1110.79   77.89
   4  -3  -3  290.97   20.70
   4  -3  -3  280.27   21.90
  -4  -3   3  276.57   18.90
  -4  -3   3  294.87   21.60
  -4  -3   3  280.77   21.90
  -4  -3   3  288.47   20.20
   4  -3  -3  253.87   18.60
  -4   3   3  223.68   23.50
  -4   3   3  216.38   19.20
  -4   3   3  223.38   19.10
  -4   3   3  223.38   20.80
  -4   3   3  206.08   21.90
   4   3  -3  237.48   20.20
   4   3  -3  225.38   20.30
   3  -3  -3   28.70    7.10
   3  -3  -3   25.60    5.60
   3  -3  -3   25.90    6.20
   3  -3  -3   26.00    4.70
   3  -3  -3   33.30    7.70
  -3  -3   3   21.40    4.50
  -3  -3   3   16.40    4.20
  -3  -3   3   18.10    7.30
   3  -3  -3   20.20    6.90
  -3   3   3   49.99   26.30
   3   3  -3   35.80    6.60
  -3   3   3   25.60    5.20
   3   3  -3   21.40    5.80
  -3   3   3   23.50    5.80
  -3   3   3   34.50    6.90
  -3   3   3   32.20    7.20
  -3   3   3   35.60    7.70
  -3   3   3   27.90    5.70
  -3   3   3   30.20    8.30
   2  -3  -3  839.62   58.79
  -2  -3   3  817.92   64.19
  -2  -3   3  910.91   58.69
  -2  -3   3  790.92   58.29
   2  -3  -3  821.62   58.19
  -2  -3   3  834.32   60.99
   2  -3  -3  800.22   63.89
   2  -3  -3  883.41   58.79
  -2   3   3  884.71   73.59
  -2   3   3 1017.60   58.19
   1  -3  -3 2056.29  148.19
  -1  -3   3 2387.46  148.59
  -1  -3   3 2321.57  148.99
  -1  -3   3 2278.67  149.59
   1  -3  -3 2341.97  148.69
   1  -3  -3 2315.17  152.28
   1  -3  -3 2260.27  148.59
  -1   3   3 2065.19  148.29
  -1   3   3 2206.08  152.08
  -1   3   3 2092.99  148.49
  -1   3   3 2090.09  151.78
   0  -3  -3 2889.21  194.98
   0  -3   3 3150.38  195.48
   0  -3   3 2977.10  196.28
   0  -3  -3 3215.68  198.98
   0  -3   3 2991.70  194.78
   0  -3  -3 3008.70  195.08
   0   3  -3 2632.34  195.78
   0   3   3 2765.72  198.08
   0   3   3 2863.41  198.88
   0   3   3 2759.02  194.98
   0   3   3 2865.61  194.88
  -1  -3  -3  770.22   53.99
  -1  -3  -3  776.62   50.19
   1  -3   3  773.22   49.99
   1  -3   3  807.72   52.09
   1   3   3  628.24   53.39
   1   3   3  640.84   49.60
  -2  -3  -3  147.69   11.40
  -2  -3  -3  142.59   12.50
  -2  -3  -3  143.59   11.60
   2  -3   3  150.08   20.50
   2  -3   3  144.19   12.50
  -2  -3  -3  154.38   22.10
   2  -3   3  152.68   11.60
  -2  -3  -3  152.58   12.60
   2  -3   3  146.49   11.20
  -2   3  -3  144.79   13.90
   2   3   3  131.39   20.90
  -2   3  -3  143.19   12.00
  -2   3  -3  139.09   13.20
   2   3   3  155.28   11.50
  -2   3  -3  130.99   18.40
   3  -3   3  212.08   18.00
  -3  -3  -3  205.48   18.40
   3  -3   3  218.88   17.70
   3  -3   3  217.48   16.70
  -3  -3  -3  229.98   18.80
   3  -3   3  219.08   18.90
  -3  -3  -3  213.38   17.10
  -3  -3  -3  203.68   19.40
  -3   3  -3  275.57   17.90
  -3   3  -3  258.87   20.30
  -3   3  -3  243.18   18.90
  -4  -3  -3  970.90   64.59
   4  -3   3  925.11   64.69
  -4  -3  -3 1000.00   64.99
  -4  -3  -3  849.81   67.29
   4  -3   3  884.51   67.39
  -4  -3  -3  952.80   66.29
   4  -3   3  961.70   64.29
   4   3   3  948.41   65.19
  -4   3  -3  978.40   65.79
  -4   3  -3  944.31   66.19
  -4   3  -3  941.41   66.69
   5  -3   3  806.22   50.69
  -5  -3  -3  793.72   50.59
   5   3   3  725.13   50.49
   5   3   3  647.74   50.39
  -5   3  -3  697.13   51.49
  -5   3  -3  709.03   50.59
  -5   3  -3  750.32   51.99
   5  -4  -3   18.20    8.20
   5  -4  -3   20.20    5.60
  -5  -4   3   27.00    5.80
  -5  -4   3   30.10    6.40
  -5   4   3   22.30    9.70
  -5   4   3   34.60    7.70
   5   4  -3   37.70    7.20
   4  -4  -3  478.85   37.00
  -4  -4   3  488.85   38.40
   4  -4  -3  460.55   38.80
   4  -4  -3  492.45   38.70
   4  -4  -3  524.45   38.50
  -4  -4   3  492.05   37.50
  -4  -4   3  482.35   39.50
  -4  -4   3  462.45   37.20
  -4   4   3  612.84   39.50
  -4   4   3  563.04   40.00
  -4   4   3  613.04   38.10
  -4   4   3  582.34   42.00
  -4   4   3  558.04   36.80
   4   4  -3  601.14   38.40
   4   4  -3  565.54   38.70
   3  -4  -3 1188.98   89.99
   3  -4  -3 1187.48   90.49
   3  -4  -3 1222.48   90.69
  -3  -4   3 1223.58   89.19
  -3  -4   3 1267.67   89.69
  -3  -4   3 1200.08   89.99
   3  -4  -3 1247.18   90.49
  -3   4   3 1407.46   89.29
  -3   4   3 1472.85   90.89
  -3   4   3 1342.87   91.99
  -3   4   3 1354.56   89.09
  -3   4   3 1424.86   89.79
   3   4  -3 1460.95   90.39
  -3   4   3 1427.56   91.79
   3   4  -3 1451.15   90.69
   2  -4  -3 2110.59  138.09
   2  -4  -3 2146.29  144.29
  -2  -4   3 2183.28  140.19
   2  -4  -3 2036.40  137.89
   2  -4  -3 2287.77  138.29
  -2  -4   3 2260.77  139.79
  -2  -4   3 2091.09  137.39
  -2  -4   3 2287.87  137.89
  -2   4   3 1957.40  143.89
  -2   4   3 1913.01  136.99
  -2   4   3 1813.52  138.19
   2   4  -3 1809.42  140.49
  -2   4   3 1868.11  137.49
  -2   4   3 1964.20  144.19
  -1   4   3   30.20    4.80
  -1   4   3   25.30    7.90
  -1   4   3   26.20    7.90
  -1   4   3   18.60    5.60
   0  -4   3  653.33   46.20
   0  -4  -3  599.04   46.10
   0  -4  -3  650.83   50.19
   0  -4   3  596.84   46.80
   0  -4   3  793.12   46.70
   0  -4  -3  654.53   46.50
   0   4   3  819.72   51.09
  -1  -4  -3 3191.18  218.78
   1  -4   3 3393.36  216.28
  -1  -4  -3 3251.07  216.48
  -1  -4  -3 2963.00  213.78
   1   4   3 3300.07  219.08
   1   4   3 3099.39  218.68
   1   4   3 3269.57  213.98
   2  -4   3  711.63   50.19
  -2  -4  -3  735.53   49.30
  -2  -4  -3  775.42   50.19
  -2  -4  -3  731.23   48.70
  -2  -4  -3  784.62   50.99
   2  -4   3  689.33   55.69
  -2  -4  -3  759.92   58.29
   2  -4   3  716.73   49.00
  -2   4  -3  683.63   50.29
   2   4   3  685.03   56.89
  -2   4  -3  698.63   50.49
   2   4   3  707.03   48.60
   2   4   3  672.03   49.70
  -2   4  -3  704.13   49.10
  -2   4  -3  674.23   48.60
   3  -4   3  813.42   56.69
  -3  -4  -3  785.62   55.69
  -3  -4  -3  817.02   56.39
  -3  -4  -3  730.83   57.69
   3  -4   3  794.02   55.59
  -3  -4  -3  789.12   56.29
   3  -4   3  874.71   57.09
   3  -4   3  789.52   57.89
  -3  -4  -3  789.62   56.69
   3  -4   3  785.32   55.99
  -3   4  -3  736.93   55.89
  -3   4  -3  897.21   58.09
  -3   4  -3  923.71   56.49
  -3   4  -3  845.72   57.79
   3   4   3  895.91   56.89
  -4  -4  -3   13.30    4.60
  -4  -4  -3    7.10    4.50
   4  -4   3    7.00    5.20
   4  -4   3   12.50    4.20
   4  -4   3   14.30    9.60
   4  -4   3   14.30    4.80
   4  -4   3    0.50   13.20
  -4  -4  -3   12.90   12.90
  -4  -4  -3   13.30    6.90
  -4   4  -3    1.10    5.10
   4   4   3    7.40    6.00
  -4   4  -3    4.70    5.40
  -4   4  -3    8.00    6.00
   4   4   3    1.60    4.80
  -5  -4  -3   69.09    7.50
  -5  -4  -3   66.49    7.80
   5  -4   3   58.59    9.20
  -5   4  -3   74.79    9.80
   5   4   3   79.59    8.90
  -5   4  -3   88.09    9.60
  -5   4  -3   83.89   10.30
   5   4   3   75.29    8.80
  -5  -5   3  401.86   29.90
  -5  -5   3  442.16   28.50
   5  -5  -3  410.26   28.60
  -5   5   3  378.26   30.40
  -5   5   3  369.96   28.60
  -5   5   3  343.27   27.60
   5   5  -3  352.36   28.00
   5   5  -3  384.46   27.80
   4  -5  -3  561.44   40.80
   4  -5  -3  535.35   43.50
   4  -5  -3  592.24   42.40
  -4  -5   3  587.64   41.80
  -4  -5   3  564.74   41.00
   4  -5  -3  578.24   42.00
  -4  -5   3  531.95   44.50
  -4   5   3  614.44   42.60
   4   5  -3  629.24   41.90
   4   5  -3  602.64   41.70
  -4   5   3  514.05   42.30
  -4   5   3  614.14   41.00
  -4   5   3  651.33   44.10
   3  -5  -3   23.80    6.00
  -3  -5   3   27.00    4.80
   3  -5  -3   33.90    9.50
   3  -5  -3   26.30    7.70
   3  -5  -3   34.00    6.90
   3  -5  -3   27.50    5.40
  -3   5   3   31.80    6.50
  -3   5   3   33.70    7.70
  -3   5   3   24.00    4.90
   3   5  -3   24.10    6.90
  -3   5   3   20.60    8.20
   3   5  -3   27.10    5.90
  -2  -5   3 1065.09   64.69
   2  -5  -3  967.60   65.19
   2  -5  -3 1008.40   63.09
  -2  -5   3 1021.40   68.69
  -2  -5   3 1006.10   62.79
   2  -5  -3 1039.10   73.49
   2  -5  -3 1054.49   64.09
   2  -5  -3 1027.10   63.79
   2   5  -3  837.52   63.69
  -2   5   3  877.81   63.19
  -2   5   3  783.72   63.19
  -2   5   3  824.12   62.89
  -2   5   3  781.62   72.49
  -2   5   3  807.42   63.19
  -2   5   3  785.72   72.99
   1  -5  -3 1100.19   77.19
   1  -5  -3 1005.80   83.19
   1  -5  -3 1004.40   76.79
   1  -5  -3 1000.50   77.09
  -1   5   3 1301.47   77.29
  -1   5   3 1300.87   83.39
  -1   5   3 1259.57   83.39
   0  -5  -3 1927.91  121.09
   0  -5  -3 1812.22  116.49
   0  -5  -3 1712.03  116.69
   0  -5  -3 1745.83  115.79
   0   5   3 1604.44  120.09
   0   5   3 1568.94  120.69
  -1  -5  -3 1716.63  109.49
  -1  -5  -3 1757.22  115.49
  -1  -5  -3 1652.83  109.19
   1  -5   3 1826.92  109.89
  -1  -5  -3 1522.45  110.29
   1  -5   3 1724.63  111.49
   1   5   3 1467.75  113.99
  -1   5  -3 1489.65  110.99
   1   5   3 1565.24  108.59
   1   5   3 1546.25  108.49
   2  -5   3   17.30    5.50
  -2  -5  -3   21.00    3.80
  -2  -5  -3   25.20    5.30
  -2  -5  -3   21.30    6.50
   2  -5   3   15.60    3.90
  -2  -5  -3   23.60    6.00
   2  -5   3   20.50    4.80
  -2  -5  -3   27.50    6.30
  -2   5  -3   33.40   18.20
   2   5   3   22.90    6.20
  -2   5  -3   22.90    8.20
   2   5   3   20.10    6.00
  -2   5  -3   19.10    5.70
  -2   5  -3   29.20    6.70
   2   5   3   25.40    8.10
  -2   5  -3   22.60    4.50
  -2   5  -3   20.30    5.00
  -2   5  -3   21.70    4.00
   3  -5   3  302.67   24.30
  -3  -5  -3  336.47   25.50
  -3  -5  -3  301.47   22.20
  -3  -5  -3  263.27   24.90
   3  -5   3  277.77   20.80
  -3  -5  -3  283.17   22.80
   3  -5   3  272.97   23.00
  -3  -5  -3  299.37   21.20
   3  -5   3  286.17   21.50
   3   5   3  296.67   22.60
  -3   5  -3  265.97   24.60
   3   5   3  288.27   22.80
  -3   5  -3  303.37   22.10
  -3   5  -3  305.17   22.20
  -3   5  -3  295.87   23.60
  -3   5  -3  289.37   23.50
  -4  -5  -3  937.51   62.19
   4  -5   3  832.52   66.09
  -4  -5  -3  914.21   61.99
   4  -5   3  935.71   61.89
  -4  -5  -3  919.71   63.39
   4  -5   3  953.70   65.39
   4  -5   3  922.61   61.59
   4  -5   3  914.21   63.39
  -4   5  -3  881.11   63.69
   4   5   3  946.91   63.09
   4   5   3  837.72   62.59
  -4   5  -3  931.71   63.89
  -4   5  -3  816.02   62.59
  -5  -5  -3  392.66   28.60
  -5  -5  -3  360.06   28.90
  -5   5  -3  427.86   30.60
  -5   5  -3  479.05   32.00
  -5  -6   3   44.80    6.90
   5  -6  -3   27.10    6.10
  -5  -6   3   37.60    5.90
  -5  -6   3   39.40    8.50
   5   6  -3   39.70    7.80
  -5   6   3   36.00    6.00
  -5   6   3   52.49    7.10
  -5   6   3   50.89   10.30
   5   6  -3   41.10    6.70
   4  -6  -3  358.46   26.50
   4  -6  -3  332.97   26.90
  -4  -6   3  331.57   25.70
  -4  -6   3  352.36   26.70
   4  -6  -3  308.37   29.60
  -4  -6   3  330.07   26.70
   4  -6  -3  323.87   28.30
  -4   6   3  380.46   29.10
  -4   6   3  399.06   27.90
  -4   6   3  401.76   26.40
   4   6  -3  401.86   26.70
   4   6  -3  393.16   28.00
   3  -6  -3 1360.86   97.39
   3  -6  -3 1220.18   95.99
   3  -6  -3 1240.68   94.89
  -3  -6   3 1280.97   95.79
   3  -6  -3 1343.97   96.39
   3  -6  -3 1359.06   97.09
   3   6  -3 1603.94   95.89
   3   6  -3 1493.55   96.09
  -3   6   3 1380.76   94.99
   3   6  -3 1438.76   96.09
  -3   6   3 1569.94   96.79
  -3   6   3 1473.45   97.39
  -3   6   3 1510.25   95.29
   2  -6  -3  744.23   60.99
   2  -6  -3  869.61   59.99
  -2  -6   3  837.02   58.59
   2  -6  -3  802.02   59.89
   2  -6  -3  811.12   59.99
   2  -6  -3  780.12   58.99
  -2   6   3  851.41   59.09
  -2   6   3  920.81   61.09
  -2   6   3  931.31   59.59
  -2   6   3  934.61   58.79
   2   6  -3  821.82   60.29
  -2   6   3  941.51   59.19
  -2   6   3  867.31   60.89
   2   6  -3  927.41   59.89
   2   6  -3  882.31   59.89
  -2   6   3  912.11   59.49
   1  -6  -3 1239.18   87.69
   1  -6  -3 1302.77   80.79
   1  -6  -3 1303.67   80.89
   1  -6  -3 1257.57   80.09
  -1   6   3 1116.89   85.59
  -1   6   3 1086.29   80.29
  -1   6   3 1024.20   81.19
  -1   6   3 1193.48   79.39
  -1   6   3 1144.39   86.69
   0  -6  -3  321.97   25.60
   0  -6  -3  376.06   32.10
   0  -6  -3  357.26   26.10
   0  -6  -3  348.37   25.70
   0   6   3  387.46   32.40
   0   6   3  393.06   32.60
   1  -6   3  768.12   51.39
  -1  -6  -3  750.82   52.59
  -1  -6  -3  751.02   60.09
  -1  -6  -3  755.62   51.89
   1  -6   3  736.73   53.79
   1   6   3  714.63   58.59
   1   6   3  716.03   53.59
  -1   6  -3  816.32   52.09
  -1   6  -3  860.61   55.59
  -1   6  -3  646.54   55.89
  -1   6  -3  781.22   51.29
  -1   6  -3  781.62   51.79
  -2  -6  -3 2014.30  149.49
   2  -6   3 2229.78  151.88
  -2  -6  -3 2042.30  149.88
   2  -6   3 2119.19  149.39
   2  -6   3 2216.28  150.28
  -2  -6  -3 2316.87  150.28
  -2  -6  -3 2211.48  150.18
   2  -6   3 2189.38  149.88
   2   6   3 2017.00  150.48
  -2   6  -3 2275.57  149.99
  -2   6  -3 2349.86  149.49
  -2   6  -3 2379.86  149.99
  -2   6  -3 2460.05  151.78
  -2   6  -3 2449.16  150.08
   2   6   3 2274.87  150.88
  -2   6  -3 2207.08  150.48
   3  -6   3  354.56   25.60
  -3  -6  -3  345.57   30.50
   3  -6   3  355.56   25.30
   3  -6   3  366.46   24.90
   3  -6   3  333.27   26.10
  -3  -6  -3  387.16   25.70
  -3  -6  -3  385.66   25.00
  -3  -6  -3  326.07   26.00
   3  -6   3  341.47   29.70
  -3  -6  -3  377.46   26.30
  -3   6  -3  340.17   25.70
   3   6   3  301.97   26.50
   3   6   3  336.87   26.10
  -3   6  -3  323.67   25.00
  -3   6  -3  316.67   26.80
  -3   6  -3  341.97   27.50
  -4  -6  -3  130.09   10.80
   4  -6   3  125.69   10.60
   4  -6   3  149.19   14.50
   4  -6   3  129.59   11.30
  -4  -6  -3  134.49   14.60
  -4   6  -3  100.99   13.50
  -4   6  -3   97.79   12.60
  -5   6  -3   30.10    5.60
  -5   6  -3   24.10    7.00
   5   6   3   28.00    6.90
   5   6   3   25.80    7.60
   5   6   3   28.80    5.30
   5  -7  -3  406.46   28.60
  -5  -7   3  372.76   29.40
  -5  -7   3  352.46   27.10
  -5   7   3  415.26   27.50
   5   7  -3  389.66   27.70
   5   7  -3  349.57   27.80
  -5   7   3  381.86   27.90
  -5   7   3  442.16   29.60
   4  -7  -3  311.57   22.50
  -4  -7   3  335.67   25.10
   4  -7  -3  329.07   23.60
  -4  -7   3  324.07   28.90
   4  -7  -3  313.97   22.00
  -4   7   3  273.37   23.60
   4   7  -3  285.47   22.50
   4   7  -3  264.77   23.20
  -4   7   3  276.97   21.80
  -4   7   3  260.37   26.40
   3  -7  -3    6.30    4.80
   3  -7  -3    3.70    5.00
   3  -7  -3   -0.10    7.70
  -3  -7   3    4.10    3.90
   3  -7  -3   -1.80    7.30
   3  -7  -3    8.30    9.60
  -3  -7   3    2.70    4.80
   3   7  -3    3.50    5.70
  -3   7   3    3.70    7.60
  -3   7   3    4.80    3.90
  -3   7   3    8.10    6.40
   3   7  -3    4.60    6.50
   2  -7  -3  242.78   22.40
   2   7  -3  253.07   24.00
  -2   7   3  277.37   22.60
   2   7  -3  277.87   20.70
   2   7  -3  275.77   22.10
  -2   7   3  286.37   22.50
  -2   7   3  284.67   21.30
  -2   7   3  265.47   20.40
  -2   7   3  293.47   21.50
  -2   7   3  305.37   23.80
  -2   7   3  297.57   21.20
   1  -7  -3 1954.80  111.49
  -1   7   3 1621.44  110.79
  -1   7   3 1593.04  110.39
  -1   7   3 1618.34  110.99
   1   7  -3 1502.85  111.19
   1   7  -3 1548.05  110.39
  -1   7   3 1568.14  111.69
   1   7  -3 1764.82  110.39
  -1   7   3 1605.24  110.59
   0  -7  -3 2165.28  146.39
   0  -7  -3 2214.38  145.79
   0  -7  -3 2184.28  145.89
   0   7   3 2114.49  146.69
   0   7   3 2175.38  145.79
   0   7  -3 2084.39  145.49
   0   7  -3 2164.28  145.19
   0   7   3 2243.28  145.89
   0   7   3 2203.78  145.89
   1  -7   3  230.58   17.80
  -1  -7  -3  215.08   17.80
  -1  -7  -3  221.98   18.20
  -1  -7  -3  208.58   21.10
   1   7   3  250.87   19.40
  -1   7  -3  254.17   18.20
  -1   7  -3  257.67   18.40
   1   7   3  271.57   19.40
  -1   7  -3  268.07   22.00
  -1   7  -3  233.58   22.70
   1   7   3  254.17   21.40
  -1   7  -3  264.07   18.50
   2  -7   3  266.67   19.40
  -2  -7  -3  266.97   19.50
  -2  -7  -3  236.68   25.80
   2  -7   3  274.07   19.90
  -2  -7  -3  268.07   21.20
  -2  -7  -3  276.37   20.30
   2   7   3  314.87   23.80
   2   7   3  265.47   24.80
  -2   7  -3  277.87   20.30
  -2   7  -3  256.87   21.70
   2   7   3  224.58   21.10
  -2   7  -3  279.97   20.00
  -2   7  -3  255.17   20.70
  -3  -7  -3  475.15   33.80
   3  -7   3  463.95   32.90
   3  -7   3  480.05   33.50
  -3  -7  -3  468.75   33.90
   3  -7   3  430.26   34.40
  -3  -7  -3  491.75   32.40
  -3  -7  -3  467.45   32.90
  -3   7  -3  434.56   34.00
  -3   7  -3  467.25   34.90
   3   7   3  421.26   33.20
  -3   7  -3  457.05   33.00
  -3   7  -3  451.15   34.80
  -4  -7  -3  405.66   35.10
   4  -7   3  468.45   32.70
   4  -7   3  450.05   34.00
  -4  -7  -3  449.66   32.20
   4  -7   3  436.16   31.70
  -4  -7  -3  463.95   31.90
  -4  -7  -3  454.95   34.80
   4   7   3  406.66   33.00
  -4   7  -3  520.35   39.70
  -4   7  -3  463.15   33.90
  -5  -7  -3  469.45   31.70
   5   7   3  418.26   29.50
  -5   7  -3  446.76   32.50
  -5   7  -3  398.46   30.60
   5   7   3  407.86   29.40
  -5  -8   3   25.10    5.80
  -5  -8   3   22.80    5.40
   5  -8  -3   20.80    4.70
  -5   8   3   26.30    6.60
   5   8  -3   25.40    4.60
  -5   8   3   24.20    5.20
  -5   8   3   33.00    7.50
  -4  -8   3  551.84   39.20
   4  -8  -3  574.74   41.80
  -4  -8   3  541.85   41.70
   4  -8  -3  542.75   40.20
   4  -8  -3  507.35   43.30
   4   8  -3  519.35   40.80
  -4   8   3  641.44   41.70
  -4   8   3  592.54   41.50
   4   8  -3  624.94   41.40
   3  -8  -3  976.20   68.89
   3  -8  -3  976.80   70.39
  -3  -8   3  996.60   68.69
   3  -8  -3 1008.20   70.99
   3  -8  -3  997.80   69.49
   3  -8  -3  985.60   71.29
   3   8  -3  886.51   69.69
   3   8  -3 1041.00   69.59
  -3   8   3 1070.09   70.79
  -3   8   3 1082.79   69.09
  -3   8   3 1058.29   70.29
   2  -8  -3  757.32   59.79
   2  -8  -3  749.23   58.59
   2  -8  -3  754.02   59.99
  -2   8   3  923.81   59.69
  -2   8   3  872.51   60.39
  -2   8   3  944.31   59.19
  -2   8   3  945.11   58.39
  -2   8   3  883.01   58.99
   2   8  -3  848.12   59.39
  -2   8   3  874.61   58.59
   1  -8  -3  105.69   12.90
   1  -8  -3   96.59   14.30
   1  -8  -3  120.29   11.20
   1  -8  -3  104.19   11.60
  -1   8   3  140.79   11.50
  -1   8   3  130.99   14.40
   1   8  -3  136.89   10.70
   1   8  -3  116.39   12.40
  -1   8   3  147.59   12.70
  -1   8   3  143.29   12.10
  -1   8   3  146.39   11.70
   1   8  -3  123.19   13.30
   0  -8  -3   20.10    6.30
   0  -8  -3   17.00    4.20
   0   8  -3   -0.80    6.20
   0   8  -3   10.70    4.60
   0   8   3    3.60    3.90
   0   8  -3    8.90    3.40
   0   8   3    7.60    6.40
   0   8   3    8.60    5.10
   0   8   3   11.50    5.00
   1  -8   3 1029.10   78.19
  -1  -8  -3 1025.70   78.19
  -1  -8  -3  995.20   78.99
  -1  -8  -3 1044.70   78.79
  -1  -8  -3 1038.50   80.79
  -1   8  -3 1231.18   79.19
   1   8   3 1189.38   78.79
  -1   8  -3 1268.97   78.79
  -1   8  -3 1193.08   78.69
   1   8   3 1247.78   79.49
   1   8   3 1289.47   78.99
   1   8   3 1180.58   79.89
  -1   8  -3 1247.28   79.39
  -1   8  -3 1264.27   81.49
   2  -8   3  719.03   49.10
  -2  -8  -3  731.93   49.00
  -2  -8  -3  664.63   49.50
   2  -8   3  682.43   49.99
   2  -8   3  757.92   48.50
  -2  -8  -3  701.03   61.19
  -2   8  -3  722.93   48.40
  -2   8  -3  680.53   47.60
  -2   8  -3  668.53   48.60
  -2   8  -3  701.03   48.20
  -2   8  -3  648.04   48.30
   2   8   3  672.83   48.70
   2   8   3  687.83   49.99
  -2   8  -3  705.83   50.99
   3  -8   3 1105.69   76.29
  -3  -8  -3 1155.18   76.69
   3  -8   3 1135.89   75.59
  -3  -8  -3 1028.80   75.99
  -3  -8  -3 1106.39   76.39
   3   8   3 1078.79   77.09
  -3   8  -3 1132.19   77.59
  -3   8  -3 1137.19   76.49
   3   8   3 1072.19   75.89
  -3   8  -3 1108.79   75.19
  -3   8  -3 1128.79   75.79
   4  -8   3  150.98   12.60
   4  -8   3  190.78   25.30
  -4  -8  -3  164.78   13.00
  -4  -8  -3  146.89   16.40
  -4  -8  -3  134.09   14.50
  -4  -8  -3  149.99   12.70
  -4   8  -3  159.48   14.80
   4   8   3  159.98   13.20
   4   8   3  167.58   12.90
   4   8   3  167.18   14.00
  -4   8  -3  179.78   14.00
   4  -9  -3  176.88   13.90
  -4  -9   3  174.28   15.70
  -4  -9   3  168.48   13.20
   4  -9  -3  161.98   12.60
  -4   9   3  145.39   15.40
  -4   9   3  140.19   12.40
   4   9  -3  134.09   12.50
  -4   9   3  132.89   13.50
   3  -9  -3  230.28   24.00
   3  -9  -3  185.08   31.10
   3  -9  -3  268.07   18.50
   3  -9  -3  239.38   18.10
  -3  -9   3  206.98   21.40
   3  -9  -3  197.38   26.30
  -3   9   3  226.38   17.20
  -3   9   3  215.08   18.90
  -3   9   3  207.28   17.90
   3   9  -3  218.48   18.30
  -3   9   3  236.08   21.20
  -3   9   3  205.38   18.70
   2  -9  -3  534.25   37.70
   2  -9  -3  460.75   37.80
   2  -9  -3  470.25   35.60
   2  -9  -3  447.36   37.20
  -2   9   3  492.05   36.10
   2   9  -3  464.15   35.80
  -2   9   3  500.25   36.40
  -2   9   3  518.55   35.10
  -2   9   3  531.65   35.30
  -2   9   3  486.15   34.50
   2   9  -3  500.15   35.30
  -2   9   3  523.65   35.50
   1  -9  -3 1166.58   87.79
   1  -9  -3 1344.57   86.89
   1  -9  -3 1289.97   85.79
  -1   9   3 1296.77   86.19
  -1   9   3 1233.48   86.89
  -1   9   3 1198.78   85.49
  -1   9   3 1321.07   86.29
   1   9  -3 1294.87   85.69
   0  -9  -3  984.90   67.19
   0  -9  -3 1022.00   66.29
   0  -9  -3 1004.50   68.59
   0   9  -3  932.61   67.09
   0   9   3  937.51   68.79
   1   9   3  344.77   25.80
  -1   9  -3  330.37   24.60
  -1   9  -3  383.16   36.50
   1   9   3  359.06   25.70
   1   9   3  321.67   26.40
  -1   9  -3  328.27   25.20
   1   9   3  345.17   25.40
  -1   9  -3  380.66   27.00
   2  -9   3   24.70    5.40
   2  -9   3   24.50    5.40
  -2  -9  -3   42.90    8.50
  -2  -9  -3   27.60    5.80
  -2  -9  -3   24.20    5.80
   2   9   3   41.50    8.30
  -2   9  -3   15.80    5.90
  -2   9  -3   25.80    4.30
   2   9   3   31.00    6.20
  -2   9  -3   26.00    6.30
  -2   9  -3   38.70    8.80
   2   9   3   24.70    7.30
   3  -9   3  264.07   21.00
   3  -9   3  271.67   22.80
  -3  -9  -3  253.67   22.00
  -3  -9  -3  279.87   22.50
  -3  -9  -3  285.97   20.90
   3  -9   3  277.77   21.10
   3   9   3  304.97   20.90
  -3   9  -3  290.47   20.70
   3   9   3  276.07   22.70
  -3   9  -3  306.87   23.60
   3   9   3  284.67   21.90
  -3   9  -3  301.47   21.70
  -3   9  -3  287.07   22.20
   4  -9   3  531.25   36.10
  -4  -9  -3  491.45   36.10
  -4  -9  -3  517.25   38.00
   4  -9   3  507.55   38.20
  -4  -9  -3  547.55   36.20
   4  -9   3  498.95   36.10
  -4   9  -3  565.04   37.20
  -4   9  -3  491.95   38.10
   4   9   3  533.45   36.30
   4   9   3  535.05   36.40
   4   9   3  535.45   36.30
   4 -10  -3  445.56   31.90
  -4 -10   3  441.36   31.70
   4 -10  -3  439.36   31.40
  -4 -10   3  415.16   31.90
   4  10  -3  413.16   31.70
  -4  10   3  516.15   32.70
  -4  10   3  479.35   31.60
  -3 -10   3  669.13   53.69
   3 -10  -3  728.23   52.79
   3 -10  -3  827.72   54.39
   3 -10  -3  710.23   54.69
  -3  10   3  798.92   53.99
  -3  10   3  799.62   52.79
   3  10  -3  785.42   53.39
  -3  10   3  808.12   53.99
   2 -10  -3  790.42   51.49
   2 -10  -3  694.43   55.19
   2 -10  -3  755.72   52.59
   2 -10  -3  798.02   54.99
   2 -10  -3  766.82   51.69
  -2  10   3  753.52   51.09
  -2  10   3  731.23   50.99
  -2  10   3  687.33   50.19
  -2  10   3  728.93   50.79
  -2  10   3  725.93   51.09
   2  10  -3  684.23   50.59
   2  10  -3  723.53   51.49
  -2  10   3  711.43   51.99
   1 -10  -3  144.39   15.40
   1  10  -3  168.48   14.60
   1  10  -3  176.08   14.40
  -1  10   3  187.98   14.70
  -1  10   3  196.88   15.00
  -1  10   3  185.88   15.10
  -1  10   3  182.08   14.80
   1  10  -3  176.68   15.60
  -1  10   3  174.88   16.20
  -1  10   3  176.78   13.90
   0 -10  -3  129.29   14.50
   0 -10  -3  128.09   12.50
   0 -10  -3  125.79   15.40
   0  10   3  163.48   13.20
   0  10   3  156.88   12.90
   0  10   3  163.18   13.00
   0  10  -3  155.98   13.70
   0  10  -3  157.88   12.90
   0  10  -3  150.08   11.80
   0  10   3  130.39   14.80
   1 -10   3  469.85   34.10
  -1  10  -3  475.45   34.20
   1  10   3  479.45   34.10
   1  10   3  512.55   34.70
   1  10   3  494.95   34.40
  -1  10  -3  477.15   34.70
   1  10   3  478.15   35.20
  -1  10  -3  473.95   33.60
   2 -10   3 1267.07   88.09
  -2 -10  -3 1279.37   86.89
   2 -10   3 1253.67   86.89
  -2 -10  -3 1274.87   87.49
   2  10   3 1283.17   87.09
  -2  10  -3 1302.77   86.89
   2  10   3 1273.47   87.09
  -2  10  -3 1198.98   86.59
  -2  10  -3 1234.58   86.09
   2  10   3 1294.57   85.99
   2  10   3 1380.36   86.79
  -3 -10  -3  430.96   32.00
   3 -10   3  421.86   30.60
  -3 -10  -3  438.46   30.70
  -3 -10  -3  445.86   31.80
   3 -10   3  418.46   31.70
   3 -10   3  449.95   30.50
  -3  10  -3  425.96   30.20
  -3  10  -3  414.66   31.30
   3  10   3  420.96   30.60
  -3  10  -3  426.96   30.60
  -3  10  -3  395.66   33.00
   3  10   3  498.75   34.20
   4 -10   3   76.29    7.40
  -4 -10  -3   77.19    8.00
   4 -10   3   80.89    7.90
   4  10   3   91.09    9.40
   4  10   3   86.59    7.00
  -4  10  -3   89.59   10.00
   4 -11  -3  467.55   33.30
   4 -11  -3  427.16   32.50
   4 -11  -3  443.26   34.20
  -4 -11   3  555.74   35.80
  -4  11   3  487.95   33.10
  -4  11   3  488.85   32.80
   4  11  -3  458.75   32.80
   3 -11  -3    3.40    4.60
   3 -11  -3   10.90    4.00
  -3  11   3   22.00    8.50
  -3  11   3   13.50    5.10
   3  11  -3   12.50    5.10
  -3  11   3   14.40    6.10
  -3  11   3   12.20    4.40
   2  11  -3  134.19   11.10
  -2  11   3  121.29   10.30
  -2  11   3  113.59   11.50
   2  11  -3  123.79   12.00
  -2  11   3  115.39   10.90
  -2  11   3  131.99   11.30
  -2  11   3  109.19   11.20
  -2  11   3  121.59   12.80
   1 -11  -3  755.82   55.49
  -1  11   3  811.22   55.19
  -1  11   3  803.72   54.59
  -1  11   3  790.72   55.79
   1  11  -3  804.52   54.59
   1  11  -3  816.02   55.59
   1  11  -3  790.92   55.09
  -1  11   3  794.82   55.29
  -1  11   3  816.02   55.49
  -1  11   3  827.72   55.39
   0 -11  -3  728.53   45.80
   0 -11  -3  737.03   45.70
   0 -11  -3  729.13   44.60
   0  11  -3  579.14   44.00
   0  11   3  609.34   44.70
   0  11   3  602.34   44.00
   0  11  -3  613.14   44.60
   0  11   3  607.44   45.10
   0  11  -3  616.04   44.90
   0  11   3  617.24   44.80
   0  11   3  621.24   44.50
  -1 -11  -3  650.03   47.60
  -1 -11  -3  682.03   48.10
   1 -11   3  679.03   47.20
   1  11   3  670.33   47.10
   1  11   3  708.53   47.50
  -1  11  -3  675.83   47.30
  -1  11  -3  703.03   46.80
   1  11   3  681.03   47.30
  -1  11  -3  650.23   47.40
   1  11   3  713.23   46.80
   2 -11   3    2.60    3.70
   2 -11   3    2.00    5.30
  -2 -11  -3   -2.60    3.80
   2  11   3   -3.20    4.70
   2  11   3    2.90    4.20
  -2  11  -3    5.60    3.00
  -2  11  -3   -6.00    4.00
   2  11   3    1.50    3.70
  -2  11  -3   15.10    5.30
   3 -11   3  157.38   13.20
  -3 -11  -3  168.28   13.20
  -3 -11  -3  164.08   16.80
   3 -11   3  159.88   16.40
   3 -11   3  161.58   13.00
  -3  11  -3  180.58   15.60
  -3  11  -3  171.18   13.30
  -3  11  -3  174.58   12.90
   3 -12  -3  594.54   41.70
   3 -12  -3  577.64   39.70
   3 -12  -3  605.84   39.60
  -3  12   3  570.34   39.10
   3  12  -3  507.45   39.50
  -3  12   3  553.14   39.40
  -3  12   3  603.94   39.80
   2 -12  -3  869.21   59.29
   2 -12  -3  870.41   57.99
   2 -12  -3  868.21   59.19
  -2  12   3  809.62   57.69
   2  12  -3  869.11   58.49
  -2  12   3  795.72   57.99
  -2  12   3  898.11   58.39
   2  12  -3  793.02   58.29
   1 -12  -3  234.48   19.30
   1  12  -3  217.08   16.10
  -1  12   3  220.28   16.60
  -1  12   3  217.98   16.80
  -1  12   3  208.28   16.40
   1  12  -3  223.48   17.00
  -1  12   3  210.28   15.80
   1  12  -3  193.48   16.50
  -1  12   3  210.78   17.40
  -1  12   3  190.18   16.80
   0 -12  -3  132.09   12.30
   0 -12  -3  137.29   17.80
   0  12   3  136.39   11.30
   0  12   3  122.59   11.60
   0  12   3  125.29   11.10
   0  12   3  120.79   10.40
   0  12  -3  117.79   10.50
   0  12  -3  129.89   11.30
   0  12  -3  122.39   12.80
  -1 -12  -3  480.95   38.40
  -1 -12  -3  425.76   37.20
   1 -12   3  487.15   35.80
  -1 -12  -3  473.55   35.20
  -1  12  -3  485.85   34.50
   1  12   3  499.45   34.80
  -1  12  -3  507.55   34.10
  -1  12  -3  526.95   35.60
   1  12   3  506.05   34.10
   1  12   3  504.65   34.40
  -2 -12  -3  756.82   52.19
   2 -12   3  707.33   53.79
  -2 -12  -3  779.82   50.69
  -2 -12  -3  724.73   50.79
   2 -12   3  778.52   50.59
  -2  12  -3  661.73   50.59
  -2  12  -3  670.83   50.49
   2  12   3  753.82   50.09
  -2  12  -3  810.42   51.19
  -3 -12  -3  466.15   35.00
  -3 -12  -3  494.35   33.20
   3 -12   3  491.85   33.20
   3 -12   3  476.15   35.70
  -3  12  -3  445.56   33.00
   3  12   3  489.85   32.90
   3  12   3  469.85   32.90
  -3  12  -3  484.35   32.70
   3 -13  -3   23.00    4.00
   3 -13  -3   16.10    4.50
   3 -13  -3   20.70    3.30
  -3  13   3   16.30    3.30
   3  13  -3   14.10    4.10
  -2  13   3  128.09   10.30
  -2  13   3  121.29   11.40
   2  13  -3  118.89   10.70
  -2  13   3  113.39    9.60
   2  13  -3  129.39   10.40
   1 -13  -3  323.27   25.80
   1 -13  -3  310.47   23.60
   1 -13  -3  318.37   24.90
  -1  13   3  331.77   23.20
  -1  13   3  329.77   23.70
   1  13  -3  318.27   23.10
   1  13  -3  324.07   23.40
  -1  13   3  326.57   23.60
   1  13  -3  342.27   23.60
   0 -13  -3  991.50   70.49
   0 -13  -3  945.11   72.29
   0 -13  -3  916.21   70.79
   0  13   3 1104.09   71.09
   0  13  -3 1036.90   70.79
   0  13  -3 1107.19   71.69
   0  13   3 1027.00   71.09
   0  13  -3 1142.19   70.59
   0  13   3 1101.49   72.79
  -1 -13  -3   97.49   10.00
  -1 -13  -3   97.69    9.70
  -1  13  -3  120.69    9.90
  -1  13  -3   91.59   10.00
   1  13   3  108.89    9.70
   1  13   3  104.69    8.80
   1  13   3  110.09    8.90
  -1  13  -3  102.89   10.50
   1  13   3  115.39    9.70
   2 -13   3   18.70    5.10
  -2 -13  -3   17.20    4.70
   2 -13   3   15.00    6.80
  -2 -13  -3   17.10    4.20
  -2 -13  -3   20.20    7.60
   2  13   3   23.60    4.20
  -2  13  -3   28.20    5.20
   2  13   3   27.80    4.90
  -2  13  -3   26.30    4.60
   3 -13   3  126.79   10.50
   3 -13   3  138.09   14.10
  -3 -13  -3  124.99   11.20
  -3 -13  -3  121.89   10.50
  -3  13  -3  147.79   10.40
   3  13   3  158.98   10.90
  -3  13  -3  141.69   10.20
   3  13   3  130.69   10.50
   2 -14  -3  359.96   27.40
   2 -14  -3  407.16   34.00
   2 -14  -3  408.16   27.70
   2  14  -3  353.26   27.50
  -2  14   3  427.26   27.70
  -2  14   3  431.86   27.20
   2  14  -3  384.56   27.50
   1 -14  -3  125.39   10.20
   1 -14  -3  128.49   10.20
   1 -14  -3  113.99   21.60
   1  14  -3  103.29    9.50
  -1  14   3  117.29    9.60
   1  14  -3  115.79    9.60
   1  14  -3  122.09   10.10
  -1  14   3  125.59    9.20
  -1  14   3  122.49    9.90
   0  14   3   29.70    5.00
   0  14  -3   21.80    4.50
   0  14  -3   36.20    4.70
   0  14  -3   28.60    5.30
   0  14   3   28.90    4.40
   0  14   3   25.50    4.40
  -1 -14  -3  481.15   30.10
  -1 -14  -3  474.95   30.60
   1  14   3  403.06   29.50
  -1  14  -3  399.16   29.10
  -1  14  -3  406.76   29.60
   1  14   3  415.86   29.10
   1  14   3  383.06   29.20
  -2 -14  -3  505.65   36.50
   2 -14   3  516.85   37.30
  -2 -14  -3  535.15   36.20
   2  14   3  573.84   36.50
  -2  14  -3  521.25   35.90
  -2  14  -3  520.15   36.30
   1 -15  -3  412.56   33.50
  -1  15   3  520.15   32.90
   1  15  -3  519.15   33.60
  -1  15   3  454.05   32.40
   1  15  -3  463.25   33.30
  -1  15   3  494.25   33.40
   0 -15  -3  163.98   14.20
   0  15   3  212.78   13.60
   0  15  -3  182.58   13.80
   0  15   3  208.68   14.30
   0  15  -3  187.98   13.60
   0  15   3  184.58   13.80
   0  15  -3  194.68   15.20
  -1 -15  -3  304.77   21.00
  -1 -15  -3  310.67   22.60
  -1  15  -3  263.87   20.30
   1  15   3  286.47   20.60
   1  15   3  306.97   21.40
   1  15   3  303.27   20.40
  -1  15  -3  288.87   20.60
   5   0  -4  576.34   41.10
  -5   0   4  557.84   40.00
   5   0  -4  582.44   40.30
  -5   0   4  564.44   39.70
  -5   0   4  568.94   41.70
  -5   0   4  560.94   50.09
   4   0  -4  567.64   42.10
   4   0  -4  589.54   42.90
  -4   0   4  584.54   42.20
  -4   0   4  582.24   41.20
  -4   0   4  580.54   43.50
  -4   0   4  695.83   48.20
  -4   0   4  573.44   42.90
  -3   0   4  113.39   10.90
   3   0  -4  100.69   11.70
  -3   0   4  107.79    9.70
  -3   0   4  107.69   11.80
  -3   0   4  118.79   10.80
   3   0  -4  107.99    8.50
   3   0  -4   99.29   11.40
  -2   0   4  711.83   54.29
  -2   0   4  623.64   46.00
   2   0  -4  673.83   51.49
  -2   0   4  667.73   51.99
   2   0  -4  697.63   45.80
  -2   0   4  640.84   46.30
  -2   0   4  718.43   46.80
   1   0  -4 1047.40   76.29
   1   0  -4 1125.99   72.39
  -1   0   4 1143.99   73.09
  -1   0   4 1009.40   76.39
   1   0  -4 1098.19   72.69
  -1   0   4 1048.90   76.19
   0   0   4 3395.76  235.38
   0   0   4 3539.85  236.08
   0   0   4 3533.55  238.78
   0   0   4 3611.54  239.18
   0   0  -4 3506.65  235.78
   0   0  -4 3626.54  235.28
   0   0  -4 3521.25  239.18
   1   0   4  895.41   66.69
  -1   0  -4  929.31   66.89
   1   0   4  890.71   63.39
  -1   0  -4  920.81   63.99
  -1   0  -4  998.40   63.09
  -2   0  -4   45.70    5.30
   2   0   4   48.10   15.50
  -2   0  -4   71.99   21.30
   2   0   4   46.70    6.10
  -2   0  -4   43.40   12.70
   2   0   4   53.39    6.80
   2   0   4   50.39    6.50
  -2   0  -4   49.60    7.70
  -2   0  -4   46.30    8.00
   2   0   4   47.50    6.40
  -2   0  -4   42.50    8.50
  -3   0  -4  594.04   43.40
  -3   0  -4  655.53   43.20
  -3   0  -4  607.44   42.80
   3   0   4  621.74   44.50
  -3   0  -4  624.94   43.90
   3   0   4  662.73   44.10
  -3   0  -4  557.04   45.70
   3   0   4  621.34   42.60
  -4   0  -4 1022.30   67.59
  -4   0  -4  984.20   68.19
   4   0   4 1044.70   66.59
   4   0   4  880.51   68.49
   4   0   4  900.31   64.69
  -4   0  -4 1012.80   66.59
  -4   0  -4  869.91   66.89
  -5   0  -4  634.84   41.60
  -5   0  -4  620.44   43.50
   5   0   4  563.24   41.40
  -5   0  -4  556.44   43.80
  -5  -1   4   72.59   10.40
  -5  -1   4   70.99   10.20
   5  -1  -4   69.79   10.00
  -5  -1   4   82.29    8.20
   5  -1  -4   65.49   10.30
  -5   1   4   82.79   12.90
  -5   1   4   55.09   16.90
   5   1  -4   63.19   11.80
   5   1  -4   70.19    8.70
  -5   1   4   56.89    9.30
  -5   1   4   61.69    7.10
   4  -1  -4  538.55   48.30
   4  -1  -4  551.94   51.29
  -4   1   4  703.73   47.00
   4   1  -4  707.03   48.30
   4   1  -4  705.73   48.70
  -4   1   4  715.83   55.29
  -4   1   4  735.63   49.60
  -4   1   4  732.73   47.70
  -4   1   4  668.03   49.40
  -4   1   4  718.43   51.59
  -4   1   4  723.63   49.30
  -3  -1   4 2008.00  120.69
   3  -1  -4 2010.80  121.39
  -3  -1   4 2041.50  121.49
   3  -1  -4 1982.30  121.99
   3  -1  -4 2038.10  120.99
   3   1  -4 1559.54  121.29
  -3   1   4 1637.44  121.19
  -3   1   4 1617.64  120.79
   3   1  -4 1630.04  120.99
  -3   1   4 1571.84  120.39
  -3   1   4 1664.83  121.69
  -2  -1   4 1014.20   62.89
  -2  -1   4  946.91   62.69
  -2  -1   4 1001.70   67.89
  -2  -1   4  916.01   62.29
   2  -1  -4 1001.10   62.59
   2  -1  -4  988.00   68.79
  -2  -1   4 1042.40   67.59
  -2   1   4  856.41   67.99
  -2   1   4  825.52   62.59
  -2   1   4  870.21   62.99
  -2   1   4  799.22   62.09
  -2   1   4  847.12   68.29
   2   1  -4  877.91   66.89
  -1  -1   4  796.82   52.59
   1  -1  -4  819.82   51.69
  -1  -1   4  770.52   54.69
  -1  -1   4  763.92   56.19
  -1  -1   4  776.82   51.39
   1  -1  -4  757.52   51.79
   1  -1  -4  767.62   55.69
  -1   1   4  738.43   51.69
  -1   1   4  725.63   55.79
   1   1  -4  758.12   54.59
  -1   1   4  678.13   51.09
  -1   1   4  713.13   55.19
   0  -1  -4  679.43   48.10
   0  -1   4  689.13   51.09
   0  -1   4  721.93   47.40
   0  -1  -4  719.53   51.89
   0  -1   4  695.83   50.39
   1  -1   4  558.94   41.60
  -1  -1  -4  565.24   40.80
  -1  -1  -4  589.94   41.30
  -1  -1  -4  593.34   41.00
   1  -1   4  584.54   44.60
   1  -1   4  539.45   40.50
  -1   1  -4  668.83   42.10
   1   1   4  661.93   46.20
  -1   1  -4  595.54   50.29
   1   1   4  633.74   41.60
  -2  -1  -4 1497.15  101.99
   2  -1   4 1554.74   95.09
   2  -1   4 1540.05   93.99
  -2  -1  -4 1499.75   94.59
   2  -1   4 1452.95  100.89
  -2  -1  -4 1388.86   94.29
   2  -1   4 1523.75   94.19
  -2  -1  -4 1443.26   93.69
  -2  -1  -4 1466.55   94.09
  -2  -1  -4 1358.46   95.49
  -2  -1  -4 1530.85   94.49
   2   1   4 1287.77   93.99
   2   1   4 1243.18   94.69
   2   1   4 1276.77   93.89
   2   1   4 1237.58  100.99
  -2   1  -4 1203.28   94.99
  -2   1  -4 1243.58  100.19
  -2   1  -4 1500.55   94.29
  -2   1  -4 1228.18   95.19
   3  -1   4  909.61   60.89
  -3  -1  -4  879.41   61.79
   3  -1   4  864.61   62.89
  -3  -1  -4  757.72   65.39
  -3  -1  -4  893.91   61.39
   3  -1   4  900.31   62.19
  -3  -1  -4  887.91   61.09
  -3  -1  -4  889.21   62.39
  -3  -1  -4  865.91   62.09
  -3   1  -4  884.01   61.59
  -3   1  -4  896.61   62.99
   3   1   4  917.91   62.69
  -3   1  -4  916.51   61.29
  -3   1  -4  956.10   63.29
  -3   1  -4  924.51   62.19
   3   1   4  903.61   60.89
   3   1   4  994.50   62.09
  -3   1  -4  892.21   61.39
  -4  -1  -4  144.59   13.40
  -4  -1  -4  126.49   16.30
  -4  -1  -4  143.69   15.70
   4  -1   4  132.29   12.00
  -4  -1  -4  137.09   12.40
   4  -1   4  162.98   13.90
   4  -1   4  137.29   19.90
  -4   1  -4  164.28   13.90
  -4   1  -4  166.48   15.80
   4   1   4  142.09   18.90
  -4   1  -4  151.48   15.70
  -5   1  -4  142.49   13.60
  -5   1  -4  152.38   13.70
   5   1   4  134.59   12.70
  -5   1  -4  153.78   15.20
  -5  -2   4  387.96   30.00
   5  -2  -4  367.46   28.50
  -5  -2   4  369.36   28.10
   5  -2  -4  370.76   28.90
  -5  -2   4  402.46   27.90
   5   2  -4  397.46   28.80
  -5   2   4  368.26   27.70
   5   2  -4  401.56   28.10
  -5   2   4  390.76   34.30
  -5   2   4  370.66   29.20
   4   2  -4  428.06   30.60
  -4   2   4  416.96   31.30
   4   2  -4  441.86   31.40
  -4   2   4  401.96   35.40
  -4   2   4  418.66   32.80
  -4   2   4  410.06   32.90
  -4   2   4  413.76   30.00
  -4   2   4  403.56   29.60
  -4   2   4  411.96   31.80
   3  -2  -4   56.49    9.20
  -3  -2   4   39.80    7.20
  -3  -2   4   55.69    9.10
   3  -2  -4   52.79    9.80
  -3  -2   4   41.80    7.00
  -3  -2   4   43.70    7.70
   3  -2  -4   50.39    6.30
   3  -2  -4   33.60    6.20
  -3   2   4   58.09   14.80
  -3   2   4   46.00    6.70
  -3   2   4   44.30    6.90
   3   2  -4   43.90    7.10
   3   2  -4   49.30    8.50
  -3   2   4   48.70    6.50
  -3   2   4   49.99    8.70
  -3   2   4   46.70    8.40
   2  -2  -4  843.22   59.59
  -2  -2   4  806.32   59.89
  -2  -2   4  764.02   63.19
  -2  -2   4  803.72   63.39
  -2  -2   4  850.81   59.69
   2  -2  -4  777.52   65.49
   2  -2  -4  797.32   59.79
  -2   2   4  988.10   59.29
   2   2  -4  989.00   64.19
  -2   2   4 1008.70   67.09
  -2   2   4 1005.80   59.89
   1  -2  -4 1936.21  138.49
  -1  -2   4 1979.70  133.99
  -1  -2   4 1854.71  136.09
   1  -2  -4 1992.90  134.19
  -1  -2   4 1993.80  133.79
  -1  -2   4 1896.61  136.49
   1  -2  -4 2064.79  134.19
  -1   2   4 2073.49  134.09
  -1   2   4 2079.89  134.59
  -1   2   4 2113.09  139.29
  -1   2   4 2041.30  138.79
   0  -2   4  964.50   72.99
   0  -2  -4  972.90   72.89
   0  -2  -4 1008.80   76.99
   0  -2   4  987.40   72.29
   0  -2   4 1020.40   74.59
   0  -2  -4  993.00   72.79
   0   2   4 1205.68   72.89
   0   2   4 1206.38   73.29
   0   2   4 1193.78   77.59
   0   2   4 1175.08   78.19
   0   2   4 1091.39   72.49
   0   2  -4 1136.19   75.89
  -1  -2  -4  877.11   57.49
   1  -2   4  753.82   55.99
  -1  -2  -4  747.83   60.99
   1  -2   4  740.03   56.79
   1  -2   4  772.52   59.09
  -1   2  -4  906.11   60.29
  -1   2  -4  796.12   55.69
  -1   2  -4  933.11   55.39
   1   2   4  906.31   56.89
   1   2   4  853.81   62.09
   2  -2   4   40.60    7.70
   2  -2   4   52.49    6.70
  -2  -2  -4   35.90    9.80
  -2  -2  -4   37.50    5.80
   2  -2   4   38.70    5.90
   2  -2   4   28.10   12.50
  -2  -2  -4   44.50    6.80
  -2  -2  -4   44.80    7.50
   2  -2   4   43.20    5.40
  -2  -2  -4   35.30    6.30
  -2   2  -4   50.59    6.90
  -2   2  -4   52.69   10.50
  -2   2  -4   42.30    7.60
   2   2   4   51.29    7.20
  -2   2  -4   39.00   15.40
  -2   2  -4   51.89    5.20
   2   2   4   45.90    6.70
   2   2   4   48.80    8.80
   2   2   4   48.80   16.50
  -2   2  -4   60.89   11.00
   2   2   4   52.49    6.60
   3  -2   4  629.04   41.90
   3  -2   4  643.14   42.30
   3  -2   4  599.34   43.60
  -3  -2  -4  655.63   43.00
  -3  -2  -4  624.64   43.60
   3  -2   4  643.44   44.50
   3  -2   4  631.84   43.20
  -3  -2  -4  611.34   47.10
  -3  -2  -4  638.24   42.50
  -3  -2  -4  623.94   43.80
  -3   2  -4  563.84   44.20
  -3   2  -4  557.34   42.60
  -3   2  -4  667.03   42.60
  -3   2  -4  573.84   43.90
   3   2   4  534.25   42.80
  -3   2  -4  552.34   43.10
   4  -2   4  611.24   44.50
  -4  -2  -4  625.94   45.50
  -4  -2  -4  561.44   47.40
  -4  -2  -4  654.23   44.90
  -4  -2  -4  651.13   46.40
   4  -2   4  542.55   45.20
   4  -2   4  589.04   48.80
   4  -2   4  633.34   45.40
   4   2   4  746.73   45.80
  -4   2  -4  712.73   47.40
  -4   2  -4  692.43   46.00
  -4   2  -4  684.03   47.00
   4   2   4  716.43   46.00
  -5  -2  -4  339.37   24.10
  -5  -2  -4  357.36   29.60
  -5   2  -4  345.17   24.50
   5   2   4  306.87   24.30
  -5   2  -4  308.97   25.10
  -5   2  -4  344.87   26.20
  -5  -3   4   27.40    5.90
  -5  -3   4   24.80    7.00
  -5  -3   4   34.50    6.20
   5  -3  -4   32.50    5.80
   5  -3  -4   28.10    6.40
  -5  -3   4    9.70   11.10
  -4  -3   4  766.32   47.40
  -4  -3   4  757.22   48.00
  -4  -3   4  686.23   50.99
  -4  -3   4  726.23   48.50
   4  -3  -4  763.72   48.50
   4  -3  -4  715.03   47.70
   4  -3  -4  754.12   47.40
   4   3  -4  635.74   47.40
  -4   3   4  575.04   50.19
   4   3  -4  618.74   46.80
  -4   3   4  596.34   45.80
  -4   3   4  597.14   46.00
  -4   3   4  606.04   51.09
  -4   3   4  613.34   47.90
  -4   3   4  589.04   46.30
   3  -3  -4 1212.48   80.69
  -3  -3   4 1142.69   79.99
   3  -3  -4 1283.67   80.39
  -3  -3   4 1152.68   78.89
  -3  -3   4 1208.68   79.69
   3  -3  -4 1028.20   78.99
   3  -3  -4 1268.27   79.09
  -3  -3   4 1192.38   80.89
   3  -3  -4 1181.78   79.79
  -3   3   4 1134.29   80.19
   3   3  -4 1153.08   79.59
  -3   3   4 1168.28   79.09
  -3   3   4 1182.28   80.69
  -3   3   4 1073.89   78.59
   3   3  -4 1137.49   79.99
  -3   3   4 1145.59   79.29
   2  -3  -4 2636.24  172.98
   2  -3  -4 2655.93  165.68
   2  -3  -4 2612.44  165.78
  -2  -3   4 2638.54  165.48
  -2  -3   4 2410.76  165.08
  -2  -3   4 2614.24  167.68
  -2  -3   4 2592.74  169.08
   2  -3  -4 2512.85  166.38
   2  -3  -4 2537.75  164.88
   2  -3  -4 2516.35  165.28
  -2  -3   4 2573.74  169.38
  -2   3   4 2330.77  165.18
  -2   3   4 2439.86  165.88
  -2   3   4 2329.77  172.88
  -2   3   4 2278.57  164.78
  -2   3   4 2385.36  165.38
   2   3  -4 2304.17  168.48
  -2   3   4 2239.48  165.28
  -2   3   4 2311.27  171.88
  -1  -3   4  134.89   10.50
   1  -3  -4  128.69   10.80
  -1  -3   4  142.39   12.70
   1  -3  -4  131.79   17.90
  -1  -3   4  146.89   13.50
  -1  -3   4  146.79   11.40
  -1   3   4  103.99   20.30
   0  -3  -4  133.89   16.70
   0  -3   4  133.79   12.00
   0  -3   4  134.39   10.00
   0  -3   4  129.19   13.90
   0  -3  -4  131.89   10.50
   0  -3   4  131.49   11.50
   0  -3  -4  136.19   11.10
   1  -3   4 2878.41  189.88
   1  -3   4 3039.70  190.78
  -1  -3  -4 2838.92  195.78
  -1  -3  -4 2778.42  191.08
   1  -3   4 2991.10  193.08
  -1  -3  -4 2875.61  189.88
  -1  -3  -4 3010.60  190.38
   1   3   4 2829.12  195.98
   1   3   4 2680.43  190.08
   1   3   4 2686.33  190.38
  -1   3  -4 2699.63  193.38
  -2  -3  -4 1650.63  116.59
   2  -3   4 1737.63  114.79
   2  -3   4 1740.33  115.19
  -2  -3  -4 1715.83  125.39
   2  -3   4 1798.62  115.39
  -2  -3  -4 1804.92  115.79
  -2  -3  -4 1598.64  117.89
  -2  -3  -4 1723.23  115.29
  -2  -3  -4 1650.43  115.39
   2  -3   4 1844.22  116.39
  -2   3  -4 1725.53  116.69
   2   3   4 1669.83  115.39
   2   3   4 1705.73  114.99
  -2   3  -4 1640.94  116.09
  -2   3  -4 1899.41  115.59
  -2   3  -4 1634.24  116.19
   2   3   4 1658.63  116.09
   2   3   4 1731.93  115.59
   2   3   4 1549.05  145.89
  -2   3  -4 1773.12  114.89
  -3  -3  -4  673.53   49.00
  -3  -3  -4  651.13   50.59
  -3  -3  -4  664.13   49.90
   3  -3   4  703.43   50.99
   3  -3   4  669.83   48.30
  -3  -3  -4  655.43   51.69
  -3  -3  -4  671.33   49.20
  -3   3  -4  742.83   49.99
  -3   3  -4  775.92   48.70
   3   3   4  753.02   49.80
  -3   3  -4  748.93   50.89
   3   3   4  706.33   49.10
  -3   3  -4  779.22   50.99
  -4  -3  -4   60.69   10.50
   4  -3   4   45.70   13.10
  -4  -3  -4   72.79   14.10
  -4  -3  -4   69.29    8.90
   4  -3   4   60.19   15.00
  -4  -3  -4   65.39   18.60
   4  -3   4   71.59   11.20
   4  -3   4   64.19    7.30
  -4  -3  -4   72.09    7.60
   4   3   4   67.29   14.30
  -4   3  -4   73.29   10.50
   4   3   4   62.59    9.40
  -4   3  -4   63.49   10.10
  -4   3  -4   70.09   10.10
  -5  -3  -4   18.10   13.00
  -5  -3  -4   39.00    7.20
  -5   3  -4   30.60    5.60
  -5   3  -4   40.30    7.20
   5   3   4   36.90    7.70
  -5   3  -4   23.10    6.20
  -5  -4   4  575.94   40.10
  -5  -4   4  561.14   40.90
   5  -4  -4  643.74   41.80
  -5  -4   4  599.44   40.00
   5  -4  -4  583.54   40.50
  -5  -4   4  589.44   42.40
   5   4  -4  554.34   40.30
  -5   4   4  524.45   41.50
  -5   4   4  529.05   40.20
  -5   4   4  561.44   43.00
   5   4  -4  590.04   40.40
   4  -4  -4  114.79   13.90
  -4  -4   4   98.39   15.80
  -4  -4   4  109.19   11.50
  -4  -4   4  105.99   13.40
   4  -4  -4  105.19   12.20
   4  -4  -4   96.49   13.70
  -4   4   4  146.99   20.50
  -4   4   4  128.89   13.00
  -4   4   4  108.99   16.60
   4   4  -4  124.29   12.40
   4   4  -4  110.79   12.60
  -4   4   4  125.49   11.50
  -4   4   4  134.29   10.30
  -3  -4   4   55.79    7.50
   3  -4  -4   51.29    9.00
   3  -4  -4   44.80   10.00
   3  -4  -4   62.79    8.90
  -3  -4   4   52.59    9.00
  -3  -4   4   54.49    7.50
  -3   4   4   58.49   11.80
   3   4  -4   49.99   10.60
  -3   4   4   33.30    7.50
   3   4  -4   37.60    8.10
  -3   4   4   41.70    9.40
   2  -4  -4  518.45   42.90
   2  -4  -4  505.05   32.50
  -2  -4   4  503.95   36.00
   2   4  -4  387.16   33.60
  -2   4   4  399.16   30.00
  -2   4   4  387.06   30.10
  -2   4   4  414.26   30.40
  -2   4   4  367.96   41.30
  -2   4   4  457.75   31.00
  -2   4   4  395.16   30.70
   2   4  -4  398.86   31.20
  -2   4   4  406.36   30.00
  -1  -4   4 1480.95   96.69
   1  -4  -4 1408.96   96.49
  -1  -4   4 1441.56   96.39
   1  -4  -4 1499.55  105.69
  -1  -4   4 1472.75   95.79
   1  -4  -4 1374.66   95.89
  -1   4   4 1358.56  101.89
  -1   4   4 1405.86  102.09
  -1   4   4 1437.36   96.39
  -1   4   4 1394.36   96.09
   0  -4  -4 2163.58  151.78
   0  -4   4 2165.08  150.78
   0  -4   4 2278.27  152.28
   0  -4  -4 2168.38  151.68
   0  -4   4 2156.38  153.08
   0  -4  -4 2353.46  157.18
   0  -4   4 2212.38  151.98
   0   4   4 2320.17  151.48
   0   4   4 2465.75  157.98
   0   4   4 2447.96  157.18
   0   4   4 2180.38  152.18
   1  -4   4   75.49    7.00
  -1  -4  -4   75.69    8.10
   1  -4   4   77.09    8.90
  -1  -4  -4   66.29    7.80
   1  -4   4   67.59   12.10
   1  -4   4   79.19    7.90
  -1  -4  -4   82.59   21.20
   1   4   4   70.89   19.30
   1   4   4   97.29   19.20
   1   4   4   83.39    7.20
  -1   4  -4   92.09   14.00
   2  -4   4   15.60    3.70
   2  -4   4   12.70    5.40
  -2  -4  -4   11.30   16.60
  -2  -4  -4   23.60    5.70
  -2  -4  -4   12.90    5.50
  -2  -4  -4   17.10    4.70
  -2  -4  -4   18.70    4.50
   2  -4   4    8.90    5.70
   2  -4   4   16.00    3.40
  -2   4  -4    9.90    6.80
  -2   4  -4    9.30    5.50
   2   4   4   16.70    5.50
  -2   4  -4   13.80    3.80
   2   4   4   21.00    6.20
  -2   4  -4    2.00    6.70
  -2   4  -4   15.00    4.50
  -3  -4  -4  221.18   18.30
   3  -4   4  201.18   19.90
  -3  -4  -4  205.68   27.00
   3  -4   4  222.68   15.70
  -3  -4  -4  215.98   19.60
   3  -4   4  203.38   17.60
  -3  -4  -4  227.98   16.50
  -3  -4  -4  251.67   21.20
  -3   4  -4  197.38   18.00
  -3   4  -4  204.28   16.80
  -3   4  -4  195.88   16.20
   3   4   4  191.18   17.70
  -3   4  -4  183.08   18.20
  -3   4  -4  198.98   18.50
   3   4   4  219.18   18.20
   3   4   4  205.28   18.10
   4  -4   4  824.52   53.69
   4  -4   4  803.32   53.79
  -4  -4  -4  836.22   53.79
  -4  -4  -4  791.72   54.29
  -4  -4  -4  796.72   56.69
  -4  -4  -4  808.22   53.89
   4  -4   4  769.42   55.29
  -4   4  -4  638.84   54.99
  -5  -4  -4  503.85   34.60
  -5   4  -4  497.35   35.10
  -5   4  -4  448.56   34.70
   5  -5  -4  111.19   10.40
   5  -5  -4  118.19   12.30
  -5  -5   4  106.29    8.60
  -5  -5   4  115.49   16.60
  -5  -5   4  109.09    9.80
  -5   5   4   77.89   13.70
   5   5  -4   87.19    9.60
  -5   5   4   75.89    9.20
   5   5  -4   83.09   11.00
   4  -5  -4  533.55   36.50
   4  -5  -4  485.45   34.90
  -4  -5   4  533.45   36.70
   4  -5  -4  465.85   37.60
  -4  -5   4  529.15   35.80
   4  -5  -4  510.65   37.20
  -4  -5   4  507.55   37.10
  -4  -5   4  504.25   35.10
   4   5  -4  488.95   36.10
  -4   5   4  469.65   37.00
   4   5  -4  546.55   36.00
  -4   5   4  434.86   37.70
   4   5  -4  487.95   36.30
  -4   5   4  489.05   35.40
  -4   5   4  480.65   39.80
   3  -5  -4 1283.87   93.99
   3  -5  -4 1330.67   92.89
   3  -5  -4 1265.37   94.39
   3  -5  -4 1250.27   92.39
  -3  -5   4 1320.17   93.09
   3  -5  -4 1230.18   93.69
  -3  -5   4 1331.47   93.19
  -3   5   4 1386.26   93.79
  -3   5   4 1594.54   94.89
  -3   5   4 1444.76   94.19
  -3   5   4 1432.16   92.89
   3   5  -4 1519.95   94.49
   3   5  -4 1438.66   93.69
  -3   5   4 1363.46   95.39
   2  -5  -4  772.52   50.79
   2  -5  -4  741.43   52.79
  -2  -5   4  754.82   54.39
   2  -5  -4  714.23   65.19
  -2  -5   4  734.93   50.99
   2  -5  -4  746.63   53.19
   2  -5  -4  782.02   51.89
   2  -5  -4  810.22   51.89
  -2   5   4  723.23   51.29
   2   5  -4  733.43   52.19
  -2   5   4  740.03   51.29
   2   5  -4  703.43   51.69
  -2   5   4  752.82   50.59
  -2   5   4  723.43   51.19
  -2   5   4  700.63   53.29
  -2   5   4  729.83   50.99
   1  -5  -4  425.46   32.60
   1  -5  -4  432.26   32.50
   1  -5  -4  425.86   40.90
  -1   5   4  459.15   39.90
  -1   5   4  459.55   31.80
  -1   5   4  528.15   36.00
  -1   5   4  471.95   41.40
   0  -5   4  466.05   33.50
   0  -5  -4  477.95   34.50
   0  -5   4  480.45   33.90
   0  -5  -4  463.25   34.00
   0  -5  -4  495.75   41.70
   0  -5   4  445.66   34.20
   0   5   4  584.04   45.00
   0   5   4  557.74   42.00
  -1  -5  -4  712.33   70.79
   1  -5   4  697.63   55.59
  -1  -5  -4  641.24   52.59
   1  -5   4  700.73   51.79
   1  -5   4  689.33   52.59
  -1  -5  -4  677.73   52.29
  -1  -5  -4  719.23   52.89
   1   5   4  806.52   62.79
  -1   5  -4  846.52   56.99
  -1   5  -4  849.72   51.79
  -1   5  -4  844.02   54.69
   1   5   4  871.71   52.59
  -1   5  -4  866.91   52.29
  -2  -5  -4 2019.20  135.49
  -2  -5  -4 1884.71  135.09
   2  -5   4 2031.30  134.99
   2  -5   4 2021.60  134.99
  -2  -5  -4 2019.30  136.59
   2  -5   4 2038.90  134.49
   2  -5   4 2017.60  136.29
  -2  -5  -4 1996.70  135.09
  -2   5  -4 2044.90  136.79
   2   5   4 2084.19  134.19
   2   5   4 2174.08  135.19
  -2   5  -4 2145.99  134.59
   2   5   4 1777.82  135.49
  -2   5  -4 1835.62  135.49
  -2   5  -4 2174.38  135.09
   2   5   4 1931.11  135.29
  -2   5  -4 1952.50  135.69
  -3  -5  -4  790.72   51.59
   3  -5   4  830.42   52.19
   3  -5   4  788.12   55.09
  -3  -5  -4  698.63   53.09
   3  -5   4  817.62   51.39
  -3  -5  -4  793.12   51.89
  -3   5  -4  720.33   51.09
  -3   5  -4  727.33   53.09
   3   5   4  633.54   51.99
   3   5   4  724.53   52.19
  -3   5  -4  723.23   53.29
  -3   5  -4  750.62   51.49
  -3   5  -4  670.23   52.19
  -4  -5  -4    5.80    3.70
  -4  -5  -4    4.20    3.70
   4  -5   4   19.70    9.90
   4  -5   4    7.30    3.20
   4  -5   4   12.00    4.20
  -4  -5  -4    9.30   10.20
   4   5   4   15.10    6.80
  -5  -5  -4   57.19    7.70
   5   5   4   53.59    8.40
  -5   5  -4   50.19    6.90
  -5   5  -4   56.09    8.40
  -5  -6   4  415.16   34.40
   5  -6  -4  465.25   31.50
  -5  -6   4  455.65   30.80
  -5  -6   4  494.95   32.30
  -5   6   4  439.36   32.50
   5   6  -4  446.96   31.10
  -5   6   4  437.86   31.10
  -5   6   4  380.46   32.00
   5   6  -4  394.26   31.50
  -4  -6   4  350.36   23.80
   4  -6  -4  351.56   26.60
  -4  -6   4  340.17   29.10
   4  -6  -4  334.97   24.80
   4  -6  -4  335.17   24.40
  -4  -6   4  335.07   25.40
   4  -6  -4  321.17   27.70
  -4   6   4  296.47   23.80
   4   6  -4  291.37   25.80
   4   6  -4  329.97   24.70
  -4   6   4  318.87   27.20
  -4   6   4  309.17   25.20
   3  -6  -4   70.19   13.20
   3  -6  -4   66.79    9.10
  -3  -6   4   64.59    9.70
   3  -6  -4   83.69   11.00
   3  -6  -4   80.89   10.50
   3   6  -4   69.69   10.80
   3   6  -4   53.89   12.00
  -3   6   4   77.69   15.10
  -3   6   4   85.49   10.10
  -3   6   4   76.09    8.50
   3   6  -4   75.89   10.40
  -3   6   4   85.59   13.00
  -3   6   4   61.89   13.40
  -2   6   4  398.66   28.90
  -2   6   4  416.36   29.40
  -2   6   4  422.46   30.70
   2   6  -4  389.16   29.90
   2   6  -4  401.86   30.00
  -2   6   4  409.86   28.80
  -2   6   4  404.16   31.70
  -2   6   4  399.46   29.40
   1  -6  -4 2407.86  149.39
   1  -6  -4 2347.77  148.49
   1  -6  -4 2269.57  158.48
   1  -6  -4 2403.76  149.19
   1  -6  -4 2394.56  149.69
  -1   6   4 2218.38  148.99
  -1   6   4 2246.48  148.29
  -1   6   4 1867.91  157.78
  -1   6   4 2126.79  148.59
  -1   6   4 2005.40  150.08
  -1   6   4 2089.19  148.69
   0  -6  -4  808.42   72.69
   0  -6  -4  842.62   57.89
   0  -6  -4  908.11   57.59
   0   6   4  826.22   57.29
   0   6   4  857.61   59.29
   0   6  -4  837.62   56.69
   0   6   4  812.02   65.49
   0   6   4  807.52   56.49
  -1  -6  -4  870.31   59.69
  -1  -6  -4  880.71   58.99
   1  -6   4  860.21   58.89
  -1  -6  -4  825.22   59.59
   1  -6   4  771.42   60.29
  -1   6  -4  915.01   61.59
  -1   6  -4  909.41   59.39
   1   6   4  851.61   61.09
   1   6   4  928.41   59.59
   1   6   4  865.71   59.99
  -1   6  -4  888.41   58.89
   2  -6   4  119.19   16.80
  -2  -6  -4  112.89    9.60
   2  -6   4  119.69    9.90
   2  -6   4  109.19   12.30
  -2  -6  -4  114.89   13.60
  -2  -6  -4  115.09   10.80
  -2   6  -4   78.99   14.20
  -2   6  -4  109.29   10.30
  -2   6  -4   77.09   15.50
   2   6   4   97.49   11.10
   2   6   4   94.09   12.30
   3  -6   4  576.54   35.90
   3  -6   4  591.24   35.40
  -3  -6  -4  516.25   41.20
  -3  -6  -4  529.05   38.20
   3  -6   4  547.75   44.30
  -3  -6  -4  554.94   36.50
   3   6   4  440.86   36.90
  -3   6  -4  441.26   37.60
  -3   6  -4  461.85   35.20
  -3   6  -4  456.35   37.30
  -3   6  -4  474.05   35.80
  -4  -6  -4  744.03   53.79
  -4  -6  -4  783.52   53.89
   4  -6   4  743.03   53.69
   4  -6   4  769.12   53.39
  -4  -6  -4  766.42   54.59
   4   6   4  790.42   54.29
  -4   6  -4  827.02   55.39
  -4   6  -4  835.62   55.99
  -5  -6  -4  400.56   28.70
  -5   6  -4  431.46   30.50
   5   6   4  421.56   29.60
  -5   6  -4  393.66   30.10
  -5  -7   4   26.90    6.50
   5  -7  -4   34.80    6.80
  -5  -7   4   35.20    5.80
  -5   7   4   41.90    6.40
  -5   7   4   54.29    9.50
  -5   7   4   44.70    6.90
   5   7  -4   39.50    6.80
   4  -7  -4  457.85   39.10
   4  -7  -4  478.55   34.50
  -4  -7   4  450.75   34.30
  -4  -7   4  459.45   33.00
  -4  -7   4  513.25   35.60
   4   7  -4  467.85   34.80
  -4   7   4  417.06   34.30
  -4   7   4  476.75   38.20
  -4   7   4  520.55   39.80
   3  -7  -4  893.31   62.49
   3  -7  -4  843.62   57.99
  -3  -7   4  920.51   59.09
   3  -7  -4  862.11   59.59
   3  -7  -4  785.52   64.39
  -3  -7   4  832.82   57.59
   3   7  -4  797.12   58.09
  -3   7   4  829.02   58.99
  -3   7   4  777.92   57.29
  -3   7   4  801.22   59.69
   2  -7  -4  620.44   47.10
   2  -7  -4  580.44   48.20
   2  -7  -4  618.84   48.20
  -2   7   4  759.92   47.20
  -2   7   4  749.73   46.10
  -2   7   4  751.02   47.40
  -2   7   4  653.53   55.79
   2   7  -4  714.13   48.20
  -1   7   4  100.49   13.90
   1   7  -4   89.29    9.10
  -1   7   4   89.69   13.60
  -1   7   4   94.89    9.90
  -1   7   4   96.59   10.50
  -1   7   4   98.89    9.90
   0  -7  -4  405.16   30.20
   0  -7  -4  396.46   30.80
   0  -7  -4  418.86   29.60
   0  -7  -4  451.45   32.60
   0   7   4  425.36   30.10
   0   7   4  421.76   30.50
   0   7   4  472.85   31.00
   0   7   4  418.06   30.40
   0   7  -4  421.66   30.00
   0   7   4  393.16   31.80
   0   7  -4  436.76   29.40
  -1  -7  -4  775.82   47.80
  -1  -7  -4  755.12   48.50
  -1  -7  -4  768.42   48.70
   1  -7   4  729.63   47.60
  -1  -7  -4  779.12   50.49
  -1   7  -4  624.74   47.80
  -1   7  -4  655.03   50.19
   1   7   4  621.34   48.20
   1   7   4  585.64   50.89
   1   7   4  658.23   48.00
   2  -7   4  992.70   66.49
  -2  -7  -4  931.91   69.79
  -2  -7  -4  978.00   66.69
  -2  -7  -4  966.90   67.19
   2   7   4  931.31   68.69
  -2   7  -4 1034.40   67.09
  -2   7  -4 1001.00   69.19
   2   7   4 1019.10   67.09
  -2   7  -4  956.80   67.59
  -2   7  -4 1018.90   66.49
   2   7   4  956.40   67.39
  -3  -7  -4  432.46   33.00
   3  -7   4  462.25   32.10
   3  -7   4  407.66   31.20
  -3  -7  -4  426.36   39.80
  -3  -7  -4  414.16   32.90
   3  -7   4  403.96   31.90
  -3  -7  -4  433.06   31.50
  -3   7  -4  463.25   31.70
   3   7   4  436.76   32.70
  -3   7  -4  462.95   32.70
  -3   7  -4  479.05   34.00
  -3   7  -4  471.85   31.10
  -4  -7  -4   88.59    7.90
   4  -7   4   93.49    8.40
   4  -7   4   84.29    7.80
  -4  -7  -4   73.69    8.00
  -4  -7  -4   84.69   16.60
  -4  -7  -4   81.89    9.20
   4  -7   4   78.79   19.10
  -4   7  -4   58.99   10.10
   4   7   4   59.69   11.30
  -4   7  -4   60.19    9.90
  -5  -8   4  415.06   30.50
  -5  -8   4  399.86   30.10
  -5  -8   4  449.46   32.90
   5  -8  -4  425.46   30.60
  -5   8   4  437.06   30.40
   5   8  -4  450.05   31.10
  -5   8   4  476.55   30.90
  -4  -8   4  229.78   17.40
  -4  -8   4  228.28   16.70
   4  -8  -4  209.18   18.00
   4  -8  -4  226.08   16.60
   4  -8  -4  222.38   19.10
  -4   8   4  212.38   17.10
  -4   8   4  210.78   18.90
  -4   8   4  233.28   19.70
   4   8  -4  218.78   17.70
   3  -8  -4   22.20   13.20
   3  -8  -4   26.20    9.50
  -3  -8   4   18.70    5.10
   3  -8  -4   25.20    7.80
   3  -8  -4   17.60    5.00
  -3   8   4   15.80    6.50
  -3   8   4    9.50    9.50
   3   8  -4    9.50    6.20
   2  -8  -4  714.83   58.29
   2  -8  -4  821.32   56.19
   2  -8  -4  837.92   57.09
   2  -8  -4  815.32   58.39
  -2   8   4  852.51   56.69
  -2   8   4  864.21   56.49
  -2   8   4  867.11   56.69
   2   8  -4  801.32   56.99
  -2   8   4  791.32   55.69
  -2   8   4  808.02   57.89
   1  -8  -4  995.50   63.89
   1  -8  -4  954.50   62.49
   1  -8  -4  986.50   61.69
   1  -8  -4  992.80   60.79
  -1   8   4  843.72   60.69
  -1   8   4  835.22   60.99
  -1   8   4  857.61   60.89
   1   8  -4  824.92   60.39
   1   8  -4  809.12   61.39
   1   8  -4  799.52   60.59
   0  -8  -4 1915.71  128.59
   0  -8  -4 1930.31  129.39
   0  -8  -4 1934.81  129.29
   0   8  -4 1903.61  128.89
   0   8  -4 1871.11  129.99
   0   8  -4 1968.60  128.49
   0   8   4 1949.60  129.09
   0   8   4 1932.31  128.89
   0   8   4 1851.41  130.09
  -1  -8  -4  439.46   34.90
  -1  -8  -4  485.85   34.90
  -1  -8  -4  448.06   37.40
  -1   8  -4  500.05   39.50
  -1   8  -4  542.55   34.40
   1   8   4  537.65   36.80
   1   8   4  423.76   36.10
   1   8   4  558.74   35.20
  -1   8  -4  443.96   36.00
  -1   8  -4  560.14   35.10
   2  -8   4   55.09   10.90
   2  -8   4   38.90    7.00
  -2  -8  -4   45.70    8.60
  -2  -8  -4   43.10    6.30
   2  -8   4   41.10    6.70
  -2  -8  -4   46.30    7.30
  -2  -8  -4   58.09   13.90
   2   8   4   31.30    6.70
  -2   8  -4   36.10    6.10
   2   8   4   28.20    7.20
  -2   8  -4   27.80    6.10
  -2   8  -4   37.30    8.50
   2   8   4   30.70    8.10
  -3  -8  -4  678.53   45.70
   3  -8   4  678.03   46.50
  -3  -8  -4  646.24   47.40
  -3  -8  -4  675.03   47.00
   3   8   4  652.63   46.80
  -3   8  -4  655.43   47.60
  -3   8  -4  636.04   45.50
   3   8   4  656.53   47.60
  -3   8  -4  625.24   46.30
  -3   8  -4  638.74   44.90
   4  -8   4  381.26   33.40
   4  -8   4  433.96   30.70
  -4  -8  -4  385.46   35.40
   4  -8   4  456.25   32.10
  -4  -8  -4  435.46   30.70
  -4  -8  -4  433.36   30.80
   4   8   4  485.85   32.00
   4   8   4  462.45   31.20
  -4   8  -4  452.05   32.70
  -4   8  -4  471.45   31.60
   4   8   4  431.56   30.60
   4  -9  -4  465.65   30.10
  -4  -9   4  405.26   30.90
  -4  -9   4  428.46   30.00
  -4  -9   4  428.36   32.30
  -4   9   4  417.06   30.00
  -4   9   4  420.46   31.30
   4   9  -4  423.76   30.80
  -4   9   4  440.66   31.90
   3  -9  -4  695.53   44.60
   3  -9  -4  736.23   47.30
   3  -9  -4  687.63   44.80
  -3  -9   4  662.23   44.30
   3  -9  -4  597.34   48.60
  -3  -9   4  661.53   44.60
  -3   9   4  563.54   45.70
   3   9  -4  562.24   44.80
  -3   9   4  566.84   44.10
   2  -9  -4  798.12   52.29
   2  -9  -4  760.02   54.49
   2  -9  -4  738.93   51.29
   2  -9  -4  814.12   50.39
  -2   9   4  598.04   53.79
  -2   9   4  666.33   52.69
  -2   9   4  700.63   49.60
   2   9  -4  742.63   51.99
  -2   9   4  717.63   50.09
  -2   9   4  727.33   50.49
  -2   9   4  704.33   50.49
   1  -9  -4    5.80    8.60
   1  -9  -4   10.50    4.00
   1  -9  -4    7.20    6.00
   1   9  -4   -2.40    4.70
  -1   9   4    2.00    3.70
   1   9  -4   13.60    7.10
  -1   9   4    9.70    7.00
  -1   9   4    3.70    5.00
  -1   9   4    8.00    4.60
   1   9  -4    8.20    3.80
  -1   9   4   15.30    6.90
   0  -9  -4  119.69   15.40
   0   9  -4   94.99    8.90
   0   9  -4   99.09   10.20
   0   9   4   85.49   12.00
   0   9   4   98.29   10.80
   0   9   4   96.89   10.20
   0   9   4   99.29   10.10
  -1  -9  -4 1567.14  104.19
  -1  -9  -4 1516.45  106.59
  -1  -9  -4 1631.94  103.39
   1   9   4 1521.15  103.49
   1   9   4 1693.63  105.69
  -1   9  -4 1424.36  103.59
  -1   9  -4 1504.75  103.49
  -1   9  -4 1366.16  108.79
   1   9   4 1476.25  104.49
   1   9   4 1614.24  103.79
  -1   9  -4 1538.55  103.09
  -2  -9  -4  666.53   45.00
   2  -9   4  661.83   44.30
  -2  -9  -4  687.33   44.60
   2  -9   4  672.53   47.50
   2   9   4  599.34   45.30
  -2   9  -4  589.34   43.30
   2   9   4  622.74   44.20
  -2   9  -4  593.34   43.90
   2   9   4  618.64   44.00
   2   9   4  597.94   43.90
  -3  -9  -4  459.15   32.70
   3  -9   4  452.75   32.60
  -3  -9  -4  440.46   34.60
   3  -9   4  450.65   34.10
  -3   9  -4  491.15   33.40
   3   9   4  495.65   33.30
   4  -9   4   39.30    4.40
   4  -9   4   38.00    6.30
  -4  -9  -4   41.50    5.10
  -4  -9  -4   31.00    5.60
   4   9   4   40.70    7.90
   4   9   4   38.50    4.60
  -4   9  -4   44.90    6.70
   4 -10  -4  168.58   13.70
   4 -10  -4  157.08   13.00
  -4 -10   4  172.88   14.80
   4  10  -4  186.58   13.70
  -4  10   4  202.08   13.50
   3 -10  -4   27.50    8.20
   3 -10  -4   50.69   11.30
   3 -10  -4   39.40    7.90
   3  10  -4   35.00    8.70
   2 -10  -4  218.58   19.70
   2 -10  -4  210.98   20.50
   2 -10  -4  222.48   19.20
   2 -10  -4  220.68   17.00
   2 -10  -4  218.48   24.50
  -2  10   4  196.18   15.90
  -2  10   4  217.98   16.70
   2  10  -4  212.78   17.70
  -2  10   4  215.78   18.20
  -2  10   4  206.18   18.70
  -2  10   4  213.58   16.50
  -2  10   4  193.98   16.80
   2  10  -4  201.68   17.70
   1 -10  -4 1471.25  107.69
   1 -10  -4 1433.96  105.69
   1 -10  -4 1391.06  112.69
   1 -10  -4 1474.15  106.49
   1  10  -4 1565.14  105.99
  -1  10   4 1630.44  105.69
   1  10  -4 1593.34  105.59
  -1  10   4 1678.03  106.39
   1  10  -4 1595.24  106.49
  -1  10   4 1660.43  106.69
  -1  10   4 1615.94  106.09
  -1  10   4 1609.14  107.39
  -1  10   4 1699.33  106.79
   0 -10  -4  766.82   51.69
   0 -10  -4  752.02   52.39
   0 -10  -4  748.33   52.79
   0  10  -4  729.03   52.29
   0  10   4  777.52   52.09
   0  10  -4  753.82   52.09
   0  10  -4  743.93   51.49
   0  10   4  759.22   52.29
   0  10   4  778.62   52.29
   0  10   4  734.33   53.09
  -1 -10  -4  280.57   22.30
  -1 -10  -4  265.17   21.30
  -1 -10  -4  282.57   20.70
   1 -10   4  263.87   21.00
  -1  10  -4  291.17   20.50
   1  10   4  282.47   21.40
  -1  10  -4  285.17   21.20
   1  10   4  298.87   21.10
   1  10   4  294.47   22.50
  -1  10  -4  260.17   21.90
   1  10   4  291.97   21.40
   2 -10   4   72.99    9.80
   2 -10   4   70.19   15.60
  -2 -10  -4   79.49   11.10
  -2 -10  -4   77.39    8.20
  -2  10  -4   85.89   12.80
  -2  10  -4   70.49    7.30
   2  10   4   65.99    8.50
  -2  10  -4   74.19    7.50
   2  10   4   67.89    9.00
   2  10   4   69.79    8.20
   2  10   4   67.69   13.90
  -3  10  -4  134.39   11.20
   3  10   4  127.79   11.80
   3  10   4  155.48   13.90
  -3  10  -4  136.89   14.10
   3  10   4  141.19   11.10
  -3  10  -4  143.59   11.90
   4 -10   4  522.05   35.20
  -4 -10  -4  528.65   35.60
  -4 -10  -4  487.55   35.10
   4 -10   4  518.95   36.20
   4 -11  -4  338.57   23.10
   4 -11  -4  303.97   22.90
  -4  11   4  307.07   23.00
  -4  11   4  314.77   22.60
   4  11  -4  352.76   24.20
   3 -11  -4  858.51   59.89
   3 -11  -4  869.01   56.59
  -3  11   4  751.32   56.39
   3  11  -4  839.72   56.89
  -3  11   4  825.32   57.49
  -2  11   4  178.08   15.50
  -2  11   4  183.78   14.30
  -2  11   4  195.88   14.80
   2  11  -4  187.88   16.30
  -2  11   4  180.58   14.90
  -2  11   4  178.48   14.60
  -1  11   4  194.88   14.80
  -1  11   4  194.48   15.70
   1  11  -4  199.58   16.30
  -1  11   4  203.68   15.80
   1  11  -4  198.08   15.70
   1  11  -4  181.98   15.30
  -1  11   4  196.58   15.70
  -1  11   4  187.98   17.10
  -1  11   4  208.08   15.70
   0 -11  -4  296.27   24.10
   0 -11  -4  291.47   23.60
   0  11   4  324.37   23.00
   0  11   4  329.37   23.20
   0  11   4  308.87   22.40
   0  11   4  324.77   23.30
   0  11  -4  318.27   23.00
   0  11   4  304.17   24.30
   0  11  -4  319.77   24.10
   0  11  -4  308.27   22.50
  -1 -11  -4  573.24   38.50
   1 -11   4  573.34   38.30
  -1 -11  -4  558.74   37.60
  -1  11  -4  515.15   37.30
   1  11   4  539.05   37.80
   1  11   4  558.14   37.40
   1  11   4  549.45   38.10
  -1  11  -4  492.35   37.80
   1  11   4  546.25   38.10
   1  11   4  528.35   38.30
  -1  11  -4  520.75   38.00
   2 -11   4 1153.18   81.09
   2 -11   4 1177.88   80.39
  -2 -11  -4 1174.78   80.39
  -2 -11  -4 1124.09   81.39
   2 -11   4 1162.88   80.89
  -2 -11  -4 1180.08   82.29
   2  11   4 1258.07   80.79
   2  11   4 1232.08   82.29
   2  11   4 1228.18   80.29
  -3 -11  -4  286.37   19.90
   3 -11   4  284.77   21.50
  -3 -11  -4  277.17   22.20
   3 -11   4  289.87   19.90
  -3 -11  -4  274.67   19.70
   3 -11   4  282.77   19.90
   3  11   4  255.37   19.50
  -3  11  -4  259.27   19.70
   3  11   4  265.67   19.50
  -3  11  -4  265.77   19.50
   3 -12  -4   23.30    4.60
   3 -12  -4   18.00    4.20
   3 -12  -4   15.40    4.60
   3 -12  -4   15.90    9.60
  -3  12   4   22.20    3.60
   3  12  -4   32.90    6.40
  -3  12   4   23.20    5.20
   2 -12  -4  433.16   29.70
   2 -12  -4  441.86   28.70
   2 -12  -4  406.96   29.00
  -2  12   4  383.86   28.50
  -2  12   4  395.26   28.60
   2  12  -4  408.46   29.20
  -2  12   4  383.96   29.60
  -2  12   4  403.86   28.90
   2  12  -4  371.76   28.40
   1 -12  -4  511.55   36.30
   1 -12  -4  562.24   42.50
   1 -12  -4  501.95   35.80
  -1  12   4  554.94   36.80
  -1  12   4  479.85   37.10
  -1  12   4  486.65   36.20
  -1  12   4  512.85   35.50
   0 -12  -4  884.91   61.99
   0 -12  -4  901.11   62.99
   0 -12  -4  870.91   61.49
   0  12   4  870.01   61.89
   0  12   4  877.31   62.09
   0  12   4  919.41   62.09
   0  12  -4  992.10   61.89
   0  12  -4  895.91   61.79
   0  12   4  931.91   61.49
  -1 -12  -4  175.58   13.90
   1 -12   4  174.38   17.00
  -1 -12  -4  176.18   13.00
  -1 -12  -4  172.38   16.10
   1  12   4  136.49   15.40
   1  12   4  148.29   13.70
   2 -12   4   13.70    4.60
  -2 -12  -4    4.10    3.40
   2 -12   4    6.20    5.10
   2 -12   4   12.20    6.90
  -2 -12  -4   -0.10    5.80
  -2 -12  -4    2.20    4.00
   2  12   4    8.40    3.70
   2  12   4   10.60    4.00
  -2  12  -4   11.50    2.50
   2  12   4    9.20    3.10
  -2  12  -4   11.40    3.90
   3 -12   4  229.28   14.70
  -3 -12  -4  215.78   14.10
  -3  12  -4  176.18   14.00
   3  12   4  182.28   15.00
   3  12   4  172.68   13.80
  -3  12  -4  172.38   14.40
   3 -13  -4  513.35   33.10
   3 -13  -4  435.66   32.40
   3 -13  -4  476.95   32.80
   3  13  -4  478.75   33.10
   2 -13  -4  356.56   26.40
   2 -13  -4  353.66   28.50
   2 -13  -4  353.66   26.50
  -2  13   4  392.16   26.40
  -2  13   4  403.16   26.00
  -2  13   4  415.66   26.60
   2  13  -4  349.57   26.20
   1  13  -4   35.70    5.20
   1  13  -4   32.90    5.80
  -1  13   4   23.50    4.50
  -1  13   4   25.20    4.40
  -1  13   4   30.20    5.80
   1  13  -4   21.30    4.60
  -1  13   4   19.70    4.70
   0  13   4   78.99    6.90
   0  13   4   64.59    7.30
   0  13  -4   72.39    7.00
   0  13  -4   63.79    7.80
   0  13  -4   70.39    8.10
   0  13   4   75.19    7.10
   0  13   4   83.99    8.10
  -1 -13  -4  595.74   43.50
  -1 -13  -4  618.74   45.00
  -1 -13  -4  607.34   43.50
   1  13   4  651.03   43.50
  -1  13  -4  641.94   43.50
   1  13   4  652.83   43.50
   1  13   4  660.73   43.10
  -1  13  -4  630.94   43.10
   1  13   4  666.33   43.50
  -1  13  -4  600.54   43.20
   2 -13   4  451.85   31.70
  -2 -13  -4  468.45   33.10
  -2 -13  -4  476.55   31.70
   2  13   4  426.46   31.70
  -2  13  -4  474.45   31.40
   2  13   4  449.06   31.40
  -2  13  -4  454.55   31.70
   2  13   4  444.26   31.40
   2 -14  -4  188.48   14.60
   2 -14  -4  201.68   14.80
   2  14  -4  200.38   14.70
  -2  14   4  206.48   14.10
   1 -14  -4  710.03   41.30
   1 -14  -4  657.73   44.10
  -1  14   4  605.74   41.00
  -1  14   4  544.25   40.60
  -1  14   4  547.15   41.00
   1  14  -4  556.34   40.90
   1  14  -4  571.04   40.80
   0 -14  -4  474.45   34.20
   0 -14  -4  460.75   33.40
   0 -14  -4  467.45   32.80
   0 -14  -4  467.15   32.90
   0  14   4  457.75   32.50
   0  14  -4  457.55   32.40
   0  14   4  460.45   32.60
   0  14  -4  516.75   33.30
   0  14   4  501.15   32.50
  -1 -14  -4  183.88   20.20
  -1 -14  -4  204.38   16.40
  -1 -14  -4  187.58   15.60
   1  14   4  234.28   15.20
   1  14   4  208.48   15.30
  -1  14  -4  208.38   15.40
  -1  14  -4  223.88   15.10
   1  14   4  234.58   15.70
  -2 -14  -4    8.20    3.00
  -2 -14  -4    3.10    3.80
   2  14   4   11.20    6.00
  -2  14  -4    9.20    4.00
  -2  14  -4    7.30    2.50
   2  14   4    1.80    4.10
   1 -15  -4   27.30    5.20
   1 -15  -4   27.90    5.40
  -1  15   4   22.80    3.10
   0 -15  -4  164.08   12.20
   0 -15  -4  171.78   12.20
   0 -15  -4  136.99   16.60
   0  15   4  152.78   11.30
   0  15  -4  166.18   11.90
   0  15  -4  134.29   11.20
   0  15   4  168.98   11.80
   0  15   4  161.58   12.20
   5   0  -5  220.98   19.90
  -5   0   5  200.98   15.80
  -5   0   5  167.78   25.20
  -5   0   5  207.28   19.50
  -5   0   5  204.38   19.50
   5   0  -5  213.88   16.50
  -4   0   5  654.73   53.29
  -4   0   5  707.03   48.50
  -4   0   5  697.33   49.80
   4   0  -5  670.03   48.40
  -4   0   5  684.23   47.70
   4   0  -5  724.73   49.60
  -3   0   5 1337.57   91.79
  -3   0   5 1420.26   93.09
  -3   0   5 1284.67   91.19
  -3   0   5 1289.17   91.89
   3   0  -5 1369.26   91.99
   3   0  -5 1376.86   93.39
  -3   0   5 1384.06   92.19
   2   0  -5  742.23   60.29
  -2   0   5  893.81   67.49
  -2   0   5  866.91   56.99
  -2   0   5  846.92   64.49
   2   0  -5  889.11   65.09
  -2   0   5  748.33   58.69
  -1   0   5    7.20    3.10
  -1   0   5    8.30    3.50
   1   0  -5    3.10    3.10
   1   0  -5    4.60    1.70
  -1   0   5    5.50    2.80
  -1   0   5    7.50    7.90
  -1   0   5    2.30    7.10
   0   0  -5 2030.20  136.49
   0   0  -5 2109.89  141.99
   0   0   5 2116.29  142.29
   0   0   5 1831.42  136.29
   0   0   5 2177.98  137.59
   0   0   5 1999.20  141.19
   1   0   5 1289.47   91.69
  -1   0  -5 1386.96   90.19
   1   0   5 1303.97   89.79
  -1   0  -5 1320.07   96.69
   1   0   5 1343.77   95.99
   1   0   5 1390.96   90.29
  -2   0  -5 2741.23  175.88
  -2   0  -5 2474.65  176.28
  -2   0  -5 2531.75  176.48
   2   0   5 2633.84  176.48
   2   0   5 2528.65  174.78
  -2   0  -5 2566.14  174.68
   2   0   5 2733.73  174.98
  -2   0  -5 2700.63  174.68
  -3   0  -5  317.07   25.20
   3   0   5  338.67   27.60
  -3   0  -5  346.67   25.80
  -3   0  -5  337.87   27.30
  -3   0  -5  357.56   26.60
   3   0   5  355.46   24.50
   3   0   5  346.77   24.50
  -3   0  -5  324.97   30.80
  -4   0  -5    8.60   10.00
  -4   0  -5   -1.20    5.10
  -4   0  -5    4.70    6.20
  -5   0  -5  254.27   20.30
  -5   0  -5  212.68   17.20
   5  -1  -5  659.13   43.00
  -5  -1   5  690.23   44.40
  -5  -1   5  615.84   43.30
  -5  -1   5  592.04   42.60
   5  -1  -5  596.44   41.70
  -5  -1   5  625.84   48.70
   5   1  -5  559.24   42.10
  -5   1   5  528.55   40.80
   5   1  -5  574.94   41.90
  -5   1   5  545.15   42.60
  -5   1   5  570.64   41.20
  -4  -1   5  455.25   35.20
   4  -1  -5  464.95   34.70
  -4  -1   5  465.15   35.10
   4  -1  -5  450.05   36.40
  -4  -1   5  474.25   36.20
  -4  -1   5  475.95   40.30
  -4   1   5  467.55   37.80
   4   1  -5  503.15   34.80
  -4   1   5  507.05   36.30
  -4   1   5  492.25   34.20
   4   1  -5  522.75   35.80
  -4   1   5  477.25   34.10
  -4   1   5  481.35   36.20
  -3  -1   5   74.29   15.80
  -3  -1   5   82.29   10.30
  -3  -1   5   83.39   11.30
   3  -1  -5   88.29   10.70
  -3  -1   5   83.59    8.80
  -3  -1   5   84.99    8.40
  -3   1   5   68.59    7.80
  -3   1   5   66.39   10.30
  -3   1   5   57.19    9.50
   3   1  -5   61.79   10.80
  -3   1   5   66.39   10.30
  -2  -1   5  878.71   65.19
  -2  -1   5  863.91   71.69
   2  -1  -5  875.61   73.29
  -2  -1   5  924.81   73.09
  -2  -1   5  898.31   65.69
  -2  -1   5  968.20   66.09
   2  -1  -5  978.10   65.19
  -2   1   5 1050.89   65.79
  -2   1   5 1086.49   65.89
   2   1  -5 1051.69   66.39
  -2   1   5  989.20   74.19
  -2   1   5 1022.40   76.79
   2   1  -5  930.61   74.49
  -1  -1   5 2724.33  179.28
   1  -1  -5 2642.24  183.88
  -1  -1   5 2755.92  174.68
  -1  -1   5 2798.62  175.18
   1  -1  -5 2790.42  174.58
  -1  -1   5 2524.05  174.18
  -1  -1   5 2667.73  179.38
  -1   1   5 2554.64  179.98
  -1   1   5 2417.66  174.18
  -1   1   5 2460.05  180.38
  -1   1   5 2502.25  174.58
  -1   1   5 2485.45  175.08
   0  -1   5 1831.22  145.29
   0  -1   5 1871.01  145.99
   0  -1   5 1943.81  142.79
   0  -1  -5 1896.91  146.99
   0  -1   5 1909.81  141.89
   0  -1  -5 1856.41  141.99
   0   1   5 2370.76  148.29
   0   1   5 2360.96  148.19
   0   1   5 2326.47  142.99
   0   1   5 2373.66  142.39
   0   1  -5 2316.57  147.19
   0   1  -5 2265.07  141.19
   0   1  -5 2281.37  141.29
   1  -1   5  257.67   22.60
   1  -1   5  283.97   27.10
  -1  -1  -5  273.97   29.10
  -1  -1  -5  276.37   22.60
   1  -1   5  291.17   21.00
  -1  -1  -5  305.67   21.50
   1  -1   5  297.27   21.40
   1   1   5  323.47   22.70
   1   1   5  331.87   21.70
   1   1   5  321.37   21.20
  -1   1  -5  294.47   28.50
   1   1   5  320.27   30.40
  -2  -1  -5   58.09    6.70
   2  -1   5   58.39    9.20
  -2  -1  -5   59.49   10.40
   2  -1   5   61.09    6.30
  -2  -1  -5   54.69    9.50
   2  -1   5   61.09    8.40
   2  -1   5   53.59    6.60
  -2  -1  -5   57.89   13.70
  -2  -1  -5   56.39   13.20
  -2  -1  -5   73.39   10.90
   2   1   5   71.09   24.10
  -2   1  -5   74.49   11.60
  -3  -1  -5  598.14   41.30
  -3  -1  -5  589.04   43.60
  -3  -1  -5  586.84   43.00
  -3  -1  -5  598.14   41.70
   3  -1   5  621.24   40.40
   3  -1   5  580.44   43.30
   3  -1   5  626.04   40.10
   3   1   5  574.84   40.20
   3   1   5  540.15   41.30
  -3   1  -5  576.34   40.20
   3   1   5  550.64   42.30
  -3   1  -5  570.54   40.60
  -3   1  -5  556.64   42.20
   3   1   5  595.24   40.20
  -3   1  -5  559.94   41.30
  -3   1  -5  543.85   42.30
  -4  -1  -5  662.73   41.00
   4  -1   5  606.04   39.90
  -4  -1  -5  640.44   43.70
  -4   1  -5  506.05   41.70
  -4   1  -5  514.65   40.50
  -4   1  -5  508.35   41.30
  -5   1  -5  484.25   35.30
  -5   1  -5  477.15   34.30
  -5   1  -5  456.45   33.00
   5  -2  -5  184.58   15.30
   5  -2  -5  161.48   15.60
  -5  -2   5  184.18   15.10
  -5  -2   5  176.18   15.90
  -5  -2   5  155.58   20.50
  -5   2   5  193.18   14.10
   5   2  -5  197.28   15.70
  -5   2   5  215.88   31.20
   5   2  -5  211.58   15.60
  -5   2   5  206.48   16.80
   4  -2  -5  973.10   64.99
   4  -2  -5  944.71   63.89
  -4  -2   5  881.71   68.99
  -4  -2   5  967.00   64.19
  -4  -2   5  968.40   65.19
  -4   2   5  884.01   68.09
  -4   2   5  920.61   65.09
   4   2  -5  938.21   63.69
  -4   2   5  922.01   63.19
  -4   2   5  898.91   64.59
  -4   2   5  847.82   65.89
   4   2  -5  950.50   64.59
  -4   2   5  886.71   63.49
  -3  -2   5 1133.69   77.69
   3  -2  -5 1188.68   77.19
   3  -2  -5 1151.68   77.49
  -3  -2   5 1100.69   77.59
  -3  -2   5 1117.39   76.89
  -3  -2   5 1158.88   79.79
   3  -2  -5 1187.98   78.59
  -3   2   5 1143.49   77.09
   3   2  -5 1122.69   77.39
  -3   2   5 1047.10   80.49
  -3   2   5 1169.08   77.69
   3   2  -5 1048.50   78.39
  -3   2   5 1146.99   78.39
  -3   2   5 1147.49   76.89
  -3   2   5 1119.49   77.39
  -2  -2   5  827.82   65.89
  -2  -2   5  908.71   66.09
   2  -2  -5  861.11   75.39
  -2  -2   5  895.21   74.59
   2  -2  -5  875.21   66.39
   2  -2  -5  923.01   65.49
  -2   2   5 1031.60   65.59
  -2   2   5 1076.89   66.49
  -2   2   5 1013.20   65.09
   2   2  -5 1017.50   66.39
  -2   2   5 1035.60   65.79
  -2   2   5 1017.70   75.89
  -2   2   5  999.80   78.79
  -2   2   5  986.40   65.59
   1  -2  -5  417.46   28.90
  -1  -2   5  442.26   28.60
   1  -2  -5  428.26   36.30
   1  -2  -5  440.16   29.00
  -1  -2   5  442.66   33.60
   1  -2  -5  432.36   28.60
  -1  -2   5  404.06   28.10
   1  -2  -5  423.36   37.30
  -1  -2   5  447.76   38.40
  -1   2   5  357.76   36.50
  -1   2   5  346.27   28.30
  -1   2   5  366.66   29.10
  -1   2   5  334.87   35.00
   0  -2  -5  853.01   64.09
   0  -2   5  735.63   57.49
   0  -2   5  853.41   57.59
   0  -2   5  836.22   58.69
   0  -2   5  834.62   61.19
   0  -2   5  779.02   65.99
   0   2   5  946.81   58.49
   0   2   5  951.10   64.99
   0   2  -5  730.93   63.69
   0   2   5  895.71   57.59
   0   2   5  954.90   59.29
   1  -2   5 2614.54  172.48
   1  -2   5 2587.44  170.78
  -1  -2  -5 2737.03  172.18
  -1  -2  -5 2688.43  170.98
   1  -2   5 2733.03  171.28
   1  -2   5 2455.75  179.48
  -1  -2  -5 2536.45  178.38
  -1  -2  -5 2661.03  171.88
   1   2   5 2483.55  171.38
   1   2   5 2547.84  178.98
  -1   2  -5 2284.27  176.18
   1   2   5 2430.56  172.08
   1   2   5 2732.13  171.78
   1   2   5 2341.07  170.78
  -1   2  -5 2562.44  171.18
  -2  -2  -5 1491.95   95.29
  -2  -2  -5 1499.35   94.59
  -2  -2  -5 1408.96   96.59
  -2  -2  -5 1452.55   94.99
  -2  -2  -5 1471.25   95.29
   2  -2   5 1491.85   96.29
   2  -2   5 1511.65   94.49
   2  -2   5 1551.74   94.79
   2  -2   5 1456.05   94.09
  -2  -2  -5 1485.75   94.29
   2   2   5 1240.98   95.29
  -2   2  -5 1292.67   95.99
   2   2   5 1292.87  113.49
  -2   2  -5 1299.47   93.99
   2   2   5 1295.47   93.99
  -2   2  -5 1422.06   98.69
  -2   2  -5 1350.26   93.59
   2   2   5 1315.27   94.19
  -2   2  -5 1249.18   94.99
   3  -2   5  843.32   64.99
   3  -2   5  865.41   61.89
  -3  -2  -5  834.82   62.89
  -3  -2  -5  812.22   63.39
  -3  -2  -5  829.72   62.19
  -3  -2  -5  924.71   66.59
   3  -2   5  965.10   63.89
  -3  -2  -5  855.81   62.29
  -3   2  -5  944.71   64.29
  -3   2  -5  945.01   64.29
  -3   2  -5  978.40   63.49
   3   2   5  986.90   63.69
   3   2   5  963.40   61.99
   3   2   5  950.20   64.09
  -3   2  -5  978.00   62.09
   4  -2   5   33.90    6.50
  -4   2  -5   24.70    6.70
  -4   2  -5   20.60    6.20
  -4   2  -5   23.40    5.40
  -5  -2  -5  112.39   15.60
  -5  -2  -5  117.09    9.80
  -5   2  -5  111.69    9.70
  -5   2  -5  112.69   11.20
  -5   2  -5  117.59   13.90
  -5  -3   5  559.64   38.60
   5  -3  -5  518.75   38.50
  -5  -3   5  514.15   41.20
   5  -3  -5  534.65   39.50
  -5  -3   5  510.85   39.30
  -5  -3   5  523.05   38.90
  -5   3   5  575.24   42.70
   5   3  -5  542.85   38.50
   5   3  -5  591.24   39.30
   5   3  -5  620.24   38.60
  -5   3   5  532.65   39.20
   4  -3  -5   75.59   11.20
   4  -3  -5   70.49    9.80
  -4  -3   5   72.29    9.70
  -4  -3   5   73.09   12.80
   4   3  -5   61.99   11.60
  -4   3   5   64.79   10.60
  -4   3   5   52.79   14.30
  -4   3   5   68.79   10.40
  -4   3   5   74.19   15.70
  -4   3   5   70.69    7.40
   4   3  -5   68.69    8.30
   3  -3  -5   32.80    8.30
   3  -3  -5   44.70    8.10
  -3  -3   5   37.10    9.70
  -3  -3   5   41.90    7.70
   3  -3  -5   42.80   10.10
  -3  -3   5   55.49   12.00
   3  -3  -5   38.80    7.30
  -3  -3   5   40.90    9.20
   3   3  -5   44.20    9.30
  -3   3   5   52.29    7.50
  -3   3   5   47.90    7.50
  -3   3   5   48.40   10.40
  -3   3   5   53.69   10.10
  -3   3   5   58.89    9.70
   2  -3  -5  608.64   41.90
   2  -3  -5  644.44   40.40
   2  -3  -5  629.24   41.90
   2  -3  -5  635.14   55.39
   2  -3  -5  640.64   40.70
  -2  -3   5  651.83   41.20
  -2  -3   5  668.83   41.80
   2   3  -5  541.45   41.60
  -2   3   5  512.75   40.80
  -2   3   5  566.44   41.00
  -2   3   5  533.55   57.19
  -2   3   5  517.15   40.10
  -2   3   5  529.35   58.39
  -2   3   5  568.34   41.40
  -2   3   5  550.04   40.50
  -1  -3   5 1854.11  143.59
   1  -3  -5 1936.01  144.09
  -1  -3   5 1844.12  144.09
  -1  -3   5 1863.41  146.39
  -1   3   5 2406.36  144.19
  -1   3   5 2464.65  144.89
  -1   3   5 2414.26  151.98
  -1   3   5 2414.26  143.79
   0  -3  -5 1707.73  117.49
   0  -3  -5 1667.83  111.29
   0  -3   5 1714.83  111.49
   0  -3   5 1716.63  110.29
   0  -3  -5 1679.43  110.99
   0  -3   5 1692.63  113.19
   0  -3   5 1663.63  110.19
   0  -3  -5 1567.94  110.19
   0   3   5 1680.13  111.09
   0   3   5 1641.84  110.19
   0   3   5 1508.95  120.69
   0   3  -5 1507.45  113.59
   1  -3   5  476.65   32.10
  -1  -3  -5  467.75   32.80
  -1  -3  -5  411.36   33.60
   1  -3   5  452.05   33.70
  -1  -3  -5  478.15   32.80
   1  -3   5  446.76   32.30
  -1  -3  -5  461.85   43.10
   1  -3   5  384.56   43.50
   1   3   5  488.75   32.30
   1   3   5  486.75   32.10
  -1   3  -5  493.35   34.90
   1   3   5  486.45   44.50
  -1   3  -5  448.46   33.50
  -1   3  -5  498.45   32.00
   1   3   5  465.35   32.50
   1   3   5  471.75   51.49
  -1   3  -5  437.86   34.00
  -2  -3  -5  160.78   13.80
  -2  -3  -5  152.38   14.20
   2  -3   5  155.18   16.20
  -2  -3  -5  156.78   14.50
  -2  -3  -5  131.59   17.60
   2  -3   5  151.78   12.70
   2  -3   5  160.08   12.30
   2  -3   5  153.58   12.90
  -2  -3  -5  150.38   12.70
  -2  -3  -5  151.58   13.60
   2   3   5  172.28   13.60
   2   3   5  165.08   13.70
  -2   3  -5  162.98   13.10
  -2   3  -5  155.18   14.30
  -2   3  -5  156.78   12.30
  -2   3  -5  162.58   15.60
   2   3   5  128.39   14.80
  -2   3  -5  160.38   15.20
   2   3   5  169.58   13.10
  -3  -3  -5  598.84   51.09
   3  -3   5  615.64   42.50
   3  -3   5  549.15   43.80
  -3  -3  -5  561.24   46.20
  -3  -3  -5  603.74   42.90
  -3  -3  -5  606.54   43.70
  -3  -3  -5  590.04   43.00
  -3   3  -5  661.13   45.20
  -3   3  -5  638.14   44.30
  -3   3  -5  636.54   44.80
   3   3   5  676.73   43.30
  -3   3  -5  685.23   42.80
   3   3   5  600.64   43.90
   4  -3   5  927.61   70.79
   4  -3   5 1006.60   69.59
  -4   3  -5 1100.69   72.49
   4   3   5 1077.39   71.49
  -5   3  -5  162.38   13.90
  -5   3  -5  161.28   17.10
   5  -4  -5   12.90    4.70
  -5  -4   5   18.10    8.00
  -5  -4   5   16.70    3.70
  -5  -4   5   14.60    5.70
   5  -4  -5   17.40    4.90
  -5  -4   5   20.90   11.10
  -5   4   5   22.80    9.40
   5   4  -5   14.10    6.20
   5   4  -5   13.00    5.10
  -5   4   5   14.80    4.20
  -5   4   5   10.70    8.60
   4  -4  -5  785.52   63.89
   4  -4  -5  865.61   63.09
  -4  -4   5  928.11   70.59
  -4  -4   5  827.32   63.69
   4  -4  -5  893.41   65.19
  -4  -4   5  884.71   63.89
  -4   4   5  967.50   61.99
  -4   4   5  991.10   64.29
  -4   4   5  945.81   67.79
  -4   4   5  861.61   64.69
  -4   4   5  969.40   62.79
   4   4  -5  966.70   63.69
   4   4  -5  957.50   63.19
   3  -4  -5 1641.94  106.89
  -3  -4   5 1501.25  106.29
   3  -4  -5 1554.24  106.09
   3  -4  -5 1612.04  106.79
   3  -4  -5 1646.04  107.99
   3  -4  -5 1642.34  105.89
  -3   4   5 1508.45  105.49
  -3   4   5 1564.94  106.19
   3   4  -5 1613.14  106.99
  -3   4   5 1426.46  109.89
  -3   4   5 1531.35  107.29
  -3   4   5 1600.44  105.79
   2  -4  -5  926.01   64.39
  -2  -4   5  922.81   63.39
  -2  -4   5  940.81   63.19
   2  -4  -5  883.81   78.49
   2  -4  -5  948.91   63.59
   2  -4  -5  983.20   63.59
   2  -4  -5  948.51   62.49
   2  -4  -5  922.11   62.79
  -2   4   5  924.91   83.49
  -2   4   5  866.81   65.89
  -2   4   5  897.71   62.29
  -2   4   5  876.11   63.19
  -2   4   5  915.41   63.69
  -2   4   5  915.31   63.09
  -2   4   5  921.31   62.59
  -2   4   5  928.11   62.89
   2   4  -5  922.11   63.69
  -1  -4   5  192.68   19.10
   1  -4  -5  201.88   18.00
  -1  -4   5  193.38   20.00
   1  -4  -5  195.98   18.00
   1  -4  -5  199.28   17.50
  -1   4   5  255.47   18.00
  -1   4   5  252.57   17.70
  -1   4   5  250.67   17.20
  -1   4   5  242.88   21.70
  -1   4   5  267.27   17.90
  -1   4   5  260.37   31.50
  -1   4   5  264.47   31.70
   1   4  -5  254.67   19.80
  -1   4   5  245.18   17.70
   0  -4   5   87.29   10.90
   0  -4  -5   72.89    9.60
   0  -4  -5   87.59    8.70
   0  -4   5   73.29   10.80
   0  -4   5   79.89    7.30
   0  -4  -5   77.39   19.30
   0  -4  -5   81.29    8.10
   0  -4   5   73.19   15.40
  -1  -4  -5 2291.57  150.88
   1  -4   5 2378.86  151.18
  -1  -4  -5 2223.58  150.28
   1  -4   5 2327.87  149.88
  -1  -4  -5 2213.38  160.28
   1  -4   5 2104.99  149.49
  -1  -4  -5 2220.08  149.69
  -1   4  -5 2264.47  151.58
   1   4   5 2290.47  149.69
   1   4   5 2397.66  150.48
  -1   4  -5 2068.19  150.38
   1   4   5 2264.27  149.99
   1   4   5 2028.70  159.98
  -1   4  -5 2293.07  149.59
  -1   4  -5 2309.77  149.88
  -1   4  -5 2119.29  150.78
   2  -4   5 1552.04  104.99
  -2  -4  -5 1578.04  106.19
  -2  -4  -5 1393.36  108.09
  -2  -4  -5 1626.94  108.89
   2  -4   5 1571.04  105.69
  -2  -4  -5 1525.15  106.69
  -2  -4  -5 1744.43  106.69
   2  -4   5 1539.65  105.49
   2  -4   5 1548.25  108.59
   2   4   5 1348.67  105.99
  -2   4  -5 1565.14  106.49
   2   4   5 1631.94  105.69
  -2   4  -5 1633.04  105.09
  -2   4  -5 1660.83  105.49
   2   4   5 1640.54  105.79
  -2   4  -5 1473.65  106.39
  -3  -4  -5  387.66   31.60
   3  -4   5  404.16   28.60
  -3  -4  -5  390.36   37.00
  -3  -4  -5  383.96   28.20
  -3  -4  -5  399.66   30.30
   3  -4   5  375.86   32.00
   3  -4   5  391.06   27.40
  -3  -4  -5  409.96   27.50
   3  -4   5  395.36   28.30
  -3  -4  -5  403.56   27.40
  -3   4  -5  384.26   27.30
  -3   4  -5  338.37   29.70
   3   4   5  349.57   27.70
  -3   4  -5  340.27   28.80
  -3   4  -5  331.17   28.80
  -4  -4  -5   28.30    7.00
   4  -4   5   32.30    6.70
   4  -4   5   27.90    5.60
  -4  -4  -5   33.00   12.90
   4   4   5   32.10    5.80
  -4   4  -5   45.90   10.60
  -5   4  -5   93.39   13.10
  -5   4  -5   81.09    8.90
  -5   4  -5   84.49   10.70
   5   4   5   95.09   10.40
   5  -5  -5  265.87   24.00
   5  -5  -5  310.37   23.10
  -5  -5   5  310.17   23.10
  -5  -5   5  300.37   26.00
  -5  -5   5  339.47   23.70
  -5   5   5  346.07   26.70
   5   5  -5  328.07   23.50
  -5   5   5  328.67   23.90
  -5   5   5  331.47   23.30
  -4  -5   5  196.88   17.50
  -4  -5   5  189.38   16.40
  -4  -5   5  184.68   18.60
   4  -5  -5  202.18   17.70
   4  -5  -5  189.98   15.30
   4  -5  -5  169.08   20.50
  -4   5   5  160.58   22.00
  -4   5   5  151.58   15.40
  -4   5   5  161.18   14.40
   4   5  -5  160.98   15.40
   4   5  -5  146.89   14.20
   3  -5  -5   49.50    8.20
  -3  -5   5   44.90    6.70
   3  -5  -5   42.10    8.90
  -3  -5   5   54.59    9.90
   3  -5  -5   38.50    8.40
   3  -5  -5   44.20    9.10
  -3   5   5   71.59   17.20
  -3   5   5   44.70   10.20
  -3   5   5   56.39   10.80
  -3   5   5   67.69   10.50
   2  -5  -5  777.92   61.09
   2  -5  -5  729.93   62.09
   2  -5  -5  767.72   60.69
   2  -5  -5  745.23   61.19
  -2   5   5  935.71   60.99
  -2   5   5  964.90   60.79
  -2   5   5  994.50   60.39
  -2   5   5  925.81   63.69
   2   5  -5  941.81   61.59
  -2   5   5  986.00   61.39
   2   5  -5  914.81   61.59
  -2   5   5  948.51   60.79
   1  -5  -5 1471.65   99.79
   1  -5  -5 1462.15  100.29
   1  -5  -5 1505.15  100.59
   1  -5  -5 1527.85  100.79
  -1  -5   5 1391.16   99.49
  -1   5   5 1527.45  110.89
  -1   5   5 1508.05  100.09
  -1   5   5 1515.75  100.29
  -1   5   5 1457.55  100.19
  -1   5   5 1416.96  101.99
  -1   5   5 1551.54   99.79
   0  -5  -5 1377.26   95.59
   0  -5  -5 1409.16   95.39
   0  -5  -5 1467.95  105.19
   0  -5   5 1312.27   96.29
   0  -5   5 1410.76   95.99
   0  -5  -5 1404.06   94.59
   0  -5  -5 1417.46   95.19
   0   5   5 1498.55   95.19
   0   5  -5 1348.67   95.49
   0   5   5 1471.15  105.09
   0   5   5 1351.66   96.69
   0   5  -5 1445.86   94.49
   0   5   5 1400.06   94.99
   1   5   5  321.57   22.90
   1   5   5  287.37   25.80
  -1   5  -5  323.47   23.40
  -1   5  -5  338.87   29.40
  -1   5  -5  310.97   25.90
  -1   5  -5  324.37   22.30
   1   5   5  318.67   22.50
  -1   5  -5  285.97   25.30
   2  -5   5   53.89   10.20
  -2  -5  -5   44.80    8.40
  -2  -5  -5   45.60    9.20
  -2  -5  -5   42.80    7.20
   2  -5   5   49.00    6.00
  -2  -5  -5   47.80    7.90
  -2  -5  -5   41.50    6.40
   2  -5   5   47.20    6.50
  -2   5  -5   36.60    6.30
  -2   5  -5   36.70    6.10
   2   5   5   41.90    7.70
  -2   5  -5   32.20    9.30
  -3  -5  -5  629.94   46.40
   3  -5   5  615.74   51.79
   3  -5   5  615.04   46.90
  -3  -5  -5  592.04   49.60
  -3  -5  -5  635.44   46.20
  -3  -5  -5  615.04   47.80
  -3  -5  -5  623.74   54.29
   3  -5   5  665.63   46.40
   3   5   5  784.02   46.80
  -3   5  -5  789.82   48.30
   3   5   5  689.63   47.50
  -3   5  -5  779.42   49.20
  -4  -5  -5  563.54   38.00
   4  -5   5  479.25   40.80
   4  -5   5  556.04   37.80
   4  -5   5  541.35   37.70
  -4  -5  -5  527.65   39.00
  -4   5  -5  574.84   39.70
  -4   5  -5  571.14   40.00
   5  -6  -5  137.79   14.10
   5  -6  -5  148.19   11.60
  -5  -6   5  158.68   12.10
  -5  -6   5  165.58   16.20
  -5  -6   5  149.19   11.70
  -5   6   5  138.79   14.60
   5   6  -5  116.59   11.90
  -5   6   5  124.59   14.20
  -4  -6   5  276.77   25.60
  -4   6   5  261.37   26.60
   4   6  -5  229.28   21.50
  -4   6   5  264.27   19.80
  -4   6   5  266.27   20.90
   3  -6  -5 1454.05  110.29
   3  -6  -5 1531.25  108.49
   3  -6  -5 1479.45  110.39
  -3  -6   5 1448.66  108.09
   3  -6  -5 1545.65  110.79
  -3   6   5 1755.62  109.99
  -3   6   5 1696.03  108.69
  -3   6   5 1704.83  109.29
   3   6  -5 1683.03  110.29
   3   6  -5 1735.33  109.19
  -3   6   5 1635.64  109.19
  -2  -6   5  480.95   38.80
   2  -6  -5  547.95   36.20
   2  -6  -5  515.15   35.50
   2  -6  -5  503.05   36.80
   2  -6  -5  514.25   39.60
   2  -6  -5  501.95   36.90
   2   6  -5  520.45   37.40
   2   6  -5  477.65   36.70
  -2   6   5  519.95   35.90
  -2   6   5  508.85   35.90
  -2   6   5  495.15   36.00
  -2   6   5  440.06   39.20
  -2   6   5  555.44   38.20
   1  -6  -5  195.18   15.60
  -1  -6   5  161.08   14.60
   1  -6  -5  181.18   15.50
   1  -6  -5  183.68   14.40
   1  -6  -5  191.98   16.00
  -1   6   5  177.38   18.00
  -1   6   5  193.68   15.00
  -1   6   5  197.38   14.50
   1   6  -5  195.28   15.00
  -1   6   5  187.58   15.70
  -1   6   5  187.48   15.80
   0  -6  -5 1361.06   88.49
   0  -6  -5 1419.76   89.39
   0  -6  -5 1362.06   89.79
   0  -6   5 1393.16   88.29
   0  -6  -5 1388.26   89.09
   0   6  -5 1216.78   89.19
   0   6   5 1285.87   88.89
   0   6   5 1204.18   89.19
   0   6  -5 1339.27   88.39
   0   6   5 1336.57   88.49
   0   6   5 1221.28   90.29
   0   6  -5 1243.48   88.79
   1  -6   5  721.43   53.19
  -1  -6  -5  797.62   54.09
  -1  -6  -5  851.61   55.49
  -1  -6  -5  800.32   53.29
   1  -6   5  784.52   53.29
  -1   6  -5  738.03   54.29
  -1   6  -5  792.62   53.09
   1   6   5  786.32   53.59
  -1   6  -5  789.92   53.49
   1   6   5  786.42   56.89
   1   6   5  781.52   52.89
  -1   6  -5  790.02   56.69
  -1   6  -5  726.33   54.69
  -2  -6  -5 1078.79   86.29
  -2  -6  -5 1204.28   85.79
  -2  -6  -5 1230.38   85.49
  -2  -6  -5 1230.78   87.99
   2  -6   5 1193.58   85.79
   2  -6   5 1208.28   85.19
   2  -6   5 1124.89   86.39
  -2  -6  -5 1112.99   89.29
   2   6   5 1309.57   88.09
  -2   6  -5 1308.37   86.79
  -2   6  -5 1417.96   88.29
  -2   6  -5 1429.86   85.49
   2   6   5 1427.26   86.09
  -2   6  -5 1348.97   86.69
  -2   6  -5 1344.77   86.79
  -3  -6  -5  302.17   30.80
   3  -6   5  292.27   20.50
  -3  -6  -5  280.07   22.60
  -3  -6  -5  319.77   20.80
   3  -6   5  299.87   20.50
   3  -6   5  280.97   31.80
   3  -6   5  293.37   21.50
  -3  -6  -5  307.87   23.10
  -3   6  -5  260.97   20.70
  -3   6  -5  255.87   22.30
  -3   6  -5  229.08   24.50
   3   6   5  233.78   20.60
  -3   6  -5  237.88   22.50
  -3   6  -5  263.17   20.30
   4  -6   5   73.89    7.30
   4  -6   5   58.59   14.20
   4  -6   5   70.99    6.70
  -4  -6  -5   77.59    7.00
  -4  -6  -5   67.49    8.50
  -4  -6  -5   67.09   11.80
  -4   6  -5   55.79    9.20
   4   6   5   62.09    9.90
  -4   6  -5   54.79    8.70
  -4   6  -5   58.69    9.40
  -5  -7   5  367.16   23.50
  -5  -7   5  300.17   23.10
   5  -7  -5  292.77   23.10
   5   7  -5  295.97   23.60
  -5   7   5  364.86   25.20
  -5   7   5  324.37   22.90
  -5   7   5  323.07   24.80
  -4  -7   5  315.17   23.00
   4  -7  -5  313.07   22.40
   4  -7  -5  348.37   24.60
   4  -7  -5  322.27   24.30
  -4  -7   5  309.47   23.30
  -4  -7   5  297.67   27.80
  -4   7   5  287.07   23.90
  -4   7   5  308.87   24.30
   4   7  -5  314.37   23.60
   3  -7  -5   31.50   17.50
   3  -7  -5   36.20    7.90
   3  -7  -5   25.00    6.50
   3  -7  -5   27.50    8.30
  -3  -7   5   53.89    9.20
   3  -7  -5   32.70   10.10
  -3   7   5   46.30   11.20
  -3   7   5   48.80    9.40
  -3   7   5   41.70    7.40
  -3   7   5   38.60    6.40
   2  -7  -5  550.24   42.20
   2  -7  -5  537.85   41.70
   2  -7  -5  530.35   43.90
   2  -7  -5  522.05   43.30
   2   7  -5  673.83   44.70
  -2   7   5  652.53   41.60
  -2   7   5  633.94   42.50
  -2   7   5  647.64   42.10
  -2   7   5  624.84   44.60
  -2   7   5  661.13   42.30
   1  -7  -5 1139.09   82.59
   1  -7  -5 1145.59   81.19
   1  -7  -5 1208.48   82.19
   1  -7  -5 1168.28   81.89
  -1   7   5 1007.60   82.79
   1   7  -5 1320.87   80.99
  -1   7   5 1389.36   84.79
  -1   7   5 1337.17   81.69
  -1   7   5 1089.19   82.09
   0  -7  -5 1336.67   89.69
   0  -7  -5 1392.46   88.49
   0  -7  -5 1353.56   89.19
   0  -7  -5 1440.16   88.99
   0  -7   5 1337.77   87.89
   0   7   5 1306.37   88.39
   0   7   5 1244.38   90.79
   0   7  -5 1258.37   88.09
   0   7  -5 1268.57   88.29
   0   7  -5 1231.58   88.69
   0   7   5 1262.07   88.49
   0   7   5 1286.97   88.49
   0   7   5 1275.87   88.49
   1  -7   5  302.47   23.60
   1  -7   5  300.17   22.70
  -1  -7  -5  300.07   25.40
  -1  -7  -5  308.97   22.70
  -1  -7  -5  307.47   23.70
  -1  -7  -5  302.27   23.60
   1   7   5  331.37   24.60
  -1   7  -5  313.37   25.30
   1   7   5  334.97   23.30
  -1   7  -5  332.27   22.50
   1   7   5  324.77   25.10
   2  -7   5  116.89   12.70
  -2  -7  -5  104.39   13.40
  -2  -7  -5  109.39   12.90
  -2  -7  -5  120.19   11.00
   2  -7   5  118.49   13.30
  -2  -7  -5  120.09   17.50
   2   7   5  143.39   16.00
  -2   7  -5  138.69   11.90
  -2   7  -5  140.09   15.20
  -2   7  -5  141.39   13.60
   2   7   5  134.19   15.50
  -2   7  -5  127.39   15.40
   2   7   5  153.98   12.40
   3  -7   5  335.17   22.90
  -3  -7  -5  285.27   35.10
   3  -7   5  332.97   22.80
  -3  -7  -5  336.97   25.60
   3  -7   5  331.27   24.00
   3   7   5  246.78   25.40
  -4  -7  -5  486.35   34.80
   4  -7   5  447.26   33.30
   4  -7   5  483.65   33.70
   4  -7   5  445.96   35.60
  -4  -7  -5  449.16   33.30
  -4   7  -5  589.54   35.60
  -4  -8   5  571.74   40.00
   4  -8  -5  570.54   39.60
  -4  -8   5  570.84   40.80
  -4  -8   5  538.35   41.30
   4  -8  -5  603.64   41.50
   4  -8  -5  558.84   40.90
  -4   8   5  583.34   40.80
  -4   8   5  572.64   40.00
  -4   8   5  631.44   42.50
   4   8  -5  583.34   40.80
   3  -8  -5  433.36   35.40
  -3  -8   5  359.86   26.40
   3  -8  -5  398.46   26.60
   3  -8  -5  396.66   28.80
   3  -8  -5  411.36   26.60
   3  -8  -5  364.86   33.10
  -3   8   5  330.27   26.10
  -3   8   5  336.77   28.60
  -3   8   5  305.67   28.60
   3   8  -5  336.57   27.30
  -3   8   5  332.37   28.10
   2  -8  -5  853.61   62.69
   2  -8  -5  864.31   64.49
   2  -8  -5  855.71   64.09
   2  -8  -5  841.72   62.99
  -2   8   5  973.10   62.99
  -2   8   5  946.91   64.99
  -2   8   5  975.50   63.39
  -2   8   5  979.50   62.99
  -2   8   5  960.40   62.49
   2   8  -5  930.51   63.99
  -1   8   5   29.40    7.90
  -1   8   5   21.40    6.40
  -1   8   5   20.70    4.70
  -1   8   5   23.10    4.90
  -1   8   5   30.00    7.60
   0   8   5   96.89    9.60
   0   8  -5   89.19    8.50
   0   8   5   84.09   11.10
   0   8   5   85.09   11.10
   0   8   5   92.59   13.80
  -1  -8  -5 1223.38   96.29
  -1  -8  -5 1289.57   98.49
  -1  -8  -5 1271.27   96.39
   1   8   5 1464.35   97.99
  -1   8  -5 1506.45   99.29
  -1   8  -5 1520.05   96.49
   1   8   5 1493.25   96.79
  -1   8  -5 1514.75   95.99
   1   8   5 1471.05   96.49
   1   8   5 1501.65   96.59
  -2  -8  -5  689.63   50.69
  -2   8  -5  569.24   41.50
   2   8   5  605.94   42.50
  -2   8  -5  576.84   44.00
   2   8   5  570.94   43.20
   2   8   5  598.14   41.60
  -2   8  -5  595.64   41.00
  -2   8  -5  575.34   42.30
   3  -8   5  458.05   31.40
   3  -8   5  434.46   32.20
  -3  -8  -5  457.75   33.00
  -3  -8  -5  470.55   31.30
   3   8   5  434.86   31.40
  -3   8  -5  394.96   31.60
  -4  -8  -5    0.40    6.90
   4  -8   5    4.90    2.80
  -4  -8  -5    6.40    2.70
   4  -8   5    2.70    3.40
  -4   8  -5   -0.20    4.90
   4   8   5   -2.30    2.50
  -4   8  -5   -3.70    5.80
   4   8   5    5.60    4.80
   4  -9  -5   76.89    7.80
   4  -9  -5   69.79    7.10
  -4  -9   5   72.19   12.90
  -4  -9   5   92.79    9.80
   4  -9  -5   85.49   12.70
  -4   9   5   87.69    7.40
  -4   9   5  100.49   10.50
   4   9  -5   92.29    9.40
   3  -9  -5   20.50    4.90
   3  -9  -5   24.30   11.40
  -3  -9   5   22.80    7.30
   3  -9  -5   17.60    4.20
  -3   9   5   13.60    3.90
  -3   9   5   10.50    7.80
   2  -9  -5  639.54   47.30
   2  -9  -5  645.74   48.60
   2  -9  -5  633.44   48.60
   2  -9  -5  601.34   50.09
  -2   9   5  697.23   46.60
  -2   9   5  720.93   47.60
  -2   9   5  730.43   47.30
  -2   9   5  706.53   49.10
  -2   9   5  724.93   47.30
   2   9  -5  696.23   47.90
   1  -9  -5 1155.98   73.29
   1  -9  -5 1144.79   72.59
   1  -9  -5 1084.29   71.79
   1  -9  -5 1047.70   74.29
  -1   9   5 1060.99   71.99
  -1   9   5  990.90   72.19
   1   9  -5 1032.80   72.39
  -1   9   5 1047.00   73.79
   1   9  -5 1021.40   71.59
  -1   9   5 1016.80   72.09
   1   9  -5 1002.90   71.69
  -1   9   5 1084.69   72.09
   0  -9  -5  698.33   53.59
   0  -9  -5  693.73   53.39
   0  -9  -5  799.92   56.99
   0  -9  -5  650.93   55.59
   0   9  -5  811.22   53.09
   0   9   5  858.81   53.99
   0   9   5  795.92   54.89
   0   9   5  812.02   53.59
   0   9  -5  804.82   53.59
   0   9   5  856.91   53.99
  -1  -9  -5  274.57   22.00
  -1  -9  -5  260.57   21.00
  -1  -9  -5  222.28   26.60
  -1  -9  -5  265.57   20.40
   1  -9   5  254.47   20.80
   1   9   5  290.57   22.40
  -1   9  -5  290.67   20.30
   1   9   5  282.37   21.50
   1   9   5  309.37   21.10
   1   9   5  314.07   21.50
  -1   9  -5  288.97   21.20
   2  -9   5   40.90    6.70
  -2  -9  -5   58.69   12.80
   2  -9   5   47.90   10.10
   2  -9   5   40.80    8.20
  -2  -9  -5   37.70   20.40
  -2  -9  -5   50.09    7.30
  -2  -9  -5   45.90    9.30
   2   9   5   44.10    6.80
   2   9   5   37.20    7.60
  -2   9  -5   29.90    8.10
   2   9   5   39.10   10.00
  -2   9  -5   48.10    5.90
  -2   9  -5   37.20    6.70
   2   9   5   30.80    6.70
   3  -9   5  355.36   29.00
  -3  -9  -5  360.76   28.40
  -3  -9  -5  347.97   28.80
   3   9   5  469.95   29.20
  -3   9  -5  449.56   28.40
  -3   9  -5  455.85   29.00
   4  -9   5  525.55   34.10
  -4  -9  -5  493.45   33.80
   4  -9   5  519.75   34.00
   4   9   5  478.05   34.70
   4   9   5  463.65   33.90
  -4   9  -5  494.45   35.30
   4 -10  -5  331.17   24.70
   4  10  -5  383.66   26.70
  -4  10   5  332.77   24.40
  -4  10   5  346.67   25.40
  -3 -10   5  639.24   48.90
   3 -10  -5  676.13   50.49
   3 -10  -5  670.73   47.30
   3 -10  -5  653.73   48.00
   3 -10  -5  678.93   47.00
  -3  10   5  749.53   47.20
   3  10  -5  635.44   47.20
  -3  10   5  766.92   48.90
  -2  10   5  218.78   17.20
  -2  10   5  224.38   19.00
  -2  10   5  219.18   17.60
  -2  10   5  221.48   16.70
   2  10  -5  234.78   18.10
  -2  10   5  226.18   17.50
   1 -10  -5  133.39   14.00
   1 -10  -5  122.79   19.90
   1 -10  -5  131.59   11.90
   1  10  -5  131.19   12.10
   1  10  -5  125.29   12.90
  -1  10   5  135.29   12.10
  -1  10   5  131.89   14.10
   1  10  -5  154.68   12.30
  -1  10   5  140.79   14.20
  -1  10   5  150.38   11.30
  -1  10   5  133.59   12.10
  -1  10   5  128.59   12.80
   0 -10  -5   78.59   28.30
   0 -10  -5   72.49   10.00
   0  10   5   88.09    9.30
   0  10  -5   96.79    8.60
   0  10  -5  108.69    9.90
   0  10   5   95.29    9.60
   0  10   5   91.09    9.90
   0  10   5   83.99   10.50
  -1 -10  -5  393.06   26.80
  -1 -10  -5  393.26   27.00
   1 -10   5  384.96   27.50
  -1 -10  -5  393.86   28.30
   1  10   5  357.76   26.60
   1  10   5  341.17   27.80
  -1  10  -5  357.46   26.80
  -1  10  -5  367.76   26.20
   1  10   5  364.56   27.10
   1  10   5  347.57   26.90
   2 -10   5  790.22   57.79
  -2 -10  -5  836.92   58.59
  -2 -10  -5  874.11   58.09
  -2 -10  -5  750.62   57.29
   2 -10   5  820.82   56.89
   2  10   5  916.81   58.39
  -2  10  -5  840.92   57.39
   2  10   5  859.81   57.29
  -3 -10  -5  329.17   22.10
  -3 -10  -5  309.27   24.50
  -3 -10  -5  321.27   22.40
   3 -10   5  312.77   22.10
   3 -10   5  314.67   22.00
   3 -10   5  316.67   25.20
   3  10   5  306.57   22.20
  -3  10  -5  295.17   22.30
  -3  10  -5  280.07   23.90
  -3  10  -5  294.77   21.70
   3  10   5  306.97   22.60
   3 -11  -5   19.60    5.10
   3 -11  -5    1.80   10.10
   3 -11  -5   21.90    4.60
   3  11  -5   28.70    5.60
  -3  11   5   32.70    5.00
   2 -11  -5  319.87   24.60
   2 -11  -5  311.67   24.70
   2 -11  -5  303.87   21.60
   2  11  -5  274.37   22.50
  -2  11   5  275.27   22.30
  -2  11   5  262.07   20.80
   1 -11  -5  991.70   71.39
   1 -11  -5 1005.40   72.69
   1 -11  -5 1014.20   71.59
  -1  11   5 1027.50   72.79
  -1  11   5 1058.59   71.09
  -1  11   5 1103.19   71.89
  -1  11   5 1073.29   71.59
  -1  11   5 1048.70   71.29
   1  11  -5  979.30   71.19
   1  11  -5 1149.39   72.79
  -1  11   5 1083.29   72.59
   1  11  -5 1079.69   71.19
   0 -11  -5  729.53   54.19
   0 -11  -5  814.92   54.39
   0 -11  -5  770.72   55.29
   0  11   5  799.02   53.99
   0  11   5  804.22   55.09
   0  11   5  787.32   54.49
   0  11  -5  779.72   54.09
   0  11  -5  790.12   53.69
   0  11   5  817.52   54.69
  -1 -11  -5   77.49   10.90
  -1 -11  -5   68.89    7.10
   1 -11   5   50.19    9.90
  -1  11  -5   55.99    8.10
   1  11   5   51.89    6.80
  -1  11  -5   62.59    6.30
   1  11   5   41.80    9.30
   1  11   5   54.19    7.70
   2 -11   5   39.70    9.80
   2  11   5   58.09    8.40
   2  11   5   55.39    5.90
  -2  11  -5   57.69    7.00
   2  11   5   64.59    6.30
   2  11   5   52.99    7.30
  -2  11  -5   57.19    5.60
   3 -11   5  378.36   26.70
   3 -11   5  368.26   26.70
  -3 -11  -5  394.66   26.90
  -3 -11  -5  361.86   26.60
   3  11   5  396.66   26.60
  -3  11  -5  398.26   26.50
   3 -12  -5  480.65   31.90
   3 -12  -5  457.85   31.60
   3 -12  -5  483.15   32.10
  -3  12   5  473.75   32.20
  -3  12   5  413.86   31.40
   3  12  -5  442.36   31.70
   2 -12  -5  432.86   30.30
   2 -12  -5  415.46   30.40
   2 -12  -5  448.26   32.70
   2 -12  -5  429.46   31.20
   2  12  -5  422.86   31.10
  -2  12   5  454.45   30.40
  -2  12   5  437.06   29.90
  -2  12   5  447.06   31.00
  -2  12   5  422.86   30.20
  -2  12   5  427.26   30.50
   1 -12  -5   30.40    9.00
   1 -12  -5   20.50    6.30
   1 -12  -5   15.50    4.50
   1 -12  -5   22.00    4.70
  -1  12   5   21.70    5.80
   1  12  -5   24.70    4.70
  -1  12   5   31.20    6.30
   1  12  -5   21.50    5.00
  -1  12   5   25.60    4.50
  -1  12   5   24.60    7.00
  -1  12   5   35.60    5.90
   1  12  -5   22.20    4.80
   0 -12  -5  182.38   13.40
   0 -12  -5  183.58   16.70
   0 -12  -5  163.28   14.50
   0  12  -5  163.68   13.50
   0  12   5  169.68   16.10
   0  12   5  155.18   13.50
   0  12  -5  169.38   13.30
   0  12   5  163.78   14.60
  -1 -12  -5  226.08   19.30
   1  12   5  212.38   18.20
   1  12   5  227.98   16.10
  -1  12  -5  212.98   15.80
   1  12   5  220.38   16.30
   1  12   5  210.58   16.60
  -1  12  -5  202.88   15.80
   1  12   5  200.88   15.40
  -2 -12  -5  432.76   34.60
   2 -12   5  447.46   35.10
  -2 -12  -5  492.85   36.80
   2 -12   5  484.35   35.70
   2 -12   5  449.36   36.10
  -2 -12  -5  466.95   34.70
  -2  12  -5  553.94   34.90
  -2  12  -5  574.94   34.80
   2  12   5  570.04   34.90
   2  12   5  569.74   34.40
   3 -12   5  152.48   13.90
   3  12   5  174.98   13.00
  -3  12  -5  197.28   12.70
   2 -13  -5  186.38   17.10
   2 -13  -5  186.28   15.30
  -2  13   5  227.38   14.80
  -2  13   5  232.68   15.40
   1 -13  -5  558.64   39.20
   1 -13  -5  569.44   40.80
   1 -13  -5  566.64   39.80
   1 -13  -5  568.84   39.10
  -1  13   5  547.15   38.90
  -1  13   5  603.94   38.80
  -1  13   5  585.24   39.30
   1  13  -5  553.34   38.60
  -1  13   5  593.04   40.00
   1  13  -5  533.95   39.70
  -1  13   5  565.74   39.00
   0 -13  -5  508.05   32.40
   0 -13  -5  513.15   34.00
   0 -13  -5  498.15   32.20
   0  13   5  444.76   32.10
   0  13  -5  439.86   31.80
   0  13   5  438.26   32.20
   0  13   5  452.65   31.80
   0  13  -5  437.66   32.10
   0  13   5  427.36   32.00
  -1 -13  -5  163.98   11.70
   1  13   5  154.48   12.10
  -1  13  -5  167.18   11.60
   1  13   5  146.39   11.90
   1  13   5  131.89   11.40
   1  13   5  148.39   11.40
  -1  13  -5  150.68   12.10
  -2 -13  -5   10.60    3.30
  -2  13  -5   17.80    3.20
   2  13   5   14.40    3.50
  -2  13  -5   17.50    3.80
   2  13   5   15.30    3.40
   2 -14  -5  197.38   15.40
   2 -14  -5  206.58   15.50
  -2  14   5  224.08   14.70
   1 -14  -5   31.40    7.30
   1 -14  -5   31.10    7.80
   1 -14  -5   22.10    3.40
  -1  14   5   21.30    4.20
  -1  14   5   25.70    4.10
   0 -14  -5   67.49   11.00
   0 -14  -5   76.89    8.10
   0 -14  -5   72.79    7.20
   0 -14  -5   74.79    6.80
   0  14  -5   57.29    7.40
   0  14   5   74.99    8.20
   0  14   5   63.09    5.60
   0  14   5   72.59    7.10
   0  14  -5   59.39    5.80
  -1 -14  -5  483.25   35.10
  -1 -14  -5  478.75   35.30
   1  14   5  547.55   34.80
  -1  14  -5  527.15   35.70
  -1  14  -5  507.95   34.90
   1  14   5  538.95   35.50
  -5   0   6  566.24   42.00
  -5   0   6  580.64   40.10
  -5   0   6  576.04   42.10
   5   0  -6  593.24   40.50
   5   0  -6  582.44   41.30
  -4   0   6   45.30    8.90
   4   0  -6   55.99    9.10
  -4   0   6   34.20   15.10
  -4   0   6   39.70    7.20
   4   0  -6   45.60    8.50
  -4   0   6   35.10    9.80
   3   0  -6    8.70   12.00
   3   0  -6   17.70    5.60
  -3   0   6   28.70    8.30
  -3   0   6   16.50    6.00
  -3   0   6   23.00    8.00
  -3   0   6   18.50    4.50
   2   0  -6  768.12   55.09
  -2   0   6  813.72   54.59
  -2   0   6  772.22   53.89
  -2   0   6  808.82   54.79
  -2   0   6  793.42   55.69
   1   0  -6  736.03   56.39
  -1   0   6  799.12   62.69
  -1   0   6  835.72   65.59
  -1   0   6  801.52   53.89
  -1   0   6  801.82   54.79
   1   0  -6  780.62   52.89
  -1   0   6  775.52   53.29
   1   0  -6  758.82   53.19
   0   0   6 3093.39  209.88
   0   0  -6 2978.10  201.38
   0   0   6 3157.18  203.38
   0   0  -6 3154.08  208.88
   0   0  -6 2841.42  203.08
   0   0   6 2971.00  201.78
   0   0   6 2931.41  207.58
  -1   0  -6  128.59   13.20
   1   0   6  138.79   11.90
   1   0   6  141.09   11.70
   1   0   6  148.19   11.00
   1   0   6  150.68   27.40
   1   0   6  127.79   18.40
  -1   0  -6  132.49   14.90
  -1   0  -6  137.59   10.90
  -1   0  -6  151.28   15.20
  -1   0  -6  141.49   11.40
   2   0   6  324.67   27.50
  -2   0  -6  357.16   27.50
  -2   0  -6  334.87   24.80
  -2   0  -6  364.66   25.70
   2   0   6  342.67   24.60
   2   0   6  357.96   25.70
   3   0   6  251.67   24.60
  -3   0  -6  255.97   21.50
  -3   0  -6  264.67   21.00
  -3   0  -6  253.77   26.80
  -3   0  -6  277.57   24.00
   4   0   6  272.97   20.70
  -4   0  -6  259.77   22.70
  -4   0  -6  294.47   24.00
  -4   0  -6  292.07   21.90
   5   0   6  379.16   28.20
  -5   0  -6  366.16   27.50
   5  -1  -6  201.28   17.20
  -5  -1   6  191.38   16.60
  -5  -1   6  210.58   22.00
   5  -1  -6  215.18   16.80
  -5  -1   6  207.98   17.60
  -5   1   6  252.47   15.90
  -4  -1   6  679.23   43.10
   4  -1  -6  660.23   44.50
  -4  -1   6  609.34   50.69
   4  -1  -6  649.64   43.10
  -4  -1   6  697.03   44.90
  -4  -1   6  684.33   42.70
  -4   1   6  530.05   42.20
   4   1  -6  567.84   43.20
  -4   1   6  542.65   43.40
   4   1  -6  545.75   42.20
  -4   1   6  498.35   46.20
  -4   1   6  585.84   42.30
  -4   1   6  560.94   43.60
  -3  -1   6  699.03   49.90
  -3  -1   6  746.13   52.59
   3  -1  -6  746.53   51.39
  -3  -1   6  729.23   50.99
  -3   1   6  734.43   50.39
   3   1  -6  692.43   50.59
  -3   1   6  719.33   49.70
  -3   1   6  723.33   50.39
  -3   1   6  703.33   54.79
  -3   1   6  741.03   52.19
  -2  -1   6  397.76   30.90
   2  -1  -6  415.06   31.70
  -2  -1   6  415.36   30.40
   2  -1  -6  431.76   29.80
  -2  -1   6  371.46   31.60
  -2  -1   6  393.26   32.10
  -2   1   6  470.45   31.90
  -2   1   6  473.75   31.10
   2   1  -6  446.06   31.60
  -2   1   6  468.85   31.20
  -2   1   6  456.25   30.20
  -1  -1   6   88.09   18.30
  -1  -1   6   87.79    9.90
  -1  -1   6   86.49    9.30
  -1  -1   6   91.89    9.20
  -1  -1   6   93.39   20.30
   1  -1  -6  113.19    8.50
  -1   1   6  120.29   25.60
  -1   1   6  115.19   23.10
  -1   1   6  117.29   10.30
  -1   1   6  115.89   10.50
  -1   1   6  112.79   10.20
   1   1  -6   94.49   12.20
   0  -1  -6  454.05   34.10
   0  -1   6  433.66   36.00
   0  -1   6  430.26   34.30
   0  -1   6  436.36   35.10
   0  -1  -6  405.46   42.20
   0   1   6  543.95   34.80
   0   1  -6  514.85   44.00
   0   1  -6  471.75   36.90
   0   1   6  536.25   43.70
   0   1   6  554.54   34.70
   0   1   6  558.24   45.70
   0   1  -6  552.24   35.00
   0   1  -6  510.95   35.60
   0   1   6  541.35   34.30
   1  -1   6  721.43   52.89
   1  -1   6  744.13   52.99
  -1  -1  -6  760.32   52.99
  -1  -1  -6  652.53   55.19
  -1  -1  -6  670.33   53.39
   1  -1   6  704.03   52.29
  -1  -1  -6  716.23   52.49
   1  -1   6  724.53   54.39
  -1  -1  -6  738.23   52.79
   1   1   6  821.32   52.89
  -1   1  -6  743.63   54.89
  -1   1  -6  797.32   53.69
   1   1   6  835.82   52.49
  -1   1  -6  857.71   52.59
   1   1   6  880.31   56.09
   1   1   6  866.61   53.39
   1   1   6  803.02   67.39
  -1   1  -6  839.22   55.29
   1   1   6  837.62   69.89
  -2  -1  -6 1426.26   91.19
  -2  -1  -6 1276.67   91.49
   2  -1   6 1421.66   91.69
   2  -1   6 1283.47   93.69
   2  -1   6 1353.56   90.79
  -2  -1  -6 1295.17   92.69
  -2   1  -6 1341.07   92.89
   2   1   6 1370.06   91.89
  -2   1  -6 1318.27   90.59
   2   1   6 1301.77   93.19
   2   1   6 1444.56   92.99
  -3  -1  -6  378.66   30.30
   3  -1   6  362.76   35.50
  -3  -1  -6  346.97   30.30
  -3  -1  -6  369.86   32.20
   3  -1   6  382.66   28.90
  -3  -1  -6  352.16   33.10
  -3   1  -6  472.85   31.90
   3   1   6  494.55   33.40
   3   1   6  424.56   32.50
  -3   1  -6  451.35   33.20
   3   1   6  479.55   29.30
  -4  -1  -6    8.70    8.10
   4  -1   6   13.80    4.30
  -4  -1  -6    8.80    5.90
  -4   1  -6    7.70    5.80
  -4   1  -6   10.70    5.20
  -4   1  -6    3.40    6.30
   4   1   6    3.70    4.60
  -5  -1  -6  178.38   16.00
   5  -1   6  171.38   20.30
   5   1   6  190.68   15.10
  -5   1  -6  172.88   18.30
  -5  -2   6  176.48   20.90
   5  -2  -6  202.98   16.50
  -5  -2   6  198.48   16.30
  -5  -2   6  194.78   18.00
  -5  -2   6  192.38   17.20
   5  -2  -6  214.98   18.10
   5   2  -6  246.98   16.70
  -5   2   6  241.08   18.00
  -5   2   6  217.68   15.40
   5   2  -6  223.38   17.50
   5   2  -6  208.88   16.80
   4  -2  -6  368.96   26.10
  -4  -2   6  400.26   26.30
   4  -2  -6  373.96   26.80
  -4  -2   6  381.56   28.00
  -4  -2   6  370.26   26.40
  -4  -2   6  315.27   39.20
  -4   2   6  302.57   33.80
  -4   2   6  322.77   26.90
  -4   2   6  339.97   25.10
   4   2  -6  326.07   26.90
   4   2  -6  379.66   29.70
  -4   2   6  284.77   31.00
  -4   2   6  348.67   32.70
  -4   2   6  334.37   25.10
  -4   2   6  324.67   27.00
   3  -2  -6  136.09   13.90
  -3  -2   6  145.39   27.70
   3  -2  -6  120.69   13.50
   3  -2  -6  133.29   11.50
  -3  -2   6  108.99   15.20
  -3  -2   6  122.19   13.80
  -3   2   6  138.79   11.60
   3   2  -6  137.49   13.70
  -3   2   6  147.09   11.90
  -3   2   6  135.79   14.90
  -3   2   6  134.89   22.20
  -3   2   6  150.78   14.00
   2  -2  -6 1023.70   65.29
  -2  -2   6  961.80   63.79
  -2  -2   6  927.61   65.09
   2  -2  -6 1002.90   63.89
  -2  -2   6  999.80   64.49
  -2   2   6  919.31   64.99
   2   2  -6  873.51   64.49
  -2   2   6  920.81   63.89
  -2   2   6  923.81   64.29
  -2   2   6  886.31   64.09
  -2   2   6  871.41   63.39
  -1  -2   6 2771.62  175.18
   1  -2  -6 2669.93  170.28
  -1  -2   6 2695.53  171.08
  -1  -2   6 2490.35  169.38
  -1  -2   6 2848.11  170.28
  -1   2   6 2518.75  169.48
   1   2  -6 2369.26  170.58
  -1   2   6 2321.17  177.08
  -1   2   6 2404.66  169.08
  -1   2   6 2511.85  179.38
  -1   2   6 2372.36  169.88
  -1   2   6 2343.77  168.98
   0  -2   6  775.72   67.79
   0  -2   6  767.12   57.69
   0  -2  -6  731.43   54.09
   0  -2  -6  731.23   51.49
   0  -2   6  758.72   52.99
   0  -2  -6  794.32   52.59
   0  -2  -6  756.02   61.19
   0  -2  -6  817.72   52.09
   0  -2   6  791.42   51.79
   0   2  -6  722.83   53.69
   0   2   6  733.53   51.79
   0   2   6  737.53   51.99
   0   2   6  748.13   51.99
   0   2  -6  760.52   51.39
   0   2   6  742.03   61.29
   0   2   6  752.92   52.59
   1  -2   6  319.87   22.00
  -1  -2  -6  314.47   22.30
  -1  -2  -6  308.47   23.20
   1  -2   6  283.07   23.80
   1  -2   6  314.77   24.30
  -1  -2  -6  302.77   25.40
  -1  -2  -6  279.77   23.80
   1  -2   6  316.87   21.40
  -1  -2  -6  317.67   22.30
  -1   2  -6  290.07   23.80
   1   2   6  309.27   21.90
   1   2   6  318.27   22.60
  -1   2  -6  276.17   24.10
   1   2   6  307.17   21.50
   1   2   6  280.27   40.70
   1   2   6  241.58   57.89
   1   2   6  307.17   23.10
  -1   2  -6  275.17   23.50
  -1   2  -6  305.27   21.50
  -2  -2  -6   22.10    6.60
   2  -2   6   39.10    5.80
  -2  -2  -6   36.80    6.00
   2  -2   6   37.70    5.60
   2  -2   6   34.70    9.00
  -2  -2  -6   27.10    5.60
   2  -2   6   39.90    6.30
   3  -2   6  627.24   39.30
   3  -2   6  548.85   44.30
  -3  -2  -6  634.84   39.10
  -3  -2  -6  569.74   40.90
  -3  -2  -6  615.04   43.90
  -3  -2  -6  625.94   40.40
  -3   2  -6  513.05   41.10
  -3   2  -6  512.65   38.80
   3   2   6  531.55   38.70
  -3   2  -6  517.35   41.30
   3   2   6  553.74   42.40
   3   2   6  537.45   39.50
  -3   2  -6  518.25   40.20
   4  -2   6  695.63   40.70
  -4   2  -6  555.64   42.20
  -4   2  -6  553.24   41.20
   4   2   6  554.34   40.50
  -4   2  -6  577.94   43.00
  -5  -3   6   43.40    6.60
   5  -3  -6   34.30    5.60
  -5  -3   6   44.00    9.00
  -5  -3   6   53.59   12.70
  -5  -3   6   48.70    7.60
   5  -3  -6   42.10    9.20
   5   3  -6   40.90    6.00
  -5   3   6   48.40   13.40
   5   3  -6   50.89    7.40
  -5   3   6   40.10    6.60
  -4  -3   6  492.35   36.30
   4  -3  -6  474.05   35.70
   4  -3  -6  483.75   34.80
  -4  -3   6  502.35   35.10
  -4  -3   6  480.65   34.70
  -4   3   6  473.85   33.50
  -4   3   6  440.26   38.00
  -4   3   6  475.55   34.40
  -4   3   6  479.65   35.60
   4   3  -6  499.85   35.30
  -4   3   6  442.26   42.60
  -4   3   6  503.95   34.30
   3  -3  -6 1166.78   80.49
   3  -3  -6 1165.88   80.29
  -3  -3   6 1099.19   79.99
   3  -3  -6 1183.08   81.69
  -3  -3   6 1114.99   80.99
  -3   3   6 1257.27   83.49
  -3   3   6 1190.28   80.29
  -3   3   6 1106.79   85.29
   3   3  -6 1216.38   81.09
  -3   3   6 1228.98   79.99
  -3   3   6 1229.28   79.69
   2  -3  -6  234.88   20.20
   2  -3  -6  234.68   21.60
  -2  -3   6  222.98   20.40
  -2  -3   6  221.78   20.50
  -2   3   6  304.97   21.10
  -2   3   6  310.17   21.70
  -2   3   6  301.07   20.20
  -2   3   6  261.17   23.30
   2   3  -6  294.97   21.70
  -2   3   6  294.27   21.00
  -2   3   6  297.57   19.70
  -2   3   6  276.17   26.50
   1  -3  -6   27.10    7.10
   1  -3  -6   21.90    5.60
  -1   3   6   21.30    4.90
  -1   3   6   36.20   12.30
  -1   3   6   17.20    4.80
  -1   3   6   16.30    3.70
  -1   3   6    4.90   20.40
  -1   3   6   19.20   17.70
   1   3  -6   16.80    6.50
  -1   3   6   15.50    4.10
  -1   3   6   18.60    5.00
   0   3   6  134.29   11.70
   0   3   6  130.39   11.10
   0   3  -6  119.89   14.80
   0   3   6  138.79   11.50
   0   3  -6  108.49   12.30
   0   3   6  120.09   28.50
   0   3   6  116.69   16.00
   0   3  -6  131.29   10.40
   0   3   6  126.49   11.20
   0   3   6  130.99   27.80
   1  -3   6 1541.25  110.09
  -1  -3  -6 1432.86  112.19
  -1  -3  -6 1601.14  110.59
  -1  -3  -6 1586.94  110.39
   1  -3   6 1533.95  109.49
  -1  -3  -6 1520.45  110.69
  -1  -3  -6 1555.24  109.59
   1  -3   6 1629.44  113.99
   1  -3   6 1642.14  110.09
  -1  -3  -6 1615.54  109.99
  -1   3  -6 1756.92  109.99
   1   3   6 1816.02  109.99
   1   3   6 1478.65  110.99
  -1   3  -6 1587.04  111.39
  -1   3  -6 1796.82  112.09
   1   3   6 1789.62  110.49
  -1   3  -6 1687.53  110.89
   1   3   6 1618.04  125.19
  -1   3  -6 1752.92  109.59
   1   3   6 1620.74  112.99
   1   3   6 1741.13  109.59
  -2  -3  -6  393.46   32.80
  -2  -3  -6  400.16   34.90
   2  -3   6  456.65   32.30
  -2  -3  -6  441.96   32.00
   2  -3   6  423.96   31.40
   2  -3   6  446.36   32.50
   2  -3   6  418.76   35.00
  -2  -3  -6  425.86   33.40
  -2  -3  -6  430.36   31.80
  -2  -3  -6  424.06   33.10
   2   3   6  449.06   31.80
  -2   3  -6  476.65   31.60
   2   3   6  509.45   32.50
  -2   3  -6  494.75   34.50
  -2   3  -6  481.25   34.00
  -2   3  -6  465.65   34.00
   2   3   6  490.45   33.80
   2   3   6  506.85   32.50
   3  -3   6  176.78   16.20
   3  -3   6  185.88   13.70
  -3  -3  -6  176.68   18.90
   3  -3   6  173.68   22.90
  -3  -3  -6  173.98   15.30
  -3  -3  -6  171.68   19.40
  -3  -3  -6  188.58   14.20
  -3  -3  -6  181.58   15.60
   3   3   6  139.89   17.00
  -3   3  -6  163.08   16.30
  -3   3  -6  177.68   17.40
  -3   3  -6  156.28   13.60
   3   3   6  162.08   14.50
  -3   3  -6  163.28   15.60
   4  -3   6   24.80    5.30
   4  -3   6   25.10    4.40
  -4  -3  -6   26.00    9.10
  -4   3  -6   18.20    5.90
  -4   3  -6   26.70    4.60
  -4   3  -6   15.60    6.00
   5  -4  -6  532.15   39.80
  -5  -4   6  585.44   40.20
  -5  -4   6  560.04   43.60
   5  -4  -6  639.74   39.50
  -5  -4   6  603.54   39.60
  -5  -4   6  571.54   40.10
  -5   4   6  507.65   42.20
   5   4  -6  518.55   39.10
  -4   4   6   82.49   10.30
   4   4  -6   74.79   12.50
  -4   4   6   89.69    9.50
   4   4  -6   77.29    9.90
  -4   4   6   94.49    9.40
  -3  -4   6    6.30    5.90
  -3  -4   6    5.00    9.90
   3  -4  -6    8.20    6.30
  -3  -4   6   15.10    5.90
   3  -4  -6   17.80    6.80
   3  -4  -6   11.80    5.00
  -3   4   6   11.40    4.40
  -3   4   6    8.70    9.90
   3   4  -6   11.40    5.70
   3   4  -6   31.90    9.00
  -3   4   6   13.20    4.90
  -3   4   6   11.50    3.90
  -2  -4   6  992.00   74.39
   2  -4  -6  958.00   75.99
   2  -4  -6 1207.48   76.49
  -2  -4   6  975.80   74.09
   2  -4  -6 1063.39   73.79
   2  -4  -6 1109.79   74.69
   2  -4  -6 1042.20   73.59
  -2   4   6 1126.69   75.19
   2   4  -6 1158.38   74.99
  -2   4   6 1131.39   74.49
  -2   4   6 1076.59   73.49
  -2   4   6 1022.90   82.89
  -2   4   6 1199.88   74.29
  -2   4   6 1177.18   75.29
   1  -4  -6 1790.42  112.29
  -1  -4   6 1693.73  111.99
   1  -4  -6 1716.53  112.69
   1  -4  -6 1686.23  111.69
   1  -4  -6 1757.32  112.69
  -1   4   6 1562.84  114.69
  -1   4   6 1713.63  132.39
  -1   4   6 1619.44  133.19
  -1   4   6 1621.24  112.19
   1   4  -6 1575.74  111.69
  -1   4   6 1578.84  111.59
  -1   4   6 1678.73  111.89
   1   4  -6 1695.73  112.99
  -1   4   6 1664.63  112.79
  -1   4   6 1633.14  112.29
   0  -4  -6 1057.09   60.89
   0   4   6  876.51   57.99
   0   4   6  842.62   90.39
   0   4   6  821.82   57.59
   0   4   6  779.52   73.69
   0   4   6  806.72   57.09
   0   4  -6  804.32   56.79
   0   4   6  800.22   57.29
   0   4   6  816.32   56.79
   0   4  -6  779.02   57.89
  -1  -4  -6  327.37   28.90
  -1  -4  -6  338.07   23.10
  -1  -4  -6  360.96   24.50
   1  -4   6  297.97   23.70
  -1  -4  -6  348.77   23.70
  -1  -4  -6  311.47   25.00
   1  -4   6  348.97   22.80
  -1  -4  -6  354.16   24.60
   1  -4   6  349.27   23.30
  -1   4  -6  284.67   25.70
   1   4   6  309.57   23.50
   1   4   6  310.37   23.70
  -1   4  -6  299.87   25.80
  -1   4  -6  313.07   23.40
  -1   4  -6  296.07   24.60
  -1   4  -6  324.47   22.80
   1   4   6  317.27   23.30
   1   4   6  288.07   26.80
   2  -4   6    9.70    9.60
   2  -4   6   10.40    5.60
  -2  -4  -6    7.10    5.60
  -2  -4  -6    9.60    4.20
  -2  -4  -6   10.50    7.30
  -2  -4  -6   12.10    8.50
   2  -4   6    4.90    3.00
  -2  -4  -6   11.30    4.20
   2  -4   6    7.50    3.70
  -2   4  -6   11.40    5.70
  -2   4  -6   11.00    3.50
   2   4   6    3.60    5.90
   2   4   6    6.60    4.20
  -2   4  -6   -1.30    4.60
  -2   4  -6    4.60    6.20
  -2   4  -6   -0.90    5.80
  -3  -4  -6  506.45   42.30
  -3  -4  -6  518.95   39.30
  -3  -4  -6  513.95   42.70
   3  -4   6  577.84   37.30
  -3  -4  -6  575.64   36.20
   3  -4   6  528.75   42.90
   3  -4   6  583.54   37.60
  -3   4  -6  463.75   37.00
  -3   4  -6  467.75   37.70
   3   4   6  492.95   36.60
  -3   4  -6  476.05   35.70
  -3   4  -6  469.05   38.00
  -4  -4  -6 1127.99   81.89
   4  -4   6 1202.98   79.09
  -4  -4  -6 1126.99   78.59
   4  -4   6 1131.39   78.09
  -4   4  -6 1179.18   81.89
  -4   4  -6 1179.48   80.39
  -4   4  -6 1148.89   78.59
   5  -5  -6  110.39    9.50
  -5  -5   6  146.19   18.20
  -5  -5   6  127.79   10.20
   5  -5  -6  116.29   10.40
  -5   5   6  118.79   12.20
  -5   5   6   89.49   12.20
   5   5  -6  108.39   12.70
  -4  -5   6  571.24   39.20
  -4  -5   6  588.44   41.30
   4   5  -6  511.95   39.70
  -4   5   6  618.34   40.60
   4   5  -6  478.75   41.50
   3  -5  -6  528.25   40.30
  -3  -5   6  505.65   43.80
   3  -5  -6  465.75   39.50
   3  -5  -6  531.85   38.00
  -3  -5   6  494.15   39.20
   3  -5  -6  530.75   39.20
   3   5  -6  569.54   39.20
  -3   5   6  593.54   37.80
  -3   5   6  585.54   38.50
  -3   5   6  553.94   42.60
  -3   5   6  518.15   40.50
  -3   5   6  601.94   40.10
   3   5  -6  594.94   39.70
   2  -5  -6 1043.70   66.19
   2  -5  -6 1043.60   67.19
   2  -5  -6 1076.69   68.09
   2  -5  -6 1027.20   67.29
  -2  -5   6  900.51   67.79
  -2   5   6  918.51   69.19
  -2   5   6  904.21   65.49
   2   5  -6  914.01   66.99
  -2   5   6  969.60   66.19
  -2   5   6  890.61   66.89
  -1  -5   6   19.70    4.60
   1  -5  -6   28.60    5.80
   1  -5  -6   24.70    6.20
   1  -5  -6   22.70    4.80
   1  -5  -6   17.90    4.70
  -1   5   6   36.10    8.50
  -1   5   6   26.00    4.90
  -1   5   6   25.40    5.00
  -1   5   6   31.90    6.50
   1   5  -6   39.20    5.60
  -1   5   6   26.20    4.90
   0  -5  -6  838.72   62.59
   0  -5   6  962.70   61.59
   0  -5  -6  920.51   61.79
   0  -5  -6  878.61   61.19
   0  -5  -6  925.81   62.09
   0   5   6  942.61   61.99
   0   5  -6  885.11   62.29
   0   5  -6  838.92   62.19
   0   5   6  853.51   63.99
   0   5   6  933.91   61.69
   0   5  -6  946.31   61.19
   0   5   6  905.21   61.29
  -1  -5  -6  916.01   73.39
  -1  -5  -6 1007.80   63.39
  -1  -5  -6  952.70   63.49
   1   5   6  786.72   65.89
  -2  -5  -6  855.61   61.09
   2  -5   6  833.42   58.79
  -2  -5  -6  769.12   62.09
  -2  -5  -6  838.42   58.89
   2  -5   6  840.82   59.19
  -2  -5  -6  926.71   72.99
  -2  -5  -6  880.21   58.59
   2  -5   6  782.82   62.09
   2  -5   6  848.42   58.39
   2   5   6  851.31   62.19
   2   5   6  854.71   58.69
   2   5   6  948.31   59.29
  -2   5  -6  840.22   60.09
  -2   5  -6  878.91   58.39
  -2   5  -6  854.91   59.79
  -2   5  -6  887.51   58.89
  -2   5  -6  907.51   61.69
  -3  -5  -6  302.17   28.30
  -3  -5  -6  352.16   26.00
   3  -5   6  356.66   24.10
   3  -5   6  320.47   35.20
  -3  -5  -6  341.57   26.10
  -3  -5  -6  391.26   31.90
  -3  -5  -6  341.57   25.40
   3  -5   6  333.07   25.50
  -3   5  -6  325.47   26.70
  -3   5  -6  338.17   24.10
  -3   5  -6  319.97   26.10
   3   5   6  329.57   24.60
  -4  -5  -6    6.60    3.30
   4  -5   6    8.50    4.50
  -4  -5  -6   26.20   15.60
   4  -5   6   28.30   12.30
   4  -5   6    8.70    2.30
  -4  -5  -6    5.50    3.20
  -4   5  -6   11.10    4.80
  -4   5  -6   11.70    5.00
  -4   5  -6    9.10    5.50
   4   5   6    8.00    5.70
  -5  -6   6  299.27   21.50
   5  -6  -6  284.77   21.00
   5  -6  -6  320.17   21.50
  -5  -6   6  291.57   20.50
  -5   6   6  273.97   21.80
  -5   6   6  234.28   20.60
  -4  -6   6  184.78   14.20
   4  -6  -6  175.68   14.20
   4  -6  -6  176.08   15.60
  -4  -6   6  171.88   17.40
  -4  -6   6  171.38   15.30
  -4  -6   6  159.68   15.30
  -4   6   6  137.09   13.10
  -4   6   6  151.28   17.80
   4   6  -6  128.19   13.80
   3  -6  -6  254.67   21.10
  -3  -6   6  251.27   20.00
   3  -6  -6  259.47   18.10
   3  -6  -6  263.87   21.10
  -3   6   6  229.88   18.30
  -3   6   6  229.08   20.30
   3   6  -6  224.78   19.70
  -3   6   6  212.98   20.60
  -3   6   6  234.28   22.80
   3   6  -6  228.88   19.90
  -3   6   6  241.78   21.00
   2  -6  -6  317.97   22.70
   2  -6  -6  315.87   23.10
  -2  -6   6  294.27   22.00
   2  -6  -6  296.67   20.30
  -2   6   6  241.48   20.00
  -2   6   6  246.68   20.50
  -2   6   6  229.98   23.80
  -2   6   6  228.08   20.50
   1  -6  -6  835.92   59.39
   1  -6  -6  945.31   59.69
  -1  -6   6  864.91   60.09
   1  -6  -6  895.31   59.09
   1   6  -6  800.82   57.79
  -1   6   6  792.92   58.19
  -1   6   6  812.22   58.39
   0  -6  -6 1623.84  111.89
   0  -6  -6 1632.44  109.39
   0  -6  -6 1639.04  110.29
   0  -6   6 1627.74  109.39
   0   6  -6 1549.14  110.19
   0   6  -6 1588.24  109.39
   0   6   6 1737.13  110.29
  -1  -6  -6  146.09   11.20
   1  -6   6  126.09   14.10
  -1  -6  -6  137.19   13.90
  -1  -6  -6  152.18   12.90
  -1   6  -6  103.49   10.30
   1   6   6  104.79   11.20
  -1   6  -6  106.99   14.30
   2  -6   6   90.39    8.80
  -2  -6  -6   73.49   12.80
   2  -6   6   83.29    7.00
   2  -6   6   83.79    9.00
  -2  -6  -6   97.99   14.80
  -2   6  -6   64.59   11.20
  -2   6  -6   59.49    7.40
  -2   6  -6   58.69   11.70
   2   6   6   58.59    8.90
  -2   6  -6   70.59    8.90
   2   6   6   58.79   12.20
  -2   6  -6   50.69   11.30
   3  -6   6  639.64   46.90
  -3  -6  -6  640.14   46.90
  -3  -6  -6  649.74   46.80
  -3  -6  -6  623.24   49.50
   3  -6   6  646.44   48.20
  -3   6  -6  734.33   49.10
  -3   6  -6  743.23   49.60
   3   6   6  738.73   49.70
  -3   6  -6  714.03   46.70
  -4  -6  -6  276.77   18.00
   4  -6   6  272.37   18.30
  -4  -6  -6  286.87   20.90
   4   6   6  211.38   19.40
  -4   6  -6  225.48   19.60
  -4  -7   6  599.14   44.80
   4  -7  -6  598.84   46.40
  -4  -7   6  602.54   46.40
   4  -7  -6  659.83   45.50
  -4  -7   6  626.64   45.30
  -4   7   6  730.43   45.50
  -4   7   6  735.23   47.90
   4   7  -6  659.33   45.50
  -4   7   6  670.83   45.80
   3  -7  -6  915.71   65.59
  -3  -7   6  965.40   64.29
   3  -7  -6 1040.50   66.69
   3  -7  -6  983.70   63.39
  -3   7   6  908.21   63.49
  -3   7   6  888.51   64.09
   3   7  -6  780.62   64.09
  -3   7   6  945.11   66.69
  -3   7   6  926.91   64.79
   2  -7  -6  253.57   22.90
   2  -7  -6  283.97   23.10
  -2  -7   6  244.28   22.50
   2  -7  -6  287.27   20.70
   2  -7  -6  263.37   20.60
  -2   7   6  310.07   21.20
  -2   7   6  277.17   21.00
  -2   7   6  289.97   24.00
  -2   7   6  279.57   21.30
   1  -7  -6   70.69    7.60
   1  -7  -6   71.09   12.50
  -1  -7   6   67.29   10.20
   1  -7  -6   65.49    7.90
   1  -7  -6   75.79   11.70
  -1   7   6   69.09   11.20
  -1   7   6   64.89    9.20
  -1   7   6   59.99    8.10
  -1   7   6   61.69    8.50
   0  -7  -6  520.55   35.60
   0  -7  -6  498.05   34.30
   0  -7   6  490.15   34.30
   0  -7  -6  509.05   36.50
   0  -7  -6  523.05   35.00
   0   7  -6  478.35   34.10
   0   7   6  501.65   35.90
   0   7  -6  431.36   34.60
   0   7   6  526.75   35.70
   0   7   6  469.25   36.50
   0   7   6  474.85   34.70
  -1  -7  -6  967.70   72.69
  -1  -7  -6 1040.40   72.19
  -1  -7  -6  965.00   70.79
   1  -7   6  904.21   70.09
  -1   7  -6 1101.89   73.39
   1   7   6 1100.29   70.99
  -1   7  -6 1011.80   71.49
   1   7   6 1047.80   72.69
  -1   7  -6 1105.49   70.69
  -1   7  -6 1135.09   70.39
   2  -7   6 1360.46   85.69
  -2  -7  -6 1390.36   85.79
   2  -7   6 1365.26   86.19
  -2  -7  -6 1431.46   86.99
  -2   7  -6 1184.78   86.19
  -2   7  -6 1214.38   87.89
  -2   7  -6 1177.98   85.39
   2   7   6 1171.88   87.49
  -2   7  -6 1200.68   85.09
  -2   7  -6 1183.68   86.29
   2   7   6 1191.88   85.49
   3  -7   6  270.87   22.00
   3  -7   6  309.87   25.00
  -3  -7  -6  286.37   22.30
   3  -7   6  287.87   24.20
  -3   7  -6  322.97   23.10
   3   7   6  319.17   22.30
  -3   7  -6  340.87   25.80
  -3   7  -6  316.87   22.10
   4  -7   6   11.20    4.50
   4  -7   6    6.70    2.70
   4   7   6   14.10    3.20
  -4   7  -6   13.60    4.00
   4   7   6   11.10    4.50
  -4   7  -6   16.40    8.00
  -4  -8   6   96.79   10.80
  -4  -8   6   99.59   12.40
   4   8  -6   77.39    9.50
  -4   8   6   74.29    8.00
  -4   8   6   85.09   11.40
   3  -8  -6    6.90    5.50
  -3   8   6   22.10    7.60
  -3   8   6   11.10    7.50
  -3   8   6   14.80    3.80
   2  -8  -6  781.42   47.00
  -2  -8   6  719.33   47.20
   2  -8  -6  760.52   49.60
  -2   8   6  635.14   46.30
  -2   8   6  606.04   48.50
  -2   8   6  630.84   49.10
  -2   8   6  615.54   46.60
  -2   8   6  634.64   46.90
   1  -8  -6 1783.32  106.89
   1  -8  -6 1709.73  106.29
   1  -8  -6 1812.22  107.79
  -1   8   6 1482.55  106.59
  -1   8   6 1369.46  106.49
   1   8  -6 1499.65  105.89
  -1   8   6 1480.95  106.29
  -1   8   6 1482.05  108.19
   0  -8  -6  334.57   24.80
   0   8  -6  266.47   20.00
   0   8   6  246.68   21.30
   0   8   6  272.57   20.70
   0   8   6  261.57   21.10
   0   8   6  271.37   22.50
   0   8  -6  278.87   20.70
  -1  -8  -6  192.88   22.60
   1  -8   6  164.88   15.30
  -1  -8  -6  175.48   15.70
  -1  -8  -6  152.98   16.30
  -1  -8  -6  177.48   14.60
   1   8   6  197.28   15.00
  -1   8  -6  194.88   16.20
   1   8   6  209.28   18.30
  -1   8  -6  166.78   16.10
   1   8   6  189.08   15.10
  -2  -8  -6  130.99   11.50
   2  -8   6  132.39   12.30
  -2  -8  -6  136.89   12.10
  -2  -8  -6  140.39   13.90
   2  -8   6  134.29   11.40
  -2  -8  -6  109.29   23.00
   2  -8   6  119.69   13.00
   2   8   6  154.28   12.20
  -2   8  -6  131.99   11.30
  -2   8  -6  162.18   17.90
   2   8   6  150.08   12.30
  -2   8  -6  139.99   12.00
  -3  -8  -6  362.56   22.60
   3  -8   6  365.16   22.70
  -3  -8  -6  356.36   29.20
   3   8   6  262.77   23.80
  -3   8  -6  264.17   25.80
   3   8   6  269.87   22.40
  -4  -8  -6  509.55   35.60
   4  -8   6  537.25   36.20
   4  -8   6  533.95   35.90
   4  -9  -6  416.26   32.10
   4  -9  -6  435.56   29.00
  -4   9   6  411.46   28.60
  -4   9   6  382.66   29.60
   3  -9  -6  732.03   56.09
   3  -9  -6  790.92   52.89
   3  -9  -6  741.83   53.09
   3   9  -6  749.53   52.59
  -3   9   6  809.32   55.49
  -3   9   6  777.82   53.29
   2  -9  -6  454.95   41.30
   2  -9  -6  551.94   39.60
   2  -9  -6  518.15   39.30
   2  -9  -6  498.85   38.30
   2  -9  -6  501.45   37.70
  -2   9   6  578.24   38.30
  -2   9   6  571.74   37.80
  -2   9   6  573.04   37.90
  -2   9   6  595.44   40.10
  -2   9   6  559.24   38.30
   1  -9  -6   50.79   11.30
   1  -9  -6   46.20    6.30
   1  -9  -6   54.29    7.90
   1  -9  -6   55.69    9.00
  -1   9   6   46.20    7.40
  -1   9   6   52.49    6.10
  -1   9   6   44.80    8.50
   1   9  -6   49.40    7.20
  -1   9   6   48.20    9.40
   0   9   6  114.59   12.50
   0   9   6  110.19   11.60
   0   9   6  124.79   11.90
   0   9  -6  119.69   10.30
   0   9  -6  113.79   11.60
   0   9   6  123.19   10.40
  -1  -9  -6 1096.99   69.69
   1  -9   6 1019.80   69.49
  -1  -9  -6 1115.49   70.79
  -1   9  -6  956.50   69.29
  -1   9  -6  990.70   68.99
   1   9   6 1015.40   69.59
   1   9   6  982.70   70.79
   1   9   6  971.60   69.29
  -2  -9  -6  648.74   49.40
  -2  -9  -6  624.54   47.60
   2  -9   6  620.44   47.30
   2  -9   6  622.54   48.30
  -2  -9  -6  652.63   47.50
  -2   9  -6  791.52   47.50
   2   9   6  790.12   48.40
  -2   9  -6  799.32   48.10
  -3  -9  -6  381.26   35.50
  -3  -9  -6  411.96   29.50
  -3  -9  -6  402.86   30.00
   3  -9   6  472.85   34.00
   3  -9   6  446.46   29.80
   3  -9   6  425.46   29.70
   3   9   6  413.86   29.50
  -3   9  -6  418.36   31.50
  -3   9  -6  415.76   29.40
   3   9   6  448.96   31.20
   4 -10  -6  120.59    9.60
  -4  10   6  120.99   10.50
  -4  10   6   95.89    8.50
   3 -10  -6   39.20    8.20
   3 -10  -6   40.50    7.60
   3 -10  -6   43.60    5.40
  -3  10   6   54.79    8.40
  -3  10   6   57.09    6.00
   2 -10  -6  466.15   39.10
   2 -10  -6  531.65   38.60
   2 -10  -6  535.45   39.00
   2 -10  -6  555.24   38.20
  -2  10   6  557.94   38.70
  -2  10   6  547.45   37.50
  -2  10   6  523.25   37.60
   1 -10  -6  799.02   48.60
   1 -10  -6  779.02   50.29
   1 -10  -6  737.53   48.90
   1 -10  -6  757.92   49.80
   1 -10  -6  645.44   52.99
  -1  10   6  675.03   49.90
   1  10  -6  649.54   48.00
  -1  10   6  654.53   48.30
  -1  10   6  673.03   48.50
  -1  10   6  665.93   48.70
   0 -10  -6 1139.29   73.09
   0 -10  -6 1176.18   74.19
   0 -10  -6 1092.79   73.29
   0 -10  -6 1018.50   77.09
   0  10   6 1080.39   73.59
   0  10  -6 1019.60   72.69
   0  10   6 1034.10   72.79
   0  10  -6 1036.40   72.49
   0  10   6 1056.69   73.19
   0  10   6 1060.89   74.09
   1  10   6   24.10    4.80
   1  10   6   27.70    6.90
  -1  10  -6   25.40    5.80
  -1  10  -6   30.00    5.00
   1  10   6   22.40    4.50
  -2  10  -6  109.99    9.90
   2  10   6  117.49    9.90
   2  10   6  109.49   12.30
  -2  10  -6  112.19    9.50
   2  10   6  121.29   10.00
   3 -10   6  247.38   19.20
   3 -10   6  274.57   24.60
  -3 -10  -6  242.08   18.90
  -3 -10  -6  279.87   19.80
   3 -10   6  276.17   19.50
   3  10   6  292.87   19.40
  -3  10  -6  265.07   19.10
   3  10   6  286.17   20.30
   3 -11  -6  578.44   39.30
   3 -11  -6  564.44   39.70
   3 -11  -6  584.04   40.30
   3 -11  -6  565.34   39.10
  -3  11   6  541.95   38.90
  -3  11   6  570.24   40.10
   2 -11  -6  263.77   19.50
   2 -11  -6  274.97   19.20
   2 -11  -6  260.37   18.60
   2 -11  -6  260.67   22.40
  -2  11   6  246.08   20.50
  -2  11   6  233.98   18.10
  -2  11   6  252.27   18.60
  -2  11   6  242.38   18.90
   1 -11  -6   92.19   13.60
   1 -11  -6   97.99    9.40
   1 -11  -6   92.39    9.00
  -1  11   6   86.79    8.70
   1  11  -6   82.29    8.20
  -1  11   6   80.39    9.70
  -1  11   6   82.09    9.00
   0 -11  -6  490.85   35.30
   0 -11  -6  499.65   33.60
   0 -11  -6  503.45   33.20
   0  11   6  472.25   33.30
   0  11  -6  448.46   33.20
   0  11   6  465.35   33.50
   0  11   6  423.46   35.80
   0  11   6  474.75   33.90
  -1 -11  -6  498.45   32.60
   1 -11   6  457.05   32.30
  -1 -11  -6  538.35   37.20
  -1 -11  -6  458.25   33.00
   1 -11   6  456.45   35.60
   1  11   6  469.75   33.50
  -1  11  -6  403.56   32.90
  -1  11  -6  465.35   32.20
   1  11   6  461.45   32.70
   1  11   6  448.06   32.20
  -2 -11  -6  741.93   51.19
   2 -11   6  764.62   50.09
   2 -11   6  698.53   52.89
   2 -11   6  772.72   50.39
  -2 -11  -6  783.02   49.70
  -2 -11  -6  762.92   49.99
   2  11   6  682.13   49.50
   2  11   6  716.93   49.90
  -2  11  -6  699.13   49.50
  -2  11  -6  709.43   49.80
   2  11   6  734.63   49.70
   2  11   6  681.03   49.20
   3 -11   6  155.98   10.90
   3 -11   6  141.59   10.80
  -3 -11  -6  140.79   10.30
   3  11   6  114.99   11.20
  -3  11  -6  135.89   10.40
   3 -12  -6   17.60    4.30
   3 -12  -6   21.90    4.70
  -3  12   6   23.70    5.00
   2 -12  -6  354.66   25.10
   2 -12  -6  342.77   25.50
   2 -12  -6  323.57   28.20
   2 -12  -6  359.16   25.10
  -2  12   6  368.16   25.40
  -2  12   6  368.86   25.10
  -2  12   6  362.56   26.20
  -2  12   6  367.96   24.70
   1 -12  -6  567.84   43.60
   1 -12  -6  582.74   42.80
   1 -12  -6  595.04   41.90
   1 -12  -6  535.25   41.80
  -1  12   6  618.64   42.00
  -1  12   6  663.53   42.90
  -1  12   6  664.13   41.70
   1  12  -6  626.94   41.60
  -1  12   6  634.84   42.40
   0 -12  -6  279.27   20.80
   0 -12  -6  276.77   21.00
   0 -12  -6  284.27   24.40
   0  12   6  288.77   20.90
   0  12   6  300.17   20.80
   0  12   6  303.17   21.70
   0  12   6  306.37   21.00
   0  12  -6  282.37   20.90
   0  12   6  283.37   20.40
   0  12  -6  295.47   20.60
  -1 -12  -6  191.88   15.60
  -1 -12  -6  205.48   18.30
  -1 -12  -6  204.98   15.50
   1  12   6  212.28   15.70
  -1  12  -6  194.88   15.60
   1  12   6  211.78   15.50
   1  12   6  219.58   16.80
   1  12   6  220.98   15.40
  -1  12  -6  213.38   15.30
  -2 -12  -6   59.09    6.30
   2 -12   6   75.99   12.00
  -2 -12  -6   58.29    7.60
   2 -12   6   56.09    8.30
  -2  12  -6   68.49    6.20
   2  12   6   73.29    6.80
   2  12   6   83.39    7.40
  -2  12  -6   75.19    5.90
   2 -13  -6  333.47   22.70
   2 -13  -6  306.77   22.70
   2 -13  -6  316.07   21.80
  -2  13   6  290.67   21.40
   1 -13  -6    5.90    3.10
   1 -13  -6    4.50    2.70
  -1  13   6    2.20    4.20
  -1  13   6    3.00    1.90
  -1  13   6    0.20    3.00
  -1  13   6   -2.00    4.50
   0 -13  -6   87.49    8.20
   0 -13  -6  103.59    8.10
   0 -13  -6  100.39    7.90
   0 -13  -6  103.79   12.20
   0  13   6   69.19    6.70
   0  13   6   80.29    9.40
   0  13   6   74.39    8.00
   0  13  -6   76.39    7.50
  -1 -13  -6 1082.39   69.19
  -1 -13  -6  953.50   69.09
   1  13   6 1050.89   68.89
  -1  13  -6 1025.50   68.99
   1  13   6 1016.40   68.99
   1 -14  -6  419.16   28.20
   1 -14  -6  424.16   28.70
   1 -14  -6  450.25   28.60
  -1  14   6  347.57   28.20
   0 -14  -6  304.37   19.50
   0 -14  -6  250.27   20.70
   0 -14  -6  267.67   19.10
   0  14   6  263.07   18.70
   0  14  -6  269.77   18.90
  -5   0   7   40.90    9.50
   5   0  -7   20.80    6.20
   5   0  -7   29.10    9.00
  -5   0   7   32.70    6.00
  -5   0   7   30.10    5.00
  -4   0   7 1195.08   83.39
   4   0  -7 1299.07   84.99
  -4   0   7 1193.58   82.49
  -4   0   7 1170.68   84.09
  -3   0   7  970.50   64.99
  -3   0   7  972.10   65.79
  -3   0   7  965.60   65.69
   3   0  -7  931.21   66.19
  -3   0   7  904.51   67.89
  -3   0   7  957.60   66.49
  -2   0   7 1073.19   75.29
   2   0  -7 1018.50   74.69
  -2   0   7 1107.99   73.99
  -2   0   7 1126.39   73.39
  -1   0   7   10.60    5.50
  -1   0   7    5.70    3.50
  -1   0   7    7.90    3.30
   1   0  -7   15.80    7.60
  -1   0   7    3.50    5.70
   1   0  -7   11.00    6.50
  -1   0   7    6.30    5.80
   0   0  -7  365.86   26.20
   0   0  -7  383.56   27.60
   0   0   7  369.16   26.90
   0   0  -7  367.16   25.60
   0   0   7  366.96   26.40
   0   0   7  368.76   26.80
   0   0  -7  358.66   29.30
   0   0   7  394.66   28.20
  -1   0  -7 1389.66   94.39
  -1   0  -7 1524.25   93.89
  -1   0  -7 1257.37   93.09
   1   0   7 1426.06   94.09
  -1   0  -7 1317.27   95.49
   1   0   7 1411.86   95.59
   1   0   7 1397.46   93.49
   1   0   7 1357.76   93.49
   2   0   7  595.14   49.30
   2   0   7  721.33   47.60
   2   0   7  726.03   50.89
   2   0   7  743.83   47.20
  -2   0  -7  663.63   54.29
  -2   0  -7  676.33   48.30
  -2   0  -7  675.93   47.10
  -2   0  -7  681.03   49.80
  -3   0  -7 1048.10   70.59
   3   0   7 1029.00   67.79
  -3   0  -7 1073.89   68.89
   3   0   7  934.61   69.09
  -3   0  -7  929.91   69.89
   3   0   7  961.70   73.49
   4   0   7    2.10    4.10
  -4   0  -7    0.60    5.70
  -4   0  -7    0.60    2.90
   5  -1  -7  398.36   28.70
  -5  -1   7  365.76   27.20
  -5  -1   7  332.27   28.60
  -5   1   7  386.56   28.70
  -5   1   7  411.76   26.80
   5   1  -7  422.96   28.30
   4  -1  -7   72.39    8.80
  -4  -1   7   80.59   15.60
  -4  -1   7   62.59    9.50
  -4  -1   7   58.59    9.30
   4   1  -7   87.59   10.10
  -4   1   7   89.29   17.90
  -4   1   7   86.79    8.50
  -3  -1   7  228.28   20.10
   3  -1  -7  237.48   21.90
  -3  -1   7  250.37   22.00
  -3  -1   7  252.37   22.00
  -3  -1   7  222.08   25.70
  -3   1   7  310.47   22.60
  -3   1   7  315.47   21.00
   3   1  -7  301.57   22.20
  -3   1   7  311.97   23.10
  -3   1   7  284.37   21.20
   2  -1  -7 1004.10   75.89
  -2  -1   7  999.00   73.49
  -2  -1   7  964.40   74.69
  -2  -1   7 1014.60   73.59
  -2   1   7 1170.88   74.99
   2   1  -7 1144.69   73.99
  -2   1   7 1149.19   73.69
  -2   1   7 1131.19   72.69
   1  -1  -7 1781.92  109.09
   1  -1  -7 1782.62  107.79
  -1  -1   7 1634.24  107.89
   1  -1  -7 1594.24  109.09
  -1  -1   7 1632.94  108.49
  -1  -1   7 1681.33  110.69
  -1  -1   7 1732.03  108.59
   1   1  -7 1503.55  108.89
  -1   1   7 1484.45  107.79
  -1   1   7 1703.13  109.69
  -1   1   7 1478.45  108.39
  -1   1   7 1487.15  109.19
  -1   1   7 1388.06  108.09
   0  -1  -7  707.23   59.89
   0  -1  -7  766.62   56.69
   0  -1  -7  743.33   59.09
   0  -1   7  763.82   58.19
   0  -1   7  734.63   57.29
   0  -1   7  731.83   56.39
   0  -1  -7  786.12   57.59
   0  -1   7  785.62   57.19
   0   1   7  882.61   57.19
   0   1   7  895.21   66.79
   0   1  -7  908.31   56.79
   0   1   7  901.01   57.09
   0   1   7  926.01   57.49
   0   1  -7  940.11   59.29
   0   1   7  882.21   56.59
   0   1   7  895.01   58.59
   0   1  -7  926.81   57.99
  -1  -1  -7  134.69   14.50
   1  -1   7  130.39   11.40
   1   1   7   97.59    9.20
  -1   1  -7  108.69   11.40
   1   1   7   84.89   10.50
  -1   1  -7  102.39   13.80
   1   1   7   95.89   10.30
   1   1   7   90.29   11.90
   1   1   7   93.19   19.10
  -1   1  -7  101.99    9.40
  -2  -1  -7  182.08   19.80
  -2  -1  -7  185.98   18.90
   2  -1   7  205.78   18.20
  -2  -1  -7  181.88   17.20
   2  -1   7  204.48   16.20
   2  -1   7  194.58   21.80
   2   1   7  236.58   16.50
  -2   1  -7  233.78   18.20
  -2   1  -7  230.78   19.70
  -2   1  -7  241.58   16.50
  -2   1  -7  241.88   19.80
   2   1   7  232.38   16.50
  -3  -1  -7  977.00   68.29
  -3  -1  -7 1022.50   66.59
   3  -1   7 1024.20   67.39
   3  -1   7  940.51   70.49
   3  -1   7 1012.10   65.39
  -3   1  -7  941.21   67.39
  -3   1  -7  964.10   66.29
   3   1   7  952.80   65.59
   3   1   7  868.01   68.59
   3   1   7  945.71   65.39
  -3   1  -7  887.91   67.89
   4  -1   7  558.44   37.70
  -4  -1  -7  547.05   38.30
   4   1   7  539.45   37.70
  -4   1  -7  537.95   40.00
  -4   1  -7  541.45   38.30
  -5  -2   7  237.98   19.40
  -5  -2   7  240.68   20.10
   5  -2  -7  218.48   18.40
  -5   2   7  222.28   18.40
   5   2  -7  267.17   18.90
  -5   2   7  252.57   18.40
  -4  -2   7  479.35   36.00
   4  -2  -7  512.25   34.30
  -4  -2   7  468.55   33.20
  -4  -2   7  518.45   36.60
  -4   2   7  425.16   33.90
   4   2  -7  427.66   33.10
  -4   2   7  438.66   32.20
  -4   2   7  440.26   32.20
  -4   2   7  420.86   36.00
   3  -2  -7 1253.67   87.89
  -3  -2   7 1207.88   91.09
   3  -2  -7 1341.07   86.79
  -3  -2   7 1186.08   88.89
  -3  -2   7 1254.57   86.09
  -3  -2   7 1253.07   87.29
  -3  -2   7 1246.48   86.79
  -3   2   7 1278.37   86.09
   3   2  -7 1312.37   88.09
  -3   2   7 1277.87   85.79
  -3   2   7 1316.67   87.39
  -3   2   7 1276.47   86.29
  -2  -2   7  458.15   39.50
  -2  -2   7  467.95   36.80
  -2  -2   7  493.15   35.10
   2  -2  -7  490.05   35.70
  -2  -2   7  502.65   36.20
   2  -2  -7  419.46   37.20
  -2   2   7  540.25   34.90
   2   2  -7  525.85   36.40
  -2   2   7  526.75   35.50
  -2   2   7  550.24   35.60
  -2   2   7  527.35   37.30
   1  -2  -7   55.79   10.20
  -1  -2   7   40.50    7.60
  -1  -2   7   40.80   10.80
  -1  -2   7   43.10    6.40
   1  -2  -7   48.70   10.00
   1  -2  -7   43.90    6.30
  -1  -2   7   45.00    6.90
  -1   2   7   47.00    7.90
   1   2  -7   53.19    8.60
  -1   2   7   45.80    8.70
  -1   2   7   45.00    8.10
  -1   2   7   47.80    7.50
   1   2  -7   60.29   10.10
  -1   2   7   25.00   12.40
  -1   2   7   50.99    6.10
   0  -2  -7  736.33   47.90
   0  -2   7  747.43   47.50
   0  -2  -7  757.22   46.90
   0  -2   7  769.62   49.90
   0  -2  -7  703.13   47.30
   0  -2   7  776.42   47.00
   0  -2   7  735.73   46.20
   0  -2  -7  729.63   49.60
   0   2   7  634.64   47.60
   0   2   7  626.44   46.90
   0   2   7  612.04   46.60
   0   2  -7  626.54   46.10
   0   2   7  580.04   46.00
   0   2  -7  596.44   47.30
   0   2   7  625.84   46.60
   0   2  -7  564.94   51.79
  -1  -2  -7 1172.18   75.59
  -1  -2  -7 1245.88   80.19
   1  -2   7 1190.48   76.39
   1  -2   7 1169.88   78.79
  -1  -2  -7 1166.28   76.39
   1  -2   7 1176.28   76.09
   1  -2   7 1155.78   76.09
  -1  -2  -7 1154.48   76.59
   1   2   7  948.51   75.49
   1   2   7  920.11   78.49
   1   2   7 1008.90   76.29
   2  -2   7 1890.81  136.69
  -2  -2  -7 1873.31  132.99
   2  -2   7 1927.31  133.59
  -2  -2  -7 1856.71  135.99
  -2  -2  -7 1832.22  134.19
  -2  -2  -7 1851.01  134.09
   2  -2   7 1859.41  133.19
   2   2   7 1993.80  133.39
  -2   2  -7 2082.69  134.49
   2   2   7 2095.29  133.89
   2   2   7 2093.19  133.49
   2   2   7 2153.28  136.29
   2   2   7 2083.69  134.69
  -2   2  -7 2126.89  135.79
  -2   2  -7 1975.10  135.49
  -2   2  -7 2096.79  133.39
  -3  -2  -7  128.39   19.40
   3  -2   7  149.09   24.00
   3  -2   7  133.69   11.00
  -3  -2  -7  125.59   12.50
  -3  -2  -7  104.99   18.60
   3  -2   7  146.19   12.10
   3  -2   7  135.39   15.30
  -4  -2  -7   33.00    6.60
   4  -2   7   24.10    4.00
   4  -2   7   29.80    5.40
  -4  -2  -7   26.10    7.60
  -4   2  -7   36.00    6.80
   4   2   7   30.60    5.00
   4   2   7   38.90   10.50
  -4   2  -7   23.10    6.20
  -4   2  -7   33.80    8.60
  -5  -3   7  228.18   17.30
   5  -3  -7  206.98   18.00
  -5  -3   7  257.27   18.40
   5  -3  -7  227.08   17.20
   5   3  -7  239.48   17.60
  -5   3   7  226.58   17.50
  -4  -3   7   58.09    9.60
  -4  -3   7   63.99   14.80
   4  -3  -7   49.10   10.00
   4  -3  -7   54.69    9.90
  -4   3   7   66.89    9.90
   4   3  -7   69.89   11.20
  -4   3   7   74.99    8.40
  -4   3   7   68.29   10.10
  -3  -3   7   52.89    7.50
  -3  -3   7   62.59   11.80
  -3  -3   7   60.89   16.30
  -3   3   7   29.70    6.90
  -3   3   7   45.40    7.50
  -3   3   7   41.00    6.10
  -3   3   7   36.40   10.80
  -3   3   7   25.80   12.70
   3   3  -7   36.10    7.50
  -3   3   7   46.30   10.20
   2  -3  -7  524.75   41.70
   2  -3  -7  561.54   40.70
  -2  -3   7  558.24   41.20
  -2  -3   7  513.15   40.30
  -2   3   7  633.64   40.40
  -2   3   7  584.74   40.00
  -2   3   7  604.24   40.60
   2   3  -7  621.34   41.70
  -2   3   7  566.54   42.10
  -2   3   7  632.04   42.40
   1  -3  -7 2104.39  151.68
  -1  -3   7 1975.50  150.68
   1  -3  -7 2077.09  150.28
   1  -3  -7 2231.08  151.38
   1  -3  -7 2165.78  151.08
  -1   3   7 2218.58  151.88
  -1   3   7 2364.26  151.98
  -1   3   7 2297.17  153.68
  -1   3   7 2482.25  150.78
   1   3  -7 2329.37  150.28
  -1   3   7 2271.77  151.48
  -1   3   7 2277.47  150.28
   1   3  -7 2413.96  151.68
   0  -3   7 1450.35   98.29
   0  -3  -7 1451.05  101.19
   0  -3   7 1462.35   98.89
   0  -3  -7 1493.65   98.59
   0  -3  -7 1455.55   99.19
   0  -3  -7 1517.15   99.39
   0   3   7 1611.34  103.49
   0   3   7 1473.25   98.89
   0   3  -7 1391.06   99.39
   0   3   7 1491.95   99.69
   0   3   7 1479.65   99.89
   0   3  -7 1379.06  100.09
   0   3   7 1413.16   98.89
   0   3  -7 1484.15   98.39
   0   3   7 1412.26   98.29
  -1  -3  -7   29.20    7.70
  -1  -3  -7   34.50    7.70
  -1   3  -7   23.90    6.40
  -1   3  -7   24.10    6.80
   1   3   7   20.80    6.00
   1   3   7   17.60    7.40
   1   3   7   21.60    4.80
  -1   3  -7   26.60    4.10
   1   3   7   22.10    4.50
   2  -3   7  159.18   21.60
   2  -3   7  185.48   13.90
   2  -3   7  190.18   15.80
  -2  -3  -7  188.88   16.20
  -2  -3  -7  168.78   20.40
   2  -3   7  184.48   14.40
  -2  -3  -7  194.08   14.50
   2   3   7  156.28   19.50
  -2   3  -7  180.28   16.20
   2   3   7  175.68   14.20
  -2   3  -7  176.48   15.70
  -2   3  -7  161.18   17.00
   2   3   7  187.38   15.00
  -2   3  -7  175.58   17.20
   3  -3   7  282.17   20.50
   3  -3   7  293.27   33.50
   3  -3   7  275.07   20.40
   3  -3   7  286.87   23.20
  -3  -3  -7  283.67   21.60
  -3  -3  -7  281.77   27.50
  -3  -3  -7  264.87   24.20
  -3   3  -7  263.47   22.80
  -3   3  -7  304.97   20.70
  -3   3  -7  279.27   21.60
   3   3   7  282.27   21.00
  -3   3  -7  259.77   22.90
  -4  -3  -7 1023.20   68.49
  -4  -3  -7  938.31   66.49
   4  -3   7  938.91   65.89
  -4   3  -7  957.60   67.49
  -4   3  -7 1018.40   67.99
  -4   3  -7  999.20   67.29
   4   3   7  967.70   67.99
  -5  -4   7  158.08   13.70
   5  -4  -7  178.88   14.30
  -5  -4   7  188.58   16.60
   5  -4  -7  211.68   15.70
  -5  -4   7  197.98   15.50
  -5   4   7  189.88   20.70
  -5   4   7  171.48   14.60
  -4  -4   7  705.53   52.79
   4  -4  -7  817.42   54.89
  -4  -4   7  702.33   54.09
   4  -4  -7  723.03   52.69
  -4  -4   7  690.73   52.59
  -4   4   7  801.02   52.49
  -4   4   7  826.32   53.79
  -4   4   7  773.32   60.99
   4   4  -7  774.92   53.49
  -4   4   7  782.72   51.99
   3  -4  -7  716.33   47.50
  -3  -4   7  659.23   48.30
   3  -4  -7  692.03   46.30
   3  -4  -7  731.03   46.20
  -3  -4   7  666.43   47.50
  -3  -4   7  630.84   45.70
  -3   4   7  682.23   45.80
  -3   4   7  592.44   49.60
  -3   4   7  549.25   47.50
   3   4  -7  636.04   46.50
  -3   4   7  637.94   45.00
   2  -4  -7  510.65   33.20
   2  -4  -7  514.35   34.10
  -2  -4   7  510.95   32.80
   2  -4  -7  525.25   32.20
  -2   4   7  436.16   32.20
  -2   4   7  399.56   37.80
   2   4  -7  502.55   36.20
  -2   4   7  420.46   32.90
  -2   4   7  401.76   31.60
  -2   4   7  411.66   34.00
  -2   4   7  392.46   33.20
  -2   4   7  417.76   32.80
  -1  -4   7   58.39   10.70
  -1  -4   7   51.19    8.40
   1  -4  -7   57.99    7.60
   1  -4  -7   51.49    8.50
   1  -4  -7   57.29   10.40
   1  -4  -7   58.99   10.60
  -1   4   7   52.79    8.20
   1   4  -7   54.69    7.00
  -1   4   7   50.89    7.60
  -1   4   7   55.99   10.30
  -1   4   7   48.20    9.00
  -1   4   7   47.30    7.90
   0  -4  -7  461.15   35.40
   0  -4   7  435.26   34.20
   0  -4  -7  446.06   38.20
   0  -4  -7  416.76   35.00
   0  -4   7  412.16   33.60
   0  -4  -7  439.76   33.80
   0  -4  -7  467.25   34.90
   0  -4  -7  453.55   34.60
   0   4   7  464.35   35.00
   0   4   7  569.74   35.80
   0   4  -7  493.85   37.20
   0   4   7  533.15   37.50
   0   4  -7  554.24   33.90
   0   4   7  509.75   35.20
   0   4   7  549.05   35.80
   0   4  -7  547.05   35.60
   0   4   7  540.35   34.00
   1  -4   7 2152.58  150.18
  -1  -4  -7 2199.28  149.79
  -1  -4  -7 2115.69  150.88
  -1  -4  -7 2092.29  149.49
  -1  -4  -7 2114.39  150.48
  -1  -4  -7 2042.00  152.18
   1  -4   7 2089.99  149.49
   1   4   7 2384.26  151.08
   1   4   7 2233.38  152.48
   1   4   7 2343.77  150.18
  -1   4  -7 2387.86  150.88
  -1   4  -7 2332.97  152.18
  -1   4  -7 2283.57  151.38
   1   4   7 2343.87  149.59
  -1   4  -7 2393.86  149.59
   1   4   7 2235.38  149.39
   2  -4   7  489.85   34.30
  -2  -4  -7  465.45   34.00
   2  -4   7  477.75   34.30
  -2  -4  -7  473.35   34.20
  -2  -4  -7  465.75   35.30
  -2  -4  -7  460.75   37.70
   2  -4   7  487.25   35.10
  -2  -4  -7  490.75   37.00
   2   4   7  491.65   34.50
  -2   4  -7  501.15   33.80
  -2   4  -7  511.35   35.50
  -2   4  -7  480.35   36.60
   2   4   7  560.14   39.70
  -2   4  -7  480.35   36.20
   2   4   7  432.56   36.50
   3  -4   7  347.37   22.10
   3  -4   7  344.27   24.70
   3  -4   7  325.97   22.10
  -3  -4  -7  314.27   23.10
  -3   4  -7  285.67   23.80
   3   4   7  278.77   25.20
  -3   4  -7  276.67   21.80
  -3   4  -7  280.37   23.90
   3   4   7  273.17   22.50
   4  -4   7    9.60    2.80
   4  -4   7   16.30    6.30
  -4  -4  -7    6.00    8.50
  -4  -4  -7   10.50    3.10
  -4   4  -7   10.10    4.10
  -4   4  -7   11.80    4.60
   4   4   7    3.50    5.90
  -4   4  -7    7.90    4.70
  -5  -5   7  243.78   20.80
   5  -5  -7  288.67   20.10
   5  -5  -7  244.98   19.20
  -5   5   7  266.47   20.90
  -5   5   7  291.97   23.70
  -4  -5   7   93.09   13.40
  -4  -5   7  100.29   11.00
   4  -5  -7   88.39    8.90
  -4  -5   7   94.79   10.70
   4  -5  -7   88.59   11.00
  -4   5   7   93.79    9.00
  -4   5   7   95.39   10.30
  -4   5   7   99.19   21.10
   4   5  -7   94.59   10.30
  -3  -5   7   50.19    8.50
  -3  -5   7   63.39   12.80
   3  -5  -7   63.39    8.20
  -3  -5   7   50.89   11.40
   3  -5  -7   55.59   10.80
   3  -5  -7   57.79    9.20
  -3   5   7   44.70    6.50
  -3   5   7   45.40   10.30
  -3   5   7   35.40    6.70
  -3   5   7   49.00    9.60
   3   5  -7   42.90    9.50
  -3   5   7   41.90   10.40
  -2  -5   7 1600.24   97.39
   2  -5  -7 1467.95   94.19
   2  -5  -7 1534.05   94.29
   2  -5  -7 1533.75   96.09
  -2  -5   7 1456.15   96.29
   2  -5  -7 1529.15   95.49
   2   5  -7 1258.17   95.19
  -2   5   7 1324.47   94.39
  -2   5   7 1289.87   97.19
  -2   5   7 1314.87   93.99
  -2   5   7 1266.57   93.79
  -2   5   7 1321.97   94.69
  -2   5   7 1256.57   95.29
  -1  -5   7  789.32   66.59
   1  -5  -7  807.22   66.19
   1  -5  -7  785.32   66.99
  -1   5   7 1077.09   66.29
  -1   5   7 1058.79   66.49
  -1   5   7 1056.09   69.69
  -1   5   7 1018.70   65.89
   1   5  -7 1039.00   67.09
  -1   5   7 1073.79   67.59
  -1   5   7 1046.70   66.69
   0  -5  -7  651.83   48.20
   0  -5   7  590.84   47.70
   0  -5  -7  636.94   49.10
   0  -5  -7  639.74   49.50
   0  -5  -7  628.64   47.90
   0   5   7  758.22   48.60
   0   5  -7  716.43   49.20
   0   5   7  771.52   51.59
   0   5   7  756.72   49.20
   0   5  -7  791.22   47.90
   0   5   7  765.22   47.90
   1  -5   7  388.16   28.20
  -1  -5  -7  374.16   32.60
  -1  -5  -7  400.06   28.90
  -1  -5  -7  376.76   30.20
  -1  -5  -7  354.46   29.90
  -1  -5  -7  412.16   30.40
  -1  -5  -7  390.86   28.50
   1  -5   7  377.76   29.90
   1   5   7  433.26   33.00
  -1   5  -7  433.96   28.30
  -1   5  -7  401.96   30.00
   1   5   7  439.06   30.70
  -1   5  -7  411.36   28.90
  -1   5  -7  423.86   30.70
   1   5   7  424.36   29.80
  -2  -5  -7  161.58   17.10
   2  -5   7  148.39   12.80
   2  -5   7  153.78   13.90
  -2  -5  -7  153.58   15.30
  -2  -5  -7  151.78   16.80
   2  -5   7  156.78   12.30
  -2  -5  -7  152.68   12.20
   2   5   7  114.69   20.40
  -3  -5  -7  920.51   95.49
  -3  -5  -7  818.92   65.89
   3  -5   7  978.10   66.69
   3  -5   7 1066.79   66.79
   3   5   7  995.90   65.69
   4  -5   7  262.37   20.70
  -4  -5  -7  267.37   27.00
   4  -5   7  262.07   19.90
  -4  -5  -7  261.67   20.60
  -4   5  -7  306.97   21.60
   4   5   7  310.27   21.80
  -4   5  -7  311.07   21.60
  -4  -6   7  500.25   37.30
   4  -6  -7  530.35   36.80
  -4  -6   7  492.75   38.50
   4  -6  -7  556.44   37.90
  -4  -6   7  545.85   39.00
  -4  -6   7  547.25   37.00
  -4   6   7  547.15   36.70
  -4   6   7  539.05   39.40
  -4   6   7  470.45   36.90
  -3  -6   7  994.50   67.99
   3  -6  -7 1031.60   68.49
   3  -6  -7 1031.70   67.29
   3  -6  -7  952.50   65.99
   3  -6  -7  922.81   68.49
   3   6  -7  948.31   67.49
  -3   6   7  892.21   69.09
  -3   6   7  982.50   70.09
  -3   6   7 1007.20   66.79
  -3   6   7 1003.80   67.69
   2  -6  -7  338.37   27.20
   2  -6  -7  345.67   27.10
   2  -6  -7  364.86   28.90
  -2  -6   7  333.07   28.50
   2  -6  -7  375.96   33.60
  -2   6   7  437.86   32.30
  -2   6   7  386.76   29.30
  -2   6   7  431.76   27.70
  -2   6   7  400.46   27.80
   1  -6  -7  119.59   10.30
   1  -6  -7  105.89   10.40
   1  -6  -7  111.79   12.30
  -1   6   7  116.19   10.90
  -1   6   7  119.09   16.00
  -1   6   7  113.49   11.90
   1   6  -7  112.39   11.40
  -1   6   7  114.09   11.40
   0  -6  -7  460.85   37.30
   0  -6  -7  485.35   39.00
   0  -6  -7  489.15   39.30
   0  -6  -7  456.25   39.00
   0   6   7  574.64   40.30
   0   6  -7  581.74   39.30
   0   6   7  577.74   38.20
   0   6   7  589.64   38.00
   0   6   7  609.64   38.40
   0   6  -7  587.04   37.50
   1  -6   7  715.53   47.90
  -1  -6  -7  654.93   47.80
   1  -6   7  630.34   47.30
  -1  -6  -7  685.93   52.69
  -1  -6  -7  633.24   46.30
   1  -6   7  632.64   46.20
  -1  -6  -7  638.24   52.99
  -1  -6  -7  672.23   46.70
   1   6   7  694.13   49.80
   1   6   7  674.93   46.50
  -1   6  -7  729.53   46.30
  -1   6  -7  683.43   47.50
  -1   6  -7  683.23   46.60
   1   6   7  712.03   46.80
  -1   6  -7  669.33   47.70
   2  -6   7 1108.99   75.39
  -2  -6  -7 1065.49   74.79
  -2  -6  -7 1124.69   74.39
   2  -6   7 1085.59   74.39
   2  -6   7 1074.69   75.19
  -2  -6  -7 1176.68   81.39
  -2  -6  -7 1051.59   74.09
  -2  -6  -7 1012.80   76.89
  -2  -6  -7 1091.49   75.39
  -2   6  -7 1087.29   73.79
   2   6   7 1108.49   76.89
   2   6   7 1086.49   74.39
  -2   6  -7 1102.19   75.09
  -2   6  -7 1060.99   76.59
  -2   6  -7 1143.19   76.69
  -3  -6  -7  196.98   14.00
   3  -6   7  193.38   14.30
  -3  -6  -7  198.78   16.50
  -3  -6  -7  191.98   15.10
   3  -6   7  204.18   14.50
  -3   6  -7  173.68   15.80
  -3   6  -7  178.88   14.70
  -3   6  -7  163.88   16.10
   3   6   7  179.98   14.40
   3   6   7  183.58   17.60
  -4  -6  -7   17.80    6.70
   4   6   7   16.90    5.00
  -4  -7   7   74.29    9.50
   4  -7  -7   84.59    8.60
  -4  -7   7   82.09   15.80
   4  -7  -7   81.59    8.70
  -4   7   7  109.89    8.50
   3  -7  -7  224.48   18.20
   3  -7  -7  214.28   17.10
  -3  -7   7  185.58   16.20
  -3  -7   7  191.38   19.00
  -3   7   7  206.68   19.10
  -3   7   7  189.48   16.20
   2  -7  -7  409.86   30.40
   2  -7  -7  420.16   28.60
   2  -7  -7  388.46   31.10
  -2  -7   7  401.36   29.90
   2  -7  -7  388.06   32.00
  -1  -7   7 1231.88   94.59
   1  -7  -7 1578.84   91.89
   1  -7  -7 1605.34   94.49
  -1   7   7 1192.08   93.89
  -1   7   7 1187.78   91.89
   0  -7  -7  601.04   48.00
   0  -7   7  650.43   48.90
   0  -7  -7  599.54   47.20
   0  -7  -7  610.54   46.90
   0   7  -7  733.73   48.60
   0   7   7  754.32   47.70
   0   7  -7  761.72   47.20
   0   7   7  732.73   47.70
   0   7   7  727.53   50.09
   1  -7   7  162.38   14.80
   1  -7   7  175.48   14.40
  -1  -7  -7  179.98   13.70
  -1  -7  -7  168.38   16.30
  -1  -7  -7  174.28   13.70
  -1  -7  -7  155.58   18.50
  -2  -7  -7  136.99   12.60
   2  -7   7  138.89   16.90
  -2  -7  -7  144.09   17.30
   2  -7   7  142.39   14.30
  -2  -7  -7  158.38   12.60
  -2  -7  -7  139.29   21.40
   2   7   7  154.98   12.90
  -2   7  -7  154.38   12.10
  -2   7  -7  157.88   15.60
  -2   7  -7  178.08   15.80
   2   7   7  160.38   15.50
  -2   7  -7  160.58   14.60
   3  -7   7  313.97   26.40
  -3  -7  -7  308.27   24.40
   3  -7   7  309.97   24.60
   3  -7   7  345.87   26.60
  -3   7  -7  389.56   25.70
   3   7   7  366.86   32.40
  -3   7  -7  362.96   27.20
  -3   7  -7  356.16   25.20
   3   7   7  351.76   25.20
  -3   7  -7  377.46   24.50
  -4  -8   7  308.67   22.60
   4  -8  -7  309.77   21.70
  -4  -8   7  328.17   25.20
   4  -8  -7  318.97   22.40
  -4   8   7  293.07   21.80
  -4   8   7  286.47   24.00
   3  -8  -7  569.54   42.90
   3  -8  -7  519.95   46.30
   3  -8  -7  571.94   43.30
  -3   8   7  680.73   43.30
  -3   8   7  688.53   48.80
  -3   8   7  709.83   43.40
  -2  -8   7  311.37   24.10
   2  -8  -7  259.57   28.70
   2  -8  -7  332.77   23.40
   2  -8  -7  321.07   21.90
   2  -8  -7  318.67   27.70
  -2   8   7  275.27   22.10
  -2   8   7  293.37   26.60
  -2   8   7  280.87   22.40
  -2   8   7  303.37   21.80
  -1  -8   7    5.10    6.30
   1  -8  -7    3.60    4.30
   1  -8  -7    3.50   11.10
   1  -8  -7    9.10   11.30
   1  -8  -7   12.30    6.00
   1  -8  -7   17.60    4.00
  -1   8   7   12.00    4.00
  -1   8   7   14.80    5.20
  -1   8   7    9.80    5.90
   1   8  -7    5.00    4.30
   0  -8  -7  297.07   24.00
   0  -8   7  277.27   22.50
   0  -8  -7  290.67   26.20
   0  -8  -7  302.97   22.00
   0  -8  -7  291.27   22.20
   0   8   7  306.97   22.70
   0   8  -7  317.77   21.80
   0   8   7  323.27   22.50
   0   8   7  299.77   24.20
  -1  -8  -7  768.12   56.19
  -1  -8  -7  734.73   58.49
  -1  -8  -7  827.62   55.19
   1  -8   7  779.12   55.49
  -1  -8  -7  811.92   55.29
  -1   8  -7  784.62   54.99
   1   8   7  812.72   56.79
   1   8   7  834.02   55.39
  -1   8  -7  823.92   54.79
   1   8   7  855.61   57.49
  -1   8  -7  806.82   55.59
  -2  -8  -7  707.33   46.30
   2  -8   7  725.83   47.00
  -2  -8  -7  634.34   50.49
  -2  -8  -7  643.14   46.80
   2  -8   7  689.63   47.40
   2  -8   7  715.53   46.30
  -2   8  -7  600.94   46.40
   3  -8   7  168.68   13.90
   3  -8   7  167.28   13.80
  -3  -8  -7  179.48   14.70
   3  -8   7  176.78   16.20
  -3  -8  -7  175.18   13.60
   3   8   7  209.48   15.70
  -3   8  -7  190.58   13.70
   3   8   7  197.28   13.60
   4  -9  -7    9.20    5.00
   4  -9  -7   10.90    4.70
   3  -9  -7   28.00    4.60
   3  -9  -7   29.60    6.90
   3  -9  -7   21.70    4.50
  -3  -9   7   30.10   10.40
   2  -9  -7  470.95   31.40
   2  -9  -7  458.45   37.70
   2  -9  -7  480.25   32.70
   2  -9  -7  478.65   31.40
  -2   9   7  425.56   33.30
  -2   9   7  417.86   31.40
  -2   9   7  399.66   31.90
   1  -9  -7  903.51   66.19
   1  -9  -7  923.11   66.69
   1  -9  -7  905.11   65.19
   1   9  -7 1094.49   64.89
   0  -9   7  793.02   55.29
   0  -9  -7  746.53   58.49
   0  -9  -7  825.92   54.59
   0  -9  -7  868.01   60.49
   0  -9  -7  861.61   54.49
   0   9   7  752.72   56.09
   0   9   7  767.62   54.59
   0   9  -7  744.83   53.99
  -1  -9  -7   36.30    8.60
   1  -9   7   42.50    6.80
   1  -9   7   33.80    6.60
  -1  -9  -7   36.60    5.70
  -1  -9  -7   38.70    5.40
  -2  -9  -7   71.89   15.60
  -2  -9  -7   78.79    7.50
   2  -9   7   85.79    8.50
   2  -9   7   82.69    8.10
  -2  -9  -7   76.99    7.80
  -2   9  -7   76.09    7.50
   2   9   7   92.09    9.70
   2   9   7   71.19    8.00
   2   9   7   74.19    8.10
  -3  -9  -7  183.98   13.90
   3  -9   7  202.98   14.40
   3  -9   7  214.78   14.90
   3   9   7  182.08   14.30
   3   9   7  185.98   15.20
   3 -10  -7  382.56   24.50
   3 -10  -7  336.67   24.50
   3 -10  -7  361.06   23.60
  -3  10   7  300.77   23.90
  -3  10   7  321.07   25.30
   2 -10  -7   97.99    8.90
   2 -10  -7  111.69   10.00
   2 -10  -7   96.89    9.80
   2 -10  -7   84.19   15.70
  -2  10   7  113.69    8.80
  -2  10   7  112.39   10.30
  -2  10   7  116.69   11.80
  -2  10   7  109.09    9.30
   1 -10  -7    1.50    3.80
   1 -10  -7    8.20    8.60
   1 -10  -7    3.40    3.30
   1 -10  -7    1.10    3.30
  -1  10   7    0.00    3.30
  -1  10   7    7.40    5.20
  -1  10   7    2.70    4.80
   0 -10  -7  385.76   25.50
   0 -10   7  352.76   28.50
   0 -10  -7  390.56   28.50
   0 -10  -7  393.56   25.60
   0  10   7  309.77   25.50
   0  10   7  305.27   27.00
   1 -10   7  732.43   55.09
  -1 -10  -7  772.52   55.09
  -1 -10  -7  735.83   55.39
   1  10   7  837.12   55.49
   1  10   7  873.01   55.59
  -1  10  -7  784.32   54.99
   1  10   7  891.71   57.89
  -1  10  -7  840.82   54.99
   2 -10   7  367.56   25.30
   2 -10   7  355.06   26.30
  -2 -10  -7  346.17   27.90
  -2 -10  -7  360.26   24.90
   2 -10   7  340.37   25.90
  -2 -10  -7  353.56   25.10
   3 -10   7  118.89    9.30
   3 -10   7  113.19    9.20
  -3 -10  -7  106.99    8.50
   3  10   7  119.09   10.10
  -3  10  -7  106.59    8.70
   3  10   7  105.79    8.80
   3 -11  -7   63.09    7.70
   3 -11  -7   46.00    5.30
  -3  11   7   49.40    5.00
  -3  11   7   63.19    7.10
   2 -11  -7  430.36   30.60
   2 -11  -7  445.16   31.70
  -2  11   7  451.55   30.80
  -2  11   7  431.16   30.90
  -2  11   7  473.65   32.10
  -2  11   7  427.46   30.50
   1 -11  -7  584.54   39.10
   1 -11  -7  578.44   38.80
   1 -11  -7  536.75   43.30
  -1  11   7  563.64   40.00
  -1  11   7  551.54   38.70
  -1  11   7  559.14   38.10
  -1  11   7  550.24   38.30
   1  11  -7  517.55   38.40
   0 -11  -7  279.07   24.30
   0 -11  -7  278.17   21.80
   0  11  -7  363.96   21.80
   1 -11   7  133.99   16.30
  -1 -11  -7  158.08   11.50
  -1 -11  -7  149.99   15.10
  -1 -11  -7  143.69   10.60
   1  11   7  133.39   12.20
   1  11   7  128.09   10.40
  -1  11  -7  111.19   10.90
  -1  11  -7  110.69    9.90
   1  11   7  128.89   10.80
  -2 -11  -7   14.10    3.70
   2 -11   7   11.70    3.70
  -2 -11  -7   11.20    2.70
   2 -11   7   11.60    4.30
   2  11   7   17.80    5.40
   2 -12  -7  111.09   10.00
   2 -12  -7  131.29   11.10
   2 -12  -7  120.19    9.30
  -2  12   7  115.29    9.60
  -2  12   7  126.29   10.50
   1 -12  -7   -7.70   13.00
   1 -12  -7    3.40    2.50
   1 -12  -7    4.60    3.40
   1 -12  -7    5.10    3.10
  -1  12   7    4.10    2.40
  -1  12   7    3.00    3.60
  -1  12   7    4.10    2.50
   0 -12  -7  321.07   27.20
   0 -12  -7  342.27   24.70
   0 -12  -7  338.27   25.50
   0 -12  -7  336.27   24.70
   0  12   7  386.96   25.10
   0  12   7  376.16   24.50
   0  12   7  366.36   25.30
   0  12  -7  343.37   24.40
   1  12   7  305.47   21.10
   1  12   7  287.27   21.90
   1  12   7  284.27   20.10
  -1  12  -7  295.27   20.60
   1  12   7  296.97   20.70
  -1  12  -7  266.77   20.80
   2  12   7  292.17   19.60
   2  12   7  315.07   20.10
  -2  12  -7  238.78   19.90
   1 -13  -7  522.35   34.40
   1 -13  -7  485.85   33.80
   1 -13  -7  463.85   34.20
  -1  13   7  500.55   33.80
  -1  13   7  507.35   34.10
   0 -13  -7  262.67   18.10
   0 -13  -7  269.47   17.60
   0 -13  -7  275.07   18.10
   0  13   7  226.78   17.70
   0  13   7  227.58   17.10
   0  13  -7  219.08   17.30
   1  13   7   41.40    6.40
   1  13   7   36.90    3.80
  -1  13  -7   52.79    7.30
  -5   0   8  187.48   16.80
   5   0  -8  247.18   17.60
  -5   0   8  234.68   16.10
  -4   0   8  176.88   15.30
   4   0  -8  172.08   16.20
  -4   0   8  195.88   15.00
  -4   0   8  175.88   14.80
  -4   0   8  161.68   22.70
  -3   0   8  400.36   29.90
  -3   0   8  378.16   28.30
  -3   0   8  388.06   28.00
   3   0  -8  371.86   28.90
  -3   0   8  382.46   33.90
  -2   0   8  713.53   49.70
   2   0  -8  745.03   51.29
  -2   0   8  709.13   50.69
  -2   0   8  737.83   50.19
  -2   0   8  682.93   54.59
   1   0  -8 1914.41  130.79
  -1   0   8 1936.61  129.69
   1   0  -8 2030.00  130.79
  -1   0   8 1921.11  130.09
  -1   0   8 1793.42  131.89
  -1   0   8 1973.70  131.39
  -1   0   8 1957.60  130.49
   0   0   8  379.46   28.10
   0   0  -8  407.16   28.40
   0   0   8  365.56   27.80
   0   0   8  380.06   29.70
   0   0   8  389.06   27.10
   0   0  -8  374.86   29.40
   1   0   8    9.10    3.50
  -1   0  -8    3.40    5.10
   1   0   8    6.00    3.60
   1   0   8    7.50    6.60
  -1   0  -8    9.60    6.80
   2   0   8  325.57   29.00
   2   0   8  332.77   23.10
  -2   0  -8  315.97   24.30
  -2   0  -8  311.67   25.90
   2   0   8  292.67   27.80
   3   0   8  242.18   18.80
   4   0   8  511.05   34.60
  -4   0  -8  532.45   35.90
  -4   0  -8  443.96   34.10
   4   0   8  485.65   37.60
   5  -1  -8  185.58   15.20
  -5  -1   8  212.98   18.60
  -5  -1   8  180.78   15.40
  -5  -1   8  216.88   14.50
  -5   1   8  201.78   14.30
  -5   1   8  190.48   15.30
   4  -1  -8  562.34   40.00
  -4  -1   8  515.15   37.50
  -4  -1   8  532.95   37.40
  -4  -1   8  536.15   40.70
  -4   1   8  531.65   37.10
  -4   1   8  543.35   37.80
   4   1  -8  531.05   38.40
  -4   1   8  491.35   37.40
   3  -1  -8  514.05   34.20
  -3  -1   8  499.05   40.80
  -3  -1   8  527.75   34.80
  -3  -1   8  510.05   33.30
  -3  -1   8  521.25   33.60
   3   1  -8  406.66   33.50
  -3   1   8  411.86   34.30
  -3   1   8  410.06   32.70
  -3   1   8  395.96   39.60
  -3   1   8  393.76   32.60
  -2  -1   8  318.57   28.70
  -2  -1   8  305.67   24.10
  -2  -1   8  318.87   22.20
   2  -1  -8  322.37   24.20
  -2  -1   8  303.37   23.40
  -2   1   8  305.37   22.80
  -2   1   8  309.47   22.30
  -2   1   8  302.77   27.70
   2   1  -8  301.57   24.10
  -2   1   8  281.27   25.90
  -1  -1   8   87.49   13.00
  -1  -1   8   91.19    9.30
   1  -1  -8  120.19   13.00
  -1  -1   8  107.69   14.10
   1  -1  -8   83.99   11.90
  -1  -1   8  110.49   10.40
  -1   1   8   86.69   10.00
  -1   1   8   71.49    9.80
  -1   1   8   77.19   13.30
  -1   1   8   91.89   10.10
   1   1  -8   81.99   11.40
  -1   1   8   92.99    8.70
   0  -1   8  607.64   41.80
   0  -1  -8  615.24   43.20
   0  -1   8  634.44   44.50
   0  -1   8  643.64   42.40
   0  -1  -8  527.75   42.20
   0  -1  -8  606.84   40.00
   0   1   8  565.94   41.50
   0   1   8  556.04   40.50
   0   1  -8  559.54   42.60
   0   1  -8  572.44   40.70
   0   1   8  571.14   41.10
   0   1   8  607.14   43.10
   0   1  -8  595.84   41.80
   0   1   8  586.44   41.00
  -1  -1  -8 1104.19   87.49
  -1  -1  -8 1140.99   86.19
  -1  -1  -8 1086.89   85.19
   1  -1   8 1187.58   85.79
   1  -1   8 1108.29   89.79
   1  -1   8 1178.58   85.39
   1  -1   8 1186.68   88.49
   1   1   8 1389.56   85.59
  -1   1  -8 1461.45   86.79
  -1   1  -8 1442.36   85.59
   1   1   8 1281.37   89.69
   1   1   8 1351.56   86.09
  -1   1  -8 1379.76   88.09
   1   1   8 1420.46   85.99
   2   1   8  841.32   55.59
   2   1   8  789.92   59.79
  -2   1  -8  827.32   56.59
   2   1   8  754.02   60.49
   2   1   8  841.82   55.99
   2   1   8  823.42   55.39
  -2   1  -8  796.92   57.89
   2   1   8  800.92   58.99
   3  -1   8  121.79   27.90
   3   1   8  181.78   18.80
   3   1   8  177.98   13.50
  -4  -1  -8   10.60    3.20
  -4  -1  -8   15.80    4.70
  -4   1  -8   10.20    5.20
  -4   1  -8   10.10    3.10
   4   1   8   15.50    4.40
  -5  -2   8  281.67   18.50
  -5  -2   8  259.67   19.90
  -5  -2   8  276.27   17.60
   5  -2  -8  209.38   17.90
  -5   2   8  232.08   18.40
   5   2  -8  204.38   17.80
  -4  -2   8   25.80    9.80
   4  -2  -8   11.80    4.40
  -4  -2   8   22.30    6.00
  -4  -2   8   23.10    5.60
   4   2  -8    4.70    5.70
  -4   2   8    4.70    4.60
  -4   2   8    6.30    5.60
  -3   2   8   72.99   12.90
  -3   2   8   44.30   13.50
  -3   2   8   59.59    7.00
   3   2  -8   60.19    9.70
  -3   2   8   59.29    8.20
  -2  -2   8 1109.49   85.89
  -2  -2   8 1080.09   85.09
   2  -2  -8 1085.89   86.19
  -2  -2   8 1098.69   85.99
  -2   2   8 1378.46   86.49
  -2   2   8 1345.27   85.09
  -2   2   8 1376.76   85.59
  -2   2   8 1403.86   88.19
  -2   2   8 1239.98   90.39
  -2   2   8 1356.66   85.59
   2   2  -8 1372.26   86.39
  -1  -2   8  666.43   60.19
   1  -2  -8  723.53   51.19
  -1  -2   8  712.43   51.19
  -1  -2   8  670.33   52.79
   1  -2  -8  780.32   53.89
  -1   2   8  680.03   52.19
  -1   2   8  766.92   53.59
   1   2  -8  831.12   52.89
  -1   2   8  798.12   51.69
  -1   2   8  801.42   51.39
  -1   2   8  804.12   52.49
   0  -2  -8  585.64   43.10
   0  -2  -8  555.84   39.40
   0  -2   8  530.35   39.30
   0  -2  -8  540.55   39.30
   0  -2  -8  507.45   41.00
   0  -2   8  526.95   38.40
   0  -2   8  524.95   42.90
   0   2  -8  573.04   40.90
   0   2   8  555.04   39.40
   0   2   8  579.74   38.70
   0   2   8  561.04   38.40
   0   2  -8  560.24   39.60
   0   2   8  584.74   41.20
   0   2   8  557.34   39.00
   0   2   8  590.44   49.30
   0   2  -8  554.24   38.30
  -1  -2  -8   42.00    9.50
  -1  -2  -8   34.20    7.70
  -1  -2  -8   31.70    6.30
   1  -2   8   38.60    5.80
  -1   2  -8   28.20    6.10
   1   2   8   20.20   12.30
   1   2   8   27.20    6.10
  -1   2  -8   23.70    6.40
   1   2   8   22.30    4.90
   1   2   8   24.60    5.50
  -1   2  -8   26.00    4.20
   1   2   8   31.50    8.60
   2  -2   8  123.79   25.50
   2  -2   8  102.09   11.60
  -2   2  -8  135.89   11.20
   2   2   8  139.49   18.00
  -2   2  -8  150.78   13.40
   2   2   8  154.78   19.20
  -2   2  -8  125.89   15.50
   2   2   8  145.89   11.30
   2   2   8  146.79   11.50
  -3  -2  -8  610.84   44.30
   3  -2   8  591.64   41.10
   3  -2   8  508.05   41.20
   3   2   8  658.03   41.60
   3   2   8  611.84   47.20
  -4  -2  -8  338.07   25.10
  -4  -2  -8  342.07   23.20
   4  -2   8  335.37   22.80
  -4   2  -8  319.97   25.60
   4   2   8  285.37   24.30
  -4   2  -8  312.47   23.20
  -5  -3   8  212.88   16.80
  -5  -3   8  206.78   17.50
   5  -3  -8  209.88   16.90
  -5   3   8  234.58   19.00
  -4  -3   8  753.42   49.50
  -4  -3   8  803.42   48.80
   4  -3  -8  793.02   49.90
   4   3  -8  654.73   48.90
  -4   3   8  657.33   49.10
  -4   3   8  609.24   47.50
  -4   3   8  634.94   48.10
  -3  -3   8 1308.57   94.19
  -3  -3   8 1276.67   92.39
   3  -3  -8 1374.96   93.19
  -3  -3   8 1277.17   91.89
  -3   3   8 1345.47   97.69
  -3   3   8 1447.46   92.29
   3   3  -8 1425.46   92.89
  -3   3   8 1256.87   94.39
  -3   3   8 1416.06   91.69
  -3   3   8 1463.35   93.39
  -3   3   8 1312.87   92.59
   2   3  -8    7.60    7.00
  -2   3   8    8.00    6.30
  -2   3   8    8.30    7.80
  -2   3   8   18.10   14.20
   1  -3  -8   31.90    7.30
   1  -3  -8   42.10    7.90
  -1  -3   8   34.90    6.80
  -1   3   8   51.89    6.40
  -1   3   8   47.70    7.20
   1   3  -8   52.59    9.40
  -1   3   8   56.69   15.10
   1   3  -8   55.79    8.40
  -1   3   8   46.50    7.40
  -1   3   8   43.40   10.60
  -1   3   8   47.70    9.30
   0  -3  -8  754.62   50.49
   0  -3   8  768.82   50.19
   0  -3  -8  763.82   50.09
   0  -3  -8  822.72   51.69
   0  -3   8  754.92   49.20
   0   3  -8  676.73   50.19
   0   3   8  661.53   52.69
   0   3   8  664.13   49.00
   0   3  -8  675.43   49.00
   0   3   8  683.43   49.30
   0   3   8  696.43   50.89
   0   3   8  686.03   49.60
   0   3   8  717.13   51.19
   1  -3   8 1478.05   87.39
  -1  -3  -8 1436.16   86.99
  -1  -3  -8 1388.66   90.29
   1  -3   8 1453.15   87.89
   1  -3   8 1442.96   88.49
  -1  -3  -8 1468.65   88.29
   1   3   8 1121.29   88.39
   1   3   8 1105.29   87.09
  -1   3  -8 1140.39   88.09
  -1   3  -8 1069.09   88.69
   1   3   8 1105.69   87.49
   2  -3   8  942.61   71.39
  -2  -3  -8  935.81   71.79
  -2  -3  -8  930.71   73.69
   2  -3   8  932.51   72.19
   2  -3   8  907.11   77.49
  -2   3  -8 1123.29   73.59
   2   3   8 1038.80   73.29
   2   3   8 1155.18   75.59
   2   3   8 1131.59   70.99
  -2   3  -8 1149.69   71.19
   2   3   8 1158.78   71.89
  -2   3  -8 1178.18   72.49
   3  -3   8  220.08   17.30
  -3  -3  -8  241.58   18.30
   3  -3   8  232.78   17.60
  -3  -3  -8  243.18   22.30
  -4  -3  -8   18.20   10.70
   4  -3   8   16.40    5.50
  -4  -3  -8   28.40    6.00
  -4   3  -8   25.80    6.50
  -4   3  -8   17.10    4.20
   4   3   8   12.90    7.60
   4  -4  -8   30.10    5.80
  -4  -4   8   29.10    6.70
  -4  -4   8   29.40    8.80
  -4  -4   8   40.40    8.50
  -4   4   8   33.80    7.00
   4   4  -8   33.90    7.10
  -4   4   8   29.90    4.70
  -4   4   8   26.40   11.10
  -3   4   8  357.96   31.30
  -3   4   8  366.06   25.60
  -3   4   8  369.26   34.00
  -3   4   8  347.37   25.90
   3   4  -8  353.86   27.20
  -2   4   8  334.87   24.30
   2   4  -8  331.27   26.20
  -2   4   8  360.16   24.90
  -2   4   8  346.87   26.90
  -2   4   8  323.87   31.40
  -2   4   8  345.57   24.80
  -2   4   8  312.67   26.90
  -2   4   8  355.96   28.70
  -1  -4   8  626.44   44.10
   1  -4  -8  636.74   45.10
  -1  -4   8  621.14   48.30
  -1  -4   8  568.14   47.50
   1  -4  -8  595.04   43.80
   1  -4  -8  655.33   45.90
  -1   4   8  648.74   46.10
  -1   4   8  622.04   44.70
  -1   4   8  665.33   44.70
  -1   4   8  632.74   44.40
  -1   4   8  655.83   44.10
  -1   4   8  678.53   48.90
   1   4  -8  680.23   44.30
  -1   4   8  675.33   46.00
   0  -4  -8  682.83   47.60
   0  -4   8  696.33   46.50
   0  -4  -8  704.63   47.70
   0  -4  -8  697.43   46.40
   0  -4   8  663.23   47.70
   0   4  -8  674.23   47.50
   0   4   8  641.34   51.49
   0   4   8  653.83   47.90
   0   4   8  656.33   46.30
   0   4   8  676.43   46.90
   0   4  -8  705.03   46.30
   0   4   8  666.63   46.50
   0   4   8  651.03   49.40
  -1  -4  -8   99.29    9.40
   1  -4   8  105.49    9.00
   1  -4   8  100.39   12.60
  -1  -4  -8  115.49   15.20
   1  -4   8   99.49   10.50
  -1  -4  -8   74.69   12.90
  -1  -4  -8   93.19   12.00
  -1   4  -8  109.49   16.10
   1   4   8   92.69    9.40
  -1   4  -8   91.19   16.60
  -1   4  -8   86.79    8.90
   1   4   8   86.49    9.70
   1   4   8   88.39   14.80
  -2  -4  -8  193.98   16.80
   2  -4   8  189.98   16.10
  -2  -4  -8  188.08   15.50
   2  -4   8  156.48   40.60
   2  -4   8  201.38   17.70
   2  -4   8  199.08   15.70
  -2  -4  -8  186.28   20.70
  -2  -4  -8  200.38   20.10
   2   4   8  197.98   20.20
  -2   4  -8  223.78   17.60
  -2   4  -8  231.58   18.80
   2   4   8  220.98   25.40
  -2   4  -8  231.48   15.60
  -3  -4  -8  477.15   33.40
   3  -4   8  473.15   33.70
   3  -4   8  465.05   30.60
   3  -4   8  484.15   30.70
  -3   4  -8  407.46   31.10
   3   4   8  377.56   35.70
   3   4   8  380.56   30.40
  -3   4  -8  407.96   32.40
   4  -4   8  364.26   27.60
  -4  -4  -8  396.36   27.40
   4  -4   8  382.06   28.80
  -4  -4  -8  399.76   30.30
  -4   4  -8  420.26   27.60
   4  -5  -8  655.73   50.89
   4  -5  -8  762.92   52.09
  -4  -5   8  756.52   50.89
  -4  -5   8  664.23   50.59
  -4  -5   8  749.92   53.39
  -4   5   8  778.22   53.79
  -4   5   8  767.32   51.39
  -4   5   8  769.22   50.59
   4   5  -8  743.13   51.19
  -3  -5   8  322.27   24.30
  -3  -5   8  337.37   26.20
   3  -5  -8  359.36   25.10
  -3   5   8  319.57   24.10
  -3   5   8  319.77   24.30
  -3   5   8  295.37   27.80
  -3   5   8  280.97   28.90
   2  -5  -8  750.92   51.39
   2  -5  -8  690.03   50.69
  -2  -5   8  697.13   50.09
  -2  -5   8  723.03   50.79
  -2   5   8  744.43   50.09
  -2   5   8  688.33   51.79
  -2   5   8  758.02   53.69
  -2   5   8  715.33   49.80
  -2   5   8  715.83   49.30
   1  -5  -8  128.29   11.90
   1  -5  -8  138.29   14.20
  -1  -5   8  112.39   16.90
  -1   5   8  134.89   12.30
  -1   5   8  153.18   16.70
  -1   5   8  146.69   11.80
   1   5  -8  149.59   12.90
  -1   5   8  124.59   18.00
  -1   5   8  151.38   12.90
   0  -5   8 1009.00   61.59
   0  -5  -8  964.60   60.69
   0  -5  -8 1030.50   60.99
   0   5   8  819.52   63.29
   0   5   8  838.62   60.39
   0   5  -8  866.41   60.49
   0   5   8  814.12   60.89
   0   5   8  859.71   61.09
   0   5  -8  814.42   61.59
  -1  -5  -8  902.21   65.79
  -1  -5  -8  895.51   64.89
   1  -5   8  883.11   65.79
  -1  -5  -8  903.31   68.19
  -1  -5  -8  921.81   65.09
  -1  -5  -8  882.11   66.99
   1  -5   8  817.32   65.69
  -1   5  -8 1041.90   66.29
   1   5   8  979.60   66.49
  -1   5  -8 1051.89   65.09
   1   5   8 1054.39   65.79
  -1   5  -8 1010.80   66.79
   1   5   8 1030.80   65.69
   1   5   8 1038.40   68.29
   2  -5   8  354.06   23.90
   2  -5   8  317.47   24.80
  -2  -5  -8  290.57   24.20
   2  -5   8  321.97   22.80
  -2  -5  -8  292.77   28.50
  -2  -5  -8  320.47   22.90
   2   5   8  336.77   26.40
  -2   5  -8  321.27   24.20
  -2   5  -8  316.57   22.80
   2   5   8  313.77   23.40
  -2   5  -8  314.47   25.00
   3  -5   8  263.17   23.40
  -3  -5  -8  240.48   18.70
   3  -5   8  275.37   18.80
   3  -5   8  243.48   18.10
  -3  -5  -8  268.27   22.60
  -3   5  -8  243.78   19.90
   3   5   8  247.08   23.00
  -3   5  -8  243.28   19.00
   3   5   8  215.88   17.80
   4  -6  -8   44.00    7.30
  -4  -6   8   38.50    8.20
  -4  -6   8   44.80    7.10
  -4  -6   8   53.19   11.10
   4  -6  -8   34.80    6.30
  -4   6   8   23.50    8.00
  -4   6   8   28.70    5.40
  -3  -6   8  128.49   16.00
   3  -6  -8  127.99   12.20
   3  -6  -8  154.28   16.20
  -3  -6   8  129.79   12.70
  -3  -6   8  154.78   16.00
  -3   6   8  138.89   14.00
   2  -6  -8  525.15   40.50
  -2  -6   8  493.65   39.90
  -2  -6   8  514.45   40.00
   2  -6  -8  537.45   38.20
   2  -6  -8  551.24   40.20
  -2   6   8  607.54   41.30
  -2   6   8  671.43   45.30
   1  -6  -8 1440.16   94.09
   1  -6  -8 1423.46   91.99
  -1  -6   8 1440.26   92.89
   1  -6  -8 1498.05   93.79
   1  -6  -8 1472.25   92.29
  -1   6   8 1277.37   94.59
  -1   6   8 1190.88   93.59
   1   6  -8 1316.07   91.99
  -1   6   8 1299.47   92.49
  -1   6   8 1297.17   92.39
   0  -6  -8  587.64   36.70
   0   6  -8  461.55   34.60
   0   6  -8  470.75   33.30
   0   6   8  475.75   34.20
   0   6   8  440.16   35.10
   0   6   8  463.25   36.20
   0   6   8  462.15   33.70
   1  -6   8    6.50    5.00
  -1  -6  -8   16.90    9.40
   1  -6   8   10.90    5.10
  -1   6  -8   12.40    3.80
   1   6   8   18.60    8.00
  -1   6  -8   26.30    5.80
   1   6   8   19.50    6.80
   1   6   8   20.20    4.30
   2  -6   8  104.69    8.90
   2  -6   8  100.29   11.60
  -2  -6  -8   91.19    8.40
   2   6   8   79.79   13.10
   2   6   8   78.29    8.90
  -2   6  -8   78.39    8.10
  -3  -6  -8  525.95   40.20
  -3  -6  -8  494.15   35.60
   3  -6   8  487.65   35.20
   3  -6   8  459.35   35.20
   3  -6   8  491.55   37.00
  -3   6  -8  543.05   35.80
  -3   6  -8  557.54   36.00
  -3   6  -8  515.15   35.10
   3   6   8  528.15   35.30
   4  -7  -8  342.77   23.30
   4  -7  -8  324.27   23.80
  -4  -7   8  360.36   23.50
  -4  -7   8  346.27   23.80
  -4   7   8  309.67   24.70
  -4   7   8  295.37   23.00
  -3  -7   8  704.03   45.50
   3  -7  -8  745.13   46.70
   3  -7  -8  721.43   45.40
  -3   7   8  568.34   46.80
  -3   7   8  617.44   47.40
  -3   7   8  573.84   45.40
  -2  -7   8   60.19    9.90
   2  -7  -8   57.49   14.10
  -2  -7   8   70.69   12.80
   2  -7  -8   74.79    8.90
   2  -7  -8   77.59    8.40
  -1  -7   8   85.49   11.00
   1  -7  -8   98.89   16.00
  -1   7   8   58.99    7.80
  -1   7   8   62.29    8.00
   1   7  -8   53.39    8.10
  -1   7   8   67.39   11.20
   0  -7  -8  598.14   50.39
   0   7   8  810.72   53.19
   0   7   8  809.42   51.09
   1  -7   8  678.33   45.90
  -1  -7  -8  723.53   44.80
   1  -7   8  705.03   45.80
  -1  -7  -8  736.33   46.40
  -1  -7  -8  663.13   48.20
  -1  -7  -8  724.43   49.00
   1   7   8  555.04   48.60
   1   7   8  603.54   45.70
  -1   7  -8  589.54   44.30
   1   7   8  600.74   45.00
  -1   7  -8  552.94   45.20
   2  -7   8  770.02   48.70
  -2  -7  -8  758.12   49.60
   2   7   8  592.34   48.40
   3  -7   8   55.29    5.60
   3  -7   8   56.09   11.50
   3   7   8   58.09    8.80
   3   7   8   65.09   10.10
  -3   7  -8   64.29    5.50
   3   7   8   59.09    5.70
  -4  -8   8   14.90    6.30
  -4   8   8   11.10    3.20
   3  -8  -8  118.99   11.40
   3  -8  -8  102.19   11.50
  -3  -8   8   97.29   16.40
  -3   8   8  138.69   13.30
  -3   8   8  131.19   10.00
  -2  -8   8  614.74   51.39
   2  -8  -8  574.74   47.00
  -2   8   8  690.33   45.90
  -2   8   8  742.83   48.10
  -1  -8   8  942.91   69.79
   1  -8  -8  951.80   65.89
   1  -8  -8  966.10   66.79
   1  -8  -8  892.21   68.69
   1  -8  -8  998.20   67.29
  -1   8   8 1016.30   68.19
  -1   8   8  998.60   66.39
   1   8  -8  957.80   65.59
  -1   8   8 1004.60   66.29
   0  -8   8  425.76   30.60
   0  -8  -8  430.56   33.50
   0  -8  -8  430.76   32.80
   0  -8  -8  354.06   34.40
   0  -8  -8  415.36   30.30
   0  -8   8  397.86   31.50
   0   8   8  466.65   30.50
   0   8   8  471.75   30.80
   0   8  -8  456.65   30.00
  -1  -8  -8   71.89    6.90
   1  -8   8   77.09    7.70
   1  -8   8   56.29    8.50
  -1  -8  -8   69.99   13.30
   1  -8   8   77.59    8.90
  -1  -8  -8   73.69    7.90
   1   8   8   55.89    7.30
  -1   8  -8   53.29    6.60
   1   8   8   52.99    9.30
   1   8   8   46.50    9.10
  -2  -8  -8  156.18   11.90
   2  -8   8  144.89   14.30
  -2  -8  -8  146.59   13.10
   2  -8   8  156.18   12.50
   2  -8   8  147.39   12.40
   2   8   8  169.98   12.60
   2   8   8  179.08   16.80
  -2   8  -8  157.78   11.80
  -2   8  -8  175.68   15.10
   2   8   8  151.38   12.00
   3  -8   8  343.67   23.60
   3  -8   8  335.17   24.50
   3   8   8  374.16   24.70
  -3   8  -8  306.57   23.40
   3   8   8  322.37   24.50
   3  -9  -8  446.36   30.80
   3  -9  -8  394.36   29.90
  -3   9   8  461.95   30.10
  -2   9   8  114.39   10.70
  -2   9   8  128.79   10.00
  -2   9   8  137.59   13.20
  -2   9   8  116.09   10.20
   1  -9  -8   36.90    6.90
   1  -9  -8   39.70    9.50
  -1   9   8   47.20    7.70
   1   9  -8   48.30    7.40
   0  -9  -8  204.88   15.30
   0  -9  -8  189.68   26.20
   0  -9   8  197.68   17.20
   1  -9   8  843.62   55.79
  -1  -9  -8  869.21   55.99
  -1  -9  -8  854.11   55.79
   1  -9   8  862.91   58.59
  -1  -9  -8  869.51   59.89
   1   9   8  805.32   56.09
   1   9   8  771.12   57.19
  -1   9  -8  733.73   55.39
   1   9   8  767.62   55.59
   2  -9   8  713.23   48.50
   2  -9   8  674.63   48.00
  -2  -9  -8  668.73   47.70
  -2  -9  -8  682.93   47.80
   2  -9   8  710.63   49.30
   2   9   8  726.23   47.90
   2   9   8  718.33   47.70
   2   9   8  715.93   49.10
   3 -10  -8   51.59    6.00
   2 -10  -8  627.14   39.70
   2 -10  -8  647.64   41.20
  -2  10   8  565.74   41.30
  -2  10   8  554.14   39.60
  -2  10   8  555.84   39.90
  -2  10   8  545.95   40.10
   1 -10  -8  534.65   40.70
   1 -10  -8  560.14   41.80
   1 -10  -8  507.05   40.50
  -1  10   8  638.34   41.20
  -1  10   8  665.53   42.60
  -1  10   8  633.64   40.70
  -1  10   8  614.14   40.50
   0 -10  -8  434.96   30.50
   0 -10   8  400.46   34.80
   0 -10  -8  413.16   34.70
   0 -10  -8  463.45   31.60
   0 -10  -8  420.46   31.20
   0  10   8  450.75   33.40
   0  10  -8  450.35   30.20
   0  10   8  448.96   30.90
  -1  10  -8   12.00    2.50
   1  10   8   13.40    3.60
   1  10   8   14.80    4.40
  -2 -10  -8   51.89    5.80
   2 -10   8   59.99    7.50
   2  10   8   75.09    7.40
  -2  10  -8   62.69    5.60
   2  10   8   66.19    8.80
   2  10   8   66.39    7.50
   2 -11  -8  313.07   20.40
   2 -11  -8  262.77   18.70
  -2  11   8  234.88   19.00
  -2  11   8  267.97   19.10
  -2  11   8  255.07   20.10
  -2  11   8  289.37   19.70
   1 -11  -8    2.00    2.70
   1 -11  -8    2.90    5.60
   1 -11  -8    3.80    2.40
  -1  11   8    1.30    2.00
  -1  11   8   10.10    3.20
  -1  11   8    4.60    4.00
   0 -11  -8  378.66   26.40
   0 -11  -8  337.67   25.20
   0  11  -8  353.46   25.40
   0  11   8  370.66   26.50
   0  11   8  371.66   25.20
   0  11   8  368.96   25.70
  -1 -11  -8  464.75   30.60
  -1 -11  -8  431.66   30.30
   1  11   8  433.56   30.10
   1  11   8  467.95   31.20
   1  11   8  455.05   30.60
  -1  11  -8  395.66   30.20
   2 -12  -8  223.68   17.10
   2 -12  -8  251.77   17.40
   1 -12  -8  587.74   38.10
   1 -12  -8  572.44   38.80
  -1  12   8  564.04   38.00
  -1  12   8  575.44   38.80
  -1  12   8  505.15   38.30
   0  12  -8  208.18   16.30
   0  12   8  220.18   15.90
   0  12   8  228.28   16.30
   0  12   8  222.88   15.40
  -1 -12  -8   98.99   10.90
  -4   0   9 1245.68   83.49
  -4   0   9 1301.37   81.69
  -4   0   9 1051.99   81.49
   4   0  -9 1238.18   82.89
  -3   0   9   65.69    8.90
  -3   0   9   59.69    7.20
  -3   0   9   61.99    9.10
  -3   0   9   72.69   12.90
   3   0  -9   59.09    8.90
   2   0  -9   90.29   11.70
  -2   0   9   90.69   11.70
  -2   0   9  100.89   12.10
  -2   0   9   88.39   20.60
  -2   0   9   93.39    9.40
  -1   0   9   18.00    6.40
  -1   0   9    9.60    6.50
  -1   0   9   10.90    4.20
  -1   0   9    5.40    9.10
  -1   0   9    5.90    3.70
   1   0  -9   11.80    7.80
   1   0  -9    6.30    5.50
   0   0   9  257.77   19.10
   0   0   9  273.07   21.50
   0   0   9  254.77   20.90
   0   0   9  230.08   24.10
   0   0  -9  277.07   20.60
   0   0   9  246.68   19.90
   1   0   9 1464.15  103.69
   1   0   9 1457.85  100.69
   1   0   9 1493.75  100.39
   1   0   9 1528.95  101.69
  -1   0  -9 1489.05  102.79
  -1   0  -9 1503.75  101.19
   1   0   9 1482.85  100.69
   2   0   9  551.24   38.00
   2   0   9  550.24   38.20
  -2   0  -9  576.74   41.10
   2   0   9  492.85   39.10
  -2   0  -9  568.04   38.90
  -3   0  -9   68.49   10.60
   3   0   9   65.39    6.20
  -3   0  -9   61.09    8.80
   3   0   9   52.79   13.00
   3   0   9   56.29    6.40
  -4  -1   9   76.89    9.30
  -4  -1   9   60.39   14.00
   4  -1  -9   65.29    9.10
  -4  -1   9   69.49    7.80
  -4   1   9   85.69   16.10
  -4   1   9   91.49    8.30
  -4   1   9   75.99    7.30
   4   1  -9   85.29    9.40
  -4   1   9   91.09    8.80
   3  -1  -9  141.89   13.00
  -3  -1   9  158.88   16.80
  -3  -1   9  148.79   12.50
  -3  -1   9  138.69   14.70
  -3  -1   9  169.68   12.90
  -3   1   9  147.99   12.80
  -3   1   9  160.98   12.40
  -3   1   9  143.69   12.80
   3   1  -9  151.18   14.40
  -3   1   9  148.79   16.90
  -2  -1   9  826.62   58.39
  -2  -1   9  758.32   54.29
  -2  -1   9  668.43   64.99
   2  -1  -9  719.73   54.79
  -2  -1   9  708.83   53.89
  -2   1   9  816.82   59.69
  -2   1   9  831.32   55.19
   2   1  -9  793.12   54.89
  -2   1   9  827.62   54.09
  -2   1   9  809.62   53.69
  -2   1   9  830.82   54.09
  -1  -1   9 1776.02  112.69
  -1  -1   9 1697.13  115.19
  -1  -1   9 1701.83  112.59
   1  -1  -9 1774.92  113.49
  -1  -1   9 1792.82  112.19
  -1   1   9 1598.84  113.19
  -1   1   9 1494.55  112.19
  -1   1   9 1587.34  112.39
  -1   1   9 1595.54  112.19
   1   1  -9 1639.34  113.09
   0  -1   9  500.55   39.50
   0  -1  -9  514.65   39.80
   0  -1   9  516.45   39.50
   0  -1   9  511.15   38.80
   0  -1   9  506.85   43.00
   0  -1   9  530.15   40.20
   0   1   9  593.74   39.40
   0   1  -9  612.84   40.60
   0   1   9  631.94   39.80
   0   1   9  638.64   40.70
   0   1   9  626.24   39.20
   1  -1   9  129.49   13.70
  -1  -1  -9  140.59   12.70
   1  -1   9  112.99   19.60
   1  -1   9  135.09   11.70
   1  -1   9  128.79   11.40
  -1  -1  -9  134.89   16.10
   1   1   9  119.79   11.40
  -1   1  -9  126.39   12.60
   1   1   9  120.49   18.70
  -1   1  -9  126.99   14.00
   1   1   9  114.09   10.80
   1   1   9  122.19   17.30
   2  -1   9  296.37   20.10
  -2  -1  -9  273.87   23.00
  -2  -1  -9  292.67   21.00
   2  -1   9  289.87   20.10
   2  -1   9  300.77   23.40
   2   1   9  222.88   20.30
  -2   1  -9  217.58   20.40
   3  -1   9  448.56   37.30
   3  -1   9  472.25   37.10
  -3  -1  -9  479.15   39.30
  -3   1  -9  606.54   38.30
  -3   1  -9  616.04   39.70
   3   1   9  620.04   41.40
   3   1   9  573.54   37.90
  -4  -2   9  169.48   18.90
  -4  -2   9  174.68   14.50
   4  -2  -9  167.18   14.70
  -4  -2   9  186.88   14.60
  -4   2   9  188.48   14.90
  -4   2   9  194.08   14.40
  -4   2   9  191.38   15.80
  -4   2   9  192.18   13.60
   4   2  -9  190.48   14.70
  -3  -2   9  981.80   67.79
  -3  -2   9 1049.89   67.19
   3  -2  -9 1013.50   67.59
  -3  -2   9 1014.40   66.89
  -3   2   9  944.21   66.29
  -3   2   9  942.51   68.19
  -3   2   9  945.61   65.99
  -3   2   9  927.01   66.49
   3   2  -9  945.01   67.89
  -2  -2   9   99.69   11.30
  -2  -2   9  110.89   12.00
   2  -2  -9  108.79   11.70
  -2   2   9   78.89   12.60
   2   2  -9   89.49   12.20
  -2   2   9   60.39   13.40
  -2   2   9   86.89    9.10
  -2   2   9   77.49    8.60
  -1   2   9   17.00    4.80
  -1   2   9   20.20    4.90
  -1   2   9   14.20    7.10
  -1   2   9   14.20    8.90
  -1   2   9   14.10    3.90
   0  -2  -9  830.72   54.59
   0  -2   9  830.82   59.19
   0  -2   9  774.02   54.19
   0  -2   9  790.92   53.69
   0  -2  -9  761.12   54.79
   0  -2   9  817.02   54.29
   0   2   9  768.22   56.99
   0   2  -9  806.62   57.79
   0   2   9  774.02   55.59
   0   2   9  698.83   53.69
   0   2   9  789.92   54.59
   1   2   9  802.72   55.39
   1   2   9  765.92   54.89
  -1   2  -9  840.52   55.99
   1   2   9  851.01   60.59
   1   2   9  791.02   57.89
  -1   2  -9  810.72   54.79
   1   2   9  763.02   59.79
  -1   2  -9  802.12   57.09
  -2  -2  -9  686.53   48.90
   2  -2   9  684.83   46.40
  -2  -2  -9  674.03   46.50
   2  -2   9  686.33   46.00
   2  -2   9  688.13   48.00
  -2   2  -9  658.23   46.70
   2   2   9  644.84   46.20
   2   2   9  618.54   45.60
  -2   2  -9  663.53   47.80
  -3  -2  -9  196.98   16.60
  -3  -2  -9  196.48   14.60
   3  -2   9  180.68   13.40
   3  -2   9  184.48   13.60
  -3   2  -9  171.98   14.50
  -3   2  -9  175.58   15.50
   3   2   9  169.78   17.70
   3   2   9  159.68   13.40
  -4  -3   9   17.90    8.50
   4  -3  -9    9.30    3.50
  -4  -3   9   14.00    3.30
  -4  -3   9   11.70    4.40
  -4   3   9   15.90    3.60
   4   3  -9    8.30    5.00
  -4   3   9    5.20    3.80
  -4   3   9   13.80    5.00
   3  -3  -9  169.08   15.00
  -3  -3   9  150.88   18.40
  -3  -3   9  174.58   17.50
  -3  -3   9  152.38   13.40
  -3   3   9  146.39   28.20
   3   3  -9  171.68   18.90
  -3   3   9  175.48   13.20
  -3   3   9  161.98   13.30
  -3   3   9  149.49   13.80
  -2  -3   9  816.32   51.69
   2  -3  -9  833.02   51.99
  -2  -3   9  832.92   51.59
  -2   3   9  686.23   51.69
  -2   3   9  670.23   53.09
  -2   3   9  661.73   59.89
  -2   3   9  702.33   50.39
  -2   3   9  724.03   50.19
  -2   3   9  694.63   51.99
  -2   3   9  676.53   51.19
   1  -3  -9  708.23   52.79
  -1  -3   9  715.93   53.89
  -1  -3   9  698.13   51.89
  -1  -3   9  719.33   51.29
  -1   3   9  814.82   56.99
  -1   3   9  769.42   51.79
  -1   3   9  764.52   51.49
  -1   3   9  769.92   54.09
  -1   3   9  772.92   51.19
  -1   3   9  764.72   53.59
   0  -3  -9 1157.58   75.09
   0  -3  -9 1116.69   74.49
   0  -3   9 1066.99   73.59
   0  -3   9 1121.49   73.19
   0  -3  -9 1053.09   73.69
   0   3  -9 1087.39   74.09
   0   3  -9 1045.50   72.89
   0   3   9 1051.69   73.49
   0   3   9 1047.90   73.09
   0   3   9 1052.99   77.39
   0   3   9 1052.79   75.29
  -1  -3  -9   98.49   13.00
   1  -3   9   86.99    9.00
  -1  -3  -9   77.89   12.80
  -1  -3  -9   78.59   10.20
   1  -3   9  125.19   25.20
   1  -3   9  101.99   11.60
   1   3   9   85.69    9.20
   1   3   9   67.49   17.70
   1   3   9   84.19   14.20
   1   3   9   99.19    8.90
  -1   3  -9   93.99   10.70
  -1   3  -9   86.49    8.40
  -1   3  -9   90.69   12.50
   2  -3   9   64.59   10.20
   2  -3   9   60.49    6.60
  -2  -3  -9   52.99   12.80
   2  -3   9   58.89    7.60
  -2   3  -9   54.59   11.50
   2   3   9   43.00    6.80
  -2   3  -9   39.20    8.20
   3  -3   9  499.55   35.80
  -3  -3  -9  527.15   36.80
  -3  -3  -9  552.94   34.90
   3  -3   9  507.85   34.50
   3  -3   9  497.15   34.30
   3   3   9  480.75   36.70
  -3   3  -9  472.75   35.60
   3   3   9  458.55   34.40
  -3   3  -9  480.95   34.70
  -4  -4   9  424.36   32.20
   4  -4  -9  405.36   30.40
  -4  -4   9  451.65   30.30
   4   4  -9  444.86   30.60
  -4   4   9  379.86   30.10
  -4   4   9  459.25   29.90
  -3  -4   9  575.24   39.10
  -3  -4   9  505.45   39.30
  -3  -4   9  539.65   40.40
   3   4  -9  564.54   42.50
  -3   4   9  578.74   38.50
  -3   4   9  574.44   53.59
  -2  -4   9  542.65   44.30
   2  -4  -9  507.15   39.60
  -2  -4   9  508.35   38.30
  -2   4   9  557.14   37.20
  -2   4   9  513.75   40.40
  -2   4   9  600.64   37.80
  -2   4   9  512.65   39.60
  -1  -4   9  211.88   16.40
   1  -4  -9  220.58   18.00
  -1  -4   9  227.68   17.80
   1  -4  -9  210.88   18.00
  -1  -4   9  236.98   18.80
  -1   4   9  204.38   19.70
  -1   4   9  189.48   16.40
  -1   4   9  207.68   22.50
  -1   4   9  182.98   16.00
  -1   4   9  202.08   16.00
   0  -4  -9  341.67   31.00
   0  -4   9  347.07   30.90
   0  -4  -9  331.37   30.10
   0   4   9  467.85   33.20
   0   4   9  457.75   29.40
   0   4   9  448.76   29.90
   0   4   9  447.66   29.40
   0   4  -9  445.26   29.20
   0   4   9  438.16   31.90
  -1  -4  -9  944.91   66.19
   1  -4   9 1070.89   65.19
  -1  -4  -9  987.30   65.69
   1  -4   9 1051.79   64.69
   1  -4   9 1087.99   66.19
  -1   4  -9  870.61   64.19
   1   4   9  872.61   64.09
  -1   4  -9  920.61   65.29
   1   4   9  921.01   64.89
   1   4   9  829.82   66.19
   1   4   9  880.81   67.09
  -1   4  -9  935.01   66.29
   2  -4   9  506.55   33.40
   2  -4   9  441.96   36.50
   3   4   9  175.28   15.90
   3   4   9  163.28   13.10
  -3   4  -9  177.08   14.80
  -3   4  -9  166.38   14.20
   4  -5  -9   39.00    5.60
  -4  -5   9   53.69    8.20
  -4  -5   9   33.60    5.10
  -4   5   9   50.09   14.60
  -4   5   9   37.20    4.50
  -4   5   9   40.90    6.60
   3  -5  -9  187.78   15.40
  -3  -5   9  182.38   18.40
  -3  -5   9  177.58   14.90
  -3  -5   9  182.08   14.50
  -3   5   9  190.28   14.00
   3   5  -9  156.18   14.90
  -3   5   9  184.08   14.90
  -3   5   9  159.28   20.10
   2  -5  -9  810.62   50.39
  -2  -5   9  772.22   50.39
  -2  -5   9  680.33   50.79
  -2   5   9  665.63   48.20
  -2   5   9  721.53   52.49
  -2   5   9  652.53   51.09
  -2   5   9  648.24   49.70
  -2   5   9  714.73   48.90
  -1  -5   9  693.73   53.49
   1  -5  -9  784.42   53.29
   1  -5  -9  704.33   53.59
  -1  -5   9  767.22   52.99
  -1  -5   9  730.93   52.49
  -1   5   9  735.33   53.89
   1   5  -9  761.32   51.59
  -1   5   9  778.92   52.49
  -1   5   9  814.42   54.99
  -1   5   9  799.72   52.19
  -1   5   9  755.72   51.69
   0  -5   9  162.78   13.60
   0  -5   9  139.29   13.00
   0  -5  -9  136.59   16.30
   0   5   9  121.79   13.00
   0   5   9  140.09   15.20
   0   5  -9  118.19   10.90
   0   5   9  127.99   11.40
   0   5   9  110.19   16.20
   0   5   9  118.49   10.90
   0   5  -9  139.39   13.10
   1  -5   9  433.66   30.60
  -1  -5  -9  344.37   31.50
  -1  -5  -9  403.36   29.90
   1  -5   9  440.46   31.00
   1  -5   9  403.36   29.10
  -1   5  -9  427.46   29.80
   1   5   9  409.06   29.20
   1   5   9  338.07   31.30
   1   5   9  392.96   30.30
  -1   5  -9  437.16   28.70
   1   5   9  438.26   32.10
  -2  -5  -9  436.56   31.40
   2  -5   9  417.26   31.50
   2  -5   9  440.76   32.80
   2  -5   9  425.06   31.20
   2   5   9  464.15   33.70
  -2   5  -9  472.45   32.00
   2   5   9  446.06   31.40
  -2   5  -9  431.26   30.70
  -2   5  -9  461.05   34.90
   3  -5   9  513.55   33.60
   3  -5   9  455.35   33.00
   3   5   9  472.45   33.20
   3   5   9  473.85   33.20
   3   5   9  478.95   34.50
  -3   5  -9  470.15   33.60
  -3   5  -9  506.15   33.70
   4  -6  -9  542.85   36.30
  -4  -6   9  455.05   36.00
  -4  -6   9  501.65   35.30
  -4  -6   9  532.45   36.10
  -4   6   9  499.95   35.00
  -4   6   9  536.95   37.10
  -3  -6   9  338.87   26.00
   3  -6  -9  335.47   26.10
  -3  -6   9  333.17   30.40
  -3   6   9  377.76   25.40
  -3   6   9  398.26   26.50
  -2  -6   9   21.50    7.40
   2  -6  -9   29.40    7.40
  -2  -6   9   23.50    8.50
  -2  -6   9   40.90    7.50
   1  -6  -9   18.90    9.50
  -1   6   9   22.80    8.40
  -1   6   9   21.90    4.50
  -1   6   9   30.90    6.00
   1   6  -9    9.70    5.30
   0  -6  -9  757.02   48.80
   0  -6   9  698.83   49.40
   0  -6  -9  767.42   47.10
   0  -6   9  772.52   48.90
   0  -6  -9  726.73   50.49
   0   6   9  655.23   47.50
   0   6   9  632.84   49.50
   0   6   9  648.54   47.70
   0   6  -9  614.34   47.10
   0   6  -9  625.54   48.20
   1  -6   9  779.92   56.49
   1  -6   9  806.92   57.79
   1   6   9  870.51   57.09
  -1   6  -9  858.01   56.49
  -1   6  -9  839.32   57.69
   2  -6   9  406.36   30.40
   2  -6   9  384.66   30.40
   2  -6   9  387.56   31.80
   2   6   9  478.65   30.80
  -2   6  -9  474.95   31.10
  -2   6  -9  453.85   30.20
   2   6   9  466.05   30.50
   3   6   9   71.29    7.20
   3   6   9   61.29    8.40
  -3   6  -9   71.39    7.80
   3   6   9   84.29    9.30
  -3  -7   9   96.19   13.70
   3  -7  -9   85.59    8.20
  -3  -7   9   95.79   11.70
  -3   7   9   77.79   11.50
  -3   7   9   72.89    7.50
  -2  -7   9  474.65   33.10
  -2   7   9  434.56   29.90
  -2   7   9  394.26   30.30
  -2   7   9  435.76   33.00
  -2   7   9  428.46   30.60
  -1  -7   9  817.92   55.69
   1  -7  -9  880.91   55.69
  -1  -7   9  851.91   54.49
  -1   7   9  783.72   55.29
  -1   7   9  726.23   54.69
  -1   7   9  703.23   56.99
   0  -7   9  557.64   40.70
   0  -7   9  529.55   39.40
   0  -7  -9  538.95   40.70
   0   7  -9  593.14   39.50
   0   7   9  620.14   41.80
   0   7   9  573.24   39.50
  -1  -7  -9   12.20    4.10
   1  -7   9    7.40    5.40
   1  -7   9    9.60    4.10
   1  -7   9    8.70    3.40
   1   7   9   17.00    4.20
  -1   7  -9   20.00    7.80
  -1   7  -9   13.70    4.00
   1   7   9   15.10    9.20
  -2  -7  -9   88.39   10.70
   2  -7   9  124.29   13.90
   2  -7   9  100.39    9.50
   2  -7   9   98.89    9.40
   2   7   9  107.89    9.90
  -2   7  -9  119.99    9.20
   2   7   9  121.79   11.90
  -2   7  -9  122.59   10.90
   2   7   9  121.09    9.60
   3  -7   9  470.25   33.10
   3  -8  -9  411.36   28.00
  -3   8   9  360.46   27.10
  -3   8   9  407.26   28.80
  -2  -8   9  134.49   15.20
   2  -8  -9  142.29   11.90
  -2   8   9  117.09   10.60
  -2   8   9  135.39   15.60
  -2   8   9  110.09   10.80
  -2   8   9  122.89   10.30
   1  -8  -9  220.08   15.80
   1  -8  -9  226.08   17.40
  -1   8   9  207.18   19.60
   1   8  -9  179.88   15.20
  -1   8   9  202.38   17.00
  -1   8   9  208.08   16.30
   0  -8  -9  174.48   14.90
   0   8   9  220.68   15.60
   0   8   9  209.88   15.60
   0   8  -9  204.38   15.00
   1  -8   9  519.35   39.80
   1  -8   9  509.25   37.60
   1  -8   9  509.95   37.90
  -1  -8  -9  503.85   37.30
   1   8   9  601.74   39.60
   1   8   9  599.64   38.10
  -1   8  -9  576.44   37.50
   2  -8   9  527.85   38.80
   2  -8   9  542.65   40.30
   2   8   9  562.14   38.70
   2   8   9  605.94   41.10
  -2   8  -9  590.64   38.80
  -3   9   9   63.89    5.90
  -3   9   9   78.89    9.00
   2  -9  -9  487.65   35.70
  -2   9   9  489.95   35.00
  -2   9   9  481.85   34.80
  -2   9   9  575.34   36.90
  -1  -9   9  716.13   50.49
   1  -9  -9  720.83   47.80
   1  -9  -9  715.03   46.60
  -1   9   9  692.33   48.60
  -1   9   9  633.44   46.80
  -1   9   9  645.14   47.10
   0  -9  -9  174.28   13.20
   0  -9  -9  167.28   14.10
   0   9  -9  186.48   13.40
   0   9   9  186.58   15.90
   0   9   9  183.08   14.50
  -1  -9  -9   37.90    4.70
  -1  -9  -9   37.10    6.70
   1  -9   9   33.20    8.30
   1  -9   9   44.60    7.90
   1   9   9   42.20    6.00
  -1   9  -9   41.10    5.10
   1   9   9   40.90    4.80
   2  -9   9  129.99    9.60
  -2  -9  -9  115.89   11.20
   2   9   9  101.99    9.90
  -2   9  -9   93.49    8.50
   2   9   9   98.79    9.90
  -2  10   9   59.89    6.70
  -2  10   9   65.89    6.20
  -2  10   9   65.69    7.20
   1 -10  -9   15.40    4.00
  -1  10   9   19.10    4.90
  -1  10   9   18.60    3.70
  -1  10   9   14.30    5.70
  -1  10   9   17.40    3.00
   0 -10  -9  399.26   27.60
   0 -10  -9  413.66   28.60
   0  10   9  435.26   29.30
   0  10   9  414.36   28.20
   0  10  -9  346.97   27.50
   1 -10   9  595.44   41.90
  -1 -10  -9  581.14   41.30
  -1 -10  -9  615.74   41.20
   1 -10   9  652.73   41.70
  -1  10  -9  552.04   40.70
   1  10   9  587.14   41.70
   1  10   9  627.84   41.20
  -1  11   9  397.46   27.00
  -1  11   9  352.06   25.90
  -1  11   9  381.86   26.30
   0  11   9   95.99    7.90
   0  11   9   87.09    7.40
   0  11   9  109.29    9.30
   0  11  -9  101.29    8.00
   1  11   9    4.40    2.80
  -1  11  -9    4.30    2.60
  -4   0  10    5.10    3.30
  -4   0  10    3.60    2.80
   4   0 -10   -0.80    2.90
  -4   0  10    8.80    3.80
  -3   0  10  227.38   16.60
   3   0 -10  199.38   17.10
  -3   0  10  227.58   16.60
  -3   0  10  225.98   17.90
   2   0 -10  630.74   43.10
  -2   0  10  594.34   41.60
  -2   0  10  584.84   42.80
  -2   0  10  582.14   41.50
  -1   0  10 1335.57   89.39
  -1   0  10 1183.28   93.59
  -1   0  10 1379.26   89.29
  -1   0  10 1372.96   91.09
  -1   0  10 1309.17   90.59
   0   0  10   19.30    4.70
   0   0  10   53.49   22.20
   0   0  10   34.90    6.70
   0   0 -10   25.50    5.40
   0   0  10   20.10    7.60
   0   0  10   26.00    5.40
   1   0  10   16.30    4.20
  -1   0 -10   15.00    5.50
  -1   0 -10    8.00    5.40
   1   0  10   26.10    5.40
   1   0  10   22.10    8.30
  -2   0 -10  281.17   22.30
   2   0  10  258.47   20.10
   2   0  10  268.77   19.80
   2   0  10  273.97   20.20
  -2   0 -10  285.77   20.60
  -3   0 -10  340.17   25.40
   3   0  10  334.67   23.80
  -3   0 -10  350.46   24.40
  -4  -1  10  535.25   38.50
   4  -1 -10  560.64   39.20
  -4  -1  10  568.64   39.90
   4   1 -10  606.64   39.20
  -4   1  10  551.84   38.20
  -4   1  10  573.74   40.00
  -4   1  10  495.85   39.00
  -4   1  10  601.94   39.20
   3  -1 -10  635.14   39.00
  -3  -1  10  607.04   38.00
  -3  -1  10  607.94   38.10
  -3   1  10  506.35   37.80
  -3   1  10  471.75   38.00
   3   1 -10  515.05   38.40
  -3   1  10  504.35   38.40
  -3   1  10  498.75   40.60
  -2  -1  10  102.89   10.00
  -2  -1  10  111.69   10.40
  -2  -1  10  108.79   13.60
   2  -1 -10  127.89   14.80
  -2   1  10  111.69    9.90
  -2   1  10  120.89   10.50
  -2   1  10  116.89   14.60
  -2   1  10  114.99   10.10
   2   1 -10   99.29   12.70
  -1  -1  10  116.89   11.30
  -1  -1  10  137.59   20.20
  -1  -1  10  109.49   11.70
  -1  -1  10  101.39   19.60
   1  -1 -10  120.69   12.20
  -1  -1  10  131.99   11.80
  -1   1  10   93.29   11.00
  -1   1  10   95.69   10.40
  -1   1  10  110.99   10.00
  -1   1  10   94.49   19.10
  -1   1  10  114.99   13.90
   0  -1 -10  648.54   46.10
   0  -1  10  623.84   46.10
   0  -1  10  634.04   46.90
   0  -1  10  659.53   45.70
   0  -1  10  636.74   45.40
   0  -1  10  570.44   51.59
   0   1  10  713.83   47.50
   0   1  10  592.34   47.40
   0   1 -10  728.13   46.40
   0   1  10  718.53   45.70
   0   1  10  644.94   49.50
   0   1  10  710.73   45.90
  -1  -1 -10  862.51   60.39
   1  -1  10  906.01   60.49
   1  -1  10  872.41   61.59
   1  -1  10  869.31   60.19
  -1  -1 -10  882.91   62.19
   1  -1  10  853.21   59.79
   1   1  10  844.52   61.39
  -1   1 -10  923.21   60.59
   1   1  10  894.81   59.79
   1   1  10  890.41   60.19
   1   1  10  875.11   59.89
  -1   1 -10  860.71   61.59
  -2  -1 -10  499.05   35.60
   2  -1  10  534.65   41.80
   2  -1  10  501.15   35.00
  -2  -1 -10  564.14   38.20
   2  -1  10  486.75   34.80
   2  -1  10  483.75   34.80
   2   1  10  469.45   34.60
   2   1  10  471.35   34.90
  -2   1 -10  524.45   36.80
   3   1  10   76.29    7.10
   3   1  10   76.49   16.10
  -3   1 -10   96.49    9.50
  -4  -2  10   22.10    3.70
  -4  -2  10   28.80    5.90
   4  -2 -10   21.10    4.70
   4   2 -10   18.50    6.70
  -4   2  10   28.70    5.10
  -4   2  10   25.70    4.60
  -4   2  10   23.40    4.90
  -3  -2  10  297.07   20.80
  -3  -2  10  315.27   20.40
   3  -2 -10  306.07   21.20
  -3  -2  10  307.77   20.10
  -3   2  10  250.47   19.70
  -3   2  10  251.47   20.90
  -3   2  10  254.27   20.00
  -3   2  10  223.88   23.90
   3   2 -10  235.68   20.90
  -2  -2  10 1101.79   81.49
  -2  -2  10 1079.79   81.39
   2  -2 -10 1053.99   81.19
  -2  -2  10 1094.49   81.29
  -2   2  10 1293.57   80.49
  -2   2  10 1261.27   80.49
  -2   2  10 1319.07   80.19
  -2   2  10 1274.17   81.69
  -1  -2  10  393.66   26.80
  -1  -2  10  396.76   28.50
   1  -2 -10  410.66   28.10
  -1  -2  10  403.96   27.00
  -1   2  10  343.47   28.90
  -1   2  10  354.16   26.40
  -1   2  10  355.96   27.20
  -1   2  10  316.37   31.30
  -1   2  10  348.87   26.40
   0  -2  10  697.53   45.20
   0  -2  10  682.53   44.60
   0  -2  10  706.63   43.90
   0  -2 -10  697.63   44.40
   0  -2  10  680.03   44.70
   0   2  10  554.44   43.80
   0   2  10  558.94   43.50
   0   2 -10  542.55   46.20
   0   2  10  567.24   43.70
   1  -2  10   30.10    7.10
   1  -2  10   39.70    5.80
   1  -2  10   41.60    6.50
   1  -2  10   31.30    5.50
  -1  -2 -10   32.50    7.10
   1   2  10   32.90    7.00
   1   2  10   38.20    6.70
  -1   2 -10   40.10    7.80
   1   2  10   33.90    5.70
  -2  -2 -10  417.56   27.00
   2  -2  10  402.66   26.40
   2  -2  10  433.56   30.50
   2   2  10  349.27   27.00
  -2   2 -10  357.06   26.70
   2   2  10  335.27   25.70
   2   2  10  340.27   29.60
  -2   2 -10  360.26   28.40
  -3  -2 -10  726.13   47.10
   3  -2  10  690.63   46.90
  -3  -2 -10  697.53   48.00
  -3   2 -10  677.83   47.70
  -3   2 -10  679.13   47.20
   3   2  10  667.43   48.80
   4  -3 -10  430.56   27.00
  -4  -3  10  417.56   26.30
  -4   3  10  322.07   25.90
   4   3 -10  326.97   26.50
   3  -3 -10  395.06   28.20
  -3  -3  10  373.66   27.50
  -3  -3  10  364.26   27.40
  -3  -3  10  396.26   29.60
  -3  -3  10  416.36   27.80
  -3   3  10  373.76   26.80
   3   3 -10  374.46   27.90
  -3   3  10  397.96   27.40
  -2  -3  10  120.39   13.10
   2  -3 -10   98.29   11.70
  -2   3  10  104.39   21.40
  -2   3  10   78.79    8.60
  -2   3  10   79.89    8.10
  -2   3  10  100.89   20.80
  -2   3  10   94.09   10.00
  -1  -3  10   38.30    7.20
  -1  -3  10   42.00    7.40
  -1  -3  10   48.60   10.40
   1  -3 -10   42.70    9.20
  -1   3  10   66.99    8.10
  -1   3  10   61.59    7.10
  -1   3  10   78.59   15.40
  -1   3  10   62.99    6.60
   0  -3  10  500.55   33.40
   0  -3  10  477.05   33.00
   0  -3  10  476.35   33.90
   0  -3  10  494.15   34.80
   0  -3 -10  516.35   33.90
   0   3  10  423.76   37.80
   0   3 -10  456.45   33.80
   0   3  10  439.16   32.60
   0   3  10  436.66   33.10
   1  -3  10  784.22   60.99
  -1   3 -10  918.01   60.49
   1   3  10  920.71   60.09
   2  -3  10  299.67   21.70
   2  -3  10  281.07   22.30
  -2  -3 -10  296.47   22.00
   2  -3  10  279.27   21.60
   2   3  10  355.66   21.90
  -3   3 -10   43.90    5.40
   3   3  10   58.49   10.10
   3   3  10   49.70    5.10
   4  -4 -10    7.80    3.10
  -4  -4  10   15.20    5.80
  -4  -4  10    9.80    5.30
  -4   4  10   15.80    4.40
  -4   4  10    7.80    3.30
  -3  -4  10  226.68   18.10
  -3  -4  10  236.28   18.10
  -3  -4  10  246.98   23.20
   3  -4 -10  212.38   18.10
  -3   4  10  252.57   18.00
  -3   4  10  278.77   24.80
  -3   4  10  253.17   18.90
  -3   4  10  238.18   17.00
  -2  -4  10  554.24   37.00
  -2  -4  10  567.34   38.90
  -2  -4  10  566.84   38.20
  -2   4  10  484.75   37.20
  -2   4  10  471.25   36.30
  -1  -4  10 1011.70   70.49
   1  -4 -10  981.90   71.69
  -1  -4  10 1022.50   69.79
  -1  -4  10 1018.40   71.09
  -1   4  10 1041.80   69.99
  -1   4  10 1050.39   69.99
  -1   4  10 1068.59   69.69
   0  -4  10  328.27   27.10
   0  -4 -10  375.06   30.60
   0  -4  10  336.17   28.00
   0  -4  10  358.46   27.00
   0  -4  10  332.87   28.10
   0   4  10  419.16   27.30
   0   4  10  432.36   31.10
   0   4  10  403.16   27.30
   0   4 -10  403.16   27.90
   0   4  10  395.36   27.00
   1  -4  10   47.00    8.40
  -1  -4 -10   41.30    9.50
   1  -4  10   38.10    5.70
   1  -4  10   38.50    6.40
   1   4  10   31.40    6.80
   1   4  10   31.60   11.10
   2  -4  10  310.57   26.80
   2  -4  10  308.87   23.70
   2  -4  10  274.97   23.80
  -2  -4 -10  326.97   27.00
   2  -4  10  305.67   23.70
   2   4  10  373.66   26.30
  -2   4 -10  373.96   24.00
   2   4  10  381.16   23.90
   3  -4  10  334.27   23.20
  -3  -4 -10  316.97   25.10
   3   4  10  328.87   24.40
   3   4  10  356.36   23.60
  -3  -5  10  415.16   30.60
  -3  -5  10  407.16   28.10
   3  -5 -10  405.06   28.30
  -3  -5  10  409.06   28.00
  -3   5  10  371.06   29.00
  -3   5  10  382.46   27.70
  -3   5  10  378.76   32.00
  -2  -5  10   58.69   12.30
   2  -5 -10   61.09   10.90
  -2  -5  10   60.79    8.00
  -2  -5  10   43.90    7.30
  -2   5  10   56.49    6.40
  -2   5  10   33.70   13.40
  -2   5  10   41.10    7.30
  -1  -5  10  107.99   13.80
  -1  -5  10   98.29   13.70
  -1  -5  10  105.69   10.40
  -1   5  10  132.79   10.90
   0  -5  10  438.56   31.90
   0  -5  10  468.75   31.20
   0  -5  10  454.25   32.90
   0   5  10  401.06   31.90
   1  -5  10  620.64   41.40
   1  -5  10  533.45   40.00
   1  -5  10  613.84   41.70
  -1   5 -10  562.74   40.90
  -1   5 -10  517.85   38.90
   2  -5  10  396.96   29.80
   2  -5  10  406.36   27.80
   2  -5  10  385.76   27.80
   2   5  10  384.66   27.70
   2   5  10  415.16   29.90
  -3  -6  10  208.08   16.10
  -3  -6  10  207.58   16.90
  -3  -6  10  217.08   20.50
   3  -6 -10  214.08   16.40
  -3   6  10  212.68   15.80
  -3   6  10  216.08   18.80
  -2  -6  10  493.55   32.80
  -2  -6  10  449.76   33.80
   2  -6 -10  501.35   33.30
  -2  -6  10  478.05   34.40
  -2   6  10  445.16   32.30
  -2   6  10  447.96   34.40
  -2   6  10  424.86   32.20
   1  -6 -10  697.13   51.49
  -1  -6  10  695.83   50.59
  -1  -6  10  632.64   51.49
  -1  -6  10  716.43   51.99
  -1   6  10  829.12   53.19
  -1   6  10  792.22   50.89
  -1   6  10  812.12   50.89
   0  -6  10  118.69   13.60
   0  -6  10  108.79   10.40
   0  -6  10  123.39   10.80
   0  -6 -10  105.19   11.10
   0   6 -10  127.49    9.70
   0   6  10  102.89   10.30
   0   6  10  103.69   11.40
   0   6  10  137.49   13.40
  -1  -6 -10    4.10    4.80
   1  -6  10   -2.80    3.90
   1  -6  10    5.00    6.00
   1  -6  10    3.90    3.30
  -1   6 -10   10.20    3.40
  -1   6 -10   10.00    3.00
   1   6  10   10.40    3.40
   1   6  10   10.70    5.70
   2  -6  10  128.69   16.40
   2  -6  10  126.39   12.20
   2  -6  10  115.99   11.20
   2   6  10  160.18   13.40
  -2   6 -10  149.09   11.80
   2   6  10  148.09   11.00
   3  -7 -10  315.67   21.90
  -3  -7  10  343.87   23.80
  -3  -7  10  296.27   22.60
  -3   7  10  278.37   25.30
  -3   7  10  294.57   21.30
  -2  -7  10   57.19   12.00
  -2   7  10   46.10    5.40
  -2   7  10   35.20    5.10
  -2   7  10   54.99    9.70
  -1  -7  10   43.10    8.00
  -1  -7  10   42.30    7.40
   1  -7 -10   44.60    7.20
  -1  -7  10   44.00    9.70
   0  -7  10  751.92   51.09
   0  -7  10  671.23   48.70
   0  -7 -10  660.53   49.10
   0  -7  10  648.34   49.00
   0   7  10  728.33   48.40
   0   7 -10  666.63   48.10
   0   7  10  769.12   49.00
   0   7  10  794.32   50.69
   1  -7  10  626.64   41.50
   1  -7  10  602.14   42.80
  -1  -7 -10  622.44   41.90
   1  -7  10  591.14   41.60
  -1   7 -10  557.84   41.00
   1   7  10  640.34   42.90
   1   7  10  589.04   42.00
   2  -7  10  361.46   26.30
   2  -7  10  380.76   26.00
   3  -8 -10   92.79    9.70
  -3   8  10   70.19    8.10
  -2  -8  10  556.94   39.10
   2  -8 -10  539.45   37.70
  -2   8  10  483.45   36.90
  -2   8  10  583.14   37.20
  -2   8  10  546.25   38.40
  -1   8  10  250.07   18.00
  -1   8  10  270.47   20.40
  -1   8  10  229.88   17.90
   0  -8  10  295.17   24.10
   0  -8 -10  292.67   22.20
   0  -8  10  281.87   22.90
   0   8  10  305.17   21.60
   0   8 -10  331.07   21.30
   1  -8  10   16.20   11.40
   1  -8  10   23.50    5.50
  -1  -8 -10   21.10    4.90
   1  -8  10   30.20    5.70
   1  -8  10   20.10    6.30
  -1   8 -10   17.50    3.30
   1   8  10   22.30    5.30
   1   8  10   23.40    3.80
   2  -9 -10  109.19    9.00
  -2   9  10  101.19   10.20
  -2   9  10   93.99    9.00
  -2   9  10   84.09    8.40
   1  -9 -10   72.39    8.00
  -1   9  10   90.69    9.50
  -1   9  10   76.59    6.70
  -1   9  10   75.89    8.90
  -1   9  10   65.49    6.10
   0  -9  10  219.48   21.40
   0  -9 -10  218.28   18.60
   0   9  10  290.07   19.90
   0   9  10  282.77   18.60
  -1  -9 -10  607.64   42.50
   1  -9  10  602.14   42.40
  -1   9 -10  602.64   41.90
   1   9  10  663.63   42.30
   1   9  10  624.04   42.90
   1 -10 -10  539.35   41.20
  -1  10  10  697.53   42.10
  -1  10  10  561.14   40.90
  -1  10  10  614.54   40.70
   0 -10 -10  196.68   14.60
   0  10  10  157.18   12.60
   0  10  10  196.18   14.10
   0  10  10  154.78   12.30
  -3   0  11  171.88   12.30
  -3   0  11  154.58   24.10
   3   0 -11  144.19   12.70
  -3   0  11  186.38   13.60
  -3   0  11  146.09   12.00
  -2   0  11   69.39   11.90
  -2   0  11   66.29    6.60
  -2   0  11   50.79    6.50
  -2   0  11   48.40   11.20
  -1   0  11    8.20    8.30
  -1   0  11   14.10    3.70
  -1   0  11    9.80    8.80
   0   0  11  981.80   64.19
   0   0  11  834.92   64.99
   0   0 -11  882.81   65.49
   0   0  11  998.50   65.89
   0   0  11  982.70   63.79
   1   0  11  768.82   51.69
   1   0  11  724.93   54.59
  -1   0 -11  803.62   52.69
   1   0  11  733.13   51.59
   1   0  11  754.72   51.89
   2   0  11  382.06   26.20
  -2   0 -11  354.76   26.60
   2   0  11  387.66   26.40
  -3  -1  11  219.08   16.60
   3  -1 -11  211.88   17.50
  -3  -1  11  181.28   23.60
  -3  -1  11  227.48   19.10
  -3  -1  11  225.98   17.10
  -3   1  11  242.58   16.70
  -3   1  11  241.38   16.50
   3   1 -11  239.68   20.70
  -3   1  11  235.98   16.90
  -2  -1  11  528.25   40.00
  -2  -1  11  614.44   40.20
  -2  -1  11  609.04   40.50
   2  -1 -11  562.54   40.70
  -2   1  11  578.54   40.60
  -2   1  11  565.94   40.20
  -2   1  11  586.74   42.40
  -2   1  11  604.14   43.40
  -1  -1  11  399.46   33.70
  -1  -1  11  446.56   33.90
  -1  -1  11  475.25   31.80
  -1   1  11  476.65   34.60
   0  -1  11  103.29   10.00
   0  -1 -11   89.49   12.40
   0  -1  11  105.99   12.50
   0  -1  11  112.19    9.90
   0  -1  11  109.59   13.30
   0   1  11  136.99   10.80
   0   1  11  119.39   10.20
   0   1  11  124.09   10.40
   1  -1  11   20.40    9.70
   1  -1  11   16.70    3.60
  -1  -1 -11   14.80    4.40
   1  -1  11   16.80    3.90
   1   1  11   20.00    5.40
   1   1  11   23.70    4.30
   1   1  11   23.80    4.20
  -1   1 -11   11.10    4.30
   2  -1  11  187.78   15.00
  -2  -1 -11  185.48   15.50
   2   1  11  240.58   15.10
  -3  -2  11  297.67   22.40
  -3  -2  11  311.57   22.50
   3  -2 -11  327.37   23.00
  -3  -2  11  276.07   24.30
  -3  -2  11  305.87   22.10
  -3   2  11  335.67   21.50
  -3   2  11  269.17   21.40
  -3   2  11  321.17   23.30
  -2  -2  11   45.70    6.10
   2  -2 -11   45.90    6.00
  -2  -2  11   44.80    5.90
  -2  -2  11   52.39   10.10
  -2   2  11   48.40    8.70
  -2   2  11   50.49    5.40
  -2   2  11   43.80   14.20
  -2   2  11   48.80    5.50
  -1  -2  11  302.57   19.00
  -1  -2  11  304.67   22.00
  -1   2  11  234.68   18.70
  -1   2  11  239.48   18.80
  -1   2  11  225.48   18.50
  -1   2  11  224.18   19.60
   0  -2  11  351.86   24.00
   0  -2  11  335.57   24.20
   0  -2  11  346.37   26.10
   0  -2  11  316.57   24.40
   0   2 -11  344.57   25.70
   0   2  11  329.17   23.80
   0   2  11  322.77   24.00
   0   2  11  327.17   24.20
   1  -2  11  749.23   51.29
  -1  -2 -11  727.73   51.39
   1  -2  11  692.23   52.99
   1  -2  11  731.83   51.19
   1  -2  11  753.22   51.19
  -1   2 -11  803.32   51.79
   1   2  11  754.42   53.59
   1   2  11  770.32   51.29
   1   2  11  759.22   50.79
   2  -2  11  312.87   20.50
   2  -2  11  279.47   19.90
  -2  -2 -11  294.27   20.00
   2  -2  11  305.87   19.80
  -2   2 -11  259.47   20.40
   2   2  11  266.37   24.00
   2   2  11  241.78   19.80
  -3  -3  11  122.49   10.40
   3  -3 -11  117.49   10.30
  -3  -3  11  115.09   14.50
  -3   3  11  135.19   11.20
  -3   3  11  141.59   10.60
  -2  -3  11  344.07   25.40
  -2  -3  11  334.47   25.30
   2  -3 -11  325.57   25.90
  -2  -3  11  338.67   25.50
  -2  -3  11  347.87   28.10
  -2   3  11  410.76   25.50
  -2   3  11  405.66   25.10
  -1  -3  11  567.44   36.70
   1  -3 -11  524.55   36.90
  -1  -3  11  559.74   38.10
  -1  -3  11  568.94   37.10
  -1   3  11  500.75   40.20
  -1   3  11  509.15   36.50
  -1   3  11  497.75   36.30
  -1   3  11  506.55   36.20
  -1   3  11  493.25   36.60
   0  -3  11  321.77   25.10
   0  -3  11  353.06   24.20
   0  -3  11  313.77   23.40
   0  -3  11  353.76   24.20
   0   3  11  312.07   23.20
   0   3  11  310.97   27.00
   0   3  11  313.97   23.40
   0   3  11  319.87   23.20
  -1  -3 -11    1.70    6.10
   1  -3  11    4.20    3.20
   1  -3  11    4.40    2.30
   1  -3  11   10.10    7.00
   1  -3  11    8.90    2.70
   1   3  11   14.60   11.10
   1   3  11    1.50    2.90
  -1   3 -11    7.70    4.00
   1   3  11    2.40    3.70
   2  -3  11   85.79    6.60
   2  -3  11   85.49   10.80
  -2   3 -11   66.99    7.70
   2   3  11   58.59   12.10
  -3  -4  11  376.16   24.10
   3  -4 -11  323.47   24.00
  -3   4  11  316.57   24.00
  -2  -4  11    5.10    2.60
  -2  -4  11    3.90    3.90
  -2  -4  11   -2.90    6.50
  -2  -4  11    3.60    4.30
  -2   4  11   26.20   10.00
  -1  -4  11  183.58   14.00
   1  -4 -11  169.78   13.80
  -1  -4  11  179.58   13.90
  -1  -4  11  126.99   17.60
  -1   4  11  153.28   17.40
  -1   4  11  171.28   13.00
  -1   4  11  152.88   12.30
  -1   4  11  165.98   13.00
   0  -4  11  441.16   34.90
   0  -4  11  473.55   33.20
   0  -4  11  503.85   33.20
   0  -4  11  498.75   36.60
   0   4  11  451.65   32.90
   0   4  11  469.45   35.50
   0   4  11  487.55   33.30
   1  -4  11  484.05   31.70
   1  -4  11  488.35   31.60
  -1  -4 -11  487.15   32.10
   1  -4  11  466.75   33.30
   1  -4  11  479.95   31.50
   1   4  11  380.06   33.40
  -1   4 -11  381.36   31.50
   2  -4  11  239.68   18.90
   2  -4  11  261.67   19.00
   2  -4  11  255.27   19.30
   2   4  11  270.67   19.10
  -2   4 -11  309.27   20.30
   2   4  11  281.37   21.30
  -3  -5  11   76.79    7.70
   3  -5 -11   65.79    6.90
  -3  -5  11   98.69   10.40
  -2  -5  11  413.06   27.70
  -2  -5  11  423.56   27.90
  -2  -5  11  408.36   27.80
   2  -5 -11  388.76   27.90
  -2  -5  11  407.46   29.90
  -2   5  11  331.77   31.20
  -2   5  11  379.56   27.50
  -1  -5  11  614.44   42.00
   1  -5 -11  599.54   42.30
  -1  -5  11  613.94   43.70
  -1  -5  11  594.34   42.00
  -1   5  11  599.84   47.70
  -1   5  11  618.84   41.90
  -1   5  11  616.74   41.80
   0  -5  11  177.68   13.80
   0  -5  11  165.28   13.70
   0  -5  11  170.58   17.50
   0  -5 -11  147.79   14.90
   0   5  11  190.18   13.60
   0   5  11  191.68   13.50
   0   5  11  202.88   18.50
   1  -5  11   13.60    3.90
   1  -5  11   15.70    3.70
   1  -5  11   12.20    3.40
   1  -5  11   23.70    8.40
   1   5  11   12.50    6.10
   1   5  11   11.70    2.70
   2  -5  11  322.37   22.20
   2  -5  11  331.17   22.40
   2  -5  11  324.07   23.40
   2   5  11  316.97   23.10
   2   5  11  296.77   23.10
   2  -6 -11   77.69    7.80
  -2  -6  11   94.89    8.60
  -2  -6  11   96.89    8.30
  -2   6  11   76.49    7.40
  -2   6  11   74.69   11.40
  -1  -6  11  117.49   17.10
   1  -6 -11  109.59   10.50
  -1  -6  11  107.99    9.90
  -1  -6  11  118.69   10.70
  -1   6  11  115.39    9.10
  -1   6  11  123.49    9.90
  -1   6  11  122.89   13.30
   0  -6  11  468.25   31.00
   0  -6  11  502.45   31.10
   0  -6  11  481.15   32.30
   0  -6 -11  471.95   31.20
   0   6  11  360.06   31.70
   0   6  11  370.16   30.90
   1  -6  11  425.76   32.60
   1  -6  11  488.45   32.20
   1  -6  11  496.75   32.90
   1  -6  11  414.06   33.80
   1   6  11  466.15   32.00
   1   6  11  482.35   33.60
  -2  -7  11  600.94   39.00
   2  -7 -11  602.64   38.80
  -2  -7  11  547.35   38.70
  -2   7  11  548.45   41.80
  -2   7  11  503.45   38.00
  -1  -7  11  352.36   27.00
  -1  -7  11  330.37   28.50
   1  -7 -11  352.86   26.40
  -1   7  11  390.96   25.80
  -1   7  11  401.96   26.10
  -1   7  11  393.26   27.30
   0  -7  11   87.89    8.60
   0  -7 -11   88.19   10.70
   0  -7  11   98.99    9.30
   0   7  11   89.39    7.60
   0   7  11   86.19   10.80
   1  -7  11   13.10    3.50
   1   7  11   13.10    4.30
   1   7  11   14.00    2.70
  -1   8  11   19.70    3.40
  -1   8  11   19.10    7.60
  -1   8  11   24.90    5.60
  -1   8  11   29.30    5.30
   0  -8 -11  362.36   27.20
   0  -8  11  374.66   28.20
   0  -8  11  433.66   29.60
   0   8  11  394.46   28.30
  -3   0  12  308.47   22.30
  -3   0  12  304.37   21.20
  -2   0  12  570.64   42.30
  -2   0  12  663.73   42.40
  -2   0  12  625.84   42.40
  -1   0  12  677.73   46.20
  -1   0  12  699.83   46.10
  -1   0  12  651.13   46.10
   0   0  12   93.29    8.60
   0   0  12   92.49    7.90
   1   0  12    1.00    2.30
   1   0  12    0.60    2.80
  -1   0 -12    3.20    2.50
  -3   1  12  134.69   10.10
  -3   1  12  131.69   10.00
  -2  -1  12   22.10    5.00
  -2  -1  12   20.00    4.00
  -2  -1  12   17.70    4.00
  -2   1  12   22.70    3.80
  -2   1  12   17.90    3.20
  -2   1  12   31.20    5.70
  -1  -1  12  159.68   11.50
  -1  -1  12  152.38   11.70
  -1   1  12  133.19   11.00
  -1   1  12  133.79   11.30
   0  -1  12  411.16   28.10
   0  -1  12  387.56   27.80
   0  -1  12  422.56   28.00
   0   1  12  416.76   28.00
   0   1  12  395.96   27.60
   0   1  12  363.66   28.60
   1  -1  12  397.76   27.40
   1  -1  12  373.16   27.40
  -1  -1 -12  376.06   27.50
   1  -1  12  395.86   27.80
  -1   1 -12  358.16   27.90
   1   1  12  415.76   27.70
   1   1  12  458.45   27.80
  -2  -2  12  676.03   48.00
  -2  -2  12  644.34   47.80
  -2  -2  12  734.23   50.69
  -2  -2  12  750.22   48.10
  -2   2  12  652.33   47.80
  -2   2  12  773.82   47.70
  -1  -2  12  490.35   31.80
  -1  -2  12  499.65   31.70
  -1  -2  12  452.85   35.40
  -1   2  12  417.16   31.40
  -1   2  12  418.96   31.20
   0  -2  12  170.68   13.90
   0  -2  12  168.58   12.70
   0  -2  12  136.69   15.00
   0  -2  12  189.18   19.10
   0   2  12  152.58   12.00
   0   2  12  133.29   11.60
   0   2  12  159.58   12.20
   1  -2  12   60.59    6.20
   1  -2  12   65.69    5.50
   1  -2  12   57.49    7.80
   1   2  12   42.50    5.20
  -1   2 -12   45.90    5.60
   1   2  12   54.29    6.50
  -2  -3  12   16.80    3.30
  -2  -3  12   21.30    4.00
  -2  -3  12   19.10    3.90
  -1  -3  12  154.78   18.60
  -1  -3  12  167.38   13.00
  -1  -3  12  173.58   12.90
  -1   3  12  177.88   12.90
  -1   3  12  157.08   13.80
   0  -3  12  536.45   42.10
   0   3  12  600.44   39.80
   0   3  12  598.54   39.70
   1  -3  12  758.72   50.19
   1  -3  12  743.93   49.99
   1  -3  12  709.33   49.90
  -2  -4  12  238.28   19.00
  -2  -4  12  254.67   18.90
   2  -4 -12  234.18   18.40
  -2  -4  12  245.48   18.00
  -2   4  12  281.97   18.00
  -1  -4  12  526.45   36.10
  -1  -4  12  505.05   37.10
  -1  -4  12  508.55   38.10
  -1   4  12  558.74   42.60
  -1   4  12  524.25   35.90
   0   4  12   72.39    6.70
   0   4  12   86.89   16.20
   0   4  12   80.29    7.10
   1  -4  12    8.10    3.60
   1  -4  12    1.90    4.70
   1   4  12   22.80   10.90
   1   4  12    8.20    3.10
   2  -5 -12    6.10    3.50
  -2  -5  12    2.80    3.20
  -2  -5  12   16.50    5.70
  -2   5  12    6.30    2.10
  -1   5  12  163.98   19.90
  -1   5  12  170.18   12.50
  -1   5  12  166.38   12.60
   0  -5  12  563.34   35.60
   0  -5  12  583.54   35.70
   0   5  12  475.05   35.20
   0   5  12  451.85   35.30
  -1  -6  12  234.68   17.80
  -1   6  12  252.47   17.20
  -1   6  12  225.68   18.70
  -1   6  12  260.37   17.60
   0  -6  12  200.48   14.10
   0  -6  12  184.68   13.90
   0   6  12  194.08   14.10
   0   6  12  179.88   14.90
  -1   0  13  230.58   18.30
  -1   0  13  265.77   17.70
   0   0  13  221.48   15.70
   0   0  13  201.28   14.70
  -1   1  13  166.88   12.30
  -1   1  13  178.38   12.50
   0  -1  13   39.30    4.10
   0  -1  13   24.90    4.80
  -1  -2  13   56.19    6.90
   0   0   0    0.00    0.00

_computing_structure_solution     'SHELXT 2014/5 (Sheldrick, 2014)'
;
_shelx_hkl_checksum              43365
_shelx_fab_file
;
    2   15    0      1.04     -0.23
    0   14    0      1.96     -1.22
    1   14    0      1.63     -1.10
    2   14    0      0.88     -0.74
    1   13    0     -0.91      0.75
    2   13    0     -1.21      1.13
    3   13    0     -0.88      0.99
    0   12    0     -1.58      2.71
    1   12    0     -1.24      2.30
    2   12    0     -0.54      1.36
    3   12    0     -0.03      0.52
    1   11    0      0.70     -1.41
    2   11    0      0.87     -1.94
    3   11    0      0.58     -1.58
    4   11    0      0.20     -0.91
    0   10    0      0.90     -3.85
    1   10    0      0.64     -3.10
    3   10    0     -0.19     -0.44
    4   10    0     -0.23     -0.02
    1    9    0     -0.31      2.07
    3    9    0     -0.24      1.99
    4    9    0      0.00      1.09
    0    8    0     -0.16      5.54
    1    8    0     -0.11      4.32
    2    8    0     -0.03      1.91
    3    8    0      0.16      0.27
    4    8    0      0.29     -0.19
    5    8    0      0.16     -0.12
    1    7    0     -0.43     -2.89
    2    7    0     -0.47     -3.62
    3    7    0     -0.24     -2.60
    4    7    0     -0.19     -1.31
    5    7    0     -0.18     -0.46
    0    6    0     -2.13     -8.12
    1    6    0     -1.62     -6.34
    3    6    0     -0.04     -0.32
    4    6    0     -0.13      0.48
    5    6    0     -0.15      0.34
    1    5    0      1.94      3.55
    2    5    0      2.32      4.46
    3    5    0      1.44      3.23
    4    5    0      0.69      1.58
    5    5    0      0.31      0.49
    0    4    0      7.21      9.48
    1    4    0      5.65      7.44
    2    4    0      2.34      3.49
    3    4    0      0.18      0.50
    4    4    0     -0.26     -0.62
    5    4    0     -0.12     -0.54
    1    3    0     -4.07     -3.15
    2    3    0     -5.04     -3.97
    3    3    0     -3.39     -2.95
    4    3    0     -1.57     -1.46
    5    3    0     -0.51     -0.42
    2    2    0     -4.70     -2.50
    3    2    0     -0.56     -0.42
    4    2    0      0.70      0.45
    5    2    0      0.55      0.42
    1    1    0      5.68      1.25
    2    1    0      7.13      1.51
    3    1    0      4.96      1.18
    4    1    0      2.33      0.60
    5    1    0      0.69      0.18
    1    0    0     12.60     -0.27
    2    0    0      5.76     -0.15
    3    0    0      0.74      0.00
    4    0    0     -0.92      0.00
    5    0    0     -0.76      0.03
    6    0    0     -0.27     -0.05
    6    1    0     -0.04      0.08
    0    2    0    -13.22     -6.73
    1    2    0    -10.47     -5.18
    2    6    0     -0.53     -2.83
    2    9    0     -0.38      2.66
    2   10    0      0.15     -1.56
    1   15    0      0.76     -0.11
    0   16    0     -1.32     -0.16
   -2   15    1      0.46     -0.01
   -1   15    1     -0.08      0.15
    2   15    1     -1.26      0.30
   -2   14    1     -1.37      0.98
   -1   14    1     -1.85      1.16
    0   14    1     -1.71      1.02
    1   14    1     -0.97      0.66
    2   14    1     -0.14      0.25
   -3   13    1     -0.64      0.62
   -2   13    1     -0.65      0.38
   -1   13    1     -0.07     -0.28
    0   13    1      0.89     -1.03
    1   13    1      1.53     -1.46
    2   13    1      1.44     -1.38
    3   13    1      0.86     -0.94
   -4   12    1      0.11     -0.46
   -3   12    1      0.38     -1.19
   -2   12    1      0.93     -2.06
    0   12    1      1.39     -2.29
    2   12    1     -0.06     -0.36
    3   12    1     -0.38      0.20
   -4   11    1      0.18     -0.77
   -3   11    1      0.46     -1.16
   -2   11    1      0.62     -0.92
   -1   11    1      0.23      0.19
    1   11    1     -1.12      2.48
    2   11    1     -1.04      2.26
    3   11    1     -0.58      1.50
    4   11    1     -0.17      0.75
   -4   10    1      0.14      0.53
   -3   10    1      0.15      1.36
   -2   10    1     -0.20      2.61
   -1   10    1     -0.70      3.57
    0   10    1     -0.79      3.24
    2   10    1      0.19      0.21
    3   10    1      0.43     -0.45
    4   10    1      0.29     -0.46
   -5    9    1     -0.05      0.34
   -4    9    1      0.00      1.00
   -3    9    1     -0.11      1.64
   -2    9    1     -0.29      1.48
   -1    9    1     -0.14     -0.10
    0    9    1      0.29     -2.34
    1    9    1      0.61     -3.51
    2    9    1      0.59     -3.00
    4    9    1     -0.04     -0.91
   -5    8    1     -0.17     -0.11
   -4    8    1     -0.29     -0.39
   -3    8    1     -0.41     -1.34
   -2    8    1     -0.30     -3.21
   -1    8    1     -0.02     -4.88
    0    8    1      0.15     -4.57
    1    8    1      0.14     -2.30
    2    8    1     -0.04     -0.06
    4    8    1     -0.28      0.72
    5    8    1     -0.08      0.32
   -5    7    1      0.04     -0.52
   -4    7    1     -0.22     -1.32
   -1    7    1     -0.03      0.39
    0    7    1      0.36      3.61
    1    7    1      0.46      5.13
    2    7    1      0.20      4.17
    3    7    1      0.07      2.33
    4    7    1      0.23      1.00
    5    7    1      0.22      0.31
   -5    6    1      0.22     -0.08
   -4    6    1      0.29      0.27
   -3    6    1      0.66      1.66
   -2    6    1      1.33      4.45
   -1    6    1      1.90      6.96
    0    6    1      1.70      6.59
    1    6    1      0.67      3.42
    2    6    1     -0.14      0.21
    3    6    1     -0.16     -1.20
    4    6    1      0.02     -1.11
    5    6    1      0.02     -0.52
   -5    5    1      0.17      0.75
   -4    5    1      0.79      1.68
   -3    5    1      1.43      2.57
   -2    5    1      1.27      2.06
   -1    5    1     -0.25     -0.99
    0    5    1     -2.37     -4.97
    1    5    1     -3.24     -6.69
    2    5    1     -2.31     -5.36
    3    5    1     -1.06     -2.91
    4    5    1     -0.53     -1.07
    5    5    1     -0.29     -0.20
   -5    4    1     -0.07      0.26
   -4    4    1     -0.31     -0.26
   -3    4    1     -1.53     -2.04
   -2    4    1     -3.94     -5.34
   -1    4    1     -6.11     -8.13
    0    4    1     -5.78     -7.63
    1    4    1     -2.85     -4.11
    2    4    1     -0.01     -0.49
    3    4    1      0.91      1.27
    4    4    1      0.65      1.32
    5    4    1      0.29      0.68
   -5    3    1     -0.62     -0.74
   -4    3    1     -1.77     -1.59
   -3    3    1     -2.87     -2.29
   -2    3    1     -2.28     -1.65
   -1    3    1      1.15      1.25
    0    3    1      5.68      4.78
    1    3    1      7.56      6.17
    2    3    1      5.70      4.93
    3    3    1      2.77      2.69
    4    3    1      1.01      0.92
    5    3    1      0.27      0.10
   -5    2    1     -0.17     -0.24
   -4    2    1      0.44      0.21
   -3    2    1      2.87      1.58
   -2    2    1      7.35      3.99
   -1    2    1     11.21      5.88
    0    2    1     10.61      5.36
    1    2    1      5.57      2.88
    2    2    1      0.45      0.44
    3    2    1     -1.65     -0.83
    4    2    1     -1.49     -0.96
    5    2    1     -0.73     -0.52
   -5    1    1      1.01      0.34
   -4    1    1      2.60      0.69
   -3    1    1      4.00      0.98
   -2    1    1      2.98      0.67
   -1    1    1     -2.01     -0.65
    0    1    1     -8.37     -2.05
    1    1    1    -10.96     -2.42
    2    1    1     -8.40     -1.91
    3    1    1     -4.19     -1.11
    4    1    1     -1.42     -0.38
    5    1    1     -0.23     -0.04
   -6    0    1      0.26      0.03
   -5    0    1      0.29      0.02
   -4    0    1     -0.55     -0.02
   -3    0    1     -3.59     -0.04
   -2    0    1     -9.05     -0.20
   -1    0    1    -13.65     -0.19
    0    0    1    -12.82      0.12
    1    0    1     -6.79      0.20
    2    0    1     -0.67      0.01
    3    0    1      1.98     -0.02
    4    0    1      1.89      0.02
    5    0    1      0.97      0.00
   -6    1    1      0.14     -0.03
   -6    2    1     -0.15     -0.22
   -3    7    1     -0.43     -2.16
   -2    7    1     -0.35     -1.92
    3    8    1     -0.29      0.83
    3    9    1      0.29     -1.83
    1   10    1     -0.34      1.71
    0   11    1     -0.57      1.66
   -1   12    1      1.45     -2.57
    1   12    1      0.69     -1.35
    0   15    1     -0.85      0.25
    1   15    1     -1.36      0.29
    0   16    1      1.15      0.17
   -2   15    2      0.26     -0.22
    0   15    2      1.49     -0.37
   -2   14    2      1.44     -0.94
   -1   14    2      1.58     -0.84
    0   14    2      1.02     -0.49
    1   14    2      0.07     -0.11
    2   14    2     -0.60      0.17
   -3   13    2      0.25     -0.04
   -2   13    2     -0.05      0.53
   -1   13    2     -0.80      1.24
    0   13    2     -1.58      1.68
    2   13    2     -1.24      1.20
    3   13    2     -0.54      0.63
   -3   12    2     -0.52      1.53
   -2   12    2     -1.06      2.12
   -1   12    2     -1.32      2.04
    0   12    2     -0.85      1.21
    1   12    2      0.08      0.15
    2   12    2      0.73     -0.54
    3   12    2      0.74     -0.69
   -4   11    2     -0.15      0.40
   -3   11    2     -0.38      0.31
   -2   11    2     -0.33     -0.47
   -1   11    2      0.27     -1.75
    0   11    2      1.04     -2.73
    2   11    2      0.89     -1.94
    3   11    2      0.33     -1.04
    4   11    2      0.02     -0.39
   -4   10    2     -0.21     -0.89
   -3   10    2     -0.16     -1.89
   -2   10    2      0.28     -2.85
   -1   10    2      0.67     -2.91
    0   10    2      0.46     -1.69
    1   10    2     -0.19      0.00
    2   10    2     -0.70      1.02
    3   10    2     -0.70      1.11
    4   10    2     -0.35      0.75
   -4    9    2      0.09     -0.65
   -2    9    2      0.38      0.18
   -1    9    2      0.01      2.14
    0    9    2     -0.54      3.76
    1    9    2     -0.77      3.75
    2    9    2     -0.54      2.49
    3    9    2     -0.10      1.23
    4    9    2      0.16      0.49
   -5    8    2      0.16      0.26
   -4    8    2      0.43      0.85
   -3    8    2      0.62      2.06
   -2    8    2      0.42      3.53
   -1    8    2      0.04      3.85
    0    8    2     -0.10      2.19
    1    8    2      0.08     -0.25
    2    8    2      0.41     -1.63
    3    8    2      0.51     -1.65
    4    8    2      0.26     -1.07
   -5    7    2     -0.10      0.42
   -4    7    2      0.10      1.00
   -3    7    2      0.12      1.14
   -1    7    2     -0.40     -3.24
    0    7    2     -0.47     -5.62
    1    7    2     -0.23     -5.45
    2    7    2      0.02     -3.40
    3    7    2     -0.10     -1.45
    4    7    2     -0.32     -0.42
    5    7    2     -0.21     -0.06
   -5    6    2     -0.21     -0.22
   -4    6    2     -0.57     -0.93
   -3    6    2     -1.17     -2.56
   -1    6    2     -1.51     -5.15
    0    6    2     -0.68     -2.92
    1    6    2      0.22      0.39
    2    6    2      0.40      2.27
    3    6    2      0.13      2.29
    4    6    2      0.07      1.45
    5    6    2      0.12      0.57
   -5    5    2     -0.10     -0.72
   -4    5    2     -0.60     -1.32
   -3    5    2     -0.73     -1.22
   -2    5    2      0.25      0.87
    0    5    2      3.54      7.63
    1    5    2      3.12      7.20
    2    5    2      1.59      4.41
    3    5    2      0.60      1.72
    4    5    2      0.37      0.27
   -5    4    2      0.25      0.17
   -4    4    2      0.98      1.08
   -3    4    2      2.53      2.98
   -2    4    2      4.22      5.27
   -1    4    2      4.45      5.76
    0    4    2      2.34      3.25
    1    4    2     -0.51     -0.33
    2    4    2     -1.79     -2.42
    3    4    2     -1.43     -2.53
    4    4    2     -0.82     -1.62
    5    4    2     -0.39     -0.63
   -5    3    2      0.58      0.78
   -4    3    2      1.39      1.23
   -3    3    2      1.29      0.91
   -2    3    2     -1.13     -1.22
   -1    3    2     -5.46     -4.82
    0    3    2     -8.58     -7.27
    1    3    2     -7.78     -6.70
    2    3    2     -4.34     -4.12
    3    3    2     -1.51     -1.58
    4    3    2     -0.34     -0.14
    5    3    2      0.01      0.24
   -5    2    2     -0.30     -0.12
   -4    2    2     -1.63     -0.83
   -3    2    2     -4.38     -2.21
   -2    2    2     -7.43     -3.82
   -1    2    2     -7.92     -4.05
    0    2    2     -4.33     -2.22
    1    2    2      0.67      0.18
    2    2    2      3.22      1.58
    3    2    2      2.91      1.75
    4    2    2      1.73      1.16
    5    2    2      0.73      0.45
   -6    1    2     -0.23     -0.09
   -5    1    2     -1.04     -0.39
   -4    1    2     -2.02     -0.52
   -3    1    2     -1.61     -0.34
   -2    1    2      2.08      0.63
   -1    1    2      8.34      2.18
    1    1    2     11.51      2.63
    2    1    2      6.59      1.65
    3    1    2      2.29      0.68
    4    1    2      0.30      0.03
    5    1    2     -0.23     -0.13
   -6    0    2     -0.15     -0.06
   -5    0    2      0.34      0.03
   -4    0    2      2.00      0.04
   -3    0    2      5.33      0.05
   -2    0    2      9.01      0.14
   -1    0    2      9.55      0.04
    0    0    2      5.23     -0.13
    1    0    2     -0.71     -0.02
    2    0    2     -3.83      0.09
    3    0    2     -3.60     -0.03
    4    0    2     -2.19     -0.06
    5    0    2     -0.91     -0.01
    0    1    2     12.70      3.03
   -6    2    2      0.06      0.16
   -1    5    2      2.15      4.75
    5    5    2      0.20     -0.12
   -2    6    2     -1.63     -4.63
   -2    7    2     -0.12     -0.27
    5    8    2      0.01     -0.43
   -5    9    2      0.05     -0.22
   -3    9    2      0.29     -0.76
    1   11    2      1.27     -2.73
    1   13    2     -1.75      1.64
   -1   15    2      0.91     -0.36
    1   15    2      1.57     -0.30
   -1   15    3     -1.47      0.40
    0   15    3     -1.69      0.29
    1   15    3     -1.32      0.21
   -2   14    3     -1.08      0.55
   -1   14    3     -0.84      0.25
    1   14    3      0.82     -0.33
    2   14    3      1.08     -0.40
   -3   13    3      0.15     -0.58
   -1   13    3      1.45     -1.75
    0   13    3      1.83     -1.76
    1   13    3      1.45     -1.35
    2   13    3      0.64     -0.77
    3   13    3      0.04     -0.25
   -3   12    3      0.55     -1.35
   -2   12    3      0.95     -1.46
   -1   12    3      0.85     -0.88
    0   12    3      0.04      0.10
    1   12    3     -0.88      0.88
    2   12    3     -1.19      1.12
    3   12    3     -0.84      0.88
   -4   11    3      0.19      0.09
   -3   11    3      0.33      0.66
   -1   11    3     -0.71      2.68
    0   11    3     -1.22      2.90
    1   11    3     -1.00      2.23
    2   11    3     -0.34      1.20
    3   11    3      0.13      0.41
   -4   10    3      0.21      0.98
   -3   10    3      0.02      1.84
   -2   10    3     -0.42      2.18
   -1   10    3     -0.53      1.42
    0   10    3      0.03     -0.16
    1   10    3      0.78     -1.46
    2   10    3      1.06     -1.79
    3   10    3      0.76     -1.39
    4   10    3      0.28     -0.77
   -4    9    3     -0.31      0.14
   -3    9    3     -0.59     -0.33
   -2    9    3     -0.49     -1.69
   -1    9    3      0.11     -3.31
    0    9    3      0.62     -3.86
    2    9    3      0.09     -1.40
    3    9    3     -0.32     -0.38
    4    9    3     -0.32      0.03
   -5    8    3     -0.15     -0.32
   -4    8    3     -0.46     -1.07
   -3    8    3     -0.55     -2.18
   -2    8    3     -0.24     -2.78
   -1    8    3      0.04     -1.80
    0    8    3     -0.08      0.48
    1    8    3     -0.47      2.33
    2    8    3     -0.72      2.64
    3    8    3     -0.54      1.96
    4    8    3     -0.12      1.09
   -5    7    3      0.15     -0.25
   -4    7    3      0.20     -0.46
   -3    7    3      0.43      0.12
   -2    7    3      0.66      2.12
   -1    7    3      0.62      4.62
    0    7    3      0.35      5.48
    1    7    3      0.08      4.00
    2    7    3      0.11      1.73
    3    7    3      0.36      0.25
    4    7    3      0.39     -0.25
    5    7    3      0.13     -0.19
   -5    6    3      0.19      0.42
   -4    6    3      0.72      1.33
   -3    6    3      1.26      2.69
   -2    6    3      1.27      3.41
   -1    6    3      0.62      2.02
    0    6    3     -0.25     -1.06
    1    6    3     -0.62     -3.43
    2    6    3     -0.34     -3.69
    3    6    3     -0.11     -2.61
    4    6    3     -0.22     -1.36
   -5    5    3     -0.01      0.51
   -4    5    3      0.14      0.62
   -3    5    3     -0.34     -0.35
   -2    5    3     -1.61     -3.09
   -1    5    3     -2.95     -6.30
    0    5    3     -3.16     -7.25
    1    5    3     -2.01     -5.20
    2    5    3     -0.75     -2.17
    3    5    3     -0.29     -0.13
    4    5    3     -0.19      0.55
    5    5    3     -0.03      0.39
   -5    4    3     -0.38     -0.55
   -4    4    3     -1.39     -1.57
   -3    4    3     -2.67     -2.97
   -2    4    3     -3.03     -3.58
    0    4    3      1.13      1.43
    1    4    3      2.80      3.88
    2    4    3      2.51      4.10
    3    4    3      1.47      2.87
    4    4    3      0.83      1.40
    5    4    3      0.40      0.40
   -5    3    3     -0.38     -0.58
   -4    3    3     -0.51     -0.51
   -3    3    3      0.72      0.61
   -2    3    3      3.80      3.28
   -1    3    3      7.11      6.16
    0    3    3      7.81      6.84
    1    3    3      5.27      4.86
    2    3    3      1.99      2.06
    3    3    3      0.21      0.08
    4    3    3     -0.27     -0.64
    5    3    3     -0.28     -0.46
   -5    2    3      0.71      0.46
   -4    2    3      2.36      1.19
   -3    2    3      4.41      2.11
   -2    2    3      5.01      2.46
   -1    2    3      2.45      1.20
    0    2    3     -2.18     -1.08
    1    2    3     -5.24     -2.65
    2    2    3     -4.96     -2.80
    3    2    3     -3.07     -2.02
    4    2    3     -1.52     -0.97
    5    2    3     -0.55     -0.25
   -5    1    3      0.73      0.28
   -4    1    3      0.73      0.18
   -3    1    3     -1.27     -0.33
   -2    1    3     -5.87     -1.51
   -1    1    3    -10.67     -2.69
    0    1    3    -11.64     -2.80
    1    1    3     -7.94     -1.94
    2    1    3     -3.06     -0.88
    3    1    3     -0.17     -0.04
    4    1    3      0.69      0.33
    5    1    3      0.60      0.23
   -6    0    3     -0.02      0.02
   -5    0    3     -0.92     -0.08
   -4    0    3     -2.87     -0.04
   -3    0    3     -5.27     -0.03
   -2    0    3     -5.96     -0.05
   -1    0    3     -2.85      0.05
    0    0    3      2.66      0.05
    1    0    3      6.31     -0.11
    2    0    3      6.05     -0.07
    3    0    3      3.83      0.10
    4    0    3      1.87      0.06
    5    0    3      0.62      0.00
   -6    1    3      0.25      0.17
   -1    4    3     -1.53     -1.91
    5    6    3     -0.22     -0.45
    1    9    3      0.57     -2.89
   -2   11    3      0.03      1.70
   -2   13    3      0.70     -1.27
    0   14    3     -0.03     -0.11
   -1   15    4      1.53     -0.27
    0   15    4      1.36     -0.15
   -2   14    4      0.40      0.00
   -1   14    4     -0.14      0.33
    0   14    4     -0.93      0.53
    1   14    4     -1.36      0.56
    2   14    4     -1.11      0.47
   -3   13    4     -0.45      0.95
   -2   13    4     -1.10      1.52
    1   13    4     -0.69      0.78
    2   13    4      0.12      0.26
   -3   12    4     -0.48      0.70
   -2   12    4     -0.61      0.34
   -1   12    4     -0.12     -0.44
    0   12    4      0.78     -1.19
    1   12    4      1.35     -1.51
    2   12    4      1.17     -1.30
    3   12    4      0.58     -0.77
   -4   11    4     -0.24     -0.50
   -3   11    4     -0.21     -1.35
    0   11    4      0.99     -2.25
    1   11    4      0.33     -1.24
    2   11    4     -0.37     -0.30
    3   11    4     -0.54      0.19
   -4   10    4     -0.05     -0.77
   -3   10    4      0.27     -1.19
   -2   10    4      0.56     -0.87
   -1   10    4      0.27      0.31
    0   10    4     -0.53      1.66
    1   10    4     -1.08      2.29
    2   10    4     -0.96      1.99
    4   10    4     -0.09      0.54
   -4    9    4      0.51      0.34
   -3    9    4      0.73      1.23
   -2    9    4      0.41      2.53
   -1    9    4     -0.23      3.34
    0    9    4     -0.44      2.85
    1    9    4     -0.01      1.41
    2    9    4      0.54      0.12
    3    9    4      0.67     -0.45
    4    9    4      0.37     -0.44
   -5    8    4      0.09      0.29
   -4    8    4      0.24      1.00
   -3    8    4      0.13      1.66
   -2    8    4     -0.16      1.34
   -1    8    4     -0.13     -0.38
    0    8    4      0.29     -2.43
    1    8    4      0.67     -3.31
    2    8    4      0.62     -2.76
    3    8    4      0.21     -1.69
    4    8    4     -0.10     -0.77
   -5    7    4     -0.21      0.06
   -4    7    4     -0.49     -0.15
   -3    7    4     -0.86     -1.21
   -2    7    4     -0.90     -3.06
    0    7    4     -0.23     -3.71
    1    7    4     -0.21     -1.64
    2    7    4     -0.46      0.16
    3    7    4     -0.58      0.88
    4    7    4     -0.32      0.77
   -5    6    4     -0.11     -0.51
   -4    6    4     -0.58     -1.36
   -3    6    4     -0.81     -2.09
   -1    6    4      0.22      0.97
    0    6    4      0.69      3.73
    1    6    4      0.62      4.71
    2    6    4      0.33      3.73
    3    6    4      0.30      2.12
    4    6    4      0.39      0.86
    5    6    4      0.21      0.20
   -5    5    4      0.11     -0.18
   -4    5    4      0.40      0.19
   -3    5    4      1.24      1.63
   -2    5    4      2.22      4.00
   -1    5    4      2.57      5.56
    0    5    4      1.90      4.65
    1    5    4      0.78      1.99
    2    5    4      0.16     -0.33
    3    5    4      0.07     -1.28
    4    5    4     -0.05     -1.11
    5    5    4     -0.15     -0.49
   -5    4    4      0.41      0.74
   -4    4    4      1.33      1.59
   -3    4    4      1.90      2.15
   -2    4    4      1.09      1.23
   -1    4    4     -1.08     -1.58
    0    4    4     -3.11     -4.48
    1    4    4     -3.44     -5.35
    2    4    4     -2.34     -4.13
    3    4    4     -1.27     -2.25
    4    4    4     -0.71     -0.78
    5    4    4     -0.27     -0.09
   -5    3    4      0.06      0.19
   -4    3    4     -0.54     -0.32
   -3    3    4     -2.34     -1.77
   -2    3    4     -4.78     -3.96
   -1    3    4     -6.01     -5.26
    0    3    4     -4.68     -4.30
    1    3    4     -1.85     -1.85
    2    3    4      0.19      0.29
    3    3    4      0.78      1.24
    4    3    4      0.73      1.11
    5    3    4      0.47      0.50
   -5    2    4     -0.91     -0.63
   -3    2    4     -3.05     -1.44
   -2    2    4     -1.50     -0.68
   -1    2    4      2.39      1.31
    0    2    4      6.06      3.22
    1    2    4      6.72      3.70
    2    2    4      4.71      2.88
    3    2    4      2.41      1.58
    4    2    4      1.00      0.49
    5    2    4      0.23      0.00
   -5    1    4     -0.17     -0.05
   -4    1    4      0.81      0.21
   -3    1    4      3.49      0.81
   -2    1    4      7.09      1.74
   -1    1    4      8.93      2.23
    0    1    4      6.99      1.74
    1    1    4      2.79      0.77
    2    1    4     -0.41     -0.07
    3    1    4     -1.47     -0.57
    4    1    4     -1.34     -0.55
   -5    0    4      1.21      0.09
   -4    0    4      2.80      0.01
   -3    0    4      3.57      0.00
   -2    0    4      1.65      0.01
   -1    0    4     -3.05     -0.05
    0    0    4     -7.42      0.02
    1    0    4     -8.19      0.09
    2    0    4     -5.80     -0.05
    3    0    4     -2.98     -0.14
    4    0    4     -1.14     -0.01
    5    0    4     -0.20      0.03
    5    1    4     -0.76     -0.23
   -4    2    4     -2.31     -1.16
   -2    6    4     -0.47     -1.48
   -1    7    4     -0.57     -4.35
    3   10    4     -0.46      1.25
   -2   11    4      0.30     -2.29
   -1   11    4      0.94     -2.70
   -1   13    4     -1.64      1.65
    0   13    4     -1.51      1.32
   -2   14    5      0.32     -0.45
   -1   14    5      0.97     -0.68
    0   14    5      1.46     -0.69
    1   14    5      1.34     -0.60
   -2   13    5      1.10     -1.21
   -1   13    5      1.25     -1.05
    0   13    5      0.70     -0.62
    1   13    5     -0.19     -0.15
    2   13    5     -0.66      0.19
   -3   12    5      0.32      0.10
   -2   12    5      0.11      0.74
   -1   12    5     -0.58      1.41
    0   12    5     -1.25      1.75
    1   12    5     -1.25      1.62
    2   12    5     -0.68      1.10
    3   12    5     -0.15      0.46
   -3   11    5     -0.02      1.49
   -2   11    5     -0.55      2.04
   -1   11    5     -0.85      1.89
    0   11    5     -0.41      1.09
    1   11    5      0.41      0.11
    2   11    5      0.83     -0.51
    3   11    5      0.63     -0.57
   -4   10    5     -0.19      0.36
   -3   10    5     -0.53      0.24
   -1   10    5      0.06     -1.66
    0   10    5      0.76     -2.43
    1   10    5      0.86     -2.36
    2   10    5      0.40     -1.62
    3   10    5     -0.02     -0.78
   -4    9    5     -0.51     -0.65
   -3    9    5     -0.53     -1.62
   -2    9    5     -0.09     -2.47
   -1    9    5      0.29     -2.41
    0    9    5      0.05     -1.28
    1    9    5     -0.57      0.15
    2    9    5     -0.89      0.96
    3    9    5     -0.67      0.99
    4    9    5     -0.25      0.58
   -4    8    5      0.12     -0.67
   -3    8    5      0.40     -0.73
   -2    8    5      0.51      0.23
    1    8    5     -0.44      3.13
    2    8    5     -0.09      2.08
    3    8    5      0.26      0.98
    4    8    5      0.27      0.28
   -5    7    5      0.21      0.09
   -4    7    5      0.58      0.64
   -3    7    5      0.86      1.82
   -2    7    5      0.71      3.00
   -1    7    5      0.35      2.96
    0    7    5      0.26      1.37
    1    7    5      0.46     -0.59
    2    7    5      0.63     -1.61
    3    7    5      0.47     -1.54
    4    7    5      0.10     -0.93
   -5    6    5      0.01      0.45
   -4    6    5      0.21      1.02
   -3    6    5      0.08      1.01
   -2    6    5     -0.34     -0.41
   -1    6    5     -0.69     -2.85
    0    6    5     -0.75     -4.52
    1    6    5     -0.60     -4.22
    2    6    5     -0.52     -2.63
    3    6    5     -0.56     -1.08
    4    6    5     -0.43     -0.19
   -5    5    5     -0.17     -0.15
   -4    5    5     -0.75     -0.89
   -3    5    5     -1.57     -2.30
   -2    5    5     -1.97     -3.65
   -1    5    5     -1.58     -3.48
    0    5    5     -0.67     -1.42
    2    5    5      0.25      2.16
    3    5    5      0.24      2.01
    4    5    5      0.32      1.20
   -5    4    5     -0.32     -0.69
   -4    4    5     -0.84     -1.15
   -3    4    5     -0.63     -0.88
   -2    4    5      0.70      0.88
   -1    4    5      2.47      3.59
    0    4    5      3.39      5.25
    1    4    5      2.89      4.72
    2    4    5      1.76      2.84
    3    4    5      0.94      1.03
    4    4    5      0.43      0.02
   -5    3    5      0.26      0.24
   -4    3    5      1.34      1.01
   -3    3    5      3.00      2.29
   -2    3    5      4.11      3.42
   -1    3    5      3.49      3.11
    0    3    5      1.28      1.19
    1    3    5     -0.86     -0.93
    2    3    5     -1.61     -2.00
    3    3    5     -1.39     -1.90
    4    3    5     -0.98     -1.13
   -5    2    5      0.83      0.58
   -4    2    5      1.53      0.79
   -3    2    5      0.97      0.48
   -2    2    5     -1.55     -0.82
   -1    2    5     -4.91     -2.69
    0    2    5     -6.67     -3.74
    1    2    5     -5.64     -3.30
    2    2    5     -3.26     -2.01
    3    2    5     -1.36     -0.70
    4    2    5     -0.32      0.07
    5    2    5      0.12      0.18
   -5    1    5     -0.43     -0.18
   -4    1    5     -1.99     -0.51
   -3    1    5     -4.34     -1.00
   -2    1    5     -5.96     -1.46
   -1    1    5     -5.06     -1.28
    0    1    5     -1.78     -0.46
    1    1    5      1.45      0.36
    2    1    5      2.69      0.83
    3    1    5      2.35      0.89
    4    1    5      1.54      0.54
   -5    0    5     -1.11     -0.05
   -4    0    5     -1.84      0.03
   -3    0    5     -1.08      0.00
   -2    0    5      2.02     -0.01
   -1    0    5      6.11      0.02
    0    0    5      8.19     -0.02
    1    0    5      6.92      0.01
    2    0    5      3.99      0.14
    3    0    5      1.58      0.09
    4    0    5      0.25     -0.06
    5    0    5     -0.23     -0.03
    5    1    5      0.68      0.14
    5    3    5     -0.49     -0.36
    5    4    5      0.05     -0.16
    1    5    5      0.07      0.97
   -1    8    5      0.14      1.95
    0    8    5     -0.36      3.22
   -2   10    5     -0.54     -0.53
   -1   14    6     -1.29      0.72
    0   14    6     -1.35      0.63
   -2   13    6     -0.73      0.55
   -1   13    6     -0.50      0.27
    0   13    6      0.19     -0.08
    1   13    6      0.76     -0.38
   -3   12    6     -0.09     -0.69
   -2   12    6      0.34     -1.35
   -1   12    6      0.96     -1.74
    0   12    6      1.16     -1.70
    1   12    6      0.68     -1.26
    2   12    6      0.05     -0.62
   -3   11    6      0.25     -1.06
   -2   11    6      0.60     -1.14
   -1   11    6      0.48     -0.67
    0   11    6     -0.21      0.13
    1   11    6     -0.81      0.81
    2   11    6     -0.79      0.97
    3   11    6     -0.38      0.63
   -4   10    6      0.36      0.06
   -3   10    6      0.58      0.60
   -2   10    6      0.32      1.48
   -1   10    6     -0.31      2.23
    0   10    6     -0.62      2.36
    3   10    6      0.34      0.20
   -4    9    6      0.27      0.67
   -3    9    6      0.08      1.38
   -2    9    6     -0.28      1.64
   -1    9    6     -0.25      1.02
    1    9    6      0.77     -1.29
    2    9    6      0.71     -1.52
    3    9    6      0.33     -1.06
   -4    8    6     -0.39      0.22
   -3    8    6     -0.69     -0.25
   -2    8    6     -0.58     -1.39
   -1    8    6     -0.10     -2.60
    0    8    6      0.16     -2.93
    1    8    6     -0.10     -2.13
    2    8    6     -0.48     -0.95
    3    8    6     -0.53     -0.14
    4    8    6     -0.26      0.12
   -4    7    6     -0.38     -0.87
   -3    7    6     -0.46     -1.79
   -2    7    6     -0.24     -2.14
   -1    7    6     -0.13     -1.20
    0    7    6     -0.30      0.62
    1    7    6     -0.46      2.03
    2    7    6     -0.36      2.22
    3    7    6     -0.06      1.55
    4    7    6      0.14      0.71
   -5    6    6      0.07     -0.30
   -4    6    6      0.16     -0.43
   -3    6    6      0.50      0.18
   -2    6    6      0.79      1.76
   -1    6    6      0.81      3.42
    0    6    6      0.72      3.80
    1    6    6      0.69      2.63
    2    6    6      0.70      1.00
    3    6    6      0.59     -0.05
    4    6    6      0.27     -0.34
   -5    5    6      0.16      0.39
   -4    5    6      0.75      1.25
   -3    5    6      1.26      2.25
   -2    5    6      1.19      2.49
   -1    5    6      0.58      1.15
    0    5    6     -0.16     -1.13
    1    5    6     -0.59     -2.73
    2    5    6     -0.66     -2.82
    3    5    6     -0.60     -1.92
    4    5    6     -0.48     -0.86
   -5    4    6      0.17      0.44
   -3    4    6     -0.56     -0.43
   -2    4    6     -1.75     -2.23
   -1    4    6     -2.68     -4.00
    0    4    6     -2.71     -4.24
    1    4    6     -1.92     -2.84
    2    4    6     -1.03     -1.00
    3    4    6     -0.44      0.21
    4    4    6     -0.04      0.53
   -5    3    6     -0.47     -0.54
   -4    3    6     -1.59     -1.32
   -3    3    6     -2.62     -2.13
   -2    3    6     -2.53     -2.18
   -1    3    6     -1.00     -0.84
    1    3    6      2.32      2.57
    2    3    6      2.26      2.60
    3    3    6      1.61      1.77
    4    3    6      0.92      0.76
   -5    2    6     -0.50     -0.34
   -4    2    6     -0.37     -0.20
   -3    2    6      0.98      0.45
   -2    2    6      3.29      1.73
   -1    2    6      5.17      2.90
    0    2    6      5.18      2.98
    1    2    6      3.44      1.99
    2    2    6      1.45      0.72
    3    2    6      0.21     -0.19
    4    2    6     -0.33     -0.46
   -5    1    6      0.85      0.34
   -4    1    6      2.42      0.62
   -3    1    6      3.80      0.91
   -2    1    6      3.59      0.90
   -1    1    6      1.25      0.30
    0    1    6     -1.90     -0.56
    1    1    6     -3.73     -1.08
    2    1    6     -3.57     -1.14
    3    1    6     -2.46     -0.84
    4    1    6     -1.28     -0.34
    5    1    6     -0.39     -0.03
   -5    0    6      0.66     -0.02
   -4    0    6      0.41     -0.07
   -3    0    6     -1.26      0.00
   -2    0    6     -4.09      0.01
   -1    0    6     -6.38     -0.01
    0    0    6     -6.33     -0.01
    1    0    6     -4.16     -0.08
    2    0    6     -1.68     -0.13
    3    0    6     -0.10      0.01
    4    0    6      0.53      0.09
    5    0    6      0.47      0.00
    0    3    6      1.09      1.23
   -4    4    6      0.16      0.41
    0    9    6      0.30     -0.24
    1   10    6     -0.27      1.76
    2   10    6      0.23      0.86
   -1   13    7     -0.21      0.36
    0   13    7     -0.71      0.55
   -2   12    7     -0.54      1.33
   -1   12    7     -0.87      1.44
    0   12    7     -0.65      1.16
   -3   11    7     -0.36      0.36
   -2   11    7     -0.44      0.08
   -1   11    7     -0.05     -0.44
    0   11    7      0.53     -0.99
    1   11    7      0.69     -1.23
    2   11    7      0.37     -0.96
   -3   10    7     -0.37     -0.97
   -2   10    7     -0.01     -1.68
   -1   10    7      0.38     -1.98
    0   10    7      0.24     -1.63
    1   10    7     -0.27     -0.80
    2   10    7     -0.52     -0.04
    3   10    7     -0.33      0.22
   -4    9    7      0.04     -0.46
   -3    9    7      0.33     -0.73
   -2    9    7      0.49     -0.50
   -1    9    7      0.15      0.31
    0    9    7     -0.37      1.29
    1    9    7     -0.49      1.75
    2    9    7     -0.18      1.43
    3    9    7      0.07      0.74
   -4    8    7      0.41      0.17
   -3    8    7      0.57      0.89
   -2    8    7      0.35      1.84
   -1    8    7      0.05      2.38
    0    8    7      0.15      1.94
    1    8    7      0.52      0.81
    2    8    7      0.65     -0.15
    3    8    7      0.43     -0.44
   -4    7    7      0.05      0.76
   -3    7    7     -0.07      1.20
   -2    7    7     -0.19      0.90
   -1    7    7     -0.05     -0.35
    0    7    7      0.17     -1.82
    1    7    7      0.10     -2.43
    2    7    7     -0.18     -1.95
    3    7    7     -0.33     -1.04
   -4    6    7     -0.32     -0.18
   -3    6    7     -0.67     -1.09
   -2    6    7     -0.79     -2.32
   -1    6    7     -0.73     -2.98
    0    6    7     -0.70     -2.32
    1    6    7     -0.69     -0.79
    2    6    7     -0.57      0.44
    3    6    7     -0.30      0.78
    4    6    7     -0.03      0.51
   -5    5    7     -0.10     -0.47
   -4    5    7     -0.48     -1.15
   -3    5    7     -0.60     -1.56
   -2    5    7     -0.32     -1.00
   -1    5    7      0.17      0.70
    0    5    7      0.67      2.49
    1    5    7      0.98      3.09
    2    5    7      0.99      2.38
    3    5    7      0.78      1.22
    4    5    7      0.43      0.34
   -5    4    7     -0.02     -0.09
   -4    4    7      0.39      0.37
   -3    4    7      1.23      1.41
   -2    4    7      2.00      2.71
   -1    4    7      2.23      3.30
    0    4    7      1.76      2.43
    1    4    7      0.91      0.73
    2    4    7      0.21     -0.59
    3    4    7     -0.16     -0.98
    4    4    7     -0.28     -0.67
   -5    3    7      0.50      0.62
   -4    3    7      1.29      1.19
   -3    3    7      1.56      1.42
   -2    3    7      0.79      0.74
   -1    3    7     -0.78     -0.89
    0    3    7     -2.26     -2.45
    1    3    7     -2.76     -2.88
    2    3    7     -2.25     -2.18
    3    3    7     -1.38     -1.09
    4    3    7     -0.59     -0.26
   -5    2    7      0.07      0.01
   -4    2    7     -0.69     -0.39
   -3    2    7     -2.20     -1.12
   -2    2    7     -3.69     -1.99
   -1    2    7     -4.11     -2.32
    0    2    7     -3.03     -1.66
    1    2    7     -1.18     -0.51
    2    2    7      0.22      0.41
    3    2    7      0.76      0.74
    4    2    7      0.70      0.54
   -5    1    7     -0.96     -0.35
   -4    1    7     -2.02     -0.53
   -3    1    7     -2.30     -0.59
   -2    1    7     -1.04     -0.29
   -1    1    7      1.44      0.43
    0    1    7      3.66      1.08
    1    1    7      4.25      1.24
    2    1    7      3.31      0.99
    3    1    7      1.88      0.52
    4    1    7      0.70      0.09
   -5    0    7     -0.06      0.07
   -4    0    7      0.91      0.08
   -3    0    7      2.73      0.02
   -2    0    7      4.53      0.01
   -1    0    7      5.00      0.01
    0    0    7      3.61      0.01
    1    0    7      1.33      0.07
    2    0    7     -0.40      0.06
    3    0    7     -1.06     -0.06
    4    0    7     -0.94     -0.07
    1   12    7     -0.04      0.61
    2   12    7      0.32      0.08
    1   13    7     -0.79      0.62
   -2   12    8      0.47     -0.83
   -1   12    8      0.50     -0.77
    1   12    8     -0.29      0.00
   -2   11    8      0.20      0.64
   -1   11    8     -0.20      1.04
    0   11    8     -0.46      1.25
    1   11    8     -0.27      1.08
   -3   10    8      0.07      0.83
   -2   10    8     -0.23      1.21
   -1   10    8     -0.30      1.19
    0   10    8      0.07      0.65
    2   10    8      0.36     -0.46
   -3    9    8     -0.49      0.03
   -1    9    8     -0.07     -1.13
    0    9    8      0.18     -1.62
    1    9    8      0.00     -1.49
    2    9    8     -0.25     -0.87
   -4    8    8     -0.21     -0.34
   -3    8    8     -0.19     -1.00
   -2    8    8      0.00     -1.58
   -1    8    8      0.01     -1.56
    0    8    8     -0.30     -0.75
    1    8    8     -0.52      0.31
    2    8    8     -0.37      0.79
    3    8    8     -0.11      0.58
   -4    7    8      0.17     -0.42
   -3    7    8      0.37     -0.38
   -2    7    8      0.39      0.26
   -1    7    8      0.18      1.35
    0    7    8      0.13      2.13
    1    7    8      0.36      1.97
    2    7    8      0.54      1.13
    3    7    8      0.43      0.38
   -4    6    8      0.23      0.58
   -3    6    8      0.44      1.42
   -2    6    8      0.49      2.11
   -1    6    8      0.52      1.95
    0    6    8      0.55      0.75
    1    6    8      0.39     -0.64
    2    6    8      0.10     -1.21
    3    6    8     -0.10     -0.92
   -4    5    8      0.14      0.68
   -3    5    8     -0.02      0.54
   -2    5    8     -0.33     -0.39
   -1    5    8     -0.67     -1.82
    0    5    8     -1.01     -2.73
    1    5    8     -1.18     -2.41
    2    5    8     -1.01     -1.32
    3    5    8     -0.62     -0.37
   -4    4    8     -0.60     -0.88
   -1    4    8     -1.47     -2.04
    0    4    8     -0.80     -0.62
    1    4    8      0.06      0.84
    2    4    8      0.58      1.41
    3    4    8      0.61      1.10
    4    4    8      0.37      0.48
   -5    3    8     -0.38     -0.48
   -4    3    8     -0.65     -0.67
   -3    3    8     -0.33     -0.42
   -1    3    8      1.81      1.85
    0    3    8      2.60      2.59
    1    3    8      2.49      2.21
    2    3    8      1.67      1.20
    3    3    8      0.78      0.30
    4    3    8      0.18     -0.10
   -5    2    8      0.27      0.26
   -4    2    8      1.26      0.76
   -2    2    8      3.06      1.71
   -1    2    8      2.54      1.36
    0    2    8      1.00      0.35
    1    2    8     -0.64     -0.61
    2    2    8     -1.42     -0.99
    3    2    8     -1.26     -0.81
    4    2    8     -0.69     -0.38
   -5    1    8      0.74      0.25
   -4    1    8      1.07      0.27
   -3    1    8      0.51      0.15
   -2    1    8     -1.02     -0.25
   -1    1    8     -2.89     -0.82
    0    1    8     -3.98     -1.12
    1    1    8     -3.60     -0.96
    3    1    8     -0.90     -0.15
    4    1    8     -0.11      0.07
   -5    0    8     -0.43     -0.08
   -4    0    8     -1.65     -0.08
   -3    0    8     -3.05     -0.03
   -2    0    8     -3.74     -0.02
   -1    0    8     -3.01      0.00
    0    0    8     -1.06      0.02
    1    0    8      0.91     -0.02
    2    0    8      1.80     -0.01
    3    0    8      1.59      0.06
    4    0    8      0.87      0.04
    2    1    8     -2.24     -0.56
   -3    2    8      2.45      1.35
   -2    3    8      0.62      0.52
   -3    4    8     -1.27     -1.78
   -2    4    8     -1.63     -2.41
   -2    9    8     -0.46     -0.44
    1   10    8      0.42     -0.09
    0   12    8      0.11     -0.45
   -1   10    9      0.19     -0.32
    0   10    9     -0.13      0.14
    1   10    9     -0.22      0.53
   -2    9    9      0.26      0.83
   -1    9    9      0.02      1.28
    0    9    9      0.04      1.32
    1    9    9      0.28      0.83
    2    9    9      0.32      0.24
   -3    8    9     -0.16      0.66
   -2    8    9     -0.27      0.88
   -1    8    9     -0.08      0.57
    0    8    9      0.20     -0.22
    1    8    9      0.19     -0.86
    2    8    9     -0.04     -0.82
   -3    7    9     -0.34     -0.27
   -2    7    9     -0.32     -0.95
   -1    7    9     -0.23     -1.65
    0    7    9     -0.36     -1.74
    1    7    9     -0.55     -1.06
    2    7    9     -0.49     -0.27
    3    7    9     -0.25      0.06
   -4    6    9     -0.02     -0.61
   -3    6    9     -0.08     -1.15
   -2    6    9     -0.12     -1.34
   -1    6    9     -0.22     -0.73
    0    6    9     -0.19      0.47
    1    6    9      0.10      1.31
    2    6    9      0.35      1.22
   -4    5    9      0.06     -0.10
   -3    5    9      0.34      0.39
   -2    5    9      0.63      1.29
   -1    5    9      0.90      2.14
    0    5    9      1.10      2.16
    1    5    9      1.01      1.25
    2    5    9      0.62      0.25
    3    5    9      0.25     -0.19
   -4    4    9      0.49      0.95
   -3    4    9      0.85      1.49
   -2    4    9      0.92      1.52
   -1    4    9      0.59      0.66
    0    4    9     -0.14     -0.71
    1    4    9     -0.86     -1.55
    2    4    9     -1.04     -1.41
   -4    3    9      0.03      0.04
   -3    3    9     -0.59     -0.48
   -2    3    9     -1.44     -1.34
   -1    3    9     -2.17     -2.07
    0    3    9     -2.32     -1.99
    1    3    9     -1.67     -1.12
    2    3    9     -0.72     -0.21
    3    3    9     -0.10      0.22
   -4    2    9     -1.23     -0.80
   -3    2    9     -1.86     -1.12
   -2    2    9     -1.81     -1.05
    0    2    9      0.66      0.59
    2    2    9      1.87      1.00
    3    2    9      1.15      0.56
   -4    1    9     -0.05      0.02
   -3    1    9      0.91      0.24
   -2    1    9      2.24      0.59
   -1    1    9      3.30      0.89
    0    1    9      3.33      0.83
    1    1    9      2.22      0.48
    2    1    9      0.81      0.14
    3    1    9     -0.04     -0.08
   -4    0    9      1.64      0.05
   -3    0    9      2.36      0.02
   -2    0    9      2.20      0.02
   -1    0    9      0.92     -0.02
    0    0    9     -0.96     -0.04
    1    0    9     -2.26      0.01
    2    0    9     -2.27      0.01
    3    0    9     -1.40     -0.04
   -1    2    9     -0.86     -0.37
    1    2    9      1.81      1.11
    3    4    9     -0.69     -0.74
    3    6    9      0.31      0.61
   -3    9    9      0.37      0.35
   -2   10    9      0.31     -0.49
   -1   11    9      0.22     -1.03
    0   11    9      0.20     -0.98
    1   11    9     -0.06     -0.59
   -1   10   10     -0.13     -0.21
    0   10   10      0.03     -0.45
   -2    9   10     -0.02     -0.70
   -1    9   10      0.04     -0.93
    0    9   10     -0.12     -0.72
    1    9   10     -0.24     -0.21
   -3    8   10      0.29     -0.22
   -2    8   10      0.32     -0.19
    0    8   10      0.00      0.68
    1    8   10      0.13      0.80
   -3    7   10      0.10      0.50
   -2    7   10      0.09      1.04
   -1    7   10      0.17      1.35
    0    7   10      0.36      0.99
    1    7   10      0.38      0.22
    2    7   10      0.19     -0.23
   -3    6   10     -0.16      0.57
   -2    6   10     -0.14      0.42
   -1    6   10     -0.07     -0.28
    0    6   10     -0.20     -1.08
    1    6   10     -0.45     -1.24
    2    6   10     -0.47     -0.74
   -3    5   10     -0.31     -0.85
   -2    5   10     -0.57     -1.51
   -1    5   10     -0.80     -1.78
    0    5   10     -0.83     -1.19
    1    5   10     -0.50     -0.17
    2    5   10     -0.08      0.39
   -4    4   10     -0.24     -0.64
   -3    4   10     -0.30     -0.78
   -2    4   10     -0.17     -0.44
   -1    4   10      0.23      0.48
    0    4   10      0.85      1.37
    1    4   10      1.20      1.48
    2    4   10      0.95      0.89
    3    4   10      0.43      0.28
   -4    3   10      0.31      0.41
   -3    3   10      0.94      0.96
   -2    3   10      1.57      1.53
   -1    3   10      1.88      1.66
    0    3   10      1.50      1.04
    1    3   10      0.56      0.11
    2    3   10     -0.19     -0.39
   -4    2   10      0.78      0.54
   -3    2   10      0.87      0.58
   -2    2   10      0.41      0.27
   -1    2   10     -0.61     -0.44
    0    2   10     -1.74     -1.04
    1    2   10     -2.12     -1.06
    2    2   10     -1.52     -0.65
    3    2   10     -0.63     -0.24
   -4    1   10     -0.59     -0.23
   -3    1   10     -1.55     -0.44
   -2    1   10     -2.45     -0.66
   -1    1   10     -2.75     -0.68
    0    1   10     -2.01     -0.39
    1    1   10     -0.60     -0.05
    2    1   10      0.40      0.12
   -4    0   10     -1.07     -0.02
   -3    0   10     -1.13     -0.01
   -2    0   10     -0.48     -0.01
   -1    0   10      0.85      0.03
    0    0   10      2.19      0.02
    1    0   10      2.56     -0.03
    2    0   10      1.81      0.00
    3    0   10      0.77      0.05
    3    1   10      0.52      0.14
    3    3   10     -0.29     -0.35
   -1    8   10      0.13      0.17
    0    8   11     -0.11     -0.64
   -2    7   11      0.11     -0.71
   -1    7   11     -0.04     -0.75
    0    7   11     -0.18     -0.28
    1    7   11     -0.10      0.23
   -2    6   11      0.18      0.25
   -1    6   11      0.21      0.80
    0    6   11      0.37      1.08
    1    6   11      0.45      0.74
   -3    5   11      0.11      0.78
   -2    5   11      0.30      1.14
   -1    5   11      0.46      0.99
    0    5   11      0.34      0.24
    1    5   11     -0.03     -0.45
    2    5   11     -0.22     -0.49
   -3    4   11     -0.07      0.07
   -2    4   11     -0.32     -0.40
   -1    4   11     -0.72     -1.09
    0    4   11     -1.07     -1.36
    1    4   11     -0.97     -0.92
    2    4   11     -0.49     -0.29
   -3    3   11     -0.77     -0.91
   -2    3   11     -1.12     -1.16
   -1    3   11     -1.08     -0.89
    0    3   11     -0.44     -0.12
    1    3   11      0.37      0.49
    2    3   11      0.61      0.52
   -3    2   11      0.01     -0.04
   -2    2   11      0.63      0.34
   -1    2   11      1.47      0.85
    0    2   11      1.96      1.00
    1    2   11      1.60      0.67
    2    2   11      0.72      0.24
   -3    1   11      1.38      0.41
   -2    1   11      1.80      0.48
   -1    1   11      1.52      0.33
    0    1   11      0.45     -0.01
    1    1   11     -0.66     -0.21
    2    1   11     -0.93     -0.19
   -3    0   11      0.01      0.00
   -2    0   11     -0.81      0.01
   -1    0   11     -1.85     -0.03
    0    0   11     -2.39      0.00
    1    0   11     -1.90      0.03
    2    0   11     -0.86     -0.03
   -1    8   11     -0.10     -0.46
   -1    6   12     -0.16     -0.79
    0    6   12     -0.28     -0.69
   -2    5   12     -0.05     -0.53
    0    5   12      0.06      0.35
   -2    4   12      0.43      0.73
   -1    4   12      0.74      1.08
    1    4   12      0.44      0.29
   -2    3   12      0.46      0.53
   -1    3   12      0.20      0.10
    0    3   12     -0.37     -0.46
    1    3   12     -0.72     -0.61
   -2    2   12     -1.00     -0.59
   -1    2   12     -1.49     -0.82
    0    2   12     -1.40     -0.64
    1    2   12     -0.68     -0.22
   -2    1   12     -0.76     -0.20
   -1    1   12     -0.20      0.02
    0    1   12      0.69      0.26
    1    1   12      1.12      0.26
   -3    0   12      0.55     -0.01
   -2    0   12      1.27     -0.01
   -1    0   12      1.84      0.01
    0    0   12      1.68     -0.02
    1    0   12      0.80     -0.02
   -3    1   12     -0.77     -0.24
    0    4   12      0.79      0.88
   -1    5   12     -0.10     -0.21
   -1    2   13      0.91      0.49
    0    1   13     -1.02     -0.31
   -1    0   13     -1.12      0.01
    0    0   13     -0.63      0.04
   -1    1   13     -0.60     -0.23
    6    2    0      0.15      0.21
    5    9    0      0.10      0.41
    4   12    0      0.10      0.07
    3   14    0      0.23     -0.31
   -3   14    1     -0.69      0.57
   -4   12    2     -0.15      0.73
   -3   14    2      0.87     -0.69
   -6    2    3      0.03     -0.01
   -5    9    3     -0.10      0.06
    4   11    3      0.17      0.01
    1   15    4      0.69     -0.11
    5    5    5      0.25      0.40
   -5    8    5      0.02     -0.21
   -4   11    5      0.20      0.67
   -3   13    5      0.58     -0.92
    5    2    6     -0.35     -0.22
   -5    7    6     -0.12     -0.18
    2   13    6      0.73     -0.46
   -5    6    7     -0.08      0.10
    4    7    7     -0.23     -0.33
   -2   13    7      0.20      0.10
   -5    4    8     -0.07     -0.22
    4    5    8     -0.23      0.04
    3    9    8     -0.23     -0.29
    2   11    8      0.04      0.58
   -4    7    9     -0.18      0.06
   -2   11    9     -0.02     -0.80
   -4    5   10     -0.06     -0.30
    2    8   10      0.23      0.46
   -3    6   11      0.16     -0.05
   -2    8   11     -0.20     -0.16
   -3    2   12     -0.42     -0.26
    1    5   12      0.25      0.54
    0    2   13      0.54      0.20
    0    0    0      0.00      0.00
# SQUEEZE RESULTS (Version = 160617)
# Note: Data are Listed for all Voids in the P1 Unit Cell
# i.e. Centre of Gravity, Solvent Accessible Volume,
# Recovered number of Electrons in the Void and
# Details about the Squeezed Material
loop_
  _platon_squeeze_void_nr
  _platon_squeeze_void_average_x
  _platon_squeeze_void_average_y
  _platon_squeeze_void_average_z
  _platon_squeeze_void_volume
  _platon_squeeze_void_count_electrons
  _platon_squeeze_void_content
   1 -0.034  0.278  0.403        10         8 ' '
   2  0.033  0.778  0.596         9         8 ' '
_platon_squeeze_void_probe_radius                  1.20
_platon_squeeze_details
)
A badly disordered solvent molecule (probably one methanol molecule) was found in the asymmetrical unit and could not be satisfactorily refined. The program SQUEEZE (Spek, A.L. (2015). Acta Cryst. C71, 9-18) was therefore used to remove mathematically the effect of the solvent.
The quoted formula and derived parameters are not included the squeezed solvent molecule.
)
)
TITL dan9407   P 21         R = 0.05
CELL    4.9620   13.1568   10.7648     90.00     96.67     90.00
SPGR P21
# Solvent Accessible Volume =        21
# Electrons Found in S.A.V. =        16
# Note: Atoms in Void are Labelled as Cxxx and Qxxx for all Others
C101 0.918 0.285 0.406 !      11.18 eA-3
Q102 0.923 0.361 0.401 !       2.47 eA-3
Q103 0.833 0.253 0.330 !       1.04 eA-3
)
;
_shelx_fab_checksum              77698
loop_
_space_group_symop_operation_xyz
'x, y, z'
'-x, y+1/2, -z'
loop_
_atom_site_type_symbol
_atom_site_label
_atom_site_fract_x
_atom_site_fract_y
_atom_site_fract_z
_atom_site_U_iso_or_equiv
_atom_site_adp_type
_atom_site_calc_flag
_atom_site_refinement_flags_adp
_atom_site_refinement_flags_posn
_atom_site_occupancy
C C1' 0.3288(10) 0.5726(4) 0.4877(5) 0.0162(11) Uani d . . 1
H H1' 0.1671 0.6069 0.5163 0.019 Uiso calc U R 1
I I7 1.10132(5) 0.32574(5) 0.76490(2) 0.01420(10) Uani d . . 1
N N1 0.5530(9) 0.5834(3) 0.9636(4) 0.0173(9) Uani d . . 1
O O4' 0.2421(7) 0.4923(3) 0.4048(3) 0.0178(8) Uani d . . 1
C C2 0.3656(11) 0.6333(4) 0.8841(5) 0.0172(11) Uani d . . 1
C C2' 0.4853(14) 0.6483(5) 0.4160(6) 0.0150(13) Uani d U . 1
H H2'1 0.6546 0.6701 0.4668 0.018 Uiso calc U R 1
H H2'2 0.3736 0.709 0.3917 0.018 Uiso calc U R 1
N N2 0.2078(9) 0.6977(3) 0.9389(4) 0.0180(9) Uani d . D 1
H H2A 0.234(12) 0.693(5) 1.020(3) 0.007(15) Uiso d . D 1
H H2B 0.080(16) 0.728(7) 0.885(8) 0.07(3) Uiso d . D 1
C C3' 0.5473(14) 0.5888(5) 0.3008(7) 0.0140(14) Uani d . . 1
H H3' 0.7213 0.5503 0.3185 0.017 Uiso calc U R 1
N N3 0.3269(9) 0.6245(3) 0.7585(4) 0.0145(9) Uani d . . 1
O O3' 0.5582(8) 0.6567(3) 0.1984(3) 0.0165(7) Uani d . . 1
H H3'1 0.6044 0.6245 0.1368 0.025 Uiso calc U R 1
C C4 0.4902(14) 0.5554(5) 0.7156(6) 0.0137(13) Uani d . . 1
C C4' 0.3079(11) 0.5168(4) 0.2807(4) 0.0148(10) Uani d . . 1
H H4' 0.1507 0.5531 0.2338 0.018 Uiso calc U R 1
C C5' 0.3594(11) 0.4192(4) 0.2125(5) 0.0200(11) Uani d . . 1
H H5'1 0.4361 0.4356 0.134 0.024 Uiso calc U R 1
H H5'2 0.494 0.3775 0.2652 0.024 Uiso calc U R 1
N N5 0.6849(8) 0.5014(3) 0.7877(4) 0.0127(8) Uani d . . 1
O O5' 0.1159(9) 0.3624(3) 0.1841(4) 0.0270(9) Uani d . . 1
H H5' 0.0054 0.3961 0.1354 0.041 Uiso calc U R 1
C C6 0.7191(11) 0.5159(4) 0.9186(5) 0.0172(11) Uani d . . 1
O O6 0.8936(9) 0.4660(3) 0.9829(4) 0.0253(9) Uani d . . 1
C C7 0.8132(10) 0.4361(4) 0.7092(5) 0.0147(10) Uani d . . 1
C C8 0.6968(10) 0.4527(4) 0.5923(5) 0.0155(10) Uani d . . 1
H H8 0.7423 0.4197 0.5191 0.019 Uiso calc U R 1
N N9 0.4962(11) 0.5275(4) 0.5966(5) 0.0163(12) Uani d . . 1
loop_
_atom_site_aniso_label
_atom_site_aniso_U_11
_atom_site_aniso_U_22
_atom_site_aniso_U_33
_atom_site_aniso_U_12
_atom_site_aniso_U_13
_atom_site_aniso_U_23
C1' 0.017(3) 0.020(3) 0.011(2) 0.002(2) 0.000(2) 0.000(2)
I7 0.01539(14) 0.01347(14) 0.01357(14) 0.00302(19) 0.00102(9) 0.00047(19)
N1 0.022(2) 0.019(2) 0.011(2) 0.0060(18) 0.0012(17) -0.0003(18)
O4' 0.0211(18) 0.023(2) 0.0090(17) -0.0056(15) -0.0003(14) 0.0006(14)
C2 0.021(3) 0.018(3) 0.012(3) 0.000(2) 0.001(2) 0.004(2)
C2' 0.026(3) 0.015(3) 0.004(2) -0.001(2) 0.000(2) -0.001(2)
N2 0.022(2) 0.017(2) 0.016(2) 0.0103(18) 0.0052(19) -0.0043(19)
C3' 0.014(3) 0.019(3) 0.008(3) -0.005(2) -0.002(2) 0.006(2)
N3 0.020(2) 0.015(2) 0.008(2) 0.0047(17) 0.0013(17) -0.0005(17)
O3' 0.028(2) 0.0134(17) 0.0088(17) -0.0043(15) 0.0045(15) -0.0006(14)
C4 0.017(3) 0.012(3) 0.011(3) 0.007(2) 0.001(2) -0.001(2)
C4' 0.018(3) 0.018(3) 0.008(2) -0.003(2) -0.0003(18) 0.0010(19)
C5' 0.028(3) 0.014(3) 0.018(3) -0.005(2) 0.001(2) -0.003(2)
N5 0.017(2) 0.015(2) 0.0067(19) 0.0042(17) 0.0001(15) 0.0018(16)
O5' 0.037(2) 0.0198(19) 0.021(2) -0.0129(16) -0.0108(17) 0.0030(15)
C6 0.022(3) 0.020(3) 0.009(2) 0.000(2) -0.001(2) 0.002(2)
O6 0.030(2) 0.030(2) 0.014(2) 0.0162(19) -0.0055(16) -0.0002(17)
C7 0.015(2) 0.014(2) 0.015(2) 0.0009(19) 0.0039(19) -0.001(2)
C8 0.017(3) 0.015(3) 0.014(3) 0.004(2) 0.0022(19) 0.003(2)
N9 0.018(2) 0.021(3) 0.010(2) 0.005(2) 0.0005(18) -0.001(2)
loop_
_atom_type_symbol
_atom_type_description
_atom_type_scat_dispersion_real
_atom_type_scat_dispersion_imag
_atom_type_scat_source
C C 0.0181 0.0091 'International Tables Vol C Tables 4.2.6.8 and 6.1.1.4'
H H 0.0000 0.0000 'International Tables Vol C Tables 4.2.6.8 and 6.1.1.4'
N N 0.0311 0.0180 'International Tables Vol C Tables 4.2.6.8 and 6.1.1.4'
O O 0.0492 0.0322 'International Tables Vol C Tables 4.2.6.8 and 6.1.1.4'
I I -0.3257 6.8362 'International Tables Vol C Tables 4.2.6.8 and 6.1.1.4'
loop_
_geom_angle_atom_site_label_1
_geom_angle_atom_site_label_2
_geom_angle_atom_site_label_3
_geom_angle
O4' C1' N9 107.5(4)
O4' C1' C2' 107.6(4)
N9 C1' C2' 113.0(5)
O4' C1' H1' 109.5
N9 C1' H1' 109.5
C2' C1' H1' 109.5
C6 N1 C2 119.8(4)
C1' O4' C4' 109.3(4)
N2 C2 N3 118.3(5)
N2 C2 N1 114.9(5)
N3 C2 N1 126.7(5)
C1' C2' C3' 103.8(5)
C1' C2' H2'1 111.0
C3' C2' H2'1 111.0
C1' C2' H2'2 111.0
C3' C2' H2'2 111.0
H2'1 C2' H2'2 109.0
C2 N2 H2A 112.(4)
C2 N2 H2B 114.(7)
H2A N2 H2B 133.(8)
O3' C3' C4' 112.4(5)
O3' C3' C2' 109.7(5)
C4' C3' C2' 102.0(5)
O3' C3' H3' 110.8
C4' C3' H3' 110.8
C2' C3' H3' 110.8
C4 N3 C2 112.6(5)
C3' O3' H3'1 109.5
N3 C4 N9 126.9(6)
N3 C4 N5 125.1(6)
N9 C4 N5 108.0(6)
O4' C4' C5' 109.1(4)
O4' C4' C3' 105.4(4)
C5' C4' C3' 115.2(5)
O4' C4' H4' 109.0
C5' C4' H4' 109.0
C3' C4' H4' 109.0
O5' C5' C4' 111.3(5)
O5' C5' H5'1 109.4
C4' C5' H5'1 109.4
O5' C5' H5'2 109.4
C4' C5' H5'2 109.4
H5'1 C5' H5'2 108.0
C4 N5 C7 108.4(5)
C4 N5 C6 119.4(5)
C7 N5 C6 132.1(4)
C5' O5' H5' 109.5
O6 C6 N1 124.9(5)
O6 C6 N5 118.9(5)
N1 C6 N5 116.3(4)
C8 C7 N5 106.7(4)
C8 C7 I7 126.3(4)
N5 C7 I7 126.7(4)
C7 C8 N9 108.3(5)
C7 C8 H8 125.9
N9 C8 H8 125.9
C4 N9 C8 108.6(5)
C4 N9 C1' 125.2(5)
C8 N9 C1' 126.1(5)
loop_
_geom_bond_atom_site_label_1
_geom_bond_atom_site_label_2
_geom_bond_distance
C1' O4' 1.418(6)
C1' N9 1.479(7)
C1' C2' 1.527(8)
C1' H1' 1.0
I7 C7 2.076(5)
N1 C6 1.340(7)
N1 C2 1.357(7)
O4' C4' 1.448(6)
C2 N2 1.337(7)
C2 N3 1.348(7)
C2' C3' 1.528(10)
C2' H2'1 0.99
C2' H2'2 0.99
N2 H2A 0.87(3)
N2 H2B 0.90(3)
C3' O3' 1.425(8)
C3' C4' 1.515(8)
C3' H3' 1.0
N3 C4 1.335(8)
O3' H3'1 0.84
C4 N9 1.337(9)
C4 N5 1.366(8)
C4' C5' 1.515(7)
C4' H4' 1.0
C5' O5' 1.423(7)
C5' H5'1 0.99
C5' H5'2 0.99
N5 C7 1.408(7)
N5 C6 1.412(6)
O5' H5' 0.84
C6 O6 1.233(7)
C7 C8 1.341(7)
C8 N9 1.404(7)
C8 H8 0.95
loop_
_geom_hbond_atom_site_label_D
_geom_hbond_atom_site_label_H
_geom_hbond_atom_site_label_A
_geom_hbond_site_symmetry_A
_geom_hbond_distance_DH
_geom_hbond_distance_HA
_geom_hbond_distance_DA
_geom_hbond_angle_DHA
N2 H2A O3' 1_556 0.87(3) 2.40(4) 3.160(6) 145.(5)
N2 H2B O5' 2_556 0.90(3) 2.11(6) 2.921(6) 149.(9)
O3' H3'1 N1 1_554 0.84 1.93 2.702(5) 152.3
O5' H5' O6 1_454 0.84 1.91 2.685(5) 153.5
loop_
_geom_torsion_atom_site_label_1
_geom_torsion_atom_site_label_2
_geom_torsion_atom_site_label_3
_geom_torsion_atom_site_label_4
_geom_torsion
N9 C1' O4' C4' -128.0(4)
C2' C1' O4' C4' -6.0(6)
C6 N1 C2 N2 179.0(5)
C6 N1 C2 N3 -1.5(8)
O4' C1' C2' C3' -15.8(6)
N9 C1' C2' C3' 102.7(6)
C1' C2' C3' O3' 149.4(5)
C1' C2' C3' C4' 30.1(6)
N2 C2 N3 C4 -177.8(6)
N1 C2 N3 C4 2.7(8)
C2 N3 C4 N9 178.2(7)
C2 N3 C4 N5 -2.6(9)
C1' O4' C4' C5' 150.0(4)
C1' O4' C4' C3' 25.8(5)
O3' C3' C4' O4' -151.8(5)
C2' C3' C4' O4' -34.4(6)
O3' C3' C4' C5' 87.9(6)
C2' C3' C4' C5' -154.7(5)
O4' C4' C5' O5' 69.1(5)
C3' C4' C5' O5' -172.7(4)
N3 C4 N5 C7 179.7(6)
N9 C4 N5 C7 -1.0(7)
N3 C4 N5 C6 1.5(10)
N9 C4 N5 C6 -179.3(5)
C2 N1 C6 O6 -179.2(6)
C2 N1 C6 N5 0.0(7)
C4 N5 C6 O6 179.2(6)
C7 N5 C6 O6 1.5(9)
C4 N5 C6 N1 0.0(8)
C7 N5 C6 N1 -177.7(5)
C4 N5 C7 C8 0.8(6)
C6 N5 C7 C8 178.7(5)
C4 N5 C7 I7 -174.0(4)
C6 N5 C7 I7 3.9(8)
N5 C7 C8 N9 -0.3(6)
I7 C7 C8 N9 174.6(4)
N3 C4 N9 C8 -179.9(6)
N5 C4 N9 C8 0.9(7)
N3 C4 N9 C1' 3.2(11)
N5 C4 N9 C1' -176.0(5)
C7 C8 N9 C4 -0.4(7)
C7 C8 N9 C1' 176.5(5)
O4' C1' N9 C4 -139.9(6)
C2' C1' N9 C4 101.5(7)
O4' C1' N9 C8 43.8(7)
C2' C1' N9 C8 -74.9(7)
