#------------------------------------------------------------------------------
#$Date: 2018-01-06 04:22:35 +0200 (Sat, 06 Jan 2018) $
#$Revision: 204867 $
#$URL: file:///home/coder/svn-repositories/cod/cif/4/03/31/4033182.cif $
#------------------------------------------------------------------------------
#
# This file is available in the Crystallography Open Database (COD),
# http://www.crystallography.net/
#
# All data on this site have been placed in the public domain by the
# contributors.
#
data_4033182
loop_
_publ_author_name
'Zou, Liang-Hua'
'Zhao, Cong'
'Li, Ping-Gui'
'Wang, Ying'
'Li, Jie'
_publ_section_title
;
 Transition-Metal-Free C-S Bond Formation: Synthesis of Polysubstituted
 Diaryl Sulfides and \a-Thioarylcarbonyl Compounds.
;
_journal_issue                   23
_journal_name_full               'The Journal of organic chemistry'
_journal_page_first              12892
_journal_page_last               12898
_journal_paper_doi               10.1021/acs.joc.7b02384
_journal_volume                  82
_journal_year                    2017
_chemical_formula_sum            'C17 H18 O2 S'
_chemical_formula_weight         286.37
_space_group_crystal_system      triclinic
_space_group_IT_number           2
_space_group_name_Hall           '-P 1'
_space_group_name_H-M_alt        'P -1'
_symmetry_space_group_name_Hall  '-P 1'
_symmetry_space_group_name_H-M   'P -1'
_atom_sites_solution_hydrogens   geom
_audit_creation_method           SHELXL-2014/7
_cell_angle_alpha                93.177(5)
_cell_angle_beta                 94.183(4)
_cell_angle_gamma                119.259(4)
_cell_formula_units_Z            2
_cell_length_a                   7.6936(13)
_cell_length_b                   7.8268(14)
_cell_length_c                   13.667(2)
_cell_measurement_reflns_used    3473
_cell_measurement_temperature    296(2)
_cell_measurement_theta_max      27.76
_cell_measurement_theta_min      3.00
_cell_volume                     712.1(2)
_computing_cell_refinement       'Bruker SAINT'
_computing_data_collection       'Bruker APEX2'
_computing_data_reduction        'Bruker SAINT'
_computing_molecular_graphics    'Bruker SHELXTL'
_computing_publication_material  'Bruker SHELXTL'
_computing_structure_refinement  'SHELXL-2014 (Sheldrick 2014)'
_computing_structure_solution    'SHELXS-97 (Sheldrick 2008)'
_diffrn_ambient_temperature      296(2)
_diffrn_measured_fraction_theta_full 0.984
_diffrn_measured_fraction_theta_max 0.984
_diffrn_measurement_device_type  'Bruker APEX-II CCD'
_diffrn_measurement_method       '\f and \w scans'
_diffrn_radiation_type           MoK\a
_diffrn_radiation_wavelength     0.71073
_diffrn_reflns_av_R_equivalents  0.0256
_diffrn_reflns_av_unetI/netI     0.0396
_diffrn_reflns_Laue_measured_fraction_full 0.984
_diffrn_reflns_Laue_measured_fraction_max 0.984
_diffrn_reflns_limit_h_max       9
_diffrn_reflns_limit_h_min       -9
_diffrn_reflns_limit_k_max       9
_diffrn_reflns_limit_k_min       -7
_diffrn_reflns_limit_l_max       15
_diffrn_reflns_limit_l_min       -16
_diffrn_reflns_number            4794
_diffrn_reflns_point_group_measured_fraction_full 0.984
_diffrn_reflns_point_group_measured_fraction_max 0.984
_diffrn_reflns_theta_full        25.006
_diffrn_reflns_theta_max         25.006
_diffrn_reflns_theta_min         3.000
_exptl_absorpt_coefficient_mu    0.226
_exptl_crystal_colour
;
;
_exptl_crystal_density_diffrn    1.336
_exptl_crystal_description
;
;
_exptl_crystal_F_000             304
_exptl_crystal_size_max          0.280
_exptl_crystal_size_mid          0.260
_exptl_crystal_size_min          0.220
_refine_diff_density_max         0.313
_refine_diff_density_min         -0.231
_refine_diff_density_rms         0.050
_refine_ls_extinction_method     none
_refine_ls_goodness_of_fit_ref   1.079
_refine_ls_hydrogen_treatment    constr
_refine_ls_matrix_type           full
_refine_ls_number_parameters     186
_refine_ls_number_reflns         2475
_refine_ls_number_restraints     0
_refine_ls_restrained_S_all      1.079
_refine_ls_R_factor_all          0.0494
_refine_ls_R_factor_gt           0.0427
_refine_ls_shift/su_max          0.004
_refine_ls_shift/su_mean         0.000
_refine_ls_structure_factor_coef Fsqd
_refine_ls_weighting_details
'w=1/[\s^2^(Fo^2^)+(0.0544P)^2^+0.5213P] where P=(Fo^2^+2Fc^2^)/3'
_refine_ls_weighting_scheme      calc
_refine_ls_wR_factor_gt          0.1155
_refine_ls_wR_factor_ref         0.1199
_reflns_Friedel_coverage         0.000
_reflns_number_gt                2173
_reflns_number_total             2475
_reflns_threshold_expression     'I > 2\s(I)'
_cod_data_source_file            jo7b02384_si_002.cif
_cod_data_source_block           20170527zlh_0m_a
_cod_depositor_comments          'Adding full bibliography for 4033182.cif.'
_cod_database_code               4033182
_shelx_shelxl_version_number     2014/7
_shelx_space_group_comment
;
The symmetry employed for this shelxl refinement is uniquely defined
by the following loop, which should always be used as a source of
symmetry information in preference to the above space-group names.
They are only intended as comments.
;
_shelx_estimated_absorpt_t_min   0.939
_shelx_estimated_absorpt_t_max   0.952
_shelx_res_file
;

    20170527zlh_0m_a.res created by SHELXL-2014/7

TITL 20170527zlh_0m_a.res in P-1
CELL  0.71073   7.6936   7.8268  13.6671   93.177   94.183  119.259
ZERR   2.000   0.0013   0.0014   0.0022    0.005    0.004    0.004
LATT 1
SFAC C  H  O  S
UNIT 34 36 4 2
L.S. 10
OMIT -3 50.02
ACTA
BOND $H
FMAP 2
SIZE .28 .26 .22
PLAN 20
LIST 6
TEMP 23.000
WGHT    0.054400    0.521300
FVAR       1.68768
C1    1    0.075584    0.292920    1.041467    11.00000    0.03144    0.04385 =
         0.03521    0.01718    0.01031    0.01817
AFIX 137
H1A   2    0.153601    0.256287    1.084356    11.00000   -1.50000
H1B   2   -0.027036    0.178097    1.001239    11.00000   -1.50000
H1C   2    0.014674    0.350602    1.080297    11.00000   -1.50000
AFIX   0
C2    1    0.210066    0.440392    0.976218    11.00000    0.02397    0.03014 =
         0.02774    0.00935    0.00577    0.01704
C3    1    0.187452    0.395050    0.874432    11.00000    0.02235    0.02212 =
         0.02944    0.00013   -0.00008    0.00830
AFIX  43
H3    2    0.088170    0.270911    0.846392    11.00000   -1.20000
AFIX   0
C4    1    0.309317    0.530412    0.813733    11.00000    0.02517    0.02862 =
         0.01893    0.00134    0.00069    0.01088
AFIX  43
H4    2    0.293531    0.495720    0.746164    11.00000   -1.20000
AFIX   0
C5    1    0.455069    0.718105    0.854556    11.00000    0.02020    0.02425 =
         0.01996    0.00551    0.00223    0.01029
C6    1    0.480696    0.765870    0.956456    11.00000    0.02391    0.02416 =
         0.02490   -0.00216   -0.00182    0.01027
AFIX  43
H6    2    0.578851    0.890505    0.984487    11.00000   -1.20000
AFIX   0
C7    1    0.359932    0.627618    1.015723    11.00000    0.02969    0.03554 =
         0.01685    0.00311    0.00246    0.01743
AFIX  43
H7    2    0.379344    0.660563    1.083595    11.00000   -1.20000
AFIX   0
C8    1    0.458125    0.849723    0.669795    11.00000    0.01998    0.02039 =
         0.02101    0.00604    0.00145    0.00628
C9    1    0.290231    0.876134    0.667172    11.00000    0.02129    0.01756 =
         0.02493    0.00690    0.00812    0.00654
C10   1    0.170925    0.831942    0.577260    11.00000    0.01700    0.02119 =
         0.02966    0.00822    0.00630    0.00953
AFIX  43
H10   2    0.059848    0.849812    0.575769    11.00000   -1.20000
AFIX   0
C11   1    0.208149    0.763050    0.490121    11.00000    0.01575    0.01545 =
         0.02518    0.00754    0.00400    0.00383
C12   1    0.379926    0.738426    0.491096    11.00000    0.01742    0.01610 =
         0.02154    0.00567    0.00366    0.00613
C13   1    0.507064    0.789489    0.582069    11.00000    0.01567    0.01704 =
         0.02678    0.00866    0.00519    0.00687
C14   1    0.236581    0.953047    0.756945    11.00000    0.03143    0.03715 =
         0.02980    0.00376    0.01156    0.01541
AFIX 137
H14A  2    0.120046    0.964637    0.739103    11.00000   -1.50000
H14B  2    0.346688    1.079941    0.782445    11.00000   -1.50000
H14C  2    0.208849    0.863537    0.806451    11.00000   -1.50000
AFIX   0
C15   1    0.062599    0.724648    0.400052    11.00000    0.01965    0.03070 =
         0.02894    0.00573    0.00039    0.01147
AFIX 137
H15A  2   -0.017210    0.585360    0.381626    11.00000   -1.50000
H15B  2    0.135882    0.787038    0.346550    11.00000   -1.50000
H15C  2   -0.023242    0.777177    0.414821    11.00000   -1.50000
AFIX   0
C16   1    0.436898    0.663601    0.403949    11.00000    0.02432    0.01731 =
         0.02674    0.00879    0.00833    0.00959
C17   1    0.303676    0.571699    0.308120    11.00000    0.03869    0.03609 =
         0.02262    0.00066    0.00205    0.02205
AFIX 137
H17A  2    0.298961    0.672396    0.272901    11.00000   -1.50000
H17B  2    0.170883    0.478429    0.321311    11.00000   -1.50000
H17C  2    0.356153    0.505615    0.268983    11.00000   -1.50000
AFIX   0
O1    3    0.602987    0.670984    0.408563    11.00000    0.02468    0.03156 =
         0.03556    0.00118    0.00796    0.01457
O2    3    0.678068    0.782127    0.587352    11.00000    0.01862    0.02998 =
         0.03084    0.00504    0.00240    0.01385
AFIX 147
H2    2    0.692067    0.744554    0.532796    11.00000   -1.50000
AFIX   0
S1    4    0.618683    0.900499    0.781433    11.00000    0.02114    0.03175 =
         0.02301    0.00815   -0.00109    0.00302
HKLF 4

REM  20170527zlh_0m_a.res in P-1
REM R1 =  0.0427 for    2173 Fo > 4sig(Fo)  and  0.0494 for all    2475 data
REM    186 parameters refined using      0 restraints

END

WGHT      0.0436      0.5942

REM Highest difference peak  0.313,  deepest hole -0.231,  1-sigma level  0.050
Q1    1   0.5337  0.8666  0.7173  11.00000  0.05    0.31
Q2    1   0.4580  0.7934  0.5301  11.00000  0.05    0.26
Q3    1   0.3959  0.7094  0.4510  11.00000  0.05    0.25
Q4    1  -0.0737  0.2419  1.0172  11.00000  0.05    0.23
Q5    1   0.1679  0.4354  0.9255  11.00000  0.05    0.22
Q6    1   0.3642  0.6535  0.3545  11.00000  0.05    0.22
Q7    1   0.2437  0.5387  0.9897  11.00000  0.05    0.21
Q8    1   0.1657  0.7390  0.5341  11.00000  0.05    0.21
Q9    1   0.6397  0.7239  0.4757  11.00000  0.05    0.20
Q10   1   0.1385  0.7489  0.4461  11.00000  0.05    0.20
Q11   1   0.3100  0.9852  0.8327  11.00000  0.05    0.19
Q12   1   0.3022  0.7591  0.4824  11.00000  0.05    0.19
Q13   1   0.4408  0.7609  0.8995  11.00000  0.05    0.19
Q14   1   0.2309  0.3995  0.9299  11.00000  0.05    0.18
Q15   1   0.2421  0.8652  0.6169  11.00000  0.05    0.18
Q16   1   0.0648  0.1521  1.0250  11.00000  0.05    0.18
Q17   1   0.5162  0.7820  0.8219  11.00000  0.05    0.18
Q18   1   0.5227  0.8782  0.6232  11.00000  0.05    0.17
Q19   1   0.4543  0.7887  0.6298  11.00000  0.05    0.17
Q20   1   0.0866  0.8511  0.3384  11.00000  0.05    0.17
;
_shelx_res_checksum              92648
_shelx_hkl_file
;
  -2   0   0  229.98    8.80
   2   0   0  204.88    8.80
  -3   0   0  488.35   20.50
   3   0   0  570.04   20.90
  -4   0   0  394.46   16.10
   4   0   0  403.06   16.50
  -5   0   0  265.37   12.30
   5   0   0  290.47   12.90
  -6   0   0   25.10    4.00
   6   0   0   17.50    3.90
  -7   0   0  385.06   17.10
   7   0   0  364.56   17.90
  -8   0   0   14.70    5.40
   8   0   0   14.80    5.90
   9  -1   0  183.28   13.90
  -9   1   0  183.88   13.00
   8  -1   0  490.15   23.00
  -8   1   0  513.95   22.20
   7  -1   0  401.96   18.40
  -7   1   0  387.86   17.50
   6  -1   0  155.98    8.80
  -6   1   0  140.79    8.20
   5  -1   0  462.75   19.30
  -5   1   0  458.75   18.80
   4  -1   0  423.76   16.90
  -4   1   0  398.96   16.60
   2  -1   0   86.09    4.10
   2  -1   0   86.19    4.20
  -2   1   0   84.69    4.20
  -2   1   0   86.69    4.10
   1  -1   0 2344.97   97.19
   1  -1   0 3141.09   97.09
  -1   1   0 2374.66   97.19
   0   1   0  132.39    5.30
   1   1   0   20.10    1.50
  -2  -1   0  490.05   18.80
   2   1   0  478.05   18.90
   2   1   0  491.65   18.90
  -3  -1   0   33.70    3.00
   3   1   0   34.20    3.10
  -4  -1   0  517.35   20.10
   4   1   0  474.65   20.60
   4   1   0  514.85   20.40
  -5  -1   0  753.02   28.90
   5   1   0  710.83   29.20
   5   1   0  727.43   29.40
  -6  -1   0  369.06   16.50
   6   1   0  366.86   17.20
  -7  -1   0  133.79    9.50
   7   1   0  139.39   10.60
  -8  -1   0   92.49    8.80
   8   1   0   87.39    9.60
   9  -2   0  159.88   12.40
  -9   2   0  157.48   12.10
   8  -2   0   37.80    6.00
  -8   2   0   45.30    6.00
   7  -2   0   -2.10    3.10
  -7   2   0   -1.50    3.50
   6  -2   0   11.10    3.20
  -6   2   0    9.00    2.80
   5  -2   0   77.29    5.60
  -5   2   0   84.59    5.60
   4  -2   0 1064.29   42.10
  -4   2   0 1133.29   42.20
   3  -2   0 3396.76  133.79
   3  -2   0 3569.54  133.59
  -3   2   0 3721.63  133.79
  -3   2   0 3671.23  133.19
   1  -2   0  594.14   22.30
  -1   2   0  559.74   22.30
   0   2   0 7502.35  277.67
  -1  -2   0  822.42   31.30
   1   2   0  826.32   31.20
  -2  -2   0  167.28    7.40
  -3  -2   0  139.99    6.90
   3   2   0  141.29    6.90
  -4  -2   0  314.37   13.50
   4   2   0  307.07   13.90
  -5  -2   0  422.36   18.20
   5   2   0  427.96   18.70
   5   2   0  432.46   20.10
  -6  -2   0  143.59    9.30
   6   2   0  147.79   11.70
   6   2   0  142.09   10.00
  -7  -2   0  364.76   17.40
   7   2   0  348.47   18.60
   9  -3   0   66.19    8.00
  -9   3   0   71.99    7.90
   8  -3   0   10.20    4.40
  -8   3   0    2.50    4.30
   7  -3   0  205.18   11.10
  -7   3   0  199.08   11.30
   6  -3   0   99.59    6.60
  -6   3   0   87.29    6.60
   5  -3   0  542.55   22.50
  -5   3   0  564.14   22.70
   4  -3   0 6575.34  241.88
  -4   3   0 6498.15  242.18
  -4   3   0 6469.15  241.48
   3  -3   0 2261.07   84.49
  -3   3   0 2228.98   84.79
  -3   3   0 2287.87   85.09
  -2   3   0 1012.40   39.90
  -2   3   0 1057.09   39.20
  -2   3   0 1043.40   40.30
  -1   3   0  238.68   10.40
   0   3   0  217.48    9.70
  -1  -3   0   45.40    3.40
  -2  -3   0  373.46   15.40
  -3  -3   0  491.25   20.10
  -4  -3   0  428.86   18.00
   4   3   0  410.56   18.00
  -5  -3   0  205.78   10.60
   5   3   0  156.08   14.30
   5   3   0  186.48   10.70
  -6  -3   0 1722.43   64.39
   6   3   0 1562.84   66.19
   6   3   0 1678.03   64.79
   9  -4   0   47.40    6.90
  -9   4   0   66.99    8.10
   8  -4   0   35.60    5.40
  -8   4   0   38.20    5.80
   7  -4   0  441.66   19.80
  -7   4   0  458.05   20.10
   6  -4   0  130.39    8.10
  -6   4   0  157.68    9.00
   5  -4   0 2368.96   87.19
  -5   4   0 2338.87   87.79
  -5   4   0 2221.88   86.79
  -4   4   0 1118.89   43.70
  -3   4   0  152.78    8.20
  -1   4   0  519.35   21.30
   0   4   0   17.80    3.20
  -2  -4   0  275.87   12.50
  -3  -4   0  462.85   19.70
  -4  -4   0  227.78   11.80
   4   4   0  216.48   11.50
  -5  -4   0   29.20    5.70
   5   4   0   33.60    9.90
   5   4   0   32.20    5.60
  -6  -4   0   -2.00    6.00
   6   4   0   -0.10    6.20
  10  -5   0   23.70    6.80
 -10   5   0   14.90    8.00
   9  -5   0  114.99   10.20
  -9   5   0  140.99   12.20
   8  -5   0   83.09    7.80
  -8   5   0   94.49    9.30
   7  -5   0   72.19    6.80
  -7   5   0   78.69    8.80
   6  -5   0  653.23   25.80
  -6   5   0  603.64   26.50
  -5   5   0  364.06   16.60
  -4   5   0  716.43   29.50
  -3   5   0  853.61   34.40
  -2   5   0  137.19    8.40
  -1   5   0  145.79    9.00
   0   5   0  222.28   11.60
   1   5   0  242.08   12.60
   2   5   0  160.58   10.80
  -4  -5   0  373.96   18.20
   4   5   0  384.06   17.80
  -5  -5   0   47.20    7.70
   5   5   0   42.00    6.90
   5   5   0   40.10   13.00
  10  -6   0   56.19    8.30
 -10   6   0   69.89   10.60
   9  -6   0   23.70    5.60
  -9   6   0   19.90    7.50
  -8   6   0    3.50    5.90
  -7   6   0 1854.91   72.39
  -6   6   0 1076.09   43.60
  -4   6   0  271.77   14.20
  -3   6   0  226.88   12.60
  -2   6   0   28.40    5.30
  -1   6   0   44.80    6.30
   0   6   0  434.96   20.30
   1   6   0    3.10    5.60
   2   6   0   57.19    8.50
   3   6   0   -4.40    7.50
   4   6   0   11.20    9.60
   4   6   0   14.60    5.80
  -9   7   0   16.40    8.10
  -8   7   0  306.77   18.00
  -6   7   0   84.19    9.70
  -5   7   0   24.00    5.80
  -4   7   0  101.29   10.10
  -3   7   0   29.70    6.50
  -2   7   0    1.30    5.20
  -1   7   0   41.90    8.00
   0   7   0   15.30    6.30
   1   7   0  290.67   17.60
   2   7   0   23.90    9.40
  -9   8   0  127.29   13.40
  -8   8   0   21.60    7.60
  -7   8   0    4.20    6.70
  -6   8   0   13.30    6.20
  -5   8   0   23.90    7.10
  -4   8   0   24.10    6.70
  -3   8   0   58.99    8.80
  -2   8   0  259.07   16.80
  -1   8   0  227.68   16.80
   0   8   0   27.00    9.90
   1   8   0   30.70   11.00
  -8   9   0   65.59   11.30
  -7   9   0   12.60    8.50
  -6   9   0   61.79   10.00
  -5   9   0    0.10    7.70
  -4   9   0    4.60    8.20
  -3   9   0   10.70    9.20
  -2   9   0   85.69   12.40
  -1   9   0  768.12   37.00
  -6  10   0   82.99   13.70
  -5  10   0   73.89   13.30
  -4  10   0   22.30   11.60
  -3  10   0  114.79   15.80
  -3  10  -1   78.99   14.70
  -4  10  -1   29.60   12.10
  -5  10  -1  102.29   14.00
  -6  10  -1   82.79   13.10
  -1   9  -1    6.80   10.50
  -2   9  -1    1.80    9.70
  -3   9  -1   45.70   10.60
  -4   9  -1  140.29   15.80
  -5   9  -1    1.10    7.30
  -6   9  -1   10.40    7.80
  -7   9  -1    8.20    8.70
  -8   9  -1    7.40    9.40
   1   8  -1   78.89   12.60
   0   8  -1   76.39   11.10
  -1   8  -1   27.30    8.00
  -2   8  -1  201.28   15.20
  -3   8  -1  249.48   15.80
  -4   8  -1  378.16   20.30
  -5   8  -1   15.60    6.40
  -6   8  -1  123.89   11.80
  -7   8  -1  675.83   30.70
  -8   8  -1   10.10    7.60
  -9   8  -1   -2.90    9.40
   3   7  -1  303.17   22.50
   2   7  -1    1.60    8.90
   1   7  -1  208.58   15.10
   0   7  -1    2.50    6.50
  -1   7  -1  183.18   13.00
  -2   7  -1  159.38   11.90
  -3   7  -1  182.68   12.10
  -4   7  -1   73.79    8.00
  -6   7  -1   94.89    9.40
  -7   7  -1  139.29   11.50
  -8   7  -1  649.54   29.80
  -9   7  -1  523.55   26.40
   4   6  -1  114.09   11.00
   4   6  -1  128.99   13.30
   3   6  -1   19.80    8.00
   2   6  -1   -1.20    6.50
   1   6  -1  217.28   13.20
   0   6  -1  521.15   23.30
  -1   6  -1  550.84   24.10
  -2   6  -1  453.25   20.40
  -3   6  -1  313.27   15.30
  -5   6  -1  712.43   30.00
  -6   6  -1   29.30    5.30
  -7   6  -1  436.36   20.80
  -8   6  -1  206.78   13.80
  -9   6  -1   20.60    7.50
   5   5  -1  272.27   16.30
   5   5  -1  275.37   23.20
   4   5  -1   17.90    4.90
   2   5  -1    7.20    4.60
   1   5  -1  360.26   16.70
   0   5  -1    5.00    3.30
  -1   5  -1   11.40    3.30
  -3   5  -1  598.34   25.00
  -4   5  -1  470.65   20.40
  -5   5  -1   19.50    3.70
  -6   5  -1 2069.39   79.59
  -7   5  -1 1087.59   43.40
   7  -5   1 1060.29   42.60
  -8   5  -1   70.59    8.20
   8  -5   1   62.89    7.40
  -9   5  -1   17.10    6.90
   9  -5   1   23.30    5.60
 -10   5  -1  134.79   14.40
  10  -5   1  112.09   12.20
   6   4  -1  103.49   11.50
   6   4  -1   93.39   13.70
  -6  -4   1  116.19   10.60
   5   4  -1   13.80    8.90
   5   4  -1   -2.90    4.80
  -5  -4   1   11.80    4.80
   4   4  -1   58.29    6.60
  -4  -4   1   55.69    6.50
  -3  -4   1  542.95   22.50
  -2  -4   1  857.01   33.70
   0   4  -1   85.99    5.80
  -1   4  -1   53.69    4.60
  -2   4  -1  894.11   35.10
  -3   4  -1  379.16   16.30
  -4   4  -1 1900.81   72.49
  -5   4  -1   27.50    4.10
  -5   4  -1   28.50    4.30
  -6   4  -1  251.87   12.60
   6  -4   1  249.48   12.00
  -7   4  -1   -3.60    4.00
   7  -4   1   -2.00    3.00
  -8   4  -1    2.40    4.60
   8  -4   1    5.10    4.00
  -9   4  -1   67.09    8.10
   9  -4   1   69.19    7.90
   6   3  -1   -4.90    7.30
   6   3  -1    8.60    4.80
  -6  -3   1    8.60    4.80
   5   3  -1  122.59   11.80
   5   3  -1   84.59    8.10
  -5  -3   1   91.99    7.60
   4   3  -1    6.70    2.90
  -4  -3   1    7.00    2.90
  -3  -3   1  214.28    9.90
  -2  -3   1  111.59    5.80
   0   3  -1 1575.54   59.59
  -1   3  -1  421.06   17.10
   1  -3   1  422.26   17.00
  -2   3  -1 2104.69   79.19
  -3   3  -1   10.40    2.30
  -4   3  -1 1208.48   45.40
  -4   3  -1 1155.98   46.10
   4  -3   1 1229.58   45.80
  -5   3  -1   24.80    3.70
   5  -3   1   26.10    3.40
  -6   3  -1   -3.20    2.90
   6  -3   1   -3.00    2.40
  -7   3  -1   92.29    7.80
   7  -3   1   88.19    7.40
  -8   3  -1   64.19    7.90
   8  -3   1   64.39    7.90
  -9   3  -1   58.19    7.70
   9  -3   1   57.99    7.50
   7   2  -1   68.49    8.40
  -7  -2   1   82.49    8.50
   6   2  -1    4.60    5.90
   6   2  -1    6.90    4.30
  -6  -2   1    1.50    3.80
   5   2  -1 1118.59   44.00
   5   2  -1 1100.19   45.20
  -5  -2   1 1126.89   43.10
   4   2  -1 1133.79   44.10
   4   2  -1 1115.29   45.50
  -4  -2   1 1159.88   43.50
  -3  -2   1  610.14   23.80
  -2  -2   1  467.75   18.30
   1   2  -1 7281.27  269.27
  -1   2  -1 1587.34   62.59
   1  -2   1 1752.52   62.59
  -2   2  -1 4916.41  182.08
  -2   2  -1 4719.73  182.38
   2  -2   1 5107.49  182.48
  -3   2  -1  408.36   16.50
   3  -2   1  405.36   16.20
  -4   2  -1  110.09    6.10
  -5   2  -1  885.71   35.20
   5  -2   1  915.21   35.30
  -6   2  -1   29.70    4.10
   6  -2   1   26.60    4.00
  -7   2  -1  219.58   11.90
   7  -2   1  234.38   12.20
  -8   2  -1   31.20    5.80
   8  -2   1   24.20    5.30
  -9   2  -1  171.58   12.70
   9  -2   1  176.08   13.10
   8   1  -1  134.59   12.60
  -8  -1   1  141.59   11.00
   7   1  -1   23.60    5.80
  -7  -1   1   19.10    4.60
   6   1  -1    0.40    3.40
  -6  -1   1    4.20    3.30
   5   1  -1  668.53   27.90
   5   1  -1  680.33   28.10
  -5  -1   1  711.53   27.30
   4   1  -1    9.30    3.40
   4   1  -1    5.80    2.20
  -4  -1   1    7.40    2.10
   3   1  -1  904.51   35.20
   3   1  -1  887.21   34.50
  -3  -1   1  899.01   34.10
   2   1  -1 2623.84   97.49
  -2  -1   1 2621.84   97.39
   0   1  -1  256.17   10.00
   0  -1   1  259.87    9.90
  -1   1  -1  790.52   31.20
  -1   1  -1  843.62   31.00
   1  -1   1  854.81   31.20
  -3   1  -1  153.48    7.30
   3  -1   1  167.78    7.20
  -4   1  -1  224.48    9.90
   4  -1   1  221.28   10.00
  -5   1  -1  579.04   23.20
   5  -1   1  568.84   23.40
  -6   1  -1   42.90    5.30
   6  -1   1   40.60    4.60
  -7   1  -1   87.29    7.60
   7  -1   1   88.49    7.80
  -8   1  -1  140.29   10.40
   8  -1   1  134.49   10.60
  -9   1  -1  174.38   13.10
   9  -1   1  148.79   13.10
   8   0  -1   85.39   10.20
  -8   0   1   59.69    7.00
   7   0  -1  529.85   23.60
  -7   0   1  537.85   22.50
   6   0  -1  385.96   17.90
  -6   0   1  404.36   16.80
   5   0  -1  460.75   19.80
  -5   0   1  478.85   19.10
   4   0  -1  674.43   28.90
  -4   0   1  801.22   28.60
   3   0  -1  671.33   24.60
   3   0  -1  641.54   24.50
   3   0  -1  623.44   24.70
  -3   0   1  597.54   24.30
   2   0  -1 1264.57   47.50
   1   0  -1  234.38    9.30
   1   0  -1  237.68    8.90
  -1   0   1  231.78    9.20
  -1   0   1  227.78    8.80
  -1   0  -1 1584.24   57.89
  -1   0  -1 1621.74   57.79
  -1   0  -1 1488.35   57.79
   1   0   1 1681.73   57.89
   1   0   1 1508.45   57.79
   1   0   1 1460.75   57.79
  -2   0  -1 1729.43   62.99
  -2   0  -1 1690.23   63.09
   2   0   1 1634.24   62.99
   2   0   1 1700.13   63.09
  -3   0  -1 2326.87   87.29
   3   0   1 2344.57   87.39
  -4   0  -1  297.87   12.70
   4   0   1  306.47   12.90
  -5   0  -1  360.26   16.30
   5   0   1  412.46   16.70
  -6   0  -1  507.05   20.80
   6   0   1  475.35   21.10
  -7   0  -1   96.29    8.00
   7   0   1   72.09    8.40
  -8   0  -1   10.30    5.40
   8   0   1    1.60    5.10
   9  -1  -1   38.60    7.90
  -9   1   1   57.69    7.40
   8  -1  -1   44.50    6.70
  -8   1   1   45.20    5.80
   7  -1  -1    4.70    4.00
  -7   1   1   14.40    3.80
   6  -1  -1  246.48   11.80
  -6   1   1  218.98   11.00
   4  -1  -1 1379.56   53.29
  -4   1   1 1418.66   52.89
   3  -1  -1 3116.79  110.59
   3  -1  -1 2804.92  110.59
  -3   1   1 2978.00  110.39
   2  -1  -1 3622.04  135.89
   2  -1  -1 3591.64  135.99
   2  -1  -1 3718.83  136.09
  -2   1   1 3828.12  135.99
  -2   1   1 3752.52  135.89
  -2   1   1 3485.05  135.99
   1  -1  -1 5769.32  213.38
  -1  -1  -1   15.70    1.50
   1   1   1   17.30    1.60
   1   1   1   13.80    2.10
  -2  -1  -1   18.00    2.00
   2   1   1   19.20    2.40
   2   1   1   16.70    2.00
  -3  -1  -1  132.09    6.50
   3   1   1  146.09    7.20
   3   1   1  142.59    6.60
  -4  -1  -1   34.30    3.90
   4   1   1   26.40    3.20
   4   1   1   35.40    3.90
  -5  -1  -1  318.27   13.90
   5   1   1  301.17   14.00
  -6  -1  -1 2004.90   74.89
   6   1   1 1916.61   75.19
  -7  -1  -1  258.97   14.00
   7   1   1  285.47   14.90
  -8  -1  -1   49.90    7.20
   8   1   1   26.20    7.40
   9  -2  -1  431.66   21.50
  -9   2   1  426.56   20.20
   8  -2  -1    8.80    4.60
  -8   2   1    4.60    4.40
   7  -2  -1  269.27   13.80
  -7   2   1  272.27   13.20
   6  -2  -1  261.17   13.00
  -6   2   1  283.37   12.60
   5  -2  -1  235.08   11.10
  -5   2   1  234.88   10.80
   4  -2  -1  656.43   25.30
  -4   2   1  621.84   25.10
   3  -2  -1 1901.81   70.79
   3  -2  -1 1880.01   70.99
   3  -2  -1 1929.81   70.69
  -3   2   1 1894.51   70.59
  -3   2   1 1830.72   70.89
   2  -2  -1 6316.87  232.98
   2  -2  -1 6061.89  232.48
   2  -2  -1 6618.04  232.88
  -2   2   1 6311.07  232.88
  -2   2   1 6099.49  232.48
  -2   2   1 6287.77  232.88
   1  -2  -1  670.33   26.10
   1  -2  -1  673.93   26.70
  -1   2   1  714.43   26.60
  -1   2   1  712.83   25.60
  -1   2   1  639.14   26.10
   0  -2  -1 2039.00   77.79
   0   2   1 2110.09   78.59
   0   2   1 2109.29   77.69
  -1  -2  -1 1244.78   46.20
   1   2   1 1203.08   47.10
  -2  -2  -1  476.05   18.80
  -3  -2  -1  938.11   35.60
   3   2   1  911.91   35.60
  -4  -2  -1  589.64   23.50
   4   2   1  581.54   23.60
  -5  -2  -1   61.39    6.50
   5   2   1   71.69    6.60
  -6  -2  -1   11.60    4.30
   6   2   1   10.20    4.70
  -7  -2  -1   26.60    6.00
   7   2   1   28.00    6.00
   9  -3  -1   35.60    6.50
  -9   3   1   38.50    6.20
   8  -3  -1  381.56   18.50
  -8   3   1  398.76   18.10
   7  -3  -1  831.32   35.80
  -7   3   1  946.21   35.80
   6  -3  -1   24.30    3.70
  -6   3   1   21.80    4.10
   5  -3  -1  611.44   24.60
  -5   3   1  605.74   24.70
   4  -3  -1  637.24   25.50
  -4   3   1  662.33   25.40
  -4   3   1  641.74   25.80
   3  -3  -1 2847.02  105.39
  -3   3   1 2856.41  105.99
  -3   3   1 2776.32  105.79
  -2   3   1  266.07   10.80
  -2   3   1  269.27   11.60
  -2   3   1  267.87   11.90
  -1   3   1  694.33   27.20
   0   3   1    5.10    1.80
  -1  -3  -1   85.39    4.90
  -2  -3  -1    1.10    1.90
  -3  -3  -1  202.88    9.50
   3   3   1  192.48    9.20
  -4  -3  -1  531.35   20.70
   4   3   1  443.46   20.20
  -5  -3  -1  714.73   29.80
   5   3   1  740.93   29.90
  -6  -3  -1 1591.64   59.69
   6   3   1 1504.15   59.79
   6   3   1 1471.15   61.29
  10  -4  -1   18.80    7.00
 -10   4   1    7.00    7.70
   9  -4  -1    3.20    5.00
  -9   4   1   -1.20    5.50
   8  -4  -1  250.27   14.00
  -8   4   1  286.77   14.40
   7  -4  -1 1295.67   50.99
  -7   4   1 1300.87   51.09
   6  -4  -1  314.77   14.50
  -6   4   1  324.47   14.90
   5  -4  -1  304.37   13.10
  -5   4   1  282.37   13.60
   4  -4  -1 2998.60  111.59
  -4   4   1 2967.50  112.39
  -3   4   1  496.05   20.60
  -2   4   1 2491.75   94.09
  -1   4   1  409.56   17.30
   0   4   1  318.47   14.20
  -1  -4  -1   27.20    3.50
  -2  -4  -1   57.09    5.00
  -3  -4  -1  140.09    8.80
   3   4   1  164.08    8.40
  -4  -4  -1    1.70    3.90
   4   4   1    1.40    3.50
  -5  -4  -1  607.04   26.50
   5   4   1  613.54   26.10
  -6  -4  -1  138.19   12.20
  10  -5  -1   38.90    7.70
 -10   5   1   38.50    8.50
   9  -5  -1  224.58   13.70
  -9   5   1  229.58   14.70
   8  -5  -1   19.30    4.50
  -8   5   1   35.70    5.80
   7  -5  -1   10.10    3.70
  -7   5   1    6.60    4.60
   6  -5  -1    4.30    2.90
  -6   5   1    1.40    3.80
  -5   5   1  128.99    8.30
  -4   5   1  138.99    8.90
  -3   5   1  305.77   14.60
  -2   5   1    9.90    3.40
  -1   5   1  237.88   12.10
   0   5   1  111.69    7.90
   1   5   1   59.99    6.30
  -3  -5  -1  188.08   11.10
   3   5   1  182.18    9.80
  -4  -5  -1   95.69    9.90
   4   5   1   85.49    8.90
  -5  -5  -1   -2.50    6.40
   5   5   1    0.30    5.60
  10  -6  -1  171.38   13.70
 -10   6   1  198.08   15.90
   9  -6  -1    9.10    5.40
  -9   6   1    3.70    6.80
   8  -6  -1    2.50    3.80
  -8   6   1   -3.50    5.50
  -7   6   1   23.20    5.70
  -6   6   1  110.99    9.40
  -5   6   1   41.50    5.90
  -4   6   1  988.20   40.10
  -3   6   1   12.80    4.50
  -2   6   1  359.46   17.30
  -1   6   1  679.43   29.00
   0   6   1    2.70    4.60
   1   6   1  432.66   20.90
   2   6   1  651.13   29.20
   3   6   1  737.93   30.20
   3   6   1  739.13   33.50
   4   6   1    5.20   10.50
   4   6   1    5.60    5.70
  -9   7   1   25.30    8.60
  -8   7   1   20.30    6.80
  -7   7   1    6.00    6.00
  -6   7   1  192.58   12.80
  -5   7   1  115.49   10.70
  -4   7   1   -0.60    4.50
  -3   7   1   18.80    5.70
  -2   7   1  444.96   21.60
  -1   7   1  761.62   33.10
   0   7   1  136.09   12.10
   1   7   1   17.90    8.00
   2   7   1   35.90   10.10
  -9   8   1  102.29   12.50
  -8   8   1   28.10    8.70
  -7   8   1   37.70    8.80
  -6   8   1  740.63   33.20
  -5   8   1  145.29   13.10
  -4   8   1   81.79   10.20
  -3   8   1  415.66   22.00
  -2   8   1   21.50    7.30
  -1   8   1   -1.60    8.00
   0   8   1   62.59   10.60
   1   8   1  140.69   17.80
  -8   9   1   63.29   11.20
  -7   9   1   39.00    9.70
  -6   9   1   14.80    8.20
  -5   9   1  119.59   15.20
  -4   9   1  434.16   24.40
  -3   9   1    6.00    8.80
  -2   9   1   14.90    9.50
  -1   9   1  174.28   19.70
  -6  10   1   12.90   11.70
  -5  10   1  111.89   15.40
  -4  10   1   87.59   14.00
  -3  10  -2   38.70   12.90
  -4  10  -2   21.30   11.70
  -5  10  -2  114.59   14.30
  -6  10  -2   19.60   10.20
  -1   9  -2    1.10   10.50
  -2   9  -2   23.70    9.90
  -3   9  -2  378.76   22.40
  -4   9  -2  316.87   20.00
  -5   9  -2   20.80    8.70
  -6   9  -2   46.10    9.40
  -7   9  -2   -3.60    7.70
  -8   9  -2   29.60   10.10
   1   8  -2    5.60   10.40
   0   8  -2   46.50    9.60
  -1   8  -2   53.19    9.10
  -2   8  -2   -0.40    6.60
  -3   8  -2  380.26   20.20
  -4   8  -2   32.00    7.20
  -5   8  -2  167.98   13.20
  -6   8  -2  254.17   15.80
  -7   8  -2  264.97   16.90
  -8   8  -2   -2.80    7.30
  -9   8  -2   68.29   11.50
   3   7  -2   33.60   11.20
   2   7  -2   27.10    8.50
   1   7  -2   56.79    8.60
   0   7  -2    9.30    6.50
  -1   7  -2  635.14   28.10
  -2   7  -2  642.24   28.30
  -3   7  -2  462.05   21.70
  -4   7  -2  162.48   11.80
  -5   7  -2   76.09    8.50
  -6   7  -2  240.28   14.10
  -7   7  -2  252.87   15.10
  -8   7  -2   39.60    8.30
  -8   7  -2   55.89    9.00
  -9   7  -2   27.70    9.20
   4   6  -2  102.89   10.80
   4   6  -2  140.29   16.90
   4   6  -2   97.99   16.20
   3   6  -2    6.40    8.10
   2   6  -2   97.49   11.30
   1   6  -2  124.29   10.20
   0   6  -2  347.27   17.20
  -1   6  -2  224.08   12.30
  -2   6  -2  252.37   13.30
  -3   6  -2  112.39    8.70
  -4   6  -2   36.40    5.30
  -6   6  -2   31.30    5.60
  -7   6  -2   36.70    6.40
  -8   6  -2  284.87   16.60
  -9   6  -2   15.60    7.50
   5   5  -2  131.19   19.90
   5   5  -2   80.89    9.20
   4   5  -2   73.79    8.20
   4   5  -2   58.79   11.20
   4   5  -2   76.09    8.80
   3   5  -2  135.69   11.20
   2   5  -2   14.40    4.60
   1   5  -2 1201.88   47.30
   0   5  -2 1752.42   67.29
  -1   5  -2  126.29    7.80
  -2   5  -2  435.66   18.80
  -3   5  -2  254.17   12.50
  -4   5  -2  267.57   13.00
  -5   5  -2  383.76   17.40
  -6   5  -2  519.95   23.00
  -7   5  -2   55.99    6.90
  -8   5  -2    8.60    6.10
   8  -5   2   15.90    4.50
  -9   5  -2  264.97   16.60
   9  -5   2  271.67   15.30
   6   4  -2   18.10    6.50
   6   4  -2   29.00   10.70
  -6  -4   2   10.60    5.80
   5   4  -2   32.80   10.10
   5   4  -2   24.40    5.50
  -5  -4   2   32.50    5.30
   4   4  -2  194.58   15.70
   4   4  -2  195.38   11.00
  -4  -4   2  188.78   10.40
  -3  -4   2   60.19    5.40
   2   4  -2  212.08   10.80
   1   4  -2 2096.79   79.39
   0   4  -2 7447.25  276.67
  -1   4  -2  651.33   26.00
  -2   4  -2  718.83   28.60
  -3   4  -2    0.30    2.20
  -4   4  -2   48.00    4.70
  -5   4  -2 1091.19   42.60
  -5   4  -2 1071.79   41.60
  -6   4  -2  140.79    9.40
   6  -4   2  160.98    8.60
  -7   4  -2  177.58   11.90
   7  -4   2  212.58   10.80
  -8   4  -2   -3.40    4.80
   8  -4   2   -2.30    3.80
  -9   4  -2   88.29    9.10
   9  -4   2   79.69    9.40
   6   3  -2   74.49   10.40
   6   3  -2   90.69    9.30
  -6  -3   2   86.29    7.90
   5   3  -2  440.56   22.50
   5   3  -2  441.36   19.70
  -5  -3   2  419.16   18.60
   4   3  -2   15.40    6.30
   4   3  -2   14.50    3.40
  -4  -3   2   13.20    2.90
  -3  -3   2 3490.75  130.29
  -2  -3   2  913.31   35.10
   1   3  -2 2268.17   85.19
   0   3  -2  189.18    8.20
  -1   3  -2  763.12   28.60
   1  -3   2  707.43   28.50
  -2   3  -2 1796.52   67.89
  -3   3  -2  966.80   37.50
  -4   3  -2 5519.05  200.88
   4  -3   2 5260.67  200.28
  -5   3  -2 1028.40   39.60
   5  -3   2  986.30   39.10
  -6   3  -2  212.48   11.00
   6  -3   2  201.38   10.40
  -7   3  -2  561.84   24.10
   7  -3   2  563.34   23.90
  -8   3  -2   32.50    5.70
   8  -3   2   22.70    4.70
  -9   3  -2   46.20    7.70
   9  -3   2   37.10    6.60
   7   2  -2   18.40    6.00
  -7  -2   2   26.00    5.20
   6   2  -2  156.58   12.90
   6   2  -2  173.88   10.70
  -6  -2   2  152.78    9.50
   5   2  -2  150.28   11.10
   5   2  -2  119.89    8.80
  -5  -2   2  147.79    7.70
   4   2  -2   55.89    4.80
  -4  -2   2   56.09    4.50
  -3  -2   2  212.28    9.20
   2   2  -2  813.72   30.70
  -2  -2   2  802.42   30.70
   1   2  -2 5219.58  193.18
  -1   2  -2 1607.14   60.69
   1  -2   2 1631.14   60.69
  -2   2  -2   85.29    4.20
  -2   2  -2   74.19    4.30
   2  -2   2   86.79    4.80
  -3   2  -2 3563.04  132.39
   3  -2   2 3533.45  131.99
  -4   2  -2   12.90    2.70
   4  -2   2   18.90    2.40
  -5   2  -2  582.24   23.60
   5  -2   2  571.94   23.40
  -6   2  -2  220.08   11.10
   6  -2   2  212.58   10.80
  -7   2  -2    3.20    3.70
   7  -2   2    5.40    3.80
  -8   2  -2   94.79    9.00
   8  -2   2   86.59    8.90
  -9   2  -2   37.70    7.50
   9  -2   2   28.00    6.50
   8   1  -2   37.40    7.30
  -8  -1   2   27.30    5.80
   7   1  -2   56.99    7.10
  -7  -1   2   70.19    7.20
   6   1  -2  145.19   10.00
   6   1  -2  122.49    9.00
  -6  -1   2  114.49    7.50
   5   1  -2  582.84   24.50
   5   1  -2  598.54   25.10
  -5  -1   2  587.54   23.50
   4   1  -2  482.85   19.80
   4   1  -2  508.65   20.50
  -4  -1   2  444.16   18.90
   3   1  -2  327.17   13.50
   3   1  -2  301.37   14.30
   3   1  -2  319.87   13.10
  -3  -1   2  336.87   12.90
   2   1  -2  534.35   20.50
   2   1  -2  514.65   19.10
  -2  -1   2  454.05   19.00
   1   1  -2 5727.93  212.88
   0   1  -2 1585.74   56.99
   0   1  -2 1453.15   57.79
   0  -1   2 1505.95   56.99
   0  -1   2 1592.94   57.89
  -1   1  -2 2576.94   93.29
  -1   1  -2 2393.26   92.89
   1  -1   2 2519.15   93.29
   1  -1   2 2517.55   92.99
  -2   1  -2 6760.22  246.58
  -2   1  -2 6520.65  246.88
   2  -1   2 6724.03  246.98
  -3   1  -2  124.49    6.00
   3  -1   2  118.39    5.70
  -4   1  -2  991.00   38.30
   4  -1   2  994.50   38.20
  -5   1  -2    1.40    2.60
   5  -1   2   -0.20    2.00
  -6   1  -2  960.30   37.60
   6  -1   2  946.51   37.80
  -7   1  -2  163.98    9.90
   7  -1   2  153.58    9.90
  -8   1  -2  204.28   12.80
   8  -1   2  207.48   12.70
  -9   1  -2    9.80    6.50
   9  -1   2   -5.40    6.20
   8   0  -2   19.30    5.80
  -8   0   2    5.80    5.00
   7   0  -2 1259.77   49.99
  -7   0   2 1240.98   48.40
   6   0  -2  504.95   20.10
  -6   0   2  395.86   18.30
   5   0  -2   96.49    6.20
  -5   0   2   76.19    5.30
   4   0  -2   53.89    4.40
   3   0  -2  151.58    6.80
   3   0  -2  145.79    7.00
   3   0  -2  151.58    7.30
  -3   0   2  150.48    6.50
   2   0  -2  490.45   18.10
   2   0  -2  440.16   18.40
   2   0  -2  503.55   18.80
  -2   0   2  457.25   18.00
  -2   0   2  479.65   18.80
   1   0  -2    5.50    1.40
  -1   0   2    5.10    1.50
   0   0  -2 1415.26   53.69
   0   0  -2 1452.75   54.29
   0   0   2 1450.25   53.79
   0   0   2 1486.25   54.29
  -1   0  -2 2331.77   85.69
  -1   0  -2 2304.67   85.39
  -1   0  -2 2293.07   85.59
   1   0   2 2129.09   85.29
   1   0   2 2409.86   85.59
   1   0   2 2358.26   85.79
  -2   0  -2 1477.55   53.99
  -2   0  -2 1429.46   54.19
  -2   0  -2 1458.45   53.99
   2   0   2 1419.46   53.99
   2   0   2 1406.16   53.99
   2   0   2 1472.45   54.29
  -3   0  -2 2279.57   83.69
   3   0   2 2190.58   83.59
  -4   0  -2  265.57   11.50
   4   0   2  258.87   11.40
  -5   0  -2  137.59    7.70
   5   0   2  138.99    8.00
  -6   0  -2   17.80    3.80
   6   0   2   25.40    4.30
  -7   0  -2   54.69    6.10
   7   0   2   49.00    6.10
  -8   0  -2  325.77   17.10
   8   0   2  318.17   17.10
   9  -1  -2   22.10    6.90
  -9   1   2   25.20    5.90
   8  -1  -2  211.28   13.30
  -8   1   2  196.18   11.70
   7  -1  -2 1105.79   43.40
  -7   1   2 1053.89   42.00
   6  -1  -2  201.78   10.50
  -6   1   2  176.88    9.50
   5  -1  -2  865.31   34.70
  -5   1   2  892.21   34.00
   4  -1  -2 2463.65   93.09
  -4   1   2 2371.36   92.59
  -4   1   2 2598.84   92.79
   3  -1  -2 1696.53   62.79
   3  -1  -2 1676.73   62.79
   3  -1  -2 1642.14   62.89
  -3   1   2 1722.63   62.79
  -3   1   2 1620.94   62.59
   2  -1  -2 1399.76   53.29
   2  -1  -2 1451.45   52.99
   2  -1  -2 1382.36   53.09
  -2   1   2 1443.76   53.29
  -2   1   2 1422.56   52.99
  -2   1   2 1402.66   52.99
   1  -1  -2 5087.19  186.98
  -1   1   2 5072.69  186.98
  -1   1   2 5001.40  187.38
  -1  -1  -2   26.60    2.50
  -1  -1  -2   29.00    2.00
   1   1   2   29.20    1.60
   1   1   2   29.70    2.20
   1   1   2   27.60    2.70
  -2  -1  -2 2147.29   79.79
   2   1   2 2129.19   80.19
   2   1   2 2133.69   79.59
  -3  -1  -2   45.70    3.70
   3   1   2   45.50    4.60
   3   1   2   48.70    3.40
  -4  -1  -2  262.37   11.40
   4   1   2  240.78   11.20
  -5  -1  -2 2043.50   73.39
   5   1   2 1811.52   73.19
  -6  -1  -2 2714.23  105.49
   6   1   2 2868.71  105.79
  -7  -1  -2    9.00    5.00
   7   1   2    7.50    5.10
  -8  -1  -2  150.28   12.80
   8   1   2  148.79   13.00
   9  -2  -2  269.67   16.20
  -9   2   2  262.67   14.50
   8  -2  -2  769.32   33.10
  -8   2   2  794.72   31.90
   7  -2  -2 1772.22   67.39
  -7   2   2 1695.33   66.19
   6  -2  -2  849.72   34.90
  -6   2   2  891.31   34.20
   5  -2  -2   24.60    3.70
  -5   2   2   26.30    3.20
   4  -2  -2  963.10   37.80
   4  -2  -2 1000.60   37.40
  -4   2   2  990.10   37.50
  -4   2   2  962.70   37.60
   3  -2  -2   66.59    4.10
   3  -2  -2   60.59    4.40
   3  -2  -2   61.19    3.80
  -3   2   2   68.29    4.10
  -3   2   2   67.39    4.40
   2  -2  -2  605.54   23.50
   2  -2  -2  611.74   23.80
   2  -2  -2  597.04   23.20
  -2   2   2  603.44   23.10
  -2   2   2  611.34   23.70
  -2   2   2  608.14   23.50
   1  -2  -2  912.81   37.20
  -1   2   2  977.80   36.80
  -1   2   2 1008.10   37.20
  -1   2   2  973.30   36.10
   0  -2  -2 2223.18   85.39
   0  -2  -2 2244.48   84.49
   0   2   2 2282.67   85.19
   0   2   2 2315.07   84.49
  -1  -2  -2  425.56   16.70
   1   2   2  420.26   17.60
  -2  -2  -2  317.67   12.90
   2   2   2  305.57   12.50
  -3  -2  -2   47.30    4.20
   3   2   2   43.60    3.50
  -4  -2  -2   38.90    4.80
   4   2   2   34.80    4.20
  -5  -2  -2  950.20   37.60
   5   2   2  946.31   37.50
  -6  -2  -2  216.98   12.30
   6   2   2  229.18   12.50
  -7  -2  -2   27.80    6.10
   7   2   2   31.80    6.50
   9  -3  -2  183.58   12.80
  -9   3   2  183.78   11.90
   8  -3  -2  208.58   12.00
  -8   3   2  190.68   11.40
   7  -3  -2    5.60    3.40
   6  -3  -2  305.47   14.30
  -6   3   2  313.97   14.30
   5  -3  -2  199.68    9.80
   5  -3  -2  194.48    9.30
  -5   3   2  211.18    9.90
  -5   3   2  189.48    9.70
   4  -3  -2   41.50    3.60
   4  -3  -2   44.40    4.20
  -4   3   2   38.20    4.80
  -4   3   2   44.40    4.20
   3  -3  -2 2057.79   76.29
   3  -3  -2 2016.50   75.39
  -3   3   2 2036.30   75.99
  -3   3   2 1937.11   75.89
   2  -3  -2 1270.07   48.50
  -2   3   2 1223.48   47.00
  -2   3   2 1263.77   47.80
   1  -3  -2  234.48   11.20
  -1   3   2  234.18   10.40
   0  -3  -2  981.60   37.60
  -1  -3  -2  150.08    7.30
  -2  -3  -2   10.30    2.60
  -3  -3  -2  779.12   31.30
   3   3   2  804.72   30.80
  -4  -3  -2  156.48    9.40
   4   3   2  178.68    9.10
  -5  -3  -2    9.90    4.20
   5   3   2    8.70    4.00
  -6  -3  -2   44.10    7.20
   6   3   2   45.40    6.30
  10  -4  -2  260.37   16.40
 -10   4   2  230.58   15.80
   9  -4  -2   36.70    6.90
  -9   4   2   45.70    6.80
   8  -4  -2  150.38   10.30
  -8   4   2  162.28   10.80
   7  -4  -2  194.88   11.00
  -7   4   2  196.58   11.30
   6  -4  -2   24.30    3.90
  -6   4   2   19.60    3.90
  -6   4   2    7.50    4.80
   5  -4  -2    5.40    2.70
  -5   4   2   -0.50    2.50
   4  -4  -2  176.58    9.70
   4  -4  -2  175.28    8.40
  -4   4   2  188.68    9.60
  -3   4   2   18.10    3.40
  -2   4   2 1986.20   75.09
  -2   4   2 2034.00   76.39
  -1   4   2 1362.56   52.49
   0   4   2  159.38    8.50
  -1  -4  -2 1057.79   41.10
  -2  -4  -2 1944.21   73.99
  -3  -4  -2  671.13   28.10
   3   4   2  705.83   27.40
  -4  -4  -2   43.70    5.60
   4   4   2   48.20    5.60
  -5  -4  -2    7.80    5.50
   5   4   2   17.40    5.10
  10  -5  -2  266.07   17.00
 -10   5   2  284.77   17.60
   9  -5  -2   11.10    5.10
  -9   5   2   13.20    6.10
   8  -5  -2  114.79    9.00
  -8   5   2  113.49   10.10
   7  -5  -2   -3.90    3.00
  -7   5   2    3.40    4.50
   6  -5  -2    9.50    3.30
  -6   5   2    0.80    3.70
   5  -5  -2  809.42   31.60
  -5   5   2  793.92   32.70
  -4   5   2  187.38   10.60
  -3   5   2    2.90    3.60
  -2   5   2  170.68    9.90
  -1   5   2 1145.49   45.20
   0   5   2  229.38   12.10
   1   5   2  169.78   10.70
  -2  -5  -2  190.08   10.80
  -3  -5  -2  158.08   10.50
   3   5   2  162.18    9.00
  -4  -5  -2  179.98   12.40
   4   5   2  178.08   10.70
  -5  -5  -2   55.19    8.30
  10  -6  -2   28.40    7.20
 -10   6   2   40.20    9.30
   9  -6  -2   52.69    7.10
  -9   6   2   49.90    8.50
   8  -6  -2   13.90    4.30
  -8   6   2   13.90    6.00
   7  -6  -2    7.40    3.70
  -7   6   2   14.30    5.10
  -6   6   2  111.39    9.60
  -5   6   2    8.80    4.70
  -4   6   2  761.22   31.90
  -3   6   2  473.55   21.40
  -2   6   2   28.70    5.50
  -1   6   2    5.60    4.40
   0   6   2  411.36   20.00
   1   6   2  228.18   14.00
   2   6   2   21.30    7.10
   3   6   2   22.10    4.90
   3   6   2   26.20    8.80
  -9   7   2   15.20    8.40
  -8   7   2    0.70    6.20
  -7   7   2  219.28   13.90
  -6   7   2   11.40    5.60
  -5   7   2   88.09   10.00
  -4   7   2   98.49    9.80
  -3   7   2    3.50    5.10
  -2   7   2  229.18   14.40
  -1   7   2 1036.00   43.20
   0   7   2   32.90    7.50
   1   7   2   93.99   11.10
   2   7   2  236.78   18.80
  -9   8   2   36.50   10.40
  -8   8   2   12.50    7.60
  -7   8   2    9.60    7.90
  -6   8   2   17.30    7.50
  -5   8   2  533.05   26.00
  -4   8   2   70.09    8.90
  -3   8   2  -10.50    6.80
  -2   8   2  182.18   15.30
  -1   8   2   -3.40    8.40
   0   8   2   76.39   10.90
   1   8   2  114.29   13.50
  -8   9   2   34.00   10.90
  -7   9   2   91.69   11.90
  -6   9   2   -9.50    7.90
  -5   9   2   19.00    9.20
  -4   9   2  217.48   17.70
  -3   9   2   38.90   10.40
  -2   9   2   11.90   10.60
  -1   9   2   -3.20   11.90
  -6  10   2   27.40   12.10
  -5  10   2  583.24   33.10
  -4  10   2  387.66   26.30
  -3  10  -3  105.69   14.60
  -4  10  -3   63.99   12.20
  -5  10  -3  245.78   21.00
  -6  10  -3  439.16   26.80
  -1   9  -3   60.79   12.40
  -2   9  -3   87.89   12.30
  -3   9  -3   -3.20    8.50
  -4   9  -3   40.60    9.00
  -5   9  -3    6.10    7.60
  -6   9  -3  411.56   22.80
  -7   9  -3  176.48   16.40
  -8   9  -3   15.20   11.70
  -8   9  -3    9.30    9.40
   1   8  -3   55.69   11.50
   0   8  -3    0.40    8.10
  -1   8  -3  111.39   13.60
  -2   8  -3   16.10    6.50
  -3   8  -3  372.36   20.00
  -4   8  -3  289.67   17.10
  -5   8  -3   53.09    7.70
  -6   8  -3   27.40    7.10
  -7   8  -3   15.20    7.00
  -8   8  -3   18.20    9.40
  -8   8  -3   14.40    8.30
  -9   8  -3   21.90   10.20
   3   7  -3   71.09   12.00
   3   7  -3   32.50   14.70
   2   7  -3    0.70    8.10
   1   7  -3  115.79   13.10
   0   7  -3  235.18   14.90
  -1   7  -3  756.02   32.50
  -2   7  -3  449.66   21.40
  -3   7  -3   53.09    7.20
  -4   7  -3    2.70    5.10
  -5   7  -3   15.90    5.60
  -6   7  -3   36.10    6.70
  -7   7  -3   14.30    6.20
  -7   7  -3   23.70    8.20
  -8   7  -3   54.49    9.10
  -9   7  -3  219.48   17.10
   4   6  -3  206.68   18.40
   3   6  -3  194.98   14.90
   3   6  -3  202.58   20.10
   2   6  -3   46.70    7.60
   1   6  -3  354.56   17.70
   0   6  -3 1131.99   45.30
  -1   6  -3 1021.30   41.00
  -2   6  -3  473.15   20.90
  -4   6  -3   44.60    5.40
  -5   6  -3   95.39    8.20
  -6   6  -3   22.80    5.10
  -7   6  -3  207.28   13.90
  -7   6  -3  199.18   13.10
  -8   6  -3  395.96   20.30
  -9   6  -3  154.18   14.40
   5   5  -3  160.28   15.20
   5   5  -3  135.09   11.90
   5   5  -3   91.99   15.90
   4   5  -3   36.00   11.00
   4   5  -3   42.80    7.90
   3   5  -3  417.36   23.80
   3   5  -3  400.66   19.50
   2   5  -3   13.00    4.60
   1   5  -3 2890.31  109.29
   0   5  -3  405.56   17.80
  -1   5  -3 1346.87   52.19
  -2   5  -3 2474.95   93.79
  -3   5  -3   39.10    4.90
  -4   5  -3  983.90   39.10
  -5   5  -3  221.28   11.60
  -6   5  -3   15.40    4.90
  -6   5  -3   17.10    4.60
  -7   5  -3  360.56   17.80
  -8   5  -3   -8.00    5.50
  -9   5  -3   33.70    7.80
   6   4  -3  337.67   19.30
   6   4  -3  351.46   23.40
  -6  -4   3  355.86   17.50
   5   4  -3  204.88   12.60
   5   4  -3  198.48   18.40
  -5  -4   3  218.18   11.80
   4   4  -3   34.10    8.20
  -4  -4   3   34.50    4.80
   3   4  -3   49.40    8.00
   1   4  -3 5885.61  219.08
   0   4  -3 5167.68  192.48
  -2   4  -3  198.08    9.60
  -3   4  -3  292.97   13.30
  -4   4  -3   12.70    3.00
  -5   4  -3  500.45   20.80
  -5   4  -3  480.85   21.00
  -6   4  -3 1303.57   51.19
  -7   4  -3   36.20    5.80
   7  -4   3   33.70    4.60
  -8   4  -3   50.69    6.90
   8  -4   3   49.60    6.00
  -9   4  -3   89.79    9.30
   9  -4   3   85.69    9.60
   6   3  -3  109.59   14.40
   6   3  -3   80.99    9.80
  -6  -3   3   61.89    7.60
   5   3  -3   31.00    5.00
   5   3  -3   36.70    7.80
  -5  -3   3   32.00    4.50
   4   3  -3  182.68   13.90
  -4  -3   3  222.78   10.10
   3   3  -3  977.70   40.10
  -3  -3   3  937.11   36.80
   2   3  -3  190.28   11.70
   1   3  -3 6617.34  217.08
   1   3  -3 5071.89  216.38
   0   3  -3 4706.23  179.38
   0  -3   3 4950.80  179.28
  -1   3  -3    1.20    1.80
   1  -3   3   -1.00    2.00
  -2   3  -3  232.68   10.30
  -3   3  -3   12.60    2.70
  -3   3  -3    9.60    2.10
  -4   3  -3   -0.30    2.40
  -4   3  -3   -3.30    2.30
  -5   3  -3    4.90    2.90
   5  -3   3    4.70    2.10
  -6   3  -3  938.41   36.60
   6  -3   3  885.51   36.00
  -7   3  -3  134.09    9.50
   7  -3   3  144.89    8.90
  -8   3  -3   71.19    8.70
   8  -3   3   77.69    8.00
  -9   3  -3   16.00    7.00
   9  -3   3    5.80    5.20
   7   2  -3   17.40    6.00
  -7  -2   3   15.60    5.10
   6   2  -3    6.70    4.40
   6   2  -3  -10.00    7.10
  -6  -2   3   -6.80    3.40
   5   2  -3  308.17   15.80
   5   2  -3  347.17   17.50
  -5  -2   3  360.76   14.80
   4   2  -3   43.60    6.20
   4   2  -3   49.10    4.90
  -4  -2   3   52.29    4.10
   3   2  -3  692.13   28.50
  -3  -2   3  660.03   26.00
   2   2  -3  693.13   29.20
   2   2  -3  697.93   26.90
  -2  -2   3  736.73   27.10
   1   2  -3   73.29    3.60
   1   2  -3   55.09    5.30
   1   2  -3   63.79    3.20
   0   2  -3 1281.07   46.80
   0   2  -3 1205.48   48.10
   0  -2   3 1249.07   46.70
  -1   2  -3   20.60    2.30
  -1   2  -3   20.10    2.90
   1  -2   3   24.60    2.60
  -2   2  -3    2.00    1.40
  -2   2  -3    0.60    1.70
   2  -2   3    1.20    1.80
  -3   2  -3 1481.55   55.49
  -3   2  -3 1456.25   55.79
  -4   2  -3 1405.86   52.59
   4  -2   3 1340.17   52.09
  -5   2  -3   -2.00    2.40
   5  -2   3    1.80    2.20
  -6   2  -3  352.86   16.20
   6  -2   3  354.96   15.80
  -7   2  -3  136.99    9.40
   7  -2   3  135.09    8.90
  -8   2  -3  318.87   16.30
   8  -2   3  323.27   16.20
  -9   2  -3    8.30    7.00
   9  -2   3    6.30    5.60
   8   1  -3  115.99   13.40
  -8  -1   3  150.58   10.20
   7   1  -3  317.07   16.70
  -7  -1   3  308.97   14.50
   6   1  -3  188.88   12.10
   6   1  -3  175.98   10.80
  -6  -1   3  182.68    9.10
   5   1  -3 1927.71   73.39
   5   1  -3 1855.91   72.89
  -5  -1   3 1930.31   71.69
   4   1  -3 2168.18   81.19
   4   1  -3 2104.59   81.69
  -4  -1   3 2151.68   80.09
   3   1  -3 2579.74   94.39
   3   1  -3 2577.14   95.99
  -3  -1   3 2452.45   94.29
   2   1  -3   35.90    4.10
   2   1  -3   36.10    2.20
  -2  -1   3   36.90    2.10
   1   1  -3  314.27   13.80
  -1  -1   3  335.87   14.00
   0   1  -3  924.31   36.20
   0   1  -3  911.91   35.00
   0  -1   3  957.80   35.00
   0  -1   3  956.50   36.20
  -1   1  -3   76.29    4.40
  -1   1  -3   71.39    3.60
   1  -1   3   69.79    4.20
   1  -1   3   74.19    3.70
  -2   1  -3   29.40    2.90
  -2   1  -3   28.70    2.60
  -2   1  -3   28.20    2.30
   2  -1   3   31.60    2.80
   2  -1   3   28.90    2.70
  -3   1  -3   58.29    3.90
   3  -1   3   49.60    3.30
  -4   1  -3 1396.76   52.99
   4  -1   3 1380.16   52.69
  -5   1  -3 3919.21  148.79
   5  -1   3 4035.30  148.69
  -6   1  -3 1807.72   69.69
   6  -1   3 1835.92   69.69
  -7   1  -3   21.00    4.90
   7  -1   3   19.80    4.40
  -8   1  -3  201.78   12.40
   8  -1   3  156.58   11.60
   8   0  -3  401.66   20.10
  -8   0   3  382.06   17.90
   7   0  -3  276.37   15.40
  -7   0   3  313.37   13.70
   6   0  -3  402.26   18.50
  -6   0   3  413.06   17.10
   5   0  -3   52.39    6.30
   5   0  -3   60.49    5.10
  -5   0   3   54.39    4.30
   4   0  -3 3491.95  129.49
   4   0  -3 3506.55  129.49
  -4   0   3 3375.86  128.49
   3   0  -3  330.57   14.00
   3   0  -3  320.67   12.90
   3   0  -3  317.57   13.40
  -3   0   3  326.27   14.20
  -3   0   3  322.87   12.70
   2   0  -3 1492.25   55.49
   2   0  -3 1474.25   56.59
  -2   0   3 1538.65   56.69
  -2   0   3 1466.55   55.39
   1   0  -3   13.90    2.20
  -1   0   3   18.50    2.60
   0   0  -3  299.17   11.90
   0   0  -3  268.87   10.80
   0   0   3  288.77   11.80
   0   0   3  281.57   10.90
  -1   0  -3  308.47   11.10
  -1   0  -3  275.77   11.40
  -1   0  -3  288.87   11.90
   1   0   3  283.17   11.90
   1   0   3  291.27   11.50
  -2   0  -3   39.50    3.00
  -2   0  -3   42.70    2.50
  -2   0  -3   42.80    2.90
   2   0   3   36.90    3.30
   2   0   3   38.50    2.40
  -3   0  -3  339.27   13.80
  -3   0  -3  348.87   14.10
   3   0   3  342.17   14.00
   3   0   3  337.47   13.80
  -4   0  -3  267.27   11.70
   4   0   3  253.47   11.30
  -5   0  -3 1837.42   71.69
   5   0   3 1933.61   71.69
  -6   0  -3  293.17   13.90
   6   0   3  291.97   13.90
  -7   0  -3   42.60    5.90
   7   0   3   48.70    5.80
  -8   0  -3   19.00    6.20
   8   0   3   11.50    5.80
   9  -1  -3   57.49    8.40
  -9   1   3   77.69    7.40
   8  -1  -3  186.58   12.40
  -8   1   3  176.18   10.70
   7  -1  -3  214.18   12.70
  -7   1   3  245.58   11.30
   6  -1  -3  532.85   21.20
  -6   1   3  437.86   19.50
   5  -1  -3 1149.98   49.80
   5  -1  -3 1373.26   49.60
  -5   1   3 1350.36   49.10
   4  -1  -3  739.23   30.30
   4  -1  -3  866.41   30.70
   4  -1  -3  750.12   30.60
  -4   1   3  814.22   30.80
  -4   1   3  740.43   30.00
   3  -1  -3  813.12   30.80
   3  -1  -3  824.52   31.40
   3  -1  -3  785.72   31.00
  -3   1   3  797.62   30.60
  -3   1   3  809.32   31.40
   2  -1  -3 2530.85   98.29
   2  -1  -3 2732.13   98.19
   2  -1  -3 2644.44   98.89
  -2   1   3 2603.94   98.09
  -2   1   3 2696.93   98.89
   1  -1  -3   11.40    1.30
   1  -1  -3   11.00    2.10
  -1   1   3   10.40    1.30
  -1   1   3   13.20    2.10
  -1   1   3   11.70    1.40
   0  -1  -3  151.98    6.50
   0   1   3  162.68    7.40
   0   1   3  160.58    6.50
  -1  -1  -3   19.80    1.90
  -1  -1  -3   18.70    2.50
   1   1   3   17.70    1.90
   1   1   3   16.60    1.20
   1   1   3   21.00    2.50
  -2  -1  -3  788.62   30.10
  -2  -1  -3  756.92   29.50
   2   1   3  811.62   29.20
   2   1   3  719.33   29.90
  -3  -1  -3 1325.77   50.99
   3   1   3 1361.36   50.79
  -4  -1  -3    5.10    2.40
   4   1   3    9.80    2.30
   4   1   3   11.40    3.80
  -5  -1  -3   19.50    3.80
   5   1   3   18.30    3.70
  -6  -1  -3  226.68   11.80
   6   1   3  213.68   11.80
  -7  -1  -3    9.00    5.40
   7   1   3   13.50    4.60
   9  -2  -3   43.10    8.00
  -9   2   3   45.90    6.40
   8  -2  -3  316.97   17.10
  -8   2   3  348.07   15.80
   6  -2  -3  178.98   10.00
  -6   2   3  192.78    9.20
   5  -2  -3  157.88    8.00
   5  -2  -3  158.28    8.50
  -5   2   3  167.98    8.90
  -5   2   3  157.18    8.00
   4  -2  -3  487.95   19.60
   4  -2  -3  500.15   19.60
  -4   2   3  474.65   19.30
  -4   2   3  471.65   19.90
   3  -2  -3  399.66   16.20
   3  -2  -3  394.26   15.70
   3  -2  -3  401.36   15.90
  -3   2   3  379.96   16.30
  -3   2   3  382.56   15.80
   2  -2  -3    4.90    1.90
   2  -2  -3    5.90    1.60
   2  -2  -3    5.60    1.10
  -2   2   3    5.50    1.50
  -2   2   3    4.50    1.10
  -2   2   3    6.50    2.20
   1  -2  -3  738.53   26.70
   1  -2  -3  690.23   28.10
  -1   2   3  724.83   27.20
  -1   2   3  724.63   26.80
  -1   2   3  702.73   28.00
  -1   2   3  703.13   27.50
   0  -2  -3  386.56   15.30
   0  -2  -3  385.56   16.30
   0   2   3  389.06   16.20
  -1  -2  -3  660.43   25.80
  -1  -2  -3  674.03   26.90
   1   2   3  666.23   25.00
  -2  -2  -3 1438.06   53.69
   2   2   3 1396.16   53.09
  -3  -2  -3  825.32   34.90
   3   2   3  977.50   34.70
  -4  -2  -3   12.50    3.30
   4   2   3   14.80    3.00
  -5  -2  -3  294.87   14.20
   5   2   3  297.17   13.70
  -6  -2  -3   20.60    5.30
   6   2   3   10.70    4.50
  -7  -2  -3   68.89    8.20
   7   2   3   69.49    7.60
   9  -3  -3   28.00    6.10
  -9   3   3   31.90    5.80
   8  -3  -3   79.59    8.40
  -8   3   3   78.19    7.80
   7  -3  -3  185.98   11.00
  -7   3   3  197.58   10.30
  -6   3   3   30.20    4.10
  -6   3   3   30.80    4.80
   5  -3  -3  684.93   27.20
   5  -3  -3  677.93   27.00
  -5   3   3  661.43   26.90
   4  -3  -3  816.82   32.00
   4  -3  -3  803.22   31.40
  -4   3   3  799.92   31.60
   3  -3  -3  106.19    6.30
   3  -3  -3   90.89    5.00
  -3   3   3   94.99    5.80
   2  -3  -3 2542.95   92.79
   2  -3  -3 2490.15   94.39
  -2   3   3 2476.05   93.69
  -2   3   3 2471.85   92.89
   1  -3  -3 3528.75  133.59
  -1   3   3 3546.95  131.59
  -1   3   3 3583.04  132.79
   0  -3  -3 2772.02  101.89
   0  -3  -3 2670.93  103.19
  -1  -3  -3    2.20    1.70
  -2  -3  -3 1230.48   54.39
   2   3   3 1624.84   53.89
  -3  -3  -3  265.87   12.60
   3   3   3  283.07   11.80
  -4  -3  -3  239.68   11.90
   4   3   3  223.08   11.00
  -5  -3  -3   -2.30    4.10
   5   3   3    1.60    3.60
  -6  -3  -3   78.89    8.70
   6   3   3   76.79    7.70
   9  -4  -3  320.97   17.20
  -9   4   3  317.17   16.50
   8  -4  -3  191.68   11.90
  -8   4   3  199.08   11.80
   7  -4  -3   40.30    5.10
   6  -4  -3    4.80    2.90
   6  -4  -3    6.70    3.50
  -6   4   3    9.00    3.60
   5  -4  -3   83.69    5.90
   5  -4  -3   72.49    6.30
  -5   4   3   85.29    6.40
   4  -4  -3   63.09    5.50
   4  -4  -3   53.09    4.20
  -4   4   3   55.09    5.60
   3  -4  -3  143.19    8.50
  -3   4   3  139.39    8.10
   2  -4  -3   33.80    5.10
  -2   4   3   34.10    2.80
  -2   4   3   30.00    3.90
   1  -4  -3  175.78   10.20
  -1   4   3  177.58    9.30
  -1   4   3  174.98    7.40
  -1  -4  -3 1083.69   42.10
  -2  -4  -3  280.47   13.20
   2   4   3  284.07   11.90
  -3  -4  -3   71.19    6.70
   3   4   3   74.69    5.50
  -4  -4  -3  222.88   11.90
   4   4   3  194.18   10.70
  -5  -4  -3   83.29    9.90
   5   4   3  102.69    9.30
  10  -5  -3   32.60    7.70
 -10   5   3   54.09    8.60
   9  -5  -3   20.30    5.80
  -9   5   3   19.10    6.60
   8  -5  -3    8.00    4.20
  -8   5   3   14.20    5.40
   7  -5  -3  279.27   13.90
  -7   5   3  281.67   14.60
   6  -5  -3  238.18   12.20
  -6   5   3  268.97   13.30
   5  -5  -3   -1.60    2.40
  -5   5   3   11.40    4.00
  -4   5   3  214.08   11.40
  -3   5   3  310.57   14.80
  -2   5   3 3140.79  118.79
  -1   5   3 1215.88   47.90
   0   5   3   30.40    5.00
  -2  -5  -3  614.14   25.70
   2   5   3  595.54   23.90
  -3  -5  -3    5.70    4.60
   3   5   3    3.20    3.80
  -4  -5  -3   -1.30    5.70
   4   5   3   -0.60    4.40
   9  -6  -3   47.90    6.60
  -9   6   3   62.49    8.80
   8  -6  -3   23.60    5.10
  -8   6   3   40.90    7.30
   7  -6  -3    8.60    3.80
  -7   6   3   16.20    5.10
  -6   6   3  517.95   23.30
  -5   6   3  958.80   39.30
  -4   6   3   38.40    6.30
  -3   6   3  114.99    9.30
  -2   6   3  237.78   13.40
  -1   6   3   10.60    4.20
   0   6   3   17.00    5.80
   1   6   3    4.10    5.50
   2   6   3   94.39    6.80
   2   6   3   79.59    9.50
   9  -7  -3   95.09   10.10
  -9   7   3  102.19   11.60
  -8   7   3    9.60    7.00
  -7   7   3    4.60    5.80
  -6   7   3    9.70    6.00
  -5   7   3  162.68   12.60
  -4   7   3  691.33   30.60
  -3   7   3   80.49    9.60
  -2   7   3   49.50    7.40
  -1   7   3   -0.10    5.20
   0   7   3    2.50    6.40
   1   7   3    3.70    8.00
   2   7   3   12.30    9.70
  -9   8   3   24.10    9.70
  -8   8   3   54.29    9.90
  -7   8   3   98.89   12.80
  -6   8   3  252.27   17.00
  -5   8   3  920.41   39.80
  -4   8   3  276.07   17.80
  -3   8   3   49.50    8.90
  -2   8   3    5.80    7.30
  -1   8   3   25.30    8.90
   0   8   3   93.19   12.10
   1   8   3   20.80   11.50
  -8   9   3   39.00   10.80
  -7   9   3  223.28   19.00
  -6   9   3  -10.20    8.80
  -5   9   3  279.17   20.00
  -4   9   3   31.00   10.40
  -3   9   3  113.29   13.30
  -2   9   3  -26.00    8.80
  -1   9   3   -0.60   12.10
  -5  10   3   35.00   12.50
  -4  10  -4   33.40   12.00
  -5  10  -4  114.59   13.90
  -1   9  -4   -6.30   10.10
  -2   9  -4    4.90    9.40
  -3   9  -4  157.98   16.10
  -4   9  -4   20.50    8.30
  -5   9  -4   58.79    9.30
  -6   9  -4   19.90    8.40
  -7   9  -4   31.60    9.00
  -7   9  -4   22.40   11.30
  -8   9  -4   -2.90    9.00
  -8   9  -4   -4.40   11.70
   1   8  -4  241.38   25.10
   1   8  -4  309.27   20.70
   0   8  -4  240.08   18.00
  -1   8  -4  116.69   13.60
  -2   8  -4  105.49   12.20
  -3   8  -4  279.87   16.50
  -4   8  -4   48.50    7.90
  -5   8  -4   60.89    8.60
  -6   8  -4   66.99    9.20
  -7   8  -4   -2.20    8.80
  -7   8  -4   -7.00    6.70
  -8   8  -4   60.29   12.00
  -8   8  -4   65.39   10.30
   2   7  -4   16.60    9.20
   2   7  -4   25.80   11.70
   1   7  -4   49.50    8.30
   0   7  -4   27.30    6.90
  -1   7  -4  141.79   11.90
  -2   7  -4  465.15   21.80
  -3   7  -4    4.10    5.10
  -4   7  -4  878.21   36.50
  -5   7  -4  151.48   10.90
  -6   7  -4    5.40    5.10
  -6   7  -4    9.80    7.10
  -7   7  -4   33.00    7.70
  -7   7  -4   32.00    8.90
  -8   7  -4    6.90    7.20
  -9   7  -4    1.40    9.00
   4   6  -4   11.80   13.70
   4   6  -4    5.20    9.30
   3   6  -4   38.80   11.90
   3   6  -4   32.70    7.90
   2   6  -4  188.98   17.10
   2   6  -4  167.38   12.70
   1   6  -4 2219.28   85.29
   0   6  -4  832.92   34.10
  -1   6  -4  687.93   28.80
  -2   6  -4   53.29    6.00
  -3   6  -4  132.69    9.20
  -4   6  -4  146.09    9.80
  -5   6  -4    4.30    4.00
  -6   6  -4  401.46   19.60
  -6   6  -4  421.06   20.50
  -7   6  -4   45.20    7.00
  -7   6  -4   52.09    7.10
  -8   6  -4   -1.00    6.50
  -9   6  -4   36.80    8.90
   5   5  -4   76.09   10.10
   5   5  -4   40.80    7.60
   5   5  -4   51.59   12.70
   4   5  -4    7.90    7.30
   4   5  -4   -8.70    9.80
   3   5  -4  129.99   11.20
   3   5  -4  135.39   15.50
   2   5  -4   48.30    8.60
   2   5  -4   34.00    5.40
   1   5  -4 1443.16   55.89
   0   5  -4  840.32   33.60
  -1   5  -4   78.79    6.50
  -2   5  -4  545.35   22.80
  -3   5  -4  298.57   14.10
  -4   5  -4  334.67   16.50
  -4   5  -4  304.17   14.60
  -5   5  -4   32.60    5.30
  -5   5  -4   31.10    5.00
  -6   5  -4  136.99    9.80
  -6   5  -4  121.79    9.40
  -7   5  -4   18.40    5.30
  -8   5  -4   98.59   10.90
  -9   5  -4    9.90    7.00
   6   4  -4    6.00    7.10
   6   4  -4   26.20   11.40
   5   4  -4   18.20    9.20
   5   4  -4   10.70    4.80
   4   4  -4  122.19   15.00
   3   4  -4  418.86   19.00
   3   4  -4  453.45   22.90
   2   4  -4  483.65   20.50
   2   4  -4  503.95   23.90
   1   4  -4  207.98   13.60
   1   4  -4  230.38   10.60
   0   4  -4 1277.27   49.00
  -1   4  -4  105.99    6.50
  -2   4  -4  558.94   22.70
  -3   4  -4   27.90    4.40
  -3   4  -4   33.60    4.20
  -4   4  -4  704.13   28.60
  -4   4  -4  680.73   28.20
  -5   4  -4   61.99    6.70
  -5   4  -4   67.39    6.10
  -6   4  -4   29.00    5.20
  -7   4  -4  404.96   19.20
  -8   4  -4  622.14   27.40
  -9   4  -4   10.30    7.20
   6   3  -4    5.80    6.00
   6   3  -4   -2.40    9.10
  -6  -3   4    6.30    4.30
   5   3  -4  103.99   12.40
   5   3  -4   79.19    7.90
  -5  -3   4   84.39    6.30
   4   3  -4  580.54   26.80
  -4  -3   4  574.14   23.00
   3   3  -4   10.50    5.80
   2   3  -4    4.30    4.10
   2   3  -4    1.80    2.30
   1   3  -4    3.30    1.60
   1   3  -4    2.00    1.90
   1   3  -4   -2.00    3.10
   0   3  -4 1917.71   73.99
   0   3  -4 1871.61   71.89
   0  -3   4 1952.30   71.79
  -1   3  -4  335.37   15.70
  -1   3  -4  356.86   14.20
   1  -3   4  331.67   14.20
  -2   3  -4  419.96   18.50
  -2   3  -4  426.86   17.30
  -3   3  -4  348.17   14.80
  -3   3  -4  347.37   15.40
  -4   3  -4  295.67   13.30
  -4   3  -4  284.47   13.10
  -5   3  -4 2722.03  102.89
  -6   3  -4  796.72   32.20
   6  -3   4  782.02   31.50
  -7   3  -4   40.80    5.80
   7  -3   4   46.60    5.20
  -8   3  -4   20.40    6.30
   8  -3   4   13.90    4.50
  -9   3  -4   24.80    7.20
   9  -3   4   30.40    6.10
   7   2  -4  653.33   29.00
  -7  -2   4  631.04   26.60
   6   2  -4  463.55   20.50
   6   2  -4  375.76   21.50
  -6  -2   4  442.06   18.10
   5   2  -4    0.10    6.40
   5   2  -4    5.40    3.30
  -5  -2   4   -0.10    2.60
   4   2  -4 1719.03   68.69
  -4  -2   4 1794.32   66.09
   3   2  -4  703.73   29.40
   3   2  -4  674.03   26.60
  -3  -2   4  701.23   26.50
   2   2  -4    5.90    3.00
   2   2  -4    4.40    1.30
   1   2  -4  831.82   30.60
   1   2  -4  788.52   32.90
   1   2  -4  820.72   30.80
   0   2  -4  270.37   12.90
   0   2  -4  286.17   11.20
   0  -2   4  276.07   11.10
  -1   2  -4   -0.70    2.00
  -1   2  -4    1.20    1.30
   1  -2   4    0.40    1.60
  -2   2  -4  751.42   28.70
  -2   2  -4  743.43   29.30
   2  -2   4  725.43   29.30
  -3   2  -4 1702.73   63.59
  -3   2  -4 1661.33   63.69
  -4   2  -4   63.79    5.00
  -5   2  -4 2779.12  106.69
   5  -2   4 2883.21  106.29
  -6   2  -4 1088.69   43.50
   6  -2   4 1118.39   43.10
  -7   2  -4  170.88   10.70
   7  -2   4  171.68   10.10
  -8   2  -4    1.20    4.90
   8  -2   4    7.50    4.50
  -9   2  -4  291.77   17.60
   9  -2   4  278.87   16.10
   8   1  -4   31.40    7.80
  -8  -1   4   35.70    5.70
  -7  -1   4   23.80    4.30
   6   1  -4  190.78   11.50
   6   1  -4  190.18   13.10
  -6  -1   4  200.28    9.60
   5   1  -4   69.19    6.50
   5   1  -4   62.99    8.00
  -5  -1   4   67.79    4.50
   4   1  -4  342.07   15.00
   4   1  -4  349.37   16.30
  -4  -1   4  340.07   13.70
   3   1  -4 1783.82   66.69
   3   1  -4 1739.53   64.49
  -3  -1   4 1659.23   64.29
   2   1  -4 6167.18  229.98
   1   1  -4  365.06   15.40
  -1  -1   4  335.87   15.30
   0   1  -4  895.31   34.40
   0   1  -4  883.41   32.80
   0  -1   4  870.81   32.90
   0  -1   4  862.01   34.30
  -1   1  -4  825.02   31.80
  -1   1  -4  819.82   30.90
   1  -1   4  798.82   31.80
   1  -1   4  823.22   31.00
  -2   1  -4    4.00    1.60
  -2   1  -4    5.70    2.10
  -2   1  -4    7.80    1.50
   2  -1   4    4.60    2.20
  -3   1  -4  691.73   26.20
  -3   1  -4  678.13   26.40
   3  -1   4  681.43   25.90
   3  -1   4  646.54   26.30
  -4   1  -4  267.47   12.10
   4  -1   4  279.37   11.70
  -5   1  -4  568.84   23.50
   5  -1   4  570.04   23.10
  -6   1  -4 1239.58   48.60
   6  -1   4 1248.08   48.30
  -7   1  -4   -1.30    4.30
   7  -1   4    4.40    3.80
  -8   1  -4   43.40    7.00
   8  -1   4   45.60    6.10
   8   0  -4  694.33   31.50
  -8   0   4  703.73   28.60
   7   0  -4  368.56   18.40
  -7   0   4  384.76   16.20
   6   0  -4  140.39    9.00
   6   0  -4  131.79   10.20
  -6   0   4  131.79    7.10
   5   0  -4  270.27   13.00
   5   0  -4  279.47   13.70
  -5   0   4  275.97   11.60
   4   0  -4   46.30    4.10
   4   0  -4   48.70    5.60
   4   0  -4   39.80    4.10
  -4   0   4   40.70    3.10
   3   0  -4  193.48    7.70
   3   0  -4  176.88    9.30
   3   0  -4  175.98    8.30
  -3   0   4  183.48    9.70
  -3   0   4  181.58    7.40
   2   0  -4   17.30    2.70
  -2   0   4   23.20    3.50
   1   0  -4   39.00    3.80
  -1   0   4   41.10    3.80
   0   0  -4  249.58    9.90
   0   0  -4  263.27   11.30
   0   0   4  257.17   11.20
   0   0   4  258.67   10.00
  -1   0  -4   44.70    2.80
  -1   0  -4   57.19    2.50
   1   0   4   56.69    4.10
   1   0   4   43.60    3.10
  -2   0  -4 4301.77  156.18
  -2   0  -4 4301.77  156.48
  -2   0  -4 4036.90  156.68
   2   0   4 4008.10  155.98
   2   0   4 4415.06  156.98
  -3   0  -4  703.13   30.90
  -3   0  -4  765.32   31.20
  -3   0  -4  846.42   31.50
   3   0   4  871.21   31.10
   3   0   4  872.01   31.60
  -4   0  -4  525.75   22.50
   4   0   4  588.44   22.20
  -5   0  -4  746.53   29.90
   5   0   4  740.73   29.50
  -6   0  -4   -3.10    3.60
   6   0   4    1.10    3.20
  -7   0  -4  410.16   19.00
   7   0   4  404.86   18.70
  -8   0  -4  164.88   13.30
   8   0   4  176.28   12.50
   9  -1  -4   10.90    6.90
  -9   1   4   24.40    5.40
   8  -1  -4  103.79   10.20
  -8   1   4  112.19    8.50
   7  -1  -4   -1.40    3.80
  -7   1   4   -0.40    2.80
   6  -1  -4   17.20    4.30
   6  -1  -4   16.30    3.90
  -6   1   4   14.60    3.10
   5  -1  -4 2077.79   78.29
   5  -1  -4 2049.99   78.09
  -5   1   4 2045.70   77.09
   4  -1  -4 1471.85   56.49
   4  -1  -4 1488.55   55.89
   4  -1  -4 1501.45   56.79
  -4   1   4 1464.15   55.59
  -4   1   4 1476.05   56.89
   3  -1  -4  256.57   10.20
   3  -1  -4  244.88   10.60
   3  -1  -4  248.78   11.50
  -3   1   4  247.38   10.00
  -3   1   4  241.98   11.60
   2  -1  -4 1418.66   54.79
   2  -1  -4 1434.96   53.79
   2  -1  -4 1435.76   53.49
  -2   1   4 1479.35   53.69
  -2   1   4 1403.76   54.69
   1  -1  -4 7525.05  280.97
  -1   1   4 7617.64  281.07
   0  -1  -4  838.72   32.20
   0  -1  -4  794.02   31.20
   0   1   4  828.02   32.30
   0   1   4  844.72   31.20
  -1  -1  -4 1249.18   48.40
  -1  -1  -4 1270.77   47.60
   1   1   4 1272.47   48.50
  -2  -1  -4 4939.81  191.08
  -2  -1  -4 4956.00  190.58
   2   1   4 5318.87  191.28
   2   1   4 5316.57  189.98
  -3  -1  -4   14.30    3.00
  -3  -1  -4   15.50    2.70
   3   1   4   13.30    2.00
   3   1   4    8.40    3.40
  -4  -1  -4   42.90    4.50
   4   1   4   50.99    4.10
  -5  -1  -4   -2.30    2.90
   5   1   4   -0.80    2.90
  -6  -1  -4  156.58   10.30
   6   1   4  170.98    9.80
  -7  -1  -4   45.70    6.60
   7   1   4   39.40    5.90
   9  -2  -4   51.19    8.10
  -9   2   4   58.19    6.60
   8  -2  -4  108.89   10.10
  -8   2   4  122.99    8.60
   7  -2  -4    1.20    3.50
  -7   2   4    1.10    2.90
   6  -2  -4  113.29    7.40
   6  -2  -4  112.09    7.60
  -6   2   4   93.29    6.40
   5  -2  -4    1.20    2.30
   5  -2  -4    1.70    2.80
  -5   2   4    0.10    2.20
   4  -2  -4  132.09    7.50
   4  -2  -4  138.29    7.10
  -4   2   4  130.89    6.60
   3  -2  -4   26.80    2.80
   3  -2  -4   27.20    3.20
   3  -2  -4   27.00    3.90
  -3   2   4   25.80    3.00
   2  -2  -4 1248.38   46.80
   2  -2  -4 1243.48   47.80
   2  -2  -4 1251.47   46.70
  -2   2   4 1231.28   46.60
  -2   2   4 1232.08   47.00
   1  -2  -4  855.01   33.20
   1  -2  -4  847.42   31.50
  -1   2   4  807.02   31.40
  -1   2   4  866.91   31.90
  -1   2   4  833.12   32.30
   0  -2  -4 3123.09  113.69
   0  -2  -4 2983.20  114.69
  -1  -2  -4 2640.34   95.59
  -1  -2  -4 2472.65   96.59
  -2  -2  -4 3071.59  117.09
  -2  -2  -4 3065.09  115.89
   2   2   4 3165.68  115.09
  -3  -2  -4    3.80    2.30
   3   2   4    3.40    1.90
  -4  -2  -4  795.62   32.50
   4   2   4  836.02   31.90
  -5  -2  -4  700.73   27.60
   5   2   4  632.04   26.90
  -6  -2  -4   65.69    7.20
   6   2   4   68.49    7.70
  -7  -2  -4   60.39    8.10
   7   2   4   52.49    6.80
   9  -3  -4   17.20    6.30
  -9   3   4   22.20    5.30
   8  -3  -4   20.10    5.00
  -8   3   4   13.80    4.50
   7  -3  -4  967.20   38.50
  -7   3   4  925.81   37.20
   6  -3  -4  267.57   13.40
   6  -3  -4  290.27   13.20
  -6   3   4  274.27   12.70
   5  -3  -4  155.78    8.40
   5  -3  -4  158.28    8.70
  -5   3   4  150.18    8.10
   4  -3  -4  218.08   10.40
   4  -3  -4  199.88    9.50
  -4   3   4  200.88    9.80
   3  -3  -4 1568.54   58.89
   3  -3  -4 1581.54   60.19
  -3   3   4 1537.05   59.39
   2  -3  -4 5930.51  220.58
   2  -3  -4 5920.21  222.38
  -2   3   4 6023.70  221.68
  -2   3   4 5968.10  220.68
   1  -3  -4 1599.74   62.79
  -1   3   4 1618.24   60.59
  -1   3   4 1671.33   61.99
   0  -3  -4  587.94   23.10
   0  -3  -4  576.34   24.50
  -1  -3  -4  410.66   16.80
  -1  -3  -4  399.76   18.40
  -2  -3  -4 1106.79   44.10
   2   3   4 1176.48   43.10
  -3  -3  -4   14.40    3.40
   3   3   4    9.20    2.50
  -4  -3  -4   17.90    4.00
   4   3   4   19.50    3.30
  -5  -3  -4   53.39    6.50
   5   3   4   62.09    6.80
  -6  -3  -4  115.89   11.40
   6   3   4  109.49    9.80
   9  -4  -4    0.40    5.40
  -9   4   4    0.90    5.30
   8  -4  -4   78.69    8.20
  -8   4   4   73.59    8.20
   7  -4  -4   19.60    4.50
   7  -4  -4   31.30    4.70
  -7   4   4   24.70    4.50
   6  -4  -4  337.37   15.70
   6  -4  -4  354.96   16.10
  -6   4   4  349.57   16.00
   5  -4  -4  689.33   28.40
   5  -4  -4  695.83   27.70
  -5   4   4  674.53   27.90
   4  -4  -4  489.75   21.30
   4  -4  -4  491.25   19.90
  -4   4   4  495.85   20.80
   3  -4  -4   29.70    4.30
   3  -4  -4   35.50    3.00
  -3   4   4   25.00    3.80
   2  -4  -4  571.24   23.90
  -2   4   4  545.75   22.80
  -2   4   4  535.35   21.20
   1  -4  -4  106.09    7.70
  -1   4   4   97.59    6.80
  -1   4   4  100.39    4.60
   0  -4  -4  441.76   20.60
  -1  -4  -4   38.10    4.30
  -2  -4  -4  242.48   11.90
   2   4   4  243.58   10.30
  -3  -4  -4  845.22   34.40
   3   4   4  861.01   33.10
  -4  -4  -4   26.80    5.30
   4   4   4   22.10    4.30
  -5  -4  -4   53.09    7.50
   5   4   4   66.69    8.30
   9  -5  -4  276.77   15.70
  -9   5   4  262.27   15.40
   8  -5  -4    4.20    4.40
  -8   5   4   11.10    5.30
   7  -5  -4   30.50    5.00
  -7   5   4   28.70    5.50
   6  -5  -4   10.30    3.40
   6  -5  -4    7.70    4.30
  -6   5   4    7.40    4.20
   5  -5  -4  533.75   24.20
   5  -5  -4  539.75   22.20
  -5   5   4  549.85   23.30
   4  -5  -4  474.35   20.10
  -4   5   4  359.66   18.40
   3  -5  -4  179.28   10.90
  -3   5   4  145.89    9.50
   2  -5  -4   20.50    4.30
  -2   5   4   15.90    2.30
  -2   5   4   26.30    4.60
  -1   5   4  341.27   13.60
  -1   5   4  342.07   16.20
   0   5   4   33.50    5.30
  -2  -5  -4   12.60    4.20
   2   5   4    9.00    2.80
  -3  -5  -4   44.80    6.60
   3   5   4   46.10    4.70
  -4  -5  -4   99.29   10.60
   9  -6  -4   15.10    5.70
  -9   6   4    2.50    6.70
   8  -6  -4   16.10    4.90
  -8   6   4   26.50    6.60
   7  -6  -4  114.79    8.60
  -7   6   4  124.39   10.50
   6  -6  -4  312.47   14.50
  -6   6   4  311.87   16.50
  -5   6   4 2234.98   86.19
  -4   6   4  161.58   11.30
  -3   6   4   39.30    5.70
  -2   6   4    4.60    4.70
  -1   6   4  105.29    9.60
   0   6   4  260.17   14.80
   1   6   4  502.75   23.80
   9  -7  -4   36.70    6.90
  -9   7   4   28.30    9.20
  -8   7   4  234.48   16.10
  -7   7   4  446.86   22.40
  -6   7   4   56.19    8.40
  -5   7   4  312.77   17.30
  -4   7   4   48.90    7.80
  -3   7   4   40.30    6.80
  -2   7   4   20.80    6.70
  -1   7   4  208.28   14.20
   0   7   4   37.60    8.00
   1   7   4    6.50    8.90
   2   7   4   98.79   12.70
  -9   8   4    9.30    9.60
  -8   8   4   35.10    9.30
  -7   8   4  203.08   15.80
  -6   8   4   18.30    7.50
  -5   8   4  299.47   18.20
  -4   8   4   32.40    8.10
  -3   8   4   51.09    9.10
  -2   8   4  168.58   16.10
  -1   8   4  154.98   16.40
   0   8   4   -1.00   10.20
  -8   9   4   -7.20   11.20
  -7   9   4   32.70   10.70
  -6   9   4   73.19   12.30
  -5   9   4  109.29   12.90
  -4   9   4   25.70   10.80
  -3   9   4   53.29   11.10
  -2   9   4    0.60   11.00
  -1   9  -5  322.97   28.80
  -1   9  -5  362.96   23.50
  -2   9  -5  223.58   18.40
  -3   9  -5    4.40    7.80
  -4   9  -5  210.58   16.40
  -5   9  -5  273.97   18.60
  -5   9  -5  291.77   23.60
  -6   9  -5    0.10   10.80
  -6   9  -5    4.50    8.10
  -7   9  -5    2.50    9.10
  -7   9  -5   13.50   11.50
   1   8  -5 1094.49   52.39
   1   8  -5 1054.29   46.40
   0   8  -5  216.48   22.50
   0   8  -5  241.28   17.70
  -1   8  -5   33.40    8.20
  -2   8  -5   35.20    7.70
  -3   8  -5  159.58   13.10
  -4   8  -5    2.70    5.60
  -5   8  -5   45.00   10.20
  -5   8  -5   26.20    6.90
  -6   8  -5  507.25   27.60
  -6   8  -5  516.85   25.00
  -7   8  -5   38.90   11.30
  -7   8  -5   58.09    9.40
  -8   8  -5   51.89   10.10
   2   7  -5  390.16   21.50
   2   7  -5  383.06   27.80
   1   7  -5 1408.46   57.89
   1   7  -5 1495.75   63.49
   0   7  -5  475.65   22.60
   0   7  -5  454.45   26.70
  -1   7  -5  400.26   19.90
  -2   7  -5   11.10    5.50
  -3   7  -5  471.15   21.90
  -4   7  -5  176.18   11.90
  -5   7  -5   24.40    6.10
  -5   7  -5   26.50    8.10
  -6   7  -5   26.00    7.80
  -6   7  -5    5.30    5.40
  -7   7  -5   -5.40    5.70
  -7   7  -5    0.50    7.00
  -8   7  -5   32.10    8.40
  -9   7  -5    3.90    9.30
   4   6  -5   65.79   15.60
   4   6  -5   83.49   10.70
   3   6  -5  164.68   20.70
   3   6  -5  146.19   13.80
   2   6  -5  194.88   18.40
   2   6  -5  210.08   14.00
   1   6  -5   87.09    9.30
   1   6  -5  124.29   14.10
   0   6  -5  463.05   20.80
   0   6  -5  460.15   24.80
  -1   6  -5  114.29    8.70
  -2   6  -5   30.00    5.00
  -3   6  -5  490.25   21.20
  -3   6  -5  475.05   23.90
  -4   6  -5  779.62   33.30
  -4   6  -5  842.62   35.50
  -5   6  -5   85.59    8.20
  -5   6  -5  100.49   11.40
  -6   6  -5  106.39    9.70
  -6   6  -5  109.79   11.20
  -7   6  -5  336.17   18.50
  -7   6  -5  355.96   18.30
  -8   6  -5   60.99    8.70
  -9   6  -5    0.80    8.00
   5   5  -5  290.67   16.60
   5   5  -5  258.77   19.10
   5   5  -5  285.37   24.30
   4   5  -5  572.34   27.00
   4   5  -5  644.04   32.60
   3   5  -5  167.88   17.00
   3   5  -5  173.78   11.20
   2   5  -5  207.78   16.40
   2   5  -5  193.38   12.10
   1   5  -5  924.11   36.20
   1   5  -5  894.71   40.10
   0   5  -5   63.39    9.40
   0   5  -5   53.99    6.40
  -1   5  -5  352.36   15.80
  -1   5  -5  349.57   18.40
  -2   5  -5   37.60    4.50
  -2   5  -5   41.00    6.60
  -3   5  -5   34.20    5.80
  -3   5  -5   33.50    4.60
  -4   5  -5  206.08   12.70
  -4   5  -5  214.88   11.00
  -5   5  -5 1296.37   51.89
  -5   5  -5 1335.77   52.39
  -6   5  -5  484.15   22.10
  -6   5  -5  497.45   22.40
  -7   5  -5    9.20    5.00
  -8   5  -5    0.10    6.00
  -9   5  -5   23.20    8.30
   6   4  -5  126.09   16.40
   6   4  -5  152.28   13.70
   5   4  -5   61.19    7.80
   5   4  -5   54.29    7.00
   5   4  -5   41.70   10.30
   4   4  -5  627.44   25.80
   4   4  -5  578.94   29.80
   3   4  -5  107.49   12.90
   3   4  -5  102.89    8.40
   2   4  -5  200.78    9.90
   2   4  -5  190.98   13.90
   1   4  -5  101.09    6.40
   1   4  -5   99.69    9.50
   0   4  -5   98.29    6.20
   0   4  -5   92.69    9.30
  -1   4  -5 1719.53   68.89
  -1   4  -5 1794.22   66.69
  -2   4  -5 1078.59   43.70
  -2   4  -5 1081.39   41.90
  -3   4  -5  474.65   19.50
  -3   4  -5  457.15   20.90
  -4   4  -5  169.88   10.50
  -4   4  -5  190.08    9.80
  -5   4  -5 2257.27   89.09
  -5   4  -5 2419.46   89.09
  -6   4  -5  184.08   11.20
  -7   4  -5  403.66   19.20
  -8   4  -5    1.70    5.60
  -9   4  -5  252.37   16.50
   6   3  -5  319.47   17.60
   6   3  -5  316.17   21.50
  -6  -3   5  328.37   14.90
   5   3  -5  297.17   19.30
   5   3  -5  315.07   15.60
  -5  -3   5  321.47   14.10
   4   3  -5  376.86   20.00
   3   3  -5   12.70    4.60
   3   3  -5   15.20    3.20
   2   3  -5 1038.10   38.40
   2   3  -5 1027.00   41.70
   2   3  -5  944.31   37.80
   1   3  -5  201.48    8.40
   1   3  -5  201.38    9.00
   1   3  -5  211.48   12.20
   0   3  -5    0.10    1.80
   0   3  -5    5.60    3.30
   0  -3   5   -0.90    2.00
  -1   3  -5  223.78   10.00
  -1   3  -5  242.38   12.20
   1  -3   5  217.28   10.20
  -2   3  -5  308.17   14.40
  -2   3  -5  296.97   12.90
  -3   3  -5  223.98   10.50
  -3   3  -5  223.48   11.40
  -4   3  -5   77.59    6.50
  -4   3  -5   67.69    6.00
  -5   3  -5 1532.75   59.19
  -6   3  -5  613.34   25.90
  -7   3  -5   95.99    9.10
  -8   3  -5  149.49   11.90
  -9   3  -5   29.30    7.50
   7   2  -5  106.69   11.30
   7   2  -5  118.99   16.90
  -7  -2   5  108.79    8.30
   6   2  -5   92.19   11.80
   6   2  -5   74.09    9.10
  -6  -2   5   55.49    5.70
   5   2  -5  528.25   22.40
   5   2  -5  461.05   24.00
  -5  -2   5  529.95   20.30
   4   2  -5  338.77   17.70
  -4  -2   5  324.77   13.40
   3   2  -5  119.19    5.80
   3   2  -5  121.29    9.00
   2   2  -5   41.90    5.90
   1   2  -5 4071.19  153.28
   0   2  -5  220.58   11.30
   0   2  -5  227.28    9.20
   0  -2   5  230.88    9.30
  -1   2  -5  321.57   13.00
  -1   2  -5  321.27   14.60
   1  -2   5  322.37   13.20
  -2   2  -5 3257.57  117.69
  -2   2  -5 3143.89  116.69
   2  -2   5 2974.20  117.49
  -3   2  -5  464.55   18.80
  -3   2  -5  456.65   18.50
   3  -2   5  432.46   18.80
  -4   2  -5  371.46   16.00
  -5   2  -5 1770.22   67.69
  -6   2  -5    0.20    3.70
   6  -2   5    0.60    2.80
  -7   2  -5  131.39    9.80
   7  -2   5  120.49    8.40
  -8   2  -5   60.89    7.90
   8  -2   5   61.89    7.80
   8   1  -5  244.58   16.70
  -8  -1   5  253.27   13.30
   7   1  -5   73.69   10.20
   7   1  -5   82.39    9.70
  -7  -1   5   80.79    6.60
   6   1  -5   10.10    4.30
   6   1  -5    2.60    5.60
  -6  -1   5    8.70    2.70
   5   1  -5   97.09    7.20
   5   1  -5   89.89    9.70
  -5  -1   5   92.09    5.20
   4   1  -5  288.77   14.60
   4   1  -5  278.77   13.10
   4   1  -5  282.97   12.10
  -4  -1   5  298.47   11.50
   3   1  -5    2.50    3.00
   2   1  -5  851.91   34.30
   1   1  -5  471.85   20.10
   0   1  -5 1089.69   40.30
   0   1  -5 1063.19   42.10
   0  -1   5 1082.59   40.40
  -1   1  -5 3218.68  120.99
  -1   1  -5 3116.59  119.89
   1  -1   5 3203.38  121.19
   1  -1   5 3373.36  120.09
  -2   1  -5  974.60   38.40
  -2   1  -5 1006.10   37.80
  -2   1  -5  983.50   37.50
   2  -1   5  999.30   38.70
  -3   1  -5   10.30    2.70
  -3   1  -5    6.40    2.10
   3  -1   5    4.90    2.80
  -4   1  -5  362.76   15.40
   4  -1   5  349.87   14.60
  -5   1  -5    9.60    3.20
   5  -1   5    3.50    2.70
  -6   1  -5  239.38   12.40
   6  -1   5  243.08   11.70
  -7   1  -5  297.07   15.20
   7  -1   5  288.97   14.20
  -8   1  -5   91.99   11.00
   8  -1   5   97.49    9.10
   8   0  -5    1.40    6.20
  -8   0   5   13.30    4.30
   7   0  -5   56.89    6.80
   7   0  -5   47.10    7.50
  -7   0   5   54.99    6.00
   6   0  -5    5.10    5.00
   6   0  -5   12.40    4.00
  -6   0   5   11.70    2.70
   5   0  -5   52.59    7.30
   5   0  -5   49.90    5.80
  -5   0   5   41.00    3.60
   4   0  -5  268.57   11.40
   4   0  -5  275.37   13.40
   4   0  -5  268.47   12.30
  -4   0   5  276.17   10.90
   3   0  -5 3366.66  126.69
   2   0  -5  261.07   12.30
  -1   0   5   21.30    3.30
   0   0  -5 8017.00  291.77
   0   0   5 7548.44  291.67
   0   0   5 7999.80  290.37
  -1   0  -5 4085.39  147.89
  -1   0  -5 3955.50  148.89
   1   0   5 3940.81  147.89
   1   0   5 3953.90  148.89
  -2   0  -5 3708.33  139.09
  -2   0  -5 3684.03  140.09
  -2   0  -5 3848.81  139.69
   2   0   5 3762.22  140.29
  -3   0  -5    7.10    2.10
  -3   0  -5    6.90    2.30
  -3   0  -5    4.20    1.70
   3   0   5    4.70    3.40
   3   0   5    5.30    1.50
  -4   0  -5 1024.80   38.50
  -4   0  -5  975.30   38.70
   4   0   5  980.40   38.10
  -5   0  -5  106.89    7.60
   5   0   5  117.09    6.90
  -6   0  -5    2.30    3.70
   6   0   5    3.30    3.20
  -7   0  -5  109.89    9.90
   7   0   5  113.39    8.70
  -8   0  -5   32.30    7.70
   8   0   5   41.40    6.40
   9  -1  -5    1.10    6.20
  -9   1   5    2.80    5.10
   8  -1  -5   32.20    7.00
  -8   1   5   46.30    5.20
   7  -1  -5   82.99    8.40
  -7   1   5   79.59    6.60
   6  -1  -5   81.29    7.10
   6  -1  -5   70.09    8.40
  -6   1   5   71.39    5.20
   5  -1  -5    2.40    2.50
   5  -1  -5    6.60    3.90
  -5   1   5    5.80    2.10
   4  -1  -5   39.50    3.90
   4  -1  -5   42.30    5.70
   4  -1  -5   38.90    4.00
  -4   1   5   35.40    3.00
   3  -1  -5  625.14   26.00
   3  -1  -5  637.74   24.30
   3  -1  -5  639.94   25.00
  -3   1   5  641.54   24.20
   2  -1  -5 8289.17  307.07
   2  -1  -5 8111.69  305.77
  -2   1   5 8382.66  305.47
   1  -1  -5  388.06   15.40
   1  -1  -5  397.36   17.00
  -1   1   5  409.26   15.30
   0  -1  -5   60.09    4.80
   0  -1  -5   58.69    3.30
   0   1   5   61.89    3.50
  -1  -1  -5 2757.32  103.19
  -1  -1  -5 2777.62  104.09
  -2  -1  -5 2937.31  109.79
  -2  -1  -5 2956.60  111.29
  -2  -1  -5 2981.60  110.49
  -3  -1  -5   44.20    5.10
  -3  -1  -5   50.39    4.50
   3   1   5   47.50    3.40
  -4  -1  -5   41.00    5.20
   4   1   5   48.50    4.10
  -5  -1  -5  402.86   17.90
   5   1   5  410.16   17.30
  -6  -1  -5  199.78   11.50
   6   1   5  186.88   10.70
  -7  -1  -5  242.88   14.60
   7   1   5  240.38   13.40
   9  -2  -5  143.29   13.00
  -9   2   5  165.58   10.90
   8  -2  -5    4.40    4.80
  -8   2   5    4.10    4.10
   7  -2  -5   18.80    4.80
   7  -2  -5   18.10    4.40
  -7   2   5   19.30    3.90
   6  -2  -5    5.70    3.30
   6  -2  -5    0.50    3.50
  -6   2   5   -1.00    2.60
   5  -2  -5  225.68   10.90
   5  -2  -5  232.78   11.50
  -5   2   5  211.08    9.90
   4  -2  -5  188.98    9.10
   4  -2  -5  197.28   10.00
   4  -2  -5  185.98    9.10
  -4   2   5  195.58    8.70
   3  -2  -5  331.07   13.70
   3  -2  -5  326.47   13.60
   3  -2  -5  331.67   14.90
  -3   2   5  342.07   13.70
   2  -2  -5 3784.32  141.49
   2  -2  -5 3724.23  139.99
  -2   2   5 3743.03  139.89
  -2   2   5 3827.82  140.39
   1  -2  -5  346.07   15.40
   1  -2  -5  351.16   13.30
   0  -2  -5 1277.57   48.80
   0  -2  -5 1227.98   47.40
  -1  -2  -5   81.99    6.10
  -1  -2  -5   89.79    4.90
  -2  -2  -5  174.98    8.50
  -2  -2  -5  174.88    9.80
   2   2   5  182.38    7.30
  -3  -2  -5  459.95   19.40
   3   2   5  476.35   18.50
  -4  -2  -5   63.69    6.10
   4   2   5   65.49    5.00
  -5  -2  -5  198.58   11.30
   5   2   5  205.58   10.50
  -6  -2  -5   95.29    8.50
   6   2   5   95.79    8.50
   9  -3  -5   15.60    6.50
  -9   3   5   17.80    5.20
   8  -3  -5   -5.70    4.70
  -8   3   5    3.10    4.10
   7  -3  -5    3.00    3.80
   7  -3  -5    1.50    3.60
  -7   3   5   -1.00    3.30
   6  -3  -5   26.00    4.40
   6  -3  -5   47.50    6.30
  -6   3   5   35.40    4.30
   5  -3  -5  220.28   10.50
   5  -3  -5  199.88   11.10
  -5   3   5  210.28   10.10
   4  -3  -5   35.60    5.10
   4  -3  -5   32.50    3.60
  -4   3   5   36.90    3.90
   3  -3  -5  429.96   18.30
   3  -3  -5  414.96   16.60
  -3   3   5  395.66   17.20
   2  -3  -5 1517.25   58.49
   2  -3  -5 1529.25   56.29
  -2   3   5 1474.75   56.29
  -2   3   5 1501.65   57.39
   1  -3  -5  217.48   11.20
  -1   3   5  213.48   10.00
   0  -3  -5    0.20    2.60
   0  -3  -5    2.50    1.80
  -1  -3  -5    3.20    2.90
  -1  -3  -5    0.50    1.90
  -2  -3  -5   68.69    5.40
  -3  -3  -5  291.37   13.70
   3   3   5  289.97   12.20
  -4  -3  -5  113.99    8.50
   4   3   5  120.49    7.10
  -5  -3  -5  186.28   11.50
   5   3   5  152.48    9.40
  -6  -3  -5  102.69   11.30
   9  -4  -5    2.20    5.30
  -9   4   5    5.20    5.40
   8  -4  -5   88.29    8.60
  -8   4   5   68.39    8.00
   7  -4  -5    6.90    4.00
   7  -4  -5    8.00    4.20
  -7   4   5    7.30    4.00
   6  -4  -5 1275.07   49.00
   6  -4  -5 1205.58   48.30
  -6   4   5 1219.58   48.20
   5  -4  -5 3668.33  139.19
   5  -4  -5 3702.63  138.19
  -5   4   5 3686.53  138.49
   4  -4  -5  789.32   32.20
   4  -4  -5  770.92   30.40
  -4   4   5  775.72   31.30
   3  -4  -5   31.80    3.00
   3  -4  -5   28.90    4.20
  -3   4   5   30.70    4.10
   2  -4  -5   68.19    6.60
  -2   4   5   53.49    5.20
  -2   4   5   58.89    3.60
   1  -4  -5    0.30    3.50
  -1   4   5   -5.20    2.80
   0  -4  -5  158.08    8.00
   0  -4  -5  134.39    9.80
  -1  -4  -5  177.78    9.50
  -2  -4  -5   16.80    3.90
  -3  -4  -5  272.57   13.60
   3   4   5  274.67   11.90
  -4  -4  -5  426.46   19.70
   4   4   5  405.76   17.70
  -5  -4  -5  249.78   15.40
   9  -5  -5    9.10    6.00
  -9   5   5    2.70    5.80
   8  -5  -5  113.79    9.80
  -8   5   5  113.99   10.10
   7  -5  -5  103.69    8.30
   7  -5  -5  104.29   10.00
  -7   5   5  104.49    9.10
   6  -5  -5  778.22   32.50
   6  -5  -5  840.52   34.30
  -6   5   5  805.92   33.30
   5  -5  -5  307.37   17.60
   5  -5  -5  406.36   16.00
  -5   5   5  383.96   17.20
   4  -5  -5    5.60    3.90
   4  -5  -5    4.30    2.30
  -4   5   5    3.70    3.70
   3  -5  -5  734.03   31.60
  -3   5   5  732.13   30.40
   2  -5  -5    1.30    3.80
  -2   5   5    0.40    1.90
  -2   5   5   -6.30    3.30
   1  -5  -5  282.77   15.70
  -1   5   5  263.47   11.00
  -1   5   5  287.27   14.10
   0   5   5  537.35   23.70
  -1  -5  -5   89.09    7.60
  -2  -5  -5  112.09    8.80
  -3  -5  -5    7.20    5.50
  -4  -5  -5  161.98   12.90
   9  -6  -5   54.49    7.30
  -9   6   5   70.39    8.80
   8  -6  -5  141.09   10.60
  -8   6   5  164.48   12.30
   7  -6  -5  376.76   17.60
  -7   6   5  390.16   19.00
   6  -6  -5  639.44   29.40
   6  -6  -5  646.44   26.70
  -6   6   5  665.73   28.60
   5  -6  -5  722.03   31.90
  -5   6   5  708.93   30.60
   4  -6  -5   19.60    5.70
  -4   6   5   27.10    6.00
  -3   6   5   23.00    5.30
  -2   6   5   53.29    6.60
  -1   6   5   55.79    8.00
   0   6   5   28.90    6.40
   1   6   5  386.76   20.10
   9  -7  -5   20.60    6.40
  -9   7   5   -5.50    8.40
   8  -7  -5   52.79    6.80
  -8   7   5   42.70    8.50
  -7   7   5   42.20    8.40
  -6   7   5  205.08   14.50
  -5   7   5  809.92   35.00
  -4   7   5   11.00    6.30
  -3   7   5   30.00    7.50
  -2   7   5  180.48   13.70
  -1   7   5   -5.30    6.20
   0   7   5  124.49   14.30
   1   7   5  456.95   24.80
   2   7   5   39.80   11.00
  -8   8   5   48.40   10.00
  -7   8   5   12.80    8.60
  -6   8   5   31.60    8.20
  -5   8   5   64.79   10.40
  -4   8   5   20.40    8.10
  -3   8   5    0.90    8.00
  -2   8   5  121.69   15.30
  -1   8   5   84.49   12.60
   0   8   5    6.00   10.20
  -7   9   5   47.40   12.00
  -6   9   5  -10.30    9.80
  -5   9   5   39.70   10.70
  -4   9   5   92.69   13.20
  -3   9   5   22.80   10.50
  -2   9   5   53.09   12.80
  -1   9  -6  232.88   26.20
  -1   9  -6  254.87   20.30
  -2   9  -6  -16.20    8.70
  -2   9  -6    8.50   12.60
  -3   9  -6  123.89   15.30
  -3   9  -6   96.09   15.90
  -4   9  -6  132.89   20.50
  -4   9  -6  129.89   14.90
  -5   9  -6   26.30   11.30
  -5   9  -6   36.70    9.00
  -6   9  -6   22.80   12.20
  -6   9  -6   12.40    8.70
  -7   9  -6   48.60   14.10
  -7   9  -6   78.69   11.30
   1   8  -6  -12.10    9.30
   1   8  -6    4.80   13.40
   0   8  -6   25.80    9.20
   0   8  -6   17.40   11.60
  -1   8  -6   75.99   13.70
  -1   8  -6   86.09   10.50
  -2   8  -6   -7.70   10.00
  -2   8  -6   -3.50    6.70
  -3   8  -6   57.99   11.60
  -3   8  -6   64.69    8.60
  -4   8  -6  139.09   16.80
  -4   8  -6  151.88   12.50
  -5   8  -6   18.80    6.60
  -5   8  -6   -0.10    8.90
  -6   8  -6    4.40    6.80
  -6   8  -6    7.70    9.70
  -7   8  -6   13.10    8.50
  -7   8  -6   10.10    9.60
  -8   8  -6   -8.10    8.90
   2   7  -6  200.28   16.30
   2   7  -6  215.38   23.70
   1   7  -6  549.45   26.20
   1   7  -6  555.24   32.10
   0   7  -6   16.40    6.70
   0   7  -6   11.80    9.50
  -1   7  -6  104.69   11.10
  -1   7  -6  141.09   15.50
  -2   7  -6   87.89    9.90
  -2   7  -6   98.49   13.80
  -3   7  -6   10.10    7.80
  -3   7  -6    9.20    4.90
  -4   7  -6   57.99    9.60
  -4   7  -6   64.99    7.70
  -5   7  -6 1506.35   61.59
  -5   7  -6 1483.55   59.29
  -6   7  -6  256.97   17.90
  -6   7  -6  247.18   15.20
  -7   7  -6   11.80    8.10
  -7   7  -6   28.80    7.40
  -8   7  -6   18.00    8.50
   3   6  -6  280.67   17.50
   3   6  -6  287.47   24.80
   2   6  -6  444.46   21.20
   2   6  -6  459.05   27.10
   1   6  -6   21.80    8.30
   1   6  -6   24.70    5.90
   0   6  -6  348.87   18.20
   0   6  -6  456.15   23.50
  -1   6  -6  189.08   11.50
  -1   6  -6  215.58   15.80
  -2   6  -6  161.98    9.80
  -2   6  -6  148.69   13.50
  -3   6  -6    7.80    5.80
  -3   6  -6    1.10    4.00
  -4   6  -6  277.77   16.70
  -4   6  -6  255.37   13.80
  -5   6  -6  216.98   12.70
  -5   6  -6  208.58   14.70
  -6   6  -6   53.49    7.30
  -6   6  -6   50.29    8.40
  -7   6  -6  301.07   16.40
  -7   6  -6  265.17   16.70
  -8   6  -6   57.89    9.00
  -9   6  -6  118.29   15.00
   5   5  -6    2.20   12.70
   5   5  -6    3.40    6.00
   4   5  -6  212.08   19.70
   4   5  -6  188.88   13.50
   3   5  -6   61.79    7.70
   3   5  -6   67.89   10.90
   2   5  -6  221.98   11.60
   2   5  -6  191.08   17.10
   1   5  -6  175.68   10.40
   1   5  -6  165.68   14.30
   0   5  -6  134.49    8.50
   0   5  -6  120.19   11.70
  -1   5  -6   14.90    5.60
  -1   5  -6   14.50    3.60
  -2   5  -6   96.79    9.30
  -2   5  -6   88.29    6.60
  -3   5  -6 1268.17   51.49
  -3   5  -6 1257.67   49.30
  -4   5  -6  208.78   11.00
  -4   5  -6  193.88   12.80
  -5   5  -6  987.30   40.70
  -5   5  -6 1038.70   41.80
  -6   5  -6    6.90    5.30
  -6   5  -6    6.60    4.70
  -7   5  -6  438.86   21.00
  -8   5  -6   -2.70    6.40
  -9   5  -6   10.20    8.20
   5   4  -6  697.13   30.70
   5   4  -6  726.53   35.70
   5   4  -6  698.73   30.00
   4   4  -6  416.36   19.10
   4   4  -6  434.66   24.00
   3   4  -6    1.10    3.60
   3   4  -6    4.60    6.50
   2   4  -6  299.47   18.00
   2   4  -6  292.67   13.30
   1   4  -6  459.75   19.10
   1   4  -6  468.05   23.00
   0   4  -6   27.50    3.60
   0   4  -6   28.00    5.50
  -1   4  -6 1125.69   46.10
  -1   4  -6 1120.79   43.30
  -2   4  -6  674.33   27.00
  -2   4  -6  679.83   29.20
  -3   4  -6   63.19    5.40
  -3   4  -6   49.50    7.10
  -4   4  -6  452.75   20.20
  -4   4  -6  497.95   21.60
  -5   4  -6 1389.46   54.29
  -5   4  -6 1387.86   54.19
  -6   4  -6  237.98   13.00
  -7   4  -6   19.20    5.30
  -8   4  -6   53.29    8.10
  -9   4  -6   11.80    7.90
   6   3  -6   23.20    9.20
   6   3  -6   15.20    5.80
   5   3  -6  128.99    9.60
   5   3  -6  109.09   15.20
   4   3  -6   42.40    4.70
   4   3  -6   40.60    8.20
   3   3  -6  396.96   19.90
   3   3  -6  386.36   16.20
   2   3  -6    9.30    1.90
   2   3  -6   10.20    4.60
   2   3  -6   15.90    2.60
   1   3  -6   79.29    8.10
   1   3  -6   81.09    4.10
   1   3  -6   85.19    4.90
   0   3  -6   17.30    4.20
   0   3  -6   17.20    2.30
   0  -3   6   13.00    2.40
  -1   3  -6   76.99    7.10
  -1   3  -6   71.39    4.60
  -2   3  -6   80.99    5.20
  -2   3  -6   71.59    6.80
  -3   3  -6   44.50    6.30
  -3   3  -6   45.40    4.60
  -4   3  -6 2049.99   81.99
  -4   3  -6 2273.17   82.39
  -5   3  -6    3.60    3.60
  -6   3  -6  563.94   24.30
  -7   3  -6  103.39    9.40
  -8   3  -6   21.20    6.90
  -9   3  -6  111.09   13.40
   7   2  -6   53.99    7.70
   7   2  -6   37.50    9.80
   6   2  -6    8.20    4.90
   6   2  -6    5.50    8.30
  -6  -2   6   14.40    3.30
   5   2  -6    6.90    3.40
   5   2  -6   10.90    5.90
  -5  -2   6    6.30    2.50
   4   2  -6  521.65   24.50
   3   2  -6  612.34   27.40
   2   2  -6   42.80    6.10
   1   2  -6 1540.45   60.39
   0   2  -6 2313.47   85.39
   0   2  -6 2282.87   87.89
   0  -2   6 2282.67   85.49
  -1   2  -6  804.22   30.80
  -1   2  -6  827.42   32.80
   1  -2   6  780.42   31.00
  -2   2  -6 1407.46   53.09
  -2   2  -6 1392.36   54.29
  -3   2  -6  432.86   18.70
  -3   2  -6  434.86   17.90
  -4   2  -6   20.30    3.90
  -4   2  -6   14.70    3.40
   4  -2   6   15.20    4.00
  -5   2  -6    9.50    3.70
  -6   2  -6    8.00    4.30
  -7   2  -6    4.40    4.60
  -8   2  -6   35.50    7.30
   8   1  -6    2.10    6.60
   7   1  -6   82.59    9.70
   7   1  -6   49.20    9.10
  -7  -1   6   62.49    6.60
   6   1  -6   23.70    5.30
   6   1  -6   18.10    6.40
  -6  -1   6   15.50    2.90
   5   1  -6  295.97   14.30
   5   1  -6  301.87   16.60
  -5  -1   6  291.77   12.10
   4   1  -6    2.80    4.50
   3   1  -6  309.87   15.30
   2   1  -6 4007.10  150.98
   1   1  -6 3224.18  121.79
   0   1  -6    2.20    1.10
   0   1  -6    1.00    2.30
   0  -1   6    1.60    1.30
  -1   1  -6 5623.84  210.48
  -1   1  -6 5647.93  208.98
   1  -1   6 5649.13  209.18
  -2   1  -6 8479.55  349.17
  -2   1  -6 9999.00  350.56
  -2   1  -6 9849.11  349.67
  -3   1  -6  254.77   12.00
  -3   1  -6  263.47   11.40
   3  -1   6  250.47   12.60
  -4   1  -6  106.09    6.70
  -4   1  -6  106.99    6.60
   4  -1   6   91.59    8.40
  -5   1  -6  243.38   12.00
  -6   1  -6  177.28   10.70
   6  -1   6  165.38    9.10
  -7   1  -6   72.69    7.60
   7  -1   6   66.09    7.20
  -8   1  -6   25.70    7.20
   8  -1   6   14.70    5.10
   8   0  -6    1.90    5.90
  -8   0   6   10.50    4.00
   7   0  -6    5.90    6.50
   7   0  -6   15.90    5.00
  -7   0   6    9.50    3.10
   6   0  -6  259.87   14.90
   6   0  -6  261.37   13.70
  -6   0   6  258.57   11.10
   5   0  -6  140.29   10.60
   5   0  -6  139.79    7.80
   5   0  -6  139.09    8.70
  -5   0   6  142.09    6.30
   4   0  -6   40.60    4.30
   3   0  -6 1804.82   69.59
   2   0  -6  833.42   33.70
   1   0  -6  114.89    7.50
   0   0  -6  270.07   11.00
   0   0  -6  293.57   13.10
   0   0   6  277.27   11.20
  -1   0  -6  133.69    8.10
  -1   0  -6  128.09    6.00
  -2   0  -6   72.29    3.80
  -2   0  -6   76.59    4.50
  -2   0  -6   61.59    5.60
  -3   0  -6 1545.55   58.49
  -3   0  -6 1526.75   58.79
  -4   0  -6  235.88   11.10
  -4   0  -6  218.38   11.00
  -5   0  -6    4.80    3.80
   5   0   6    2.70    2.50
  -6   0  -6  191.98   11.20
   6   0   6  196.98   10.20
  -7   0  -6  101.89   10.40
   7   0   6  122.39    8.90
   8  -1  -6    9.50    5.70
  -8   1   6    4.90    3.80
   7  -1  -6  169.08   12.50
   7  -1  -6  168.48   11.20
  -7   1   6  183.08    9.00
   6  -1  -6   16.60    5.50
   6  -1  -6   12.30    4.20
  -6   1   6    7.40    2.70
   5  -1  -6   28.80    3.80
   5  -1  -6   31.50    5.10
  -5   1   6   28.60    2.90
   4  -1  -6  132.39    6.60
   4  -1  -6  142.29    9.10
   4  -1  -6  144.19    7.70
  -4   1   6  141.89    6.20
   3  -1  -6  166.28    7.70
   3  -1  -6  157.78    9.40
   2  -1  -6 3723.43  141.69
   2  -1  -6 3754.42  140.09
  -2   1   6 3777.22  139.49
  -2   1   6 3811.02  139.79
   1  -1  -6  232.28   11.70
   1  -1  -6  235.88    9.50
  -1   1   6  240.78    9.50
   0  -1  -6 2537.55   92.79
   0  -1  -6 2443.66   94.29
  -1  -1  -6  327.57   15.00
  -1  -1  -6  347.67   13.80
  -2  -1  -6   29.10    3.30
  -2  -1  -6   31.30    2.40
  -2  -1  -6   37.60    4.90
  -3  -1  -6   84.69    6.70
  -3  -1  -6   82.89    5.40
  -4  -1  -6   67.19    6.70
  -4  -1  -6   56.09    5.60
   4   1   6   62.99    4.50
  -5  -1  -6   24.50    4.40
   5   1   6   28.90    3.60
  -6  -1  -6  200.88   11.90
   6   1   6  185.98   10.40
  -7  -1  -6  422.06   20.20
   7   1   6  382.66   18.30
   9  -2  -6   48.10    8.60
  -9   2   6   44.60    6.20
   8  -2  -6  261.77   15.20
  -8   2   6  272.77   12.80
   7  -2  -6   11.10    4.70
   7  -2  -6   13.50    4.50
  -7   2   6    1.20    3.10
   6  -2  -6 1437.66   56.49
   6  -2  -6 1492.55   56.59
  -6   2   6 1411.56   54.89
   5  -2  -6 3705.23  138.29
   5  -2  -6 3742.03  138.89
  -5   2   6 3602.64  137.19
   4  -2  -6    3.50    3.10
   4  -2  -6    3.00    2.00
   4  -2  -6    1.30    2.40
  -4   2   6    1.10    2.00
   3  -2  -6   -2.00    2.20
   3  -2  -6   -1.90    1.40
  -3   2   6   -0.90    1.80
   2  -2  -6  227.28    9.30
   2  -2  -6  207.58   11.00
  -2   2   6  229.68    9.20
  -2   2   6  217.88    9.70
   1  -2  -6  229.58   11.50
   1  -2  -6  230.48    9.90
   1  -2  -6  242.78    9.20
   0  -2  -6   68.59    3.90
   0  -2  -6   48.40    5.80
  -1  -2  -6 1012.80   41.30
  -1  -2  -6 1072.09   40.00
  -2  -2  -6   29.60    3.50
  -2  -2  -6   22.20    4.30
  -3  -2  -6   28.10    4.70
  -3  -2  -6   28.50    3.90
   3   2   6   22.50    2.80
  -4  -2  -6  643.04   27.00
   4   2   6  669.53   25.70
  -5  -2  -6  159.28   10.40
   5   2   6  167.88    9.00
  -6  -2  -6   13.10    6.00
   6   2   6   21.10    4.40
   9  -3  -6   13.70    6.70
  -9   3   6   -0.70    5.00
   8  -3  -6  137.39   11.00
  -8   3   6  152.28    9.10
   7  -3  -6    2.80    4.40
   7  -3  -6   -6.90    3.50
  -7   3   6    3.40    3.70
   6  -3  -6  537.15   23.40
   6  -3  -6  531.95   22.90
  -6   3   6  542.55   22.10
   5  -3  -6   13.10    3.00
   5  -3  -6   19.70    4.70
  -5   3   6   19.70    3.40
   4  -3  -6   69.09    6.60
   4  -3  -6   66.09    4.70
  -4   3   6   61.59    5.30
   3  -3  -6  701.43   27.30
   3  -3  -6  696.23   29.10
  -3   3   6  708.23   27.90
   2  -3  -6  464.25   17.80
   2  -3  -6  474.55   20.40
  -2   3   6  440.26   18.90
   1  -3  -6 1095.09   43.70
   0  -3  -6 1074.19   43.00
   0  -3  -6 1162.68   44.90
  -1  -3  -6   48.30    6.90
  -1  -3  -6   36.80    3.90
  -2  -3  -6   44.70    5.10
  -2  -3  -6   40.40    6.20
  -3  -3  -6   24.50    4.40
   3   3   6   24.40    2.60
  -4  -3  -6  282.67   14.30
   4   3   6  286.67   12.40
  -5  -3  -6  249.88   14.30
   9  -4  -6    9.70    5.40
  -9   4   6    8.70    5.30
   8  -4  -6  221.48   13.40
   8  -4  -6  223.58   12.80
  -8   4   6  201.98   11.90
   7  -4  -6  569.94   24.80
   7  -4  -6  580.04   25.20
  -7   4   6  566.84   24.10
   6  -4  -6  815.32   33.10
   6  -4  -6  811.92   34.10
  -6   4   6  826.72   33.00
   5  -4  -6 1355.66   54.59
   5  -4  -6 1408.96   53.19
  -5   4   6 1375.96   53.49
   4  -4  -6  646.24   25.50
   4  -4  -6  643.44   27.60
  -4   4   6  638.04   26.40
   3  -4  -6  648.84   27.80
   3  -4  -6  659.13   25.00
  -3   4   6  623.94   26.40
   2  -4  -6  338.57   16.90
  -2   4   6  359.16   15.70
  -2   4   6  344.27   13.60
   1  -4  -6  496.75   21.70
  -1   4   6  441.66   20.10
   0  -4  -6   -8.30    3.50
   0  -4  -6    4.00    2.60
  -1  -4  -6   88.29    9.20
  -1  -4  -6   87.69    6.70
  -2  -4  -6  200.38   10.80
  -3  -4  -6   26.30    4.80
  -4  -4  -6  241.28   13.90
  -5  -4  -6   91.89   10.20
   9  -5  -6    7.80    6.10
  -9   5   6   12.60    6.10
   8  -5  -6    2.60    5.80
   8  -5  -6    4.10    4.50
  -8   5   6   -4.20    5.40
   7  -5  -6   96.19    9.90
   7  -5  -6  101.39    8.40
  -7   5   6  114.39    9.40
   6  -5  -6  275.57   13.40
   6  -5  -6  271.57   15.00
  -6   5   6  284.17   14.30
   5  -5  -6  687.83   27.70
   5  -5  -6  694.53   30.00
  -5   5   6  692.83   28.90
   4  -5  -6  179.88   12.00
   4  -5  -6  194.98    8.90
  -4   5   6  187.68   11.00
   3  -5  -6  224.28   13.60
  -3   5   6  225.08   12.10
   2  -5  -6  227.78   13.70
  -2   5   6  220.38    9.30
  -2   5   6  222.48   12.20
   1  -5  -6    3.40    4.40
  -1   5   6   15.80    4.80
  -1  -5  -6  407.06   18.60
  -2  -5  -6  100.59    8.90
  -3  -5  -6  161.48   11.80
  -4  -5  -6  103.09   11.10
   9  -6  -6    8.50    5.60
  -9   6   6   21.90    7.20
   8  -6  -6   83.49    9.20
  -8   6   6  105.99   11.20
   7  -6  -6   10.40    6.00
   7  -6  -6    2.50    4.00
  -7   6   6   15.30    5.90
   6  -6  -6  336.77   18.60
   6  -6  -6  339.17   15.50
  -6   6   6  345.37   17.90
   5  -6  -6    5.10    5.40
  -5   6   6    6.20    5.40
   4  -6  -6  216.58   14.20
  -4   6   6  203.38   13.10
   3  -6  -6  169.68   13.10
  -3   6   6  196.18   12.50
   2  -6  -6    3.10    5.00
  -2   6   6    1.10    4.60
  -1   6   6   -0.50    5.60
   0   6   6   51.39    7.80
   1   6   6   20.00    6.60
  -3  -6  -6  385.86   20.80
   9  -7  -6    3.40    5.80
  -9   7   6   10.30    8.80
   8  -7  -6   -4.80    4.80
  -8   7   6   -6.50    7.30
  -7   7   6    7.40    7.20
  -6   7   6   19.20    7.00
  -5   7   6  165.88   13.40
  -4   7   6   63.29    8.50
  -3   7   6   21.60    6.70
  -2   7   6   64.59    8.30
  -1   7   6  257.27   16.60
   0   7   6  797.72   36.40
   1   7   6  750.82   35.30
  -8   8   6  114.89   13.10
  -7   8   6   24.60    9.30
  -6   8   6  237.38   18.00
  -5   8   6   61.69    9.90
  -4   8   6   29.30    9.60
  -3   8   6    2.60    7.90
  -2   8   6   -5.30    8.20
  -1   8   6   -0.50    9.90
   0   8   6  366.06   24.20
  -7   9   6  134.29   15.40
  -6   9   6    5.20   10.40
  -5   9   6   15.60   10.80
  -4   9   6   31.70   12.00
  -3   9   6   -8.80   10.90
  -2   9  -7   24.30    9.90
  -2   9  -7   18.70   13.30
  -3   9  -7    2.00   12.30
  -3   9  -7    8.60    8.60
  -4   9  -7   22.70   11.90
  -4   9  -7   38.20    9.10
  -5   9  -7  325.67   20.20
  -5   9  -7  303.37   25.60
  -6   9  -7   45.20   14.40
  -6   9  -7   56.09   10.00
   1   8  -7   18.80   16.00
   1   8  -7   72.09   10.90
   0   8  -7   74.09   15.90
   0   8  -7   82.29   10.40
  -1   8  -7  171.38   14.30
  -1   8  -7  173.28   21.00
  -2   8  -7   32.50   11.50
  -2   8  -7   29.20    7.90
  -3   8  -7   70.69   12.10
  -3   8  -7   81.09    9.50
  -4   8  -7   22.20   10.30
  -4   8  -7   28.40    7.20
  -5   8  -7   52.79    8.40
  -5   8  -7   33.30   11.00
  -6   8  -7   20.60    9.50
  -6   8  -7   13.10    7.90
  -7   8  -7  424.56   23.40
  -7   8  -7  425.16   25.40
  -8   8  -7    2.10    9.20
   2   7  -7  112.79   17.30
   2   7  -7  136.69   15.50
   1   7  -7   39.90   12.50
   1   7  -7   39.00    8.50
   0   7  -7  108.49   11.70
  -1   7  -7   -1.60    8.10
  -1   7  -7    0.10    5.50
  -2   7  -7  129.99   10.70
  -2   7  -7  146.89   15.10
  -3   7  -7  147.59   15.10
  -3   7  -7  165.08   11.30
  -4   7  -7  162.28   11.70
  -4   7  -7  182.18   17.20
  -5   7  -7  234.18   13.90
  -5   7  -7  204.68   17.60
  -6   7  -7   28.00    8.60
  -6   7  -7   21.90    6.70
  -7   7  -7  110.99   13.00
  -7   7  -7  112.59   15.90
  -8   7  -7    3.20    8.20
   3   6  -7   62.89   13.70
   3   6  -7   77.89    9.10
   2   6  -7   27.20   10.70
   2   6  -7   49.70    7.10
   1   6  -7  338.97   22.90
   1   6  -7  326.97   16.80
   0   6  -7   15.50    7.60
   0   6  -7   11.30    4.90
  -1   6  -7    2.10    6.70
  -1   6  -7    1.50    4.20
  -2   6  -7   30.00    7.70
  -2   6  -7   29.70    4.90
  -3   6  -7    3.30    3.90
  -3   6  -7   11.10    6.90
  -4   6  -7  735.73   33.00
  -4   6  -7  706.33   30.20
  -5   6  -7 1665.23   65.39
  -5   6  -7 1592.94   63.89
  -6   6  -7   81.19    9.70
  -6   6  -7   70.19   10.10
  -7   6  -7   25.70    7.10
  -7   6  -7   13.00    7.70
  -8   6  -7  132.09   13.70
   4   5  -7  133.59   19.00
   3   5  -7  222.88   18.60
   3   5  -7  219.98   12.80
   2   5  -7    8.00    6.90
   2   5  -7    3.60    4.90
   1   5  -7   30.90    7.80
   1   5  -7   45.70    5.40
   0   5  -7  120.59   12.90
   0   5  -7  127.09    8.20
  -1   5  -7    7.20    3.40
  -1   5  -7   -0.30    5.30
  -2   5  -7   25.20    4.10
  -2   5  -7   32.00    6.60
  -3   5  -7  335.67   18.20
  -3   5  -7  354.76   15.80
  -4   5  -7  778.22   33.20
  -4   5  -7  736.53   31.10
  -5   5  -7  126.69   11.70
  -5   5  -7   95.29    9.00
  -6   5  -7  697.73   30.00
  -6   5  -7  685.83   29.70
  -7   5  -7  223.18   14.40
  -8   5  -7    9.40    7.00
   5   4  -7    3.70   10.60
   4   4  -7  164.88   16.80
   4   4  -7  174.68   10.80
   3   4  -7  424.96   18.20
   3   4  -7  427.46   23.20
   2   4  -7    4.40    5.70
   2   4  -7    8.50    3.50
   1   4  -7   -7.70    4.60
   1   4  -7    3.70    2.90
   0   4  -7  479.15   19.20
   0   4  -7  465.65   22.60
  -1   4  -7  500.75   25.50
  -1   4  -7  633.94   23.10
  -2   4  -7  928.71   36.50
  -2   4  -7  936.71   38.90
  -3   4  -7   53.69    5.70
  -3   4  -7   66.09    8.00
  -4   4  -7   11.00    3.80
  -4   4  -7   19.40    5.50
  -5   4  -7  378.36   17.60
  -5   4  -7  347.17   17.00
  -6   4  -7   52.29    6.50
  -7   4  -7   13.80    5.90
  -8   4  -7    3.60    6.70
   6   3  -7  250.17   15.50
   6   3  -7  251.37   19.80
   5   3  -7  128.69   15.20
   4   3  -7    6.70    7.50
   3   3  -7  457.15   23.10
   2   3  -7 2147.39   84.19
   1   3  -7  478.95   22.60
   0   3  -7    9.80    4.30
   0   3  -7   14.10    2.20
   0  -3   7   10.90    2.60
  -1   3  -7 5482.35  205.98
  -1   3  -7 5474.35  203.48
  -2   3  -7 2792.92  105.89
  -2   3  -7 2854.21  107.89
  -3   3  -7  116.99    8.70
  -3   3  -7  111.29    7.00
  -4   3  -7  461.95   20.30
  -4   3  -7  448.66   19.30
  -5   3  -7  817.52   34.40
  -5   3  -7  887.91   34.20
  -6   3  -7  396.06   18.40
  -7   3  -7  555.44   24.70
  -8   3  -7  -11.30    6.30
   7   2  -7   19.30   10.30
   7   2  -7   48.60    8.60
   6   2  -7  194.38   16.40
   6   2  -7  197.18   12.80
   5   2  -7  117.19   13.00
   5   2  -7  130.39    9.00
   4   2  -7    3.80    5.10
   3   2  -7   74.29    9.00
   2   2  -7  698.73   30.40
   1   2  -7  781.72   32.80
   0   2  -7 1169.08   43.70
   0   2  -7 1177.38   46.60
   0  -2   7 1139.69   43.80
  -1   2  -7    1.30    1.90
  -1   2  -7   -1.20    3.10
   1  -2   7    2.70    2.50
  -2   2  -7  191.08   10.90
  -2   2  -7  195.78    8.90
  -3   2  -7  435.36   18.10
  -3   2  -7  437.46   19.20
  -4   2  -7  654.13   26.10
  -4   2  -7  632.34   26.50
  -5   2  -7   23.90    4.60
  -6   2  -7  195.98   11.40
  -7   2  -7    7.50    5.50
  -8   2  -7   30.50    7.60
   7   1  -7   44.40    7.20
   7   1  -7   53.29    9.60
   6   1  -7   11.40    4.70
   6   1  -7    1.70    6.50
  -6  -1   7    2.40    2.40
   5   1  -7  289.97   16.30
   5   1  -7  300.17   14.40
   4   1  -7  162.38   11.90
   3   1  -7  158.18   10.50
   2   1  -7 2418.26   92.69
   1   1  -7  147.89    9.40
   0   1  -7  499.15   21.70
   0   1  -7  499.25   19.20
   0  -1   7  504.85   19.40
  -1   1  -7 1279.37   50.39
  -1   1  -7 1295.57   48.60
  -2   1  -7  686.23   26.70
  -2   1  -7  677.73   27.90
  -3   1  -7  742.63   28.90
  -3   1  -7  715.93   29.50
  -4   1  -7  810.02   30.70
  -4   1  -7  713.73   30.30
  -5   1  -7  688.53   28.30
  -6   1  -7   45.40    6.40
  -7   1  -7  190.48   12.90
  -8   1  -7  245.28   16.20
   8   0  -7  144.09   13.10
   7   0  -7   61.49    8.70
   7   0  -7   39.90    6.40
  -7   0   7   56.59    5.20
   6   0  -7 1013.70   42.10
   6   0  -7 1072.29   43.30
   5   0  -7  699.43   29.00
   5   0  -7  706.73   30.60
   4   0  -7  116.29    6.90
   4   0  -7  126.19    9.40
   3   0  -7  573.74   25.00
   2   0  -7  545.45   23.60
   1   0  -7   29.90    4.50
   1   0  -7   25.90    1.80
  -1   0   7   25.60    2.20
   0   0  -7  162.48    9.40
   0   0  -7  161.58    6.80
   0   0   7  158.28    7.20
  -1   0  -7   48.00    3.40
  -1   0  -7   60.49    6.20
  -2   0  -7  120.49    5.70
  -2   0  -7  127.39    6.40
  -2   0  -7  122.29    8.00
  -3   0  -7  156.48    8.00
  -3   0  -7  163.48    9.30
  -4   0  -7  401.56   17.30
  -4   0  -7  397.16   17.50
  -5   0  -7   23.10    4.20
  -5   0  -7   23.60    4.60
  -6   0  -7    0.70    4.30
  -7   0  -7  321.37   17.40
   8  -1  -7   46.90    7.70
  -8   1   7   32.10    5.00
   7  -1  -7    5.80    6.60
   7  -1  -7    9.70    5.00
  -7   1   7    5.90    3.00
   6  -1  -7  483.35   21.50
   6  -1  -7  483.15   22.90
  -6   1   7  479.05   19.00
   5  -1  -7   16.90    5.10
   5  -1  -7   13.50    3.40
  -5   1   7   13.20    2.20
   4  -1  -7   55.79    7.20
   4  -1  -7   42.60    5.10
   3  -1  -7 1077.39   44.10
   3  -1  -7 1131.09   42.40
   2  -1  -7   93.89    7.30
  -2   1   7   89.69    4.10
  -2   1   7   85.49    4.50
   1  -1  -7 1319.57   49.80
   1  -1  -7 1338.67   51.99
  -1   1   7 1324.87   49.70
   0  -1  -7 4008.90  147.49
   0  -1  -7 3826.42  145.49
  -1  -1  -7  548.65   21.40
  -1  -1  -7  535.05   22.90
  -2  -1  -7 1110.39   43.40
  -2  -1  -7 1125.59   44.60
  -2  -1  -7 1157.08   42.40
  -3  -1  -7  462.85   17.80
  -3  -1  -7  455.45   20.00
  -3  -1  -7  438.16   18.90
  -4  -1  -7   75.19    6.50
  -4  -1  -7   82.79    7.80
  -5  -1  -7  245.08   12.80
  -6  -1  -7  167.18   11.90
   6   1   7  184.68    9.80
  -7  -1  -7   -4.80    6.40
   7   1   7    2.30    6.50
   9  -2  -7   31.50    7.40
   8  -2  -7  180.48   12.70
   8  -2  -7  181.58   12.80
  -8   2   7  150.58    9.40
   7  -2  -7  201.38   12.20
   7  -2  -7  209.88   13.30
  -7   2   7  194.98    9.90
   6  -2  -7 2304.37   86.89
   6  -2  -7 2202.98   86.19
  -6   2   7 2252.37   84.49
   5  -2  -7 2313.07   90.49
   5  -2  -7 2398.26   89.59
  -5   2   7 2365.26   88.29
   4  -2  -7   84.19    5.60
   4  -2  -7   88.59    5.20
   4  -2  -7   75.79    7.60
  -4   2   7   87.29    5.40
   3  -2  -7  596.64   25.80
   3  -2  -7  618.54   24.00
  -3   2   7  598.74   23.40
  -3   2   7  620.74   24.00
   2  -2  -7   20.00    2.40
   2  -2  -7   13.40    3.60
  -2   2   7   21.60    2.90
   1  -2  -7   53.89    5.60
   1  -2  -7   53.59    3.70
   1  -2  -7   50.99    2.80
   0  -2  -7   35.30    5.20
   0  -2  -7   29.40    3.20
  -1  -2  -7  784.82   31.60
  -1  -2  -7  841.72   33.40
  -2  -2  -7  167.88   10.30
  -2  -2  -7  164.28    8.50
  -3  -2  -7   22.20    5.50
  -3  -2  -7   25.50    4.10
  -4  -2  -7  216.88   11.50
  -5  -2  -7   76.19    8.60
   5   2   7   60.49    5.60
  -6  -2  -7  350.46   18.20
   9  -3  -7   24.30    6.90
  -9   3   7   14.40    5.20
   8  -3  -7    0.60    5.70
   8  -3  -7   -0.80    4.70
  -8   3   7    1.20    3.80
   7  -3  -7    8.50    5.60
   7  -3  -7    4.50    3.80
  -7   3   7    6.30    3.60
   6  -3  -7 1400.26   53.89
   6  -3  -7 1316.67   52.99
  -6   3   7 1350.46   51.99
   5  -3  -7  838.82   34.90
   5  -3  -7  849.52   33.50
  -5   3   7  836.72   33.10
   4  -3  -7   96.59    8.20
   4  -3  -7   93.19    5.90
  -4   3   7  105.59    6.70
   3  -3  -7  124.09    8.90
   3  -3  -7  133.19    6.40
  -3   3   7  122.19    7.30
   2  -3  -7 1222.08   44.90
   2  -3  -7 1222.88   47.80
  -2   3   7 1131.99   46.00
   1  -3  -7  152.98    9.80
   0  -3  -7  385.16   16.70
   0  -3  -7  416.06   18.90
  -1  -3  -7   91.79    6.10
  -1  -3  -7   91.99    8.20
  -2  -3  -7   17.30    5.10
  -2  -3  -7   18.30    3.50
  -3  -3  -7  301.57   14.40
  -4  -3  -7   28.80    5.20
  -5  -3  -7   41.80    7.20
   9  -4  -7   19.00    6.60
  -9   4   7   -9.10    5.10
   8  -4  -7  460.85   24.30
   8  -4  -7  593.94   24.90
  -8   4   7  578.04   23.30
   7  -4  -7   57.39    8.50
   7  -4  -7   78.09    8.10
  -7   4   7   85.99    7.30
   6  -4  -7   -4.10    3.30
   6  -4  -7   -9.40    4.20
  -6   4   7    5.20    4.20
   5  -4  -7   22.50    3.60
   5  -4  -7   22.60    4.60
  -5   4   7   28.30    4.80
   4  -4  -7    2.40    2.30
   4  -4  -7    2.70    3.60
  -4   4   7    3.20    3.30
   3  -4  -7   11.00    2.10
   3  -4  -7   10.90    3.90
  -3   4   7   17.00    4.10
   2  -4  -7  303.47   15.80
  -2   4   7  314.07   14.70
   1  -4  -7  480.15   22.40
  -1   4   7  488.65   20.90
   0  -4  -7   44.70    6.60
   0  -4  -7   46.30    5.30
  -1  -4  -7   -0.10    3.10
  -1  -4  -7    5.90    5.10
  -2  -4  -7    0.10    3.30
  -3  -4  -7  173.58   11.10
  -4  -4  -7   -6.90    5.40
   9  -5  -7   27.70    6.90
  -9   5   7   35.00    7.00
   8  -5  -7   14.70    5.60
   8  -5  -7   17.60    6.70
  -8   5   7   16.90    6.20
   7  -5  -7    5.90    4.30
   7  -5  -7    5.50    5.30
  -7   5   7   -1.20    5.10
   6  -5  -7  133.09   11.10
   6  -5  -7  124.69    8.70
  -6   5   7  144.09    9.90
   5  -5  -7   39.00    6.90
   5  -5  -7   23.50    3.90
  -5   5   7   37.50    5.70
   4  -5  -7  150.38   11.30
   4  -5  -7  153.88    7.70
  -4   5   7  160.08   10.30
   3  -5  -7   -1.40    4.00
  -3   5   7    0.60    4.40
   2  -5  -7  287.37   16.70
  -2   5   7  298.57   15.10
   1  -5  -7   -0.60    5.00
  -1   5   7    4.70    4.80
   0  -5  -7 1348.17   55.89
  -1  -5  -7 1047.30   42.10
  -2  -5  -7   99.99    9.30
  -3  -5  -7  120.39   11.30
   9  -6  -7   63.99    8.40
  -9   6   7   56.49    8.80
   8  -6  -7   18.80    7.30
   8  -6  -7    7.70    5.50
  -8   6   7    5.40    6.50
   7  -6  -7   57.49    7.20
   7  -6  -7   60.39    9.00
  -7   6   7   57.89    8.50
   6  -6  -7    9.60    3.80
   6  -6  -7    8.90    5.70
  -6   6   7    2.80    5.90
   5  -6  -7   32.20    7.00
  -5   6   7   43.60    7.10
   4  -6  -7  266.87   16.50
  -4   6   7  260.37   15.20
   3  -6  -7  507.75   24.80
  -3   6   7  472.45   23.10
   2  -6  -7    2.10    5.70
  -2   6   7   -4.30    5.20
  -1   6   7   50.39    7.70
   0   6   7  721.23   32.00
   1   6   7  170.08   13.80
   8  -7  -7    5.50    5.20
  -8   7   7   13.40    8.50
   7  -7  -7   75.39   11.20
  -7   7   7   75.69    9.70
   6  -7  -7   12.00    7.60
  -6   7   7   -0.10    6.70
   5  -7  -7   16.40    7.40
  -5   7   7   10.30    6.50
   4  -7  -7  504.15   26.90
  -4   7   7  523.35   24.80
  -3   7   7   19.60    7.70
  -2   7   7  513.65   25.40
  -1   7   7   78.69    9.90
   0   7   7   19.20    9.20
   1   7   7   67.79   12.00
  -8   8   7    6.80   10.30
  -7   8   7   23.40    9.70
  -6   8   7  197.48   18.10
  -5   8   7  130.29   14.00
  -4   8   7   53.29   10.50
  -3   8   7   65.69   10.60
  -2   8   7   13.30   10.50
  -1   8   7   -7.90    9.60
  -6   9   7   24.40   11.60
  -5   9   7   13.10   11.40
  -4   9   7   -7.10   11.80
  -2   9  -8   17.20   14.10
  -2   9  -8   -2.20    9.30
  -3   9  -8   37.90   10.00
  -3   9  -8   41.80   15.00
  -4   9  -8   33.00   13.30
  -4   9  -8   20.90    8.60
  -5   9  -8  309.97   19.60
  -5   9  -8  261.27   25.40
  -6   9  -8   21.00   12.70
  -6   9  -8    4.90    9.50
   0   8  -8  221.68   16.70
   0   8  -8  239.98   26.20
  -1   8  -8   64.99    9.40
  -1   8  -8   73.99   14.70
  -2   8  -8   -1.60    6.30
  -2   8  -8   17.60   11.70
  -3   8  -8   72.79    9.10
  -3   8  -8   75.69   13.60
  -4   8  -8  963.70   44.70
  -4   8  -8  912.11   39.60
  -5   8  -8  386.36   20.60
  -5   8  -8  363.46   24.20
  -6   8  -8   46.40    8.60
  -6   8  -8   40.90   10.70
  -7   8  -8    4.30   11.60
  -7   8  -8   20.80    9.00
   2   7  -8   88.59   15.60
   1   7  -8   69.19    8.90
   1   7  -8   52.09   14.30
   0   7  -8   -0.80    6.30
   0   7  -8   15.10   10.50
  -1   7  -8    8.70    5.80
  -1   7  -8   15.80   10.00
  -2   7  -8    9.60    8.30
  -2   7  -8    4.50    5.40
  -3   7  -8   27.00    5.90
  -3   7  -8   27.00    9.10
  -4   7  -8  265.37   18.90
  -4   7  -8  264.47   14.90
  -5   7  -8   91.89   10.70
  -5   7  -8  106.59   14.40
  -6   7  -8   43.20   10.50
  -6   7  -8   26.70    7.40
  -7   7  -8   15.30    7.60
  -7   7  -8    2.30    9.10
  -8   7  -8    2.90    9.00
   3   6  -8   72.19   13.50
   2   6  -8  319.67   17.40
   2   6  -8  325.07   23.40
   1   6  -8   40.10    6.80
   1   6  -8   34.60    9.90
   0   6  -8   71.29    8.90
   0   6  -8   59.89   10.30
  -1   6  -8  803.52   35.40
  -1   6  -8  979.20   41.00
  -2   6  -8  590.54   24.40
  -2   6  -8  557.44   28.70
  -3   6  -8  122.89    9.20
  -3   6  -8  122.89   13.10
  -4   6  -8  102.69   12.80
  -4   6  -8  110.79    9.60
  -5   6  -8  317.27   19.90
  -5   6  -8  305.47   16.20
  -6   6  -8   25.30    6.60
  -6   6  -8   31.00    7.40
  -7   6  -8   -1.20    8.40
  -7   6  -8    3.10    6.80
  -8   6  -8  175.78   15.10
   4   5  -8  145.09   21.20
   3   5  -8  254.67   20.00
   3   5  -8  237.08   13.70
   2   5  -8  553.94   28.20
   2   5  -8  507.55   22.20
   1   5  -8   19.20    7.60
   1   5  -8   26.90    4.50
   0   5  -8  380.86   16.30
   0   5  -8  362.86   21.00
  -1   5  -8 1364.16   52.59
  -1   5  -8 1365.16   56.59
  -2   5  -8  941.71   37.60
  -2   5  -8  961.80   40.90
  -3   5  -8  145.79   12.30
  -3   5  -8  142.09    8.90
  -4   5  -8  160.88   13.30
  -4   5  -8  148.09   10.00
  -5   5  -8  185.78   11.80
  -5   5  -8  191.58   14.30
  -6   5  -8  305.57   16.70
  -6   5  -8  280.97   15.70
  -7   5  -8  139.19   11.90
  -8   5  -8   -1.30    6.80
   5   4  -8   52.39   12.50
   4   4  -8  233.78   20.20
   3   4  -8    5.50    7.40
   2   4  -8  113.39   12.50
   1   4  -8 1391.76   54.69
   1   4  -8 1478.35   59.79
   1   4  -8 1510.95   55.29
   0   4  -8  440.66   18.10
   0   4  -8  449.76   22.20
  -1   4  -8   32.60    5.90
  -1   4  -8   42.50    4.60
  -2   4  -8   11.90    5.20
  -2   4  -8    3.00    3.00
  -3   4  -8  582.64   24.10
  -3   4  -8  577.34   26.70
  -4   4  -8   40.30    6.70
  -4   4  -8   51.89    6.00
  -5   4  -8   79.29    9.90
  -5   4  -8   86.99    8.30
  -6   4  -8  786.82   32.70
  -6   4  -8  802.42   33.10
  -7   4  -8   79.69   10.20
  -8   4  -8  158.28   13.70
   6   3  -8  130.59   12.10
   6   3  -8  115.49   14.90
   5   3  -8  161.48   16.30
   4   3  -8   78.39   10.70
   3   3  -8   36.00    7.90
   2   3  -8  160.68   13.20
   1   3  -8   25.90    5.90
   0   3  -8  915.71   34.00
   0  -3   8  865.21   34.20
  -1   3  -8 2165.68   82.19
  -1   3  -8 2215.98   85.29
  -2   3  -8  395.56   18.80
  -2   3  -8  378.16   16.20
  -3   3  -8  197.68   12.50
  -3   3  -8  215.88   10.60
  -4   3  -8  275.97   13.30
  -4   3  -8  287.77   15.00
  -5   3  -8  116.79    8.80
  -5   3  -8  131.19    9.50
  -6   3  -8   64.59    8.20
  -7   3  -8  652.43   28.80
  -8   3  -8  199.38   14.70
   7   2  -8    3.30    6.90
   7   2  -8    8.30   10.40
   6   2  -8   70.29    8.00
   6   2  -8   60.49   10.40
   5   2  -8   64.49    9.50
   5   2  -8   41.10    5.70
   4   2  -8   15.30    6.40
   3   2  -8 1829.12   72.39
   2   2  -8  131.89   10.50
   1   2  -8   60.49    8.30
   0   2  -8    5.10    3.90
   0   2  -8    7.00    1.60
   0  -2   8    2.80    2.10
  -1   2  -8  280.17   11.70
  -1   2  -8  275.97   14.60
  -2   2  -8    3.90    2.10
  -2   2  -8   -0.50    3.80
  -3   2  -8   64.09    7.40
  -3   2  -8   53.19    5.40
  -4   2  -8  985.60   39.30
  -4   2  -8 1014.30   40.10
  -5   2  -8   47.80    7.00
  -5   2  -8   47.80    5.90
  -6   2  -8  183.98   11.30
  -7   2  -8   13.80    6.00
  -8   2  -8   43.80    9.00
   7   1  -8   -0.80    5.80
   7   1  -8    7.40    9.20
   6   1  -8   87.29   10.90
   6   1  -8  114.09    9.80
   5   1  -8  146.89    9.20
   5   1  -8  124.69   12.30
   4   1  -8  457.95   21.80
   3   1  -8  378.36   18.80
   2   1  -8    8.10    4.30
   1   1  -8  113.09    8.90
   0   1  -8  173.98   10.90
   0   1  -8  188.08    7.80
   0  -1   8  190.38    8.30
  -1   1  -8   39.60    3.30
  -1   1  -8   43.50    5.70
  -2   1  -8  206.18    9.20
  -2   1  -8  194.08   11.10
  -3   1  -8   11.00    4.20
  -3   1  -8   11.50    3.00
  -4   1  -8  331.37   15.50
  -4   1  -8  357.86   16.10
  -5   1  -8 1607.44   61.99
  -5   1  -8 1621.94   62.49
  -6   1  -8  223.28   12.90
   8   0  -8   -7.30    6.30
   7   0  -8   41.40    8.90
   7   0  -8   26.60    6.10
   6   0  -8 1313.37   51.79
   6   0  -8 1287.67   52.79
   5   0  -8 1946.61   77.49
   5   0  -8 2016.00   76.09
   4   0  -8  778.42   31.50
   4   0  -8  793.52   33.60
   3   0  -8  453.65   21.20
   2   0  -8   16.60    4.60
   1   0  -8    7.10    1.20
   1   0  -8   11.20    3.90
  -1   0   8    7.10    1.60
   0   0  -8    2.70    1.50
   0   0  -8    0.00    3.00
   0   0   8    1.80    2.00
  -1   0  -8  473.05   18.90
  -1   0  -8  484.25   21.30
  -2   0  -8  525.55   20.60
  -2   0  -8  520.15   22.30
  -2   0  -8  492.55   19.90
  -3   0  -8   57.69    6.90
  -3   0  -8   63.19    5.20
  -4   0  -8  959.20   38.90
  -4   0  -8 1018.50   39.60
  -5   0  -8  103.29    7.90
  -5   0  -8   95.39    8.20
  -6   0  -8  191.28   12.20
  -7   0  -8  676.23   30.00
   8  -1  -8   71.69    8.80
   8  -1  -8   42.30    9.50
   7  -1  -8  498.05   23.10
   7  -1  -8  494.05   24.10
   6  -1  -8 2048.50   80.69
   6  -1  -8 2087.09   79.69
   5  -1  -8  565.64   23.80
   5  -1  -8  557.84   25.80
   4  -1  -8  388.96   17.70
   4  -1  -8  288.87   14.50
   3  -1  -8    9.50    4.30
   3  -1  -8    0.50    1.80
   2  -1  -8  156.58   10.30
  -2   1   8  170.28    6.90
  -2   1   8  165.58    7.40
   1  -1  -8  168.28   10.30
   1  -1  -8  178.98    7.60
  -1   1   8  176.18    7.70
   0  -1  -8   45.80    5.90
   0  -1  -8   48.70    3.40
  -1  -1  -8    7.20    2.20
  -1  -1  -8    8.50    3.10
  -2  -1  -8  734.03   30.80
  -2  -1  -8  841.52   32.50
  -3  -1  -8 2408.86   91.19
  -3  -1  -8 2488.55   93.59
  -4  -1  -8   68.59    8.10
  -4  -1  -8   78.79    6.90
  -5  -1  -8    6.60    4.70
  -6  -1  -8    5.90    6.00
   8  -2  -8  282.57   16.70
   8  -2  -8  298.77   17.10
   7  -2  -8   39.70    6.20
   7  -2  -8   49.60    7.20
  -7   2   8   44.00    5.10
   6  -2  -8  142.19   11.20
   6  -2  -8  141.29    9.70
  -6   2   8  146.29    7.40
   5  -2  -8    7.10    3.10
   5  -2  -8    7.80    4.80
   5  -2  -8   -1.50    2.70
  -5   2   8    6.80    2.60
   4  -2  -8  293.47   13.00
   4  -2  -8  290.27   15.50
  -4   2   8  281.17   11.80
  -4   2   8  291.37   12.30
   3  -2  -8   91.39    8.20
   3  -2  -8   93.89    5.50
  -3   2   8   98.29    5.10
  -3   2   8  104.49    5.90
   2  -2  -8    1.10    3.20
   2  -2  -8    0.00    1.50
  -2   2   8    4.10    2.30
   1  -2  -8  234.78   10.20
   1  -2  -8  230.88    9.40
   1  -2  -8  238.38   12.70
   0  -2  -8   -0.60    3.40
   0  -2  -8   -0.10    2.00
  -1  -2  -8   27.60    5.30
  -1  -2  -8   20.20    3.20
  -2  -2  -8  120.09    7.20
  -2  -2  -8  114.49    9.30
  -3  -2  -8   50.29    6.60
  -3  -2  -8   59.29    6.00
  -4  -2  -8   64.09    6.60
  -4  -2  -8   55.79    7.20
  -5  -2  -8   -3.90    5.10
  -6  -2  -8   18.30    6.50
   9  -3  -8  198.98   14.90
   8  -3  -8    6.40    4.90
   8  -3  -8    7.00    5.90
  -8   3   8    9.10    4.10
   7  -3  -8    3.50    4.10
   7  -3  -8   11.70    5.40
  -7   3   8    4.20    3.50
   6  -3  -8  636.04   27.70
   6  -3  -8  668.43   29.00
  -6   3   8  687.53   26.70
   5  -3  -8   -1.60    4.10
   5  -3  -8    1.70    2.80
  -5   3   8    4.60    3.20
   4  -3  -8    6.10    3.80
   4  -3  -8    9.60    2.60
  -4   3   8   13.20    3.30
   3  -3  -8    8.00    2.00
   3  -3  -8    4.70    3.30
  -3   3   8    6.70    3.10
   2  -3  -8    0.20    1.40
   2  -3  -8   -1.20    3.00
  -2   3   8    8.10    3.20
   1  -3  -8  335.47   16.70
   0  -3  -8 5007.70  187.48
   0  -3  -8 5051.29  189.68
  -1  -3  -8 3330.67  121.09
  -1  -3  -8 3109.39  123.09
  -2  -3  -8   89.09    7.20
  -2  -3  -8  111.79   10.40
  -3  -3  -8    3.00    3.50
  -3  -3  -8    7.10    5.60
  -4  -3  -8   19.70    5.20
  -5  -3  -8   31.10    7.40
   9  -4  -8  116.09   12.00
  -9   4   8   84.59    9.10
   8  -4  -8  157.68   12.80
   8  -4  -8  186.68   12.60
  -8   4   8  156.98   10.30
   7  -4  -8  169.68   10.90
   7  -4  -8  165.38   12.70
  -7   4   8  159.58   10.00
   6  -4  -8  114.99   11.00
   6  -4  -8  133.89    9.00
  -6   4   8  131.99    9.10
   5  -4  -8    7.10    3.10
   5  -4  -8   -0.50    4.40
  -5   4   8    6.70    4.10
   4  -4  -8   -1.30    2.20
   4  -4  -8    0.40    3.90
  -4   4   8    6.30    4.00
   3  -4  -8  309.07   16.90
   3  -4  -8  341.17   13.60
  -3   4   8  338.17   15.70
   2  -4  -8   -1.40    3.70
  -2   4   8    6.50    3.80
   1  -4  -8  830.62   35.50
  -1   4   8  822.02   33.60
   0  -4  -8  567.24   24.00
   0  -4  -8  579.44   26.70
  -1  -4  -8   10.70    5.80
  -1  -4  -8    8.90    3.70
  -2  -4  -8   12.40    6.60
  -2  -4  -8   10.80    4.20
  -3  -4  -8    9.90    5.30
  -4  -4  -8  205.08   13.70
   9  -5  -8   17.30    6.80
  -9   5   8   32.10    6.70
   8  -5  -8   -5.40    4.80
   8  -5  -8    0.30    6.30
  -8   5   8    8.00    6.00
   7  -5  -8  139.99    9.80
   7  -5  -8  119.19   12.10
  -7   5   8  133.69   10.50
   6  -5  -8   -1.00    4.90
   6  -5  -8    0.50    3.40
  -6   5   8    3.20    5.20
   5  -5  -8   53.59    5.80
   5  -5  -8   62.69    8.10
  -5   5   8   74.49    8.20
   4  -5  -8   56.19    8.70
   4  -5  -8   76.99    5.20
  -4   5   8   64.99    8.30
   3  -5  -8  104.89    9.90
  -3   5   8   88.79    9.20
   2  -5  -8 2624.24  101.09
  -2   5   8 2548.65   98.89
   1  -5  -8 1077.69   45.10
  -1   5   8 1025.60   42.80
   0  -5  -8  241.28   16.20
  -1  -5  -8  393.26   18.70
  -2  -5  -8   78.39    9.10
  -3  -5  -8   52.79    7.60
   9  -6  -8  152.68   13.40
  -9   6   8  156.78   13.80
   8  -6  -8   23.80    7.90
   8  -6  -8   12.90    5.70
  -8   6   8   11.10    7.20
   7  -6  -8   46.40    6.20
   7  -6  -8   42.40    8.40
  -7   6   8   58.09    8.30
   6  -6  -8    4.10    6.50
   6  -6  -8   -4.20    3.80
  -6   6   8    2.30    5.90
   5  -6  -8   19.30    7.00
  -5   6   8   11.40    6.60
   4  -6  -8  234.98   16.10
  -4   6   8  237.78   14.60
   3  -6  -8  393.56   21.70
  -3   6   8  401.76   20.20
   2  -6  -8    7.80    5.90
  -2   6   8   -0.40    5.70
   1  -6  -8    5.00    6.20
  -1   6   8    0.50    6.50
   0   6   8  563.54   26.90
   1   6   8   31.70    8.70
   8  -7  -8   11.90    9.10
   8  -7  -8   38.80    6.80
  -8   7   8   44.40    9.20
   7  -7  -8   16.10    8.30
  -7   7   8   30.60    8.70
   6  -7  -8    0.90    7.50
  -6   7   8    6.30    7.30
   5  -7  -8    4.20    7.10
  -5   7   8  -10.30    7.40
   4  -7  -8  258.87   18.50
  -4   7   8  225.68   16.20
   3  -7  -8   18.80    8.00
  -3   7   8   15.60    7.60
  -2   7   8   66.89   10.40
  -1   7   8   13.10    8.20
   0   7   8   18.70    9.70
  -7   8   8    7.90   10.10
  -6   8   8  195.28   18.70
  -5   8   8  170.68   18.20
  -4   8   8    5.00    9.10
  -3   8   8   58.29   11.90
  -2   8   8  -26.00    9.80
  -1   8   8   36.20   11.90
  -3   9  -9   -3.00   13.50
  -3   9  -9   15.50    9.20
  -4   9  -9  -10.40   11.80
  -4   9  -9   -4.60    8.40
  -5   9  -9    6.50   13.00
  -5   9  -9    7.50    8.90
   0   8  -9   96.19   17.30
   0   8  -9  108.89   14.00
  -1   8  -9  350.76   26.60
  -1   8  -9  297.27   18.30
  -2   8  -9  145.79   13.10
  -2   8  -9  159.78   20.10
  -3   8  -9  100.39   14.00
  -3   8  -9   99.09   12.00
  -4   8  -9   56.59   12.80
  -4   8  -9   56.39    8.40
  -5   8  -9  259.37   17.30
  -5   8  -9  228.78   21.10
  -6   8  -9    5.70    7.80
  -6   8  -9   24.30   11.40
  -7   8  -9   19.00   11.60
  -7   8  -9    7.40    9.00
   2   7  -9  108.59   17.30
   1   7  -9   10.70    7.90
   1   7  -9    3.90   11.90
   0   7  -9   29.20   11.40
   0   7  -9   63.89    7.70
  -1   7  -9  384.16   25.50
  -1   7  -9  387.56   18.90
  -2   7  -9   14.00    5.80
  -2   7  -9    1.20    8.70
  -3   7  -9  317.77   16.80
  -3   7  -9  340.87   22.10
  -4   7  -9  119.69   11.60
  -4   7  -9  154.38   16.30
  -5   7  -9  177.98   13.30
  -5   7  -9  174.18   17.90
  -6   7  -9  290.37   21.50
  -6   7  -9  282.57   17.60
  -7   7  -9  149.29   15.00
  -7   7  -9  115.89   18.00
   3   6  -9   -1.90   12.50
   2   6  -9  276.17   22.40
   1   6  -9  518.55   29.30
   1   6  -9  530.35   22.80
   0   6  -9  201.18   11.60
   0   6  -9  172.88   17.00
  -1   6  -9   38.90    5.70
  -1   6  -9   40.50    8.90
  -2   6  -9   62.69    9.80
  -2   6  -9   58.09    7.30
  -3   6  -9  419.76   18.90
  -3   6  -9  381.16   22.50
  -4   6  -9  133.69   10.20
  -4   6  -9  135.19   15.20
  -5   6  -9  137.79   15.40
  -5   6  -9  157.28   11.40
  -6   6  -9  244.28   15.60
  -6   6  -9  258.67   18.60
  -7   6  -9   -3.30    7.30
  -7   6  -9    4.50    8.70
  -8   6  -9   11.20    8.40
   4   5  -9   14.50   13.10
   3   5  -9  140.19   19.20
   2   5  -9  117.19   15.40
   1   5  -9    6.40    6.70
   1   5  -9    1.60    3.70
   0   5  -9   83.99   11.60
   0   5  -9   76.89    6.50
  -1   5  -9 1637.44   68.69
  -1   5  -9 1743.73   64.59
  -2   5  -9    8.30    4.20
  -2   5  -9    2.00    5.80
  -3   5  -9  278.77   18.00
  -3   5  -9  265.27   13.30
  -4   5  -9  315.07   15.40
  -4   5  -9  304.17   18.20
  -5   5  -9  182.58   14.60
  -5   5  -9  205.68   12.30
  -6   5  -9    9.00    7.80
  -6   5  -9    6.50    6.00
  -7   5  -9  103.09   11.90
  -8   5  -9  219.78   16.70
   5   4  -9    1.40   11.50
   4   4  -9  237.88   20.00
   3   4  -9 1068.69   47.60
   2   4  -9  277.07   19.10
   1   4  -9   20.80    6.90
   0   4  -9  145.79    7.50
   0   4  -9  138.09   12.80
  -1   4  -9  424.66   17.30
  -1   4  -9  403.96   21.80
  -2   4  -9  331.67   14.70
  -2   4  -9  335.07   18.40
  -3   4  -9    6.50    5.20
  -3   4  -9    9.30    3.60
  -4   4  -9  222.08   12.10
  -4   4  -9  224.98   14.90
  -5   4  -9   18.00    5.00
  -5   4  -9   21.00    6.70
  -6   4  -9    3.60    5.60
  -6   4  -9   14.70    5.60
  -7   4  -9  115.99   11.80
  -8   4  -9  179.88   14.90
   6   3  -9   37.90   11.90
   6   3  -9   44.70    7.50
   5   3  -9    3.70    8.90
   4   3  -9  298.97   19.50
   3   3  -9   26.40    7.40
   2   3  -9  342.47   19.40
   1   3  -9    3.20    5.30
   0   3  -9  895.31   32.40
   0   3  -9  852.31   36.50
   0  -3   9  791.22   32.60
  -1   3  -9  114.79    6.40
  -1   3  -9  113.79    9.90
  -2   3  -9  484.15   22.80
  -2   3  -9  464.25   19.50
  -3   3  -9  173.08   12.00
  -3   3  -9  154.18    8.70
  -4   3  -9    1.50    3.70
  -4   3  -9    6.20    5.10
  -5   3  -9  381.16   17.80
  -5   3  -9  388.56   18.60
  -6   3  -9  254.97   14.30
  -7   3  -9   -2.60    6.10
  -8   3  -9  134.99   14.00
   6   2  -9 1439.66   59.99
   6   2  -9 1436.16   57.69
   5   2  -9  706.83   33.10
   4   2  -9   30.70    7.70
   3   2  -9   73.09   10.70
   2   2  -9   -3.20    4.70
   1   2  -9   76.79    8.50
   0   2  -9  245.68   14.60
   0   2  -9  269.77   10.60
   0  -2   9  248.48   11.00
  -1   2  -9  354.26   18.20
  -1   2  -9  372.16   14.90
  -2   2  -9  299.97   13.10
  -2   2  -9  305.97   16.10
  -3   2  -9   88.09    8.80
  -3   2  -9  100.89    6.50
  -4   2  -9   33.20    5.90
  -5   2  -9   61.19    7.30
  -5   2  -9   62.99    6.80
  -6   2  -9 1127.49   45.20
  -7   2  -9 2294.17   88.79
   7   1  -9  385.06   20.60
   7   1  -9  376.16   23.50
   6   1  -9 1677.13   69.19
   6   1  -9 1745.33   67.39
   5   1  -9   58.89    6.50
   5   1  -9   53.79    9.10
   4   1  -9   32.50    7.20
   3   1  -9   -4.70    4.50
   2   1  -9 2450.05   94.69
   1   1  -9 1020.30   42.10
   0   1  -9  604.84   26.70
   0   1  -9  608.54   23.10
   0  -1   9  596.44   23.60
  -1   1  -9  134.99    6.50
  -1   1  -9  112.89    9.60
  -2   1  -9    5.40    2.50
  -2   1  -9    4.90    3.90
  -3   1  -9  818.92   33.30
  -3   1  -9  787.42   31.70
  -4   1  -9   53.59    6.50
  -4   1  -9   58.39    7.70
  -5   1  -9    8.60    4.40
  -5   1  -9   13.60    4.40
  -6   1  -9    9.30    5.20
  -7   1  -9   25.70    7.30
   8   0  -9  351.56   20.00
   7   0  -9   22.70    6.00
   7   0  -9   46.10    9.70
   6   0  -9  165.68   11.30
   6   0  -9  159.18   14.60
   5   0  -9   19.00    6.40
   5   0  -9    9.80    3.70
   4   0  -9   55.29    5.40
   4   0  -9   63.39    8.00
   3   0  -9  255.77   14.80
   2   0  -9  111.19    9.70
   1   0  -9  642.54   24.60
   1   0  -9  655.73   28.20
   0   0  -9  130.49    6.00
   0   0  -9  115.59    9.30
  -1   0  -9    3.60    3.70
  -1   0  -9    4.50    2.10
  -2   0  -9  239.88   10.30
  -2   0  -9  204.68    9.50
  -2   0  -9  219.68   12.40
  -3   0  -9   10.50    3.10
  -3   0  -9    9.50    4.20
  -4   0  -9  407.96   18.80
  -4   0  -9  391.76   17.70
  -5   0  -9  544.05   24.00
  -5   0  -9  553.04   23.60
  -6   0  -9   11.00    6.30
  -7   0  -9   74.19    9.30
   8  -1  -9   18.10    9.10
   8  -1  -9   29.30    7.40
   7  -1  -9   -5.10    4.70
   7  -1  -9    3.20    7.50
   6  -1  -9  600.34   25.90
   6  -1  -9  592.14   28.10
   5  -1  -9   92.89    7.50
   5  -1  -9   84.99    9.60
   4  -1  -9 1266.67   51.89
   4  -1  -9 1299.47   49.70
   3  -1  -9  333.97   17.40
   3  -1  -9  337.57   14.30
   2  -1  -9  138.19   10.30
  -2   1   9  130.59    6.70
  -2   1   9  141.19    6.20
   1  -1  -9   91.49    4.70
   1  -1  -9   78.29    8.30
   0  -1  -9 1390.86   54.49
   0  -1  -9 1351.46   51.89
  -1  -1  -9  688.33   26.50
  -1  -1  -9  656.33   28.60
  -2  -1  -9  361.56   15.60
  -2  -1  -9  367.56   17.70
  -3  -1  -9   86.79    6.80
  -3  -1  -9   70.19    8.60
  -4  -1  -9   -1.60    4.20
  -4  -1  -9    0.00    3.80
  -5  -1  -9   47.20    6.60
  -5  -1  -9   31.40    6.40
  -6  -1  -9   -3.20    6.10
   8  -2  -9   12.10    6.70
   8  -2  -9   17.50    7.40
   7  -2  -9   88.59    9.10
   7  -2  -9   81.19   11.40
   6  -2  -9   32.70    7.50
   6  -2  -9   50.49    6.10
   5  -2  -9   64.59    7.80
   5  -2  -9   59.29    6.30
   4  -2  -9    6.60    3.00
   4  -2  -9   10.30    4.70
  -4   2   9   15.40    2.30
  -4   2   9   15.00    3.10
   3  -2  -9  765.72   33.70
   3  -2  -9  806.72   31.30
  -3   2   9  827.22   31.20
   2  -2  -9  217.28   12.20
   2  -2  -9  219.38    9.40
  -2   2   9  207.48   10.10
   1  -2  -9  786.42   30.80
   1  -2  -9  778.02   33.20
   1  -2  -9  809.72   30.00
   0  -2  -9 2032.60   78.49
   0  -2  -9 2011.40   76.29
  -1  -2  -9  188.88   11.50
  -1  -2  -9  182.98    9.20
  -2  -2  -9 1484.85   58.49
  -2  -2  -9 1458.55   56.59
  -3  -2  -9  318.57   16.60
  -3  -2  -9  288.87   14.30
  -4  -2  -9  270.47   13.70
  -4  -2  -9  241.58   15.70
  -5  -2  -9  132.79   11.10
   8  -3  -9    8.10    5.20
   8  -3  -9   19.90    7.00
   7  -3  -9  614.14   26.80
   7  -3  -9  618.84   28.10
  -7   3   9  606.64   24.70
   6  -3  -9  505.85   24.20
   6  -3  -9  508.55   22.50
  -6   3   9  524.85   21.10
   5  -3  -9  239.78   14.30
   5  -3  -9  226.68   11.90
  -5   3   9  242.18   11.40
   4  -3  -9   79.79    8.60
   4  -3  -9   86.39    6.20
  -4   3   9   83.19    6.60
   3  -3  -9   65.59    4.80
   3  -3  -9   66.69    8.00
  -3   3   9   91.99    6.60
   2  -3  -9  431.96   16.50
   2  -3  -9  414.46   20.10
  -2   3   9  408.36   18.00
   1  -3  -9  166.48   11.60
   0  -3  -9  151.58    8.40
  -1  -3  -9   38.50    6.40
  -1  -3  -9   44.20    4.70
  -2  -3  -9  242.08   12.10
  -2  -3  -9  220.68   14.80
  -3  -3  -9  202.88   15.00
  -3  -3  -9  200.48   11.70
  -4  -3  -9    9.00    5.90
  -5  -3  -9  221.78   15.00
   9  -4  -9   18.40    7.50
   8  -4  -9  138.29   11.50
   8  -4  -9  101.59   13.30
  -8   4   9  120.89    8.90
   7  -4  -9  158.18   10.50
   7  -4  -9  134.99   12.90
  -7   4   9  126.09    9.50
   6  -4  -9    6.30    5.70
   6  -4  -9    0.30    3.70
  -6   4   9    6.40    4.80
   5  -4  -9  230.38   11.40
   5  -4  -9  218.48   14.30
  -5   4   9  242.58   12.50
   4  -4  -9   17.50    5.30
   4  -4  -9   23.70    3.40
  -4   4   9   32.40    5.70
   3  -4  -9   98.09    9.30
   3  -4  -9   91.19    5.30
  -3   4   9   94.39    8.20
   2  -4  -9   29.50    5.60
  -2   4   9   49.20    5.90
   1  -4  -9  487.95   23.70
  -1   4   9  492.05   21.80
   0  -4  -9 3798.82  148.09
   0  -4  -9 4090.89  151.08
  -1  -4  -9  175.68   10.60
  -1  -4  -9  177.78   13.90
  -2  -4  -9   75.39    8.00
  -2  -4  -9   84.79   12.10
  -3  -4  -9   18.70    6.10
  -4  -4  -9   22.90    7.20
   9  -5  -9  154.08   13.70
   8  -5  -9  148.59   14.00
   8  -5  -9  144.29   11.70
  -8   5   9  122.69   11.60
   7  -5  -9    2.60    6.60
   7  -5  -9   -3.30    4.40
  -7   5   9    5.00    5.70
   6  -5  -9    0.90    3.90
   6  -5  -9    2.40    5.60
  -6   5   9    1.10    5.40
   5  -5  -9   26.90    6.20
   5  -5  -9   26.10    4.10
  -5   5   9   27.90    6.00
   4  -5  -9  103.29   11.20
   4  -5  -9  106.79    6.50
  -4   5   9  128.19   10.00
   3  -5  -9   53.09    7.40
  -3   5   9   50.89    7.10
   2  -5  -9   17.70    5.80
   1  -5  -9   89.49   11.20
  -1   5   9   81.69    9.40
   0  -5  -9   16.10    6.30
  -1  -5  -9    9.00    5.20
  -1  -5  -9   11.00    7.50
  -2  -5  -9    8.70    6.20
  -3  -5  -9  132.29   13.00
   8  -6  -9   14.00    6.20
   8  -6  -9   17.50    8.80
  -8   6   9   22.00    7.80
   7  -6  -9   25.80    5.50
   7  -6  -9   19.40    7.90
  -7   6   9   31.50    7.80
   6  -6  -9    3.50    6.40
   6  -6  -9    6.00    4.00
  -6   6   9    4.60    6.50
   5  -6  -9  100.49   12.40
  -5   6   9  129.29   12.20
   4  -6  -9   16.20    6.80
  -4   6   9   21.20    6.70
   3  -6  -9  182.78   15.50
  -3   6   9  226.08   14.40
   2  -6  -9  211.78   16.50
  -2   6   9  237.18   14.80
   1  -6  -9   92.59   13.50
  -1   6   9   81.09    9.60
   0   6   9   17.40    7.50
   1   6   9   19.40    8.90
   8  -7  -9   70.09   12.10
   8  -7  -9   53.89    7.60
  -8   7   9   56.69   10.60
   7  -7  -9  222.98   19.30
   7  -7  -9  241.38   13.10
  -7   7   9  232.38   17.60
   6  -7  -9   23.00    8.80
  -6   7   9   34.00    9.60
   5  -7  -9  134.69   15.80
  -5   7   9  146.99   15.20
   4  -7  -9  457.15   26.40
  -4   7   9  474.25   24.20
   3  -7  -9  247.88   19.30
  -3   7   9  257.17   18.50
  -2   7   9   13.10    8.30
  -1   7   9   81.89   11.50
   0   7   9    9.60   10.60
  -7   8   9  121.29   14.80
  -6   8   9   15.50   10.80
  -5   8   9   81.19   12.80
  -4   8   9   50.59   11.80
  -3   8   9   96.49   14.30
  -2   8   9    5.90   11.80
  -1   8 -10   44.40   14.30
  -1   8 -10   40.20    8.60
  -2   8 -10    0.70    7.00
  -2   8 -10   19.30   11.80
  -3   8 -10   82.69   14.00
  -3   8 -10  108.99   12.60
  -4   8 -10   49.60   12.80
  -4   8 -10   60.69    9.50
  -5   8 -10  198.88   22.10
  -5   8 -10  195.88   15.60
  -6   8 -10  531.05   27.20
  -6   8 -10  544.65   32.00
   1   7 -10   61.19   14.90
   0   7 -10  459.35   21.10
   0   7 -10  448.36   29.00
  -1   7 -10  904.11   36.60
  -1   7 -10  881.31   43.10
  -2   7 -10   63.39   11.80
  -2   7 -10   73.89    7.90
  -3   7 -10  118.19   16.90
  -3   7 -10  115.19   11.10
  -4   7 -10    4.90    5.90
  -4   7 -10   -5.10    9.90
  -5   7 -10   63.69    8.80
  -5   7 -10   58.89   12.50
  -6   7 -10  222.58   16.50
  -6   7 -10  195.28   19.60
  -7   7 -10   30.90   11.60
  -7   7 -10   -3.10    8.60
   3   6 -10  383.86   31.00
   2   6 -10   56.89   13.50
   1   6 -10   26.70   10.80
   1   6 -10   42.30    7.90
   0   6 -10  116.79    9.10
   0   6 -10  103.79   14.10
  -1   6 -10   59.59    7.60
  -1   6 -10   53.99   10.40
  -2   6 -10    1.90    4.60
  -2   6 -10    4.00    7.50
  -3   6 -10   29.40    9.50
  -3   6 -10   33.30    5.80
  -4   6 -10 1107.29   48.30
  -4   6 -10 1107.49   44.70
  -5   6 -10  232.78   18.60
  -5   6 -10  250.87   14.90
  -6   6 -10   34.30    7.90
  -6   6 -10   44.30   10.10
  -7   6 -10   26.30    8.20
   4   5 -10  239.18   24.70
   3   5 -10   75.89   13.70
   2   5 -10   -7.70    9.50
   1   5 -10   20.80    8.40
   0   5 -10    6.70    7.50
   0   5 -10   -3.00    3.40
  -1   5 -10   25.60    8.60
  -1   5 -10   17.00    4.10
  -2   5 -10    1.30    4.00
  -2   5 -10    4.50    7.30
  -3   5 -10   81.99   10.60
  -3   5 -10  105.39    8.30
  -4   5 -10  285.27   15.10
  -4   5 -10  302.57   18.90
  -5   5 -10   95.09   13.20
  -5   5 -10   86.49    9.40
  -6   5 -10  177.58   12.70
  -6   5 -10  151.68   14.30
  -7   5 -10   87.79   10.30
   5   4 -10  182.88   22.40
   4   4 -10   22.60   10.20
   3   4 -10   71.19   11.50
   2   4 -10   17.80    8.40
   1   4 -10    6.00    6.70
   0   4 -10    8.40    6.50
   0   4 -10   13.10    3.20
  -1   4 -10  490.95   19.70
  -1   4 -10  462.25   24.20
  -2   4 -10 2085.79   84.09
  -2   4 -10 2173.28   80.69
  -3   4 -10  519.65   25.20
  -3   4 -10  496.05   21.40
  -4   4 -10  163.28   12.80
  -4   4 -10  132.19    9.70
  -5   4 -10   44.30    6.30
  -5   4 -10   46.60    7.70
  -6   4 -10  264.77   15.10
  -6   4 -10  266.67   16.10
  -7   4 -10  779.22   33.80
   5   3 -10  181.48   18.40
   4   3 -10  380.56   23.30
   3   3 -10   34.70    8.60
   2   3 -10  335.77   19.60
   1   3 -10  460.55   23.50
   0   3 -10   59.49    8.50
   0   3 -10   73.09    4.50
   0  -3  10   48.10    5.70
  -1   3 -10   33.50    4.20
  -1   3 -10   44.30    7.20
  -2   3 -10  138.69   11.40
  -2   3 -10  141.39    7.80
  -3   3 -10  420.76   17.70
  -3   3 -10  400.26   20.70
  -4   3 -10  238.18   12.40
  -4   3 -10  241.28   15.20
  -5   3 -10  158.28   12.80
  -5   3 -10  169.88   10.70
  -6   3 -10   71.09    8.10
  -6   3 -10   75.09    9.40
  -7   3 -10  166.78   13.50
   6   2 -10  114.29   17.60
   6   2 -10  104.09   10.90
   5   2 -10   25.30    9.20
   4   2 -10  358.66   20.70
   3   2 -10   14.50    6.70
   2   2 -10   -1.40    5.50
   1   2 -10 1375.36   55.99
   0   2 -10 2274.97   87.99
   0   2 -10 2380.16   84.09
   0  -2  10 2106.79   84.39
  -1   2 -10  371.76   19.00
  -1   2 -10  366.06   15.10
  -2   2 -10    9.90    5.20
  -2   2 -10   15.20    3.00
  -3   2 -10    6.10    5.20
  -3   2 -10    4.70    3.20
  -4   2 -10    2.50    3.60
  -4   2 -10   17.70    5.90
  -5   2 -10   48.40    6.00
  -5   2 -10   56.79    7.00
  -6   2 -10   50.09    7.80
  -6   2 -10   58.09    9.00
  -7   2 -10   28.40    7.70
   7   1 -10  325.87   23.00
   7   1 -10  372.06   20.20
   6   1 -10 1062.69   43.10
   6   1 -10 1023.00   45.50
   5   1 -10   12.30    4.20
   5   1 -10   11.10    7.70
   4   1 -10  149.88   13.40
   3   1 -10   60.99    8.50
   2   1 -10  564.74   26.30
   1   1 -10   68.89    8.50
   0   1 -10  434.76   16.90
   0   1 -10  422.86   20.70
  -1   1 -10  332.67   17.50
  -1   1 -10  356.86   14.30
  -2   1 -10   21.00    5.60
  -2   1 -10   24.80    3.70
  -3   1 -10  270.77   15.20
  -3   1 -10  246.98   12.30
  -4   1 -10   26.30    6.00
  -4   1 -10   23.70    5.00
  -5   1 -10  156.18   10.30
  -5   1 -10  141.49   10.80
  -6   1 -10  521.15   23.70
  -7   1 -10   -0.60    7.10
   7   0 -10  158.18   17.30
   7   0 -10  185.58   13.40
   6   0 -10   49.20    9.50
   6   0 -10   43.00    6.60
   5   0 -10   -2.90    3.20
   5   0 -10   -8.60    6.10
   4   0 -10    4.60    3.30
   4   0 -10   11.70    6.20
   3   0 -10 1607.84   64.29
   2   0 -10 1234.08   50.29
   1   0 -10  224.08   13.90
   1   0 -10  267.77   10.20
  -1   0  10  249.97   10.70
   0   0 -10 1045.60   39.20
   0   0 -10 1017.00   42.50
  -1   0 -10  213.78   12.80
  -1   0 -10  203.38    9.40
  -2   0 -10  421.86   20.00
  -2   0 -10  417.26   17.40
  -3   0 -10   47.40    6.20
  -3   0 -10   37.00    4.70
  -4   0 -10 1448.76   54.49
  -4   0 -10 1352.06   55.49
  -5   0 -10  531.25   24.10
  -5   0 -10  567.24   24.80
  -6   0 -10   22.30    6.60
   8  -1 -10  -11.80    8.50
   8  -1 -10   -8.40    6.50
   7  -1 -10   51.99    7.60
   7  -1 -10   56.99    9.90
   6  -1 -10   39.30    5.80
   6  -1 -10   37.20    8.40
   5  -1 -10    6.40    3.90
   5  -1 -10    6.00    6.50
   4  -1 -10  662.03   27.20
   4  -1 -10  671.73   30.40
   3  -1 -10   66.69    9.60
   3  -1 -10   80.09    5.60
   2  -1 -10  354.46   18.30
  -2   1  10  351.56   14.20
  -2   1  10  359.56   14.70
   1  -1 -10  513.55   23.10
   1  -1 -10  480.15   19.50
   0  -1 -10 1802.62   66.79
   0  -1 -10 1736.63   69.59
  -1  -1 -10  169.48    8.90
  -1  -1 -10  211.28   11.80
  -2  -1 -10  414.26   20.00
  -2  -1 -10  426.66   17.90
  -3  -1 -10  168.08   11.70
  -3  -1 -10  158.28    9.50
  -4  -1 -10  139.29   11.20
  -4  -1 -10  131.89    9.70
  -5  -1 -10  192.68   12.40
  -5  -1 -10  172.58   13.20
  -6  -1 -10  120.89   12.50
   8  -2 -10    0.30    6.60
   8  -2 -10   -3.50    7.60
   7  -2 -10   91.29   12.70
   7  -2 -10  107.39   10.10
   6  -2 -10    0.00    6.10
   6  -2 -10    1.00    3.80
   5  -2 -10  814.32   36.40
   5  -2 -10  868.31   34.10
   4  -2 -10  396.06   17.20
   4  -2 -10  385.36   20.20
  -4   2  10  409.66   16.40
   3  -2 -10    3.30    2.50
   3  -2 -10    1.80    4.70
  -3   2  10    4.20    2.90
   2  -2 -10   33.10    3.60
   2  -2 -10   43.30    7.00
  -2   2  10   29.90    3.90
   1  -2 -10 1666.53   67.89
   1  -2 -10 1780.72   64.39
   1  -2 -10 1718.33   65.19
   0  -2 -10 2746.83  106.19
   0  -2 -10 2915.51  108.89
  -1  -2 -10   35.40    4.30
  -1  -2 -10   26.10    5.80
  -2  -2 -10 1007.30   41.90
  -2  -2 -10 1004.00   39.70
  -3  -2 -10  303.37   16.80
  -3  -2 -10  283.97   14.30
  -4  -2 -10  126.99   12.50
  -4  -2 -10  121.69    9.90
  -5  -2 -10  207.48   14.10
   8  -3 -10   76.49    9.10
   8  -3 -10   81.59   10.30
   7  -3 -10  105.49   12.70
   7  -3 -10  104.19    9.90
  -7   3  10  113.99    7.30
   6  -3 -10  495.15   22.10
   6  -3 -10  494.35   24.20
  -6   3  10  486.95   20.30
   5  -3 -10   56.99    6.40
   5  -3 -10   40.20    7.00
  -5   3  10   63.59    6.20
   4  -3 -10    1.40    4.90
   4  -3 -10   10.00    3.40
  -4   3  10    8.20    3.60
   3  -3 -10   37.10    4.10
   3  -3 -10   36.60    6.20
  -3   3  10   52.29    6.30
   2  -3 -10  399.96   19.90
   2  -3 -10  394.26   15.80
  -2   3  10  399.56   17.80
   1  -3 -10   -6.70    3.80
   0  -3 -10   57.99    6.00
   0  -3 -10   65.99    8.80
  -1  -3 -10   11.90    5.30
  -1  -3 -10   20.90    4.00
  -2  -3 -10  107.69   11.60
  -2  -3 -10   95.49    8.20
  -3  -3 -10  181.98   14.70
  -3  -3 -10  165.28   11.50
  -4  -3 -10  151.08   12.10
   8  -4 -10    7.30    6.20
   8  -4 -10    0.70    7.30
   7  -4 -10  168.38   14.20
   7  -4 -10  153.98   11.20
  -7   4  10  150.28   10.80
   6  -4 -10   21.30    4.70
   6  -4 -10   18.20    6.60
  -6   4  10   16.60    5.80
   5  -4 -10   65.29    6.40
   5  -4 -10   60.09    8.60
  -5   4  10   70.69    8.40
   4  -4 -10   34.10    4.00
   4  -4 -10   29.40    6.30
  -4   4  10   44.80    6.00
   3  -4 -10  407.16   15.80
   3  -4 -10  373.96   20.20
  -3   4  10  379.16   17.90
   2  -4 -10   15.70    6.00
  -2   4  10   23.50    5.30
   1  -4 -10  231.68   14.90
  -1   4  10  228.88   13.00
   0  -4 -10   72.49   10.00
   0  -4 -10   67.79    7.10
  -1  -4 -10   16.70    4.50
  -1  -4 -10    9.90    5.90
  -2  -4 -10   35.20    8.30
  -2  -4 -10   24.10    5.70
  -3  -4 -10   78.29    8.60
   8  -5 -10  482.55   25.60
   8  -5 -10  509.55   23.30
  -8   5  10  454.75   22.20
   7  -5 -10  236.38   16.80
   7  -5 -10  230.48   13.40
  -7   5  10  223.78   13.90
   6  -5 -10  103.09    8.70
   6  -5 -10  133.29   12.60
   5  -5 -10   39.40    7.00
   5  -5 -10   39.00    4.60
  -5   5  10   43.50    7.20
   4  -5 -10  215.48   10.60
   4  -5 -10  256.97   15.90
   3  -5 -10   86.59   10.90
  -3   5  10   83.19   10.30
   2  -5 -10   86.19   10.90
  -2   5  10   97.39   10.70
   1  -5 -10   19.00    6.70
  -1   5  10   20.00    6.60
   0  -5 -10    5.00    6.80
  -1  -5 -10  264.07   19.80
  -1  -5 -10  265.67   15.10
  -2  -5 -10   53.99    8.20
   8  -6 -10   39.50    7.50
   8  -6 -10   39.00   10.30
  -8   6  10   39.60    8.80
   7  -6 -10  203.78   12.90
   7  -6 -10  258.57   18.00
   6  -6 -10   35.20    5.30
   6  -6 -10   31.90    8.00
  -6   6  10   31.00    7.70
   5  -6 -10  190.88   16.30
  -5   6  10  260.77   16.00
   4  -6 -10    3.50    6.60
  -4   6  10   10.10    6.40
   3  -6 -10  206.58   16.80
  -3   6  10  223.38   15.50
   2  -6 -10  452.45   25.30
  -2   6  10  455.85   23.00
   1  -6 -10   50.99   10.20
  -1   6  10   39.10    8.90
   0  -6 -10   23.10    9.40
   0   6  10  -10.90    7.60
   1   6  10   36.00   10.10
   7  -7 -10  239.78   13.50
   7  -7 -10  239.98   20.80
  -7   7  10  251.27   18.70
   6  -7 -10   35.90   10.80
  -6   7  10   49.30   10.50
   5  -7 -10    0.70    9.40
  -5   7  10   -7.20    8.50
   4  -7 -10    3.80    8.40
  -4   7  10   19.60    8.80
   3  -7 -10   21.60    9.50
  -3   7  10   51.19   10.50
   2  -7 -10   45.30   12.00
  -2   7  10   50.09   10.30
  -1   7  10   82.59   12.20
   6  -8 -10   15.50   12.50
   5  -8 -10   60.69   14.70
  -5   8  10   81.19   13.90
  -4   8  10  211.58   20.50
  -2   8 -11   55.59    9.00
  -2   8 -11   64.49   15.70
  -3   8 -11   29.50   14.20
  -3   8 -11   44.70    8.60
  -4   8 -11  108.69   13.50
  -4   8 -11   84.89   15.90
  -5   8 -11  161.08   15.90
  -5   8 -11  164.88   23.30
   1   7 -11   22.00   15.40
   0   7 -11   -8.20   11.80
  -1   7 -11    5.10    6.30
  -1   7 -11   26.30   12.20
  -2   7 -11   56.39   12.20
  -2   7 -11   51.19    7.50
  -3   7 -11    4.00   10.60
  -3   7 -11   23.50    6.40
  -4   7 -11   58.69    8.50
  -4   7 -11   63.49   12.50
  -5   7 -11  203.38   14.80
  -5   7 -11  166.58   19.60
  -6   7 -11  551.14   26.70
  -6   7 -11  515.65   30.90
   2   6 -11   -3.60   13.50
   1   6 -11   32.50   11.90
   0   6 -11  113.29    9.10
   0   6 -11  115.29   17.90
  -1   6 -11    7.40    5.20
  -1   6 -11   16.40   10.00
  -2   6 -11  160.08   17.70
  -2   6 -11  171.88   10.90
  -3   6 -11  153.68   11.30
  -3   6 -11  153.28   16.80
  -4   6 -11   47.50   10.10
  -4   6 -11   66.79    8.00
  -5   6 -11   51.89    8.10
  -5   6 -11   44.30   11.40
  -6   6 -11  200.18   15.20
  -6   6 -11  198.78   18.90
  -7   6 -11  517.05   25.90
   3   5 -11   27.20   11.40
   2   5 -11  413.26   26.30
   1   5 -11  388.26   24.50
   0   5 -11   88.79    7.10
   0   5 -11   81.69   11.50
  -1   5 -11   -0.40    7.40
  -1   5 -11   -0.80    3.70
  -2   5 -11   68.19   10.30
  -2   5 -11   64.39    7.10
  -3   5 -11  590.84   25.20
  -3   5 -11  599.54   29.80
  -4   5 -11  761.12   31.80
  -4   5 -11  763.22   35.60
  -5   5 -11  144.79   11.50
  -5   5 -11  147.99   15.30
  -6   5 -11    6.70    9.00
  -6   5 -11    6.90    6.60
  -7   5 -11   21.00    8.10
   4   4 -11  249.97   22.50
   3   4 -11   21.40    9.30
   2   4 -11    7.10    7.90
   1   4 -11  125.59   13.80
   0   4 -11  247.68   10.60
   0   4 -11  218.18   16.60
  -1   4 -11   40.10    4.40
  -1   4 -11   17.50    7.40
  -2   4 -11  563.24   23.10
  -2   4 -11  549.05   27.60
  -3   4 -11   13.80    4.10
  -3   4 -11   11.30    6.90
  -4   4 -11   78.89    8.40
  -4   4 -11   89.19   11.10
  -5   4 -11  188.68   15.20
  -5   4 -11  191.18   12.30
  -6   4 -11   84.99   12.10
  -6   4 -11   90.79   10.40
  -7   4 -11  235.58   16.10
   5   3 -11    3.90   10.50
   4   3 -11  259.17   20.00
   3   3 -11  273.47   19.30
   2   3 -11   28.30    8.20
   1   3 -11    0.60    6.10
   0   3 -11   14.40    6.10
   0   3 -11   18.60    2.80
   0  -3  11    8.10    3.90
  -1   3 -11  704.23   33.00
  -1   3 -11  754.72   28.60
  -2   3 -11  461.55   19.50
  -2   3 -11  467.85   23.60
  -3   3 -11  168.28    9.30
  -3   3 -11  146.19   13.70
  -4   3 -11   11.80    6.60
  -4   3 -11   -3.30    4.10
  -5   3 -11   22.30    6.50
  -5   3 -11   11.10    4.90
  -6   3 -11  138.69   13.70
  -6   3 -11  142.89   11.90
  -7   3 -11   -6.30    7.80
   6   2 -11    6.80    6.00
   6   2 -11   11.80   11.20
   5   2 -11   -4.90    8.40
   4   2 -11    4.10    7.20
   3   2 -11  137.59   13.40
   2   2 -11   90.49   11.30
   1   2 -11  553.84   26.50
   0   2 -11 1996.70   76.29
   0   2 -11 2139.29   71.69
   0  -2  11 1617.94   71.99
  -1   2 -11  230.78   10.90
  -1   2 -11  274.77   16.00
  -2   2 -11 1156.48   49.30
  -2   2 -11 1237.08   46.10
  -3   2 -11    6.70    5.50
  -3   2 -11   -0.60    3.30
  -4   2 -11  388.36   19.10
  -4   2 -11  352.16   17.00
  -5   2 -11  135.99   10.60
  -5   2 -11  150.88   12.00
  -6   2 -11    4.60    6.20
  -6   2 -11    1.80    6.10
  -7   2 -11    9.00    7.60
   7   1 -11   48.30    8.60
   6   1 -11   53.39   11.20
   6   1 -11   67.89    8.10
   5   1 -11  167.28   15.90
   5   1 -11  187.08   11.50
   4   1 -11    6.30    6.80
   3   1 -11    2.70    6.00
   1   1 -11 1486.35   60.29
   0   1 -11 1853.91   67.99
   0   1 -11 1773.52   71.99
  -2   1 -11  357.86   19.20
  -2   1 -11  366.66   15.50
  -3   1 -11  177.58   12.80
  -4   1 -11    2.60    4.00
  -4   1 -11    5.10    4.90
  -5   1 -11  186.58   12.60
  -5   1 -11  186.18   11.70
  -6   1 -11  477.65   22.60
   7   0 -11   45.60   11.60
   7   0 -11   26.50    6.90
   6   0 -11   67.39    8.20
   6   0 -11   60.69   10.70
   5   0 -11   68.39    9.80
   5   0 -11   67.29    7.60
   4   0 -11   53.39    5.70
   4   0 -11   46.10    8.10
   3   0 -11  300.97   17.70
   2   0 -11  903.11   38.90
   1   0 -11 2790.52   96.79
   1   0 -11 2636.24  100.89
  -1   0  11 2363.56   96.89
   0   0 -11 4873.11  186.58
   0   0 -11 5181.98  190.48
  -1   0 -11   28.20    3.70
  -1   0 -11   22.30    6.10
  -2   0 -11   64.29    9.30
  -2   0 -11   57.49    5.70
  -3   0 -11  143.49   11.30
  -3   0 -11  129.19    8.60
  -4   0 -11   66.79    9.60
  -4   0 -11   47.90    6.00
  -5   0 -11   81.49   10.60
  -5   0 -11   89.89    9.40
  -6   0 -11    8.40    6.90
   7  -1 -11   86.89   11.90
   7  -1 -11   87.49   10.70
   6  -1 -11    2.20    4.50
   6  -1 -11    8.40    7.80
   5  -1 -11  282.17   14.50
   5  -1 -11  272.67   18.20
   4  -1 -11   92.89    7.10
   4  -1 -11   75.99   11.50
   3  -1 -11  709.03   32.80
   3  -1 -11  744.73   29.10
   2  -1 -11  117.09   11.10
  -2   1  11  109.69    6.70
  -2   1  11  102.89    5.90
   1  -1 -11  281.97   16.70
   1  -1 -11  282.67   12.10
   0  -1 -11   77.79    5.30
  -1  -1 -11   10.30    4.30
  -1  -1 -11   12.10    3.00
  -2  -1 -11   65.09    9.30
  -2  -1 -11   62.89    6.30
  -3  -1 -11  159.88   12.70
  -3  -1 -11  164.38    9.90
  -4  -1 -11  794.12   32.30
  -4  -1 -11  761.22   34.00
  -5  -1 -11  238.78   14.50
  -5  -1 -11  218.78   15.90
   8  -2 -11   55.29   10.20
   8  -2 -11   67.19    9.50
   7  -2 -11    0.00    6.90
   7  -2 -11    2.40    5.50
   6  -2 -11    1.80    4.20
   6  -2 -11   -1.00    6.20
   5  -2 -11  442.16   23.00
   5  -2 -11  452.85   20.00
   4  -2 -11  388.56   20.40
   4  -2 -11  370.76   16.60
   3  -2 -11  519.15   25.80
   3  -2 -11  570.84   22.50
  -3   2  11  567.34   22.50
   2  -2 -11  359.56   14.30
   2  -2 -11  312.37   18.00
  -2   2  11  354.16   15.10
   1  -2 -11   60.99    5.20
   1  -2 -11   70.39    4.10
   1  -2 -11   61.99    8.60
   0  -2 -11  333.57   14.20
   0  -2 -11  307.77   17.30
  -1  -2 -11   -0.30    3.00
  -1  -2 -11   -1.60    5.00
  -2  -2 -11    3.50    3.50
  -2  -2 -11    7.10    5.60
  -3  -2 -11    8.00    5.70
  -3  -2 -11    3.30    4.40
  -4  -2 -11  156.78   12.00
  -4  -2 -11  169.98   14.70
  -5  -2 -11  240.18   15.90
   8  -3 -11   40.70    9.20
   8  -3 -11   40.70    8.20
   7  -3 -11    2.40    5.50
   7  -3 -11   12.60    7.30
   6  -3 -11    7.50    6.70
   6  -3 -11    6.30    4.80
   5  -3 -11   12.40    6.20
   5  -3 -11   12.50    4.10
  -5   3  11   10.00    4.00
   4  -3 -11  826.22   32.20
   4  -3 -11  784.32   35.40
  -4   3  11  801.12   32.20
   3  -3 -11  330.67   18.60
   3  -3 -11  358.66   14.90
  -3   3  11  361.46   16.10
   2  -3 -11   59.79    8.30
  -2   3  11   50.29    5.90
   1  -3 -11   10.30    5.10
   0  -3 -11    3.40    4.80
   0  -3 -11    8.20    3.60
  -1  -3 -11  238.78   15.00
  -1  -3 -11  200.58   11.50
  -2  -3 -11  290.37   18.30
  -2  -3 -11  332.07   15.60
  -3  -3 -11   49.00    7.40
  -3  -3 -11   34.00    8.50
  -4  -3 -11   12.90    6.60
   8  -4 -11   89.09   11.20
   8  -4 -11   69.49   10.40
   7  -4 -11  538.55   26.50
   7  -4 -11  515.95   23.50
  -7   4  11  478.95   22.20
   6  -4 -11  190.38   11.50
   6  -4 -11  188.28   15.00
  -6   4  11  186.88   12.10
   5  -4 -11  254.97   16.70
   5  -4 -11  253.47   12.70
  -5   4  11  273.57   14.30
   4  -4 -11   94.69   11.00
   4  -4 -11   81.29    6.20
  -4   4  11   85.39    8.80
   3  -4 -11   18.40    2.80
   3  -4 -11   16.70    5.80
  -3   4  11   25.20    5.50
   2  -4 -11  214.28   14.50
  -2   4  11  218.98   13.20
   1  -4 -11  111.49   11.40
  -1   4  11   98.69    9.80
   0  -4 -11   54.99    6.60
   0  -4 -11   50.79    8.10
  -1  -4 -11   36.20    8.30
  -1  -4 -11   38.40    6.00
  -2  -4 -11  247.18   14.60
  -2  -4 -11  240.28   18.70
  -3  -4 -11  219.88   15.20
   8  -5 -11   62.49    8.40
   8  -5 -11   36.50   10.20
   7  -5 -11  295.77   15.60
   7  -5 -11  292.87   19.30
  -7   5  11  278.47   16.00
   6  -5 -11  104.29    9.00
   6  -5 -11  116.79   13.30
  -6   5  11  113.29   11.00
   5  -5 -11  192.58   10.30
   5  -5 -11  212.38   15.70
  -5   5  11  197.18   13.70
   4  -5 -11  104.89    6.50
   4  -5 -11   91.49   11.80
  -4   5  11   85.99   10.70
   3  -5 -11    4.50    6.10
  -3   5  11    4.20    6.70
   2  -5 -11   40.60    8.20
  -2   5  11   53.39    8.10
   1  -5 -11   22.40    7.60
  -1   5  11   15.80    6.90
   0  -5 -11   51.09    9.50
  -1  -5 -11   -0.10    8.30
  -1  -5 -11   12.50    6.50
  -2  -5 -11   -3.50    7.20
   7  -6 -11  313.37   15.90
   7  -6 -11  325.57   21.50
  -7   6  11  291.67   18.70
   6  -6 -11   78.89   11.30
   6  -6 -11  100.59    8.60
  -6   6  11  106.19   10.80
   5  -6 -11   12.20    7.60
  -5   6  11   10.60    7.90
   4  -6 -11  156.08   15.50
  -4   6  11  160.38   13.90
   3  -6 -11   30.70    8.70
  -3   6  11   36.40    9.10
   2  -6 -11   -1.70    8.30
   1  -6 -11   65.49   11.70
  -1   6  11   69.89   10.90
   0  -6 -11  180.08   20.50
   0   6  11  161.18   17.30
   6  -7 -11   62.39   12.50
  -6   7  11   53.09   11.60
   5  -7 -11   28.70   10.50
  -5   7  11   48.70   11.20
   4  -7 -11   -8.90    9.40
  -4   7  11    0.40    9.30
   3  -7 -11   -0.90   10.20
  -3   7  11    8.60   11.00
   2  -7 -11    8.60   10.50
  -2   7  11  -13.00    9.60
   0   7 -12   48.00   15.10
  -1   7 -12   18.00   13.20
  -2   7 -12   14.50    6.70
  -2   7 -12   24.40   12.60
  -3   7 -12   62.09    8.20
  -3   7 -12   49.70   12.90
  -4   7 -12   36.00    7.90
  -4   7 -12   43.30   11.80
  -5   7 -12   31.80    8.30
  -5   7 -12   26.50   13.10
   2   6 -12   82.09   15.80
   1   6 -12   70.69   13.80
   0   6 -12  306.77   24.10
  -1   6 -12  322.67   23.20
  -1   6 -12  328.27   15.80
  -2   6 -12   53.69    6.70
  -3   6 -12   63.39    7.70
  -3   6 -12   58.49   11.60
  -4   6 -12    4.00    6.20
  -4   6 -12    6.10    9.80
  -5   6 -12  410.56   21.10
  -5   6 -12  437.16   25.90
  -6   6 -12  278.27   23.20
  -6   6 -12  310.77   18.60
   3   5 -12  358.76   26.60
   2   5 -12   15.80   11.30
   1   5 -12    5.10    8.80
   0   5 -12  180.88   17.40
  -1   5 -12   70.59   10.80
  -1   5 -12   68.49    7.10
  -2   5 -12   57.99    6.00
  -2   5 -12   59.49   10.00
  -3   5 -12   83.89   11.90
  -3   5 -12   77.39    8.40
  -4   5 -12  332.37   21.70
  -4   5 -12  333.77   16.50
  -5   5 -12   -1.90    9.40
  -5   5 -12    3.40    5.90
  -6   5 -12  405.66   24.50
  -6   5 -12  446.46   21.80
   4   4 -12   -7.30   12.70
   3   4 -12  119.09   18.40
   2   4 -12  251.27   20.00
   1   4 -12   37.50    9.10
   0   4 -12    9.50    7.50
  -1   4 -12   25.90    4.10
  -1   4 -12   48.70    9.20
  -2   4 -12  131.39   14.10
  -2   4 -12  123.29    8.30
  -3   4 -12  143.79    9.40
  -3   4 -12  125.29   15.10
  -4   4 -12   73.29    8.80
  -4   4 -12   71.29   11.60
  -5   4 -12  146.89   15.90
  -5   4 -12  172.58   11.70
  -6   4 -12    1.80    7.10
  -6   4 -12    1.90    7.80
   5   3 -12  208.88   21.40
   4   3 -12    2.00    9.30
   3   3 -12   14.50    8.30
   2   3 -12  296.07   19.30
   1   3 -12  509.55   26.30
   0   3 -12  560.34   27.80
  -1   3 -12 1164.88   42.60
  -1   3 -12 1052.19   47.20
  -2   3 -12  761.12   30.90
  -2   3 -12  797.62   35.80
  -3   3 -12    9.70    7.70
  -3   3 -12    1.70    4.20
  -4   3 -12   72.49    8.30
  -4   3 -12   74.29    9.80
  -5   3 -12    9.80    5.40
  -5   3 -12   14.70    7.40
  -6   3 -12   50.19    8.10
  -6   3 -12   41.00    7.70
   6   2 -12   54.79   13.90
   6   2 -12   43.20    8.00
   5   2 -12  135.69   18.30
   4   2 -12  147.89   16.10
   3   2 -12   94.89   13.00
   2   2 -12   38.50    8.20
   1   2 -12  926.71   40.90
   0   2 -12 1210.18   45.10
   0   2 -12 1180.38   50.39
  -1   2 -12  268.97   17.00
  -1   2 -12  235.38   11.20
  -2   2 -12   26.30    7.30
  -2   2 -12   30.60    4.10
  -3   2 -12  498.55   21.40
  -3   2 -12  504.35   24.80
  -4   2 -12  358.76   19.70
  -4   2 -12  350.86   16.90
  -5   2 -12   73.39   11.30
  -5   2 -12   74.69    9.60
  -6   2 -12   77.39    9.10
   6   1 -12    5.70    5.90
   6   1 -12   -9.10    9.50
   5   1 -12   18.20    9.10
   5   1 -12    4.70    4.60
   4   1 -12  354.96   21.40
   3   1 -12  433.16   23.30
   1   1 -12 1646.44   66.69
   0   1 -12    8.40    2.60
   0   1 -12   12.30    5.70
  -2   1 -12  371.16   15.90
  -2   1 -12  367.26   20.50
  -3   1 -12   21.20    4.50
  -3   1 -12   39.50    8.10
  -4   1 -12  405.46   20.80
  -4   1 -12  401.96   18.30
  -5   1 -12  262.57   14.70
  -5   1 -12  270.07   16.50
  -6   1 -12   -0.30    6.80
   7   0 -12   33.90    7.80
   7   0 -12   22.90   12.10
   6   0 -12   58.99    7.60
   6   0 -12   58.69   10.80
   5   0 -12   -3.50    3.80
   5   0 -12    9.60    7.30
   4   0 -12   36.10    8.20
   4   0 -12   28.00    4.70
   3   0 -12   -2.50    6.00
   1   0 -12  814.82   30.20
   1   0 -12  756.42   35.20
   0   0 -12  272.87   17.50
   0   0 -12  285.97   12.20
  -1   0 -12  202.78    9.80
  -1   0 -12  194.38   14.40
  -2   0 -12  141.69    8.50
  -2   0 -12  137.69   12.40
  -3   0 -12   -0.10    5.50
  -3   0 -12    3.60    4.30
  -4   0 -12  178.98   13.70
  -4   0 -12  181.58   11.40
  -5   0 -12  122.79   11.20
  -5   0 -12  114.99   12.20
   7  -1 -12   95.69   11.90
   7  -1 -12   98.99   13.30
   6  -1 -12  127.69   15.70
   6  -1 -12  137.29   11.20
   5  -1 -12   10.30    7.10
   5  -1 -12    3.00    4.20
   4  -1 -12  556.04   28.10
   4  -1 -12  587.74   24.20
   3  -1 -12  892.51   35.00
   3  -1 -12  879.71   39.00
   2  -1 -12    9.50    6.10
  -2   1  12    1.80    3.30
   1  -1 -12  129.79   12.20
   1  -1 -12  152.78    7.50
   0  -1 -12    6.10    5.40
   0  -1 -12    4.00    3.10
  -1  -1 -12  134.29   11.70
  -1  -1 -12  145.79    8.30
  -2  -1 -12  174.48   13.60
  -2  -1 -12  188.08   10.30
  -3  -1 -12   99.49    8.70
  -3  -1 -12  111.09   12.20
  -4  -1 -12   -7.70    5.20
  -4  -1 -12    4.20    6.20
  -5  -1 -12  170.68   15.80
  -5  -1 -12  187.88   13.80
   7  -2 -12   92.79    9.60
   7  -2 -12   88.59   11.60
   6  -2 -12   87.29   10.90
   6  -2 -12   65.59    7.60
   5  -2 -12   10.20    6.70
   5  -2 -12   10.90    4.40
   4  -2 -12   31.60    7.60
   4  -2 -12   32.40    4.60
   3  -2 -12    4.60    5.50
   3  -2 -12    4.10    3.10
  -3   2  12   -2.50    3.80
   2  -2 -12  695.23   32.30
   2  -2 -12  724.93   28.00
  -2   2  12  719.73   28.80
   1  -2 -12  260.37   15.60
   1  -2 -12  254.77   10.60
   1  -2 -12  252.17   11.90
   0  -2 -12   14.10    3.60
   0  -2 -12    9.00    5.30
  -1  -2 -12  112.29    8.20
  -1  -2 -12  125.99   11.70
  -2  -2 -12  246.68   13.10
  -2  -2 -12  245.98   16.40
  -3  -2 -12  110.99   13.00
  -3  -2 -12  117.09   10.10
  -4  -2 -12   10.80    7.40
  -4  -2 -12   11.90    6.40
   7  -3 -12  370.96   22.50
   7  -3 -12  381.36   19.60
   6  -3 -12  125.29   10.60
   6  -3 -12  112.19   13.70
   5  -3 -12  617.94   26.40
   5  -3 -12  632.24   29.90
   4  -3 -12  171.48   13.50
   4  -3 -12  161.48    9.30
  -4   3  12  161.08   10.40
   3  -3 -12   44.30    5.00
   3  -3 -12   33.20    6.70
  -3   3  12   37.20    5.90
   2  -3 -12   49.10    8.00
  -2   3  12   38.60    5.70
   1  -3 -12   35.70    7.40
   0  -3 -12   81.69   10.60
   0  -3 -12   88.99    7.60
  -1  -3 -12   31.20    5.40
  -1  -3 -12   26.50    7.20
  -2  -3 -12    9.50    6.70
  -2  -3 -12   12.60    5.10
  -3  -3 -12  169.98   16.20
  -3  -3 -12  153.48   12.60
   7  -4 -12   44.90    6.90
   7  -4 -12   53.69    9.80
   6  -4 -12    5.00    6.70
   6  -4 -12   13.10    4.80
  -6   4  12   20.40    6.70
   5  -4 -12   38.30    5.10
   5  -4 -12   16.70    7.00
  -5   4  12   36.50    6.60
   4  -4 -12  602.64   23.50
   4  -4 -12  576.34   28.40
  -4   4  12  542.65   24.80
   3  -4 -12  122.19   12.70
   3  -4 -12  124.89    6.70
  -3   4  12  127.19   11.00
   2  -4 -12   51.39    8.50
  -2   4  12   43.10    7.40
   1  -4 -12  109.09   12.20
  -1   4  12  126.09   11.20
   0  -4 -12  123.89    9.80
   0  -4 -12  139.39   13.80
  -1  -4 -12   12.20    5.50
  -1  -4 -12   11.20    7.80
  -2  -4 -12  189.28   18.60
  -2  -4 -12  186.18   13.80
   7  -5 -12   22.50    9.30
   7  -5 -12   16.80    5.50
  -7   5  12   24.70    7.60
   6  -5 -12   61.69   10.40
   6  -5 -12   88.09    8.50
  -6   5  12   84.09    9.00
   5  -5 -12    4.50    3.90
   5  -5 -12    2.30    7.60
  -5   5  12   -2.00    6.90
   4  -5 -12    4.80    3.40
   4  -5 -12   -1.90    6.90
  -4   5  12    0.00    6.70
   3  -5 -12    5.40    7.00
  -3   5  12   -2.50    7.10
   2  -5 -12   15.60    7.40
  -2   5  12    7.50    7.50
   1  -5 -12   -2.30    6.70
  -1   5  12   10.00    7.80
   0  -5 -12    3.70    8.70
  -1  -5 -12   80.79   12.90
  -1  -5 -12   89.99   10.00
   7  -6 -12   -5.60    9.00
   7  -6 -12   -1.40    5.60
  -7   6  12   -3.90    8.60
   6  -6 -12   70.49   10.90
   6  -6 -12   58.79    6.70
  -6   6  12   84.39   10.50
   5  -6 -12   13.90    8.40
  -5   6  12   32.10    9.00
   4  -6 -12   16.50    8.40
  -4   6  12   26.30    8.50
   3  -6 -12  167.88   17.40
  -3   6  12  169.98   16.30
   2  -6 -12  149.59   18.50
  -2   6  12  133.79   16.00
   1  -6 -12   31.00   10.80
  -1   6  12   20.00   10.60
   5  -7 -12   -4.60   11.10
  -5   7  12    1.00   10.60
   4  -7 -12    4.80   10.30
  -4   7  12   10.00   10.40
   3  -7 -12   16.10   11.70
  -3   7  12   11.10   11.80
  -1   7 -13  112.79   16.90
  -2   7 -13  113.49   11.80
  -2   7 -13  107.09   15.70
  -3   7 -13   80.99   15.00
  -3   7 -13  108.79   12.00
  -4   7 -13    4.40   12.30
  -4   7 -13    8.70    7.60
   1   6 -13   26.00   13.60
   0   6 -13   23.60   12.30
  -1   6 -13   24.90   10.80
  -2   6 -13  293.17   14.80
  -2   6 -13  255.47   22.10
  -3   6 -13   57.69   12.90
  -3   6 -13   33.70    6.90
  -4   6 -13    5.70   10.70
  -4   6 -13   10.70    6.60
  -5   6 -13  331.67   18.90
  -5   6 -13  345.77   24.60
   2   5 -13  186.58   22.00
   1   5 -13  509.95   30.10
   0   5 -13  292.17   22.30
  -1   5 -13  102.99   13.80
  -1   5 -13  118.29    8.30
  -2   5 -13   57.89    7.50
  -2   5 -13   74.49   12.10
  -3   5 -13  172.08   11.60
  -3   5 -13  192.58   18.30
  -4   5 -13   68.19    8.00
  -4   5 -13   64.89   11.80
  -5   5 -13    3.00    6.90
  -5   5 -13    4.60   10.30
  -6   5 -13   61.29   11.80
  -6   5 -13   59.69    9.50
   3   4 -13    2.70   10.90
   2   4 -13  232.28   20.30
   1   4 -13 1105.79   49.50
   0   4 -13  926.01   42.50
  -1   4 -13  245.68   18.60
  -1   4 -13  252.87   11.90
  -2   4 -13  107.29    7.80
  -2   4 -13   97.09   14.30
  -3   4 -13  894.91   40.10
  -3   4 -13  831.32   34.60
  -4   4 -13  411.16   24.60
  -4   4 -13  422.26   19.50
  -5   4 -13   89.49   11.10
  -5   4 -13   91.59   12.30
  -6   4 -13    1.40    8.10
  -6   4 -13   -6.70    8.50
   4   3 -13   95.79   13.80
   3   3 -13  367.96   23.70
   2   3 -13   47.30   10.30
   1   3 -13  145.59   14.70
   0   3 -13   88.79   11.20
  -1   3 -13    7.10    3.60
  -1   3 -13   17.40    7.70
  -2   3 -13    5.40    7.70
  -2   3 -13   10.80    3.70
  -3   3 -13  149.59   10.00
  -3   3 -13  168.58   15.60
  -4   3 -13  995.30   38.70
  -4   3 -13  916.31   41.90
  -5   3 -13  284.47   19.00
  -5   3 -13  289.07   16.10
  -6   3 -13   42.90    8.90
   5   2 -13   84.69   13.60
   4   2 -13  222.88   19.70
   3   2 -13  213.98   17.90
   2   2 -13  209.18   16.60
   1   2 -13 1851.11   75.19
   0   2 -13  859.21   31.80
   0   2 -13  792.82   37.50
  -1   2 -13  501.75   26.00
  -1   2 -13  501.05   20.20
  -2   2 -13   93.99    7.00
  -2   2 -13   87.09   13.00
  -3   2 -13   27.30    5.20
  -3   2 -13    0.90    7.20
  -4   2 -13   15.30    7.80
  -4   2 -13   29.90    5.90
  -5   2 -13   84.49    9.40
  -5   2 -13  114.39   11.40
  -6   2 -13  170.88   13.90
   6   1 -13   59.69    8.30
   5   1 -13    9.00    4.80
   5   1 -13    2.40    8.90
   4   1 -13  351.76   22.30
   3   1 -13  105.29   13.90
   2   1 -13   30.90    7.80
   0   1 -13  164.08    7.70
   0   1 -13  135.39   14.10
  -1   1 -13  381.46   21.90
  -1   1 -13  398.76   16.70
  -2   1 -13  686.93   27.50
  -2   1 -13  674.63   31.90
  -3   1 -13   85.29    7.80
  -3   1 -13   90.29   13.10
  -4   1 -13   26.50    7.20
  -4   1 -13   25.20    5.70
  -5   1 -13  171.58   15.10
  -5   1 -13  199.58   13.30
   6   0 -13  206.68   20.70
   6   0 -13  233.68   15.60
   5   0 -13   26.80    9.90
   5   0 -13   49.10    6.60
   3   0 -13  146.09   14.40
   2   0 -13  227.38   16.00
   1   0 -13   90.79   12.40
   1   0 -13   96.09    5.60
   0   0 -13  186.28   14.90
   0   0 -13  199.18    9.50
  -1   0 -13   32.40    4.30
  -1   0 -13   26.20    7.20
  -2   0 -13   87.59   11.90
  -2   0 -13   77.39    7.40
  -3   0 -13  133.09    9.50
  -3   0 -13  129.99   13.10
  -4   0 -13   78.89    8.10
  -4   0 -13   71.09    9.70
  -5   0 -13   14.50    7.10
  -5   0 -13    7.70    6.70
   7  -1 -13  179.28   14.70
   7  -1 -13  173.18   20.10
   6  -1 -13  109.39   16.60
   6  -1 -13   91.19   11.20
   5  -1 -13  349.57   22.10
   5  -1 -13  340.87   17.50
   4  -1 -13  510.15   22.10
   4  -1 -13  507.25   26.70
   3  -1 -13    5.40    3.30
   3  -1 -13    0.40    6.10
   2  -1 -13  227.28   16.40
  -2   1  13  232.18   11.30
   1  -1 -13  343.47   14.60
   1  -1 -13  339.17   19.70
   0  -1 -13  504.25   20.90
   0  -1 -13  519.85   25.50
  -1  -1 -13    1.00    3.70
  -1  -1 -13    2.40    5.80
  -2  -1 -13   22.80    6.40
  -2  -1 -13   14.70    4.80
  -3  -1 -13  275.47   14.50
  -3  -1 -13  266.67   17.80
  -4  -1 -13  190.58   13.30
  -4  -1 -13  175.18   15.20
   7  -2 -13  183.68   14.80
   7  -2 -13  195.88   18.90
   6  -2 -13   39.90    6.60
   6  -2 -13   41.30    9.60
   5  -2 -13    0.40    7.10
   5  -2 -13    0.00    4.40
   4  -2 -13  187.58   14.70
   4  -2 -13  162.28   10.10
   3  -2 -13   59.59    8.60
   3  -2 -13   64.29    6.40
  -3   2  13   53.99    7.00
   2  -2 -13    1.10    2.70
   2  -2 -13    5.40    4.50
  -2   2  13    7.30    4.60
   1  -2 -13    6.50    3.30
   1  -2 -13   16.20    6.90
   0  -2 -13   49.90    6.20
   0  -2 -13   54.79    8.20
  -1  -2 -13    6.20    4.10
  -1  -2 -13   -2.50    5.50
  -2  -2 -13    0.50    6.00
  -2  -2 -13   11.90    5.00
  -3  -2 -13   15.10    6.10
  -3  -2 -13   11.30    7.40
   7  -3 -13   28.20    7.70
   7  -3 -13   25.90   10.00
   6  -3 -13   11.30    6.00
   6  -3 -13   22.70    8.70
   5  -3 -13    3.10    6.80
   5  -3 -13    1.50    4.70
   4  -3 -13    9.30    7.30
   4  -3 -13    0.10    3.60
  -4   3  13   -6.30    5.00
   3  -3 -13  399.36   16.90
   3  -3 -13  400.86   21.90
  -3   3  13  393.26   18.90
   2  -3 -13  233.98   16.00
  -2   3  13  223.28   13.50
   1  -3 -13   31.70    7.40
   0  -3 -13   62.09    9.40
   0  -3 -13   72.69    7.60
  -1  -3 -13  270.97   18.00
  -1  -3 -13  249.88   14.00
  -2  -3 -13  118.39   15.10
  -2  -3 -13  112.19   10.70
  -3  -3 -13   92.29   12.60
  -3  -3 -13   73.99    9.50
   7  -4 -13   92.19   11.10
   7  -4 -13   79.09   12.60
   6  -4 -13    0.80    8.40
   6  -4 -13   -4.00    5.00
   5  -4 -13  -12.00    4.10
   5  -4 -13    9.90    8.10
  -5   4  13   -2.10    5.90
   4  -4 -13    5.00    4.10
   4  -4 -13    8.90    7.60
  -4   4  13    7.00    6.10
   3  -4 -13   25.90    7.70
  -3   4  13   37.20    7.40
   2  -4 -13   50.99    8.50
  -2   4  13   53.59    8.80
   1  -4 -13   35.20    8.20
  -1   4  13   29.70    7.10
   0  -4 -13   21.00    8.30
   0  -4 -13   15.30    5.60
  -1  -4 -13  108.39   15.90
  -1  -4 -13   97.59   11.20
  -2  -4 -13  342.67   24.80
  -2  -4 -13  390.76   20.50
   7  -5 -13   31.20   10.00
   7  -5 -13   28.60    6.90
   6  -5 -13   48.50    6.20
   6  -5 -13   37.30    9.70
  -6   5  13   25.10    7.90
   5  -5 -13  308.37   14.00
   5  -5 -13  290.97   20.70
  -5   5  13  258.87   17.70
   4  -5 -13   35.30    9.70
  -4   5  13   36.40    8.30
   3  -5 -13   59.19   10.60
  -3   5  13   70.99    9.70
   2  -5 -13  315.17   21.50
  -2   5  13  293.17   19.10
   1  -5 -13  303.47   22.00
  -1   5  13  322.17   19.90
   0  -5 -13   28.70   10.50
   0   5  13   26.90   10.20
   6  -6 -13   12.70   10.70
  -6   6  13   19.50    9.10
   5  -6 -13    2.70   10.20
  -5   6  13    9.90    9.30
   4  -6 -13   -4.00    8.00
  -4   6  13   28.40    9.30
   3  -6 -13    2.70    8.70
  -3   6  13    0.40    9.90
   2  -6 -13   25.50   11.10
  -2   6  13   32.10   10.50
   0   6 -14  105.39   17.50
  -1   6 -14  189.68   22.60
  -2   6 -14   90.29   15.00
  -2   6 -14   86.09    9.70
  -3   6 -14  120.39   11.20
  -3   6 -14  112.79   17.00
  -4   6 -14  175.18   21.60
  -4   6 -14  142.59   13.00
   2   5 -14  -11.60   12.10
   1   5 -14  202.78   22.20
   0   5 -14   38.40   12.40
  -1   5 -14  367.16   25.70
  -2   5 -14   61.39    6.70
  -2   5 -14   66.19   12.50
  -3   5 -14  122.59   15.30
  -3   5 -14   97.89   10.20
  -4   5 -14  279.17   23.70
  -4   5 -14  281.97   15.80
  -5   5 -14  168.78   19.90
  -5   5 -14  155.38   13.70
   3   4 -14   79.09   14.20
   2   4 -14   57.89   12.80
   1   4 -14 1454.05   62.69
   0   4 -14  230.78   19.50
  -1   4 -14   88.79    7.40
  -2   4 -14   86.39    8.00
  -2   4 -14   67.49   12.70
  -3   4 -14   -0.90    5.20
  -3   4 -14    5.80    9.50
  -4   4 -14   25.30   10.10
  -4   4 -14   24.20    6.60
  -5   4 -14  193.38   19.00
  -5   4 -14  187.48   14.20
   4   3 -14   49.80   14.00
   3   3 -14  167.28   19.20
   2   3 -14  483.05   27.70
   1   3 -14  630.44   32.70
   0   3 -14  104.09   15.10
  -1   3 -14  112.39    7.40
  -1   3 -14  131.59   15.90
  -2   3 -14  117.29    8.90
  -2   3 -14  126.69   14.20
  -3   3 -14   59.79   10.60
  -3   3 -14   57.09    6.90
  -4   3 -14    3.90    8.70
  -4   3 -14   10.70    5.90
  -5   3 -14   30.90    8.20
  -5   3 -14   30.80    9.60
   5   2 -14   18.70    6.70
   5   2 -14   36.50   12.50
   4   2 -14    6.00   10.00
   3   2 -14   65.59   12.20
   2   2 -14  194.38   17.70
   1   2 -14   20.00    9.10
   0   2 -14   82.29    5.80
   0   2 -14   80.99   11.40
  -1   2 -14   39.70    4.90
  -1   2 -14   38.10    8.70
  -2   2 -14   33.90    9.00
  -2   2 -14   18.30    4.40
  -3   2 -14  437.36   20.00
  -3   2 -14  483.25   25.60
  -4   2 -14  489.25   26.00
  -4   2 -14  466.75   21.50
  -5   2 -14   -1.80    6.60
  -5   2 -14   -1.50    7.30
   5   1 -14  661.73   28.90
   5   1 -14  612.64   34.00
   4   1 -14  787.92   38.20
   3   1 -14   78.09   11.10
   2   1 -14  155.98   15.30
   1   1 -14   88.89   11.50
   0   1 -14  176.48    8.80
   0   1 -14  164.48   15.10
  -1   1 -14    3.00    3.30
  -1   1 -14   -7.30    6.80
  -2   1 -14  102.39    8.40
  -2   1 -14   94.29   14.30
  -3   1 -14   59.09    6.80
  -3   1 -14   60.49   10.00
  -4   1 -14   86.49   10.50
  -4   1 -14   74.39    8.70
  -5   1 -14  358.26   21.80
  -5   1 -14  403.56   20.20
   6   0 -14   26.60    7.80
   6   0 -14    7.50   10.70
   5   0 -14   55.79    7.60
   5   0 -14   38.50   11.20
   4   0 -14  268.47   13.80
   4   0 -14  220.98   19.60
   3   0 -14   28.50    8.70
   2   0 -14  109.09   14.00
   1   0 -14   20.30    7.90
   1   0 -14   26.20    3.40
   0   0 -14   38.60    4.70
   0   0 -14   48.40    9.20
  -1   0 -14  317.97   19.50
  -1   0 -14  301.37   14.20
  -2   0 -14  158.48   10.00
  -2   0 -14  135.89   14.30
  -3   0 -14   -8.10    4.60
  -3   0 -14    0.60    6.80
  -4   0 -14  288.37   16.20
  -4   0 -14  281.67   18.90
   6  -1 -14  120.59   15.00
   6  -1 -14   92.29   11.70
   5  -1 -14   35.20    6.60
   5  -1 -14   43.40   10.70
   4  -1 -14   27.00    9.20
   4  -1 -14   32.30    5.30
   3  -1 -14  305.87   14.50
   3  -1 -14  303.37   20.20
   2  -1 -14  108.79   13.00
  -2   1  14  106.59    8.30
   1  -1 -14   93.69   12.50
   1  -1 -14   93.79    7.00
   0  -1 -14  206.68   15.80
   0  -1 -14  210.28   10.80
  -1  -1 -14   78.89   10.60
  -1  -1 -14   56.79    7.30
  -2  -1 -14   44.90    8.30
  -2  -1 -14   48.40    6.30
  -3  -1 -14   12.70    7.80
  -3  -1 -14    4.90    5.90
  -4  -1 -14    2.60    6.80
  -4  -1 -14  -13.90    7.30
   6  -2 -14    7.60    5.90
   6  -2 -14   -4.30    8.70
   5  -2 -14   37.30    6.10
   5  -2 -14   32.10    9.90
   4  -2 -14   44.30    5.50
   4  -2 -14   44.80    9.20
   3  -2 -14   20.30    8.60
   3  -2 -14   16.90    3.80
  -3   2  14   26.60    5.30
   2  -2 -14    8.10    5.90
   2  -2 -14   11.60    3.30
  -2   2  14    7.80    5.90
   1  -2 -14  294.27   18.80
   0  -2 -14   11.50    6.40
   0  -2 -14    3.80    4.10
  -1  -2 -14  277.27   18.60
  -1  -2 -14  257.67   13.80
  -2  -2 -14 1023.90   41.80
  -2  -2 -14 1031.10   45.50
  -3  -2 -14  285.37   16.80
  -3  -2 -14  281.27   20.50
   6  -3 -14  226.48   19.50
   6  -3 -14  220.28   14.40
   5  -3 -14  259.77   14.40
   5  -3 -14  254.17   19.20
   4  -3 -14    1.10    7.40
   4  -3 -14    5.10    4.40
  -4   3  14   -6.10    5.50
   3  -3 -14  145.79   14.50
   3  -3 -14  160.08    8.70
  -3   3  14  143.19   11.30
   2  -3 -14  420.26   23.60
  -2   3  14  422.36   20.70
   1  -3 -14  101.99   13.70
   0  -3 -14   -8.20    4.50
   0  -3 -14   -3.50    7.30
  -1  -3 -14  132.69   11.40
  -1  -3 -14  144.79   15.50
  -2  -3 -14   55.89   10.50
  -2  -3 -14   46.40    8.00
   6  -4 -14    4.70    5.60
   6  -4 -14    5.80    9.70
   5  -4 -14    1.50    4.90
   5  -4 -14    6.70    8.70
  -5   4  14   -2.70    7.40
   4  -4 -14   12.30    4.60
   4  -4 -14    6.80    8.80
  -4   4  14   13.60    7.10
   3  -4 -14  104.39   14.50
  -3   4  14  109.39   10.70
   2  -4 -14   67.09   10.20
  -2   4  14   82.29    9.90
   1  -4 -14    1.20    7.60
  -1   4  14   -2.10    7.60
   0  -4 -14  500.35   28.20
  -1  -4 -14  320.77   22.90
  -1  -4 -14  306.77   18.40
   6  -5 -14   -2.50    9.20
   6  -5 -14   25.90    6.00
   5  -5 -14  141.49   17.60
  -5   5  14  136.79   14.90
   4  -5 -14   89.59   12.70
  -4   5  14  129.09   13.70
   3  -5 -14   24.90    9.30
  -3   5  14   35.90    9.50
   2  -5 -14   45.40   10.60
  -2   5  14   58.19   10.70
   1  -5 -14   23.10   10.20
  -1   5  14    6.50   10.10
  -2   6 -15   40.90   13.50
   1   5 -15  125.69   17.70
   0   5 -15   61.29   13.40
  -1   5 -15    4.30   11.60
  -2   5 -15  106.59   16.00
  -2   5 -15  108.59   10.90
  -3   5 -15  111.49   10.80
  -3   5 -15  101.19   15.80
  -4   5 -15  151.38   22.00
  -4   5 -15  109.09   12.50
   2   4 -15  109.69   17.00
   1   4 -15   11.10   10.50
   0   4 -15   68.99   13.00
  -1   4 -15   11.40   10.50
  -2   4 -15   67.09    8.50
  -2   4 -15   54.09   12.50
  -3   4 -15  193.28   21.60
  -3   4 -15  234.38   13.20
  -4   4 -15  189.48   13.20
  -4   4 -15  162.98   20.60
   3   3 -15   45.70   12.90
   2   3 -15   41.40   11.80
   1   3 -15   -3.80    9.50
   0   3 -15  148.69   18.00
  -1   3 -15   49.50    5.40
  -1   3 -15   41.60   11.50
  -2   3 -15   -4.80    9.70
  -2   3 -15   16.70    4.80
  -3   3 -15   76.49   12.70
  -3   3 -15   82.49    9.40
  -4   3 -15   85.39   12.60
  -4   3 -15   66.39    8.70
   4   2 -15  202.28   22.00
   3   2 -15  126.89   18.60
   2   2 -15   52.39   11.60
   1   2 -15   39.40   10.70
   0   2 -15  291.77   20.90
  -1   2 -15  232.08   11.40
  -1   2 -15  219.48   19.00
  -2   2 -15   75.49    8.00
  -2   2 -15   45.50   11.00
  -3   2 -15    1.90    8.90
  -3   2 -15    8.30    5.20
  -4   2 -15  326.57   17.50
  -4   2 -15  353.66   22.40
   5   1 -15   16.00   12.00
   5   1 -15   11.70    6.80
   4   1 -15   17.60   10.80
   3   1 -15  205.78   19.40
   2   1 -15   68.99   12.40
   1   1 -15   12.80    8.40
   0   1 -15   -4.50    8.50
   0   1 -15    0.90    3.20
  -1   1 -15  138.59    8.70
  -1   1 -15  127.39   16.60
  -2   1 -15  102.49   12.80
  -2   1 -15   75.19    8.60
  -3   1 -15  104.09   15.80
  -3   1 -15  113.79   10.40
  -4   1 -15    4.30    7.90
  -4   1 -15   10.70    6.90
   5   0 -15  192.98   21.80
   5   0 -15  161.38   13.50
   4   0 -15    7.00    9.90
   4   0 -15    6.00    5.00
   3   0 -15   53.89   10.70
   2   0 -15  230.28   19.60
   1   0 -15  191.98   17.20
   0   0 -15   32.10    4.10
   0   0 -15   41.30    9.50
  -1   0 -15  440.66   19.10
  -1   0 -15  428.46   24.80
  -2   0 -15  778.92   36.00
  -2   0 -15  749.92   31.40
  -3   0 -15   43.80    7.30
  -3   0 -15   49.60    9.60
   5  -1 -15  120.19   18.00
   5  -1 -15  111.89   12.00
   4  -1 -15   14.80    9.00
   4  -1 -15    7.80    5.10
   3  -1 -15   -2.60    3.90
   3  -1 -15   -3.80    8.10
   2  -1 -15   98.19    7.20
   2  -1 -15  109.29   14.40
  -2   1  15   96.59    8.80
   1  -1 -15  198.98   16.70
   0  -1 -15   19.80    8.10
   0  -1 -15   25.00    4.70
  -1  -1 -15   27.30    8.70
  -1  -1 -15   25.90    5.30
  -2  -1 -15   28.90    8.70
  -2  -1 -15   23.20    6.30
  -3  -1 -15    0.70    8.00
  -3  -1 -15   -1.00    6.40
   6  -2 -15   31.70    7.30
   6  -2 -15   43.60   12.30
   5  -2 -15   35.40   10.60
   5  -2 -15   32.90    6.20
   4  -2 -15  166.48   10.90
   4  -2 -15  171.28   16.80
   3  -2 -15   81.39   12.80
   3  -2 -15   54.59    6.60
   2  -2 -15   31.30    4.20
   2  -2 -15   22.60    8.50
  -2   2  15   11.90    6.40
   1  -2 -15   71.29   11.50
   0  -2 -15  370.56   22.30
   0  -2 -15  368.06   17.40
  -1  -2 -15  183.08   17.10
  -1  -2 -15  183.58   12.30
  -2  -2 -15   39.90    7.30
  -2  -2 -15   37.50   10.30
   6  -3 -15   47.50    8.30
   6  -3 -15   55.69   12.00
   5  -3 -15    4.60    5.70
   5  -3 -15    1.10    8.60
   4  -3 -15   41.70   11.20
   4  -3 -15   37.50    6.00
   3  -3 -15  181.48   16.80
  -3   3  15  180.98   13.10
   2  -3 -15  281.07   20.20
  -2   3  15  302.77   17.40
   1  -3 -15    7.80    8.20
  -1   3  15    5.40    6.80
   0  -3 -15    9.90    5.70
   0  -3 -15    8.80    8.10
  -1  -3 -15   49.10   10.90
  -1  -3 -15   28.70    7.20
   5  -4 -15   17.90    9.50
   5  -4 -15    7.50    5.70
   4  -4 -15   11.20    9.00
  -4   4  15   -4.90    7.70
   3  -4 -15   64.99   12.20
  -3   4  15   64.09   10.10
   2  -4 -15   15.00    9.40
  -2   4  15   -2.60    8.60
   1  -4 -15   45.90   10.90
  -1   4  15   37.90   10.10
   0  -4 -15   45.50   11.70
   4  -5 -15   -1.60    9.20
  -4   5  15   16.80    9.50
   3  -5 -15   61.29   12.30
  -3   5  15   59.19   11.30
  -1   5 -16  233.18   24.50
  -2   5 -16    8.60   13.30
   1   4 -16  303.17   26.50
   0   4 -16  208.88   23.20
  -1   4 -16  136.19   21.10
  -2   4 -16    4.70   11.50
  -3   4 -16   -6.10   11.20
  -3   4 -16    4.20    6.50
   2   3 -16  180.48   22.10
   1   3 -16  121.69   16.40
   0   3 -16   -5.30   10.20
  -1   3 -16  187.58   20.10
  -2   3 -16  424.86   19.00
  -2   3 -16  430.96   28.00
  -3   3 -16   44.70   13.50
  -3   3 -16   39.30    6.50
   3   2 -16  261.27   23.50
   2   2 -16  113.39   15.30
   1   2 -16   68.29   12.60
   0   2 -16  165.78   18.90
  -1   2 -16  226.28   20.50
  -1   2 -16  224.38   11.60
  -2   2 -16  215.48   12.70
  -2   2 -16  219.38   21.90
  -3   2 -16   57.09   12.10
  -3   2 -16   46.70    7.20
   4   1 -16   48.10   13.50
   3   1 -16   92.09   14.00
   2   1 -16   29.10   10.40
   1   1 -16  232.98   21.30
   0   1 -16  262.17   22.10
  -1   1 -16   42.10    5.60
  -1   1 -16   34.90   10.90
  -2   1 -16   28.00   11.00
  -2   1 -16   28.40    5.80
  -3   1 -16   59.79   11.40
  -3   1 -16   48.70    7.70
   4   0 -16   96.29   15.00
   4   0 -16  106.69   11.30
   3   0 -16    6.00   10.00
   2   0 -16  116.19   14.30
   1   0 -16   73.79   12.40
   0   0 -16  308.27   21.90
   0   0 -16  288.27   14.00
  -1   0 -16  406.56   24.50
  -1   0 -16  371.06   17.80
  -2   0 -16  292.57   16.00
  -2   0 -16  313.87   21.50
  -3   0 -16   23.30    9.50
   5  -1 -16   52.39   12.30
   5  -1 -16   38.70    8.20
   4  -1 -16   -9.80    9.40
   4  -1 -16   -1.70    5.30
   3  -1 -16  311.17   23.00
   3  -1 -16  331.37   16.00
   2  -1 -16  547.65   29.80
   2  -1 -16  529.45   22.60
   1  -1 -16    5.60    4.10
   1  -1 -16   10.10    7.80
   0  -1 -16   49.10    6.20
   0  -1 -16   45.30    9.70
  -1  -1 -16  313.77   21.90
  -1  -1 -16  297.27   15.90
  -2  -1 -16   80.19    8.70
  -2  -1 -16   85.09   11.90
   5  -2 -16   24.40   11.80
   5  -2 -16   23.40    6.50
   4  -2 -16  183.88   18.80
   4  -2 -16  168.98   11.70
   3  -2 -16  101.19   15.60
   3  -2 -16   94.79    8.50
   2  -2 -16   16.20    9.00
  -2   2  16   19.00    6.90
   1  -2 -16    6.40    8.30
   0  -2 -16   27.50    6.00
   0  -2 -16   37.50   10.40
  -1  -2 -16   -4.60    9.20
  -1  -2 -16    3.60    6.30
   4  -3 -16   -6.40    8.50
   3  -3 -16   45.90   10.50
   2  -3 -16   56.69   11.70
  -2   3  16   59.39    9.60
   1  -3 -16  -15.00    9.20
  -1   3  16    9.80    8.30
   0  -3 -16    6.90    9.10
   3  -4 -16   22.10   10.10
  -3   4  16    6.40   10.00
   2  -4 -16   -1.00    9.30
   1   3 -17  205.98   23.80
   0   3 -17  111.19   16.20
  -1   3 -17    6.80   12.00
  -2   3 -17  154.08   22.90
   2   2 -17    1.40   11.60
   1   2 -17   -0.10   11.60
   0   2 -17   31.30   12.00
  -1   2 -17  344.87   26.90
  -2   2 -17  278.97   24.80
  -2   2 -17  239.28   14.10
   3   1 -17  211.88   23.30
   2   1 -17  291.47   25.50
   1   1 -17   -7.60   10.00
   0   1 -17  274.97   23.80
  -1   1 -17  506.05   31.40
  -1   1 -17  507.05   22.00
  -2   1 -17  204.48   13.20
  -2   1 -17  226.48   22.90
   3   0 -17   30.00    6.40
   3   0 -17   18.30   12.30
   2   0 -17   43.20   12.10
   1   0 -17   26.00   11.30
   0   0 -17   16.40   10.80
  -1   0 -17   80.39    9.70
  -1   0 -17   86.59   13.80
   3  -1 -17    0.60   10.70
   3  -1 -17    0.70    5.30
   2  -1 -17   12.60    5.10
   2  -1 -17    5.50    9.30
   1  -1 -17   16.50    9.90
   0  -1 -17   93.59    9.50
   0  -1 -17   77.39   12.60
  -1  -1 -17   41.10   11.30
   3  -2 -17    7.50    9.50
   2  -2 -17  152.28   19.30
   1  -2 -17  306.37   23.40
  -1   2  17  320.47   18.30
   0   0   0    0.00    0.00

_computing_structure_solution     'SHELXT 2014/5 (Sheldrick, 2014)'
;
_shelx_hkl_checksum              82179
loop_
_space_group_symop_operation_xyz
'x, y, z'
'-x, -y, -z'
loop_
_atom_site_label
_atom_site_type_symbol
_atom_site_fract_x
_atom_site_fract_y
_atom_site_fract_z
_atom_site_U_iso_or_equiv
_atom_site_adp_type
_atom_site_occupancy
_atom_site_site_symmetry_order
_atom_site_calc_flag
_atom_site_refinement_flags_posn
_atom_site_refinement_flags_adp
C1 C 0.0756(4) 0.2929(4) 1.04147(18) 0.0361(6) Uani 1 1 d . .
H1A H 0.1536 0.2563 1.0844 0.054 Uiso 1 1 calc R U
H1B H -0.0270 0.1781 1.0012 0.054 Uiso 1 1 calc R U
H1C H 0.0147 0.3506 1.0803 0.054 Uiso 1 1 calc R U
C2 C 0.2101(3) 0.4404(3) 0.97622(16) 0.0253(5) Uani 1 1 d . .
C3 C 0.1875(3) 0.3951(3) 0.87443(16) 0.0261(5) Uani 1 1 d . .
H3 H 0.0882 0.2709 0.8464 0.031 Uiso 1 1 calc R U
C4 C 0.3093(3) 0.5304(3) 0.81373(15) 0.0254(5) Uani 1 1 d . .
H4 H 0.2935 0.4957 0.7462 0.031 Uiso 1 1 calc R U
C5 C 0.4551(3) 0.7181(3) 0.85456(15) 0.0216(4) Uani 1 1 d . .
C6 C 0.4807(3) 0.7659(3) 0.95646(15) 0.0255(5) Uani 1 1 d . .
H6 H 0.5789 0.8905 0.9845 0.031 Uiso 1 1 calc R U
C7 C 0.3599(3) 0.6276(3) 1.01572(15) 0.0268(5) Uani 1 1 d . .
H7 H 0.3793 0.6606 1.0836 0.032 Uiso 1 1 calc R U
C8 C 0.4581(3) 0.8497(3) 0.66980(15) 0.0220(5) Uani 1 1 d . .
C9 C 0.2902(3) 0.8761(3) 0.66717(15) 0.0221(5) Uani 1 1 d . .
C10 C 0.1709(3) 0.8319(3) 0.57726(15) 0.0221(5) Uani 1 1 d . .
H10 H 0.0598 0.8498 0.5758 0.027 Uiso 1 1 calc R U
C11 C 0.2081(3) 0.7631(3) 0.49012(15) 0.0202(4) Uani 1 1 d . .
C12 C 0.3799(3) 0.7384(3) 0.49110(14) 0.0191(4) Uani 1 1 d . .
C13 C 0.5071(3) 0.7895(3) 0.58207(15) 0.0199(4) Uani 1 1 d . .
C14 C 0.2366(4) 0.9530(4) 0.75695(17) 0.0330(6) Uani 1 1 d . .
H14A H 0.1200 0.9646 0.7391 0.050 Uiso 1 1 calc R U
H14B H 0.3467 1.0799 0.7824 0.050 Uiso 1 1 calc R U
H14C H 0.2088 0.8635 0.8065 0.050 Uiso 1 1 calc R U
C15 C 0.0626(3) 0.7246(3) 0.40005(16) 0.0269(5) Uani 1 1 d . .
H15A H -0.0172 0.5854 0.3816 0.040 Uiso 1 1 calc R U
H15B H 0.1359 0.7870 0.3466 0.040 Uiso 1 1 calc R U
H15C H -0.0232 0.7772 0.4148 0.040 Uiso 1 1 calc R U
C16 C 0.4369(3) 0.6636(3) 0.40395(15) 0.0225(5) Uani 1 1 d . .
C17 C 0.3037(4) 0.5717(4) 0.30812(16) 0.0311(5) Uani 1 1 d . .
H17A H 0.2990 0.6724 0.2729 0.047 Uiso 1 1 calc R U
H17B H 0.1709 0.4784 0.3213 0.047 Uiso 1 1 calc R U
H17C H 0.3562 0.5056 0.2690 0.047 Uiso 1 1 calc R U
O1 O 0.6030(2) 0.6710(2) 0.40856(11) 0.0302(4) Uani 1 1 d . .
O2 O 0.6781(2) 0.7821(2) 0.58735(11) 0.0256(4) Uani 1 1 d . .
H2 H 0.6921 0.7446 0.5328 0.038 Uiso 1 1 calc R U
S1 S 0.61868(8) 0.90050(9) 0.78143(4) 0.0296(2) Uani 1 1 d . .
loop_
_atom_site_aniso_label
_atom_site_aniso_U_11
_atom_site_aniso_U_22
_atom_site_aniso_U_33
_atom_site_aniso_U_23
_atom_site_aniso_U_13
_atom_site_aniso_U_12
C1 0.0314(13) 0.0438(15) 0.0352(13) 0.0172(11) 0.0103(10) 0.0182(11)
C2 0.0240(11) 0.0301(12) 0.0277(11) 0.0094(9) 0.0058(9) 0.0170(10)
C3 0.0224(10) 0.0221(11) 0.0294(12) 0.0001(9) -0.0001(9) 0.0083(9)
C4 0.0252(11) 0.0286(12) 0.0189(10) 0.0013(9) 0.0007(8) 0.0109(9)
C5 0.0202(10) 0.0243(11) 0.0200(10) 0.0055(8) 0.0022(8) 0.0103(9)
C6 0.0239(11) 0.0242(12) 0.0249(11) -0.0022(9) -0.0018(9) 0.0103(9)
C7 0.0297(11) 0.0355(13) 0.0169(10) 0.0031(9) 0.0025(9) 0.0174(10)
C8 0.0200(10) 0.0204(11) 0.0210(11) 0.0060(8) 0.0015(8) 0.0063(9)
C9 0.0213(10) 0.0176(11) 0.0249(11) 0.0069(8) 0.0081(8) 0.0065(8)
C10 0.0170(10) 0.0212(11) 0.0297(11) 0.0082(9) 0.0063(8) 0.0095(9)
C11 0.0158(9) 0.0155(10) 0.0252(11) 0.0075(8) 0.0040(8) 0.0038(8)
C12 0.0174(10) 0.0161(10) 0.0215(10) 0.0057(8) 0.0037(8) 0.0061(8)
C13 0.0157(9) 0.0170(10) 0.0268(11) 0.0087(8) 0.0052(8) 0.0069(8)
C14 0.0314(12) 0.0372(14) 0.0298(12) 0.0038(10) 0.0116(10) 0.0154(11)
C15 0.0196(10) 0.0307(12) 0.0289(12) 0.0057(9) 0.0004(9) 0.0115(9)
C16 0.0243(11) 0.0173(10) 0.0267(11) 0.0088(8) 0.0083(8) 0.0096(9)
C17 0.0387(13) 0.0361(13) 0.0226(11) 0.0007(9) 0.0021(9) 0.0221(11)
O1 0.0247(8) 0.0316(9) 0.0356(9) 0.0012(7) 0.0080(6) 0.0146(7)
O2 0.0186(7) 0.0300(9) 0.0308(8) 0.0050(7) 0.0024(6) 0.0138(7)
S1 0.0211(3) 0.0317(3) 0.0230(3) 0.0082(2) -0.0011(2) 0.0030(2)
loop_
_atom_type_symbol
_atom_type_description
_atom_type_scat_dispersion_real
_atom_type_scat_dispersion_imag
_atom_type_scat_source
C C 0.0033 0.0016 'International Tables Vol C Tables 4.2.6.8 and 6.1.1.4'
H H 0.0000 0.0000 'International Tables Vol C Tables 4.2.6.8 and 6.1.1.4'
O O 0.0106 0.0060 'International Tables Vol C Tables 4.2.6.8 and 6.1.1.4'
S S 0.1246 0.1234 'International Tables Vol C Tables 4.2.6.8 and 6.1.1.4'
loop_
_geom_angle_atom_site_label_1
_geom_angle_atom_site_label_2
_geom_angle_atom_site_label_3
_geom_angle
C2 C1 H1A 109.5
C2 C1 H1B 109.5
H1A C1 H1B 109.5
C2 C1 H1C 109.5
H1A C1 H1C 109.5
H1B C1 H1C 109.5
C7 C2 C3 117.6(2)
C7 C2 C1 121.0(2)
C3 C2 C1 121.3(2)
C4 C3 C2 121.7(2)
C4 C3 H3 119.1
C2 C3 H3 119.1
C3 C4 C5 119.64(19)
C3 C4 H4 120.2
C5 C4 H4 120.2
C4 C5 C6 119.4(2)
C4 C5 S1 122.35(16)
C6 C5 S1 118.18(16)
C7 C6 C5 119.9(2)
C7 C6 H6 120.0
C5 C6 H6 120.0
C6 C7 C2 121.6(2)
C6 C7 H7 119.2
C2 C7 H7 119.2
C9 C8 C13 119.64(18)
C9 C8 S1 121.57(16)
C13 C8 S1 118.74(16)
C8 C9 C10 118.27(19)
C8 C9 C14 122.52(19)
C10 C9 C14 119.20(19)
C11 C10 C9 123.92(19)
C11 C10 H10 118.0
C9 C10 H10 118.0
C10 C11 C12 118.56(18)
C10 C11 C15 116.22(18)
C12 C11 C15 125.21(18)
C11 C12 C13 118.03(18)
C11 C12 C16 124.49(18)
C13 C12 C16 117.47(18)
O2 C13 C8 117.14(18)
O2 C13 C12 121.46(18)
C8 C13 C12 121.40(18)
C9 C14 H14A 109.5
C9 C14 H14B 109.5
H14A C14 H14B 109.5
C9 C14 H14C 109.5
H14A C14 H14C 109.5
H14B C14 H14C 109.5
C11 C15 H15A 109.5
C11 C15 H15B 109.5
H15A C15 H15B 109.5
C11 C15 H15C 109.5
H15A C15 H15C 109.5
H15B C15 H15C 109.5
O1 C16 C12 119.77(19)
O1 C16 C17 115.99(19)
C12 C16 C17 124.22(19)
C16 C17 H17A 109.5
C16 C17 H17B 109.5
H17A C17 H17B 109.5
C16 C17 H17C 109.5
H17A C17 H17C 109.5
H17B C17 H17C 109.5
C13 O2 H2 109.5
C8 S1 C5 101.87(10)
loop_
_geom_bond_atom_site_label_1
_geom_bond_atom_site_label_2
_geom_bond_distance
C1 C2 1.510(3)
C1 H1A 0.9600
C1 H1B 0.9600
C1 H1C 0.9600
C2 C7 1.392(3)
C2 C3 1.393(3)
C3 C4 1.389(3)
C3 H3 0.9300
C4 C5 1.391(3)
C4 H4 0.9300
C5 C6 1.396(3)
C5 S1 1.791(2)
C6 C7 1.384(3)
C6 H6 0.9300
C7 H7 0.9300
C8 C9 1.403(3)
C8 C13 1.407(3)
C8 S1 1.786(2)
C9 C10 1.396(3)
C9 C14 1.508(3)
C10 C11 1.386(3)
C10 H10 0.9300
C11 C12 1.425(3)
C11 C15 1.513(3)
C12 C13 1.431(3)
C12 C16 1.484(3)
C13 O2 1.342(2)
C14 H14A 0.9600
C14 H14B 0.9600
C14 H14C 0.9600
C15 H15A 0.9600
C15 H15B 0.9600
C15 H15C 0.9600
C16 O1 1.247(3)
C16 C17 1.504(3)
C17 H17A 0.9600
C17 H17B 0.9600
C17 H17C 0.9600
O2 H2 0.8200
