#------------------------------------------------------------------------------
#$Date: 2019-10-28 02:59:34 +0200 (Mon, 28 Oct 2019) $
#$Revision: 219614 $
#$URL: file:///home/coder/svn-repositories/cod/cif/4/03/36/4033627.cif $
#------------------------------------------------------------------------------
#
# This file is available in the Crystallography Open Database (COD),
# http://www.crystallography.net/
#
# All data on this site have been placed in the public domain by the
# contributors.
#
data_4033627
loop_
_publ_author_name
'Dey, Amrita'
'Hajra, Alakananda'
_publ_section_title
;
 Iodine-Catalyzed Selenylation of 2<i>H</i>-Indazole.
;
_journal_name_full               'The Journal of organic chemistry'
_journal_paper_doi               10.1021/acs.joc.9b02199
_journal_year                    2019
_chemical_formula_moiety         'C19 H13 Cl N2 Se'
_chemical_formula_sum            'C19 H13 Cl N2 Se'
_chemical_formula_weight         383.72
_space_group_crystal_system      triclinic
_space_group_IT_number           2
_space_group_name_Hall           '-P 1'
_space_group_name_H-M_alt        'P -1'
_symmetry_space_group_name_Hall  '-P 1'
_symmetry_space_group_name_H-M   'P -1'
_atom_sites_solution_hydrogens   geom
_audit_creation_method           SHELXL-2014/7
_cell_angle_alpha                117.878(2)
_cell_angle_beta                 91.349(2)
_cell_angle_gamma                98.247(2)
_cell_formula_units_Z            2
_cell_length_a                   9.3670(4)
_cell_length_b                   9.7630(5)
_cell_length_c                   10.3133(5)
_cell_measurement_reflns_used    13295
_cell_measurement_temperature    294(2)
_cell_measurement_theta_max      28.299
_cell_measurement_theta_min      2.380
_cell_volume                     820.63(7)
_computing_structure_refinement  'SHELXL-2014/7 (Sheldrick, 2014)'
_diffrn_ambient_temperature      294(2)
_diffrn_measured_fraction_theta_full 0.996
_diffrn_measured_fraction_theta_max 0.995
_diffrn_measurement_device_type  'CCD area detector'
_diffrn_measurement_method       'phi and omega scans'
_diffrn_radiation_type           MoK\a
_diffrn_radiation_wavelength     0.71073
_diffrn_reflns_av_R_equivalents  0.0285
_diffrn_reflns_av_unetI/netI     0.0295
_diffrn_reflns_Laue_measured_fraction_full 0.996
_diffrn_reflns_Laue_measured_fraction_max 0.995
_diffrn_reflns_limit_h_max       12
_diffrn_reflns_limit_h_min       -12
_diffrn_reflns_limit_k_max       13
_diffrn_reflns_limit_k_min       -12
_diffrn_reflns_limit_l_max       12
_diffrn_reflns_limit_l_min       -13
_diffrn_reflns_number            13295
_diffrn_reflns_point_group_measured_fraction_full 0.996
_diffrn_reflns_point_group_measured_fraction_max 0.995
_diffrn_reflns_theta_full        25.242
_diffrn_reflns_theta_max         28.299
_diffrn_reflns_theta_min         2.380
_diffrn_source                   'fine-focus sealed tube'
_exptl_absorpt_coefficient_mu    2.450
_exptl_absorpt_correction_T_max  0.610
_exptl_absorpt_correction_T_min  0.481
_exptl_absorpt_correction_type   empirical
_exptl_absorpt_process_details   sadabs
_exptl_crystal_colour            colourless
_exptl_crystal_density_diffrn    1.553
_exptl_crystal_density_method    'not measured'
_exptl_crystal_description       tetragonal
_exptl_crystal_F_000             384
_exptl_crystal_size_max          0.30
_exptl_crystal_size_mid          0.25
_exptl_crystal_size_min          0.20
_refine_diff_density_max         0.355
_refine_diff_density_min         -0.468
_refine_diff_density_rms         0.075
_refine_ls_extinction_method     none
_refine_ls_goodness_of_fit_ref   0.856
_refine_ls_hydrogen_treatment    constr
_refine_ls_matrix_type           full
_refine_ls_number_parameters     208
_refine_ls_number_reflns         4075
_refine_ls_number_restraints     0
_refine_ls_restrained_S_all      0.856
_refine_ls_R_factor_all          0.0401
_refine_ls_R_factor_gt           0.0309
_refine_ls_shift/su_max          0.001
_refine_ls_shift/su_mean         0.000
_refine_ls_structure_factor_coef Fsqd
_refine_ls_weighting_details
'w=1/[\s^2^(Fo^2^)+(0.1000P)^2^] where P=(Fo^2^+2Fc^2^)/3'
_refine_ls_weighting_scheme      calc
_refine_ls_wR_factor_gt          0.0968
_refine_ls_wR_factor_ref         0.1104
_reflns_Friedel_coverage         0.000
_reflns_number_gt                3470
_reflns_number_total             4075
_reflns_threshold_expression     'I > 2\s(I)'
_cod_data_source_file            jo9b02199_si_002.cif
_cod_data_source_block           1350RKM_A_0m_a
_cod_original_cell_volume        820.64(7)
_cod_database_code               4033627
_shelx_shelxl_version_number     2014/7
_shelx_space_group_comment
;
The symmetry employed for this shelxl refinement is uniquely defined
by the following loop, which should always be used as a source of
symmetry information in preference to the above space-group names.
They are only intended as comments.
;
_shelx_res_file
;

    1350RKM_A_0m_a.res created by SHELXL-2014/7

TITL 1350RKM_A_0m_a.res in P-1
CELL  0.71073   9.3670   9.7630  10.3133  117.878   91.349   98.247
ZERR   16.000   0.0004   0.0005   0.0005    0.002    0.002    0.002
LATT 1
SFAC C  H  N  O  Br Se Cl
UNIT 16  16  16  16  16  16  16
L.S. 10
ACTA
BOND $H
FMAP 2
PLAN 20
TEMP 21.300
WGHT    0.100000
FVAR       1.11217
SE1   6    0.875635    0.480176    0.228926    11.00000    0.04528    0.04535 =
         0.04321    0.02834    0.00527    0.00370
CL1   7    0.957276   -0.178350    0.109694    11.00000    0.08742    0.04017 =
         0.08103    0.02369    0.01932    0.01843
N1    3    0.771780    0.462692    0.485100    11.00000    0.04187    0.04346 =
         0.03572    0.02317    0.00358    0.01000
N2    3    0.763822    0.377838    0.558205    11.00000    0.05360    0.05569 =
         0.04020    0.03224    0.00691    0.01414
C1    1    0.713082    0.386868    0.080159    11.00000    0.04381    0.03581 =
         0.03269    0.01858    0.00723    0.01357
C14   1    0.726328    0.612755    0.554881    11.00000    0.03915    0.04124 =
         0.03828    0.02017    0.00848    0.00707
C7    1    0.821358    0.387895    0.349335    11.00000    0.04136    0.03915 =
         0.03373    0.02029    0.00380    0.00847
C8    1    0.842507    0.241456    0.332069    11.00000    0.03404    0.04209 =
         0.03751    0.02236    0.00089    0.00566
C2    1    0.726485    0.414151   -0.040512    11.00000    0.05854    0.04646 =
         0.04259    0.02882    0.01425    0.01304
AFIX  43
H2    2    0.812538    0.469209   -0.048389    11.00000   -1.20000
AFIX   0
C13   1    0.806678    0.243365    0.465533    11.00000    0.04191    0.04967 =
         0.03981    0.02854    0.00276    0.00802
C15   1    0.770075    0.711395    0.703062    11.00000    0.04842    0.05406 =
         0.04268    0.02171    0.00320    0.00316
AFIX  43
H15   2    0.828622    0.681051    0.755603    11.00000   -1.20000
AFIX   0
C6    1    0.586676    0.299710    0.088442    11.00000    0.05196    0.06035 =
         0.03939    0.03063    0.00660    0.00673
AFIX  43
H6    2    0.578251    0.277945    0.166888    11.00000   -1.20000
AFIX   0
C9    1    0.889666    0.110941    0.219112    11.00000    0.04407    0.04452 =
         0.04266    0.02310    0.00379    0.00384
AFIX  43
H9    2    0.914289    0.109060    0.131531    11.00000   -1.20000
AFIX   0
C10   1    0.897408   -0.013026    0.244831    11.00000    0.04679    0.03434 =
         0.05424    0.01860    0.00219    0.00761
C11   1    0.860852   -0.014988    0.376184    11.00000    0.05443    0.04913 =
         0.06938    0.03957   -0.00177    0.00752
AFIX  43
H11   2    0.867333   -0.103348    0.386990    11.00000   -1.20000
AFIX   0
C3    1    0.611198    0.358934   -0.148367    11.00000    0.07369    0.05758 =
         0.03521    0.02693    0.00782    0.02267
AFIX  43
H3    2    0.619351    0.378690   -0.228026    11.00000   -1.20000
AFIX   0
C18   1    0.592109    0.799432    0.546805    11.00000    0.06359    0.05810 =
         0.07210    0.03546    0.01627    0.02604
AFIX  43
H18   2    0.531841    0.829070    0.495016    11.00000   -1.20000
AFIX   0
C12   1    0.816226    0.111288    0.487091    11.00000    0.05951    0.05772 =
         0.05325    0.04000    0.00524    0.01196
AFIX  43
H12   2    0.792751    0.111113    0.574137    11.00000   -1.20000
AFIX   0
C4    1    0.485214    0.275468   -0.138886    11.00000    0.06099    0.06547 =
         0.03882    0.02111   -0.00069    0.01755
AFIX  43
H4    2    0.407941    0.239124   -0.211668    11.00000   -1.20000
AFIX   0
C19   1    0.636483    0.654826    0.476519    11.00000    0.05279    0.05337 =
         0.04839    0.02495    0.00361    0.01686
AFIX  43
H19   2    0.606058    0.586609    0.377400    11.00000   -1.20000
AFIX   0
C5    1    0.472833    0.245250   -0.021432    11.00000    0.04848    0.07367 =
         0.05222    0.03169    0.00279    0.00015
AFIX  43
H5    2    0.387230    0.187737   -0.015833    11.00000   -1.20000
AFIX   0
C17   1    0.637939    0.899962    0.694854    11.00000    0.07466    0.04455 =
         0.07316    0.02439    0.03332    0.01930
AFIX  43
H17   2    0.609302    0.997709    0.742191    11.00000   -1.20000
AFIX   0
C16   1    0.725797    0.855009    0.771666    11.00000    0.07428    0.05004 =
         0.04503    0.01174    0.01442   -0.00150
AFIX  43
H16   2    0.755539    0.922519    0.871063    11.00000   -1.20000
AFIX   0
HKLF 4

REM  1350RKM_A_0m_a.res in P-1
REM R1 =  0.0309 for    3470 Fo > 4sig(Fo)  and  0.0401 for all    4075 data
REM    208 parameters refined using      0 restraints

END

WGHT      0.0592      0.0406

REM Highest difference peak  0.355,  deepest hole -0.468,  1-sigma level  0.075
Q1    1   0.8133  0.3965  0.1590  11.00000  0.05    0.36
Q2    1   0.8928  0.0733  0.4516  11.00000  0.05    0.33
Q3    1   0.9347  0.5595  0.2967  11.00000  0.05    0.30
Q4    1   0.9859 -0.1638  0.1965  11.00000  0.05    0.30
Q5    1   0.6994  0.4146  0.0193  11.00000  0.05    0.28
Q6    1   1.0050 -0.1075  0.1891  11.00000  0.05    0.27
Q7    1   0.8232  0.1868  0.4807  11.00000  0.05    0.26
Q8    1   0.6829  0.3407 -0.1109  11.00000  0.05    0.26
Q9    1   0.8538  0.2542  0.4113  11.00000  0.05    0.24
Q10   1   0.9081  0.0139  0.3335  11.00000  0.05    0.23
Q11   1   0.9651 -0.3761  0.0863  11.00000  0.05    0.22
Q12   1   0.8605  0.5889  0.0262  11.00000  0.05    0.22
Q13   1   1.0232 -0.2400  0.2551  11.00000  0.05    0.22
Q14   1   0.4811  0.2837 -0.0709  11.00000  0.05    0.22
Q15   1   0.5647  0.2763 -0.1517  11.00000  0.05    0.21
Q16   1   1.0029  0.4626  0.2082  11.00000  0.05    0.21
Q17   1   0.6495  0.3202 -0.2731  11.00000  0.05    0.21
Q18   1   0.9718  0.4493  0.1407  11.00000  0.05    0.20
Q19   1   0.9708  0.3989 -0.1550  11.00000  0.05    0.20
Q20   1   0.5813  0.2572 -0.3070  11.00000  0.05    0.20
;
_shelx_res_checksum              52045
_shelx_hkl_file
;
  -2   0   0 1841.72   66.49
   2   0   0 1869.81   66.49
  -3   0   0 3588.44  128.39
   3   0   0 3596.34  128.39
  -4   0   0 1768.02   64.79
  -4   0   0 1838.52   65.29
   4   0   0 1825.02   64.89
   4   0   0 1839.02   64.99
   4   0   0 1746.13   64.99
  -5   0   0  270.97   10.70
  -5   0   0  261.57   11.90
   5   0   0  265.17   11.00
   5   0   0  277.27   11.00
   5   0   0  271.97   11.20
  -6   0   0   94.99    5.70
  -6   0   0   92.69    7.90
   6   0   0  105.19    6.40
   6   0   0   93.39    6.50
   6   0   0   91.59    6.30
  -7   0   0  305.27   15.10
  -7   0   0  318.47   13.10
   7   0   0  315.47   13.60
   7   0   0  310.97   13.70
  -8   0   0  758.52   29.00
  -8   0   0  601.44   26.90
   8   0   0  718.93   27.90
   8   0   0  760.22   27.50
   8   0   0  722.93   27.70
  -9   0   0   19.90    9.30
   9   0   0   26.30    5.60
   9   0   0   24.70    5.80
 -10   0   0    3.20    7.10
  10   0   0    2.20    6.10
  10   0   0    7.10    6.20
 -11   0   0   35.60    8.70
  11   0   0   30.50    7.90
  11   0   0   29.30    7.60
 -12   0   0   68.69   10.40
  12   0   0   68.49   10.60
  12   0   0   59.69    9.40
  12  -1   0   25.60    8.60
  12  -1   0   35.00    9.80
 -12   1   0   32.00    8.50
  11  -1   0   39.10    7.40
  11  -1   0   43.60    8.40
 -11   1   0   40.80    8.20
  10  -1   0    2.50    5.80
  10  -1   0    8.50    6.30
 -10   1   0    0.50    6.90
   9  -1   0    2.70    6.00
   9  -1   0    3.10    5.30
  -9   1   0    4.40    7.80
   8  -1   0  735.53   26.90
   8  -1   0  666.53   27.40
   8  -1   0  687.13   27.30
  -8   1   0  713.53   27.00
  -8   1   0  701.83   28.80
   7  -1   0  152.48    8.40
   7  -1   0  155.08    7.80
   7  -1   0  149.29    8.80
  -7   1   0  154.78    8.20
  -7   1   0  136.29   11.00
   6  -1   0  271.37   11.20
   6  -1   0  269.57   11.80
   6  -1   0  263.87   11.00
   6  -1   0  261.77   11.40
  -6   1   0  269.77   11.20
  -6   1   0  256.37   12.10
   5  -1   0 2048.70   74.09
   5  -1   0 2127.19   73.89
   5  -1   0 1978.90   73.89
   5  -1   0 2042.60   73.79
  -5   1   0 2037.80   74.29
  -5   1   0 2065.79   73.89
   4  -1   0 2277.97   80.29
   4  -1   0 2227.18   80.19
   4  -1   0 2260.77   80.39
  -4   1   0 2211.68   80.19
  -4   1   0 2177.58   80.59
  -4   1   0 2241.88   80.39
   3  -1   0 2726.93   97.89
   3  -1   0 2757.72   97.99
  -3   1   0 2688.43   97.89
  -3   1   0 2769.42   97.99
   2  -1   0  180.48    7.00
   2  -1   0  182.58    7.10
   2  -1   0  179.28    6.80
  -2   1   0  154.38    7.90
  -2   1   0  173.08    6.80
  -2   1   0  179.98    6.90
  -1  -1   0  373.56   13.40
   1   1   0  377.66   13.50
   1   1   0  373.86   14.90
   1   1   0  358.96   13.40
  -3  -1   0  212.18    8.60
  -3  -1   0  225.58    8.30
  -3  -1   0  222.08    8.90
   3   1   0  213.88    8.60
   3   1   0  217.78    8.40
  -4  -1   0  109.49    6.00
   4   1   0  110.89    5.30
   4   1   0  104.79    5.00
   4   1   0   98.89    5.20
   4   1   0  110.29    5.30
  -5  -1   0   26.40    3.40
  -5  -1   0   29.30    4.10
   5   1   0   37.10    4.20
   5   1   0   27.10    2.80
   5   1   0   40.00    4.30
   5   1   0   25.60    3.50
  -6  -1   0   -0.80    2.10
  -6  -1   0    6.30    4.30
   6   1   0    2.30    3.00
   6   1   0    2.00    2.90
   6   1   0    2.40    2.20
  -7  -1   0  523.95   22.10
  -7  -1   0  542.05   20.30
   7   1   0  521.05   21.20
   7   1   0  523.15   21.20
   7   1   0  542.55   20.60
  -8  -1   0  362.66   14.80
  -8  -1   0  362.76   18.00
   8   1   0  345.37   15.10
   8   1   0  355.36   16.10
  -9  -1   0  279.87   17.20
   9   1   0  264.67   14.40
   9   1   0  256.07   14.20
 -10  -1   0   10.50    8.60
  10   1   0    2.90    5.90
  10   1   0    3.80    6.30
 -11  -1   0   41.80    9.90
  11   1   0   31.70    7.80
  11   1   0   26.40    8.00
 -12  -1   0   49.10   10.60
  12   1   0   70.79   10.00
  12   1   0   45.70    9.60
  12  -2   0   80.99   11.10
  12  -2   0   72.09    9.30
 -12   2   0  103.09   14.10
  11  -2   0   11.00    7.80
  11  -2   0    2.90    6.60
 -11   2   0   12.30    7.40
  10  -2   0   27.30    6.80
  10  -2   0   18.00    6.10
 -10   2   0   24.70    7.00
   9  -2   0  503.55   20.80
   9  -2   0  485.65   21.40
  -9   2   0  498.25   23.50
   8  -2   0 1305.77   47.60
   8  -2   0 1292.27   47.80
   8  -2   0 1268.67   48.20
  -8   2   0 1300.97   47.90
  -8   2   0 1286.67   48.70
   7  -2   0  260.87   12.60
   7  -2   0  281.37   13.60
   7  -2   0  280.27   11.90
   7  -2   0  278.07   12.10
  -7   2   0  270.67   13.10
  -7   2   0  293.77   12.40
   6  -2   0   29.80    4.30
   6  -2   0   23.20    3.40
   6  -2   0   22.60    2.80
   6  -2   0   24.20    3.40
  -6   2   0   26.30    3.80
  -6   2   0   23.40    3.10
   5  -2   0  863.81   31.80
   5  -2   0  852.51   31.90
   5  -2   0  886.31   31.70
   5  -2   0  876.71   32.20
  -5   2   0  826.72   32.00
  -5   2   0  885.91   32.00
   4  -2   0 2335.07   83.69
   4  -2   0 2341.67   84.19
   4  -2   0 2331.37   83.89
   4  -2   0 2277.87   83.59
  -4   2   0 2304.57   83.79
  -4   2   0 2392.46   83.79
  -4   2   0 2326.17   83.69
   3  -2   0  438.96   16.40
   3  -2   0  433.96   16.90
   3  -2   0  430.06   16.20
  -3   2   0  443.66   16.90
  -3   2   0  440.06   16.30
  -3   2   0  422.76   16.20
   2  -2   0 2038.30   73.49
   2  -2   0 2059.39   74.29
   2  -2   0 2007.20   73.69
  -2   2   0 2063.99   73.59
  -2   2   0 2073.69   74.29
  -2   2   0 2058.09   73.59
   0  -2   0  376.06   12.90
   0  -2   0  359.06   14.20
   0  -2   0  367.16   12.90
   0   2   0  351.56   14.00
   0   2   0  349.37   12.90
   0   2   0  316.77   12.90
  -1  -2   0  206.38    7.40
  -1  -2   0  197.98    7.50
  -1  -2   0  211.38    8.90
   1   2   0  205.18    7.50
   1   2   0  190.98    7.70
   1   2   0  204.88    8.90
  -2  -2   0  888.51   31.40
  -2  -2   0  853.91   31.40
  -2  -2   0  904.61   32.60
   2   2   0  884.41   31.70
   2   2   0  879.61   32.60
   2   2   0  836.92   31.50
  -3  -2   0 1787.32   63.59
  -3  -2   0 1854.71   64.09
  -3  -2   0 1718.43   62.99
   3   2   0 1706.93   63.19
   3   2   0 1752.92   63.39
   3   2   0 1759.52   63.39
   3   2   0 1742.73   64.19
   3   2   0 1766.42   63.39
  -4  -2   0 3603.04  122.59
  -4  -2   0 3425.46  122.29
   4   2   0 3347.96  122.09
   4   2   0 3493.55  121.99
   4   2   0 3296.77  122.69
   4   2   0 3293.17  121.99
   4   2   0 3375.26  121.99
  -5  -2   0 2260.27   80.69
  -5  -2   0 2241.48   81.39
  -5  -2   0 2398.66   81.59
   5   2   0 2154.98   81.09
   5   2   0 2280.57   81.09
   5   2   0 2289.17   81.09
   5   2   0 2180.88   81.19
   5   2   0 2191.18   81.69
  -6  -2   0   35.50    4.00
  -6  -2   0   46.90    5.40
   6   2   0   34.00    4.90
   6   2   0   38.80    5.30
   6   2   0   36.20    4.10
  -7  -2   0  474.95   18.40
  -7  -2   0  483.65   20.60
   7   2   0  465.05   19.60
   7   2   0  500.55   19.20
   7   2   0  469.65   19.40
  -8  -2   0  223.48   17.90
   8   2   0  257.57   12.20
   8   2   0  250.67   13.30
   8   2   0  252.87   12.80
  -9  -2   0  184.38   15.20
   9   2   0  158.98   11.80
   9   2   0  172.08   12.50
 -10  -2   0   11.10    9.10
  10   2   0    6.70    6.90
  10   2   0   -2.60    6.00
 -11  -2   0   33.80   10.60
  11   2   0   23.00    7.40
  11   2   0   33.10    8.70
  12  -3   0   70.59    9.40
  12  -3   0   70.79   10.90
 -12   3   0   66.79    9.40
  11  -3   0    1.10    6.50
  11  -3   0    5.10    7.60
 -11   3   0    3.60    7.20
  10  -3   0   12.30    6.00
  10  -3   0   10.60    6.50
 -10   3   0   13.40    6.90
   9  -3   0  222.08   12.20
   9  -3   0  233.28   13.80
   8  -3   0   49.99    5.00
   8  -3   0   56.09    6.00
  -8   3   0   49.80    6.20
  -8   3   0   39.80    4.80
   7  -3   0   24.10    3.70
   7  -3   0   47.40    6.70
   7  -3   0   28.60    4.50
   7  -3   0   32.50    3.90
  -7   3   0   27.40    3.90
  -7   3   0   38.40    4.70
   6  -3   0  101.09    7.40
   6  -3   0  119.39    8.00
   6  -3   0  104.09    6.60
   6  -3   0   98.09    6.50
   6  -3   0  104.49    6.20
   6  -3   0  109.09    6.90
  -6   3   0  125.69    7.20
  -6   3   0  105.69    6.80
   5  -3   0   69.59    6.70
   5  -3   0   67.69    4.80
   5  -3   0   59.79    5.50
   5  -3   0   60.99    4.80
   5  -3   0   64.99    5.20
   5  -3   0   57.29    5.10
  -5   3   0   64.49    5.00
  -5   3   0   70.39    5.10
   4  -3   0  724.13   26.80
   4  -3   0  715.83   26.80
   4  -3   0  731.93   27.20
   4  -3   0  724.13   28.10
  -4   3   0  714.23   27.00
  -4   3   0  736.23   26.90
  -4   3   0  718.93   26.90
  -4   3   0  751.32   28.00
   3  -3   0  275.67   12.70
   3  -3   0  288.27   11.30
  -3   3   0  290.57   11.10
  -3   3   0  285.47   12.50
  -3   3   0  275.77   11.10
  -3   3   0  276.07   11.10
   2  -3   0 2511.45   89.89
   2  -3   0 2532.55   91.29
   2  -3   0 2529.55   90.09
  -2   3   0 2513.45   90.09
  -2   3   0 2437.16   89.99
  -2   3   0 2540.85   91.19
   1  -3   0 9999.00  353.96
   1  -3   0 9757.32  352.46
  -1   3   0 9916.71  354.26
   0  -3   0 2482.35   87.19
   0  -3   0 2415.76   85.59
   0  -3   0 2402.66   85.49
   0   3   0 2350.06   85.59
   0   3   0 2312.47   85.59
  -1  -3   0  778.42   30.30
  -1  -3   0  795.72   28.50
  -1  -3   0  761.32   28.60
   1   3   0  849.02   29.00
   1   3   0  786.12   28.70
   1   3   0  782.62   30.30
   1   3   0  793.62   28.60
  -2  -3   0   38.60    5.60
   2   3   0   37.60    5.40
   2   3   0   38.50    2.50
   2   3   0   42.90    3.20
   2   3   0   40.30    3.40
   2   3   0   42.50    2.80
  -3  -3   0  505.05   20.20
   3   3   0  489.15   18.20
   3   3   0  491.45   18.40
   3   3   0  491.05   18.60
   3   3   0  486.15   20.20
   3   3   0  503.75   18.70
  -4  -3   0  405.46   16.90
  -4  -3   0  384.56   15.90
   4   3   0  379.86   14.90
   4   3   0  377.46   16.90
   4   3   0  403.26   15.00
   4   3   0  383.96   15.20
   4   3   0  395.96   15.20
   4   3   0  386.36   15.30
  -5  -3   0  579.84   23.40
  -5  -3   0  630.04   24.10
   5   3   0  591.14   22.60
   5   3   0  603.54   22.80
   5   3   0  578.74   24.10
   5   3   0  579.44   22.70
  -6  -3   0  106.09    9.20
  -6  -3   0  117.79    9.10
   6   3   0   97.29    7.00
   6   3   0   98.09    8.80
   6   3   0   92.29    6.80
   6   3   0  103.79    7.80
  -7  -3   0  312.07   15.40
   7   3   0  279.47   15.20
   7   3   0  290.77   13.20
   7   3   0  296.77   13.40
  -8  -3   0  266.97   16.10
   8   3   0  273.37   14.40
   8   3   0  252.17   15.20
  -9  -3   0   32.40    8.80
   9   3   0    1.30    5.30
   9   3   0   16.30    6.70
 -10  -3   0   30.20   10.20
  10   3   0   21.00    7.50
  10   3   0   27.70    6.90
 -11  -3   0  142.59   19.70
  11   3   0  102.59   13.50
  11   3   0  117.19   16.10
  12  -4   0   15.30    9.70
 -12   4   0   34.40    6.60
 -12   4   0    0.00    8.40
  11  -4   0   37.50    8.60
  11  -4   0   51.39    7.80
 -11   4   0   56.19    6.70
 -11   4   0   41.70    8.20
  10  -4   0   22.90    7.10
 -10   4   0   15.20    6.90
   9  -4   0  556.04   23.70
   9  -4   0  553.44   22.80
  -9   4   0  558.84   23.90
   8  -4   0   13.00    3.70
  -8   4   0   19.60    5.00
  -8   4   0   12.20    4.40
   7  -4   0    2.10    4.00
   7  -4   0    0.50    3.00
   7  -4   0   -0.60    3.80
  -7   4   0    1.70    4.00
  -7   4   0    0.30    2.80
  -7   4   0    1.70    3.50
   6  -4   0  203.18   10.50
   6  -4   0  201.88   10.00
   6  -4   0  197.48   10.30
  -6   4   0  216.48   10.20
  -6   4   0  202.28   10.10
  -6   4   0  226.18    8.80
   5  -4   0 1942.01   71.09
   5  -4   0 1936.01   70.69
  -5   4   0 1925.41   70.99
  -5   4   0 2013.60   72.09
  -5   4   0 1961.60   70.79
  -5   4   0 1937.71   70.89
   4  -4   0 2191.88   79.59
   4  -4   0 2227.38   80.39
  -4   4   0 2196.68   79.79
  -4   4   0 2276.07   81.29
  -4   4   0 2205.68   79.79
  -4   4   0 2170.78   79.79
   3  -4   0 5681.33  200.68
   3  -4   0 5396.26  201.48
  -3   4   0 5591.14  200.78
  -3   4   0 5710.83  200.88
  -3   4   0 5563.84  200.78
  -3   4   0 5763.02  202.38
   2  -4   0 2464.25   88.79
  -2   4   0 2451.15   88.69
  -2   4   0 2458.75   90.39
  -2   4   0 2439.86   88.59
  -2   4   0 2530.85   88.69
   1  -4   0 3051.69  108.39
  -1   4   0 2885.31  108.29
  -1   4   0 3057.29  110.19
  -1   4   0 3111.69  108.49
   0  -4   0  409.46   14.80
   0   4   0  379.16   14.70
   0   4   0  390.06   17.10
   0   4   0  378.96   14.90
   0   4   0  413.16   15.10
  -1  -4   0    5.40    1.30
   1   4   0    4.00    1.40
   1   4   0   10.20    1.90
   1   4   0    3.20    1.30
   1   4   0   -0.70    3.30
   1   4   0    2.70    2.20
   2   4   0    4.70    3.60
   2   4   0    8.70    2.00
   2   4   0    7.20    1.50
   2   4   0    4.90    1.40
   2   4   0    5.50    2.40
   3   4   0 1342.17   48.50
   3   4   0 1301.07   48.10
   3   4   0 1340.17   50.69
   3   4   0 1329.97   48.20
   3   4   0 1358.56   48.60
   4   4   0  579.44   22.30
   4   4   0  589.64   21.90
   4   4   0  563.24   24.60
   4   4   0  571.64   22.50
   4   4   0  618.34   21.90
  -5  -4   0    4.20    5.20
   5   4   0   -1.40    2.40
   5   4   0    6.20    2.70
   5   4   0    2.80    4.30
   5   4   0    5.00    3.40
  -6  -4   0  319.37   15.80
   6   4   0  301.87   16.40
   6   4   0  322.87   14.60
   6   4   0  332.47   13.60
   6   4   0  318.57   13.60
  -7  -4   0  304.67   15.90
  -7  -4   0  358.16   17.60
   7   4   0  348.47   15.00
   7   4   0  345.47   16.10
   7   4   0  340.87   14.80
  -8  -4   0  376.66   19.70
   8   4   0  372.26   17.70
   8   4   0  332.47   20.40
  -9  -4   0   37.40    9.70
   9   4   0   32.40    7.20
   9   4   0   29.20    6.00
 -10  -4   0   23.20   10.30
  10   4   0   14.70    6.40
  10   4   0   16.80    8.10
  12  -5   0    1.40    9.60
 -12   5   0    1.90    8.80
  11  -5   0    2.70    8.10
 -11   5   0    5.60    7.80
 -11   5   0   13.30    5.30
  10  -5   0   56.19    7.70
 -10   5   0   48.50    5.60
 -10   5   0   59.79    8.10
   9  -5   0  547.45   23.90
  -9   5   0  546.55   23.90
  -9   5   0  575.34   21.80
   8  -5   0  452.85   20.50
   8  -5   0  429.76   19.20
   8  -5   0  423.36   19.20
  -8   5   0  441.86   19.30
  -8   5   0  448.96   17.30
   7  -5   0    2.80    3.70
   7  -5   0   -1.70    4.50
   7  -5   0   -1.80    4.80
  -7   5   0    5.50    2.60
  -7   5   0    3.40    4.50
  -7   5   0   -1.10    3.90
   6  -5   0    4.60    3.40
   6  -5   0   -7.00    3.70
  -6   5   0   -1.20    3.30
  -6   5   0    2.70    2.10
  -6   5   0   -1.60    4.90
  -6   5   0    7.90    3.90
   5  -5   0  388.56   16.60
   5  -5   0  396.26   15.90
  -5   5   0  377.46   16.00
  -5   5   0  406.96   16.20
  -5   5   0  384.36   16.20
  -5   5   0  420.36   19.00
   4  -5   0  628.64   22.80
   4  -5   0  617.64   23.50
  -4   5   0  611.54   25.70
  -4   5   0  597.24   23.20
  -4   5   0  590.94   23.00
  -4   5   0  593.04   23.10
   3  -5   0  465.35   18.30
   3  -5   0  485.85   17.70
  -3   5   0  468.35   18.20
  -3   5   0  465.55   20.80
  -3   5   0  465.05   18.10
  -3   5   0  455.15   18.00
   2  -5   0  805.82   28.90
  -2   5   0  781.82   31.40
  -2   5   0  753.62   28.70
  -2   5   0  765.52   28.90
   1  -5   0 1129.59   40.10
  -1   5   0 1068.09   40.00
  -1   5   0 1106.09   40.30
  -1   5   0 1100.49   42.70
  -1   5   0 1090.09   40.00
   0  -5   0   88.59    4.80
   0   5   0   86.79    5.50
   0   5   0   85.69    8.90
   0   5   0   83.09    4.80
   0   5   0   81.19    4.60
   0   5   0   90.69    5.10
  -1  -5   0  328.77   12.60
   1   5   0  326.27   12.70
   1   5   0  309.77   12.70
   1   5   0  339.67   12.80
   1   5   0  354.06   16.60
   1   5   0  321.37   13.30
   2   5   0  585.94   21.60
   2   5   0  583.44   21.90
   2   5   0  583.44   22.50
   2   5   0  578.44   25.30
   3   5   0 1083.79   43.30
   3   5   0 1081.99   39.70
   3   5   0 1090.19   40.30
   3   5   0 1108.19   40.10
   4   5   0 1047.70   38.70
   4   5   0 1069.59   38.10
   4   5   0 1029.80   38.10
   4   5   0 1021.00   42.50
   4   5   0 1041.60   38.80
  -5  -5   0    5.30    6.10
   5   5   0    4.60    3.80
   5   5   0    9.80    2.50
   5   5   0   13.20    4.40
   5   5   0   12.80    3.00
  -6  -5   0   39.70    7.50
   6   5   0   28.50    5.30
   6   5   0   30.90    3.50
   6   5   0   33.40    4.10
  -7  -5   0   62.39   12.10
  -7  -5   0   74.99    9.10
   7   5   0   73.39    7.70
   7   5   0   64.69    7.00
  -8  -5   0   67.29    9.90
   8   5   0   71.69    9.00
   8   5   0   58.79    7.80
  -9  -5   0   37.90   10.20
   9   5   0   33.50    8.40
   9   5   0   38.50    6.40
 -10  -5   0   22.40   12.00
  10   5   0   12.90    9.30
  10   5   0   22.10    6.80
  11  -6   0    8.90    8.80
 -11   6   0   10.90    8.00
  10  -6   0   55.69    8.50
 -10   6   0   83.29   12.90
   9  -6   0  146.89   12.30
  -9   6   0  138.49   12.80
  -9   6   0  143.59    9.10
   8  -6   0  149.49   11.00
   8  -6   0  136.99   12.50
  -8   6   0  153.18    7.60
  -8   6   0  141.49   11.50
   7  -6   0   14.60    4.80
   7  -6   0   10.60    4.40
  -7   6   0   12.40    2.70
   6  -6   0  343.07   14.80
   6  -6   0  359.36   16.00
  -6   6   0  334.27   15.30
  -6   6   0  338.57   13.20
   5  -6   0  281.67   12.00
   5  -6   0  279.97   14.00
  -5   6   0  257.97   12.60
  -5   6   0  276.27   12.40
   4  -6   0  433.46   16.40
   4  -6   0  398.06   18.50
  -4   6   0  420.66   16.70
  -4   6   0  413.76   17.10
   3  -6   0  907.21   32.90
   3  -6   0  912.31   33.60
  -3   6   0  874.01   33.60
  -3   6   0  893.31   33.40
   2  -6   0 2104.69   74.39
  -2   6   0 2002.20   74.49
   1  -6   0 1913.51   67.89
  -1   6   0 1833.72   68.19
  -1   6   0 1830.92   67.79
  -1   6   0 1928.61   67.79
   0  -6   0  638.24   23.30
   0   6   0  604.84   23.30
   0   6   0  620.74   24.00
   0   6   0  629.04   23.10
   1   6   0  157.48    8.70
   1   6   0  171.08    7.60
   1   6   0  166.28    7.60
   2   6   0   84.99    7.30
   2   6   0  100.29    5.40
   2   6   0  105.19    6.20
   3   6   0  595.64   24.00
   3   6   0  622.64   23.10
   3   6   0  602.94   23.60
   3   6   0  642.64   23.30
   4   6   0  382.26   22.20
   4   6   0  442.96   16.60
   4   6   0  427.76   17.80
   4   6   0  449.95   16.60
   5   6   0    5.00    2.60
   5   6   0    3.80    4.90
   5   6   0   -0.30    4.60
   5   6   0    3.20    2.90
  -6  -6   0   42.90    8.50
   6   6   0   39.60    4.40
   6   6   0   41.30    6.10
  -7  -6   0  194.38   16.40
   7   6   0  182.48   13.30
   7   6   0  194.08   13.70
  -8  -6   0   54.69   10.30
   8   6   0   65.29    8.20
  -9  -6   0   -4.60   11.00
   9   6   0    7.90    8.50
   9   6   0    5.20    5.60
  11  -7   0   -3.50    8.30
 -11   7   0   10.10    8.70
  10  -7   0   41.50    7.70
 -10   7   0   29.80    8.10
   9  -7   0   82.39   10.90
  -9   7   0   66.19    8.50
   8  -7   0    3.10    5.40
  -8   7   0    0.60    6.20
   7  -7   0  100.69    9.20
  -7   7   0   97.49   10.10
   6  -7   0  263.27   16.40
   6  -7   0  274.77   12.70
  -6   7   0  251.67   13.50
   5  -7   0  182.88    9.60
   5  -7   0  187.68   11.80
  -5   7   0  186.18   10.00
  -5   7   0  186.08   12.80
   4  -7   0  547.95   20.70
   4  -7   0  540.05   21.80
  -4   7   0  534.15   21.20
  -4   7   0  529.15   21.70
   3  -7   0    4.30    2.60
   3  -7   0   -2.40    3.10
  -3   7   0    3.60    4.10
  -3   7   0    0.40    2.70
   2  -7   0    0.90    2.70
  -2   7   0    2.60    4.10
  -2   7   0   -1.00    2.00
   1  -7   0   27.10    3.30
  -1   7   0   23.40    5.20
  -1   7   0   33.90    3.60
  -1   7   0   32.40    5.20
   0   7   0  149.49    8.90
   0   7   0  143.19    7.00
   0   7   0  153.28    7.50
   1   7   0   54.29    5.20
   1   7   0   63.29    7.10
   1   7   0   67.49    5.00
   2   7   0    3.40    7.50
   2   7   0    5.60    3.20
   2   7   0    0.00    2.40
   3   7   0  114.29    9.50
   3   7   0  133.39    8.30
   3   7   0  125.09    6.60
   3   7   0  119.39    9.50
   4   7   0  141.49    7.50
   4   7   0  149.19    8.80
   4   7   0  145.39   10.70
   5   7   0   11.70    5.30
   5   7   0   17.60    5.90
  -6  -7   0  173.68   16.90
   6   7   0  197.58   13.00
  -7  -7   0  123.49   17.50
   7   7   0  165.78   13.80
  -8  -7   0   48.50   12.00
   8   7   0   64.39    9.10
  10  -8   0   77.69    9.30
 -10   8   0   93.89   14.00
   9  -8   0   67.39    8.20
  -9   8   0   64.59    8.90
   8  -8   0   36.40    6.60
  -8   8   0   29.40    7.30
  -7   8   0    0.60    6.10
   6  -8   0   50.99    6.60
  -6   8   0   46.90    6.70
   5  -8   0  212.58   10.30
  -5   8   0  171.58   11.90
   4  -8   0  164.18    8.30
  -4   8   0  156.98   11.70
   3  -8   0   52.79    5.40
  -3   8   0   41.00    6.00
   2  -8   0  175.98    9.70
  -2   8   0  174.98   11.10
  -2   8   0  157.38   10.10
  -2   8   0  183.48    7.50
   1  -8   0  370.36   19.80
  -1   8   0  380.36   17.20
  -1   8   0  375.76   14.80
  -1   8   0  405.56   16.10
   0   8   0  290.47   14.60
   0   8   0  317.97   12.60
   0   8   0  314.67   13.10
   1   8   0  102.99    6.70
   1   8   0  116.09    9.90
   1   8   0  105.79    7.10
   2   8   0 1075.79   38.80
   2   8   0  996.30   39.20
   2   8   0 1056.19   39.90
   3   8   0  507.55   22.50
   3   8   0  518.45   22.10
   4   8   0  136.79   10.30
   4   8   0  112.89   11.50
   5   8   0   13.50    5.50
   5   8   0   13.00    6.70
  -6  -8   0   94.09   12.50
   6   8   0  119.49   12.40
  -7  -8   0   88.89   13.20
   7   8   0  108.59   13.80
   9  -9   0   10.50    7.60
  -9   9   0   -2.60    8.00
   8  -9   0    2.50    6.20
  -8   9   0    0.10    7.40
   7  -9   0   -5.00    5.60
  -7   9   0    0.60    7.20
   6  -9   0    0.00    4.70
  -6   9   0    5.80    6.70
   5  -9   0   80.89    7.80
  -5   9   0   71.29   11.00
  -4   9   0   23.60    6.40
  -3   9   0  120.39   11.30
  -2   9   0  277.27   15.00
  -1   9   0  364.96   14.20
  -1   9   0  346.97   17.40
   0   9   0  122.39    7.00
   0   9   0  100.39   10.70
   1   9   0   19.40    6.30
   1   9   0   25.30    4.00
   2   9   0  150.08   12.40
   2   9   0  161.78   10.10
   3   9   0   47.80    7.50
   3   9   0   57.89    6.00
   4   9   0   20.80    7.40
   4   9   0   13.30    5.40
   5   9   0    7.60    6.30
   5   9   0    7.60    7.50
  -7  10   0   30.70    8.90
  -6  10   0  155.48   14.80
  -5  10   0  188.38   14.90
  -4  10   0   64.09    8.50
  -3  10   0    2.30    7.00
  -2  10   0   47.60    8.20
  -1  10   0  120.09   12.80
   0  10   0   85.09   11.70
   1  10   0   -0.50    6.60
   1  10   0   12.00    7.00
   2  10   0   38.80    8.30
   2  10   0   61.09    8.10
   3  10   0   30.00    5.40
   3  10   0   16.50    8.10
   4  10   0   -1.00    5.60
   4  10   0    0.60    8.10
  -5  11   0   20.00    9.20
  -4  11   0   -7.10    8.50
  -3  11   0    8.70    8.60
  -2  11   0    3.90    8.40
  -1  11   0   17.70    8.20
   0  11   0   15.10    8.30
   1  11   0   37.80    9.20
   2  11  -1   21.20    8.40
   2  11  -1   19.30    5.00
   1  11  -1  122.29   14.10
   0  11  -1  115.99   13.10
  -1  11  -1   39.20    8.20
  -2  11  -1   26.30    7.90
  -3  11  -1   11.60    8.00
  -4  11  -1   19.20    8.20
  -5  11  -1    5.70    8.30
  -6  11  -1   31.20    9.00
   5  10  -1  106.19   12.90
   4  10  -1   85.19   11.00
   4  10  -1   67.89    9.40
   3  10  -1   25.10    7.80
   3  10  -1   26.00    5.60
   2  10  -1   -5.30    4.30
   2  10  -1    5.50    6.80
   1  10  -1   57.29    7.70
   1  10  -1   42.80    6.30
   0  10  -1   50.09    6.40
   0  10  -1   47.40    7.50
  -1  10  -1    3.00    6.10
  -1  10  -1    5.70    3.60
  -2  10  -1   67.49    7.90
  -3  10  -1  199.48   13.80
  -4  10  -1  136.59   12.60
  -5  10  -1   10.30    7.30
  -6  10  -1   80.19   12.10
  -7  10  -1  127.59   13.50
  -8  10  -1   33.10   14.00
   6   9  -1   14.00    7.30
  -6  -9   1    6.00   11.60
   5   9  -1  149.29   13.70
   5   9  -1  159.88   12.90
   4   9  -1    4.20    6.60
   4   9  -1    4.40    5.50
   3   9  -1   11.80    4.90
   3   9  -1    3.00    6.20
   2   9  -1   12.80    4.80
   2   9  -1   15.90    6.00
   1   9  -1  106.29   10.20
   1   9  -1  112.39    7.90
   0   9  -1   31.20    6.10
   0   9  -1   40.50    5.40
  -1   9  -1  105.29    6.20
  -1   9  -1   90.19   10.10
  -2   9  -1  123.09   10.80
  -2   9  -1  126.49    6.70
  -3   9  -1  570.74   24.30
  -3   9  -1  590.54   21.80
  -4   9  -1  255.77   14.20
  -5   9  -1   38.60    6.70
   5  -9   1   26.90    3.80
  -6   9  -1    7.60    6.20
   6  -9   1    0.90    4.30
  -7   9  -1   17.20    6.80
   7  -9   1    4.10    6.40
  -8   9  -1    1.60    7.10
   8  -9   1    0.20    8.80
  -9   9  -1   -2.40    7.20
   9  -9   1   -6.80    6.70
   7   8  -1   -1.40    7.40
  -7  -8   1   -6.60   10.70
   6   8  -1   49.50    7.50
  -6  -8   1   23.80   10.30
   5   8  -1  333.77   16.40
   5   8  -1  323.17   17.10
   4   8  -1  247.68   12.80
   4   8  -1  211.98   13.60
   3   8  -1   15.80    5.70
   3   8  -1   26.50    5.10
   2   8  -1  417.56   16.20
   2   8  -1  379.16   17.60
   2   8  -1  413.46   16.80
   1   8  -1 1010.40   39.30
   1   8  -1 1071.29   38.60
   1   8  -1 1037.60   38.50
   0   8  -1  919.71   39.80
   0   8  -1 1046.10   37.20
   0   8  -1 1002.20   36.80
   0  -8   1 1018.70   37.20
  -1   8  -1  352.06   17.40
  -1   8  -1  345.07   14.50
  -1   8  -1  359.86   13.90
   1  -8   1  331.47   14.60
  -2   8  -1  155.08   10.30
  -2   8  -1  158.48    7.30
  -3   8  -1  901.81   33.80
  -3   8  -1  870.81   35.30
  -3   8  -1  896.21   32.80
   3  -8   1  902.31   32.70
   3  -8   1  899.61   34.00
  -4   8  -1  157.28    9.20
  -4   8  -1  167.68    7.30
   4  -8   1  147.89    7.70
   4  -8   1  152.48   10.20
  -5   8  -1   98.69    5.50
  -5   8  -1   88.09    8.90
   5  -8   1   91.99    7.00
  -6   8  -1  193.18   11.80
   6  -8   1  202.18   10.70
  -7   8  -1  102.59   10.40
   7  -8   1   86.69    9.10
  -8   8  -1   85.69   10.80
   8  -8   1   97.69   10.50
  -9   8  -1   -1.30    6.50
   9  -8   1    3.40    6.10
 -10   8  -1   32.00    8.00
  10  -8   1   14.60    7.50
   8   7  -1   38.50    8.70
  -8  -7   1   42.70   12.80
   7   7  -1    4.20    6.80
  -7  -7   1    0.90    9.30
   6   7  -1  195.38   12.80
  -6  -7   1  169.08   16.00
   5   7  -1  390.16   18.40
   5   7  -1  415.16   18.10
  -5  -7   1  399.96   20.90
   4   7  -1  446.06   17.70
   4   7  -1  440.46   20.40
   4   7  -1  449.46   17.50
   4   7  -1  432.26   19.10
   3   7  -1   21.30    2.90
   3   7  -1   15.20    5.40
   3   7  -1   23.10    4.10
   2   7  -1  258.47   11.00
   2   7  -1  261.37   11.50
   2   7  -1  254.07   12.20
   1   7  -1   97.49    6.10
   1   7  -1  109.49    6.20
   1   7  -1   89.99    8.20
  -1  -7   1   98.69    6.50
   0   7  -1   61.69    6.60
   0   7  -1   80.99    5.20
   0  -7   1   69.49    5.70
  -1   7  -1  381.76   15.40
  -1   7  -1  383.06   14.20
  -1   7  -1  309.07   14.40
   1  -7   1  378.96   14.80
  -2   7  -1  621.64   22.70
  -2   7  -1  595.04   23.30
  -2   7  -1  601.74   23.60
   2  -7   1  614.84   23.50
  -3   7  -1  263.97   12.20
  -3   7  -1  269.67   11.80
  -3   7  -1  270.67   10.80
   3  -7   1  266.47   12.30
   3  -7   1  267.17   10.80
  -4   7  -1  100.19    7.50
  -4   7  -1   90.59    5.10
  -4   7  -1   91.09    6.90
   4  -7   1   95.69    5.70
   4  -7   1   83.99    8.50
  -5   7  -1  173.48    7.60
  -5   7  -1  176.58    9.90
  -5   7  -1  157.98    9.80
   5  -7   1  180.68    8.70
   5  -7   1  168.28   10.70
  -6   7  -1   50.39    7.60
  -6   7  -1   60.49    4.60
   6  -7   1   52.89    6.70
   6  -7   1   42.90    5.50
  -7   7  -1  114.99    6.30
  -7   7  -1  102.99    9.60
   7  -7   1  107.69   11.00
   7  -7   1  114.49    9.00
  -8   7  -1  206.88    9.60
  -8   7  -1  199.08   13.00
   8  -7   1  196.98   12.40
  -9   7  -1    8.40    6.40
   9  -7   1   20.50    6.40
 -10   7  -1    5.60    6.90
  10  -7   1   12.30    7.20
 -11   7  -1   18.00    8.10
  11  -7   1   28.80    9.00
   9   6  -1  184.08   12.30
   9   6  -1  184.78   16.80
  -9  -6   1  207.08   19.90
   8   6  -1  124.79   13.30
   8   6  -1  111.29   16.20
  -8  -6   1  136.19   16.70
   7   6  -1    8.50    6.10
   7   6  -1   12.20    4.20
  -7  -6   1    1.80    8.20
   6   6  -1  221.28   10.40
   6   6  -1  220.88   13.30
  -6  -6   1  222.98   15.60
   5   6  -1  516.05   22.10
   5   6  -1  525.35   20.90
   5   6  -1  554.84   20.50
  -5  -6   1  551.14   23.80
   4   6  -1   93.99    5.50
   4   6  -1  106.49    7.90
   4   6  -1   75.89    7.60
   4   6  -1   95.29    6.10
   3   6  -1  337.07   14.50
   3   6  -1  332.87   14.10
   3   6  -1  335.07   13.50
   2   6  -1  951.60   34.70
   2   6  -1  941.21   34.90
   2   6  -1  931.51   35.10
  -2  -6   1  950.10   35.40
   1   6  -1  263.07   10.60
   1   6  -1  249.38   10.70
   1   6  -1  251.57   11.30
  -1  -6   1  253.57   10.50
   0   6  -1  754.42   27.90
   0   6  -1  765.82   27.80
   0   6  -1  723.13   28.50
   0  -6   1  763.22   27.90
  -1   6  -1  123.39    5.70
  -1   6  -1   92.89    6.10
  -1   6  -1   98.29    6.50
   1  -6   1  113.89    6.60
  -2   6  -1 1671.03   61.69
  -2   6  -1 1735.43   61.79
  -2   6  -1 1688.63   61.79
  -2   6  -1 1620.24   61.39
   2  -6   1 1793.02   61.89
  -3   6  -1 1683.93   63.49
  -3   6  -1 1735.23   63.49
  -3   6  -1 1722.83   63.49
   3  -6   1 1788.02   62.99
   3  -6   1 1806.72   63.79
  -4   6  -1 1167.18   44.00
  -4   6  -1 1201.28   43.20
  -4   6  -1 1216.18   44.10
  -4   6  -1 1171.68   43.90
  -4   6  -1 1156.38   51.39
   4  -6   1 1194.88   43.50
   4  -6   1 1251.37   44.40
  -5   6  -1  160.98   15.10
  -5   6  -1  156.98    6.80
  -5   6  -1  143.69   12.80
  -5   6  -1  142.09    8.40
  -5   6  -1  144.29    8.70
   5  -6   1  142.99    7.70
   5  -6   1  157.38    9.20
  -6   6  -1    5.40    6.30
  -6   6  -1    6.10    4.00
  -6   6  -1    0.30    3.70
  -6   6  -1    4.10    2.40
   6  -6   1    0.30    4.00
   6  -6   1    2.20    3.50
  -7   6  -1  176.18   11.20
  -7   6  -1  190.78    9.10
  -7   6  -1  190.98   10.70
  -7   6  -1  208.98   14.60
   7  -6   1  162.68   11.60
   7  -6   1  187.68   10.70
  -8   6  -1  433.66   25.40
  -8   6  -1  478.15   20.80
  -8   6  -1  479.15   19.50
   8  -6   1  464.55   20.20
   8  -6   1  476.25   20.70
  -9   6  -1   -2.00    4.00
  -9   6  -1   11.50    6.30
   9  -6   1   -2.50    5.70
 -10   6  -1  163.38   13.40
 -10   6  -1  148.39   12.10
  10  -6   1  161.08   13.80
 -11   6  -1   49.50    8.90
 -11   6  -1   47.60    6.00
  11  -6   1   47.70    9.30
  10   5  -1   58.79    7.10
  10   5  -1   50.19    9.70
 -10  -5   1   49.90   11.90
   9   5  -1   55.09    8.30
   9   5  -1   75.19    9.90
  -9  -5   1   58.99   10.70
   8   5  -1   42.30    7.30
   8   5  -1   37.00    6.80
  -8  -5   1   39.50    9.30
   7   5  -1  193.28   10.40
   7   5  -1  183.88   15.30
   7   5  -1  186.08   12.50
  -7  -5   1  192.08   14.60
   6   5  -1  364.66   14.60
   6   5  -1  348.57   16.20
   6   5  -1  358.06   15.00
   6   5  -1  346.27   19.10
  -6  -5   1  341.17   18.50
   5   5  -1  179.18   13.40
   5   5  -1  189.68   10.10
   5   5  -1  192.88    9.30
   5   5  -1  190.48    8.60
  -5  -5   1  171.08   11.90
   4   5  -1   23.50    2.60
   4   5  -1   21.80    3.80
   4   5  -1   24.20    2.90
   4   5  -1   18.10    5.50
   3   5  -1  655.93   24.30
   3   5  -1  643.74   24.00
   3   5  -1  659.23   24.40
   3   5  -1  661.43   27.20
  -3  -5   1  590.04   23.70
   2   5  -1 1338.07   48.80
   2   5  -1 1417.86   51.69
   2   5  -1 1327.27   49.10
   2   5  -1 1347.27   49.20
   2   5  -1 1343.07   48.90
  -2  -5   1 1323.87   48.80
   1   5  -1 1388.96   53.59
   1   5  -1 1422.46   51.39
   1   5  -1 1465.95   51.29
   1   5  -1 1401.46   51.09
  -1  -5   1 1388.66   51.09
   0   5  -1  819.02   27.20
   0   5  -1  702.33   29.50
   0   5  -1  728.73   27.30
   0   5  -1  712.73   27.10
   0   5  -1  707.83   27.00
   0  -5   1  746.83   27.20
  -1   5  -1  913.81   34.50
  -1   5  -1  956.70   34.70
   1  -5   1  968.80   34.70
  -2   5  -1  822.52   30.20
  -2   5  -1  812.62   30.20
  -2   5  -1  819.32   30.20
  -2   5  -1  811.42   32.40
   2  -5   1  828.32   30.30
  -3   5  -1  364.86   14.40
  -3   5  -1  358.56   14.40
  -3   5  -1  363.76   14.30
  -3   5  -1  366.66   16.80
   3  -5   1  364.86   14.70
  -4   5  -1  204.88    9.20
  -4   5  -1  199.78    8.80
  -4   5  -1  202.98    9.40
  -4   5  -1  216.48   11.80
  -4   5  -1  211.68    9.40
   4  -5   1  207.98    8.80
   4  -5   1  207.88    9.80
  -5   5  -1  111.59    7.00
  -5   5  -1  113.79    5.70
  -5   5  -1  125.59    9.70
  -5   5  -1  113.39    6.80
   5  -5   1  113.79    7.60
   5  -5   1  125.99    6.70
  -6   5  -1  981.90   37.40
  -6   5  -1 1010.20   36.50
  -6   5  -1 1007.50   40.20
  -6   5  -1 1014.80   37.30
   6  -5   1  974.30   37.20
   6  -5   1 1009.90   37.90
  -7   5  -1  355.76   16.70
  -7   5  -1  350.46   15.00
  -7   5  -1  333.07   15.30
  -7   5  -1  335.07   13.60
   7  -5   1  324.67   15.10
   7  -5   1  336.37   15.90
  -8   5  -1   -1.20    4.10
  -8   5  -1   10.10    4.70
  -8   5  -1    4.40    3.40
   8  -5   1   -3.40    7.40
   8  -5   1   -1.60    3.30
  -9   5  -1   13.10    4.50
  -9   5  -1   21.90    6.10
   9  -5   1   11.50    5.70
 -10   5  -1  285.27   15.20
 -10   5  -1  287.97   15.70
  10  -5   1  269.07   16.10
 -11   5  -1   55.69    8.50
 -11   5  -1   54.79    6.70
  11  -5   1   47.10    8.90
 -12   5  -1   39.00    6.90
 -12   5  -1   17.90    8.20
  12  -5   1   21.60    9.60
  11   4  -1    0.30    7.20
  11   4  -1   18.30   10.10
  10   4  -1   50.89    7.30
  10   4  -1   47.60    9.00
 -10  -4   1   37.90   10.60
   9   4  -1  137.99   11.10
   9   4  -1  142.49   13.40
  -9  -4   1  127.69   15.40
   8   4  -1   47.40    6.70
   8   4  -1   57.09    8.30
  -8  -4   1   47.40    8.60
   7   4  -1   48.60    6.70
   7   4  -1   47.10    5.70
   7   4  -1   46.50    4.90
   7   4  -1   43.70    9.20
  -7  -4   1   52.19    7.80
   6   4  -1 1287.87   48.10
   6   4  -1 1351.36   48.10
   6   4  -1 1310.67   47.50
   6   4  -1 1255.27   49.50
  -6  -4   1 1274.37   48.60
   5   4  -1 1401.16   52.29
   5   4  -1 1433.56   51.89
   5   4  -1 1497.65   52.59
   5   4  -1 1389.16   53.99
  -5  -4   1 1437.66   52.89
  -5  -4   1 1404.26   51.59
   4   4  -1  592.94   21.60
   4   4  -1  547.55   21.50
   4   4  -1  592.24   21.00
   4   4  -1  558.84   21.60
   4   4  -1  548.15   23.50
  -4  -4   1  565.04   22.70
  -4  -4   1  540.95   20.90
   3   4  -1   18.50    3.00
   3   4  -1   23.10    3.50
   3   4  -1   13.90    3.80
   3   4  -1   16.20    2.80
   3   4  -1   15.50    2.60
  -3  -4   1   13.50    1.90
   2   4  -1  276.97   10.70
   2   4  -1  251.27   11.00
   2   4  -1  262.77   13.00
   2   4  -1  267.87   10.40
   2   4  -1  277.77   10.80
  -2  -4   1  263.67   10.50
   1   4  -1 2911.71  106.39
   1   4  -1 2951.30  108.09
   1   4  -1 3000.50  106.39
   1   4  -1 2911.11  106.19
   1   4  -1 3110.49  106.49
  -1  -4   1 2932.71  106.29
   0   4  -1    5.50    1.40
   0   4  -1    6.90    1.90
   0  -4   1    5.10    1.50
  -1   4  -1  441.06   18.80
  -1   4  -1  474.05   17.10
  -1   4  -1  446.26   17.00
  -1   4  -1  444.66   17.20
   1  -4   1  469.65   17.50
  -2   4  -1 1674.53   58.39
  -2   4  -1 1585.64   59.89
  -2   4  -1 1611.74   58.39
  -2   4  -1 1564.14   58.49
   2  -4   1 1627.64   58.59
   2  -4   1 1655.73   58.49
  -3   4  -1 1327.47   49.20
  -3   4  -1 1346.47   50.59
  -3   4  -1 1334.27   49.20
  -3   4  -1 1373.66   49.00
   3  -4   1 1369.76   49.40
   3  -4   1 1379.66   49.10
  -4   4  -1  297.57   11.60
  -4   4  -1  291.07   13.30
  -4   4  -1  288.57   11.80
  -4   4  -1  286.47   11.80
   4  -4   1  284.07   11.50
   4  -4   1  294.37   12.20
   4  -4   1  281.27   11.60
   4  -4   1  283.07   16.00
  -5   4  -1  278.97   10.80
  -5   4  -1  276.67   11.40
  -5   4  -1  278.47   13.00
  -5   4  -1  269.77   11.70
   5  -4   1  277.47   13.90
   5  -4   1  272.87   12.00
   5  -4   1  267.37   11.40
   5  -4   1  272.47   11.70
  -6   4  -1 2148.09   76.69
  -6   4  -1 2104.09   77.29
  -6   4  -1 2176.18   77.99
  -6   4  -1 2140.09   77.19
   6  -4   1 2014.80   77.09
   6  -4   1 2197.48   78.49
   6  -4   1 2133.69   77.69
  -7   4  -1 1557.44   56.39
  -7   4  -1 1563.74   55.79
  -7   4  -1 1540.15   56.49
   7  -4   1 1518.85   56.19
   7  -4   1 1582.84   57.39
   7  -4   1 1482.15   56.39
   7  -4   1 1503.55   56.89
  -8   4  -1   19.80    4.10
  -8   4  -1   25.90    5.30
  -8   4  -1   17.60    4.30
   8  -4   1   20.30    6.50
  -9   4  -1   43.50    5.10
  -9   4  -1   43.00    7.20
   9  -4   1   44.40    5.70
   9  -4   1   35.80    6.30
 -10   4  -1    3.20    6.40
 -10   4  -1    8.80    5.20
  10  -4   1    6.50    6.40
  10  -4   1   10.50    6.30
 -11   4  -1   81.09   12.20
 -11   4  -1   91.89   11.00
  11  -4   1   94.29   13.60
 -12   4  -1    0.60    8.00
 -12   4  -1   21.20    7.10
  12  -4   1    7.70    9.30
  11   3  -1   84.59   12.40
  11   3  -1   65.29    9.80
 -11  -3   1   66.09   12.30
  10   3  -1  155.28   13.90
  10   3  -1  137.09   12.70
 -10  -3   1  153.18   16.90
   9   3  -1  308.07   16.20
   9   3  -1  287.87   15.30
  -9  -3   1  302.27   18.40
   8   3  -1   28.00    5.70
   8   3  -1   25.60    5.00
  -8  -3   1   27.20    7.50
   7   3  -1   31.60    4.30
   7   3  -1   21.10    4.10
   7   3  -1   28.50    5.10
  -7  -3   1   33.90    6.30
   6   3  -1  792.82   29.60
   6   3  -1  813.02   30.50
   6   3  -1  760.12   30.00
   6   3  -1  745.13   30.70
  -6  -3   1  889.91   31.20
  -6  -3   1  772.82   29.20
  -6  -3   1  752.42   30.60
   5   3  -1  615.24   25.60
   5   3  -1  622.94   24.50
   5   3  -1  636.64   25.60
   5   3  -1  658.73   24.30
  -5  -3   1  642.04   24.00
  -5  -3   1  727.93   26.00
  -5  -3   1  621.04   25.00
   4   3  -1   55.49    4.20
   4   3  -1   56.99    6.30
   4   3  -1   59.39    4.50
   4   3  -1   57.89    4.10
  -4  -3   1   45.80    3.80
  -4  -3   1   55.29    5.60
  -4  -3   1   59.99    6.60
   3   3  -1  618.74   24.50
   3   3  -1  628.04   23.10
   3   3  -1  606.24   22.90
   3   3  -1  638.04   23.10
   3   3  -1  624.94   23.30
  -3  -3   1  636.84   23.50
  -3  -3   1  570.44   22.80
  -3  -3   1  645.84   24.40
   2   3  -1 2533.35   91.99
   2   3  -1 2431.86   90.59
   2   3  -1 2578.04   90.79
   2   3  -1 2481.25   90.79
   2   3  -1 2553.14   90.79
  -2  -3   1 2661.73   91.99
  -2  -3   1 2479.55   90.69
   1   3  -1  557.54   21.60
   1   3  -1  479.85   20.10
   1   3  -1  569.44   20.10
  -1  -3   1  575.24   21.70
  -1  -3   1  550.44   20.20
  -1  -3   1  571.64   20.10
   0   3  -1   89.79    6.00
   0   3  -1   90.09    4.10
   0  -3   1   94.09    4.30
   0  -3   1   95.59    4.20
  -1   3  -1 5360.96  190.98
  -1   3  -1 5284.87  189.88
  -1   3  -1 5146.49  189.78
   1  -3   1 5198.98  189.88
   1  -3   1 5351.86  189.78
   1  -3   1 5579.44  191.08
  -2   3  -1 2541.25   93.49
  -2   3  -1 2563.34   93.49
  -2   3  -1 2648.14   94.49
   2  -3   1 2798.72   94.69
   2  -3   1 2620.24   93.49
   2  -3   1 2485.45   93.89
  -3   3  -1 3568.64  126.19
  -3   3  -1 3399.56  126.09
  -3   3  -1 3480.55  126.79
   3  -3   1 3560.34  125.99
   3  -3   1 3505.65  126.29
   3  -3   1 3611.84  127.09
  -4   3  -1 1201.98   44.10
  -4   3  -1 1212.38   44.10
  -4   3  -1 1213.78   43.90
  -4   3  -1 1225.58   44.70
   4  -3   1 1182.78   43.90
   4  -3   1 1202.68   44.20
   4  -3   1 1200.28   43.90
   4  -3   1 1250.27   45.00
  -5   3  -1    3.90    2.30
  -5   3  -1    7.40    2.50
   5  -3   1   10.80    2.50
   5  -3   1    7.70    2.90
   5  -3   1    5.70    2.40
   5  -3   1    3.00    2.30
  -6   3  -1  891.31   32.80
  -6   3  -1  882.81   32.80
   6  -3   1  861.81   32.80
   6  -3   1  881.61   32.60
   6  -3   1  891.81   33.20
   6  -3   1  873.01   32.60
  -7   3  -1  213.48   11.20
  -7   3  -1  227.98   10.70
   7  -3   1  214.88   10.60
   7  -3   1  232.08   10.20
   7  -3   1  221.98   13.90
   7  -3   1  227.88   11.10
  -8   3  -1   -5.50    3.60
  -8   3  -1   -3.40    4.50
   8  -3   1    0.80    4.10
   8  -3   1    0.60    3.20
   8  -3   1    3.50    4.50
  -9   3  -1  168.98   11.60
   9  -3   1  174.98   12.10
   9  -3   1  173.88   11.10
 -10   3  -1   -2.30    6.40
  10  -3   1    2.50    5.60
  10  -3   1   -1.20    6.40
 -11   3  -1   91.99   12.70
  11  -3   1   94.69   12.10
  11  -3   1   92.19   13.30
 -12   3  -1   13.60    8.40
  12  -3   1   -0.30    7.60
  12  -3   1    0.80    9.20
  11   2  -1   17.80    7.40
  11   2  -1    8.80    8.00
 -11  -2   1   33.40   10.20
  10   2  -1   54.49    7.40
  10   2  -1   59.99    8.00
 -10  -2   1   65.19   10.20
   9   2  -1   88.69   10.10
   9   2  -1   78.89   10.50
  -9  -2   1   93.99   13.50
   8   2  -1    6.10    4.40
   8   2  -1   -1.90    3.50
   8   2  -1    0.20    4.80
  -8  -2   1   10.90   11.60
  -8  -2   1    2.50    3.10
   7   2  -1  501.45   19.70
   7   2  -1  477.95   19.70
   7   2  -1  480.75   19.90
  -7  -2   1  499.05   21.10
   6   2  -1 1057.39   40.40
   6   2  -1 1131.49   40.50
   6   2  -1 1090.89   40.30
  -6  -2   1 1075.19   41.00
  -6  -2   1 1111.39   40.00
   5   2  -1  588.44   22.70
   5   2  -1  595.14   23.20
   5   2  -1  596.64   22.80
   5   2  -1  599.34   22.60
   5   2  -1  598.54   22.80
  -5  -2   1  596.44   23.20
  -5  -2   1  623.54   23.40
  -5  -2   1  602.84   22.40
   4   2  -1 1381.76   49.80
   4   2  -1 1416.96   49.50
   4   2  -1 1365.16   50.19
   4   2  -1 1307.47   49.80
   4   2  -1 1343.77   49.70
  -4  -2   1 1336.17   49.40
  -4  -2   1 1347.37   49.80
  -4  -2   1 1448.06   50.29
   3   2  -1  452.15   17.40
   3   2  -1  435.56   16.60
   3   2  -1  444.86   16.60
  -3  -2   1  471.95   17.50
  -3  -2   1  445.46   16.90
  -3  -2   1  412.86   16.50
   2   2  -1 7680.73  268.47
  -2  -2   1 7188.68  267.57
  -2  -2   1 7146.69  267.67
  -2  -2   1 8009.20  268.47
   0   2  -1  835.62   30.30
   0   2  -1  826.32   29.50
   0  -2   1  745.83   29.50
   0  -2   1  849.81   30.30
   0  -2   1  833.32   29.50
  -1   2  -1 2600.24   91.79
  -1   2  -1 2434.66   91.09
  -1   2  -1 2608.04   91.09
   1  -2   1 2702.73   91.79
   1  -2   1 2512.05   91.09
   1  -2   1 2436.06   91.09
  -2   2  -1  531.35   19.70
  -2   2  -1  486.25   20.30
  -2   2  -1  547.65   20.20
   2  -2   1  543.65   19.60
   2  -2   1  553.94   19.80
   2  -2   1  549.74   20.30
  -3   2  -1 2394.66   82.39
  -3   2  -1 2292.57   82.59
  -3   2  -1 2174.18   82.49
   3  -2   1 2315.17   82.19
   3  -2   1 2306.67   82.69
   3  -2   1 2284.27   82.39
  -5   2  -1  436.16   17.60
  -5   2  -1  481.25   17.50
   5  -2   1  459.75   17.50
   5  -2   1  450.45   17.50
   5  -2   1  456.75   17.30
   5  -2   1  458.55   17.80
  -6   2  -1 1629.14   57.59
  -6   2  -1 1526.85   57.69
   6  -2   1 1604.84   57.89
   6  -2   1 1594.34   57.59
   6  -2   1 1542.05   57.79
   6  -2   1 1605.14   57.39
  -7   2  -1  735.63   27.00
  -7   2  -1  699.23   27.40
   7  -2   1  694.03   27.30
   7  -2   1  715.73   26.70
   7  -2   1  703.03   27.10
  -8   2  -1   50.49    5.80
  -8   2  -1   52.99    6.50
   8  -2   1   39.70    5.20
   8  -2   1   47.10    5.70
   8  -2   1   36.10    5.40
  -9   2  -1   91.89    9.60
   9  -2   1   85.39   10.90
   9  -2   1   89.79    9.90
 -10   2  -1  210.08   13.20
  10  -2   1  187.68   14.00
  10  -2   1  173.78   13.10
 -11   2  -1  255.97   15.50
  11  -2   1  218.98   16.00
  11  -2   1  217.18   15.20
 -12   2  -1   20.30    8.50
  12  -2   1   24.50    8.40
  12  -2   1   30.90    9.70
  12   1  -1    9.30    8.80
  12   1  -1    6.80    9.00
 -12  -1   1   15.50    9.80
  11   1  -1   35.50    7.70
  11   1  -1   38.60    7.90
 -11  -1   1   39.00    9.10
  10   1  -1   88.99   11.90
  10   1  -1   82.99   11.10
 -10  -1   1   93.99   14.10
   9   1  -1  106.49   10.40
   9   1  -1  110.29   10.60
  -9  -1   1  114.99   14.70
   8   1  -1   57.29    7.70
   8   1  -1   58.69    7.60
   8   1  -1   69.99    6.70
  -8  -1   1   56.99    7.50
  -8  -1   1   49.10    5.90
   7   1  -1 1115.19   42.00
   7   1  -1 1099.99   41.90
   7   1  -1 1160.68   42.40
  -7  -1   1 1127.29   42.90
  -7  -1   1 1150.88   41.80
   6   1  -1 2166.28   77.39
   6   1  -1 2110.39   77.79
   6   1  -1 2126.69   77.29
  -6  -1   1 2146.79   77.89
   5   1  -1  992.00   36.60
   5   1  -1  999.80   36.80
   5   1  -1  981.50   36.50
  -5  -1   1  972.80   37.10
  -5  -1   1 1040.60   36.50
   4   1  -1   95.29    5.40
   4   1  -1  103.99    5.20
   4   1  -1  104.29    5.50
  -4  -1   1  117.49    5.20
  -4  -1   1  106.29    6.20
   3   1  -1  388.56   14.60
   3   1  -1  368.26   14.30
  -3  -1   1  362.36   14.30
  -3  -1   1  376.16   14.20
  -3  -1   1  397.76   14.80
   2   1  -1 5970.50  219.08
  -2  -1   1 6334.87  219.48
  -2  -1   1 6110.49  219.08
   1   1  -1 2079.79   74.69
   0   1  -1  -11.70    0.20
   0  -1   1  -11.70    0.30
  -1   1  -1  229.18    9.90
  -2   1  -1  429.96   16.30
  -2   1  -1  417.46   16.10
  -2   1  -1  433.16   16.10
   2  -1   1  465.95   16.50
   2  -1   1  431.66   16.10
  -3   1  -1 1572.94   56.09
  -3   1  -1 1549.24   55.99
   3  -1   1 1559.34   56.09
  -4   1  -1   36.40    3.00
   4  -1   1   32.50    3.40
   4  -1   1   26.20    3.30
   4  -1   1   30.20    3.20
  -5   1  -1 2371.16   84.09
  -5   1  -1 2323.47   84.59
   5  -1   1 2332.47   84.19
   5  -1   1 2293.67   84.19
   5  -1   1 2372.86   84.29
  -6   1  -1  964.40   34.40
  -6   1  -1  940.11   35.10
   6  -1   1  918.01   34.80
   6  -1   1  922.41   34.70
   6  -1   1  929.51   34.70
   6  -1   1  927.71   34.60
  -7   1  -1  857.51   31.30
  -7   1  -1  846.92   32.20
   7  -1   1  819.52   31.80
   7  -1   1  829.92   31.30
   7  -1   1  833.02   31.60
  -8   1  -1   27.20    5.70
  -8   1  -1   16.50    3.60
   8  -1   1   21.70    4.80
   8  -1   1   18.10    4.40
   8  -1   1   14.70    3.10
  -9   1  -1    6.60    6.30
   9  -1   1   14.20    5.60
   9  -1   1   14.80    5.20
 -10   1  -1  165.28   13.80
  10  -1   1  194.68   13.20
  10  -1   1  172.38   13.00
 -11   1  -1   33.70    7.90
  11  -1   1   27.60    7.70
  11  -1   1   20.20    7.50
 -12   1  -1   -7.60    8.00
  12  -1   1   -1.20    8.30
  12  -1   1    4.00    8.80
  12   0  -1    6.50    9.60
  12   0  -1    5.50    9.60
 -12   0   1   15.70   11.70
  11   0  -1  117.99   15.00
  11   0  -1  128.19   13.40
 -11   0   1  171.58   15.10
  10   0  -1  136.49   13.10
  10   0  -1  152.68   11.90
 -10   0   1  167.68   13.70
   9   0  -1  163.48   11.00
   9   0  -1  178.88   12.10
  -9   0   1  181.08   13.20
   8   0  -1   -1.20    4.20
   8   0  -1    3.70    3.10
   8   0  -1    1.00    4.10
  -8   0   1    0.10    3.40
  -8   0   1    1.70    5.70
   7   0  -1  331.97   14.20
   7   0  -1  334.17   14.50
   7   0  -1  340.57   14.00
  -7   0   1  346.67   14.20
  -7   0   1  326.27   15.70
   6   0  -1 1398.26   52.79
   6   0  -1 1441.16   52.59
   6   0  -1 1457.15   52.49
   6   0  -1 1456.75   52.39
  -6   0   1 1444.46   53.19
   5   0  -1   25.30    3.40
   5   0  -1   16.40    2.30
   5   0  -1   26.20    3.80
   5   0  -1   20.60    2.70
  -5   0   1   25.80    3.60
  -5   0   1   19.70    3.90
   4   0  -1   36.10    3.10
   4   0  -1   35.60    3.20
   4   0  -1   22.70    3.50
   4   0  -1   33.40    3.20
  -4   0   1   36.10    4.80
  -4   0   1   34.70    3.20
  -4   0   1   27.50    3.80
   3   0  -1 2922.91  107.29
   3   0  -1 3052.79  107.19
   3   0  -1 2994.40  107.89
  -3   0   1 2977.70  107.29
  -3   0   1 3016.90  107.39
  -3   0   1 3008.60  107.19
   2   0  -1 2535.75   91.49
   2   0  -1 2643.24   91.39
   2   0  -1 2456.25   92.09
  -2   0   1 2626.24   91.79
  -2   0   1 2569.84   91.39
  -2   0   1 2475.85   91.39
  -1   0  -1 2267.77   78.19
   1   0   1 2029.40   78.19
   1   0   1 2281.57   78.99
  -4   0  -1   61.09    3.60
   4   0   1   67.39    4.10
   4   0   1   60.39    3.50
   4   0   1   69.29    4.20
  -5   0  -1 3752.82  130.59
  -5   0  -1 3622.24  129.99
   5   0   1 3604.94  130.19
   5   0   1 3624.54  130.29
   5   0   1 3622.54  130.29
   5   0   1 3576.04  129.99
  -6   0  -1 1760.02   64.19
  -6   0  -1 1773.92   63.29
   6   0   1 1753.32   63.39
   6   0   1 1754.72   63.79
   6   0   1 1730.83   63.79
  -7   0  -1    1.60    2.60
  -7   0  -1    2.70    5.20
   7   0   1    9.60    3.70
   7   0   1    5.30    2.40
   7   0   1    3.50    3.60
  -8   0  -1    6.30    2.90
  -8   0  -1    6.30    6.10
   8   0   1   -1.30    4.80
   8   0   1    2.50    4.50
   8   0   1    1.30    2.90
  -9   0  -1   69.89   11.00
   9   0   1   69.89    9.70
   9   0   1   67.99    9.80
 -10   0  -1  221.98   15.40
  10   0   1  180.48   13.50
  10   0   1  194.78   13.60
 -11   0  -1   45.80    9.10
  11   0   1   24.60    7.60
  11   0   1   34.60    7.80
 -12   0  -1    5.80    9.10
  12   0   1    3.60    8.40
  12   0   1    0.70    8.70
  12  -1  -1   -6.10    9.30
  12  -1  -1   -5.00    7.30
 -12   1   1    9.00    8.40
  11  -1  -1   20.90    6.80
  11  -1  -1   34.30    8.10
 -11   1   1   32.40    7.80
  10  -1  -1   35.20    7.00
  10  -1  -1   34.30    6.50
 -10   1   1   34.70    7.40
   9  -1  -1  159.18   11.50
   9  -1  -1  147.99   10.60
  -9   1   1  166.58   12.00
   8  -1  -1   62.19    8.00
   8  -1  -1   56.09    6.50
   8  -1  -1   46.90    6.80
  -8   1   1   45.60    5.10
  -8   1   1   45.60    6.40
   7  -1  -1  246.38   13.00
   7  -1  -1  268.87   11.60
   7  -1  -1  269.57   11.60
   7  -1  -1  247.48   12.00
  -7   1   1  271.17   11.90
  -7   1   1  266.07   12.90
   6  -1  -1  512.35   20.70
   6  -1  -1  540.45   20.30
   6  -1  -1  539.45   21.10
   6  -1  -1  544.65   20.50
  -6   1   1  539.55   20.60
  -6   1   1  528.65   21.20
   5  -1  -1  116.39    6.60
   5  -1  -1  121.39    6.20
   5  -1  -1  128.29    5.90
   5  -1  -1  117.29    6.00
  -5   1   1  108.89    6.80
   4  -1  -1  474.05   18.00
   4  -1  -1  471.85   18.60
   4  -1  -1  498.35   18.20
   4  -1  -1  490.95   18.60
   4  -1  -1  479.45   18.30
  -4   1   1  497.85   18.10
  -4   1   1  480.35   18.20
  -4   1   1  448.76   18.30
   3  -1  -1 1805.12   66.39
   3  -1  -1 1800.82   66.19
   3  -1  -1 1841.62   65.79
   3  -1  -1 1840.92   65.99
  -3   1   1 1865.21   65.79
  -3   1   1 1831.92   65.89
   1  -1  -1 1686.63   60.19
   1  -1  -1 1723.53   60.79
   1  -1  -1 1602.54   60.29
   1  -1  -1 1710.03   61.09
  -1   1   1 1692.83   60.19
   0  -1  -1 1002.90   36.10
   0  -1  -1  940.91   35.50
   0  -1  -1 1003.50   36.50
   0  -1  -1 1001.30   35.40
   0   1   1  989.90   35.40
   0   1   1  993.70   35.40
  -1  -1  -1 1327.97   48.20
  -1  -1  -1 1314.47   47.90
  -2  -1  -1 1669.63   59.39
  -2  -1  -1 1599.04   59.19
  -3  -1  -1  288.27   11.20
  -3  -1  -1  285.27   11.40
   3   1   1  279.47   10.40
   3   1   1  259.97   10.50
   3   1   1  284.27   10.90
  -4  -1  -1 2435.26   86.69
  -4  -1  -1 2509.05   86.79
  -4  -1  -1 2387.96   86.09
  -4  -1  -1 2361.66   86.59
   4   1   1 2292.47   86.19
   4   1   1 2480.85   86.49
   4   1   1 2397.96   86.29
   4   1   1 2398.96   86.59
  -5  -1  -1  824.72   31.30
  -5  -1  -1  856.71   30.50
   5   1   1  860.41   31.10
   5   1   1  809.32   30.80
   5   1   1  840.72   30.70
   5   1   1  839.12   31.10
  -6  -1  -1  227.18    9.50
  -6  -1  -1  226.38   11.40
   6   1   1  224.78    9.70
   6   1   1  235.58   10.60
   6   1   1  232.78   10.60
  -7  -1  -1  416.06   16.10
  -7  -1  -1  429.06   18.50
   7   1   1  408.06   17.30
   7   1   1  402.46   17.90
   7   1   1  423.66   16.50
  -8  -1  -1   -1.90    6.40
   8   1   1    4.70    4.60
   8   1   1   -1.90    7.20
   8   1   1   -0.80    2.90
  -9  -1  -1  177.28   15.00
   9   1   1  172.88   11.90
   9   1   1  165.28   12.50
 -10  -1  -1  117.19   15.60
  10   1   1  125.69   12.20
  10   1   1  123.59   13.20
 -11  -1  -1   41.20   10.60
  11   1   1   21.30    7.40
  11   1   1   35.80    8.70
  12  -2  -1   -7.90    9.10
  12  -2  -1   -7.00    7.70
 -12   2   1    1.90    8.60
  11  -2  -1   31.30    8.30
  11  -2  -1   36.00    7.10
 -11   2   1   49.90    8.40
  10  -2  -1  325.57   17.60
  10  -2  -1  315.37   16.30
 -10   2   1  352.06   17.80
   9  -2  -1   42.20    6.60
   9  -2  -1   43.70    5.60
  -9   2   1   44.70    7.10
   8  -2  -1  178.38   11.50
   8  -2  -1  208.48   12.30
   8  -2  -1  197.58   10.20
  -8   2   1  180.98   11.80
  -8   2   1  212.08   11.00
   7  -2  -1 2007.40   74.49
   7  -2  -1 1976.20   74.19
   7  -2  -1 2074.89   73.99
   7  -2  -1 2033.00   73.69
  -7   2   1 2088.09   74.19
  -7   2   1 2033.60   74.39
   6  -2  -1 1781.32   62.19
   6  -2  -1 1668.03   62.89
   6  -2  -1 1666.33   62.99
   6  -2  -1 1747.13   63.09
   6  -2  -1 1750.72   63.09
   6  -2  -1 1759.62   62.49
  -6   2   1 1639.44   62.79
  -6   2   1 1745.73   62.59
   5  -2  -1 1097.59   41.10
   5  -2  -1 1109.19   41.60
   5  -2  -1 1119.69   41.10
   5  -2  -1 1095.19   40.90
   5  -2  -1 1133.39   40.70
   5  -2  -1 1126.59   40.70
  -5   2   1 1070.39   40.90
  -5   2   1 1151.68   40.90
   4  -2  -1   14.60    3.00
   4  -2  -1   12.60    1.90
   4  -2  -1   16.20    3.90
   4  -2  -1   17.90    2.40
   4  -2  -1   13.50    2.30
  -4   2   1   13.80    2.10
  -4   2   1   15.40    2.20
   3  -2  -1 1340.07   49.80
   3  -2  -1 1323.77   49.10
   3  -2  -1 1360.66   48.80
   3  -2  -1 1355.46   48.60
   3  -2  -1 1291.17   48.70
  -3   2   1 1395.16   48.70
  -3   2   1 1335.17   48.70
  -3   2   1 1358.66   48.70
   2  -2  -1 7958.10  282.57
   2  -2  -1 7913.31  283.07
   2  -2  -1 7934.31  281.97
   2  -2  -1 7758.02  281.77
  -2   2   1 7888.31  281.87
  -2   2   1 7991.60  282.97
  -2   2   1 7887.71  281.97
   1  -2  -1  629.04   22.60
   1  -2  -1  625.34   24.00
   1  -2  -1  615.14   22.50
  -1   2   1  605.44   22.50
  -1   2   1  625.94   23.90
   0  -2  -1   88.99    3.50
   0  -2  -1   79.99    3.50
   0  -2  -1   81.99    5.70
   0   2   1   85.09    5.70
   0   2   1   81.79    3.50
   0   2   1   81.49    4.10
  -1  -2  -1 3307.27  118.09
   1   2   1 3234.18  118.09
  -2  -2  -1 3216.08  112.59
   2   2   1 3011.20  112.59
   3   2   1   51.49    3.80
   3   2   1   56.49    3.70
   3   2   1   51.99    3.80
  -4  -2  -1  766.12   28.00
  -4  -2  -1  743.73   27.60
  -4  -2  -1  716.53   27.30
   4   2   1  694.53   26.60
   4   2   1  747.03   26.90
   4   2   1  702.63   26.90
   4   2   1  718.93   26.60
  -5  -2  -1  906.41   33.80
  -5  -2  -1  891.21   33.70
  -5  -2  -1  951.60   34.00
   5   2   1  900.71   33.30
   5   2   1  854.91   33.40
   5   2   1  892.01   33.00
  -6  -2  -1  742.73   26.60
  -6  -2  -1  665.03   26.70
   6   2   1  665.93   26.30
   6   2   1  689.93   25.70
   6   2   1  658.13   26.10
  -7  -2  -1  297.67   14.80
   7   2   1  274.07   12.90
   7   2   1  289.67   12.30
   7   2   1  263.47   13.80
  -8  -2  -1  157.68   14.80
   8   2   1  166.38   14.70
   8   2   1  161.38   10.80
   8   2   1  167.68   11.50
  -9  -2  -1   88.29   10.50
   9   2   1   98.09   11.20
   9   2   1   86.89   10.30
 -10  -2  -1  287.67   19.50
  10   2   1  268.67   17.30
  10   2   1  283.47   16.00
 -11  -2  -1   35.10   11.10
  11   2   1   25.70    7.70
  11   2   1   13.30    8.90
  12  -3  -1    5.90    9.60
  12  -3  -1    0.60    7.50
 -12   3   1    8.30    9.70
  11  -3  -1    5.20    8.40
  11  -3  -1   -6.30    7.40
 -11   3   1    4.50    7.90
  10  -3  -1  503.55   24.60
  10  -3  -1  537.35   24.40
 -10   3   1  566.54   24.10
   9  -3  -1   25.60    5.20
   9  -3  -1   34.00    6.40
  -9   3   1   24.20    8.80
   8  -3  -1  219.68   11.00
  -8   3   1  211.48   12.60
  -8   3   1  230.08   12.10
   7  -3  -1  391.46   17.00
   7  -3  -1  413.36   18.10
   7  -3  -1  393.46   16.00
   7  -3  -1  414.36   17.60
   7  -3  -1  401.56   17.20
  -7   3   1  391.96   17.30
  -7   3   1  394.86   16.90
   6  -3  -1   78.09    5.30
   6  -3  -1   74.09    6.60
   6  -3  -1   76.49    7.10
   6  -3  -1   77.89    6.40
   6  -3  -1   75.19    8.60
  -6   3   1   81.09    6.40
  -6   3   1   69.29    6.80
   5  -3  -1  260.57   11.70
   5  -3  -1  241.08   15.30
   5  -3  -1  261.47   12.10
   5  -3  -1  257.47   11.90
  -5   3   1  248.18   11.30
  -5   3   1  286.87   11.40
  -5   3   1  270.37   11.40
   4  -3  -1   10.00    2.60
   4  -3  -1    9.70    2.50
   4  -3  -1    0.30    4.70
   4  -3  -1    5.20    2.60
  -4   3   1    2.60    2.00
  -4   3   1    4.00    2.20
  -4   3   1   11.30    2.60
   3  -3  -1  516.65   19.90
   3  -3  -1  540.25   20.20
  -3   3   1  544.45   20.10
  -3   3   1  523.55   20.00
  -3   3   1  528.65   20.00
  -3   3   1  545.55   22.00
   2  -3  -1 1494.45   53.69
  -2   3   1 1498.85   53.59
  -2   3   1 1465.15   53.49
  -2   3   1 1481.35   55.19
   1  -3  -1  666.73   23.80
  -1   3   1  647.54   23.70
  -1   3   1  615.54   23.70
  -1   3   1  658.93   25.80
  -1   3   1  660.83   23.90
   0  -3  -1 1958.80   69.89
   0   3   1 1921.01   69.89
   0   3   1 1873.71   69.89
   0   3   1 1956.60   71.89
   0   3   1 2058.09   70.29
   1   3   1 3631.34  122.19
   1   3   1 3216.78  121.69
   1   3   1 3428.36  123.79
   1   3   1 3361.66  121.69
   2   3   1 3383.46  121.59
   2   3   1 3473.95  121.79
   2   3   1 3337.77  123.39
   3   3   1  580.44   21.70
   3   3   1  559.24   23.60
   3   3   1  569.44   21.60
   3   3   1  600.54   21.50
   4   3   1  330.97   12.40
   4   3   1  302.37   15.10
   4   3   1  292.47   12.10
   4   3   1  323.07   12.10
   4   3   1  293.97   12.60
   4   3   1  310.77   12.60
  -5  -3  -1 1045.20   39.40
  -5  -3  -1 1069.19   39.80
   5   3   1 1054.69   38.60
   5   3   1 1022.90   39.40
   5   3   1 1050.89   38.50
  -6  -3  -1    3.90    3.70
  -6  -3  -1    6.40    5.30
   6   3   1    1.30    3.20
   6   3   1    4.00    2.80
   6   3   1    3.80    3.80
  -7  -3  -1  103.09   10.90
  -7  -3  -1  113.39   13.80
   7   3   1  101.49    9.20
   7   3   1   84.89    7.10
   7   3   1   92.29    8.10
  -8  -3  -1   39.30    8.40
   8   3   1   35.40    5.50
   8   3   1   34.90    6.20
  -9  -3  -1   83.19   10.20
   9   3   1   73.49   10.00
   9   3   1   83.59   11.70
 -10  -3  -1  180.88   18.30
  10   3   1  160.08   15.80
  10   3   1  173.38   13.60
 -11  -3  -1   20.90   12.00
  11   3   1   12.40    7.80
  11   3   1   -3.60    9.80
  12  -4  -1   -5.80    9.30
 -12   4   1   -7.60    9.20
  11  -4  -1   -2.90    6.90
  11  -4  -1    7.20    7.90
 -11   4   1    8.80    8.00
  10  -4  -1   93.29    9.90
  10  -4  -1   95.29   12.30
 -10   4   1   81.49    8.90
   9  -4  -1   82.99    8.30
   9  -4  -1   69.49   10.40
  -9   4   1   69.79   10.80
   8  -4  -1  219.68   12.60
   8  -4  -1  213.68   12.60
   8  -4  -1  210.58   13.80
  -8   4   1  256.87   10.30
  -8   4   1  227.18   12.50
   7  -4  -1  385.66   17.70
   7  -4  -1  390.36   17.10
   7  -4  -1  384.96   17.40
  -7   4   1  390.56   17.20
  -7   4   1  428.66   15.40
  -7   4   1  392.36   17.10
   6  -4  -1  232.88   11.70
   6  -4  -1  218.28   11.70
   6  -4  -1  228.08   11.10
  -6   4   1  240.28    9.90
  -6   4   1  222.88   11.20
  -6   4   1  238.78   11.30
   5  -4  -1   12.40    3.20
   5  -4  -1    6.40    3.10
   5  -4  -1    4.70    3.20
  -5   4   1   10.10    3.40
  -5   4   1    9.20    2.60
  -5   4   1    6.40    3.00
   4  -4  -1  505.65   19.90
   4  -4  -1  522.15   21.30
   4  -4  -1  506.55   20.30
  -4   4   1  500.95   20.10
  -4   4   1  523.55   20.10
  -4   4   1  566.24   22.40
  -4   4   1  522.65   20.00
   3  -4  -1 4330.67  153.38
   3  -4  -1 4163.88  153.08
  -3   4   1 4122.39  153.28
  -3   4   1 4316.87  153.18
  -3   4   1 4315.47  153.58
  -3   4   1 4413.86  155.18
   2  -4  -1 1612.24   58.09
  -2   4   1 1579.24   57.99
  -2   4   1 1591.54   58.19
  -2   4   1 1639.44   60.29
   1  -4  -1 2919.51  101.89
  -1   4   1 2861.51  104.19
  -1   4   1 2793.12  101.89
  -1   4   1 2797.72  101.79
   0  -4  -1  213.78    8.20
   0   4   1  208.28   11.80
   0   4   1  201.98    8.20
   0   4   1  210.28    8.30
   0   4   1  207.58    9.00
   1   4   1 1382.26   49.70
   1   4   1 1350.16   49.70
   1   4   1 1393.46   49.90
   1   4   1 1401.96   52.59
   1   4   1 1390.06   50.29
   2   4   1  843.12   31.20
   2   4   1  846.32   30.80
   2   4   1  834.82   33.70
   3   4   1   36.10    3.90
   3   4   1   42.50    4.40
   3   4   1   34.80    4.90
   3   4   1   29.00    5.40
   4   4   1  260.07   11.50
   4   4   1  270.27   10.90
   4   4   1  250.77   14.70
   4   4   1  255.97   11.40
  -5  -4  -1  766.22   30.00
  -5  -4  -1  750.62   29.40
   5   4   1  714.13   30.80
   5   4   1  716.53   28.30
   5   4   1  739.03   28.40
   5   4   1  740.53   27.80
   5   4   1  759.22   27.50
  -6  -4  -1   54.19    9.30
  -6  -4  -1   68.49    7.60
   6   4   1   64.39    6.50
   6   4   1   65.89    9.40
   6   4   1   60.19    5.60
  -7  -4  -1   16.70    7.30
   7   4   1   13.00    3.50
   7   4   1   19.10    4.60
   7   4   1   16.90    5.30
  -8  -4  -1   98.19   14.40
   8   4   1   93.39   11.30
   8   4   1   94.69    9.70
  -9  -4  -1  145.99   16.70
   9   4   1  141.59   11.80
   9   4   1  154.48   13.90
 -10  -4  -1   53.39   11.30
  10   4   1   53.29    9.50
  10   4   1   49.99    7.70
  11  -5  -1  137.59   17.10
 -11   5   1  135.59   14.20
  10  -5  -1   22.10    7.60
 -10   5   1   20.40    7.40
   9  -5  -1    1.80    5.90
  -9   5   1    8.00    6.40
  -9   5   1    3.10    3.40
   8  -5  -1  302.77   16.80
   8  -5  -1  316.77   16.50
   8  -5  -1  295.07   16.60
  -8   5   1  319.57   15.90
  -8   5   1  337.87   12.80
   7  -5  -1  731.43   29.00
   7  -5  -1  675.83   34.50
   7  -5  -1  746.43   29.70
  -7   5   1  806.72   31.10
  -7   5   1  777.12   27.30
  -7   5   1  710.13   30.60
   6  -5  -1  486.95   19.30
   6  -5  -1  473.75   19.80
  -6   5   1  462.15   19.50
  -6   5   1  457.25   19.90
   5  -5  -1  253.17   16.30
   5  -5  -1  299.57   12.80
   5  -5  -1  298.37   13.40
  -5   5   1  295.37   13.00
  -5   5   1  298.87   12.60
  -5   5   1  289.97   13.10
   4  -5  -1  220.88    9.60
   4  -5  -1  203.48   10.40
  -4   5   1  218.68    9.70
  -4   5   1  203.28   16.20
  -4   5   1  199.18   10.00
  -4   5   1  213.58   10.10
   3  -5  -1 1180.08   44.40
   3  -5  -1 1279.27   44.80
  -3   5   1 1219.48   44.90
  -3   5   1 1226.18   44.60
  -3   5   1 1240.78   49.70
  -3   5   1 1164.58   44.60
   2  -5  -1   11.60    2.40
   2  -5  -1   12.00    2.40
  -2   5   1    9.50    1.90
  -2   5   1   17.80    3.30
  -2   5   1    9.50    6.40
  -2   5   1   10.70    2.50
   1  -5  -1   11.20    2.10
  -1   5   1   12.90    2.40
  -1   5   1   13.90    3.00
  -1   5   1   11.30    3.10
   0  -5  -1  563.24   20.30
   0   5   1  544.55   21.10
   0   5   1  537.05   20.40
   1   5   1  695.93   25.00
   1   5   1  666.93   25.60
   1   5   1  669.13   24.80
   2   5   1  111.39    5.40
   2   5   1  105.49    7.10
   2   5   1  117.49    6.10
   2   5   1  113.79    6.10
   3   5   1   49.99    5.40
   3   5   1   57.89    4.60
   3   5   1   50.49    3.80
   3   5   1   48.80    6.10
   4   5   1  874.81   33.30
   4   5   1  893.11   32.60
   4   5   1  875.41   33.00
   5   5   1  200.28   12.90
   5   5   1  220.28    9.90
   5   5   1  221.58   11.40
  -6  -5  -1  282.77   18.70
   6   5   1  292.27   14.20
   6   5   1  280.97   12.30
   6   5   1  281.87   12.80
  -7  -5  -1   12.30    8.20
   7   5   1    2.50    5.60
   7   5   1    4.70    4.50
  -8  -5  -1   30.00    9.20
   8   5   1   16.20    5.50
   8   5   1   25.60    7.20
  -9  -5  -1   68.59   11.40
   9   5   1   71.69    9.40
   9   5   1   75.69   10.40
  11  -6  -1   84.59   10.70
 -11   6   1  115.89   15.70
  10  -6  -1   30.20    8.00
 -10   6   1   22.70    8.20
   9  -6  -1   -3.30    5.90
  -9   6   1    6.60    7.00
   8  -6  -1   52.59    7.10
  -8   6   1   53.69    7.30
   7  -6  -1  192.08   11.50
   7  -6  -1  201.88   13.40
  -7   6   1  178.68   12.10
   6  -6  -1   25.30    5.10
   6  -6  -1   32.80    4.80
  -6   6   1   29.80    9.10
   5  -6  -1    9.50    4.20
   5  -6  -1   10.20    3.80
  -5   6   1   12.00    4.60
  -5   6   1    9.10    3.10
   4  -6  -1  812.12   30.60
   4  -6  -1  841.82   31.30
  -4   6   1  822.42   30.90
  -4   6   1  798.72   31.40
   3  -6  -1  401.96   16.40
   3  -6  -1  377.16   15.60
  -3   6   1  404.66   16.80
  -3   6   1  382.86   16.40
   2  -6  -1   61.49    5.00
   2  -6  -1   77.09    5.70
  -2   6   1   71.09    5.30
  -2   6   1   71.89    6.70
   1  -6  -1  187.48    9.40
   1  -6  -1  229.18    9.60
  -1   6   1  221.98    9.50
  -1   6   1  227.28   10.50
   0   6   1 1413.46   52.29
   0   6   1 1451.65   51.29
   0   6   1 1402.86   51.59
  -1  -6  -1 2163.78   74.19
   1   6   1 2015.40   74.09
   1   6   1 2031.20   74.09
   1   6   1 2019.90   74.79
  -2  -6  -1  210.98    9.10
   2   6   1  222.68    9.70
   2   6   1  219.88    9.00
   2   6   1  211.68   11.00
   3   6   1    7.00    2.10
   3   6   1    8.10    3.30
   3   6   1    5.20    4.40
   3   6   1    9.40    2.60
   4   6   1   91.49    6.10
   4   6   1   96.09    7.60
   4   6   1   70.29    8.60
   5   6   1   80.39    6.60
   5   6   1   88.99    9.10
   5   6   1   72.79    8.90
  -6  -6  -1  174.68   15.60
   6   6   1  164.68    9.70
   6   6   1  166.18   11.80
  -7  -6  -1    8.00    9.10
   7   6   1    9.40    6.50
   7   6   1   10.20    5.00
  -8  -6  -1   42.00   10.60
   8   6   1   46.50    6.10
   8   6   1   36.50    8.20
  10  -7  -1   -0.60    7.20
 -10   7   1   -0.70    8.60
   9  -7  -1   14.80    6.80
  -9   7   1   13.90    7.70
   8  -7  -1   25.80    6.30
  -8   7   1   29.70    7.40
   7  -7  -1   91.29   11.10
  -7   7   1  101.69   10.90
   6  -7  -1   27.60    5.00
  -6   7   1   25.90    6.10
   5  -7  -1  267.27   12.50
  -5   7   1  241.38   13.50
   4  -7  -1  879.11   32.30
   4  -7  -1  889.21   33.10
  -4   7   1  867.21   32.60
  -4   7   1  806.22   33.40
   3  -7  -1  140.59    8.10
   2  -7  -1  161.68    8.60
   2  -7  -1  161.08    7.90
  -2   7   1  148.89   11.40
  -2   7   1  175.58    8.50
   1  -7  -1   14.50    3.10
  -1   7   1   21.10    2.30
  -1   7   1   16.50    5.80
  -1   7   1   20.50    3.10
   0  -7  -1   15.80    3.50
   0   7   1   11.80    8.50
   0   7   1    9.00    2.40
   0   7   1    9.70    2.50
  -1  -7  -1  224.98    9.50
   1   7   1  201.38    9.40
   1   7   1  203.18    9.10
   1   7   1  198.38   11.60
  -2  -7  -1   93.49    6.60
   2   7   1   82.79    6.80
   2   7   1   91.29    8.70
   2   7   1   84.19    5.60
  -3  -7  -1  135.09    7.60
   3   7   1  138.09    7.20
   3   7   1  143.39   10.30
   3   7   1  142.79    9.00
   4   7   1   -0.10    4.50
   4   7   1   -1.30    5.40
   4   7   1    9.40    5.00
   5   7   1   22.10    5.70
   5   7   1   22.70    6.20
  -6  -7  -1   36.30   10.40
   6   7   1   33.00    7.30
   6   7   1   33.70    6.50
  -7  -7  -1   -8.80   10.00
   7   7   1    0.50    6.70
   9  -8  -1   68.79    8.90
  -9   8   1   63.39   10.00
   8  -8  -1  132.19   12.20
  -8   8   1  162.28   14.00
   7  -8  -1  130.29   11.30
  -7   8   1  138.49   13.20
   6  -8  -1  211.08   11.70
  -6   8   1  183.88   13.40
   5  -8  -1   57.49    7.60
  -5   8   1   38.80    6.90
   4  -8  -1  120.79    8.00
  -4   8   1  122.69   11.10
   3  -8  -1   39.90    5.10
  -3   8   1   31.80    6.10
   2  -8  -1   69.89    5.60
  -2   8   1   49.60    6.70
  -1   8   1   30.40    4.10
  -1   8   1   22.30    5.80
   0   8   1   85.99    5.70
   0   8   1   79.49    9.70
   1   8   1  247.98   13.90
   1   8   1  256.87   11.20
   2   8   1  282.97   15.20
   2   8   1  303.47   13.30
   3   8   1   98.49   14.20
   3   8   1   94.99   10.90
   4   8   1  331.27   15.70
   4   8   1  304.57   17.00
   5   8   1  259.57   14.40
   5   8   1  258.67   15.50
  -6  -8  -1   33.30   11.50
   6   8   1   53.49    7.40
   6   8   1   52.29    8.60
   8  -9  -1   -8.50    6.40
  -8   9   1    2.60    8.30
   7  -9  -1   11.60    6.30
  -7   9   1    5.50    8.00
   6  -9  -1    9.50    8.70
  -6   9   1    7.50    7.50
  -5   9   1   32.60    7.80
  -4   9   1   -1.50    6.60
  -3   9   1   19.50    6.70
  -2   9   1   10.20    6.60
  -1   9   1   75.49   11.10
   0   9   1  292.87   16.00
   1   9   1  288.07   12.40
   1   9   1  264.77   16.00
   2   9   1    4.60    6.70
   2   9   1    3.80    5.30
   3   9   1   14.50    5.20
   3   9   1   22.50    7.10
   4   9   1   87.49    9.90
   4   9   1   70.39    9.10
   5   9   1   29.80    6.60
   5   9   1   29.30    8.20
  -7  10   1   15.00    9.50
  -6  10   1   12.10    9.00
  -5  10   1  121.29   14.90
  -4  10   1  133.99   14.80
  -3  10   1  146.59   14.40
  -2  10   1  129.69   14.50
  -1  10   1    5.30    7.60
   0  10   1   59.49    8.70
   1  10   1   49.50    9.80
   2  10   1   10.80    8.00
   3  10   1   -2.20    8.30
  -2  11   1   18.70    9.50
   0  12  -2   33.50    8.90
  -1  12  -2   48.70    8.90
  -2  12  -2  106.69   14.10
  -3  12  -2   16.10    8.50
  -4  12  -2    8.90    8.60
   3  11  -2   96.99   10.50
   3  11  -2   75.89    9.70
   2  11  -2   98.49   10.00
   2  11  -2  102.99   13.60
   1  11  -2    3.80    7.50
   1  11  -2    5.60    4.60
   0  11  -2   66.99    8.40
   0  11  -2   55.39    8.10
  -1  11  -2  178.98   13.30
  -1  11  -2  151.08   13.40
  -2  11  -2  148.29   12.80
  -3  11  -2   26.80    7.40
  -4  11  -2   -8.10    7.00
  -5  11  -2    5.50    7.30
  -6  11  -2   25.40    8.10
  -7  11  -2   -2.50    8.20
   5  10  -2    4.80    6.70
   5  10  -2    3.90    8.00
  -5 -10   2   16.10   12.00
   4  10  -2   68.79    8.90
   4  10  -2   90.59   10.90
   3  10  -2  202.38   12.50
   3  10  -2  190.88   14.30
   2  10  -2  276.97   14.10
   2  10  -2  273.57   15.60
   1  10  -2    7.80    7.30
   1  10  -2    8.40    6.10
   0  10  -2    3.10    5.80
   0  10  -2    9.60    3.80
  -1  10  -2   26.80    3.90
  -1  10  -2   19.50    6.00
  -2  10  -2   69.39   10.20
  -2  10  -2   94.69    6.40
  -3  10  -2    0.20    6.00
  -4  10  -2   93.79   11.00
  -5  10  -2  196.68   13.70
  -6  10  -2  102.79   11.30
  -7  10  -2    7.00    7.30
  -8  10  -2   29.70    8.00
   7   9  -2   32.80    9.00
  -7  -9   2   33.30   12.80
   6   9  -2  103.19   13.10
  -6  -9   2   88.19   12.40
   5   9  -2   93.99   12.50
   5   9  -2   91.99   11.50
  -5  -9   2   72.79   11.40
   4   9  -2    8.00    6.30
   4   9  -2   13.00    5.70
   3   9  -2  213.08   12.30
   3   9  -2  215.58   13.40
   2   9  -2   45.90    6.50
   1   9  -2   58.59    9.00
   1   9  -2   69.99    6.90
   0   9  -2  190.88   11.50
   0   9  -2  197.18    9.90
  -1   9  -2  187.18    9.00
  -1   9  -2  179.08   11.10
  -2   9  -2   46.20    6.20
  -2   9  -2   63.79    5.40
  -3   9  -2    4.80    5.30
  -4   9  -2  110.79    6.60
  -4   9  -2  108.99   10.10
  -5   9  -2  374.66   17.70
  -5   9  -2  406.56   15.50
  -6   9  -2  105.19   10.40
   6  -9   2  111.09    8.30
  -7   9  -2   31.20    6.70
   7  -9   2   42.90    5.90
  -8   9  -2    2.20    6.30
   8  -9   2    5.00    5.90
  -9   9  -2   36.20    7.80
   9  -9   2   40.20    7.30
 -10   9  -2   -2.00    7.80
  10  -9   2   -2.50    9.10
   8   8  -2   15.40    8.70
  -8  -8   2   25.00   12.00
   7   8  -2  106.09   13.70
  -7  -8   2   76.29   12.40
   6   8  -2   33.90    7.10
  -6  -8   2   39.30   10.10
   5   8  -2   19.00    6.50
   5   8  -2   11.60    5.90
  -5  -8   2    8.90    9.00
   4   8  -2  200.08   12.70
   4   8  -2  231.48   12.40
   3   8  -2  722.33   28.80
   3   8  -2  721.13   28.60
   2   8  -2  104.59    9.30
   2   8  -2  119.59    7.30
   2   8  -2  135.89    8.40
   1   8  -2   12.60    3.50
   1   8  -2    9.40    3.60
   1   8  -2    7.40    6.50
  -1  -8   2    2.10    3.10
   0   8  -2  479.35   18.80
   0   8  -2  476.65   18.00
   0   8  -2  478.95   18.70
   0  -8   2  383.16   18.70
  -1   8  -2 1465.45   54.59
  -1   8  -2 1515.15   55.09
   1  -8   2 1514.75   54.99
  -2   8  -2  922.11   35.40
  -2   8  -2  954.30   36.10
  -2   8  -2  965.10   35.90
   2  -8   2  990.50   36.20
  -3   8  -2  340.57   13.90
  -3   8  -2  282.47   12.80
  -3   8  -2  319.67   14.40
   3  -8   2  332.87   14.50
  -4   8  -2  179.68   10.10
  -4   8  -2  168.98    8.40
  -4   8  -2  191.48   10.10
   4  -8   2  172.98   10.90
   4  -8   2  188.18    8.40
  -5   8  -2  485.65   18.50
  -5   8  -2  461.05   19.80
   5  -8   2  478.75   18.80
   5  -8   2  493.25   21.00
  -6   8  -2   79.99    5.90
   6  -8   2   64.59    9.10
   6  -8   2   69.29    7.10
  -7   8  -2   -0.80    3.40
  -7   8  -2    7.90    5.20
   7  -8   2    5.80    4.40
  -8   8  -2  227.78   13.60
  -8   8  -2  247.18   11.00
   8  -8   2  224.98   13.20
  -9   8  -2   91.49   11.20
   9  -8   2  108.59   11.40
 -10   8  -2   19.90    7.60
  10  -8   2   23.50    7.50
   9   7  -2    4.90    8.90
  -9  -7   2   -9.30   11.60
   8   7  -2   47.40    8.80
  -8  -7   2   44.30   11.50
   7   7  -2  189.28   14.50
  -7  -7   2  183.78   17.60
   6   7  -2   74.89   10.30
  -6  -7   2   62.59    9.40
   5   7  -2    6.50    4.90
   5   7  -2   -1.10    3.10
  -5  -7   2    4.10    7.50
   4   7  -2  511.35   19.90
   4   7  -2  525.95   21.10
   4   7  -2  470.15   20.60
   3   7  -2 1249.88   46.80
   3   7  -2 1264.57   46.30
   3   7  -2 1262.97   46.70
   2   7  -2  214.38   10.00
   2   7  -2  197.48   10.20
   2   7  -2  206.38    9.50
  -2  -7   2  186.58    9.50
   1   7  -2   50.79    5.30
   1   7  -2   46.00    5.10
   1   7  -2   51.49    6.10
  -1  -7   2   45.60    5.80
   0   7  -2  127.49    8.00
   0   7  -2  111.49    7.30
   0  -7   2  120.29    7.20
  -1   7  -2  335.67   14.00
  -1   7  -2  315.27   13.50
  -1   7  -2  346.97   13.80
   1  -7   2  343.57   14.00
  -2   7  -2    3.60    3.30
  -2   7  -2    5.60    2.60
  -2   7  -2    5.10    2.30
   2  -7   2    0.30    2.90
  -3   7  -2  231.18   10.40
  -3   7  -2  234.68   10.40
  -3   7  -2  208.48    9.40
   3  -7   2  227.38   12.20
  -4   7  -2 1110.49   40.70
  -4   7  -2 1054.39   39.80
  -4   7  -2 1074.09   40.50
   4  -7   2 1116.19   41.50
   4  -7   2 1106.69   39.80
  -5   7  -2  494.45   21.40
  -5   7  -2  478.95   19.40
  -5   7  -2  483.75   18.50
   5  -7   2  482.05   20.30
   5  -7   2  480.85   18.80
  -6   7  -2  102.09    8.00
  -6   7  -2  102.99    6.10
  -6   7  -2   86.99    9.50
   6  -7   2   76.69    9.20
   6  -7   2  104.39    7.40
  -7   7  -2  140.79   11.40
  -7   7  -2  134.39    8.00
  -7   7  -2  149.69    9.60
   7  -7   2  152.88    9.50
   7  -7   2  139.49   11.50
  -8   7  -2  108.39    7.90
  -8   7  -2  121.59   10.20
  -8   7  -2  119.59   13.20
   8  -7   2  121.39   10.30
  -9   7  -2   33.80    6.70
  -9   7  -2   17.00    4.70
   9  -7   2   31.30    6.70
 -10   7  -2    0.20    4.90
 -10   7  -2    8.40    6.90
  10  -7   2    4.50    7.20
 -11   7  -2    8.50    7.70
 -11   7  -2    4.60    6.40
  11  -7   2   10.30    8.30
   9   6  -2    7.10    5.40
   9   6  -2    0.70    7.70
  -9  -6   2    0.60   14.10
   8   6  -2  183.68   14.40
   8   6  -2  163.18   11.00
  -8  -6   2  153.68   17.40
   7   6  -2  623.84   26.40
   7   6  -2  632.94   24.60
  -7  -6   2  625.14   27.90
   6   6  -2  277.67   11.90
   6   6  -2  269.37   14.20
  -6  -6   2  267.87   16.40
   5   6  -2    3.50    3.00
   5   6  -2   -2.30    2.40
   5   6  -2    7.10    7.20
  -5  -6   2    2.50    7.80
   4   6  -2  614.84   23.20
   4   6  -2  592.64   23.10
   4   6  -2  594.14   22.80
  -4  -6   2  546.95   22.60
   3   6  -2  890.31   33.30
   3   6  -2  907.51   33.20
   3   6  -2  893.41   33.30
  -3  -6   2  864.41   32.90
   2   6  -2  107.99    6.60
   2   6  -2  112.59    7.00
   2   6  -2  114.89    6.90
  -2  -6   2  133.49    6.50
   1   6  -2  949.80   34.70
   1   6  -2  922.41   34.60
   1   6  -2  925.51   34.60
  -1  -6   2  948.81   34.50
   0   6  -2 2129.59   77.79
   0   6  -2 2215.98   77.89
   0   6  -2 2077.29   77.89
   0   6  -2 2075.39   81.09
   0  -6   2 2292.17   77.99
  -1   6  -2  616.24   22.20
  -1   6  -2  584.44   25.30
  -1   6  -2  539.45   21.90
  -1   6  -2  593.24   22.20
  -1   6  -2  572.94   22.10
   1  -6   2  603.94   22.30
  -2   6  -2  189.48    8.60
  -2   6  -2  186.68    8.60
  -2   6  -2  184.38   12.20
  -2   6  -2  191.48    8.50
  -2   6  -2  171.08    8.00
   2  -6   2  188.78    8.90
  -3   6  -2  167.38   12.30
  -3   6  -2  195.88    9.00
  -3   6  -2  198.88    8.70
  -3   6  -2  194.68    8.10
  -3   6  -2  179.48    8.80
   3  -6   2  192.68    9.20
  -4   6  -2  438.96   17.00
  -4   6  -2  432.26   17.30
  -4   6  -2  427.16   20.00
  -4   6  -2  443.86   16.50
  -4   6  -2  425.46   17.40
   4  -6   2  431.76   17.60
   4  -6   2  428.56   16.60
  -5   6  -2 1148.99   43.00
  -5   6  -2 1190.78   45.40
  -5   6  -2 1168.28   43.40
  -5   6  -2 1170.08   42.50
   5  -6   2 1176.38   43.70
   5  -6   2 1154.58   42.80
  -6   6  -2 1135.49   42.80
  -6   6  -2 1176.48   44.60
  -6   6  -2 1131.69   42.60
  -6   6  -2 1143.69   41.80
   6  -6   2 1146.79   42.60
   6  -6   2 1143.99   43.30
  -7   6  -2    2.70    4.00
  -7   6  -2    3.40    4.10
  -7   6  -2    8.10    5.60
  -7   6  -2    7.60    3.20
   7  -6   2   -2.50    4.50
   7  -6   2    3.90    4.10
  -8   6  -2    7.80    4.70
  -8   6  -2    2.80    5.80
  -8   6  -2   -1.30    4.60
  -8   6  -2   -2.30    3.60
   8  -6   2   -4.20    4.90
  -9   6  -2   83.49   10.20
  -9   6  -2   61.69    7.80
   9  -6   2   77.19   10.60
 -10   6  -2  105.89   11.80
 -10   6  -2   81.29    9.20
  10  -6   2   87.49   12.10
 -11   6  -2   11.70    5.60
 -11   6  -2   27.90    7.70
  11  -6   2   22.50    8.20
  10   5  -2    3.50    6.20
  10   5  -2   -2.40    8.30
 -10  -5   2   18.60   11.50
   9   5  -2    1.00    5.30
   9   5  -2    4.40    6.80
  -9  -5   2   20.50    9.80
   8   5  -2  149.29   10.00
   8   5  -2  138.09   12.30
  -8  -5   2  117.49   14.80
   7   5  -2  193.78   12.40
   7   5  -2  198.28   10.30
   7   5  -2  198.48   14.90
  -7  -5   2  191.78   14.80
   6   5  -2   26.60    3.60
   6   5  -2   29.50    4.20
   6   5  -2   24.90    6.30
   6   5  -2   23.90    6.00
  -6  -5   2   32.90   10.80
   5   5  -2  618.24   22.50
   5   5  -2  591.04   26.00
   5   5  -2  590.84   23.50
   5   5  -2  628.84   23.50
  -5  -5   2  531.85   22.60
  -5  -5   2  622.64   25.80
   4   5  -2 1486.95   56.69
   4   5  -2 1477.05   55.09
   4   5  -2 1547.05   57.49
   4   5  -2 1584.04   54.39
  -4  -5   2 1410.66   54.59
  -4  -5   2 1524.85   55.59
   3   5  -2   75.09    6.30
   3   5  -2   79.29    5.70
   3   5  -2   77.59    5.40
  -3  -5   2   79.49    5.20
   2   5  -2   60.19    4.40
   2   5  -2   56.19    4.80
   2   5  -2   56.79    8.30
   2   5  -2   59.19    4.30
   2   5  -2   67.39    4.80
  -2  -5   2   61.29    4.50
   1   5  -2 1221.08   46.00
   1   5  -2 1272.97   45.90
   1   5  -2 1302.77   45.80
   1   5  -2 1251.87   48.20
  -1  -5   2 1266.97   46.00
   0   5  -2 3528.55  130.99
   0   5  -2 3595.24  129.09
   0   5  -2 3725.23  128.99
   0   5  -2 3528.55  128.89
   0  -5   2 3625.44  129.09
  -1   5  -2  921.11   34.00
  -1   5  -2  918.11   36.00
  -1   5  -2  980.00   33.90
  -1   5  -2  890.91   33.80
  -1   5  -2  880.01   33.80
   1  -5   2  962.00   34.10
  -2   5  -2  507.05   19.70
  -2   5  -2  509.55   21.90
  -2   5  -2  550.24   19.60
  -2   5  -2  526.35   19.50
  -2   5  -2  521.65   19.90
   2  -5   2  529.95   20.20
  -3   5  -2   12.80    2.20
  -3   5  -2   16.00    2.10
  -3   5  -2   13.30    2.50
  -3   5  -2   13.40    2.40
  -3   5  -2    6.30    3.70
   3  -5   2   13.70    2.70
  -4   5  -2  100.29    8.50
  -4   5  -2  104.59    6.30
  -4   5  -2  107.69    6.40
  -4   5  -2  105.19    5.30
  -4   5  -2  103.79    5.70
   4  -5   2  104.29    6.60
   4  -5   2  108.49    5.60
  -5   5  -2  143.39    9.80
  -5   5  -2  153.98    7.90
  -5   5  -2  143.09    6.70
  -5   5  -2  146.79    7.30
   5  -5   2  138.99    7.30
   5  -5   2  135.49    8.20
  -6   5  -2  534.75   21.40
  -6   5  -2  561.94   21.10
  -6   5  -2  531.25   20.60
  -6   5  -2  557.74   22.80
   6  -5   2  540.05   21.90
   6  -5   2  535.15   21.20
  -7   5  -2  334.77   14.20
  -7   5  -2  328.07   14.70
  -7   5  -2  336.97   15.90
  -7   5  -2  315.67   14.20
   7  -5   2  326.07   16.10
   7  -5   2  329.87   14.60
  -8   5  -2  675.53   25.50
  -8   5  -2  638.84   24.80
  -8   5  -2  649.93   25.80
   8  -5   2  612.54   28.90
  -9   5  -2  146.39   10.30
  -9   5  -2  115.39    9.30
   9  -5   2  117.99   11.40
 -10   5  -2    5.80    5.30
 -10   5  -2    4.90    6.00
  10  -5   2   11.10    6.70
 -11   5  -2   24.80    7.10
 -11   5  -2   19.80    6.20
  11  -5   2   23.90    8.20
 -12   5  -2   70.99    9.40
 -12   5  -2   66.89    7.90
  12  -5   2   76.99   10.80
  11   4  -2   20.50    9.20
  11   4  -2   15.30    7.20
 -11  -4   2   29.10   12.10
  10   4  -2   11.70    6.30
  10   4  -2    4.30    7.50
 -10  -4   2   19.10   10.00
   9   4  -2   38.70    7.00
   9   4  -2   47.90    6.40
  -9  -4   2   40.60    9.60
   8   4  -2  304.17   14.50
   8   4  -2  312.37   15.70
  -8  -4   2  287.27   17.80
   7   4  -2  284.57   14.00
   7   4  -2  298.07   12.80
   7   4  -2  258.97   15.00
   7   4  -2  281.77   15.00
  -7  -4   2  270.17   15.80
  -7  -4   2  267.37   12.50
   6   4  -2   43.90    5.60
   6   4  -2   46.60    6.60
   6   4  -2   42.50    4.60
   6   4  -2   36.00    5.40
  -6  -4   2   42.50    6.30
  -6  -4   2   40.80    5.00
   5   4  -2  562.34   21.60
   5   4  -2  558.74   21.00
   5   4  -2  548.65   23.40
   5   4  -2  567.74   21.90
  -5  -4   2  546.85   22.20
  -5  -4   2  540.45   21.10
   4   4  -2 1394.96   53.09
   4   4  -2 1478.75   51.59
   4   4  -2 1403.66   51.39
   4   4  -2 1366.66   51.49
   4   4  -2 1460.65   50.89
  -4  -4   2 1340.67   51.09
  -4  -4   2 1407.66   51.69
   3   4  -2 2032.10   73.49
   3   4  -2 2015.90   73.29
   3   4  -2 2034.90   74.99
   3   4  -2 2016.70   73.09
   3   4  -2 2028.70   73.39
  -3  -4   2 2039.30   73.29
  -3  -4   2 2052.99   73.59
   2   4  -2 2647.83   97.29
   2   4  -2 2720.03   95.59
   2   4  -2 2686.83   95.69
   2   4  -2 2652.33   95.49
  -2  -4   2 2608.74   95.69
   1   4  -2    7.10    1.50
   1   4  -2    9.90    2.00
   1   4  -2    6.00    1.80
   1   4  -2    2.70    2.90
  -1  -4   2    5.40    1.60
   0   4  -2  733.03   25.70
   0   4  -2  681.33   25.60
   0   4  -2  688.03   25.70
   0   4  -2  673.63   27.30
   0  -4   2  688.53   25.50
   0  -4   2  712.33   25.70
  -1   4  -2 1796.82   64.89
  -1   4  -2 1762.02   66.29
  -1   4  -2 1734.23   64.79
   1  -4   2 1855.61   67.99
   1  -4   2 1838.92   64.99
   1  -4   2 1815.02   64.79
  -2   4  -2   10.60    1.80
  -2   4  -2   10.50    1.70
  -2   4  -2   12.60    3.00
   2  -4   2   11.40    1.90
   2  -4   2   10.50    3.50
   2  -4   2   16.80    2.70
  -3   4  -2  450.95   16.90
  -3   4  -2  430.46   16.80
  -3   4  -2  439.56   18.20
  -3   4  -2  450.55   16.40
   3  -4   2  442.56   17.00
   3  -4   2  422.66   18.60
   3  -4   2  447.16   16.70
  -4   4  -2  967.00   37.00
  -4   4  -2 1002.70   35.60
  -4   4  -2  981.80   35.50
  -4   4  -2  944.61   35.90
   4  -4   2  995.60   35.70
   4  -4   2 1005.10   35.80
   4  -4   2  968.30   37.40
   4  -4   2  957.10   36.10
  -5   4  -2 1817.92   63.79
  -5   4  -2 1763.72   64.09
  -5   4  -2 1776.22   64.79
  -5   4  -2 1756.72   63.59
   5  -4   2 1740.73   63.89
   5  -4   2 1702.23   64.29
   5  -4   2 1798.82   65.39
   5  -4   2 1765.72   63.89
  -6   4  -2   89.39    6.50
  -6   4  -2   80.19    8.40
  -6   4  -2   98.19    5.90
  -6   4  -2   86.69    5.60
   6  -4   2   74.89    6.20
   6  -4   2   87.39    5.90
   6  -4   2   79.09    7.00
   6  -4   2   88.29    8.50
  -7   4  -2  193.58    9.50
  -7   4  -2  207.68   10.70
  -7   4  -2  213.98   10.00
   7  -4   2  185.08   10.50
  -8   4  -2  943.41   34.80
  -8   4  -2  891.11   35.20
  -8   4  -2  926.61   34.50
   8  -4   2  920.81   34.70
  -9   4  -2  211.38   15.80
  -9   4  -2  234.38   12.30
   9  -4   2  205.28   13.10
 -10   4  -2   34.90    6.80
 -10   4  -2   33.60    6.00
  10  -4   2   18.40    6.90
 -11   4  -2    8.80    7.10
 -11   4  -2   -0.80    6.30
  11  -4   2   10.10    7.50
 -12   4  -2   33.90    8.90
 -12   4  -2   27.10    7.40
  12  -4   2   30.70    9.80
  11   3  -2   54.59    8.30
  11   3  -2   45.40    8.90
 -11  -3   2   38.80   11.50
  10   3  -2   14.70    6.40
  10   3  -2   19.60    7.30
 -10  -3   2   20.80    9.90
   9   3  -2  201.78   12.60
   9   3  -2  178.38   12.80
  -9  -3   2  184.78   16.40
   8   3  -2  734.33   29.00
   8   3  -2  734.73   28.60
  -8  -3   2  718.33   31.00
   7   3  -2  875.11   33.60
   7   3  -2  841.02   32.90
   7   3  -2  857.81   32.60
  -7  -3   2  875.51   33.90
  -7  -3   2  859.11   33.90
   6   3  -2  157.18   10.00
   6   3  -2  161.48    8.40
   6   3  -2  170.68    9.00
  -6  -3   2  175.38   11.40
  -6  -3   2  168.78    8.20
  -6  -3   2  152.28   10.50
   5   3  -2 1091.99   41.60
   5   3  -2 1071.99   40.80
   5   3  -2 1118.89   40.20
   5   3  -2 1033.20   41.30
  -5  -3   2 1084.69   41.30
  -5  -3   2 1068.49   40.30
  -5  -3   2 1222.58   42.10
   4   3  -2  618.84   24.80
   4   3  -2  611.54   23.50
   4   3  -2  645.94   23.20
   4   3  -2  612.54   23.40
  -4  -3   2  608.04   23.80
  -4  -3   2  589.84   23.40
  -4  -3   2  685.83   25.20
   3   3  -2  175.38    7.60
   3   3  -2  170.28    7.40
   3   3  -2  166.78    9.20
  -3  -3   2  187.08    9.60
  -3  -3   2  170.68    7.60
  -3  -3   2  169.98    8.10
   2   3  -2   18.20    2.50
   2   3  -2   12.30    2.90
   2   3  -2   15.30    2.00
   2   3  -2   22.00    2.90
  -2  -3   2   20.00    2.80
  -2  -3   2   18.10    2.60
  -2  -3   2   14.10    3.10
  -2  -3   2   17.40    2.50
   1   3  -2 3189.58  117.19
   1   3  -2 3157.88  115.89
   1   3  -2 3217.68  116.19
  -1  -3   2 3150.38  115.89
  -1  -3   2 3507.65  117.29
  -1  -3   2 3223.48  115.99
   0   3  -2 4937.21  177.08
   0   3  -2 4882.11  178.18
   0   3  -2 4869.01  176.98
   0  -3   2 5099.09  177.08
   0  -3   2 5087.69  178.18
   0  -3   2 4871.81  176.98
  -1   3  -2  481.75   17.30
  -1   3  -2  462.65   17.20
  -1   3  -2  456.95   18.40
   1  -3   2  460.25   18.60
   1  -3   2  453.85   17.40
   1  -3   2  473.05   17.20
  -2   3  -2   24.10    2.60
  -2   3  -2   23.40    2.50
  -2   3  -2   22.50    4.20
   2  -3   2   24.60    2.80
   2  -3   2   23.90    2.40
   2  -3   2   25.40    4.50
  -3   3  -2 2814.72  102.99
  -3   3  -2 2831.52  102.29
  -3   3  -2 2865.21  102.29
   3  -3   2 2950.80  103.29
   3  -3   2 2844.82  102.49
   3  -3   2 2810.02  102.19
  -4   3  -2 2059.89   74.69
  -4   3  -2 2091.09   73.89
  -4   3  -2 1985.80   74.09
   4  -3   2 2056.39   74.29
   4  -3   2 2091.49   75.09
   4  -3   2 2016.30   74.09
   4  -3   2 2102.39   74.09
  -5   3  -2 2536.55   88.39
  -5   3  -2 2455.05   88.89
  -5   3  -2 2452.45   88.29
   5  -3   2 2381.96   88.39
   5  -3   2 2432.96   88.79
   5  -3   2 2522.35   89.49
   5  -3   2 2438.16   88.59
  -6   3  -2  109.29    6.70
  -6   3  -2  105.39    6.30
   6  -3   2   98.59    6.90
   6  -3   2   87.89    6.40
   6  -3   2  103.19    5.80
   6  -3   2   94.69    6.70
  -7   3  -2  130.29    7.70
  -7   3  -2  134.29    7.90
   7  -3   2  120.89    8.10
   7  -3   2  126.19    7.50
   7  -3   2  136.59    8.50
  -8   3  -2  387.86   15.80
  -8   3  -2  364.16   16.10
   8  -3   2  366.96   16.40
   8  -3   2  367.16   15.50
  -9   3  -2   33.10    5.90
   9  -3   2   31.70    6.00
   9  -3   2   26.00    5.90
 -10   3  -2  -10.70    6.30
  10  -3   2    3.60    6.10
  10  -3   2   -0.60    6.20
 -11   3  -2   27.90    7.60
  11  -3   2   26.00    7.70
  11  -3   2   25.30    7.60
 -12   3  -2   49.70    8.90
  12  -3   2   27.30    9.50
  12  -3   2   35.80    9.10
  11   2  -2   51.89    8.60
  11   2  -2   45.30    8.30
 -11  -2   2   47.00    9.90
  10   2  -2   21.40    6.80
  10   2  -2   25.40    6.60
 -10  -2   2   28.50    9.20
   9   2  -2  102.99   10.50
   9   2  -2  105.99   10.50
  -9  -2   2  105.59   13.50
   8   2  -2  198.88   10.50
   8   2  -2  177.68   10.80
   8   2  -2  173.18   15.00
  -8  -2   2  168.78   15.80
   7   2  -2   62.29    6.80
   7   2  -2   64.79    6.80
   7   2  -2   55.19    6.90
  -7  -2   2   55.69    6.00
  -7  -2   2   57.79    6.70
   6   2  -2   51.59    5.60
   6   2  -2   53.69    6.30
   6   2  -2   59.49    6.00
   6   2  -2   65.89    5.60
  -6  -2   2   52.19    5.90
  -6  -2   2   63.09    5.40
   5   2  -2  641.64   24.20
   5   2  -2  620.24   24.70
   5   2  -2  659.03   24.30
   5   2  -2  628.54   23.90
   5   2  -2  628.24   23.80
  -5  -2   2  630.94   24.50
  -5  -2   2  649.64   25.20
  -5  -2   2  614.64   23.80
   4   2  -2 3235.28  116.69
   4   2  -2 3244.18  116.59
   4   2  -2 3221.58  117.59
   4   2  -2 3293.77  117.09
   4   2  -2 3232.08  116.89
  -4  -2   2 3181.08  116.79
  -4  -2   2 3222.98  116.99
  -4  -2   2 3410.26  117.79
   3   2  -2  998.80   37.30
   3   2  -2 1016.60   38.00
   3   2  -2 1025.80   37.00
   3   2  -2  998.00   37.00
  -3  -2   2  991.90   37.20
  -3  -2   2 1025.70   37.20
  -3  -2   2 1070.69   38.20
  -3  -2   2 1006.70   37.20
   2   2  -2 4805.92  172.38
   2   2  -2 4909.41  173.28
   2   2  -2 4629.74  172.18
  -2  -2   2 5182.48  173.28
  -2  -2   2 4712.63  172.18
  -2  -2   2 4681.73  172.28
   1   2  -2  854.71   31.50
   1   2  -2  860.21   31.30
   1   2  -2  889.41   32.50
  -1  -2   2  906.81   32.50
  -1  -2   2  835.72   31.30
  -1  -2   2  850.91   31.40
   0   2  -2 7592.34  275.07
   0  -2   2 7816.62  275.97
  -1   2  -2 3370.36  119.99
  -1   2  -2 3358.66  120.89
  -1   2  -2 3276.37  119.99
   1  -2   2 3286.77  119.99
   1  -2   2 3576.34  121.09
   1  -2   2 3288.57  119.99
  -2   2  -2 1676.13   62.59
  -2   2  -2 1773.82   62.69
  -2   2  -2 1758.72   63.39
   2  -2   2 1843.62   63.69
   2  -2   2 1734.73   62.69
   2  -2   2 1689.93   62.59
  -3   2  -2   90.49    4.40
  -3   2  -2   97.89    5.30
  -3   2  -2   82.89    4.50
   3  -2   2   84.09    4.20
   3  -2   2   90.19    4.80
   3  -2   2   90.19    4.50
   3  -2   2   94.19    5.90
  -4   2  -2 3477.35  127.89
  -4   2  -2 3593.24  128.09
   4  -2   2 3488.05  127.99
   4  -2   2 3758.92  128.79
   4  -2   2 3587.44  128.09
   4  -2   2 3584.44  127.99
   4  -2   2 3521.75  127.79
  -5   2  -2  631.04   23.30
  -5   2  -2  581.34   23.40
   5  -2   2  623.54   23.40
   5  -2   2  626.04   23.20
   5  -2   2  656.93   23.60
   5  -2   2  627.14   23.50
  -6   2  -2   31.80    3.90
  -6   2  -2   32.90    4.40
   6  -2   2   31.50    5.10
   6  -2   2   32.00    3.80
   6  -2   2   36.10    5.10
  -7   2  -2  442.76   17.00
  -7   2  -2  401.56   17.50
   7  -2   2  427.26   17.60
   7  -2   2  424.76   17.60
   7  -2   2  441.56   16.80
  -8   2  -2  359.06   14.90
  -8   2  -2  358.26   15.70
   8  -2   2  346.27   15.70
   8  -2   2  371.36   14.60
   8  -2   2  301.17   20.60
  -9   2  -2  199.38   12.30
   9  -2   2  198.88   12.80
   9  -2   2  210.28   13.20
 -10   2  -2   -2.60    6.50
  10  -2   2   -0.90    6.00
  10  -2   2    0.40    6.30
 -11   2  -2   39.90    7.80
  11  -2   2   30.20    7.90
  11  -2   2   33.50    8.00
 -12   2  -2   46.20    9.40
  12  -2   2   49.20    9.50
  12  -2   2   51.99    9.10
  12   1  -2   50.19    9.00
  12   1  -2   33.70   10.30
 -12  -1   2   43.40   10.40
  11   1  -2   49.50    8.50
  11   1  -2   39.90    7.80
 -11  -1   2   53.79    9.30
  10   1  -2   39.30    6.90
  10   1  -2   41.10    7.20
 -10  -1   2   45.90    8.30
   9   1  -2  229.68   13.30
   9   1  -2  215.88   12.60
  -9  -1   2  202.48   14.50
   8   1  -2  237.78   11.60
   8   1  -2  219.98   12.10
   8   1  -2  239.38   11.60
  -8  -1   2  212.98   14.60
   7   1  -2  239.28   10.90
   7   1  -2  221.68   11.00
   7   1  -2  215.18   10.60
  -7  -1   2  225.98   10.70
  -7  -1   2  216.08   12.90
   6   1  -2   74.39    6.40
   6   1  -2   80.69    5.70
   6   1  -2   82.79    6.10
   6   1  -2   89.89    6.10
  -6  -1   2   70.89    7.80
  -6  -1   2   73.69    5.80
   5   1  -2  351.66   14.00
   5   1  -2  349.37   14.40
   5   1  -2  340.67   13.70
   5   1  -2  352.96   14.20
   5   1  -2  345.27   14.80
  -5  -1   2  344.47   14.90
  -5  -1   2  350.36   13.90
  -5  -1   2  371.36   15.00
   4   1  -2 4807.22  168.68
   4   1  -2 4677.53  168.38
   4   1  -2 4666.43  169.38
   4   1  -2 4615.04  168.28
   4   1  -2 4667.63  168.68
  -4  -1   2 4834.72  168.78
  -4  -1   2 4633.14  168.48
  -4  -1   2 4757.02  169.38
   3   1  -2 8936.01  325.47
   3   1  -2 9036.80  326.47
   3   1  -2 9297.17  325.57
  -3  -1   2 8618.84  325.37
  -3  -1   2 9446.46  325.67
  -3  -1   2 9577.94  326.47
  -3  -1   2 8942.71  325.47
   2   1  -2 1160.18   42.40
   2   1  -2 1196.48   43.60
   2   1  -2 1158.58   42.30
  -2  -1   2 1111.39   42.60
  -2  -1   2 1214.58   43.50
  -2  -1   2 1158.78   42.30
   1   1  -2 3654.43  130.59
   1   1  -2 3555.34  129.29
   1   1  -2 3506.25  129.19
  -1  -1   2 3843.02  130.39
  -1  -1   2 3514.25  129.19
   0   1  -2 2019.10   85.09
   0   1  -2 2514.75   85.29
   0   1  -2 2554.94   86.69
   0  -1   2 2157.08   85.19
   0  -1   2 2748.63   86.69
   0  -1   2 2303.37   85.39
  -1   1  -2   45.60    4.10
  -1   1  -2   36.80    2.10
  -1   1  -2   40.60    2.00
   1  -1   2   43.70    2.10
   1  -1   2   35.90    4.00
  -2   1  -2  242.88    9.10
  -2   1  -2  240.98    9.00
  -2   1  -2  234.38   10.40
   2  -1   2  237.68    9.10
   2  -1   2  247.08   10.60
  -3   1  -2  170.18    7.00
  -3   1  -2  170.58    6.80
  -3   1  -2  170.28    8.00
   3  -1   2  175.08    8.10
   3  -1   2  175.98    7.00
   3  -1   2  178.28    7.30
   3  -1   2  177.78    7.20
  -4   1  -2 2624.44   91.49
   4  -1   2 2541.85   91.39
   4  -1   2 2620.64   91.49
   4  -1   2 2656.43   91.49
   4  -1   2 2294.17   91.19
  -5   1  -2  666.43   25.40
  -5   1  -2  683.63   24.60
   5  -1   2  676.23   24.90
   5  -1   2  656.63   24.60
   5  -1   2  653.13   25.00
  -6   1  -2  207.18    8.60
  -6   1  -2  185.38   10.20
   6  -1   2  204.18    9.50
   6  -1   2  193.78    9.40
   6  -1   2  196.88    8.60
  -7   1  -2  877.91   31.90
  -7   1  -2  854.71   33.10
   7  -1   2  869.81   31.90
   7  -1   2  858.51   32.70
   7  -1   2  844.12   32.60
  -8   1  -2  232.18   10.80
  -8   1  -2  240.78   13.30
   8  -1   2  241.98   14.40
   8  -1   2  255.67   11.70
  -9   1  -2  242.08   14.80
   9  -1   2  252.67   14.20
   9  -1   2  261.77   14.20
 -10   1  -2   -5.60    7.30
  10  -1   2    8.10    6.40
  10  -1   2   11.00    6.50
 -11   1  -2   62.09    9.20
  11  -1   2   46.30    8.30
  11  -1   2   43.80    8.10
 -12   1  -2   26.90    8.90
  12  -1   2   24.20    9.00
  12  -1   2   15.40    9.20
  12   0  -2   25.40    8.20
  12   0  -2   29.80   10.20
 -12   0   2   49.70    9.40
  11   0  -2    1.60    7.70
  11   0  -2   -3.40    6.50
 -11   0   2   15.70    7.90
  10   0  -2   39.70    7.30
  10   0  -2   51.69    7.70
 -10   0   2   59.69    8.20
   9   0  -2  459.85   21.10
  -9   0   2  481.85   21.60
   8   0  -2  609.04   24.20
   8   0  -2  644.84   24.40
   8   0  -2  600.24   24.90
  -8   0   2  610.24   25.50
  -8   0   2  608.54   24.80
   7   0  -2  208.08   10.70
   7   0  -2  224.88   10.30
   7   0  -2  203.88    9.90
  -7   0   2  204.28   11.80
  -7   0   2  208.08   10.50
   6   0  -2    4.20    2.60
   6   0  -2    6.10    3.00
   6   0  -2    3.20    3.00
   6   0  -2    0.50    2.40
  -6   0   2    0.70    4.10
  -6   0   2    1.80    2.60
   5   0  -2  197.08    8.90
   5   0  -2  205.48   10.60
   5   0  -2  187.78    9.10
   5   0  -2  193.08    8.40
   5   0  -2  197.18    8.80
  -5   0   2  202.98    8.90
  -5   0   2  197.68    9.30
  -5   0   2  197.38    9.60
   4   0  -2 2399.96   87.79
   4   0  -2 2389.26   86.39
   4   0  -2 2369.16   86.49
   4   0  -2 2426.56   86.39
  -4   0   2 2395.36   86.49
  -4   0   2 2452.35   86.59
  -4   0   2 2377.56   86.89
  -4   0   2 2382.06   86.29
   3   0  -2   98.19    6.60
   3   0  -2   91.39    4.90
   3   0  -2   84.69    5.10
   3   0  -2   95.79    4.80
  -3   0   2   92.69    4.80
  -3   0   2   89.99    5.80
  -3   0   2   91.79    4.70
  -3   0   2   79.69    5.70
   2   0  -2  292.67   11.10
   2   0  -2  287.27   12.40
  -2   0   2  275.07   11.10
  -2   0   2  294.67   12.10
  -2   0   2  282.97   11.00
   1   0  -2 6019.10  211.68
   1   0  -2 6182.38  210.58
   1   0  -2 5766.02  210.48
  -1   0   2 6166.78  210.58
  -1   0   2 5374.86  210.78
   0   0  -2  518.25   18.10
   0   0  -2  499.65   19.40
   0   0  -2  494.85   18.10
   0   0   2  523.65   19.30
   0   0   2  494.65   18.10
   0   0   2  437.96   18.10
  -1   0  -2 2540.85   92.99
   1   0   2 2665.23   92.79
   1   0   2 2404.16   91.79
   1   0   2 2657.93   91.79
  -2   0  -2  583.24   23.60
   2   0   2  647.84   23.10
   2   0   2  619.44   22.20
   2   0   2  609.54   22.20
  -3   0  -2 2933.51  107.39
  -3   0  -2 2852.21  108.69
   3   0   2 2898.51  107.49
   3   0   2 3123.39  107.89
   3   0   2 3190.38  107.89
   3   0   2 3070.19  108.09
   3   0   2 3014.20  107.59
  -4   0  -2 7183.28  270.87
  -4   0  -2 7421.76  269.77
  -4   0  -2 8034.80  270.47
   4   0   2 7276.07  269.77
   4   0   2 7579.64  270.17
   4   0   2 7901.51  270.27
   4   0   2 7579.04  269.97
  -5   0  -2 4006.80  142.49
  -5   0  -2 4177.08  143.39
   5   0   2 3993.80  143.09
   5   0   2 3915.71  142.79
   5   0   2 3928.21  142.59
   5   0   2 3915.21  142.99
  -6   0  -2   19.10    4.60
  -6   0  -2   25.40    3.70
   6   0   2   23.30    3.60
   6   0   2   29.20    3.80
   6   0   2   29.30    3.90
  -7   0  -2  608.34   22.00
  -7   0  -2  589.74   23.80
   7   0   2  597.14   22.20
   7   0   2  555.24   23.10
   7   0   2  573.74   23.10
  -8   0  -2  552.14   23.40
   8   0   2  523.25   22.70
   8   0   2  525.75   22.30
   8   0   2  557.44   21.10
  -9   0  -2  101.29   13.00
   9   0   2  119.19   11.00
   9   0   2  106.79   10.60
 -10   0  -2   20.90    8.50
  10   0   2   19.80    7.10
  10   0   2   24.60    6.60
 -11   0  -2  111.59   14.40
  11   0   2   83.19    9.60
  11   0   2  112.99   14.90
  12  -1  -2   34.30   10.30
  12  -1  -2   44.70    8.10
 -12   1   2   49.70    9.60
  11  -1  -2   17.10    6.90
  11  -1  -2   25.30    8.20
 -11   1   2   31.20    8.20
  10  -1  -2    6.00    6.70
  10  -1  -2    7.00    5.80
 -10   1   2   14.60    6.90
   9  -1  -2   97.59    9.10
   9  -1  -2  118.09   10.70
  -9   1   2  111.69   11.10
   8  -1  -2  159.08   10.00
   8  -1  -2  143.99    8.90
   8  -1  -2  135.49   12.50
  -8   1   2  144.29    9.60
  -8   1   2  125.79   10.80
   7  -1  -2    2.70    3.80
   7  -1  -2    2.10    3.80
   7  -1  -2   -0.90    3.10
   7  -1  -2   14.10    3.30
  -7   1   2    2.70    4.50
   6  -1  -2   80.09    6.40
   6  -1  -2   71.89    6.00
   6  -1  -2   68.19    6.70
   6  -1  -2   78.09    5.20
   6  -1  -2   75.39    7.30
  -6   1   2   74.89    7.10
  -6   1   2   82.89    6.20
   5  -1  -2  410.36   16.20
   5  -1  -2  386.06   17.20
   5  -1  -2  392.46   16.40
   5  -1  -2  409.26   16.00
   5  -1  -2  423.66   15.60
   5  -1  -2  421.56   17.60
  -5   1   2  404.46   16.40
  -5   1   2  421.46   16.10
   4  -1  -2 1357.96   50.99
   4  -1  -2 1396.26   49.80
   4  -1  -2 1340.67   50.09
   4  -1  -2 1311.17   49.90
  -4   1   2 1398.86   49.90
  -4   1   2 1497.25   50.59
  -4   1   2 1380.36   49.99
  -4   1   2 1296.07   49.99
   3  -1  -2  293.57   11.60
   3  -1  -2  286.77   12.60
   3  -1  -2  263.07   11.60
   3  -1  -2  295.67   11.70
  -3   1   2  305.17   11.60
  -3   1   2  293.67   11.60
  -3   1   2  292.37   11.70
  -3   1   2  322.17   12.60
   2  -1  -2 3656.73  131.69
   2  -1  -2 3713.03  130.79
   2  -1  -2 3549.15  130.79
  -2   1   2 3845.12  131.69
  -2   1   2 3603.44  130.79
  -2   1   2 3570.44  130.79
   1  -1  -2 2210.98   83.09
   1  -1  -2 2319.37   84.09
   1  -1  -2 2336.67   83.19
  -1   1   2 2342.57   83.19
  -1   1   2 2401.16   84.09
   0  -1  -2 3290.77  119.59
   0  -1  -2 3233.18  119.59
   0  -1  -2 3390.06  120.79
   0   1   2 3506.85  120.79
   0   1   2 3323.47  119.69
  -1  -1  -2 2945.51  109.19
  -1  -1  -2 2928.51  108.89
   1   1   2 3183.08  108.89
  -2  -1  -2  736.23   27.80
  -2  -1  -2  735.53   28.20
  -3  -1  -2 4807.42  181.98
  -3  -1  -2 5273.37  182.28
   3   1   2 5220.78  181.28
   3   1   2 4990.30  181.28
  -4  -1  -2 1471.45   52.89
  -4  -1  -2 1433.26   53.69
  -4  -1  -2 1541.15   53.59
   4   1   2 1453.75   52.29
   4   1   2 1468.05   52.79
   4   1   2 1437.76   52.39
   4   1   2 1388.26   52.79
  -5  -1  -2   78.89    6.40
  -5  -1  -2   50.19    6.10
  -5  -1  -2   56.19    6.70
   5   1   2   64.99    4.00
   5   1   2   64.69    5.60
   5   1   2   64.39    5.40
  -6  -1  -2 1807.62   64.89
   6   1   2 1780.02   64.69
   6   1   2 1723.53   64.69
   6   1   2 1792.82   64.09
  -7  -1  -2  363.76   16.30
   7   1   2  334.87   15.20
   7   1   2  347.27   15.60
   7   1   2  347.67   14.10
  -8  -1  -2   59.89    7.80
   8   1   2   44.90    6.10
   8   1   2   61.09    5.60
   8   1   2   56.09    8.30
  -9  -1  -2   27.20    8.70
   9   1   2   20.90    5.90
   9   1   2   19.30    6.10
 -10  -1  -2   33.70    9.60
  10   1   2   20.30    7.30
  10   1   2   25.00    6.90
 -11  -1  -2   78.19   11.60
  11   1   2   47.70    8.70
  11   1   2   63.09    9.70
  12  -2  -2   -7.60    7.30
  12  -2  -2    4.10    9.70
 -12   2   2    8.80    9.00
  11  -2  -2   -2.70    6.30
  11  -2  -2    2.90    7.70
 -11   2   2    4.60    8.00
  10  -2  -2   11.30    7.00
 -10   2   2   24.30    7.40
   9  -2  -2  194.68   11.30
   9  -2  -2  190.28   13.30
  -9   2   2  208.38   13.70
   8  -2  -2  287.07   13.50
   8  -2  -2  294.47   14.30
   8  -2  -2  280.97   19.60
  -8   2   2  288.37   15.30
  -8   2   2  301.77   14.20
   7  -2  -2  101.39    8.10
   7  -2  -2   92.29    6.40
   7  -2  -2  108.79    9.10
   7  -2  -2   97.29    9.30
   7  -2  -2  101.69    8.70
  -7   2   2   89.19    8.00
  -7   2   2   87.69    8.80
   6  -2  -2  121.69    8.90
   6  -2  -2  116.49    9.90
   6  -2  -2  127.99    6.40
   6  -2  -2  123.49    8.20
   6  -2  -2  125.19    7.70
  -6   2   2  110.29    7.50
  -6   2   2  105.49    8.00
   5  -2  -2 4805.52  174.88
   5  -2  -2 4946.10  175.18
   5  -2  -2 4823.52  175.68
   5  -2  -2 4886.61  176.28
  -5   2   2 4743.63  174.98
  -5   2   2 5063.09  174.88
   4  -2  -2 3205.18  115.49
   4  -2  -2 3137.59  115.99
   4  -2  -2 3068.69  115.19
   4  -2  -2 3199.88  116.89
  -4   2   2 3213.58  115.19
  -4   2   2 3304.97  115.19
  -4   2   2 3316.27  115.29
   3  -2  -2 2137.39   77.09
   3  -2  -2 2008.90   76.09
   3  -2  -2 2129.69   76.19
   3  -2  -2 2064.69   77.89
  -3   2   2 2120.19   76.09
  -3   2   2 2176.48   76.39
  -3   2   2 2156.18   76.09
   2  -2  -2  393.76   16.40
   2  -2  -2  400.56   16.60
   2  -2  -2  433.96   17.00
   2  -2  -2  411.66   18.10
   2  -2  -2  429.96   15.80
  -2   2   2  434.76   15.70
   1  -2  -2  623.24   24.30
   1  -2  -2  655.73   23.00
   1  -2  -2  617.64   23.10
   1  -2  -2  602.94   25.20
  -1   2   2  628.24   23.00
  -1   2   2  649.14   23.40
  -1   2   2  628.24   23.00
   0  -2  -2 1854.01   68.49
   0  -2  -2 1883.21   69.29
   0   2   2 1884.11   67.09
   0   2   2 1885.71   67.09
  -1  -2  -2   95.89    6.20
  -1  -2  -2   89.09    7.50
   1   2   2  103.69    5.30
  -2  -2  -2   13.60    3.80
  -2  -2  -2   12.50    2.70
   2   2   2   17.40    2.20
   2   2   2   15.90    2.20
   2   2   2   12.90    2.00
  -3  -2  -2 2032.50   75.79
  -3  -2  -2 2099.99   76.29
   3   2   2 2115.59   74.69
   3   2   2 2094.19   74.59
   3   2   2 2034.90   74.69
  -4  -2  -2 2194.58   77.39
  -4  -2  -2 2127.39   76.89
   4   2   2 2046.10   75.59
   4   2   2 2092.59   75.69
   4   2   2 2034.90   75.69
  -5  -2  -2   32.50    6.50
  -5  -2  -2   32.50    4.70
  -5  -2  -2   37.90    7.60
   5   2   2   36.80    5.00
   5   2   2   29.00    3.60
   5   2   2   32.20    3.90
  -6  -2  -2  195.68   11.60
  -6  -2  -2  215.18   11.50
  -6  -2  -2  201.38   11.30
   6   2   2  200.08   10.10
   6   2   2  204.88    8.90
   6   2   2  195.18   10.50
  -7  -2  -2  291.67   16.90
   7   2   2  298.97   12.20
   7   2   2  284.17   13.50
   7   2   2  273.97   13.90
  -8  -2  -2  169.38   16.50
   8   2   2  166.98   11.80
   8   2   2  167.78   11.20
  -9  -2  -2   37.20   10.00
   9   2   2   23.50    6.60
   9   2   2   19.40    6.20
 -10  -2  -2   31.50    9.90
  10   2   2   17.30    8.90
  10   2   2   18.20    7.00
 -11  -2  -2   20.70   11.10
  11   2   2    4.70    8.90
  11   2   2    1.70    7.50
  12  -3  -2   -1.40    9.40
  12  -3  -2    2.60    7.60
 -12   3   2    9.80    9.30
  11  -3  -2   27.90    7.00
  11  -3  -2   23.00    8.80
 -11   3   2   30.30    8.70
  10  -3  -2   52.99    8.20
  10  -3  -2   56.99    6.40
 -10   3   2   65.89    8.70
   9  -3  -2  148.89    9.50
   9  -3  -2  129.19   12.20
  -9   3   2  124.89   18.10
  -9   3   2  130.29   12.30
   8  -3  -2  440.86   19.60
   8  -3  -2  403.26   16.90
   8  -3  -2  413.66   19.50
   8  -3  -2  397.56   18.40
  -8   3   2  411.86   18.40
  -8   3   2  399.36   19.00
   7  -3  -2  175.78   10.60
   7  -3  -2  176.28    8.60
   7  -3  -2  190.58   11.30
   7  -3  -2  186.18   11.50
  -7   3   2  187.48   10.50
  -7   3   2  167.68   10.60
   6  -3  -2   13.50    3.80
   6  -3  -2   14.60    3.90
  -6   3   2   13.30    3.60
  -6   3   2   18.40    4.20
   5  -3  -2 1577.14   59.29
   5  -3  -2 1620.24   58.59
   5  -3  -2 1551.74   58.29
  -5   3   2 1558.44   58.49
  -5   3   2 1610.64   58.29
  -5   3   2 1662.43   58.29
   4  -3  -2  590.84   23.30
   4  -3  -2  619.74   23.70
   4  -3  -2  624.44   24.60
  -4   3   2  609.04   23.40
  -4   3   2  623.54   23.30
  -4   3   2  627.44   23.40
   3  -3  -2 2580.34   90.69
   3  -3  -2 2432.26   90.49
   3  -3  -2 2491.75   91.69
  -3   3   2 2524.55   90.49
  -3   3   2 2525.95   90.69
  -3   3   2 2534.85   90.59
   2  -3  -2 1018.60   36.40
   2  -3  -2  972.90   37.70
   2  -3  -2  991.20   36.40
  -2   3   2  993.00   36.30
  -2   3   2 1001.40   36.40
   1  -3  -2  328.07   13.10
   1  -3  -2  326.17   14.40
   1  -3  -2  342.17   12.50
  -1   3   2  332.97   12.80
  -1   3   2  334.87   12.50
  -1   3   2  306.17   12.90
   0  -3  -2  171.58    9.30
   0   3   2  170.98    6.90
   0   3   2  173.28    6.80
   0   3   2  174.38    7.50
  -1  -3  -2   -0.80    2.70
   1   3   2    4.70    2.10
   1   3   2   -2.10    2.50
  -2  -3  -2 2066.19   79.39
   2   3   2 2202.58   78.09
   2   3   2 2260.07   77.99
   2   3   2 2143.89   77.89
  -3  -3  -2 1526.85   57.79
   3   3   2 1551.64   56.39
   3   3   2 1542.35   56.29
   3   3   2 1600.34   56.29
  -4  -3  -2 1329.47   49.99
   4   3   2 1338.77   48.50
   4   3   2 1329.37   48.70
   4   3   2 1317.97   48.60
  -5  -3  -2    0.80    4.90
  -5  -3  -2   -0.80    3.80
   5   3   2    4.20    3.10
   5   3   2   -1.30    3.30
  -6  -3  -2    9.00    4.70
  -6  -3  -2   13.80    5.90
   6   3   2   18.00    3.90
   6   3   2   14.30    4.40
   6   3   2   10.90    2.70
  -7  -3  -2  293.27   17.20
  -7  -3  -2  378.76   18.00
   7   3   2  355.66   15.70
   7   3   2  361.96   14.70
   7   3   2  360.36   16.30
  -8  -3  -2  103.29   13.60
   8   3   2  100.09    9.80
   8   3   2  109.99   11.20
  -9  -3  -2   -3.30    8.80
   9   3   2    2.90    5.60
   9   3   2   -4.30    6.80
 -10  -3  -2   53.39   11.20
  10   3   2   31.50    7.30
  10   3   2   25.00    8.90
  11  -4  -2  -10.50    8.30
 -11   4   2   -1.60    7.80
  10  -4  -2    6.50    7.50
 -10   4   2    5.40    7.40
   9  -4  -2    8.70    6.30
  -9   4   2    8.20    6.60
   8  -4  -2   53.09    6.60
   8  -4  -2   44.40    6.70
   8  -4  -2   60.79   10.70
  -8   4   2   46.20    6.30
  -8   4   2   47.10    6.90
   7  -4  -2   55.09    8.70
   7  -4  -2   42.80    5.50
   7  -4  -2   47.00    9.30
  -7   4   2   60.69    4.60
  -7   4   2   54.59    6.90
  -7   4   2   36.80    5.40
   6  -4  -2  263.87   12.80
   6  -4  -2  251.07   13.90
   6  -4  -2  244.68   12.30
  -6   4   2  253.77   12.50
  -6   4   2  261.57   12.60
   5  -4  -2  667.93   26.30
   5  -4  -2  675.73   27.40
  -5   4   2  673.13   25.70
  -5   4   2  674.93   26.10
  -5   4   2  678.93   26.00
   4  -4  -2  840.62   32.60
   4  -4  -2  794.42   30.90
   4  -4  -2  850.91   31.20
  -4   4   2  804.12   31.10
  -4   4   2  827.32   31.00
  -4   4   2  846.72   30.90
   3  -4  -2  685.33   26.70
   3  -4  -2  718.63   28.50
   3  -4  -2  743.53   27.00
  -3   4   2  711.63   26.80
  -3   4   2  724.43   26.70
  -3   4   2  712.63   27.00
   2  -4  -2  296.67   13.00
   2  -4  -2  312.47   12.20
   2  -4  -2  305.87   14.40
  -2   4   2  294.17   12.40
  -2   4   2  302.37   12.10
  -2   4   2  301.97   12.00
   1  -4  -2 2079.79   76.59
   1  -4  -2 2061.79   74.59
   1  -4  -2 2109.09   74.49
  -1   4   2 2079.89   74.49
  -1   4   2 2051.09   74.89
  -1   4   2 2055.59   74.49
   0  -4  -2 2391.56   89.19
   0  -4  -2 2535.65   87.09
   0   4   2 2413.46   86.99
   0   4   2 2467.45   87.59
   0   4   2 2350.06   86.99
   0   4   2 2414.96   89.99
  -1  -4  -2  931.31   36.90
  -1  -4  -2  962.50   34.50
   1   4   2  890.01   34.20
   1   4   2  955.20   34.50
   1   4   2  998.30   34.80
   1   4   2  936.51   37.80
   1   4   2  972.10   35.10
  -2  -4  -2  113.09    9.30
   2   4   2  106.09    6.70
   2   4   2  126.69    6.10
   2   4   2  112.09    5.90
  -3  -4  -2  979.60   38.90
   3   4   2 1000.10   36.90
   3   4   2  982.90   36.70
   3   4   2 1026.60   36.70
  -4  -4  -2   99.99   10.10
   4   4   2  104.69    7.30
   4   4   2   98.89    7.10
   4   4   2  105.09    6.50
   5   4   2   -0.10    3.90
   5   4   2   -4.60    3.70
   5   4   2   -2.30    3.10
  -6  -4  -2   28.00    8.70
  -6  -4  -2   19.50    6.70
   6   4   2   30.30    5.20
   6   4   2   34.20    4.50
  -7  -4  -2  275.87   16.40
   7   4   2  278.37   14.40
   7   4   2  217.88   18.70
  -8  -4  -2   76.99    9.80
   8   4   2   83.69   11.90
   8   4   2   78.59    9.90
  -9  -4  -2  -11.60    9.40
   9   4   2   -4.20    7.70
   9   4   2    5.30    6.10
 -10  -4  -2   33.40   11.70
  10   4   2   32.80    9.90
  10   4   2   32.70    7.30
  11  -5  -2   11.30    8.50
 -11   5   2  -13.20    8.40
  10  -5  -2   20.50    7.70
 -10   5   2   17.40    7.90
   9  -5  -2  105.19   11.60
  -9   5   2  101.79   12.10
   8  -5  -2  138.09   11.50
  -8   5   2  135.69   11.70
   7  -5  -2    1.80    8.50
   7  -5  -2    1.50    4.60
  -7   5   2    6.50    5.50
   6  -5  -2  858.41   33.10
   6  -5  -2  889.61   33.60
  -6   5   2  800.12   34.40
  -6   5   2  887.71   33.00
   5  -5  -2 1653.23   66.09
   5  -5  -2 1729.43   63.49
  -5   5   2 1704.43   63.69
  -5   5   2 1847.62   63.49
   4  -5  -2  386.36   16.30
   4  -5  -2  406.46   16.80
  -4   5   2  416.56   16.20
  -4   5   2  394.76   16.80
   3  -5  -2    3.50    2.80
   3  -5  -2    0.00    2.70
  -3   5   2    2.00    3.50
   2  -5  -2   20.30    3.20
   2  -5  -2   17.50    2.80
  -2   5   2   21.60    2.80
  -2   5   2   24.30    3.70
   1  -5  -2  199.58    8.30
   1  -5  -2  180.98    8.70
  -1   5   2  187.28    9.30
  -1   5   2  192.58    8.30
   0  -5  -2  857.81   31.10
   0   5   2  837.52   31.80
   0   5   2  848.72   31.00
  -1  -5  -2   79.29    5.20
   1   5   2   72.99    4.80
   1   5   2   71.59    6.40
   1   5   2   81.79    4.50
   2   5   2  908.21   34.10
   2   5   2  915.41   34.70
   2   5   2  958.30   34.20
   3   5   2  628.54   24.80
   3   5   2  653.93   24.20
   3   5   2  632.04   24.20
   4   5   2    3.80    3.70
   4   5   2    8.90    3.20
   4   5   2    5.80    4.30
   5   5   2    8.30    4.90
   5   5   2   18.20    3.80
   5   5   2   14.00    7.30
  -6  -5  -2  231.58   16.00
   6   5   2  231.68   13.10
   6   5   2  236.18   11.80
  -7  -5  -2  171.48   15.20
   7   5   2  134.39   12.00
   7   5   2  141.59   10.20
  -8  -5  -2   61.19   10.70
   8   5   2   64.49    8.20
   8   5   2   68.79    9.60
  -9  -5  -2    2.30   10.60
   9   5   2    8.40    8.70
   9   5   2   10.20    6.10
  11  -6  -2   -7.90    8.90
 -11   6   2   -1.70    9.40
  10  -6  -2   73.59    9.00
 -10   6   2  115.09   14.60
   9  -6  -2   84.79   12.20
  -9   6   2   90.59   12.90
   8  -6  -2  100.99   11.30
  -8   6   2   98.59   11.70
   7  -6  -2    7.00    5.50
  -7   6   2   16.80    6.30
   6  -6  -2  181.58   11.00
  -6   6   2  170.28   12.00
   5  -6  -2  457.05   19.20
   5  -6  -2  472.75   19.90
  -5   6   2  486.05   18.90
  -5   6   2  448.76   19.90
   4  -6  -2   78.09    7.50
   4  -6  -2   79.59    6.90
  -4   6   2   89.29    6.50
  -4   6   2   72.69    9.40
   3  -6  -2   20.50    3.30
   3  -6  -2   27.40    3.70
  -3   6   2   29.80    4.90
  -3   6   2   21.40    2.70
   2  -6  -2  432.86   17.30
   2  -6  -2  444.06   17.50
  -2   6   2  444.16   18.00
  -2   6   2  435.86   18.20
   1  -6  -2  150.68    7.90
  -1   6   2  129.69    9.20
  -1   6   2  152.88    7.40
   0  -6  -2  104.69    6.50
   0   6   2  112.29    5.50
   0   6   2  102.69    5.90
   0   6   2   95.59    8.10
  -1  -6  -2   -0.70    3.00
   1   6   2    5.60    4.20
   1   6   2    2.60    2.10
   1   6   2    4.30    2.50
  -2  -6  -2 1339.07   47.00
   2   6   2 1284.57   47.10
   2   6   2 1248.68   48.60
   3   6   2  759.52   28.80
   3   6   2  735.73   29.60
   3   6   2  790.22   28.70
   4   6   2   35.40    5.70
   4   6   2   36.20    5.00
   4   6   2   40.10    5.90
   5   6   2    6.40    3.90
   5   6   2    9.00    5.00
   5   6   2    8.30    5.50
  -6  -6  -2   75.79   10.30
   6   6   2   72.09   10.40
   6   6   2   58.29    6.90
   6   6   2   67.09    8.20
  -7  -6  -2   33.70   10.10
   7   6   2   52.39    5.90
   7   6   2   39.80    7.20
  -8  -6  -2   31.50   11.20
   8   6   2   33.60    8.00
   8   6   2   20.00    5.80
  10  -7  -2   14.90    8.50
 -10   7   2   -8.10    9.10
   9  -7  -2   29.70    7.70
  -9   7   2   22.70    8.90
   8  -7  -2    9.70    6.50
  -8   7   2    9.80    7.70
   7  -7  -2    6.60    5.70
  -7   7   2    4.30    6.90
   6  -7  -2  126.29   10.40
  -6   7   2  117.49   11.50
   5  -7  -2  164.68   10.30
  -5   7   2  155.68   11.90
   4  -7  -2   16.00    4.30
  -4   7   2   14.40    5.70
   3  -7  -2  130.19    8.20
  -3   7   2  124.59   10.10
   2  -7  -2  464.95   18.90
  -2   7   2  477.05   20.50
  -2   7   2  496.35   19.00
   1  -7  -2  617.24   24.40
  -1   7   2  659.13   24.30
  -1   7   2  645.94   25.90
   0  -7  -2   25.80    3.60
   0   7   2   15.70    2.80
   0   7   2   16.00    5.40
   0   7   2   21.90    2.70
  -1  -7  -2    2.30    3.20
   1   7   2    1.80    5.00
   1   7   2    5.10    2.90
   1   7   2    2.10    2.50
  -2  -7  -2   17.70    3.50
   2   7   2   22.60    5.60
   2   7   2   21.70    3.80
   3   7   2   11.80    4.00
   3   7   2   15.80    5.70
   4   7   2   23.70    5.10
   4   7   2   29.80    6.20
   5   7   2    6.80    5.40
   5   7   2   15.60    6.50
  -6  -7  -2   35.60   10.20
   6   7   2   26.20    7.20
   6   7   2   35.70    7.00
  -7  -7  -2   13.40   10.80
   7   7   2   38.50    7.90
   9  -8  -2   18.70    7.80
  -9   8   2   29.60   10.00
   8  -8  -2   -2.90    6.70
  -8   8   2    2.40    9.80
   7  -8  -2   91.79   11.90
  -7   8   2   94.49   13.00
   6  -8  -2  458.65   20.40
  -6   8   2  456.25   22.10
   5  -8  -2  107.59    9.70
  -5   8   2  100.79   12.00
   4  -8  -2  103.79    8.80
  -4   8   2  115.29   11.40
   3  -8  -2    7.90    6.00
  -3   8   2   10.00    6.10
   2  -8  -2   45.10    5.80
  -2   8   2   49.80    7.40
  -1   8   2   99.39   10.70
   0   8   2   24.20    6.10
   1   8   2   37.40    4.00
   1   8   2   37.60    6.40
   2   8   2   28.90    5.20
   2   8   2   27.50    6.50
   3   8   2   35.70    7.00
   3   8   2   34.00    5.30
   4   8   2  145.49   12.60
   4   8   2  128.69   10.50
   5   8   2   12.00    7.40
   5   8   2    7.90    6.00
   7  -9  -2   -8.50    6.50
  -7   9   2   15.80    9.30
   6  -9  -2   13.40    6.80
  -6   9   2   20.60    9.00
  -5   9   2   -3.40    7.60
  -4   9   2   -6.10    7.00
  -3   9   2    0.10    7.10
  -2   9   2   29.50    7.60
  -1   9   2   36.70    7.80
   0   9   2   10.60    6.90
   1   9   2  117.39   12.80
   2   9   2   68.39    9.00
   3   9   2  136.09   14.00
   3   9   2  121.69   14.50
   4   9   2   10.60    8.10
   4   9   2   11.30    5.20
  -5  10   2   -6.00    9.10
  -4  10   2    3.60    8.80
  -3  10   2   43.30    9.70
  -2  10   2  104.19   15.40
  -1  10   2  152.48   15.60
   0  10   2   41.40    8.90
   1  10   2   14.10    8.40
   1  12  -3    6.00    5.00
   1  12  -3   14.00    8.00
   0  12  -3   23.70    8.00
   0  12  -3   16.80    4.90
  -1  12  -3    0.10    7.40
  -2  12  -3   27.60    8.20
  -3  12  -3  101.79   13.20
  -4  12  -3   98.29   13.70
  -5  12  -3   30.30    8.80
   4  11  -3   16.40    8.40
   4  11  -3   18.80    7.10
   3  11  -3    8.60    6.20
   3  11  -3   -2.40    7.70
   2  11  -3  114.69   10.40
   2  11  -3  107.39   13.00
   1  11  -3  273.17   14.20
   1  11  -3  281.47   16.10
   0  11  -3  121.99    9.30
   0  11  -3  105.19   12.00
  -1  11  -3    4.70    8.10
  -2  11  -3   54.09    5.20
  -3  11  -3  247.58   14.80
  -3  11  -3  252.77   13.30
  -4  11  -3  150.58   13.00
  -5  11  -3    5.80    7.00
  -6  11  -3    0.80    7.30
  -7  11  -3   -2.50    7.40
   6  10  -3   50.19    9.00
  -6 -10   3   45.70   13.40
   5  10  -3   24.00    7.40
  -5 -10   3   18.00   11.40
   4  10  -3   47.90    7.20
   4  10  -3   50.69    7.90
   3  10  -3    3.30    6.50
   3  10  -3    6.00    5.40
   2  10  -3   77.79   10.70
   2  10  -3   90.99    9.20
   1  10  -3  377.26   16.80
   1  10  -3  376.66   17.60
   0  10  -3  302.07   15.20
   0  10  -3  303.07   14.00
  -1  10  -3   22.60    4.20
  -1  10  -3   15.50    5.60
  -2  10  -3   17.60    5.60
  -2  10  -3   17.40    4.00
  -3  10  -3   45.90    6.10
  -3  10  -3   31.60    6.20
  -4  10  -3   48.30    6.70
  -4  10  -3   52.69    6.20
  -5  10  -3   54.99    6.20
  -5  10  -3   32.10    6.70
  -6  10  -3   69.29   10.40
  -7  10  -3   58.19    7.70
  -8  10  -3   85.29   11.80
   8 -10   3   83.39   10.80
  -9  10  -3    2.00    7.30
   9 -10   3   -3.90    6.70
   7   9  -3  -13.90    8.10
  -7  -9   3   -8.70   11.10
   6   9  -3   61.79    8.30
  -6  -9   3   48.30   11.90
   5   9  -3   90.49   11.50
  -5  -9   3   79.29   11.10
   4   9  -3  291.87   15.70
   4   9  -3  285.27   15.20
   3   9  -3   79.19   10.00
   3   9  -3   85.79    9.10
   2   9  -3   21.20    8.20
   2   9  -3   23.60    5.70
   1   9  -3  181.08   10.10
   1   9  -3  177.08   11.10
   0   9  -3  103.89    7.50
   0   9  -3   83.89    8.50
  -1   9  -3  122.89    7.90
  -1   9  -3  124.99   12.50
  -2   9  -3  327.37   17.50
  -2   9  -3  333.87   14.10
  -3   9  -3  311.77   13.50
  -3   9  -3  324.17   16.30
  -4   9  -3  124.89   15.50
  -4   9  -3  131.69    7.80
  -5   9  -3   29.40    6.40
  -5   9  -3   36.10    4.10
   5  -9   3   27.70    3.60
  -6   9  -3   49.40    6.30
  -6   9  -3   45.80    6.50
   6  -9   3   49.30    7.00
  -7   9  -3  264.97   11.90
  -7   9  -3  225.88   13.70
   7  -9   3  242.58   12.70
  -8   9  -3   51.89    5.80
  -8   9  -3   63.29    9.80
   8  -9   3   61.69    6.80
  -9   9  -3   -0.90    6.30
   9  -9   3    0.40    6.20
 -10   9  -3    2.60    7.20
  10  -9   3    6.50    7.20
   8   8  -3   11.50    9.00
  -8  -8   3    6.60   11.80
   7   8  -3   -3.10    7.20
  -7  -8   3   -1.70   10.20
   6   8  -3   33.80    7.10
  -6  -8   3   22.80    9.80
   5   8  -3  100.49   10.50
  -5  -8   3   82.89   11.30
   4   8  -3  138.29   10.80
   4   8  -3  142.49   10.50
   3   8  -3   66.19    8.60
   3   8  -3   68.69    9.30
  -3  -8   3   72.29    7.70
   2   8  -3  933.81   36.10
   2   8  -3  972.60   35.90
  -2  -8   3  959.90   36.50
   1   8  -3  981.00   35.20
   1   8  -3 1033.20   35.40
  -1  -8   3  793.02   34.70
   0   8  -3  198.88   10.60
   0   8  -3  236.78   10.50
   0   8  -3  192.88   10.20
   0  -8   3  215.08   10.50
  -1   8  -3  164.98    9.20
  -1   8  -3  195.18    9.50
  -1   8  -3  186.08    9.80
   1  -8   3  187.78    9.90
  -2   8  -3  376.96   17.70
  -2   8  -3  476.25   18.40
  -2   8  -3  480.45   18.40
   2  -8   3  468.05   18.70
  -3   8  -3  719.93   28.70
  -3   8  -3  777.72   29.30
  -3   8  -3  782.02   29.50
   3  -8   3  785.32   29.80
  -4   8  -3  834.62   31.90
  -4   8  -3  840.22   32.40
   4  -8   3  857.71   33.20
   4  -8   3  894.31   31.60
  -5   8  -3  130.79    8.00
  -5   8  -3  138.89    9.10
   5  -8   3  142.19    7.90
   5  -8   3  158.98   10.60
  -6   8  -3  102.89    7.40
  -6   8  -3   98.79    8.40
   6  -8   3   95.29   10.20
   6  -8   3  107.69    7.70
  -7   8  -3  307.17   13.20
  -7   8  -3  266.37   14.10
   7  -8   3  302.67   17.40
   7  -8   3  295.57   13.80
  -8   8  -3   63.79    6.90
  -8   8  -3   63.79    5.90
   8  -8   3   67.39    9.40
  -9   8  -3   15.70    5.30
  -9   8  -3    6.40    6.10
   9  -8   3    6.00    6.20
 -10   8  -3   68.59    9.40
 -10   8  -3   60.89    7.60
  10  -8   3   52.09    8.10
   9   7  -3   15.10    9.00
  -9  -7   3   18.80   12.00
   8   7  -3    6.30    7.80
  -8  -7   3   19.40   10.70
   7   7  -3   29.50    7.20
  -7  -7   3   32.50    9.60
   6   7  -3  163.48    9.10
   6   7  -3  151.08   12.20
  -6  -7   3  162.68   14.50
   5   7  -3  396.26   15.00
   5   7  -3  374.16   17.40
  -5  -7   3  368.66   19.00
   4   7  -3  115.99    9.30
   4   7  -3  126.29   11.10
   4   7  -3  106.59    9.40
  -4  -7   3  123.39   13.10
  -4  -7   3  126.99    7.90
   3   7  -3    3.00    3.80
   3   7  -3    7.60    3.90
   3   7  -3    2.20    3.00
  -3  -7   3    3.70    2.80
   2   7  -3  841.32   33.50
   2   7  -3  921.61   33.70
   2   7  -3  896.61   33.80
  -2  -7   3  930.41   33.50
   1   7  -3 2086.89   79.49
   1   7  -3 2199.98   78.99
  -1  -7   3 2260.97   79.49
   0   7  -3  250.67   10.90
   0   7  -3  247.38   10.90
   0   7  -3  226.28   10.90
   0  -7   3  256.67   11.10
  -1   7  -3    6.90    2.90
  -1   7  -3   -4.30    2.40
  -1   7  -3    0.90    3.00
   1  -7   3   -1.40    2.90
  -2   7  -3  307.87   13.40
  -2   7  -3  312.97   13.60
  -2   7  -3  330.77   13.60
  -2   7  -3  333.97   13.40
   2  -7   3  330.17   14.20
  -3   7  -3  137.19    7.50
  -3   7  -3  151.88    8.30
  -3   7  -3  155.48    8.00
  -3   7  -3  160.88    8.40
   3  -7   3  152.48    8.80
  -4   7  -3   95.89    6.00
  -4   7  -3   94.99    7.20
  -4   7  -3   94.49    6.50
   4  -7   3   86.99    5.60
   4  -7   3   92.69    7.70
  -5   7  -3   -0.30    2.90
  -5   7  -3    1.30    3.40
  -5   7  -3    0.50    3.60
   5  -7   3   -1.80    3.70
   5  -7   3    1.20    3.00
  -6   7  -3 1069.79   41.20
  -6   7  -3 1098.29   40.20
  -6   7  -3 1081.69   40.60
   6  -7   3 1076.49   40.50
   6  -7   3 1134.59   41.70
  -7   7  -3  493.35   21.30
  -7   7  -3  492.05   20.40
  -7   7  -3  513.75   19.90
   7  -7   3  498.95   20.60
   7  -7   3  523.25   25.10
  -8   7  -3   38.10    4.80
  -8   7  -3   38.90    5.30
   8  -7   3   39.30    5.90
  -9   7  -3  104.09    9.50
  -9   7  -3  102.79   10.20
   9  -7   3  110.39   11.10
 -10   7  -3  112.09   10.10
 -10   7  -3  112.09   11.40
  10  -7   3  103.49   12.90
 -11   7  -3    1.60    5.60
 -11   7  -3    3.00    6.90
  11  -7   3   -1.50    8.10
  10   6  -3  130.39   11.50
  10   6  -3  117.19   16.50
 -10  -6   3  133.49   21.00
   9   6  -3   71.59    9.60
   9   6  -3   78.49    9.90
  -9  -6   3   64.29   12.40
   8   6  -3   -5.80    6.60
   8   6  -3   -6.60    4.60
  -8  -6   3    3.30    9.20
   7   6  -3   20.70    4.30
   7   6  -3   23.80    6.30
  -7  -6   3   34.70    8.70
   6   6  -3  333.07   16.00
   6   6  -3  332.77   14.00
  -6  -6   3  352.46   18.00
   5   6  -3 1323.17   44.50
   5   6  -3 1297.17   45.90
   5   6  -3 1154.18   46.90
  -5  -6   3 1180.68   44.90
  -5  -6   3 1128.29   50.49
   4   6  -3  390.56   16.70
   4   6  -3  379.06   16.40
  -4  -6   3  422.46   18.00
  -4  -6   3  399.56   16.00
   3   6  -3    6.20    3.40
   3   6  -3    3.60    3.40
   3   6  -3    4.00    2.40
  -3  -6   3    7.40    2.60
   2   6  -3  552.74   21.70
   2   6  -3  575.14   21.60
  -2  -6   3  562.04   21.60
   1   6  -3 1813.12   65.59
   1   6  -3 1785.52   65.79
   1   6  -3 1816.62   65.59
   1   6  -3 1839.12   65.79
   1   6  -3 1735.53   70.19
  -1  -6   3 1877.21   65.69
   0   6  -3   -0.10    4.60
   0   6  -3   -0.40    2.40
   0   6  -3    1.00    2.20
   0   6  -3    4.90    2.60
   0   6  -3    4.30    2.20
   0  -6   3    2.10    2.50
  -1   6  -3  870.01   31.10
  -1   6  -3  876.61   31.50
  -1   6  -3  859.91   31.30
  -1   6  -3  808.92   31.20
  -1   6  -3  812.32   34.10
   1  -6   3  840.72   31.70
  -2   6  -3 2672.83   96.29
  -2   6  -3 2771.02   96.29
  -2   6  -3 2602.74   98.79
  -2   6  -3 2671.93   96.69
  -2   6  -3 2635.54   96.49
   2  -6   3 2726.13   96.79
  -3   6  -3 1430.86   55.59
  -3   6  -3 1480.15   52.99
  -3   6  -3 1408.86   53.29
  -3   6  -3 1493.45   52.99
  -3   6  -3 1481.55   53.59
   3  -6   3 1470.85   53.59
   3  -6   3 1475.35   53.79
  -4   6  -3    6.00    2.80
  -4   6  -3   10.70    2.80
  -4   6  -3   10.10    2.70
  -4   6  -3    5.80    4.60
   4  -6   3    9.50    2.50
   4  -6   3    8.10    3.10
  -5   6  -3   25.50    3.60
  -5   6  -3   33.00    4.50
  -5   6  -3   26.10    5.40
  -5   6  -3   41.40    4.80
   5  -6   3   35.50    4.90
   5  -6   3   23.30    3.70
  -6   6  -3  359.56   15.20
  -6   6  -3  346.07   14.00
  -6   6  -3  339.97   17.30
  -6   6  -3  348.67   14.30
   6  -6   3  335.87   14.60
   6  -6   3  345.87   15.80
  -7   6  -3  530.35   20.30
  -7   6  -3  502.05   21.00
  -7   6  -3  512.15   23.50
  -7   6  -3  500.35   20.00
   7  -6   3  507.65   20.80
  -8   6  -3  111.59    8.60
  -8   6  -3  114.29   11.50
  -8   6  -3  103.79    7.90
   8  -6   3  103.29    9.90
  -9   6  -3   17.60    5.50
  -9   6  -3    6.40    4.70
   9  -6   3    8.00    5.90
 -10   6  -3   -4.00    5.30
 -10   6  -3    7.50    6.20
  10  -6   3    0.50    6.80
 -11   6  -3   23.90    6.30
 -11   6  -3   27.50    7.40
  11  -6   3   37.10    8.70
  10   5  -3   85.19   11.40
  10   5  -3   59.79    9.30
 -10  -5   3   80.19   12.20
   9   5  -3  160.08   11.80
   9   5  -3  153.18   14.00
  -9  -5   3  151.48   17.30
   8   5  -3    3.30    5.90
   8   5  -3   11.10    4.90
  -8  -5   3   15.60    8.40
   7   5  -3    0.80    3.70
   7   5  -3   -3.90    5.10
   7   5  -3   -1.30    5.70
  -7  -5   3   -2.00    7.20
   6   5  -3  372.66   19.60
   6   5  -3  384.26   17.30
   6   5  -3  377.16   21.60
   6   5  -3  403.56   15.50
  -6  -5   3  358.26   15.50
   5   5  -3  460.25   18.30
   5   5  -3  435.96   20.90
   5   5  -3  455.35   17.00
   5   5  -3  385.26   18.00
  -5  -5   3  452.15   17.50
  -5  -5   3  457.55   19.20
   4   5  -3   15.80    3.60
   4   5  -3   27.60    3.70
  -4  -5   3   21.10    3.00
   3   5  -3 1155.58   42.00
   3   5  -3 1099.59   41.70
   3   5  -3 1130.59   44.30
  -3  -5   3 1152.78   42.30
  -3  -5   3 1160.08   41.90
   2   5  -3 3554.74  129.89
   2   5  -3 3530.95  130.79
   2   5  -3 3668.83  130.19
   2   5  -3 3746.53  129.99
   2   5  -3 3639.94  132.19
  -2  -5   3 3604.64  129.99
   1   5  -3  382.26   17.90
   1   5  -3  393.06   15.20
   1   5  -3  388.96   15.60
   1   5  -3  395.86   15.50
   1   5  -3  402.56   15.30
  -1  -5   3  405.36   15.50
   0   5  -3  164.78    7.50
   0   5  -3  153.38    7.30
   0   5  -3  167.68    7.20
   0   5  -3  149.49   10.20
   0   5  -3  166.58    7.30
   0  -5   3  173.98    7.70
  -1   5  -3 1494.25   54.49
  -1   5  -3 1515.55   54.19
  -1   5  -3 1470.45   54.29
  -1   5  -3 1450.55   56.29
  -1   5  -3 1563.14   54.09
   1  -5   3 1508.05   54.49
  -2   5  -3 2849.11  108.39
  -2   5  -3 2854.51  106.69
  -2   5  -3 2998.60  106.89
  -2   5  -3 3029.90  106.49
  -2   5  -3 3145.29  106.49
   2  -5   3 2949.00  106.89
  -3   5  -3  582.44   20.70
  -3   5  -3  545.75   21.10
  -3   5  -3  558.84   21.30
  -3   5  -3  537.15   23.00
  -3   5  -3  548.85   20.60
   3  -5   3  565.84   21.20
   3  -5   3  540.25   21.30
   3  -5   3  578.44   20.80
  -4   5  -3  340.67   13.80
  -4   5  -3  351.26   13.30
  -4   5  -3  350.66   15.80
  -4   5  -3  336.67   13.30
   4  -5   3  351.86   13.40
   4  -5   3  331.17   13.70
   4  -5   3  328.37   14.20
  -5   5  -3   88.19    5.30
  -5   5  -3   78.89    5.20
  -5   5  -3   83.99    8.30
  -5   5  -3   80.19    6.20
   5  -5   3   85.49    6.80
   5  -5   3   82.09    6.00
   5  -5   3   83.39    5.80
  -6   5  -3  206.78   10.50
  -6   5  -3  213.28   12.10
  -6   5  -3  209.78    9.70
  -6   5  -3  234.48    9.70
   6  -5   3  228.78   10.30
   6  -5   3  209.28   11.10
   6  -5   3  212.98   10.30
  -7   5  -3   56.69    7.30
  -7   5  -3   78.49    6.40
  -7   5  -3   65.89    6.30
  -7   5  -3   66.99    8.50
   7  -5   3   65.69    7.50
   7  -5   3   68.49    6.70
  -8   5  -3   74.79    7.20
  -8   5  -3   48.90    7.10
  -8   5  -3   57.99    8.80
   8  -5   3   52.49    6.10
   8  -5   3   76.79   17.30
  -9   5  -3   83.79    8.90
  -9   5  -3  107.09    8.90
   9  -5   3   85.79   10.60
 -10   5  -3  123.29   18.00
 -10   5  -3  140.49   10.80
  10  -5   3  127.59   12.50
 -11   5  -3  135.69   11.90
 -11   5  -3  113.39   11.80
  11  -5   3  113.89   15.50
  11   4  -3   15.60    8.60
  11   4  -3   18.80    7.60
 -11  -4   3   34.90   11.60
  10   4  -3   42.40    8.00
  10   4  -3   51.19    7.60
 -10  -4   3   66.39   11.10
   9   4  -3   30.10    6.80
   9   4  -3   30.50    6.20
  -9  -4   3   30.00    9.00
   8   4  -3   -4.40    5.30
   8   4  -3    5.00    4.60
  -8  -4   3   -0.60    7.50
   7   4  -3   57.29    8.10
   7   4  -3   55.69    6.70
   7   4  -3   62.59    9.30
  -7  -4   3   49.40    7.60
   6   4  -3  894.31   32.30
   6   4  -3  870.41   32.70
   6   4  -3  829.32   34.40
  -6  -4   3  842.92   32.30
  -6  -4   3  871.41   33.50
   5   4  -3 1159.18   41.80
   5   4  -3 1106.79   44.10
   5   4  -3 1173.48   42.40
  -5  -4   3 1145.09   42.70
  -5  -4   3 1129.49   42.10
   4   4  -3   23.90    4.00
   4   4  -3   31.30    4.50
   4   4  -3   39.20    3.80
   4   4  -3   31.60    7.50
   4   4  -3   37.90    4.80
  -4  -4   3   35.90    4.60
  -4  -4   3   40.80    5.90
   3   4  -3 1393.36   50.59
   3   4  -3 1383.06   52.19
   3   4  -3 1377.06   50.19
   3   4  -3 1389.56   50.29
  -3  -4   3 1384.16   50.39
  -3  -4   3 1356.06   50.39
   2   4  -3 2882.81  105.89
   2   4  -3 2870.31  103.89
   2   4  -3 2873.11  103.99
   2   4  -3 2860.41  104.29
   2   4  -3 3000.20  104.19
  -2  -4   3 2952.00  104.19
  -2  -4   3 2847.11  104.09
   1   4  -3 1571.24   60.39
   1   4  -3 1618.44   58.39
   1   4  -3 1634.84   58.49
   1   4  -3 1695.83   58.69
   1   4  -3 1585.54   58.69
  -1  -4   3 1624.94   58.69
   0   4  -3 1317.47   48.00
   0   4  -3 1365.36   48.30
   0   4  -3 1349.16   48.10
   0   4  -3 1305.97   49.80
   0  -4   3 1342.27   48.00
   0  -4   3 1288.37   48.70
  -1   4  -3  225.48    9.30
  -1   4  -3  224.88    9.10
  -1   4  -3  230.58    9.00
  -1   4  -3  217.68   11.30
   1  -4   3  231.48    9.10
   1  -4   3  227.18    9.40
  -2   4  -3  464.75   19.60
  -2   4  -3  461.25   17.60
  -2   4  -3  465.45   17.30
  -2   4  -3  463.55   17.70
   2  -4   3  463.75   17.80
   2  -4   3  481.15   17.60
  -3   4  -3  732.03   26.80
  -3   4  -3  731.63   28.60
  -3   4  -3  715.13   27.10
  -3   4  -3  723.03   27.30
   3  -4   3  758.42   27.00
   3  -4   3  748.93   27.10
   3  -4   3  751.52   29.60
   3  -4   3  718.13   27.40
  -4   4  -3  201.48    8.60
  -4   4  -3  207.48   10.70
  -4   4  -3  207.58    9.00
   4  -4   3  206.38    9.30
   4  -4   3  208.08    8.90
   4  -4   3  206.28    8.80
   4  -4   3  210.78   11.90
  -5   4  -3  738.43   26.50
  -5   4  -3  703.43   26.60
  -5   4  -3  716.73   28.00
  -5   4  -3  729.63   27.00
   5  -4   3  724.43   27.30
   5  -4   3  710.73   26.80
   5  -4   3  700.83   27.20
   5  -4   3  730.13   29.10
  -6   4  -3  635.44   24.90
  -6   4  -3  649.93   24.80
  -6   4  -3  660.03   26.00
  -6   4  -3  675.83   24.30
   6  -4   3  638.94   24.80
   6  -4   3  639.04   24.50
   6  -4   3  670.13   26.70
   6  -4   3  613.64   25.20
  -7   4  -3  465.15   18.60
  -7   4  -3  434.16   21.40
  -7   4  -3  506.95   18.50
   7  -4   3  463.85   19.30
   7  -4   3  469.55   18.50
  -8   4  -3   57.49    7.20
  -8   4  -3   55.79    7.40
   8  -4   3   50.89    6.10
  -9   4  -3  128.89    9.40
  -9   4  -3  109.89    9.40
   9  -4   3  111.99   10.80
 -10   4  -3  214.28   12.80
 -10   4  -3  209.88   13.10
  10  -4   3  232.08   14.90
 -11   4  -3   86.29   11.70
 -11   4  -3   91.89   11.40
  11  -4   3   71.19    9.40
 -12   4  -3   -1.00    7.20
 -12   4  -3    7.10    8.00
  12  -4   3    0.80    8.80
  11   3  -3   28.10    8.40
  11   3  -3   49.70    8.40
 -11  -3   3   38.70   10.80
  10   3  -3  274.97   15.80
  10   3  -3  253.67   15.90
 -10  -3   3  264.17   19.00
   9   3  -3  120.99   11.40
   9   3  -3  112.49   10.90
  -9  -3   3  113.29   14.20
   8   3  -3    6.00    4.90
   8   3  -3   13.20    4.40
   8   3  -3   15.50    4.80
  -8  -3   3    4.70    7.00
   7   3  -3  559.34   22.00
   7   3  -3  529.75   23.00
   7   3  -3  549.45   21.80
   7   3  -3  605.14   22.70
  -7  -3   3  526.85   21.50
  -7  -3   3  509.55   23.30
   6   3  -3 1242.48   43.50
   6   3  -3 1103.59   44.00
   6   3  -3 1162.08   42.80
   6   3  -3 1188.28   42.70
  -6  -3   3 1107.59   42.60
  -6  -3   3 1126.29   43.50
   5   3  -3 1735.43   63.39
   5   3  -3 1701.73   64.69
   5   3  -3 1832.52   63.89
   5   3  -3 1726.83   62.99
   5   3  -3 1758.52   63.19
  -5  -3   3 1694.13   63.59
  -5  -3   3 1729.03   63.29
   4   3  -3 1746.63   62.69
   4   3  -3 1671.03   64.29
   4   3  -3 1708.73   62.49
   4   3  -3 1730.83   62.89
   4   3  -3 1764.62   63.29
  -4  -3   3 1855.21   65.99
  -4  -3   3 1637.44   62.89
  -4  -3   3 1737.63   62.89
   3   3  -3 3855.01  142.19
   3   3  -3 4022.70  140.69
   3   3  -3 3953.60  141.09
   3   3  -3 3779.72  140.69
  -3  -3   3 3864.51  140.69
  -3  -3   3 4086.99  142.39
  -3  -3   3 3924.81  140.79
   2   3  -3 1969.90   66.29
   2   3  -3 1831.52   67.89
   2   3  -3 1775.92   66.19
   2   3  -3 1806.52   66.49
  -2  -3   3 1783.02   66.19
  -2  -3   3 1788.32   66.19
  -2  -3   3 1814.92   66.39
  -2  -3   3 1920.21   67.99
   1   3  -3   31.80    3.10
   1   3  -3   37.00    2.90
   1   3  -3   29.60    3.00
   1   3  -3   34.00    5.40
  -1  -3   3   31.90    5.70
  -1  -3   3   32.60    2.70
   0   3  -3  146.29    6.20
   0   3  -3  143.59    8.40
   0   3  -3  148.09    6.40
   0  -3   3  144.69    8.50
   0  -3   3  148.39    6.40
   0  -3   3  138.99    6.10
  -1   3  -3 5955.80  206.28
  -1   3  -3 5540.15  206.18
  -1   3  -3 5592.24  207.58
   1  -3   3 5671.93  206.18
   1  -3   3 6078.99  207.88
   1  -3   3 5820.22  206.28
  -2   3  -3 1744.53   61.89
  -2   3  -3 1719.43   62.19
  -2   3  -3 1686.53   63.39
   2  -3   3 1697.53   62.19
   2  -3   3 1798.02   63.79
   2  -3   3 1703.23   62.09
  -3   3  -3 1987.30   73.69
  -3   3  -3 1963.10   72.59
  -3   3  -3 2025.90   72.49
   3  -3   3 2118.39   74.39
   3  -3   3 1975.40   72.59
   3  -3   3 1986.20   72.79
   3  -3   3 2088.69   72.59
  -4   3  -3   12.90    2.20
  -4   3  -3   11.60    2.90
  -4   3  -3    5.20    1.90
   4  -3   3    6.40    2.20
   4  -3   3    6.40    3.40
   4  -3   3    6.10    1.80
   4  -3   3    4.70    2.10
  -5   3  -3 2976.10  111.29
  -5   3  -3 3086.29  111.49
  -5   3  -3 3168.08  111.99
   5  -3   3 3279.67  113.09
   5  -3   3 3092.49  111.39
   5  -3   3 3034.40  111.59
   5  -3   3 3096.29  111.69
  -6   3  -3  882.01   32.00
  -6   3  -3  891.61   31.80
  -6   3  -3  853.41   32.00
   6  -3   3  878.21   31.90
   6  -3   3  843.42   32.20
   6  -3   3  817.12   32.20
  -7   3  -3  510.55   19.60
  -7   3  -3  502.25   19.50
   7  -3   3  483.55   20.10
   7  -3   3  516.45   19.40
   7  -3   3  469.95   20.20
  -8   3  -3   30.80    4.50
  -8   3  -3   19.00    3.80
   8  -3   3   24.00    5.10
   8  -3   3   23.70    5.30
   8  -3   3   18.90    3.40
  -9   3  -3   97.69    9.00
   9  -3   3   98.09   10.40
   9  -3   3  100.29   10.20
 -10   3  -3  182.68   12.80
  10  -3   3  214.38   13.90
  10  -3   3  204.28   14.10
 -11   3  -3   20.50    7.30
 -11   3  -3   25.90    7.30
  11  -3   3   12.60    7.60
  11  -3   3   23.00    7.70
 -12   3  -3    4.30    7.90
 -12   3  -3    4.50    7.90
  12  -3   3   14.20    9.50
  12  -3   3    8.70    9.10
  11   2  -3   67.39    8.70
  11   2  -3  102.49   13.80
 -11  -2   3  104.69   15.90
  10   2  -3  359.16   18.50
  10   2  -3  352.46   17.80
 -10  -2   3  339.57   19.80
   9   2  -3  123.19   10.30
   9   2  -3  121.89   11.30
  -9  -2   3  118.89   13.70
   8   2  -3   22.50    4.50
   8   2  -3   11.20    5.80
   8   2  -3   17.30    5.00
  -8  -2   3   12.60    7.00
  -8  -2   3    6.80    4.10
   7   2  -3  755.32   29.00
   7   2  -3  768.02   29.30
   7   2  -3  717.53   29.80
   7   2  -3  809.52   29.60
  -7  -2   3  744.53   29.00
  -7  -2   3  808.32   30.30
  -7  -2   3  711.33   30.00
   6   2  -3  417.96   16.70
   6   2  -3  421.56   18.50
   6   2  -3  378.56   17.80
   6   2  -3  414.96   16.50
   6   2  -3  440.46   17.20
  -6  -2   3  408.26   18.40
  -6  -2   3  409.86   16.60
  -6  -2   3  394.46   17.70
   5   2  -3  304.47   12.60
   5   2  -3  309.47   12.50
   5   2  -3  305.07   12.90
   5   2  -3  328.67   13.20
   5   2  -3  287.37   14.40
  -5  -2   3  301.27   15.00
  -5  -2   3  309.57   12.80
  -5  -2   3  286.47   13.50
   4   2  -3   32.50    3.70
   4   2  -3   24.10    2.70
   4   2  -3   28.00    3.90
   4   2  -3   19.30    4.10
   4   2  -3   18.00    3.00
  -4  -2   3   18.60    4.30
  -4  -2   3   22.90    3.80
   3   2  -3 2090.59   75.59
   3   2  -3 2234.08   75.49
   3   2  -3 1911.11   75.49
   3   2  -3 2158.58   75.99
   3   2  -3 2089.99   77.39
  -3  -2   3 2142.39   75.79
  -3  -2   3 2076.39   77.09
  -3  -2   3 2006.60   75.89
  -3  -2   3 2172.58   75.79
   2   2  -3 4647.83  166.78
   2   2  -3 4469.95  164.88
   2   2  -3 4650.03  165.18
  -2  -2   3 4763.82  166.58
  -2  -2   3 4596.54  164.98
  -2  -2   3 4535.95  164.98
   1   2  -3  244.98   12.10
   1   2  -3  253.77    9.70
   1   2  -3  243.38    9.90
  -1  -2   3  252.97    9.70
  -1  -2   3  245.38    9.80
  -1  -2   3  254.07   11.90
   0   2  -3  796.42   29.90
   0   2  -3  821.82   32.00
   0   2  -3  828.02   30.00
   0  -2   3  870.31   31.90
   0  -2   3  786.62   29.90
   0  -2   3  838.12   30.00
  -1   2  -3 5273.87  193.28
  -1   2  -3 5406.96  191.58
  -1   2  -3 5176.18  191.48
   1  -2   3 5717.63  193.38
   1  -2   3 5432.06  191.68
   1  -2   3 5205.78  191.58
  -2   2  -3 2627.74   94.89
  -2   2  -3 2630.64   94.89
  -2   2  -3 2604.64   94.99
  -2   2  -3 2575.74   96.29
   2  -2   3 2566.64   94.89
   2  -2   3 2879.11   96.89
  -3   2  -3 1837.02   67.09
  -3   2  -3 1857.51   67.09
  -3   2  -3 1818.82   68.29
   3  -2   3 1890.01   67.29
   3  -2   3 2047.50   69.29
   3  -2   3 1759.02   67.19
  -4   2  -3  163.98    8.50
  -4   2  -3  153.88    7.10
  -4   2  -3  163.38    6.90
   4  -2   3  160.08    7.20
   4  -2   3  160.18    7.30
   4  -2   3  161.48    9.30
   4  -2   3  146.99    7.30
  -5   2  -3  148.89    7.90
  -5   2  -3  145.09    6.60
   5  -2   3  141.99    7.10
   5  -2   3  131.19    7.30
   5  -2   3  134.19    7.20
  -6   2  -3  624.34   22.20
  -6   2  -3  551.34   22.50
   6  -2   3  605.34   22.80
   6  -2   3  570.64   22.70
  -7   2  -3  133.79    7.20
  -7   2  -3  113.09    8.20
   7  -2   3  128.49    8.50
   7  -2   3  128.99    8.70
  -8   2  -3   -1.70    2.90
  -8   2  -3   -9.20    4.60
   8  -2   3    2.90    7.10
   8  -2   3   -2.90    2.10
   8  -2   3   -2.30    4.40
  -9   2  -3  139.99   10.70
   9  -2   3  129.79   11.10
   9  -2   3  142.79   10.90
 -10   2  -3  185.68   15.00
  10  -2   3  211.58   14.10
  10  -2   3  205.88   13.80
 -11   2  -3   32.50    7.50
  11  -2   3   32.00    8.10
  11  -2   3   30.70    8.40
 -12   2  -3    5.50    8.30
  12  -2   3    9.70    9.10
  12  -2   3   -4.10    9.10
  12   1  -3   -8.80    9.20
  12   1  -3  -13.00    7.80
 -12  -1   3    7.60    9.20
  11   1  -3  113.09   13.10
  11   1  -3  103.19   14.60
 -11  -1   3  137.59   15.40
  10   1  -3  121.79   11.40
  10   1  -3  103.89   12.40
 -10  -1   3  123.59   14.00
   9   1  -3   76.29   10.60
   9   1  -3   84.59    9.40
  -9  -1   3   88.79   11.30
   8   1  -3  152.98    9.20
   8   1  -3  135.29   11.90
   8   1  -3  163.58   10.30
  -8  -1   3  130.79    9.60
  -8  -1   3  139.99   13.40
   7   1  -3  791.12   33.10
   7   1  -3  837.12   32.50
   7   1  -3  893.31   32.60
   7   1  -3  845.62   31.90
  -7  -1   3  900.21   32.80
  -7  -1   3  848.32   32.30
  -7  -1   3  827.92   33.30
   6   1  -3  366.06   15.30
   6   1  -3  358.36   15.00
   6   1  -3  343.97   14.40
   6   1  -3  364.36   15.10
   6   1  -3  338.17   16.60
  -6  -1   3  361.96   14.90
  -6  -1   3  352.46   16.10
  -6  -1   3  377.76   16.20
   5   1  -3  455.45   17.80
   5   1  -3  448.36   17.80
   5   1  -3  432.26   17.50
   5   1  -3  444.96   19.70
   5   1  -3  435.06   17.00
  -5  -1   3  474.75   19.20
  -5  -1   3  429.16   18.20
  -5  -1   3  442.06   17.50
   4   1  -3  538.05   19.70
   4   1  -3  516.85   23.80
   4   1  -3  522.75   20.10
   4   1  -3  533.25   20.50
   4   1  -3  521.75   20.30
  -4  -1   3  552.24   22.00
  -4  -1   3  510.75   21.30
  -4  -1   3  541.25   20.70
  -4  -1   3  520.45   20.20
   3   1  -3  629.44   23.70
   3   1  -3  599.84   23.30
   3   1  -3  610.94   25.70
   3   1  -3  628.74   23.50
  -3  -1   3  626.94   23.50
  -3  -1   3  654.73   23.80
  -3  -1   3  623.24   23.60
  -3  -1   3  648.54   25.30
   2   1  -3 4190.58  150.78
   2   1  -3 4132.49  150.58
   2   1  -3 4048.80  152.58
  -2  -1   3 4170.78  150.68
  -2  -1   3 4485.35  152.38
  -2  -1   3 4209.68  150.68
   1   1  -3 6600.44  236.28
   1   1  -3 6284.97  238.28
   1   1  -3 6497.05  236.18
  -1  -1   3 6564.74  236.28
  -1  -1   3 7087.59  238.18
  -1  -1   3 6676.53  236.28
   0   1  -3  103.09    4.30
   0   1  -3   93.49    4.40
   0   1  -3   88.49    7.20
   0  -1   3  101.69    6.90
   0  -1   3  104.89    4.50
  -1   1  -3  567.24   24.20
  -1   1  -3  569.94   21.70
  -1   1  -3  603.54   21.80
   1  -1   3  640.74   24.10
   1  -1   3  611.74   21.90
  -2   1  -3 1169.58   43.10
  -2   1  -3 1211.98   43.20
  -2   1  -3 1245.68   43.50
  -2   1  -3 1113.99   45.20
   2  -1   3 1241.78   43.50
   2  -1   3 1161.58   43.20
   2  -1   3 1186.78   43.10
   2  -1   3 1253.37   45.10
  -3   1  -3   57.39    6.90
  -3   1  -3   78.99    3.60
   3  -1   3   65.39    4.30
   3  -1   3   71.59    3.70
   3  -1   3   79.29    6.10
   3  -1   3   70.39    3.60
   3  -1   3   69.99    4.30
  -4   1  -3 1215.08   46.60
  -4   1  -3 1274.37   44.90
   4  -1   3 1269.87   45.40
   4  -1   3 1264.97   45.10
   4  -1   3 1316.87   46.00
   4  -1   3 1163.28   45.50
   4  -1   3 1214.28   45.40
  -5   1  -3  211.48    8.30
  -5   1  -3  198.38    9.90
   5  -1   3  203.58    9.10
   5  -1   3  203.88    8.80
   5  -1   3  182.48    9.30
   5  -1   3  199.78    9.00
  -6   1  -3  676.73   26.40
  -6   1  -3  706.73   25.30
   6  -1   3  671.63   26.20
   6  -1   3  677.53   26.20
   6  -1   3  690.23   25.80
  -7   1  -3   76.29    8.70
  -7   1  -3   87.79    6.40
   7  -1   3   70.39    7.40
   7  -1   3   87.79    7.70
   7  -1   3   83.09    5.70
  -8   1  -3    6.40    5.70
  -8   1  -3    7.10    3.30
   8  -1   3    9.50    3.00
   8  -1   3    7.90    5.00
   8  -1   3    9.40    4.60
  -9   1  -3  220.28   14.40
   9  -1   3  234.68   13.80
   9  -1   3  256.67   14.50
 -10   1  -3  196.08   16.70
  10  -1   3  215.18   15.00
  10  -1   3  209.28   14.70
 -11   1  -3   15.50    8.40
  11  -1   3   20.00    8.00
  11  -1   3   19.30    8.50
  12   0  -3   16.10    7.80
  12   0  -3   21.90   10.10
 -12   0   3   41.20    9.40
  11   0  -3   98.09   11.90
  11   0  -3   89.59   10.20
 -11   0   3  106.59   13.70
  10   0  -3   79.69   10.80
  10   0  -3   66.49    8.50
 -10   0   3   79.59   12.00
   9   0  -3   -1.00    5.80
   9   0  -3    4.10    5.00
  -9   0   3    9.30    6.50
   8   0  -3  215.18   10.70
  -8   0   3  202.98   11.60
  -8   0   3  189.78   19.50
   7   0  -3 1050.29   40.40
   7   0  -3 1091.99   40.20
   7   0  -3 1045.70   40.20
   7   0  -3 1032.90   41.40
   7   0  -3 1050.59   39.30
  -7   0   3 1088.29   40.50
  -7   0   3 1052.89   39.90
  -7   0   3 1104.89   40.20
   6   0  -3  922.91   34.70
   6   0  -3  884.21   34.50
   6   0  -3  899.61   33.70
   6   0  -3  919.21   36.50
   6   0  -3  916.51   34.50
  -6   0   3  957.00   35.10
  -6   0   3  920.11   34.80
  -6   0   3  905.51   34.40
   5   0  -3  799.82   30.70
   5   0  -3  820.12   32.80
   5   0  -3  830.12   30.60
   5   0  -3  797.32   30.30
   5   0  -3  777.42   30.50
  -5   0   3  801.72   30.40
  -5   0   3  831.42   30.80
  -5   0   3  846.72   31.60
   4   0  -3   54.99    4.30
   4   0  -3   43.80    4.70
   4   0  -3   51.79    7.20
   4   0  -3   41.80    4.50
  -4   0   3   37.70    4.80
  -4   0   3   40.00    6.00
  -4   0   3   42.10    4.30
  -4   0   3   34.70    4.50
   3   0  -3  552.94   23.50
   3   0  -3  560.44   21.50
   3   0  -3  562.24   21.40
   3   0  -3  602.64   21.70
  -3   0   3  593.84   22.90
  -3   0   3  559.34   21.50
  -3   0   3  547.15   21.50
  -3   0   3  566.94   21.40
   2   0  -3 2130.29   75.19
   2   0  -3 2086.39   77.49
   2   0  -3 1993.50   74.99
   2   0  -3 2124.29   74.99
  -2   0   3 2161.48   76.49
  -2   0   3 2025.30   74.99
  -2   0   3 2059.59   74.99
   1   0  -3   37.30    5.40
   1   0  -3   30.80    2.70
   1   0  -3   32.30    2.90
  -1   0   3   40.30    5.10
  -1   0   3   34.70    2.80
   0   0  -3 3068.19  114.39
   0   0  -3 3152.48  116.49
   0   0  -3 3244.98  114.39
   0   0   3 3387.36  116.19
   0   0   3 3160.18  114.49
   0   0   3 3196.38  114.49
  -1   0  -3 1010.00   40.30
  -1   0  -3 1095.49   38.20
  -1   0  -3 1047.50   38.20
   1   0   3 1054.79   38.20
   1   0   3 1070.59   38.30
   1   0   3 1110.29   39.90
  -2   0  -3 2772.02  111.09
   2   0   3 2911.91  109.19
   2   0   3 3023.50  109.19
   2   0   3 3119.59  109.49
   2   0   3 3250.37  110.69
   2   0   3 3273.67  109.59
  -3   0  -3  418.66   19.20
   3   0   3  447.76   16.70
   3   0   3  471.35   17.20
   3   0   3  441.66   16.60
   3   0   3  481.45   18.10
   3   0   3  462.55   17.30
  -4   0  -3   38.40    7.00
   4   0   3   51.39    3.20
   4   0   3   44.90    4.40
   4   0   3   59.49    5.00
   4   0   3   45.10    4.50
   4   0   3   51.19    3.50
  -5   0  -3  696.23   28.90
  -5   0  -3  731.43   27.00
  -5   0  -3  766.72   27.80
   5   0   3  702.03   27.10
   5   0   3  722.93   26.30
   5   0   3  691.33   27.40
  -6   0  -3 1903.61   68.29
   6   0   3 1822.92   68.29
   6   0   3 1863.41   68.29
   6   0   3 1902.61   67.49
  -7   0  -3  830.12   31.20
   7   0   3  788.72   30.90
   7   0   3  798.22   29.60
   7   0   3  774.52   30.60
  -8   0  -3   14.40    6.60
   8   0   3   11.10    5.00
   8   0   3   19.90    5.30
   8   0   3    9.10    3.10
  -9   0  -3  153.78   14.70
   9   0   3  149.29   12.00
   9   0   3  179.68   12.80
 -10   0  -3  211.08   16.80
  10   0   3  195.98   15.60
  10   0   3  192.58   14.10
 -11   0  -3   14.60    8.50
  11   0   3    5.30    8.40
  11   0   3    9.90    7.70
  12  -1  -3   11.70   10.10
  12  -1  -3   33.20    8.20
 -12   1   3   49.90    9.90
  11  -1  -3   80.49    8.20
  11  -1  -3   64.89    9.90
 -11   1   3   89.79   13.70
  10  -1  -3  189.08   14.50
  10  -1  -3  194.08   12.30
 -10   1   3  188.28   14.70
   9  -1  -3   38.30    6.90
   9  -1  -3   48.70    5.90
  -9   1   3   50.99    7.40
   8  -1  -3   62.89    7.10
   8  -1  -3   58.79    6.70
   8  -1  -3   49.30    9.80
  -8   1   3   65.99    8.50
   7  -1  -3   11.00    3.20
   7  -1  -3   15.50    4.40
   7  -1  -3   11.10    4.30
  -7   1   3    8.30    3.90
  -7   1   3    6.80    4.90
   6  -1  -3  591.94   24.90
   6  -1  -3  580.44   23.00
   6  -1  -3  549.74   22.80
   6  -1  -3  589.64   21.70
  -6   1   3  579.54   22.70
  -6   1   3  579.04   23.10
   5  -1  -3   -0.40    2.80
   5  -1  -3    4.40    4.50
   5  -1  -3    1.00    2.40
   5  -1  -3   -5.00    2.70
  -5   1   3    0.30    3.30
  -5   1   3   -2.30    2.60
   4  -1  -3  802.62   31.50
   4  -1  -3  772.22   29.80
   4  -1  -3  774.62   29.60
  -4   1   3  823.62   29.70
  -4   1   3  819.42   29.70
  -4   1   3  778.12   29.70
   3  -1  -3  801.12   31.60
   3  -1  -3  774.02   30.70
   3  -1  -3  809.62   29.90
  -3   1   3  806.22   29.90
  -3   1   3  856.11   30.00
  -3   1   3  801.72   29.90
   2  -1  -3 1450.15   51.09
   2  -1  -3 1361.56   52.59
   2  -1  -3 1372.86   51.29
  -2   1   3 1412.86   51.09
  -2   1   3 1462.35   51.09
  -2   1   3 1441.66   54.39
  -2   1   3 1374.76   51.19
   1  -1  -3  273.97   10.20
   1  -1  -3  267.57   12.10
   1  -1  -3  253.97   10.10
  -1   1   3  268.87   10.20
  -1   1   3  229.18   10.00
  -1   1   3  262.77   12.50
   0  -1  -3 2558.04   95.79
   0  -1  -3 2576.64   96.09
   0  -1  -3 2638.14   97.59
   0  -1  -3 2744.23   95.99
   0   1   3 2924.21   96.29
   0   1   3 2692.73   95.89
   0   1   3 2576.34   95.89
   0   1   3 2734.53   97.59
  -1  -1  -3 2827.62  107.79
   1   1   3 3183.08  106.39
   1   1   3 2891.71  107.59
  -2  -1  -3 2107.39   80.59
   2   1   3 2272.47   79.19
   2   1   3 2179.58   80.29
   2   1   3 2246.78   79.09
  -3  -1  -3  274.67   14.10
  -3  -1  -3  292.77   13.60
   3   1   3  294.87   11.60
   3   1   3  296.27   11.40
   3   1   3  290.37   11.70
  -4  -1  -3   -2.90    4.30
  -4  -1  -3    8.50    4.10
   4   1   3    2.60    2.60
   4   1   3    4.60    2.70
   4   1   3    9.30    2.30
  -5  -1  -3  795.62   32.80
  -5  -1  -3  831.42   30.90
  -5  -1  -3  858.71   32.00
   5   1   3  834.92   29.90
   5   1   3  796.12   30.80
   5   1   3  814.82   30.80
  -6  -1  -3  618.44   23.30
  -6  -1  -3  571.74   22.80
  -6  -1  -3  524.45   25.00
   6   1   3  583.34   22.60
   6   1   3  582.14   21.40
   6   1   3  556.94   22.60
  -7  -1  -3   69.09    9.60
   7   1   3   73.99    8.20
   7   1   3   76.39    5.50
   7   1   3   83.59    8.80
  -8  -1  -3  767.92   30.00
   8   1   3  716.43   28.90
   8   1   3  694.63   29.00
  -9  -1  -3  415.96   21.50
   9   1   3  380.36   18.70
   9   1   3  400.56   19.70
 -10  -1  -3   22.60    9.90
  10   1   3   20.00   10.50
  10   1   3   11.70    6.60
 -11  -1  -3   38.20   10.70
  11   1   3   12.50    8.30
  11   1   3   14.10    9.10
  12  -2  -3   33.70   10.60
  12  -2  -3   49.20    8.40
 -12   2   3   50.79   10.00
  11  -2  -3  170.58   17.10
  11  -2  -3  182.38   13.10
 -11   2   3  170.98   15.60
  10  -2  -3   14.20    7.60
  10  -2  -3   21.60    6.00
 -10   2   3   23.90    7.80
   9  -2  -3   53.69    7.30
   9  -2  -3   62.39    8.00
  -9   2   3   55.49    8.00
   8  -2  -3  344.97   14.70
   8  -2  -3  407.16   19.20
   8  -2  -3  315.27   16.70
   8  -2  -3  352.26   17.70
  -8   2   3  309.37   16.20
  -8   2   3  350.16   17.00
   7  -2  -3  116.79   10.50
   7  -2  -3  108.79    9.50
   7  -2  -3   97.29    6.40
   7  -2  -3   89.89    8.60
  -7   2   3   82.49    8.80
   6  -2  -3  512.15   18.60
   6  -2  -3  488.45   20.30
   6  -2  -3  472.55   20.00
   6  -2  -3  492.15   21.90
  -6   2   3  491.75   19.80
  -6   2   3  482.35   20.20
   5  -2  -3  208.38   10.70
   5  -2  -3  217.48   10.30
   5  -2  -3  219.48   12.30
  -5   2   3  219.98   10.20
  -5   2   3  215.08   10.20
  -5   2   3  217.48   10.60
   4  -2  -3  527.45   20.90
   4  -2  -3  532.75   21.10
   4  -2  -3  537.25   22.60
  -4   2   3  559.84   20.90
  -4   2   3  550.54   21.00
  -4   2   3  551.24   20.90
   3  -2  -3 4032.90  147.09
   3  -2  -3 4082.49  146.99
   3  -2  -3 4071.19  148.39
  -3   2   3 4156.58  146.99
  -3   2   3 4147.39  146.99
  -3   2   3 4109.19  146.89
   2  -2  -3 4099.99  149.59
   2  -2  -3 4265.87  148.09
   2  -2  -3 4016.40  148.09
  -2   2   3 4274.57  148.09
  -2   2   3 4022.60  147.99
   1  -2  -3 1484.75   55.09
   1  -2  -3 1478.05   53.19
   1  -2  -3 1529.95   53.29
  -1   2   3 1532.85   53.39
  -1   2   3 1447.66   53.29
  -1   2   3 1391.16   53.29
   0  -2  -3    7.40    1.90
   0  -2  -3   12.30    3.20
   0   2   3    6.80    1.40
   0   2   3   10.00    1.40
   0   2   3    9.50    2.00
  -1  -2  -3 2672.03  105.89
   1   2   3 3000.00  104.39
   1   2   3 3061.49  104.49
  -2  -2  -3  747.03   31.10
   2   2   3  819.92   29.50
   2   2   3  803.52   29.20
   2   2   3  817.12   29.30
  -3  -2  -3   59.49    7.20
   3   2   3   56.49    4.40
   3   2   3   63.59    4.80
   3   2   3   61.99    4.70
  -4  -2  -3  189.48   11.30
   4   2   3  193.28    9.00
   4   2   3  180.38    9.00
   4   2   3  198.18    8.90
  -5  -2  -3  505.45   20.20
  -5  -2  -3  502.45   21.90
   5   2   3  487.75   19.60
   5   2   3  479.65   19.50
  -6  -2  -3  393.86   20.30
  -6  -2  -3  398.46   17.40
   6   2   3  378.76   16.60
   6   2   3  397.76   15.10
   6   2   3  392.46   16.80
  -7  -2  -3   16.40    6.60
  -7  -2  -3   16.80    5.40
   7   2   3   24.70    5.50
   7   2   3   22.10    3.10
   7   2   3   10.50    8.30
  -8  -2  -3   91.69   14.40
   8   2   3   98.69   10.10
   8   2   3  104.99   11.10
  -9  -2  -3  241.68   17.20
   9   2   3  233.38   15.60
   9   2   3  211.48   14.10
 -10  -2  -3   15.90    9.90
  10   2   3    2.60    8.20
  10   2   3   -4.60    6.40
  11  -3  -3  123.79   15.80
 -11   3   3  123.99   15.50
  10  -3  -3   22.00    6.70
  10  -3  -3   -0.20    7.40
 -10   3   3   15.10    7.90
   9  -3  -3   81.39    8.30
   9  -3  -3   60.79    7.80
  -9   3   3   91.49   11.80
   8  -3  -3   74.79    7.20
   8  -3  -3  113.49   13.30
   8  -3  -3   97.89   11.20
   8  -3  -3  102.99   10.20
  -8   3   3  103.39   10.60
  -8   3   3   90.79   11.00
   7  -3  -3  509.05   23.30
   7  -3  -3  487.95   19.00
   7  -3  -3  472.95   20.90
   7  -3  -3  503.75   21.40
  -7   3   3  489.25   23.40
  -7   3   3  505.75   21.00
   6  -3  -3  459.25   19.70
   6  -3  -3  479.25   21.60
   6  -3  -3  481.75   19.90
  -6   3   3  482.35   19.60
  -6   3   3  455.75   19.80
   5  -3  -3  295.87   14.90
   5  -3  -3  286.07   13.30
   5  -3  -3  282.47   13.00
  -5   3   3  291.97   13.10
  -5   3   3  291.07   12.50
   4  -3  -3  103.99    8.90
   4  -3  -3   98.39    6.50
   4  -3  -3   91.09    6.90
  -4   3   3   91.29    6.00
  -4   3   3  102.49    6.60
   3  -3  -3  913.41   34.50
   3  -3  -3  935.71   34.60
   3  -3  -3  958.00   36.50
  -3   3   3  931.31   34.40
  -3   3   3  916.21   34.60
  -3   3   3  941.21   34.40
   2  -3  -3  310.37   12.70
   2  -3  -3  312.77   14.90
   2  -3  -3  324.07   12.50
  -2   3   3  302.27   12.30
  -2   3   3  319.37   12.40
  -2   3   3  309.87   12.70
   1  -3  -3  560.94   20.40
   1  -3  -3  541.85   22.80
   1  -3  -3  559.44   20.60
  -1   3   3  546.15   20.40
  -1   3   3  548.45   20.80
  -1   3   3  545.95   20.50
   0  -3  -3 1633.54   56.89
   0  -3  -3 1549.74   58.99
   0   3   3 1590.54   57.19
   0   3   3 1540.55   56.69
  -1  -3  -3 1903.31   73.89
   1   3   3 2022.90   71.79
   1   3   3 1967.00   72.09
   1   3   3 2099.59   72.19
  -2  -3  -3   74.79    8.10
   2   3   3   72.99    4.80
   2   3   3   67.09    5.20
   2   3   3   68.59    5.20
  -3  -3  -3  136.29   10.30
   3   3   3  136.69    7.20
   3   3   3  133.79    7.20
   3   3   3  130.09    7.20
  -4  -3  -3  859.71   34.10
   4   3   3  827.62   31.60
   4   3   3  849.12   31.60
   4   3   3  841.72   31.50
  -5  -3  -3  412.56   19.60
   5   3   3  407.96   16.90
   5   3   3  402.96   16.60
   5   3   3  395.56   16.60
  -6  -3  -3  411.96   21.30
  -6  -3  -3  442.96   19.40
   6   3   3  426.26   18.40
   6   3   3  413.56   17.60
  -7  -3  -3    1.70   10.40
   7   3   3    4.10    5.50
   7   3   3   -0.50    4.70
  -8  -3  -3   50.79    9.00
   8   3   3   50.99    6.60
   8   3   3   40.50    6.90
  -9  -3  -3   88.29   10.90
   9   3   3  100.79   13.50
   9   3   3   79.59   11.40
 -10  -3  -3   28.70   10.80
  10   3   3   17.20    8.90
  10   3   3   12.10    7.60
  11  -4  -3   49.10    9.70
 -11   4   3   46.50    9.70
  10  -4  -3   -6.80    7.30
 -10   4   3   -1.40    7.30
   9  -4  -3   -3.50    6.40
  -9   4   3    1.50    6.90
   8  -4  -3   -2.70   10.10
   8  -4  -3    6.50    5.80
  -8   4   3    3.60    6.20
   7  -4  -3   88.19   11.70
   7  -4  -3  100.39   10.20
  -7   4   3  102.49    9.90
   6  -4  -3   75.49    8.80
   6  -4  -3   80.99    8.50
  -6   4   3   85.39    7.80
  -6   4   3   75.09    8.50
   5  -4  -3    3.40    4.00
   5  -4  -3   -4.50    6.10
  -5   4   3    2.80    4.20
  -5   4   3   -0.50    2.90
   4  -4  -3  537.75   23.10
   4  -4  -3  541.25   21.50
  -4   4   3  542.05   21.70
  -4   4   3  582.44   21.40
   3  -4  -3  963.40   35.20
   3  -4  -3  945.21   35.20
  -3   4   3  933.11   35.40
   2  -4  -3   74.49    5.30
   2  -4  -3   71.59    5.80
  -2   4   3   83.89    6.30
  -2   4   3   79.79    5.30
   1  -4  -3   42.00    4.90
   1  -4  -3   48.80    4.10
  -1   4   3   50.99    5.30
  -1   4   3   53.89    4.10
   0  -4  -3  428.96   16.30
   0   4   3  422.16   15.90
   0   4   3  416.16   16.80
  -1  -4  -3 1549.05   55.89
   1   4   3 1571.84   55.79
   1   4   3 1517.15   56.39
   2   4   3  672.23   25.10
   2   4   3  663.43   24.70
   2   4   3  650.53   25.20
   3   4   3  122.99    7.00
   3   4   3  110.79    7.00
   3   4   3  111.79    7.60
   4   4   3   13.70    3.50
   4   4   3    8.60    4.00
   4   4   3   14.30    3.70
   5   4   3  272.97   13.10
   5   4   3  255.97   12.40
   5   4   3  272.37   12.50
  -6  -4  -3  122.89   13.50
   6   4   3  104.09    9.10
   6   4   3  120.39   10.30
  -7  -4  -3   -4.80    7.80
   7   4   3   -6.70    4.70
   7   4   3    0.00    5.80
  -8  -4  -3   55.79    9.50
   8   4   3   70.09    9.60
   8   4   3   59.49    7.90
  -9  -4  -3   27.50   10.50
   9   4   3   29.10    8.50
   9   4   3   32.90    6.90
  11  -5  -3   -1.70    9.00
 -11   5   3   -1.70    9.10
  10  -5  -3  -12.20    7.40
 -10   5   3  -11.30    8.00
   9  -5  -3   -0.90    6.60
  -9   5   3  -12.50    7.40
   8  -5  -3   15.50    6.30
  -8   5   3   18.90    6.80
   7  -5  -3  192.48   12.20
  -7   5   3  168.48   12.50
   6  -5  -3  313.97   16.40
   6  -5  -3  304.97   15.10
  -6   5   3  281.57   15.30
  -6   5   3  347.17   16.00
   5  -5  -3   54.89    7.50
   5  -5  -3   42.80    5.10
  -5   5   3   55.39   10.10
  -5   5   3   45.40    6.30
   4  -5  -3  710.63   26.70
   4  -5  -3  657.93   26.30
  -4   5   3  668.33   26.90
  -4   5   3  697.63   26.20
   3  -5  -3 1948.71   70.19
   3  -5  -3 2008.20   70.29
  -3   5   3 1934.31   70.59
  -3   5   3 1833.72   69.99
   2  -5  -3  678.73   25.70
   2  -5  -3  675.43   25.20
  -2   5   3  664.33   25.20
  -2   5   3  657.63   26.00
   1  -5  -3   59.99    5.80
  -1   5   3   66.09    5.00
  -1   5   3   60.99    6.80
   0  -5  -3  147.29    7.70
   0   5   3  149.69    6.90
   0   5   3  150.08    7.40
   0   5   3  141.49    8.70
  -1  -5  -3   74.39    5.70
   1   5   3   70.19    4.80
   1   5   3   59.49    7.20
  -2  -5  -3  200.28    9.50
   2   5   3  204.38    9.40
   2   5   3  199.58    9.60
   2   5   3  204.48   10.60
   3   5   3   73.49    6.70
   3   5   3   78.69    7.80
   3   5   3   80.79    6.50
   4   5   3  150.78    8.80
   4   5   3  124.79   14.10
   4   5   3  161.78    9.20
   5   5   3  493.85   20.40
   5   5   3  483.55   20.40
   5   5   3  481.75   19.90
  -6  -5  -3   17.30    8.40
   6   5   3   17.60    5.70
   6   5   3   18.80    8.30
   6   5   3   15.70    5.80
  -7  -5  -3   66.49    9.80
   7   5   3   54.59    7.80
   7   5   3   54.79    6.60
  -8  -5  -3   73.79   11.10
   8   5   3   77.29    9.40
   8   5   3   72.29   10.30
  10  -6  -3  -14.70    8.10
 -10   6   3   -1.10    8.90
   9  -6  -3    2.30    7.30
  -9   6   3   -2.90    7.80
   8  -6  -3  232.28   14.90
  -8   6   3  237.58   15.80
   7  -6  -3  232.88   14.80
  -7   6   3  228.28   15.00
   6  -6  -3  131.59   12.60
  -6   6   3  137.49   11.50
   5  -6  -3    7.90    4.80
  -5   6   3    7.80    5.70
   4  -6  -3  111.19    8.60
  -4   6   3  121.19   10.10
   3  -6  -3  114.19    8.20
   3  -6  -3  113.39    8.20
  -3   6   3  119.19    7.50
  -3   6   3  122.69    9.50
   2  -6  -3   26.80    4.40
  -2   6   3   28.50    8.60
   1  -6  -3  213.28   10.90
  -1   6   3  231.98    9.90
   0  -6  -3  860.21   30.80
   0   6   3  865.11   30.00
   0   6   3  694.13   34.40
   0   6   3  839.62   30.30
  -1  -6  -3   43.20    6.10
   1   6   3   36.20    4.40
   1   6   3   31.20    5.50
   1   6   3   44.20    4.70
  -2  -6  -3    1.90    4.50
   2   6   3    2.40    4.80
   2   6   3    3.20    3.10
   3   6   3   -0.20    5.00
   3   6   3   11.40    3.70
   3   6   3    6.50    3.90
   4   6   3  199.08   10.80
   4   6   3  208.08   13.10
   4   6   3  190.88   12.10
   5   6   3  292.07   15.20
   5   6   3  288.57   13.90
   5   6   3  307.67   15.00
  -6  -6  -3   47.60   10.20
   6   6   3   47.80    5.70
   6   6   3   38.20    6.80
   6   6   3   52.59    7.40
  -7  -6  -3   11.10    9.70
   7   6   3   15.00    7.10
   7   6   3   12.80    5.50
   9  -7  -3    0.20    7.20
  -9   7   3   -8.20    9.30
   8  -7  -3   24.70    7.10
  -8   7   3   12.40    8.60
   7  -7  -3   68.19    7.90
  -7   7   3   66.39    9.00
   6  -7  -3   -1.90    5.60
  -6   7   3   -1.30    6.90
   5  -7  -3   42.00    6.30
  -5   7   3   40.30    7.20
   4  -7  -3   88.19    9.20
  -4   7   3   97.59   10.80
   3  -7  -3  105.69    8.40
  -3   7   3  111.89   10.90
   2  -7  -3    1.70    4.30
  -2   7   3    7.50    5.70
   1  -7  -3  116.79    8.80
  -1   7   3  122.19   10.90
   0  -7  -3  424.56   17.30
   0   7   3  408.66   19.10
  -1  -7  -3  306.97   15.60
   1   7   3  297.17   15.50
   1   7   3  317.57   12.80
  -2  -7  -3   10.00    4.30
   2   7   3   -1.00    5.50
   2   7   3    7.70    3.70
  -3  -7  -3   -4.70    5.00
   3   7   3    9.90    6.00
   3   7   3    8.30    4.50
   4   7   3   53.79    7.50
   4   7   3   47.90    6.00
   5   7   3    8.30    5.80
   5   7   3   10.30    6.50
   6   7   3   11.50    7.30
   6   7   3    9.10    6.60
   8  -8  -3   62.49    8.90
  -8   8   3   57.49   10.70
   7  -8  -3   35.00    7.10
  -7   8   3   23.50    9.10
   6  -8  -3    6.30    6.80
  -6   8   3   19.90    8.30
   5  -8  -3  107.49   10.90
  -5   8   3  107.59   13.50
   4  -8  -3  270.87   13.80
  -4   8   3  266.77   16.50
   3  -8  -3  179.58   11.30
  -3   8   3  177.98   13.90
   2  -8  -3   72.79    8.40
  -2   8   3   87.59   11.60
  -1   8   3   24.40    7.00
   0   8   3   60.29    7.80
   1   8   3   14.60    6.80
   2   8   3   -1.20    6.20
   3   8   3    3.20    5.10
   3   8   3    6.80    6.70
   4   8   3   41.70    8.30
   4   8   3   57.69    6.40
  -6   9   3   -0.60    9.10
  -5   9   3    1.90    9.00
  -4   9   3    5.10    8.30
  -3   9   3    0.60    8.20
  -2   9   3   16.30    8.30
  -1   9   3    4.90    8.30
   0   9   3   36.70    8.50
   1   9   3   -0.40    7.60
   2   9   3   -2.20    8.00
   2  12  -4   60.69    7.30
   2  12  -4   62.39    9.20
   1  12  -4   10.70    5.40
   1  12  -4    7.70    7.50
   0  12  -4   11.90    7.50
   0  12  -4    4.70    4.80
  -1  12  -4   10.10    7.00
  -1  12  -4    8.40    4.90
  -2  12  -4   16.90    4.80
  -2  12  -4   23.20    6.90
  -3  12  -4   10.00    7.00
  -4  12  -4   39.60    7.50
  -5  12  -4  120.89   12.90
  -6  12  -4   23.90    8.00
   4  11  -4   18.30    7.10
   4  11  -4   17.00    8.40
  -4 -11   4    4.90   12.00
   3  11  -4   59.79    8.60
   3  11  -4   65.19    7.70
   2  11  -4   16.70    7.10
   2  11  -4   11.30    5.40
   1  11  -4    6.40    6.60
   1  11  -4    7.60    5.20
   0  11  -4  125.79   11.00
   0  11  -4  103.59   11.30
  -1  11  -4  261.07   14.30
  -1  11  -4  243.78   12.90
  -2  11  -4  219.28   13.90
  -2  11  -4  249.58   13.90
  -3  11  -4   23.00    6.20
  -3  11  -4   20.80    6.20
  -4  11  -4  147.99   10.10
  -4  11  -4  141.89   11.70
  -5  11  -4  316.87   14.20
  -5  11  -4  258.87   15.60
  -6  11  -4   59.89    8.00
  -7  11  -4   -4.40    7.20
  -8  11  -4   -7.10    7.20
   6  10  -4    5.90    8.60
  -6 -10   4    9.60   11.60
   5  10  -4   44.80    7.80
  -5 -10   4   58.99   11.70
   4  10  -4  258.97   15.10
   4  10  -4  254.57   15.50
  -4 -10   4  221.58   19.10
   3  10  -4  227.68   13.50
   3  10  -4  215.88   13.90
   2  10  -4   29.00    5.70
   2  10  -4   33.20    6.40
   1  10  -4   13.20    4.80
   1  10  -4   13.20    5.70
   0  10  -4   37.80    8.80
   0  10  -4   61.09    8.90
  -1  10  -4  331.37   15.90
  -1  10  -4  383.06   16.40
  -2  10  -4  222.38   12.10
  -2  10  -4  271.97   13.70
  -3  10  -4   24.70    5.50
  -3  10  -4   19.00    4.40
  -4  10  -4  123.09    8.60
  -4  10  -4  108.39   10.00
  -5  10  -4   25.00    6.00
  -5  10  -4   31.10    4.90
  -6  10  -4    6.10    4.70
  -6  10  -4   11.60    6.00
  -7  10  -4   13.60    6.40
  -8  10  -4   40.70    8.10
  -8  10  -4   35.60    7.20
   8 -10   4   48.70    8.60
  -9  10  -4   43.00    7.70
   9 -10   4   37.50    7.60
   7   9  -4  155.78   15.80
  -7  -9   4  147.49   19.80
   6   9  -4   18.00    7.30
  -6  -9   4   31.00   10.70
   5   9  -4    9.30    6.20
  -5  -9   4    9.50    9.40
   4   9  -4  104.89   10.70
   4   9  -4   94.79   10.60
  -4  -9   4   99.79   14.60
   3   9  -4  206.78   12.60
   3   9  -4  212.68   12.40
   2   9  -4  218.08   12.40
   2   9  -4  237.48   12.50
   1   9  -4  100.39    8.70
   1   9  -4   98.79    8.40
   0   9  -4    6.70    5.90
   0   9  -4    4.70    4.10
  -1   9  -4  472.85   18.80
  -1   9  -4  389.56   18.70
  -1   9  -4  496.95   19.20
   1  -9   4  463.75   19.60
  -2   9  -4   50.19    7.00
  -2   9  -4   49.99    5.00
  -2   9  -4   61.89    6.60
   2  -9   4   42.10    8.20
  -3   9  -4  187.48   10.00
  -3   9  -4  197.78   11.60
  -3   9  -4  190.38   10.50
   3  -9   4  197.68   12.40
  -4   9  -4  369.36   16.00
  -4   9  -4  350.06   15.40
   4  -9   4  389.36   14.70
   4  -9   4  356.46   18.00
  -5   9  -4  331.77   15.40
  -5   9  -4  351.16   15.00
  -6   9  -4   69.79    8.30
  -6   9  -4   68.19    7.70
   6  -9   4   65.79    7.20
  -7   9  -4    2.50    6.10
  -7   9  -4    3.00    4.90
   7  -9   4    1.90    5.00
  -8   9  -4   61.19    9.50
  -8   9  -4   60.79    6.20
   8  -9   4   56.49    6.90
  -9   9  -4   95.09   10.80
  -9   9  -4  135.99   10.10
   9  -9   4  103.99   12.00
 -10   9  -4   17.70    7.30
 -10   9  -4   23.00    6.00
  10  -9   4   12.90    7.50
   8   8  -4   38.50    9.20
  -8  -8   4   46.80   12.30
   7   8  -4  136.69   14.20
  -7  -8   4  136.59   17.50
   6   8  -4   48.80    7.30
  -6  -8   4   50.69    9.80
   5   8  -4   38.50    6.50
  -5  -8   4   48.90    8.90
   4   8  -4  120.69   10.30
  -4  -8   4  117.19   13.10
   3   8  -4   60.09    8.30
   3   8  -4   67.09    7.70
  -3  -8   4   62.49    8.50
   2   8  -4   40.90    5.20
  -2  -8   4   30.50    3.60
   1   8  -4   39.40    5.00
   1   8  -4   57.29    6.00
   1   8  -4   40.80    4.80
  -1  -8   4   56.49    6.70
   0   8  -4 1117.09   40.50
   0   8  -4 1108.39   40.80
   0   8  -4  980.10   40.70
   0  -8   4 1160.68   40.90
  -1   8  -4 1809.92   72.09
  -1   8  -4 2020.50   71.99
  -1   8  -4 2053.59   72.39
   1  -8   4 2045.60   72.69
  -2   8  -4  642.64   24.80
  -2   8  -4  611.64   24.40
  -2   8  -4  637.74   24.30
   2  -8   4  637.54   25.00
  -3   8  -4 1058.19   39.10
  -3   8  -4 1039.30   39.00
   3  -8   4 1063.99   39.90
  -4   8  -4  349.27   15.10
  -4   8  -4  360.86   14.90
   4  -8   4  361.26   14.20
   4  -8   4  359.66   16.30
  -5   8  -4  213.58   10.60
  -5   8  -4  215.38   12.40
  -5   8  -4  209.68   10.60
   5  -8   4  218.68   10.00
   5  -8   4  212.68   12.30
  -6   8  -4  330.07   16.20
  -6   8  -4  324.27   14.60
  -6   8  -4  334.97   14.80
   6  -8   4  347.67   14.80
   6  -8   4  346.67   16.70
  -7   8  -4    2.10    6.20
  -7   8  -4   10.50    4.30
  -7   8  -4   13.70    4.70
   7  -8   4   16.10    4.80
  -8   8  -4   18.60    5.40
  -8   8  -4   22.40    6.80
   8  -8   4   16.50    5.80
  -9   8  -4  128.49   10.70
  -9   8  -4  137.29   10.70
   9  -8   4  134.99   12.10
 -10   8  -4   26.80    6.20
 -10   8  -4   35.00    7.50
  10  -8   4   38.00    7.60
   9   7  -4  -21.20    8.40
  -9  -7   4    5.60   12.10
   8   7  -4   61.69    8.70
  -8  -7   4   73.99   11.80
   7   7  -4   67.89    8.60
   7   7  -4   84.49   11.60
  -7  -7   4   83.19   10.60
   6   7  -4   57.89    7.00
   6   7  -4   56.39    5.80
  -6  -7   4   61.29    9.00
   5   7  -4  153.08   10.90
   5   7  -4  151.18    7.70
  -5  -7   4  154.18   13.20
   4   7  -4  696.83   30.30
  -4  -7   4  577.04   24.40
  -4  -7   4  653.23   30.70
   3   7  -4  449.46   18.40
   3   7  -4  429.06   18.00
  -3  -7   4  447.26   17.90
  -3  -7   4  433.96   19.40
   2   7  -4  115.69    7.60
   2   7  -4  123.99    7.50
   2   7  -4  116.39    8.00
  -2  -7   4  122.69    7.50
   1   7  -4    1.80    3.20
   1   7  -4    5.50    2.70
   1   7  -4    4.10    3.50
  -1  -7   4    0.90    3.40
   0   7  -4 1281.57   52.09
   0   7  -4 1449.85   52.29
   0   7  -4 1501.25   52.99
   0   7  -4 1404.76   51.79
   0  -7   4 1468.95   52.19
  -1   7  -4 1630.64   60.99
  -1   7  -4 1627.04   61.09
  -1   7  -4 1705.33   61.39
  -1   7  -4 1706.53   60.79
   1  -7   4 1720.03   61.39
  -2   7  -4  567.34   22.00
  -2   7  -4  550.34   21.40
  -2   7  -4  542.25   21.80
  -2   7  -4  567.54   21.30
   2  -7   4  577.34   22.10
  -3   7  -4  238.48   10.10
  -3   7  -4  223.58   10.20
  -3   7  -4  223.88   10.80
   3  -7   4  221.78   11.20
   3  -7   4  242.08    9.60
  -4   7  -4  486.25   19.00
  -4   7  -4  468.65   19.60
  -4   7  -4  495.35   19.00
   4  -7   4  490.65   20.10
   4  -7   4  507.85   18.80
  -5   7  -4   16.40    3.90
  -5   7  -4   18.70    3.60
  -5   7  -4   18.30    3.40
   5  -7   4   13.90    3.40
   5  -7   4   15.00    4.30
  -6   7  -4    7.30    3.40
  -6   7  -4   -0.40    3.80
  -6   7  -4   -0.40    3.50
   6  -7   4   -5.80    4.50
   6  -7   4    0.20    3.70
  -7   7  -4   65.59    7.20
  -7   7  -4   71.49    6.90
  -7   7  -4   58.09    8.20
   7  -7   4   67.89    8.00
  -8   7  -4  324.97   16.10
  -8   7  -4  335.37   14.80
   8  -7   4  336.57   16.10
  -9   7  -4  149.19   10.70
  -9   7  -4  173.48   11.10
   9  -7   4  166.88   12.40
 -10   7  -4    1.70    8.30
 -10   7  -4   -0.40    5.50
  10  -7   4    6.30    6.60
 -11   7  -4   43.00    6.90
  11  -7   4   34.40    8.70
  10   6  -4    4.30    8.80
  10   6  -4   -8.50    5.90
 -10  -6   4    8.10   11.70
   9   6  -4   71.49    9.50
   9   6  -4   96.39   10.70
  -9  -6   4   84.29   12.30
   8   6  -4  358.26   16.90
   8   6  -4  366.56   18.90
  -8  -6   4  374.46   21.60
   7   6  -4  262.07   12.60
   7   6  -4  258.17   14.50
  -7  -6   4  259.67   17.00
   6   6  -4    6.50    3.20
   6   6  -4    5.70    5.00
  -6  -6   4    2.40    6.90
   5   6  -4  289.67   19.00
   5   6  -4  322.97   12.10
  -5  -6   4  298.07   17.30
  -5  -6   4  255.87   12.50
   4   6  -4  860.71   33.70
   4   6  -4  884.21   33.50
   4   6  -4  901.31   32.30
  -4  -6   4  881.71   33.20
  -4  -6   4  875.21   34.00
   3   6  -4 1261.77   46.90
   3   6  -4 1287.07   47.10
  -3  -6   4 1284.77   47.20
  -3  -6   4 1243.58   46.70
   2   6  -4  577.74   22.20
   2   6  -4  569.64   22.40
   2   6  -4  584.04   22.60
   2   6  -4  602.44   22.70
  -2  -6   4  587.34   22.50
   1   6  -4   10.30    2.60
   1   6  -4   12.20    3.10
   1   6  -4   15.20    2.60
   1   6  -4   13.50    2.80
  -1  -6   4   11.20    2.80
   0   6  -4  872.11   31.40
   0   6  -4  798.32   35.00
   0   6  -4  809.12   31.40
   0   6  -4  861.01   31.10
   0   6  -4  846.92   31.60
   0  -6   4  880.41   31.70
  -1   6  -4 1900.01   72.89
  -1   6  -4 1909.71   70.09
  -1   6  -4 2013.00   69.99
  -1   6  -4 1890.31   70.49
  -1   6  -4 1923.21   70.29
   1  -6   4 2012.40   70.59
  -2   6  -4  132.49   11.40
  -2   6  -4  148.19    7.60
  -2   6  -4  162.88    7.10
  -2   6  -4  148.49    7.20
  -2   6  -4  153.38    7.90
   2  -6   4  148.49    8.00
  -3   6  -4  631.34   24.40
  -3   6  -4  606.14   27.00
  -3   6  -4  681.83   23.90
  -3   6  -4  644.24   24.00
   3  -6   4  620.64   24.70
   3  -6   4  672.03   23.80
  -4   6  -4 1644.44   63.29
  -4   6  -4 1671.13   60.79
  -4   6  -4 1758.72   60.69
  -4   6  -4 1623.94   61.19
   4  -6   4 1705.93   60.79
   4  -6   4 1679.93   61.59
  -5   6  -4  894.31   33.40
  -5   6  -4  867.11   33.10
  -5   6  -4  887.11   35.50
  -5   6  -4  905.31   32.70
   5  -6   4  894.01   33.80
   5  -6   4  877.71   33.00
  -6   6  -4    3.60    3.30
  -6   6  -4   -1.10    4.90
  -6   6  -4    5.60    3.60
  -6   6  -4    7.00    3.00
   6  -6   4   -4.10    5.30
   6  -6   4    1.20    3.60
  -7   6  -4   27.50    4.50
  -7   6  -4   43.50    5.80
  -7   6  -4   16.00    7.30
  -7   6  -4   30.40    4.20
   7  -6   4   28.50    4.50
  -8   6  -4  256.77   11.80
  -8   6  -4  266.57   15.60
  -8   6  -4  222.18   15.50
   8  -6   4  237.98   13.40
  -9   6  -4  100.79    9.40
  -9   6  -4  116.09    9.00
   9  -6   4  106.39   11.10
 -10   6  -4    9.20    7.20
 -10   6  -4   -1.20    5.40
  10  -6   4    4.80    6.90
 -11   6  -4   -2.60    6.20
  11  -6   4   -1.50    7.70
  10   5  -4    7.10    7.90
  10   5  -4   -5.70    6.50
 -10  -5   4    4.40   10.70
   9   5  -4  124.19   13.10
   9   5  -4  136.09   12.30
  -9  -5   4  109.79   16.20
   8   5  -4  210.08   13.60
   8   5  -4  217.28   12.10
  -8  -5   4  207.28   16.40
   7   5  -4  183.78   11.70
   7   5  -4  180.88   10.20
  -7  -5   4  175.58   14.40
   6   5  -4   56.59   12.10
   6   5  -4   54.59    9.60
   6   5  -4   67.99    6.10
   6   5  -4   48.10    7.80
  -6  -5   4   42.70   11.40
  -6  -5   4   77.79    7.10
   5   5  -4   19.40    2.90
   5   5  -4   15.80    3.80
   5   5  -4    9.70    4.00
  -5  -5   4   14.10    3.20
   4   5  -4  570.74   22.80
   4   5  -4  590.34   21.50
   4   5  -4  568.04   22.40
   4   5  -4  568.54   25.60
  -4  -5   4  583.74   22.30
  -4  -5   4  562.04   22.70
   3   5  -4  462.15   17.90
   3   5  -4  446.96   18.10
   3   5  -4  448.26   17.60
   3   5  -4  443.76   21.00
  -3  -5   4  459.65   17.90
  -3  -5   4  438.36   18.10
   2   5  -4    6.60    2.40
   2   5  -4    1.00    4.50
   2   5  -4    7.70    2.30
   2   5  -4    0.80    2.70
  -2  -5   4    3.20    2.50
  -2  -5   4    9.20    3.50
   1   5  -4 2747.23   99.59
   1   5  -4 2782.22   99.29
   1   5  -4 2794.72  101.89
   1   5  -4 2705.03   99.39
   1   5  -4 2758.72   98.99
  -1  -5   4 2779.92   99.79
   0   5  -4 4884.21  177.88
   0   5  -4 4873.21  180.18
   0   5  -4 5004.30  177.58
   0   5  -4 4986.10  178.18
   0   5  -4 4857.21  177.88
   0  -5   4 5228.88  178.38
  -1   5  -4 1356.96   49.70
  -1   5  -4 1391.76   49.90
  -1   5  -4 1354.56   49.50
  -1   5  -4 1309.57   51.89
   1  -5   4 1404.66   50.09
   1  -5   4 1380.56   49.90
  -2   5  -4  640.04   23.90
  -2   5  -4  626.14   23.30
  -2   5  -4  629.14   23.60
  -2   5  -4  609.44   25.90
   2  -5   4  639.84   23.60
   2  -5   4  619.34   23.80
  -3   5  -4 1249.77   47.20
  -3   5  -4 1270.37   46.90
  -3   5  -4 1294.37   49.20
   3  -5   4 1324.77   47.20
   3  -5   4 1355.96   46.90
   3  -5   4 1268.47   47.40
  -4   5  -4 1644.14   60.79
  -4   5  -4 1689.83   61.19
  -4   5  -4 1725.93   62.89
   4  -5   4 1612.14   61.29
   4  -5   4 1725.93   61.19
   4  -5   4 1702.03   60.89
  -5   5  -4  352.46   14.60
  -5   5  -4  341.37   14.10
  -5   5  -4  369.26   16.60
  -5   5  -4  366.16   13.80
   5  -5   4  354.56   14.40
   5  -5   4  352.96   14.40
   5  -5   4  341.27   15.10
  -6   5  -4   -2.40    3.10
  -6   5  -4    1.60    2.50
  -6   5  -4    2.30    3.10
  -6   5  -4    1.20    4.10
   6  -5   4    3.60    3.60
   6  -5   4    0.50    2.70
  -7   5  -4   14.50    4.50
  -7   5  -4   21.30    4.00
  -7   5  -4   26.60    4.00
  -7   5  -4   11.00    3.90
   7  -5   4   15.60    3.40
   7  -5   4   16.30    4.10
  -8   5  -4  171.88    9.00
  -8   5  -4  153.58   11.30
   8  -5   4  159.38   11.00
  -9   5  -4   64.69    6.40
   9  -5   4   74.49   10.10
 -10   5  -4    0.90    5.30
 -10   5  -4   -2.00    5.60
  10  -5   4    3.60    6.70
 -11   5  -4   19.00    6.70
  11  -5   4   21.30    8.40
  11   4  -4   15.70    7.80
  11   4  -4   14.00    8.30
 -11  -4   4   22.80   11.30
  10   4  -4   -6.00    6.70
  10   4  -4    5.80    6.60
 -10  -4   4   -1.10    9.80
   9   4  -4   61.19    7.10
   9   4  -4   60.99    7.50
  -9  -4   4   60.99    9.70
   8   4  -4  273.57   17.40
   8   4  -4  259.37   14.00
   8   4  -4  257.27   14.50
  -8  -4   4  256.27   16.40
   7   4  -4   43.90    5.70
   7   4  -4   55.09    7.30
   7   4  -4   42.40    9.90
   7   4  -4   51.09    5.80
  -7  -4   4   49.99    6.80
  -7  -4   4   49.60    7.40
   6   4  -4  332.77   14.30
   6   4  -4  338.47   15.10
   6   4  -4  326.07   13.90
   6   4  -4  286.37   16.90
  -6  -4   4  335.27   14.10
  -6  -4   4  321.77   15.80
   5   4  -4  116.09   10.90
   5   4  -4  125.49    8.50
   5   4  -4  132.99    7.00
   5   4  -4  125.79    7.70
  -5  -4   4  142.59    9.50
  -5  -4   4  132.69    7.70
   4   4  -4 1406.36   50.69
   4   4  -4 1348.77   52.89
   4   4  -4 1425.36   51.09
   4   4  -4 1382.36   49.99
   4   4  -4 1335.57   50.39
  -4  -4   4 1355.26   50.69
  -4  -4   4 1389.36   50.49
   3   4  -4 2233.68   83.79
   3   4  -4 2387.36   84.59
   3   4  -4 2329.77   86.49
   3   4  -4 2413.86   84.19
   3   4  -4 2385.96   84.09
  -3  -4   4 2271.57   84.09
  -3  -4   4 2295.07   84.89
   2   4  -4   32.90    7.40
   2   4  -4   29.30    4.30
   2   4  -4   30.80    3.80
  -2  -4   4   36.30    4.40
  -2  -4   4   35.20    4.50
   1   4  -4 1439.36   55.59
   1   4  -4 1467.95   53.19
   1   4  -4 1477.15   53.19
   1   4  -4 1461.05   53.49
  -1  -4   4 1493.05   53.39
  -1  -4   4 1444.56   53.19
  -1  -4   4 1498.85   53.19
   0   4  -4 7311.07  259.27
   0   4  -4 7269.77  258.97
   0   4  -4 7109.09  261.07
   0   4  -4 7316.97  258.87
   0  -4   4 7341.47  259.17
   0  -4   4 7177.88  258.97
  -1   4  -4  373.06   14.20
  -1   4  -4  371.76   14.50
  -1   4  -4  355.36   16.60
  -1   4  -4  374.06   14.10
   1  -4   4  376.46   14.20
   1  -4   4  362.86   14.50
  -2   4  -4    1.10    2.20
  -2   4  -4    0.40    3.10
  -2   4  -4   -1.40    1.80
  -2   4  -4   -0.20    1.80
   2  -4   4    2.20    1.90
   2  -4   4    0.40    1.60
   2  -4   4   -0.20    1.90
  -3   4  -4  183.68    8.10
  -3   4  -4  183.78   10.40
  -3   4  -4  179.78    7.70
   3  -4   4  180.78    8.00
   3  -4   4  194.08    7.90
   3  -4   4  175.28    8.30
  -4   4  -4  348.37   16.80
  -4   4  -4  356.66   14.30
  -4   4  -4  382.66   16.50
   4  -4   4  377.96   14.50
   4  -4   4  383.06   14.60
   4  -4   4  374.06   15.00
  -5   4  -4  141.69    9.20
  -5   4  -4  126.49    7.10
  -5   4  -4  143.39    7.20
   5  -4   4  135.69    7.30
   5  -4   4  136.19    7.80
   5  -4   4  149.49    7.00
  -6   4  -4   11.20    3.90
  -6   4  -4    6.50    3.30
  -6   4  -4    2.90    2.90
  -6   4  -4   14.20    2.60
   6  -4   4    5.60    3.50
   6  -4   4    5.90    2.60
   6  -4   4   10.30    5.30
  -7   4  -4  100.99    7.70
  -7   4  -4  112.39    7.50
  -7   4  -4  122.39    6.50
  -7   4  -4  112.99    8.50
   7  -4   4  121.09   10.20
   7  -4   4  113.49    7.10
   7  -4   4   96.89    8.30
  -8   4  -4  243.98   12.50
  -8   4  -4  278.07   11.60
   8  -4   4  241.38   13.60
  -9   4  -4  213.68   10.50
  -9   4  -4  176.48   11.70
   9  -4   4  179.88   12.60
 -10   4  -4   32.60    5.80
 -10   4  -4   32.30    6.40
  10  -4   4   26.70    7.40
 -11   4  -4   52.69    7.60
  11  -4   4   55.79    9.00
  11   3  -4   14.50    7.80
  11   3  -4   11.70    7.80
 -11  -3   4   29.80   10.30
  10   3  -4    0.00    6.40
  10   3  -4   -6.80    6.40
 -10  -3   4   -0.50    8.70
   9   3  -4   66.39    7.10
   9   3  -4   71.59    7.50
  -9  -3   4   69.29    9.60
   8   3  -4  548.65   24.40
   8   3  -4  594.04   23.20
  -8  -3   4  548.45   25.00
   7   3  -4  576.54   26.20
   7   3  -4  626.24   24.40
   7   3  -4  683.43   25.50
   7   3  -4  647.44   24.60
  -7  -3   4  566.94   30.80
  -7  -3   4  604.24   24.30
   6   3  -4   59.39    6.80
   6   3  -4   58.89    6.30
   6   3  -4   53.29    7.30
   6   3  -4   42.50    8.90
  -6  -3   4   65.59    8.10
  -6  -3   4   82.79    8.90
   5   3  -4 1240.78   44.50
   5   3  -4 1201.28   43.90
   5   3  -4 1107.89   45.90
   5   3  -4 1191.68   43.50
   5   3  -4 1224.98   43.60
  -5  -3   4 1155.18   44.00
  -5  -3   4 1164.78   44.10
   4   3  -4 1161.08   46.50
   4   3  -4 1215.58   44.10
   4   3  -4 1163.78   43.70
   4   3  -4 1240.18   43.80
   4   3  -4 1224.08   44.60
  -4  -3   4 1166.28   44.20
  -4  -3   4 1209.98   44.10
   3   3  -4 3481.45  123.59
   3   3  -4 3338.97  125.49
   3   3  -4 3175.48  122.89
   3   3  -4 3650.93  123.09
   3   3  -4 3357.86  123.09
  -3  -3   4 3467.75  123.19
  -3  -3   4 3530.45  123.49
   2   3  -4  561.74   22.10
   2   3  -4  562.94   24.70
   2   3  -4  608.94   21.70
   2   3  -4  578.14   21.70
  -2  -3   4  581.04   21.80
  -2  -3   4  578.44   21.90
  -2  -3   4  586.84   21.80
   1   3  -4  924.91   34.20
   1   3  -4  922.81   34.50
   1   3  -4  923.71   37.00
   1   3  -4  974.30   34.10
  -1  -3   4  947.41   34.40
  -1  -3   4  932.01   34.20
   0   3  -4 3699.23  130.39
   0   3  -4 3537.65  132.59
   0   3  -4 3705.23  129.99
   0   3  -4 3679.43  130.39
   0  -3   4 3458.05  130.19
   0  -3   4 3727.43  130.39
  -1   3  -4  223.18    9.20
  -1   3  -4  216.18    9.50
  -1   3  -4  225.88    8.70
  -1   3  -4  211.88   11.90
   1  -3   4  219.48    9.20
   1  -3   4  229.68    8.90
   1  -3   4  235.68   14.00
  -2   3  -4  831.52   33.30
  -2   3  -4  858.11   31.20
  -2   3  -4  849.72   31.10
   2  -3   4  846.12   31.10
   2  -3   4  846.72   31.30
   2  -3   4  870.81   31.10
   2  -3   4  853.01   34.00
  -3   3  -4 2822.22  100.49
  -3   3  -4 2760.92  102.09
  -3   3  -4 2762.52  100.29
   3  -3   4 2708.03  100.49
   3  -3   4 2793.72  100.39
   3  -3   4 2893.31  102.99
   3  -3   4 2850.21  100.49
  -4   3  -4 1691.03   61.99
  -4   3  -4 1680.63   61.99
  -4   3  -4 1739.53   63.59
   4  -3   4 1840.82   64.89
   4  -3   4 1662.13   62.19
   4  -3   4 1689.43   62.19
   4  -3   4 1721.93   62.09
  -5   3  -4  519.35   20.10
  -5   3  -4  544.85   20.10
  -5   3  -4  542.95   21.50
   5  -3   4  525.45   20.70
   5  -3   4  490.75   20.50
   5  -3   4  524.85   20.50
   5  -3   4  563.34   23.10
  -6   3  -4    8.40    2.80
  -6   3  -4    1.10    2.50
  -6   3  -4    3.80    3.40
  -6   3  -4    2.10    3.30
   6  -3   4    1.10    3.30
   6  -3   4    4.20    4.00
  -7   3  -4  696.93   27.20
  -7   3  -4  678.93   26.80
  -7   3  -4  738.63   26.60
   7  -3   4  725.93   27.70
  -8   3  -4  447.86   17.60
  -8   3  -4  427.36   18.50
   8  -3   4  416.06   19.00
   8  -3   4  441.46   19.10
  -9   3  -4  114.39   10.60
  -9   3  -4  132.59    9.20
   9  -3   4  136.19   11.60
   9  -3   4  118.29   10.80
 -10   3  -4   13.40    5.80
 -10   3  -4    8.70    6.40
  10  -3   4   -2.60    6.70
  10  -3   4    5.90    6.70
 -11   3  -4   80.09    9.10
  11  -3   4  115.29   13.90
  11   2  -4    7.70    7.00
  11   2  -4    0.30    7.80
 -11  -2   4   32.60    9.70
  10   2  -4  -12.30    6.50
  10   2  -4   -0.20    5.70
 -10  -2   4    6.40    8.10
   9   2  -4  185.18   11.70
   9   2  -4  193.88   13.20
  -9  -2   4  182.18   14.20
   8   2  -4  820.22   36.00
   8   2  -4  833.82   31.60
   8   2  -4  775.82   32.70
  -8  -2   4  834.12   35.30
  -8  -2   4  804.52   33.00
   7   2  -4  287.97   13.50
   7   2  -4  275.37   12.30
   7   2  -4  231.38   14.40
   7   2  -4  265.47   13.10
  -7  -2   4  254.37   14.60
  -7  -2   4  267.37   12.60
   6   2  -4   12.20    3.30
   6   2  -4   14.40    3.60
   6   2  -4   11.40    4.60
   6   2  -4    9.90    3.80
   6   2  -4    7.30    3.70
  -6  -2   4   10.90    3.30
  -6  -2   4    9.70    5.10
   5   2  -4 1910.61   66.69
   5   2  -4 1787.32   66.09
   5   2  -4 1864.21   66.39
   5   2  -4 1712.33   68.59
   5   2  -4 1831.02   65.69
  -5  -2   4 1818.52   66.19
  -5  -2   4 1790.02   66.49
   4   2  -4 1232.38   44.40
   4   2  -4 1160.08   43.70
   4   2  -4 1189.88   44.00
   4   2  -4 1233.38   43.50
   4   2  -4 1141.09   46.60
  -4  -2   4 1185.78   44.10
  -4  -2   4 1206.58   44.10
   3   2  -4  604.04   21.30
   3   2  -4  541.35   24.70
   3   2  -4  589.64   21.60
   3   2  -4  566.14   21.40
   3   2  -4  549.15   21.90
  -3  -2   4  579.64   21.80
  -3  -2   4  566.64   21.70
  -3  -2   4  544.95   21.60
   2   2  -4 1324.67   49.80
   2   2  -4 1294.97   52.39
   2   2  -4 1432.16   49.30
   2   2  -4 1328.17   49.50
   2   2  -4 1403.06   49.50
  -2  -2   4 1345.47   49.70
  -2  -2   4 1321.77   49.60
  -2  -2   4 1414.96   57.49
  -2  -2   4 1423.56   50.29
   1   2  -4 6555.94  229.68
   1   2  -4 6354.86  232.28
   1   2  -4 6425.16  229.48
   1   2  -4 6081.79  229.48
  -1  -2   4 6176.78  229.38
  -1  -2   4 6363.16  229.48
  -1  -2   4 7022.60  232.68
   0   2  -4 1307.37   48.60
   0   2  -4 1327.97   48.70
   0   2  -4 1287.47   51.59
   0   2  -4 1364.96   48.80
   0  -2   4 1311.77   48.70
   0  -2   4 1462.35   51.79
   0  -2   4 1360.56   48.80
  -1   2  -4  106.19    5.30
  -1   2  -4  113.29    4.90
  -1   2  -4  107.59    5.00
  -1   2  -4   99.79    9.00
   1  -2   4  118.79    9.40
   1  -2   4  107.49    5.30
   1  -2   4  114.49    5.30
  -2   2  -4  137.09   10.00
  -2   2  -4  154.08    6.50
  -2   2  -4  157.48    6.40
   2  -2   4  153.78    6.80
   2  -2   4  153.88    6.70
   2  -2   4  161.48   10.40
  -3   2  -4 3688.63  136.29
  -3   2  -4 3834.72  134.09
  -3   2  -4 3700.73  134.09
   3  -2   4 3392.26  134.09
   3  -2   4 4069.19  136.79
   3  -2   4 3908.71  134.39
   3  -2   4 3653.23  134.19
  -4   2  -4  854.51   32.60
  -4   2  -4  906.21   35.00
  -4   2  -4  907.61   32.50
   4  -2   4  881.01   32.90
   4  -2   4  929.91   35.00
   4  -2   4  856.01   32.70
   4  -2   4  897.71   32.50
  -5   2  -4  428.96   17.40
  -5   2  -4  468.95   19.10
  -5   2  -4  448.46   17.00
   5  -2   4  448.46   17.70
   5  -2   4  466.85   19.00
   5  -2   4  424.66   18.50
   5  -2   4  442.06   17.00
  -6   2  -4    0.30    2.20
  -6   2  -4   -5.00    3.30
  -6   2  -4    4.00    3.50
   6  -2   4   -1.70    3.40
   6  -2   4   -0.30    2.30
   6  -2   4    1.40    3.50
  -7   2  -4  186.58   10.40
  -7   2  -4  214.18    9.50
   7  -2   4  221.88    9.90
   7  -2   4  216.98   11.30
   7  -2   4  208.48   11.40
  -8   2  -4   89.19    8.40
   8  -2   4  102.39    9.30
   8  -2   4   97.49    9.80
  -9   2  -4   48.40    6.10
   9  -2   4   39.40    6.90
   9  -2   4   40.20    8.00
  10  -2   4    0.90    6.40
  10  -2   4   -1.20    7.00
  11  -2   4   34.50    9.20
  11  -2   4   37.80    8.90
  11   1  -4   30.80    7.50
  11   1  -4   39.70    9.10
 -11  -1   4   43.50    8.90
  10   1  -4  -10.50    6.70
  10   1  -4    7.10    5.90
 -10  -1   4    5.10    7.60
   9   1  -4  228.18   12.70
   9   1  -4  244.98   15.00
  -9  -1   4  245.68   15.60
   8   1  -4  317.97   14.10
   8   1  -4  310.77   15.80
   8   1  -4  307.87   16.40
  -8  -1   4  317.47   16.60
  -8  -1   4  321.77   15.00
   7   1  -4   25.80    5.40
   7   1  -4   19.30    4.80
   7   1  -4   24.40    4.00
  -7  -1   4   16.40    5.40
  -7  -1   4   22.50    4.10
   6   1  -4  369.36   16.60
   6   1  -4  403.06   16.60
   6   1  -4  389.16   15.40
   6   1  -4  384.76   19.20
   6   1  -4  384.96   17.30
  -6  -1   4  387.76   17.10
  -6  -1   4  395.96   16.20
   5   1  -4 1680.03   63.79
   5   1  -4 1744.83   63.19
   5   1  -4 1728.23   66.79
   5   1  -4 1779.52   64.09
   5   1  -4 1797.72   64.19
  -5  -1   4 1747.13   63.99
  -5  -1   4 1771.72   63.89
   4   1  -4  908.61   33.20
   4   1  -4  921.91   32.20
   4   1  -4  845.52   35.80
   4   1  -4  867.11   32.80
   4   1  -4  845.72   32.60
  -4  -1   4  901.61   33.00
  -4  -1   4  874.51   33.00
  -4  -1   4  861.61   32.70
   3   1  -4   80.79    6.10
   3   1  -4   93.29    4.90
   3   1  -4   97.09    5.50
   3   1  -4   86.79    9.20
   3   1  -4   87.29    5.40
  -3  -1   4   85.59    5.50
  -3  -1   4   87.29    5.70
  -3  -1   4   99.29    5.50
   2   1  -4    4.20    3.90
   2   1  -4    5.50    2.10
   2   1  -4    9.20    3.20
   2   1  -4   16.20    2.40
  -2  -1   4    9.80    1.90
  -2  -1   4   13.90    2.00
  -2  -1   4    2.50    2.80
   1   1  -4 3567.64  141.99
   1   1  -4 4091.89  138.89
   1   1  -4 3801.22  139.09
   1   1  -4 3774.72  139.19
  -1  -1   4 4288.57  143.69
  -1  -1   4 3798.72  139.19
  -1  -1   4 3885.31  139.19
   0   1  -4 1661.53   62.39
   0   1  -4 1710.83   62.19
   0  -1   4 1820.82   62.39
   0  -1   4 1671.33   62.29
   0  -1   4 1780.12   64.99
  -1   1  -4 1905.11   68.19
  -1   1  -4 1872.11   68.19
  -1   1  -4 1699.83   71.19
   1  -1   4 1919.81   68.29
   1  -1   4 2062.49   68.49
   1  -1   4 1825.82   68.19
   1  -1   4 2020.20   70.99
  -2   1  -4  208.88    8.20
  -2   1  -4  201.98   12.50
  -2   1  -4  217.98    8.40
   2  -1   4  204.28    8.40
   2  -1   4  222.08    8.80
   2  -1   4  211.68   11.70
  -3   1  -4 1039.60   36.80
  -3   1  -4  953.00   40.00
  -3   1  -4 1023.50   37.00
   3  -1   4 1017.90   37.00
   3  -1   4 1026.40   36.90
   3  -1   4 1024.10   37.30
   3  -1   4 1046.60   39.10
  -4   1  -4  113.79   10.10
  -4   1  -4  128.39    5.40
   4  -1   4  127.79    8.10
   4  -1   4  123.69    5.60
   4  -1   4  131.09    6.60
   4  -1   4  119.29    5.90
   4  -1   4  110.49    6.60
  -5   1  -4  105.29   10.30
  -5   1  -4  125.29    5.70
   5  -1   4  127.39    5.90
   5  -1   4  119.49    7.20
   5  -1   4  129.19    7.70
   5  -1   4  115.69    7.10
  -6   1  -4   95.69    8.00
  -6   1  -4  103.69    9.40
   6  -1   4   95.39    7.50
   6  -1   4   76.29    7.80
   6  -1   4   98.69    5.60
  -7   1  -4  514.75   21.00
   7  -1   4  488.85   22.90
  -8   1  -4  216.48   16.40
   8  -1   4  218.48   13.20
   8  -1   4  219.88   12.50
  -9   1  -4   17.00    6.90
   9  -1   4   24.00    6.70
   9  -1   4   20.00    6.20
  10  -1   4   32.90    7.80
  10  -1   4   35.80    7.40
  11  -1   4   34.50    9.30
  11  -1   4   31.60    8.60
  12   0  -4   10.10   10.10
  12   0  -4    6.00    7.60
 -12   0   4   29.40    9.60
  11   0  -4    2.30    6.30
  11   0  -4    3.50    8.40
 -11   0   4   21.00    8.30
  10   0  -4  115.49   13.70
  10   0  -4  144.99   11.70
 -10   0   4  149.39   13.90
   9   0  -4  524.35   24.20
   9   0  -4  573.24   22.70
  -9   0   4  568.44   24.40
   8   0  -4   62.49    7.00
   8   0  -4   60.49    6.90
  -8   0   4   53.49    6.00
  -8   0   4   68.59    7.40
   7   0  -4    1.90    3.20
   7   0  -4    9.00    4.10
   7   0  -4   -0.90    4.30
  -7   0   4    5.30    4.90
  -7   0   4    3.70    3.80
   6   0  -4  341.37   13.70
   6   0  -4  329.67   15.00
   6   0  -4  384.46   18.70
   6   0  -4  336.57   15.00
  -6   0   4  340.67   15.40
  -6   0   4  323.17   14.70
   5   0  -4 2475.35   88.99
   5   0  -4 2366.96   85.79
   5   0  -4 2368.66   85.99
   5   0  -4 2376.36   84.79
  -5   0   4 2326.77   85.69
  -5   0   4 2257.17   85.49
   4   0  -4  946.31   35.30
   4   0  -4  962.70   35.60
   4   0  -4  928.61   38.20
  -4   0   4  973.20   35.50
  -4   0   4  948.21   35.40
  -4   0   4  951.50   35.40
   3   0  -4  499.75   21.90
   3   0  -4  497.65   19.00
   3   0  -4  502.35   19.10
  -3   0   4  469.35   18.80
  -3   0   4  496.45   19.00
  -3   0   4  493.35   19.30
   2   0  -4   10.00    3.70
   2   0  -4   10.00    2.20
   2   0  -4    7.50    1.90
  -2   0   4    7.00    1.90
  -2   0   4   12.90    2.20
  -2   0   4   10.90    2.10
   1   0  -4  585.14   22.20
   1   0  -4  632.44   22.10
   1   0  -4  570.34   24.90
  -1   0   4  593.44   22.30
   0   0  -4 2228.38   88.09
   0   0  -4 2440.76   85.49
   0   0  -4 2308.97   85.59
   0   0   4 2347.47   85.59
   0   0   4 2415.66   85.59
   0   0   4 2572.64   85.79
  -1   0  -4  116.29    8.90
  -1   0  -4  117.59    5.10
  -1   0  -4  120.69    5.80
   1   0   4  116.19    5.20
   1   0   4  118.19    5.10
   1   0   4  124.09    6.20
  -2   0  -4 3372.26  114.69
  -2   0  -4 2849.31  117.29
   2   0   4 3341.57  115.09
   2   0   4 3305.37  114.89
   2   0   4 3106.39  114.49
   2   0   4 3258.97  114.59
  -3   0  -4 1577.74   64.49
   3   0   4 1756.72   61.39
   3   0   4 1711.93   61.49
   3   0   4 1744.73   61.89
   3   0   4 1769.12   62.09
  -4   0  -4  645.44   29.10
   4   0   4  709.03   26.10
   4   0   4  713.43   26.40
   4   0   4  703.33   26.30
   4   0   4  722.63   25.50
  -5   0  -4    7.30    5.50
  -5   0  -4   14.20    3.80
   5   0   4    7.90    3.40
   5   0   4   10.10    3.50
   5   0   4   11.50    2.00
  -6   0  -4   14.10    4.80
  -6   0  -4   11.60    5.70
  -6   0  -4    7.90    4.50
   6   0   4   -0.80    4.00
   6   0   4    4.70    3.90
  -7   0  -4  254.77   13.40
   7   0   4  224.38   13.60
   7   0   4  242.08   13.10
   7   0   4  257.37   10.60
  -8   0  -4  739.23   28.50
   8   0   4  668.63   27.80
   8   0   4  654.73   28.00
  -9   0  -4  104.59   13.90
   9   0   4   86.19   11.60
   9   0   4  102.59   12.20
 -10   0  -4   33.20   10.40
  10   0   4   25.20    7.30
  10   0   4   29.10    8.30
  11   0   4   24.80    8.50
  11   0   4   27.30    9.40
  12  -1  -4   18.10   10.80
  11  -1  -4    8.70    9.00
  11  -1  -4   12.50    6.90
 -11   1   4   28.90    8.90
  10  -1  -4   12.90    8.00
 -10   1   4   33.80    8.40
   9  -1  -4  304.47   17.40
   9  -1  -4  362.76   17.50
  -9   1   4  329.07   17.90
   8  -1  -4  368.86   20.00
   8  -1  -4  339.37   14.40
   8  -1  -4  325.87   16.60
  -8   1   4  337.37   17.00
  -8   1   4  286.87   15.90
   7  -1  -4   39.20    5.80
   7  -1  -4   39.70    5.30
   7  -1  -4   55.09    8.40
  -7   1   4   48.30    6.40
  -7   1   4   40.10    5.30
   6  -1  -4   34.60    4.80
   6  -1  -4   38.90    4.60
   6  -1  -4   46.10    7.20
   6  -1  -4   56.89   10.20
  -6   1   4   43.20    5.50
  -6   1   4   28.70    4.20
   5  -1  -4   82.79    6.70
   5  -1  -4  102.59   10.40
   5  -1  -4   90.19    7.10
  -5   1   4   80.09    6.80
  -5   1   4   93.19    6.80
  -5   1   4   74.29    7.10
   4  -1  -4  173.48   11.50
   4  -1  -4  162.68    8.60
   4  -1  -4  157.78    8.30
  -4   1   4  161.08    8.20
  -4   1   4  156.98    8.40
  -4   1   4  166.48    8.30
   3  -1  -4   -1.30    2.10
   3  -1  -4    3.00    2.70
   3  -1  -4    0.50    3.80
  -3   1   4   -1.50    2.30
  -3   1   4   -1.10    2.00
  -3   1   4    1.90    2.50
   2  -1  -4 1412.56   53.99
   2  -1  -4 1423.76   51.49
   2  -1  -4 1324.97   51.59
  -2   1   4 1423.46   51.59
  -2   1   4 1519.35   51.59
   1  -1  -4  576.74   23.20
   1  -1  -4  639.94   23.20
   1  -1  -4  627.64   25.80
  -1   1   4  631.44   23.30
  -1   1   4  665.63   23.20
  -1   1   4  618.24   23.30
   0  -1  -4 1624.94   61.59
   0  -1  -4 1666.73   58.99
   0  -1  -4 1555.24   58.79
   0   1   4 1616.94   58.99
   0   1   4 1639.34   59.09
   0   1   4 1733.43   59.09
  -1  -1  -4  522.65   18.40
  -1  -1  -4  471.65   21.30
   1   1   4  512.45   19.00
   1   1   4  499.85   18.30
   1   1   4  474.85   18.40
   1   1   4  505.45   18.90
  -2  -1  -4 2645.04  102.89
   2   1   4 2854.71  100.79
   2   1   4 2774.32  100.49
   2   1   4 2933.11  100.49
  -3  -1  -4 1065.79   43.00
   3   1   4 1152.58   40.00
   3   1   4 1092.79   40.20
   3   1   4 1087.29   40.40
  -4  -1  -4  799.12   33.30
   4   1   4  824.82   29.80
   4   1   4  817.72   30.30
   4   1   4  798.72   30.30
  -5  -1  -4   13.60    5.80
  -5  -1  -4   21.40    4.30
   5   1   4   16.70    3.80
   5   1   4   17.70    3.90
  -6  -1  -4   48.50   11.80
  -6  -1  -4   54.99    8.00
   6   1   4   58.99    7.60
   6   1   4   62.39    4.50
   6   1   4   61.59    7.20
  -7  -1  -4   97.19   12.60
  -7  -1  -4  109.09   10.60
   7   1   4  105.89   10.00
   7   1   4   88.49    9.40
   7   1   4  111.49    6.10
  -8  -1  -4  306.37   16.80
   8   1   4  299.97   15.80
   8   1   4  290.27   15.30
  -9  -1  -4   19.90    9.30
   9   1   4    9.70    6.10
   9   1   4    0.70    6.80
 -10  -1  -4  181.28   17.90
  10   1   4  121.59   13.90
  10   1   4  147.09   15.80
  11  -2  -4   16.60    9.30
 -11   2   4   37.70    9.50
  10  -2  -4  101.99   13.60
  10  -2  -4  111.69   10.20
 -10   2   4  139.49   14.60
   9  -2  -4  224.28   11.70
   9  -2  -4  200.38   14.50
  -9   2   4  225.48   15.20
   8  -2  -4  106.19    7.30
   8  -2  -4  134.09   11.90
   8  -2  -4  108.49   11.40
   8  -2  -4  134.69   16.50
  -8   2   4  104.69   11.80
   7  -2  -4   98.69    6.60
   7  -2  -4  100.69    9.80
   7  -2  -4  116.69   14.00
   6  -2  -4 1199.08   48.90
   6  -2  -4 1270.67   46.50
   6  -2  -4 1252.27   46.10
  -6   2   4 1243.48   46.00
  -6   2   4 1192.08   46.10
   5  -2  -4  404.06   17.10
   5  -2  -4  411.46   17.50
   5  -2  -4  412.16   20.40
  -5   2   4  439.26   17.10
  -5   2   4  397.56   17.20
  -5   2   4  424.36   17.20
   4  -2  -4  383.16   18.80
   4  -2  -4  389.06   15.90
   4  -2  -4  375.96   16.20
  -4   2   4  398.36   15.90
  -4   2   4  392.06   16.00
  -4   2   4  399.36   15.80
   3  -2  -4    2.10    2.90
   3  -2  -4    3.10    2.50
   3  -2  -4    2.40    3.90
  -3   2   4    3.50    2.80
  -3   2   4    1.70    2.40
  -3   2   4   -0.80    2.20
   2  -2  -4  531.15   20.00
   2  -2  -4  538.45   22.70
   2  -2  -4  518.95   20.00
  -2   2   4  473.85   19.80
  -2   2   4  550.34   20.10
  -2   2   4  537.55   20.00
   1  -2  -4 1861.51   70.39
   1  -2  -4 1891.91   67.99
   1  -2  -4 1857.71   67.89
  -1   2   4 1861.01   67.99
  -1   2   4 1934.91   68.19
  -1   2   4 1912.01   67.99
   0  -2  -4 3418.36  120.09
   0  -2  -4 3225.68  122.39
   0   2   4 3476.35  120.29
   0   2   4 3307.37  119.99
   0   2   4 3339.47  119.99
  -1  -2  -4  311.57   15.50
   1   2   4  325.27   13.00
   1   2   4  318.37   12.60
   1   2   4  312.07   12.30
  -2  -2  -4   76.39    8.80
   2   2   4   76.39    5.50
   2   2   4   80.79    5.10
   2   2   4   80.09    5.00
  -3  -2  -4  758.42   31.30
   3   2   4  754.62   28.30
   3   2   4  767.82   28.10
   3   2   4  753.82   28.50
  -4  -2  -4  301.07   16.80
   4   2   4  299.87   12.90
   4   2   4  296.57   12.90
   4   2   4  294.87   12.30
  -5  -2  -4    9.50    4.90
  -5  -2  -4    0.80    5.70
   5   2   4    2.60    3.90
   5   2   4   -1.50    3.50
   5   2   4   -3.50    3.00
  -6  -2  -4  236.98   12.80
  -6  -2  -4  199.98   17.10
   6   2   4  214.88   12.20
   6   2   4  204.48   11.50
  -7  -2  -4  245.08   14.60
  -7  -2  -4  227.38   27.70
   7   2   4  234.58   13.10
   7   2   4  246.68   13.90
  -8  -2  -4   57.29   10.20
   8   2   4   54.39    6.90
   8   2   4   58.99    7.30
  -9  -2  -4   -3.60   11.00
   9   2   4   -3.00    6.30
   9   2   4   11.60    7.30
 -10  -2  -4   35.80   10.80
  10   2   4   19.00    8.90
  10   2   4   26.80    8.00
  11  -3  -4  -15.00    8.80
 -11   3   4   -1.80    8.70
  10  -3  -4  141.49   14.30
 -10   3   4  172.88   15.00
   9  -3  -4  106.19   12.50
  -9   3   4  133.49   12.90
   8  -3  -4   34.90   11.50
   8  -3  -4   29.90    6.70
  -8   3   4   41.00    7.10
   7  -3  -4   86.09   10.10
   7  -3  -4   97.19   10.20
  -7   3   4   72.79    9.50
   6  -3  -4  404.06   17.80
   6  -3  -4  390.86   17.30
  -6   3   4  414.66   17.60
  -6   3   4  358.46   17.60
   5  -3  -4  294.27   14.80
  -5   3   4  299.17   14.10
  -5   3   4  325.57   13.50
   4  -3  -4  895.51   34.60
   4  -3  -4  901.51   34.00
  -4   3   4  898.01   34.20
  -4   3   4  926.91   33.90
   3  -3  -4  141.89    8.00
   3  -3  -4  139.69    7.80
  -3   3   4  133.49    7.80
   2  -3  -4  195.88    9.20
   2  -3  -4  195.18    8.90
  -2   3   4  198.58    9.30
  -2   3   4  197.78    8.90
   1  -3  -4  456.25   16.90
   1  -3  -4  446.06   17.30
  -1   3   4  449.56   17.10
  -1   3   4  435.56   17.50
   0  -3  -4  470.95   17.70
   0   3   4  452.35   17.30
   0   3   4  460.35   18.00
  -1  -3  -4  705.53   26.60
   1   3   4  728.93   26.40
   1   3   4  724.83   27.00
   1   3   4  711.23   26.90
   2   3   4  938.31   34.60
   2   3   4  924.31   34.30
   2   3   4  937.61   34.80
   3   3   4  767.72   29.00
   3   3   4  767.02   28.80
   3   3   4  767.02   28.80
   4   3   4   80.49    7.10
   4   3   4   73.99    6.40
   4   3   4   82.69    7.10
   5   3   4   42.60    5.20
   5   3   4   44.00    4.70
   5   3   4   42.60    5.00
  -6  -3  -4  317.97   16.50
   6   3   4  300.17   15.00
   6   3   4  318.97   15.40
  -7  -3  -4  260.77   16.20
   7   3   4  243.38   13.70
   7   3   4  259.67   14.70
  -8  -3  -4   20.50    8.70
   8   3   4   22.40    7.20
   8   3   4   27.30    6.20
  -9  -3  -4    5.50    9.60
   9   3   4   -1.10    7.70
   9   3   4  -10.60    6.10
  11  -4  -4    9.60    9.20
 -11   4   4    9.70    9.40
  10  -4  -4   91.19   13.40
 -10   4   4   99.39   14.40
   9  -4  -4  130.39   13.20
  -9   4   4  138.59   13.70
   8  -4  -4   18.20    6.60
  -8   4   4    8.50    6.60
   7  -4  -4   26.80    6.10
  -7   4   4   19.00    6.40
   6  -4  -4   -1.40    8.80
   6  -4  -4    5.90    4.80
  -6   4   4   10.60    3.90
  -6   4   4    2.10    5.30
   5  -4  -4   10.50    4.40
   5  -4  -4    1.40    4.10
  -5   4   4    8.10    3.40
  -5   4   4   16.40    6.00
   4  -4  -4   14.00    4.10
   4  -4  -4   11.40    3.70
  -4   4   4   18.00    3.20
  -4   4   4   17.80    4.50
   3  -4  -4   34.10    4.40
   3  -4  -4   25.50    3.50
  -3   4   4   22.90    3.20
  -3   4   4   31.10    4.60
   2  -4  -4  673.03   25.90
   2  -4  -4  681.03   26.40
  -2   4   4  690.73   26.60
  -2   4   4  712.83   26.00
   1  -4  -4 2020.90   70.39
  -1   4   4 1906.71   70.09
  -1   4   4 1896.11   70.59
   0  -4  -4    0.60    3.20
   0   4   4    3.50    2.10
   0   4   4   -2.80    3.50
  -1  -4  -4  184.08    9.00
   1   4   4  189.58    8.10
   1   4   4  177.78    9.50
   2   4   4  329.67   14.00
   2   4   4  312.07   13.80
   2   4   4  313.87   13.00
   3   4   4  267.77   12.30
   3   4   4  267.67   11.90
   3   4   4  271.07   12.40
   4   4   4  163.08    9.60
   4   4   4  174.28    9.80
   4   4   4  166.28    9.60
   5   4   4   40.70    7.30
   5   4   4   31.50    5.10
   5   4   4   38.70    5.50
  -6  -4  -4   41.90    8.30
   6   4   4   34.20    6.00
   6   4   4   30.20    5.50
  -7  -4  -4   90.59   14.20
   7   4   4  103.19   10.50
   7   4   4   95.39   11.90
  -8  -4  -4    5.00    9.10
   8   4   4    0.40    7.30
   8   4   4    2.50    6.10
 -10   5   4  -14.20    8.80
   9  -5  -4   30.60    7.80
  -9   5   4   15.00    8.40
   8  -5  -4   -2.50    6.50
  -8   5   4    7.40    7.60
   7  -5  -4   70.69    7.50
  -7   5   4   59.49    7.90
   6  -5  -4   55.69    6.30
  -6   5   4   43.00    6.90
   5  -5  -4  218.38   11.90
  -5   5   4  203.78   12.70
   4  -5  -4   84.99    8.00
  -4   5   4   80.99    9.10
   3  -5  -4    2.30    4.20
   3  -5  -4   -4.30    4.50
  -3   5   4    7.00    2.90
   2  -5  -4  226.58   12.10
  -2   5   4  261.97   12.80
  -2   5   4  269.67   11.30
   1  -5  -4 2417.76   86.69
  -1   5   4 2320.27   87.09
  -1   5   4 2449.25   86.39
   0  -5  -4  237.08   10.90
   0   5   4  224.98    9.40
   0   5   4  222.78   11.60
   0   5   4  223.38    9.70
  -1  -5  -4   70.99    7.10
   1   5   4   87.69    8.20
   1   5   4   88.09    5.50
  -2  -5  -4  131.59    8.40
   2   5   4  137.89    9.90
   2   5   4  147.19    7.90
   3   5   4   65.79    7.00
   3   5   4   67.19    7.10
   3   5   4   73.19    7.40
   4   5   4   18.70    5.10
   4   5   4   21.50    5.10
   4   5   4   13.80    4.50
   5   5   4   15.70    5.40
   5   5   4   10.80    6.30
   5   5   4    8.30    5.30
  -6  -5  -4   98.89   14.80
   6   5   4  103.69   10.70
   6   5   4  107.99   11.20
   6   5   4   90.49    9.90
  -7  -5  -4  107.29   16.40
   7   5   4  125.59   10.90
   7   5   4  126.59   13.00
   9  -6  -4   17.20    7.90
  -9   6   4   14.10    8.90
   8  -6  -4    5.80    7.10
  -8   6   4   -7.30    7.80
   7  -6  -4   30.30    6.90
  -7   6   4   34.20    8.40
   6  -6  -4  271.07   14.70
  -6   6   4  253.37   15.90
   5  -6  -4  287.47   14.90
  -5   6   4  272.47   15.80
   4  -6  -4  171.48   10.70
  -4   6   4  160.18   12.20
   3  -6  -4    2.20    4.70
  -3   6   4   14.30    5.70
   2  -6  -4  212.38   11.50
  -2   6   4  184.28   12.20
   1  -6  -4   76.59    8.10
  -1   6   4   56.99    5.80
  -1   6   4   66.19    9.10
   0   6   4    0.60    5.10
   0   6   4   -0.10    2.50
  -1  -6  -4  222.98   11.00
   1   6   4  202.78    9.40
   1   6   4  201.58   12.40
  -2  -6  -4  231.28   11.50
   2   6   4  229.28   10.60
   2   6   4  202.88   12.70
  -3  -6  -4   93.59    8.40
   3   6   4   93.29    8.00
   3   6   4   80.49    9.80
   4   6   4    5.50    5.60
   4   6   4    2.30    5.90
   4   6   4    1.50    4.80
   5   6   4   45.80    6.80
   5   6   4   41.00    5.90
   5   6   4   49.70    6.50
   6   6   4   67.99    7.80
   6   6   4   66.39    7.90
   8  -7  -4    2.60    7.40
  -8   7   4    8.30    9.40
   7  -7  -4   -9.00    6.70
  -7   7   4   -1.10    8.70
   6  -7  -4   13.70    6.60
  -6   7   4    6.20    7.50
   5  -7  -4   47.40    6.70
  -5   7   4   41.70    8.10
   4  -7  -4    0.20    6.40
  -4   7   4    2.50    6.60
   3  -7  -4   41.70    6.20
  -3   7   4   44.30    7.60
   2  -7  -4  271.47   13.50
  -2   7   4  240.08   15.10
   1  -7  -4   60.69    8.80
  -1   7   4   35.30    7.10
   0  -7  -4   13.70    5.20
   0   7   4   11.00    6.40
  -1  -7  -4   80.19    9.40
   1   7   4   66.09   10.40
  -2  -7  -4   67.39    6.20
   2   7   4   62.69    7.50
   3   7   4  101.89   11.50
   4   7   4   18.30    5.60
   4   7   4    7.10    6.50
   5   7   4   22.00    6.30
   5   7   4    2.50    7.10
   7  -8  -4   33.70    8.40
  -7   8   4   39.70   10.40
   6  -8  -4   32.90    7.50
  -6   8   4   28.60    9.70
   5  -8  -4   37.40    7.20
  -5   8   4   40.00    9.40
   4  -8  -4    2.20    6.50
  -4   8   4    4.70    8.10
   3  -8  -4  189.08   12.80
  -3   8   4  193.88   15.20
   2  -8  -4  221.88   15.70
  -2   8   4  234.88   15.90
  -1   8   4   83.39   12.80
   0   8   4   16.50    7.20
   1   8   4   -1.70    6.80
   2   8   4   45.60    8.30
   3   8   4   -1.40    7.30
  -4   9   4   31.50   10.40
  -3   9   4   17.30    9.40
  -2   9   4   24.00    9.30
  -1   9   4    8.40   12.90
   0   9   4   21.20    8.70
   2  12  -5   51.19    8.30
   2  12  -5   43.30    7.10
   1  12  -5   80.99   12.40
   1  12  -5   60.29    7.80
   0  12  -5   32.10    7.30
   0  12  -5   28.70    6.10
  -1  12  -5   16.40    5.50
  -1  12  -5   30.70    6.90
  -2  12  -5   22.90    7.00
  -2  12  -5   27.70    5.90
  -3  12  -5   13.30    6.60
  -3  12  -5   13.80    5.40
  -4  12  -5    6.70    5.20
  -4  12  -5    4.10    6.90
  -5  12  -5   -1.20    6.90
  -5  12  -5   -0.60    7.40
  -6  12  -5   20.90    7.60
   5  11  -5   99.99   14.40
   4  11  -5   96.29    9.70
  -4 -11   5   88.19   12.30
   3  11  -5   -4.70    6.90
   3  11  -5    4.40    6.30
   2  11  -5   70.09    7.50
   2  11  -5   72.49   10.90
   1  11  -5   16.50    5.60
   1  11  -5   22.30    6.40
   0  11  -5   24.60    6.30
   0  11  -5   13.10    5.50
  -1  11  -5    5.30    5.40
  -1  11  -5   10.40    5.90
  -2  11  -5  210.88   12.40
  -2  11  -5  210.48   12.60
  -3  11  -5  277.97   14.90
  -3  11  -5  304.97   14.60
  -4  11  -5  125.29   10.90
  -4  11  -5  159.38   10.60
  -5  11  -5   18.10    6.40
  -5  11  -5   31.20    5.90
  -6  11  -5   49.50    6.30
  -6  11  -5   43.40    7.20
  -7  11  -5  205.68   12.30
  -7  11  -5  151.08   13.10
  -8  11  -5   86.99   12.60
   6  10  -5   77.39    9.80
  -6 -10   5   85.09   12.90
   5  10  -5  150.98   14.20
  -5 -10   5  153.88   18.00
   4  10  -5    3.30    6.40
  -4 -10   5   -5.30    9.10
   3  10  -5  190.08   13.00
   3  10  -5  180.08   13.80
   2  10  -5  513.05   20.90
   2  10  -5  456.35   21.10
   1  10  -5  104.39   10.20
   1  10  -5  134.69   10.20
   0  10  -5  197.28   12.50
   0  10  -5  240.48   12.40
  -1  10  -5   17.30    6.00
  -1  10  -5   27.20    5.40
  -2  10  -5  318.57   15.70
  -2  10  -5  300.97   17.50
  -3  10  -5  210.58   12.00
  -4  10  -5   79.69   11.00
  -4  10  -5   64.99   11.40
  -6  10  -5   60.59    6.50
  -6  10  -5   59.79    7.20
  -7  10  -5   47.20    6.70
   7 -10   5   45.20    6.70
  -8  10  -5   14.90   10.90
  -8  10  -5   20.70    6.10
   8 -10   5   10.40    6.50
  -9  10  -5   31.80    6.40
   9 -10   5   27.90    7.10
   7   9  -5   -0.70    8.10
  -7  -9   5   18.70   11.90
   6   9  -5  242.18   15.80
  -6  -9   5  244.38   19.30
   5   9  -5  439.86   21.10
  -5  -9   5  454.35   23.20
   4   9  -5   20.30    6.00
  -4  -9   5   17.90    8.10
   3   9  -5  108.69   10.50
   3   9  -5  129.49   10.20
  -3  -9   5   89.69   13.00
   2   9  -5   95.09    9.60
   2   9  -5  131.29   10.30
   1   9  -5   87.89   10.70
   0   9  -5  229.58   12.50
   0   9  -5  216.68   10.90
   0   9  -5  191.18   11.40
   0  -9   5  198.78   12.80
  -1   9  -5  166.98   10.30
  -1   9  -5  186.88    9.90
  -1   9  -5  168.88   10.10
   1  -9   5  192.18   13.20
  -2   9  -5   84.09    7.80
  -2   9  -5   80.29    8.90
   2  -9   5   79.09    9.10
  -3   9  -5  340.17   14.70
  -3   9  -5  337.37   15.10
   3  -9   5  343.37   16.00
  -4   9  -5    6.00    4.40
  -4   9  -5    5.20    4.20
   4  -9   5   -4.70    4.40
   4  -9   5   -3.10    3.00
  -5   9  -5   42.20    5.40
  -5   9  -5   45.60    5.30
   5  -9   5   26.40    6.10
   5  -9   5   31.30    4.00
  -6   9  -5  259.77   12.90
   6  -9   5  256.97   12.50
  -7   9  -5  279.07   13.50
  -7   9  -5  283.77   14.00
   7  -9   5  268.27   14.20
  -8   9  -5   12.20    5.60
   8  -9   5   11.70    6.60
  -9   9  -5    3.30    5.60
   9  -9   5    4.40    6.50
 -10   9  -5   27.60    6.90
  10  -9   5   32.20    7.60
   8   8  -5    1.60    8.30
  -8  -8   5    1.40   11.40
   7   8  -5   61.89    8.10
  -7  -8   5   84.39   11.60
   6   8  -5  227.88   14.60
  -6  -8   5  221.18   16.90
   5   8  -5  291.17   15.50
  -5  -8   5  299.07   17.70
   4   8  -5   21.30    5.60
  -4  -8   5   23.60    7.40
   3   8  -5  238.58   12.50
  -3  -8   5  225.28   19.70
   2   8  -5   25.30    3.80
   2   8  -5   34.40    4.70
   2   8  -5   39.00    5.20
  -2  -8   5   27.00    4.10
   1   8  -5  272.87   13.70
   1   8  -5  307.77   13.30
   1   8  -5  292.67   13.70
  -1  -8   5  303.47   13.60
   0   8  -5    1.90    2.90
   0   8  -5   -0.40    3.80
   0   8  -5   -0.90    3.50
   0  -8   5    0.70    3.70
  -1   8  -5  192.78   10.70
  -1   8  -5  194.28   10.30
  -1   8  -5  208.38   10.50
   1  -8   5  203.78   10.90
  -2   8  -5  813.42   30.60
  -2   8  -5  803.22   31.00
   2  -8   5  842.32   31.60
  -3   8  -5 1697.73   64.29
  -3   8  -5 1732.23   63.59
  -3   8  -5 1743.83   63.89
   3  -8   5 1834.12   63.19
   3  -8   5 1755.02   64.59
  -4   8  -5  365.16   15.60
  -4   8  -5  365.36   16.40
  -4   8  -5  383.56   15.30
   4  -8   5  378.36   15.40
   4  -8   5  364.06   16.80
  -5   8  -5  354.96   15.40
  -5   8  -5  356.26   16.30
  -5   8  -5  368.66   14.90
   5  -8   5  354.36   14.90
   5  -8   5  353.66   16.90
  -6   8  -5  412.56   17.70
  -6   8  -5  400.16   18.20
  -6   8  -5  400.16   17.00
   6  -8   5  403.36   17.00
  -7   8  -5  318.27   14.30
  -7   8  -5  334.47   15.10
   7  -8   5  327.47   15.50
  -8   8  -5   -1.10    5.10
  -8   8  -5    4.90    4.70
   8  -8   5   -3.50    7.20
  -9   8  -5   -0.40    5.50
   9  -8   5    1.40    6.10
 -10   8  -5   -5.40    6.40
  10  -8   5    8.00    6.70
   9   7  -5   38.60    9.20
  -9  -7   5   52.39   12.50
   8   7  -5   39.00    8.00
  -8  -7   5   55.49   11.10
   7   7  -5    4.40    6.20
   7   7  -5    6.70    4.00
  -7  -7   5   16.40    9.00
   6   7  -5  170.18   12.00
  -6  -7   5  155.98   15.00
   5   7  -5  150.08    7.50
   5   7  -5  143.59   10.80
  -5  -7   5  153.28   13.00
   4   7  -5    3.20    4.70
   4   7  -5    2.60    2.50
   4   7  -5    3.00    3.50
  -4  -7   5    5.80    7.60
  -4  -7   5    8.70    3.50
   3   7  -5  224.98   11.60
   3   7  -5  235.98   11.40
  -3  -7   5  228.68   11.30
  -3  -7   5  220.38   12.60
   2   7  -5  834.62   30.90
   2   7  -5  822.92   31.40
   2   7  -5  811.32   31.40
  -2  -7   5  830.42   31.20
  -2  -7   5  807.42   31.60
   1   7  -5 1207.28   44.10
   1   7  -5 1203.98   44.80
   1   7  -5 1160.58   44.60
  -1  -7   5 1243.18   45.20
   0   7  -5  272.37   12.10
   0   7  -5  271.67   11.40
   0   7  -5  257.87   12.00
   0   7  -5  274.27   12.00
   0  -7   5  275.97   12.40
  -1   7  -5  320.27   13.80
  -1   7  -5  326.77   13.80
  -1   7  -5  328.87   13.10
  -1   7  -5  322.47   14.10
   1  -7   5  337.87   14.30
  -2   7  -5 1011.70   37.50
  -2   7  -5 1017.20   37.10
  -2   7  -5 1026.30   37.80
   2  -7   5 1005.20   38.10
  -3   7  -5  735.13   28.50
  -3   7  -5  741.73   28.90
  -3   7  -5  770.62   28.50
   3  -7   5  746.53   29.20
   3  -7   5  799.12   28.10
  -4   7  -5  250.37   11.90
  -4   7  -5  285.57   11.30
  -4   7  -5  268.97   12.40
   4  -7   5  268.97   13.00
   4  -7   5  275.37   11.40
  -5   7  -5  161.78    9.00
  -5   7  -5  178.58    9.90
  -5   7  -5  176.78    8.30
   5  -7   5  171.78    8.90
   5  -7   5  169.78   10.70
  -6   7  -5  349.87   15.80
  -6   7  -5  324.47   14.70
  -6   7  -5  367.56   14.20
   6  -7   5  349.37   15.20
  -7   7  -5   26.80    6.00
  -7   7  -5   31.90    4.00
   7  -7   5   33.60    5.50
  -8   7  -5    0.10    4.20
  -8   7  -5    3.50    4.80
   8  -7   5   -1.70    5.40
  -9   7  -5   95.89    9.80
   9  -7   5   89.89   10.80
 -10   7  -5   27.40    6.50
  10  -7   5   37.00    7.40
 -11   7  -5   91.69   11.90
  11  -7   5   59.89    9.60
  10   6  -5   43.50    7.10
  10   6  -5   19.70    9.00
 -10  -6   5   49.60   12.70
   9   6  -5  171.08   12.40
   9   6  -5  151.68   14.80
  -9  -6   5  156.58   18.50
   8   6  -5   -4.20    6.60
   8   6  -5   -5.40    6.40
  -8  -6   5    5.20    9.20
   7   6  -5  474.45   19.30
   7   6  -5  465.85   20.70
  -7  -6   5  442.56   22.70
   6   6  -5  963.60   35.80
   6   6  -5  967.30   36.90
  -6  -6   5  940.71   37.70
   5   6  -5  654.43   24.20
   5   6  -5  647.24   26.00
   5   6  -5  626.44   26.70
  -5  -6   5  604.44   28.70
  -5  -6   5  648.74   25.10
   4   6  -5   62.99    7.10
   4   6  -5   73.89    5.00
   4   6  -5   72.39    7.30
  -4  -6   5   61.19    8.70
  -4  -6   5   79.89    7.00
   3   6  -5  283.77   12.80
  -3  -6   5  260.07   13.00
  -3  -6   5  278.07   12.50
   2   6  -5 1737.93   61.39
   2   6  -5 1662.23   61.69
   2   6  -5 1684.53   61.49
  -2  -6   5 1655.43   61.39
  -2  -6   5 1667.23   61.49
   1   6  -5 1619.54   56.59
   1   6  -5 1500.85   56.79
   1   6  -5 1533.85   56.19
   1   6  -5 1475.55   56.59
  -1  -6   5 1621.34   56.79
   0   6  -5  321.87   12.60
   0   6  -5  315.77   13.20
   0   6  -5  325.97   13.50
   0   6  -5  315.57   13.20
   0  -6   5  310.87   13.50
  -1   6  -5  369.56   15.60
  -1   6  -5  382.76   14.50
  -1   6  -5  374.76   15.60
  -1   6  -5  386.06   15.10
   1  -6   5  380.66   15.60
  -2   6  -5  517.35   20.00
  -2   6  -5  532.65   19.20
  -2   6  -5  486.15   19.70
   2  -6   5  542.35   19.40
   2  -6   5  500.85   20.30
  -3   6  -5  713.53   31.50
  -3   6  -5  780.22   27.20
  -3   6  -5  714.23   27.50
  -3   6  -5  751.22   27.90
   3  -6   5  756.72   27.40
   3  -6   5  717.43   28.20
  -4   6  -5    7.70    3.10
  -4   6  -5    7.70    3.10
  -4   6  -5    0.80    5.40
  -4   6  -5    8.10    2.60
   4  -6   5    7.20    3.20
   4  -6   5    5.70    2.90
  -5   6  -5  578.54   23.00
  -5   6  -5  558.64   22.50
  -5   6  -5  630.34   21.90
  -5   6  -5  589.84   25.80
   5  -6   5  601.74   23.20
   5  -6   5  572.64   23.60
   5  -6   5  581.54   22.70
  -6   6  -5  899.81   36.30
  -6   6  -5  989.60   35.60
  -6   6  -5  980.80   38.60
  -6   6  -5  985.80   36.60
   6  -6   5  944.81   36.40
   6  -6   5 1008.90   36.60
  -7   6  -5  148.79   12.40
  -7   6  -5  121.69    6.90
  -7   6  -5  131.69   12.20
   7  -6   5  133.99   12.10
   7  -6   5  132.19   11.10
  -8   6  -5    7.20    4.60
  -8   6  -5    7.90    3.30
   8  -6   5   18.80    5.40
  -9   6  -5   33.80    5.70
   9  -6   5   25.30    6.40
 -10   6  -5   61.19    7.20
  10  -6   5   50.99    7.90
 -11   6  -5   40.10    7.50
  11  -6   5   36.80    9.00
  10   5  -5   69.09    8.00
  10   5  -5   58.69    8.90
 -10  -5   5   75.99   12.40
   9   5  -5  116.69   12.70
   9   5  -5  135.99   11.90
  -9  -5   5  144.49   16.20
   8   5  -5   36.40    6.40
   8   5  -5   33.10    8.70
  -8  -5   5   21.70    8.40
   7   5  -5  677.13   26.90
   7   5  -5  678.63   26.30
  -7  -5   5  642.54   28.40
   6   5  -5  694.43   26.20
   6   5  -5  708.63   27.80
   6   5  -5  663.13   27.40
  -6  -5   5  698.73   26.60
  -6  -5   5  642.94   29.50
   5   5  -5   29.00    4.60
   5   5  -5   41.50    5.10
  -5  -5   5   37.70    6.10
  -5  -5   5   46.60    6.50
   4   5  -5    6.40    3.30
   4   5  -5    6.30    2.40
   4   5  -5    1.50    3.40
  -4  -5   5    7.90    4.70
   3   5  -5   14.70    3.40
   3   5  -5    4.90    6.00
   3   5  -5    6.20    2.80
   3   5  -5   10.30    2.30
   3   5  -5    6.20    2.80
  -3  -5   5    5.10    3.00
  -3  -5   5   14.90    4.10
   2   5  -5  310.77   12.40
   2   5  -5  282.67   12.70
   2   5  -5  283.37   16.60
   2   5  -5  300.67   12.40
  -2  -5   5  288.17   12.40
  -2  -5   5  292.37   12.50
   1   5  -5  534.65   21.00
   1   5  -5  531.95   24.60
   1   5  -5  553.94   21.40
   1   5  -5  558.04   21.00
  -1  -5   5  553.94   20.90
  -1  -5   5  574.04   21.40
   0   5  -5    5.20    4.60
   0   5  -5    3.00    2.10
   0   5  -5    3.70    2.30
   0  -5   5    0.40    2.30
  -1   5  -5 3361.36  124.09
  -1   5  -5 3516.35  124.39
  -1   5  -5 3307.77  126.89
   1  -5   5 3490.55  124.59
   1  -5   5 3528.35  124.39
   1  -5   5 3581.04  124.39
  -2   5  -5 2752.32  104.79
  -2   5  -5 2883.01  102.49
  -2   5  -5 2776.42  102.19
   2  -5   5 2933.71  102.49
   2  -5   5 2952.20  102.19
   2  -5   5 2787.52  102.69
  -3   5  -5  889.91   32.20
  -3   5  -5  854.01   31.90
  -3   5  -5  863.51   34.80
   3  -5   5  881.91   32.20
   3  -5   5  867.41   31.90
   3  -5   5  846.02   32.50
  -4   5  -5   37.30    5.20
  -4   5  -5   49.70    9.00
  -4   5  -5   37.00    4.80
   4  -5   5   35.10    4.60
   4  -5   5   35.40    4.60
   4  -5   5   28.00    3.70
  -5   5  -5 1189.48   44.90
  -5   5  -5 1164.38   43.00
  -5   5  -5 1109.29   42.60
   5  -5   5 1197.98   42.90
   5  -5   5 1155.58   42.90
  -6   5  -5  869.51   32.40
  -6   5  -5  780.82   31.70
  -6   5  -5  881.91   33.80
  -6   5  -5  884.51   31.50
   6  -5   5  826.12   32.10
   6  -5   5  844.32   31.90
  -7   5  -5   67.49    8.80
  -7   5  -5   66.99    5.30
  -7   5  -5   51.49    7.00
  -7   5  -5   76.09    9.00
   7  -5   5   73.09    6.50
   7  -5   5   65.69    9.60
  -8   5  -5   18.30    4.90
   8  -5   5   17.40    5.30
  -9   5  -5    6.90    5.40
   9  -5   5    6.00    5.90
 -10   5  -5   62.59    7.50
  10  -5   5   65.69    8.20
 -11   5  -5   24.40    7.50
  11  -5   5   19.40    8.70
  11   4  -5   27.10    8.10
  11   4  -5    6.60    8.30
 -11  -4   5   41.10   13.10
  10   4  -5  103.29   13.20
  10   4  -5   87.39   11.90
 -10  -4   5  130.69   17.00
   9   4  -5   64.99    7.40
   9   4  -5   75.59   10.60
  -9  -4   5   53.89   10.20
   8   4  -5    2.40    7.50
   8   4  -5    6.00    5.40
   8   4  -5    7.30    5.40
  -8  -4   5    3.60    7.70
   7   4  -5  164.08   15.70
   7   4  -5  189.28   10.40
   7   4  -5  178.78   10.60
  -7  -4   5  174.58   12.90
   6   4  -5  984.10   37.10
   6   4  -5  905.51   40.60
   6   4  -5 1042.00   38.30
   6   4  -5 1009.20   37.20
  -6  -4   5  951.00   38.10
  -6  -4   5 1043.70   37.50
   5   4  -5   15.60    3.40
   5   4  -5   18.20    3.80
   5   4  -5   13.30    3.80
   5   4  -5   11.50    5.40
  -5  -4   5   17.60    3.50
  -5  -4   5   17.10    5.10
   4   4  -5  323.17   18.60
   4   4  -5  352.86   14.50
   4   4  -5  347.17   15.30
   4   4  -5  355.86   14.40
   4   4  -5  334.67   14.10
  -4  -4   5  369.46   14.80
  -4  -4   5  352.16   15.20
   3   4  -5 1042.10   37.70
   3   4  -5  979.40   38.00
   3   4  -5 1039.90   38.70
   3   4  -5 1005.50   41.70
   3   4  -5 1069.99   38.00
  -3  -4   5 1038.10   38.30
  -3  -4   5 1021.00   38.10
   2   4  -5 2311.97   85.79
   2   4  -5 2324.37   85.39
   2   4  -5 2407.66   85.39
   2   4  -5 2464.85   85.19
   2   4  -5 2300.37   88.69
  -2  -4   5 2380.06   85.29
  -2  -4   5 2377.06   85.59
   1   4  -5 1616.54   58.89
   1   4  -5 1615.54   58.79
   1   4  -5 1603.84   59.29
   1   4  -5 1576.64   62.49
   1   4  -5 1696.43   58.59
  -1  -4   5 1633.34   59.09
  -1  -4   5 1624.54   58.99
  -1  -4   5 1634.14   58.79
   0   4  -5   38.30    4.10
   0   4  -5   44.60    4.70
   0   4  -5   50.99    3.60
   0   4  -5   39.50    8.60
   0   4  -5   39.50    3.70
   0  -4   5   44.00    4.70
   0  -4   5   45.20    3.90
  -1   4  -5 1245.88   44.60
  -1   4  -5 1190.18   44.10
  -1   4  -5 1163.28   47.30
   1  -4   5 1260.67   44.20
   1  -4   5 1241.28   44.80
   1  -4   5 1211.38   44.40
  -2   4  -5 4203.58  157.28
  -2   4  -5 4333.37  156.68
  -2   4  -5 4373.76  159.38
   2  -4   5 4323.97  157.08
   2  -4   5 4499.65  156.88
   2  -4   5 4558.14  156.78
  -3   4  -5  289.57   11.70
  -3   4  -5  302.47   12.00
  -3   4  -5  305.97   15.40
   3  -4   5  278.47   12.30
   3  -4   5  304.07   12.00
   3  -4   5  295.67   11.90
  -4   4  -5   24.20    4.90
  -4   4  -5   17.70    2.80
  -4   4  -5   15.70    2.80
   4  -4   5   19.00    3.00
   4  -4   5   17.80    2.50
   4  -4   5   23.30    3.10
  -5   4  -5  110.69    7.00
  -5   4  -5  113.99    6.90
  -5   4  -5  130.39    9.80
   5  -4   5  114.39    6.60
   5  -4   5  117.69    7.30
  -6   4  -5  110.49    7.70
  -6   4  -5  130.79   10.00
  -6   4  -5  132.39    7.50
   6  -4   5  129.39    7.20
   6  -4   5  125.29    8.30
  -7   4  -5   33.10    7.70
  -7   4  -5   24.30    4.00
  -7   4  -5   44.50    4.60
   7  -4   5   36.70    5.50
  -8   4  -5   16.10    4.90
   8  -4   5   12.40    5.30
  -9   4  -5    5.20    5.20
   9  -4   5    4.80    6.00
 -10   4  -5   79.99   11.00
  10  -4   5   87.09   12.10
 -11   4  -5   34.70    7.80
  11  -4   5   24.80    8.80
  11   3  -5   17.90    8.70
  11   3  -5   19.50    8.70
 -11  -3   5   30.80    9.60
  10   3  -5   29.40    7.80
  10   3  -5   31.20    6.90
 -10  -3   5   30.80    8.70
   9   3  -5   53.49    6.60
   9   3  -5   40.50    7.10
  -9  -3   5   47.80    9.10
   8   3  -5   80.59    9.60
   8   3  -5   75.69   11.80
   8   3  -5   93.79    8.90
  -8  -3   5   87.89   12.50
   7   3  -5  284.37   12.90
   7   3  -5  225.18   16.20
   7   3  -5  287.07   13.60
   7   3  -5  287.17   14.90
  -7  -3   5  256.17   15.80
  -7  -3   5  308.77   13.50
   6   3  -5  750.02   28.10
   6   3  -5  702.43   26.50
   6   3  -5  625.44   30.20
   6   3  -5  679.83   26.90
  -6  -3   5  666.13   27.90
  -6  -3   5  732.43   27.00
   5   3  -5  638.84   30.40
   5   3  -5  679.73   26.70
   5   3  -5  723.43   26.50
   5   3  -5  719.43   27.00
   5   3  -5  719.53   27.70
  -5  -3   5  670.73   28.40
  -5  -3   5  729.73   26.90
   4   3  -5    4.80    2.70
   4   3  -5    5.80    2.70
   4   3  -5   -0.10    2.70
   4   3  -5   -0.50    5.30
   4   3  -5   -0.90    3.30
  -4  -3   5    1.30    3.90
  -4  -3   5    4.50    2.80
   3   3  -5 1180.38   50.09
   3   3  -5 1271.57   47.10
   3   3  -5 1260.37   46.50
   3   3  -5 1317.27   46.40
   3   3  -5 1357.26   46.40
  -3  -3   5 1242.68   46.60
  -3  -3   5 1250.77   46.60
   2   3  -5 3551.34  125.19
   2   3  -5 3480.75  125.39
   2   3  -5 3661.33  125.19
   2   3  -5 3246.78  128.69
   2   3  -5 3370.16  125.79
  -2  -3   5 3526.55  125.49
  -2  -3   5 3473.45  125.59
  -2  -3   5 3624.64  125.39
   1   3  -5 2170.98   80.29
   1   3  -5 2276.07   79.49
   1   3  -5 2222.58   79.69
   1   3  -5 2300.17   79.49
   1   3  -5 2099.59   83.29
  -1  -3   5 2255.47   79.89
  -1  -3   5 2163.68   79.79
   0   3  -5   82.19   11.80
   0   3  -5   96.19    5.90
   0   3  -5   98.89    4.90
   0   3  -5  107.19    5.10
   0  -3   5  111.79    5.20
   0  -3   5  103.49    5.80
   0  -3   5  102.49    5.30
  -1   3  -5  206.18    8.40
  -1   3  -5  177.98   12.80
  -1   3  -5  200.18    8.10
   1  -3   5  209.38    8.50
   1  -3   5  198.28    8.30
   1  -3   5  206.88    8.80
  -2   3  -5 1656.03   58.69
  -2   3  -5 1614.34   58.49
  -2   3  -5 1496.15   61.69
   2  -3   5 1658.83   58.89
   2  -3   5 1672.23   58.79
   2  -3   5 1651.73   58.69
  -3   3  -5  171.98    7.30
  -3   3  -5  155.58   11.40
   3  -3   5  163.38    7.70
   3  -3   5  162.88    7.70
  -4   3  -5  409.56   16.00
  -4   3  -5  414.86   19.20
  -4   3  -5  435.56   16.20
   4  -3   5  394.06   16.30
   4  -3   5  409.66   16.30
  -5   3  -5  763.72   29.70
  -5   3  -5  809.12   29.60
  -5   3  -5  853.11   32.10
   5  -3   5  769.22   30.10
  -6   3  -5  987.70   35.30
  -6   3  -5 1034.70   37.20
  -6   3  -5  929.31   35.50
   6  -3   5  879.61   35.20
   6  -3   5  938.31   36.00
  -7   3  -5  132.29   10.10
  -7   3  -5  133.69    7.70
  -7   3  -5  154.08    7.30
   7  -3   5  136.39    9.90
   7  -3   5  117.89    8.70
   7  -3   5  136.59    9.70
  -8   3  -5    5.50    4.90
  -8   3  -5   12.20    3.50
   8  -3   5   -2.00    5.10
  -9   3  -5  187.98   12.60
   9  -3   5  217.68   14.00
 -10   3  -5  168.98   12.80
  10  -3   5  180.58   14.00
 -11   3  -5   20.20    7.70
  11  -3   5   10.10    8.80
  11   2  -5   49.60    7.70
  11   2  -5   51.89   10.00
 -11  -2   5   54.09    9.60
  10   2  -5  136.79   14.50
  10   2  -5  143.39   11.40
 -10  -2   5  163.68   15.10
   9   2  -5   39.10    5.90
   9   2  -5   24.20    6.90
  -9  -2   5   43.50    8.20
   8   2  -5   69.79   11.80
   8   2  -5   55.79    6.80
   8   2  -5   69.09    9.50
  -8  -2   5   79.09   11.10
   7   2  -5  628.14   24.30
   7   2  -5  590.84   28.30
   7   2  -5  630.74   25.40
  -7  -2   5  660.83   25.00
   6   2  -5  859.51   32.60
   6   2  -5  866.21   32.70
   6   2  -5  849.61   31.80
   6   2  -5  799.82   36.00
  -6  -2   5  823.62   33.10
  -6  -2   5  901.61   32.50
   5   2  -5  530.65   25.90
   5   2  -5  554.44   21.80
   5   2  -5  558.84   21.00
   5   2  -5  561.54   21.70
  -5  -2   5  553.74   21.70
  -5  -2   5  543.05   22.30
   4   2  -5  117.39    6.90
   4   2  -5  106.09   11.70
   4   2  -5  115.09    6.20
   4   2  -5  117.89    7.10
  -4  -2   5  115.09    7.10
  -4  -2   5  111.99    8.00
   3   2  -5 1532.95   51.69
   3   2  -5 1440.76   51.99
   3   2  -5 1399.06   52.09
   3   2  -5 1358.96   55.89
  -3  -2   5 1441.96   52.19
  -3  -2   5 1438.86   52.19
  -3  -2   5 1357.06   52.09
   2   2  -5 2587.24   92.69
   2   2  -5 2700.83   92.59
   2   2  -5 2570.34   93.29
   2   2  -5 2398.76   96.59
  -2  -2   5 2549.94   93.49
  -2  -2   5 2585.84   92.99
  -2  -2   5 2662.13   92.89
   1   2  -5  157.88   12.00
   1   2  -5  138.49    6.60
   1   2  -5  152.48    6.90
   1   2  -5  151.28    6.40
  -1  -2   5  148.99    7.10
  -1  -2   5  141.69    6.80
   0   2  -5 2811.72  111.99
   0   2  -5 2925.81  108.19
   0   2  -5 3094.79  107.99
   0   2  -5 3145.29  107.99
   0  -2   5 2922.51  108.19
   0  -2   5 3178.98  108.29
   0  -2   5 3046.80  108.39
  -1   2  -5 4382.56  162.38
  -1   2  -5 4219.18  165.88
  -1   2  -5 4713.53  162.28
   1  -2   5 4539.05  162.58
   1  -2   5 4871.71  162.68
  -2   2  -5 1793.52   65.09
  -2   2  -5 1820.02   65.09
  -2   2  -5 1681.53   68.69
   2  -2   5 1894.21   65.49
   2  -2   5 1791.52   65.19
   2  -2   5 1874.91   65.39
  -3   2  -5    8.70    1.70
  -3   2  -5    6.20    5.00
  -3   2  -5   10.90    2.40
   3  -2   5    9.00    2.10
   3  -2   5    7.00    1.90
   3  -2   5   11.50    2.70
  -4   2  -5  568.64   20.60
  -4   2  -5  551.64   21.10
  -4   2  -5  530.35   24.50
   4  -2   5  555.04   21.60
  -5   2  -5  559.84   22.00
  -5   2  -5  595.34   21.50
  -5   2  -5  573.94   25.10
   5  -2   5  575.34   21.90
   5  -2   5  573.24   22.40
  -6   2  -5  475.05   20.10
  -6   2  -5  527.95   19.40
  -6   2  -5  524.55   22.50
   6  -2   5  490.45   20.50
   6  -2   5  528.95   19.50
  -7   2  -5   81.29    8.60
  -7   2  -5   77.79    7.30
   7  -2   5   81.99    7.30
   7  -2   5   78.49    8.90
   7  -2   5  102.59    6.20
   7  -2   5   83.69    8.50
  -8   2  -5   -5.40    5.20
  -8   2  -5    0.70    3.90
   8  -2   5   -0.90    5.40
   8  -2   5    4.10    5.40
  -9   2  -5  118.49   11.80
   9  -2   5  133.29   12.90
   9  -2   5  150.88   12.60
 -10   2  -5   30.60    7.60
  10  -2   5   42.40    8.40
  10  -2   5   48.50    8.20
 -11   2  -5  -16.60    7.90
  11  -2   5    4.70    8.50
  11  -2   5    4.40    8.60
  11   1  -5   31.80    9.70
  11   1  -5   44.90    7.50
 -11  -1   5   54.29    9.30
  10   1  -5  417.86   18.60
  10   1  -5  387.66   21.00
 -10  -1   5  401.36   20.60
   9   1  -5   97.89   11.70
   9   1  -5   89.59    9.20
  -9  -1   5  110.19   12.00
   8   1  -5   66.69    7.40
   8   1  -5   81.69    7.80
  -8  -1   5   79.49    9.00
  -8  -1   5   75.59   10.80
   7   1  -5  290.67   13.20
   7   1  -5  281.97   14.80
   7   1  -5  307.57   15.20
   7   1  -5  346.57   19.00
  -7  -1   5  275.77   21.10
  -7  -1   5  308.07   14.30
   6   1  -5  364.76   16.00
   6   1  -5  331.37   14.60
   6   1  -5  409.36   21.00
   6   1  -5  363.06   16.10
  -6  -1   5  360.16   15.70
  -6  -1   5  360.46   16.50
   5   1  -5   71.49    6.80
   5   1  -5   63.09    6.30
   5   1  -5   60.19    4.90
  -5  -1   5   57.69    7.20
  -5  -1   5   63.29    6.30
   4   1  -5 1343.37   50.69
   4   1  -5 1359.86   54.49
   4   1  -5 1364.86   50.49
   4   1  -5 1426.46   49.90
  -4  -1   5 1414.66   50.89
  -4  -1   5 1415.86   50.59
  -4  -1   5 1313.67   50.49
   3   1  -5 2812.22  108.99
   3   1  -5 3284.67  104.89
   3   1  -5 2863.71  105.39
   3   1  -5 2870.91  105.19
  -3  -1   5 2946.51  105.19
  -3  -1   5 2898.61  105.49
  -3  -1   5 2783.62  105.29
   2   1  -5  680.93   30.40
   2   1  -5  752.62   25.50
   2   1  -5  688.83   25.80
   2   1  -5  706.93   26.10
  -2  -1   5  650.73   25.80
  -2  -1   5  676.63   26.10
  -2  -1   5  704.43   26.20
   1   1  -5   43.50    3.30
   1   1  -5   46.20    3.80
   1   1  -5   58.09    4.20
   1   1  -5   46.90    9.00
  -1  -1   5   50.49    4.20
  -1  -1   5   45.70    4.10
   0   1  -5    2.00    4.20
   0   1  -5    7.10    1.70
   0   1  -5    8.30    2.10
   0  -1   5    4.20    1.40
   0  -1   5    9.60    1.90
   0  -1   5    5.60    2.90
  -1   1  -5 1302.97   57.89
  -1   1  -5 1547.55   53.99
  -1   1  -5 1524.45   54.09
   1  -1   5 1595.34   54.59
   1  -1   5 1513.25   54.09
   1  -1   5 1520.85   54.29
  -2   1  -5 1042.10   37.10
  -2   1  -5  930.01   41.40
  -2   1  -5 1038.30   37.00
   2  -1   5 1056.39   37.60
   2  -1   5 1030.20   37.20
   2  -1   5 1033.40   37.10
  -3   1  -5  510.85   18.10
  -3   1  -5  452.25   23.40
  -3   1  -5  494.75   18.50
   3  -1   5  490.65   19.00
   3  -1   5  485.65   18.50
   3  -1   5  508.55   18.30
  -4   1  -5   11.10    3.10
  -4   1  -5   14.00    5.90
   4  -1   5   18.10    3.30
   4  -1   5   20.10    3.20
  -5   1  -5  391.66   16.20
  -5   1  -5  375.86   20.40
   5  -1   5  416.76   15.30
   5  -1   5  401.96   16.50
   5  -1   5  406.26   16.50
  -6   1  -5   10.00    6.10
  -6   1  -5   14.10    5.40
   6  -1   5   16.50    2.50
   6  -1   5   10.50    4.50
   6  -1   5   10.10    4.30
  -7   1  -5   74.89    8.90
  -7   1  -5   60.99    9.40
   7  -1   5   62.29    5.20
   7  -1   5   49.80    6.20
   7  -1   5   59.19    8.50
  -8   1  -5   18.90    5.40
   8  -1   5    7.30    6.00
   8  -1   5    9.70    5.70
   9  -1   5  174.38   13.60
   9  -1   5  180.38   14.50
  10  -1   5   34.30    8.00
  10  -1   5   45.70    8.90
  11  -1   5    7.70    9.30
  11  -1   5   12.80    8.80
  11   0  -5   85.99   11.40
  11   0  -5  114.69   12.30
 -11   0   5  125.89   15.50
  10   0  -5   64.29    8.90
  10   0  -5   77.19   10.30
 -10   0   5   89.19   13.20
   9   0  -5   24.30    4.80
   9   0  -5   20.30    6.90
  -9   0   5   30.60    7.40
   8   0  -5  650.13   24.80
   8   0  -5  629.44   26.60
  -8   0   5  642.04   26.60
  -8   0   5  622.54   26.10
   7   0  -5 1098.99   41.80
   7   0  -5 1028.90   40.10
   7   0  -5 1198.08   46.40
  -7   0   5 1037.90   41.30
   6   0  -5  239.58   10.50
   6   0  -5  266.17   18.20
   6   0  -5  251.57   12.40
   6   0  -5  233.08   12.70
  -6   0   5  245.38   12.10
  -6   0   5  237.78   12.90
   5   0  -5   30.10    3.90
   5   0  -5   24.30    4.10
   5   0  -5   30.10    7.00
   5   0  -5   23.50    2.90
  -5   0   5   27.90    4.10
  -5   0   5   26.10    4.80
   4   0  -5  764.92   32.40
   4   0  -5  790.52   27.30
   4   0  -5  698.43   28.10
   4   0  -5  737.53   28.60
  -4   0   5  738.83   28.30
  -4   0   5  744.53   28.30
  -4   0   5  721.33   28.20
   3   0  -5 3519.65  126.29
   3   0  -5 3412.26  129.49
   3   0  -5 3491.35  126.09
  -3   0   5 3479.45  126.09
  -3   0   5 3563.24  126.19
  -3   0   5 3581.84  126.29
   2   0  -5  547.65   21.10
   2   0  -5  551.54   20.90
   2   0  -5  521.55   24.70
  -2   0   5  564.54   21.10
  -2   0   5  557.44   20.80
  -2   0   5  564.54   21.10
   1   0  -5    6.30    4.50
   1   0  -5    2.20    2.20
   1   0  -5    3.60    2.00
  -1   0   5    4.20    2.10
  -1   0   5    6.40    2.10
  -1   0   5    1.00    1.60
   0   0  -5   51.29    3.80
   0   0  -5   56.99    8.80
   0   0  -5   47.10    3.30
   0   0  -5   47.70    4.00
   0   0   5   51.59    4.00
   0   0   5   51.19    5.70
  -1   0  -5  500.15   19.60
  -1   0  -5  496.55   23.90
  -1   0  -5  557.54   19.60
   1   0   5  562.64   20.30
   1   0   5  516.55   19.70
   1   0   5  540.25   19.60
  -2   0  -5  750.12   26.20
  -2   0  -5  641.94   30.20
   2   0   5  731.93   26.80
   2   0   5  712.43   26.10
   2   0   5  722.43   26.00
  -3   0  -5   63.69   10.80
  -3   0  -5   83.69    5.50
   3   0   5   82.19    5.90
   3   0   5   94.59    4.40
  -4   0  -5  424.36   23.30
  -4   0  -5  517.75   18.60
   4   0   5  463.65   18.80
   4   0   5  476.45   17.60
   4   0   5  479.75   18.80
  -5   0  -5 1661.63   66.89
  -5   0  -5 1773.02   62.79
   5   0   5 1744.93   63.19
   5   0   5 1775.32   62.19
   5   0   5 1679.13   63.19
  -6   0  -5  187.68   10.90
  -6   0  -5  190.18   16.10
   6   0   5  179.88   13.50
   6   0   5  189.68    8.20
  -7   0  -5    3.50    6.40
  -7   0  -5    9.70    5.70
   7   0   5    3.10    5.00
   7   0   5    0.60    5.10
  -8   0  -5   40.10    7.40
   8   0   5   23.60    6.30
   8   0   5   23.70    6.20
  -9   0  -5   93.79   12.80
   9   0   5   89.69   11.60
   9   0   5  115.49   12.70
  10   0   5   64.89    8.90
  10   0   5   72.89    9.60
  11  -1  -5   47.00   10.00
 -11   1   5   38.80    9.60
  10  -1  -5    8.90    7.60
  10  -1  -5    2.60   10.60
 -10   1   5   14.00    7.90
   9  -1  -5   -3.40    4.60
   9  -1  -5   -3.60    6.40
  -9   1   5   -1.60    7.00
   8  -1  -5   10.00    6.00
   8  -1  -5   15.00    4.10
   8  -1  -5    4.70    5.70
  -8   1   5   21.10    6.70
  -8   1   5    1.50    5.50
   7  -1  -5  351.36   16.50
   7  -1  -5  319.97   16.10
   7  -1  -5  349.47   14.00
  -7   1   5  338.37   16.40
  -7   1   5  344.87   16.80
   6  -1  -5  506.25   18.60
   6  -1  -5  493.15   20.60
   6  -1  -5  477.85   20.30
  -6   1   5  475.35   20.50
  -6   1   5  473.95   20.30
   5  -1  -5  129.69    8.50
   5  -1  -5  115.29    8.10
  -5   1   5  113.19    8.20
  -5   1   5  114.79    7.90
  -5   1   5  113.89    8.60
   4  -1  -5   46.90    6.10
  -4   1   5   40.50    5.40
  -4   1   5   41.30    4.50
  -4   1   5   47.10    5.80
   3  -1  -5  473.85   23.30
   3  -1  -5  463.65   19.30
   3  -1  -5  488.45   19.10
  -3   1   5  489.55   18.90
  -3   1   5  487.95   18.90
  -3   1   5  485.15   19.00
   2  -1  -5    6.00    5.10
   2  -1  -5    8.10    2.90
   2  -1  -5    8.30    2.40
  -2   1   5    4.90    1.40
  -2   1   5   12.50    2.80
   1  -1  -5   14.60    2.30
   1  -1  -5   19.70    2.90
   1  -1  -5   18.10    5.40
  -1   1   5   19.10    2.60
  -1   1   5   28.10    4.10
  -1   1   5   26.70    3.70
   0  -1  -5 1009.20   36.80
   0  -1  -5  973.30   40.40
   0  -1  -5 1066.89   36.40
   0  -1  -5  929.81   36.50
   0   1   5 1047.70   36.80
   0   1   5  966.20   36.80
   0   1   5 1054.79   36.90
  -1  -1  -5  760.92   33.50
  -1  -1  -5  850.11   29.50
   1   1   5  828.52   30.30
   1   1   5  838.72   29.70
   1   1   5  802.92   29.50
   1   1   5  765.32   29.60
  -2  -1  -5  478.15   23.40
  -2  -1  -5  510.35   18.90
   2   1   5  523.05   18.90
   2   1   5  499.75   19.60
  -3  -1  -5   61.09   11.50
   3   1   5   58.99    5.50
   3   1   5   45.20    5.70
   3   1   5   60.19    4.50
  -4  -1  -5  499.45   25.20
   4   1   5  496.75   20.40
   4   1   5  531.65   19.50
   4   1   5  520.95   20.20
  -5  -1  -5  629.64   23.40
  -5  -1  -5  558.34   28.60
   5   1   5  596.44   23.30
   5   1   5  578.84   23.30
  -6  -1  -5  283.27   13.60
  -6  -1  -5  263.87   20.10
   6   1   5  255.27   13.20
   6   1   5  272.87   13.70
  -7  -1  -5   -7.50    5.90
   7   1   5   -1.20    5.00
   7   1   5   10.00    5.60
  -8  -1  -5   88.89    9.20
   8   1   5   95.69   11.60
   8   1   5   76.69   10.30
  -9  -1  -5   45.00   11.70
   9   1   5   32.90    7.10
   9   1   5   32.70    8.00
  10   1   5   39.70    8.40
  10   1   5   50.79    9.30
  11  -2  -5   73.89   11.00
 -11   2   5   72.19   10.60
  10  -2  -5   40.90    8.70
 -10   2   5   49.30    9.00
   9  -2  -5    4.00    6.70
  -9   2   5    0.80    7.30
   8  -2  -5   82.29   11.10
  -8   2   5   74.89    8.30
   7  -2  -5  439.56   19.40
   7  -2  -5  405.56   18.40
  -7   2   5  379.06   18.60
   6  -2  -5  100.09    9.30
   6  -2  -5   78.49   10.10
  -6   2   5   81.99    8.50
   5  -2  -5  128.89    9.20
   5  -2  -5  129.49    8.70
  -5   2   5  120.09    7.90
  -5   2   5  102.69    8.80
   4  -2  -5 1249.88   48.00
   4  -2  -5 1250.07   47.80
  -4   2   5 1373.36   47.90
  -4   2   5 1296.17   47.90
   3  -2  -5 1454.95   54.09
   3  -2  -5 1471.65   53.99
  -3   2   5 1496.45   54.09
   2  -2  -5  205.08    9.70
   2  -2  -5  195.68    9.40
  -2   2   5  208.78    9.60
  -2   2   5  218.08    9.40
   1  -2  -5    1.60    2.10
   1  -2  -5   -1.70    2.80
  -1   2   5   -1.10    2.10
  -1   2   5    4.20    2.80
   0  -2  -5  829.52   28.70
   0  -2  -5  770.52   29.20
   0   2   5  771.62   29.30
   0   2   5  776.82   29.00
  -1  -2  -5 1112.09   39.60
   1   2   5 1089.59   40.40
   1   2   5 1074.19   40.00
   2   2   5  847.72   31.70
   2   2   5  864.91   32.30
   2   2   5  861.71   31.70
   3   2   5  104.19    7.40
   3   2   5  103.79    6.30
   3   2   5   98.39    6.80
   4   2   5  147.29    7.90
   4   2   5  154.18    9.00
   4   2   5  159.38   10.00
   5   2   5  216.18   11.70
   5   2   5  226.48   10.40
   5   2   5  212.78   11.80
  -6  -2  -5  128.79   11.50
   6   2   5  133.59    9.90
   6   2   5  135.59   10.70
  -7  -2  -5  -14.60    6.80
   7   2   5   10.50    5.50
   7   2   5    4.10    5.70
  -8  -2  -5   79.69   10.00
   8   2   5   62.69    7.50
   8   2   5   95.09   12.30
  -9  -2  -5   43.80   11.30
   9   2   5   36.00    8.40
   9   2   5   26.90    7.40
  11  -3  -5    5.30    9.60
 -11   3   5    1.80    9.40
  10  -3  -5   -6.60    8.10
 -10   3   5   13.60    8.70
   9  -3  -5   -1.30    7.20
  -9   3   5   -0.60    7.50
   8  -3  -5  251.67   15.30
  -8   3   5  250.27   15.30
   7  -3  -5  346.37   16.60
  -7   3   5  319.27   16.70
   6  -3  -5   60.79    9.70
   6  -3  -5   59.59    8.90
  -6   3   5   72.89    8.40
  -6   3   5   43.00    6.40
   5  -3  -5  331.07   16.10
   5  -3  -5  356.56   15.70
  -5   3   5  393.66   15.50
  -5   3   5  332.77   16.30
   4  -3  -5  473.05   19.20
   4  -3  -5  458.55   19.30
  -4   3   5  488.55   18.90
  -4   3   5  448.86   19.20
   3  -3  -5   29.20    3.70
   3  -3  -5   41.20    4.80
  -3   3   5   30.00    4.60
  -3   3   5   29.30    4.50
   2  -3  -5  804.32   30.30
   2  -3  -5  806.62   30.60
  -2   3   5  808.62   30.70
  -2   3   5  822.12   30.50
   1  -3  -5   42.90    5.80
  -1   3   5   41.70    5.80
  -1   3   5   30.00    3.30
   0  -3  -5  212.68    8.30
   0  -3  -5  206.88    9.70
   0   3   5  187.38   10.00
   0   3   5  196.68    8.90
  -1  -3  -5  209.78    9.90
  -1  -3  -5  213.58    8.90
   1   3   5  203.98   10.00
   2   3   5  196.28   10.30
   2   3   5  197.98    9.20
   2   3   5  204.88    9.80
   3   3   5  223.28   11.40
   3   3   5  223.78   10.60
   3   3   5  223.48   10.60
   4   3   5  448.86   18.40
   4   3   5  437.26   18.60
   4   3   5  451.75   18.00
   5   3   5  270.97   12.30
   5   3   5  249.58   13.20
   5   3   5  262.17   13.40
  -6  -3  -5   51.49   10.10
   6   3   5   47.60    6.10
   6   3   5   46.00    6.30
  -7  -3  -5   73.59    9.20
   7   3   5   55.99    6.90
   7   3   5   59.99    7.50
  -8  -3  -5   83.19   10.30
   8   3   5   66.89    8.60
   8   3   5   82.69   11.60
  10  -4  -5   -6.80    7.90
 -10   4   5   -6.60    9.00
   9  -4  -5    1.60    7.50
  -9   4   5    6.00    8.20
   8  -4  -5  226.08   14.90
  -8   4   5  219.68   15.60
   7  -4  -5  247.68   14.10
  -7   4   5  221.08   14.70
   6  -4  -5   90.09    9.80
  -6   4   5   76.79   10.10
   5  -4  -5   48.30    7.00
  -5   4   5   51.79    6.70
   4  -4  -5  212.58   11.00
   4  -4  -5  156.78   10.00
  -4   4   5  205.68   12.80
   3  -4  -5   69.09    8.10
   3  -4  -5   84.59    8.30
  -3   4   5   78.09    6.70
  -3   4   5   69.29    8.40
   2  -4  -5   14.00    4.30
  -2   4   5   11.10    4.40
  -2   4   5   10.80    3.10
   1  -4  -5    0.80    4.10
  -1   4   5    2.80    4.50
   0  -4  -5  420.46   17.70
   0  -4  -5  458.75   16.40
   0   4   5  426.96   18.10
   0   4   5  435.86   16.90
  -1  -4  -5  684.33   26.50
  -1  -4  -5  714.83   25.60
   1   4   5  672.03   26.80
   1   4   5  690.73   25.70
  -2  -4  -5  132.19    8.50
   2   4   5  123.59    8.60
   2   4   5  145.79    7.60
   2   4   5  120.99    8.80
   3   4   5  134.79    9.10
   3   4   5  136.19    9.10
   3   4   5  145.59    8.50
   4   4   5  274.77   15.20
   4   4   5  294.87   14.00
   5   4   5   76.49    8.80
   5   4   5   91.29    9.30
   5   4   5   77.59    9.40
  -6  -4  -5   11.80    8.20
   6   4   5    8.90    5.50
   6   4   5   11.90    5.50
   6   4   5   14.70    5.80
  -7  -4  -5    1.80    8.40
   7   4   5    3.00    6.40
   7   4   5    1.60    5.60
  -8  -4  -5  -13.80    9.90
   8   4   5   -2.80    7.70
   8   4   5    7.60    6.60
   9  -5  -5   -7.70    7.90
  -9   5   5   -1.90    8.60
   8  -5  -5   -0.90    6.90
  -8   5   5    3.90    7.50
   7  -5  -5   24.20    6.80
  -7   5   5   20.30    7.90
   6  -5  -5   -3.50    5.80
  -6   5   5   -1.50    6.60
   5  -5  -5  120.89   11.70
  -5   5   5   97.89   11.50
   4  -5  -5   91.49   12.10
  -4   5   5   90.29   10.60
   3  -5  -5  251.37   13.10
  -3   5   5  252.07   13.80
   2  -5  -5   20.40    5.10
  -2   5   5   21.50    5.50
   1  -5  -5   15.60    4.90
  -1   5   5   19.40    3.10
  -1   5   5   24.00    5.40
   0  -5  -5  143.39    9.60
   0   5   5  150.58    7.80
   0   5   5  140.29   10.30
  -1  -5  -5  721.03   27.40
   1   5   5  695.93   28.00
   1   5   5  705.43   26.40
  -2  -5  -5  132.99    9.50
   2   5   5  137.99   10.20
   2   5   5  145.39    8.10
  -3  -5  -5    2.60    7.50
   3   5   5   13.20    5.30
   3   5   5   14.60    4.30
   4   5   5  143.39   10.20
   4   5   5  142.29   10.60
   4   5   5  128.29   10.30
   5   5   5   72.59    9.80
   5   5   5   61.59    6.90
   5   5   5   67.99    9.60
  -6  -5  -5   -5.30    8.90
   6   5   5    2.70    5.90
   6   5   5   -1.20    6.30
   6   5   5    6.00    5.60
  -7  -5  -5   10.90    9.70
   7   5   5    8.70    7.30
   9  -6  -5   20.70    8.60
  -9   6   5    9.30   10.40
   8  -6  -5   29.30    7.60
  -8   6   5   45.50   10.10
   7  -6  -5   29.70    7.70
  -7   6   5   14.30    8.50
   6  -6  -5    5.90    6.10
  -6   6   5    2.20    7.40
   5  -6  -5   73.29   10.00
  -5   6   5   65.29    8.70
   4  -6  -5  137.29   10.90
  -4   6   5  132.89   12.50
   3  -6  -5  333.97   16.70
  -3   6   5  349.47   17.60
   2  -6  -5   93.29   12.70
  -2   6   5   71.49   10.40
   1  -6  -5   15.70    5.70
  -1   6   5   15.30    6.20
   0  -6  -5  132.59   10.30
   0   6   5  138.39   11.40
  -1  -6  -5  105.29   12.40
   1   6   5  112.59   11.00
  -2  -6  -5   23.10    6.10
   2   6   5   10.50    5.70
   2   6   5   14.40    6.10
  -3  -6  -5  106.49   10.10
   3   6   5  107.59   11.00
   3   6   5  125.19    9.30
  -4  -6  -5   75.79    9.90
   4   6   5   97.79   11.00
   4   6   5   74.79    9.40
   5   6   5   24.40    7.60
   5   6   5   30.60    5.70
   5   6   5   32.90    6.10
   7  -7  -5   63.29    8.50
  -7   7   5   51.59   10.60
   6  -7  -5   -0.50    6.40
  -6   7   5   -7.70    9.70
   5  -7  -5   12.40    6.60
  -5   7   5    2.00    8.30
   4  -7  -5   17.00    6.20
  -4   7   5   23.10    7.90
   3  -7  -5   42.50    6.60
  -3   7   5   44.80    8.10
   2  -7  -5   33.80    6.50
  -2   7   5   21.50    7.50
   1  -7  -5   54.19    7.00
  -1   7   5   37.10    7.90
   0  -7  -5  103.49   10.70
   0   7   5  103.59   12.70
  -1  -7  -5   54.59    8.40
   1   7   5   49.00    7.70
  -2  -7  -5   11.00    6.90
   2   7   5    7.20    6.80
   3   7   5   79.39   11.80
   5  -8  -5   41.40    7.40
  -5   8   5   21.20   10.00
   4  -8  -5   48.60    7.40
  -4   8   5   32.20    9.70
   3  -8  -5   39.10    7.30
  -3   8   5   32.60    9.50
  -2   8   5   11.80    8.50
  -1   8   5   70.39    9.90
   0   8   5   73.39    9.60
   1   8   5   33.30    8.60
  -2  13  -6   49.40    7.20
   3  12  -6   98.69   13.80
  -3 -12   6  129.89   19.50
   2  12  -6   62.19    8.50
   2  12  -6   50.99    8.00
   1  12  -6    3.90    6.60
   1  12  -6  -13.70    5.70
   0  12  -6   25.20    6.90
   0  12  -6   37.20    7.00
  -1  12  -6  223.58   14.70
  -1  12  -6  276.87   14.80
  -2  12  -6   37.00    6.70
  -2  12  -6   35.30    6.80
  -3  12  -6    7.60    6.30
  -3  12  -6    7.20    5.70
  -4  12  -6   35.80    6.60
  -4  12  -6   25.60    6.70
  -5  12  -6   18.60    6.00
  -5  12  -6   13.20    6.50
  -6  12  -6   10.60    6.80
  -6  12  -6   17.90    6.10
   5  11  -6    3.90    8.20
  -5 -11   6    6.50   11.20
   4  11  -6   51.59    8.60
  -4 -11   6   56.59   11.50
   3  11  -6  107.79   12.50
  -3 -11   6  106.09   16.00
   2  11  -6   18.10    6.60
   2  11  -6   25.90    6.90
   1  11  -6   11.60    6.00
   1  11  -6    2.80    5.80
   0  11  -6   55.59    7.20
   0  11  -6   65.29    9.40
  -1  11  -6  167.38   11.40
  -1  11  -6  166.48   12.00
  -2  11  -6    2.40    5.50
  -2  11  -6    5.80    5.50
  -3  11  -6   82.19    9.30
  -3  11  -6   98.39   10.10
  -4  11  -6   81.99    9.70
  -4  11  -6  100.49   10.70
  -5  11  -6  190.18   12.40
  -5  11  -6  165.38   11.50
  -6  11  -6   77.69    8.10
  -7  11  -6   15.70    6.40
   6  10  -6   29.90    9.10
  -6 -10   6   43.50   12.10
   5  10  -6   12.90    7.30
  -5 -10   6   13.10   10.10
   4  10  -6  163.18   13.70
  -4 -10   6  160.38   16.40
   3  10  -6  170.68   12.80
  -3 -10   6  169.68   15.70
   2  10  -6    9.00    5.70
   2  10  -6   -4.70    5.70
   1  10  -6  199.98   13.30
   1  10  -6  225.68   12.10
   0  10  -6  978.60   38.40
   0  10  -6 1002.40   37.60
  -1  10  -6  195.78   16.60
  -1  10  -6  219.78   12.30
  -2  10  -6  118.79    8.90
  -2  10  -6  120.29   10.10
  -3  10  -6   44.80    6.00
  -3  10  -6   35.20    5.10
  -4  10  -6  146.89   10.40
  -4  10  -6  142.09    9.50
  -5  10  -6  126.29    9.30
  -5  10  -6  149.49   11.00
  -6  10  -6  162.38   11.50
  -6  10  -6  130.29   10.20
   6 -10   6  152.08   14.30
  -7  10  -6   41.50    6.70
   7 -10   6   30.60    7.20
  -8  10  -6   74.29    7.80
   8 -10   6   77.09   11.10
  -9  10  -6    2.10    6.50
   9 -10   6    6.30    7.30
   7   9  -6   68.19    9.60
  -7  -9   6   75.19   12.50
   6   9  -6    4.70    7.30
  -6  -9   6   -9.40    9.70
   5   9  -6   51.09    7.80
  -5  -9   6   50.99    9.70
   4   9  -6  416.46   19.80
  -4  -9   6  428.46   21.10
   3   9  -6  332.97   16.70
  -3  -9   6  356.26   17.90
   2   9  -6  252.57   12.60
   2   9  -6  227.28   13.40
  -2  -9   6  224.38   14.50
   1   9  -6   84.89    9.70
   1   9  -6  113.09    8.50
   0   9  -6  899.41   33.60
   0   9  -6  832.12   35.10
   0   9  -6  914.21   35.60
   0  -9   6  908.11   34.90
  -1   9  -6   15.60    6.00
  -1   9  -6   25.60    4.30
   1  -9   6   14.20    4.90
  -2   9  -6   -0.80    3.80
  -2   9  -6   -0.70    4.60
   2  -9   6   -1.60    4.20
  -3   9  -6  147.49   10.40
  -3   9  -6  123.89    7.90
   3  -9   6  132.79    8.20
   3  -9   6  127.89   10.30
  -4   9  -6   36.40    8.10
  -4   9  -6   39.90    4.60
   4  -9   6   29.40    3.40
   4  -9   6   26.00    5.50
  -5   9  -6   86.69    7.30
  -5   9  -6   87.09    8.90
   5  -9   6   88.39   12.00
   5  -9   6   85.49    7.30
  -6   9  -6  136.99   10.40
  -6   9  -6  136.39    8.80
   6  -9   6  146.49    9.70
  -7   9  -6  104.69   10.10
   7  -9   6  107.39   10.10
  -8   9  -6  153.18   11.00
   8  -9   6  126.39   11.80
  -9   9  -6   45.00    7.30
   9  -9   6   40.50    7.80
   8   8  -6  306.97   19.10
  -8  -8   6  308.97   23.10
   7   8  -6  136.89   13.60
  -7  -8   6  166.58   17.20
   6   8  -6    8.10    6.60
  -6  -8   6   22.30    9.10
   5   8  -6  232.78   14.30
  -5  -8   6  253.57   16.40
   4   8  -6  365.76   17.30
  -4  -8   6  371.16   18.50
   3   8  -6  221.18   12.60
  -3  -8   6  219.98   19.50
   2   8  -6  157.58    9.40
   2   8  -6  124.39   11.90
  -2  -8   6  149.79   11.00
  -2  -8   6  128.89   12.00
   1   8  -6  462.95   19.80
   1   8  -6  469.65   18.80
   1   8  -6  467.65   19.70
  -1  -8   6  488.45   19.80
   0   8  -6  367.76   16.60
   0   8  -6  358.96   15.80
   0   8  -6  355.36   14.90
   0  -8   6  375.16   16.20
  -1   8  -6  131.19   10.40
  -1   8  -6  140.19    8.90
  -1   8  -6  125.99    7.30
   1  -8   6  125.19    9.20
  -2   8  -6   86.39    6.20
  -2   8  -6   96.89    7.80
  -2   8  -6  100.29    7.70
   2  -8   6   95.59    8.70
   2  -8   6   94.59    5.90
  -3   8  -6   63.69    5.40
  -3   8  -6   55.09    7.00
  -3   8  -6   50.99    7.40
   3  -8   6   49.50    5.10
   3  -8   6   43.20    5.20
  -4   8  -6  486.75   20.10
  -4   8  -6  505.45   20.70
  -4   8  -6  520.15   19.20
   4  -8   6  485.85   19.30
   4  -8   6  484.85   21.20
  -5   8  -6 1077.99   43.40
  -5   8  -6 1176.28   47.10
  -5   8  -6 1214.88   44.50
   5  -8   6 1251.97   43.70
  -6   8  -6  133.99    8.90
  -6   8  -6   99.89    6.90
   6  -8   6  122.29    9.00
  -7   8  -6  157.68   10.90
   7  -8   6  154.08   10.90
  -8   8  -6  252.87   13.50
   8  -8   6  241.68   14.10
  -9   8  -6   97.69   10.70
   9  -8   6   69.19    8.20
 -10   8  -6   -1.90    6.60
  10  -8   6    4.30    7.70
   9   7  -6   19.70    8.30
  -9  -7   6   18.00   11.50
   8   7  -6   73.09    9.50
   8   7  -6   74.99    8.60
  -8  -7   6   74.69   11.50
   7   7  -6   36.10    7.30
   7   7  -6   51.29    7.60
  -7  -7   6   35.10    9.90
   6   7  -6   13.30    3.80
   6   7  -6    4.90    5.60
  -6  -7   6    5.00    7.80
   5   7  -6    9.80    3.00
   5   7  -6    7.80    5.20
  -5  -7   6    7.00    7.20
   4   7  -6   22.50    4.90
   4   7  -6   17.90    4.30
  -4  -7   6   29.90    7.80
  -4  -7   6   21.60    4.50
   3   7  -6  205.18    8.60
   3   7  -6  199.68   11.00
   3   7  -6  201.08   11.80
  -3  -7   6  201.68   11.90
  -3  -7   6  187.48   11.00
   2   7  -6   46.50    6.70
   2   7  -6   43.60    5.10
  -2  -7   6   42.90    6.90
  -2  -7   6   41.00    5.60
   1   7  -6  792.52   30.80
   1   7  -6  819.32   31.10
   1   7  -6  807.02   30.70
  -1  -7   6  831.82   31.00
  -1  -7   6  778.92   30.70
   0   7  -6 1091.09   40.10
   0   7  -6 1056.09   39.50
   0   7  -6 1095.49   40.10
   0  -7   6 1070.59   41.30
  -1   7  -6  556.74   20.10
  -1   7  -6  514.35   20.70
  -1   7  -6  537.35   21.00
  -1   7  -6  530.05   20.10
   1  -7   6  522.45   21.50
  -2   7  -6  197.38    9.80
  -2   7  -6  203.18    8.70
  -2   7  -6  195.58    9.90
   2  -7   6  209.88    8.90
   2  -7   6  203.58   10.70
  -3   7  -6   79.19    5.00
  -3   7  -6   65.39    6.60
  -3   7  -6   65.09    6.80
   3  -7   6   71.09    7.50
   3  -7   6   80.29    5.50
  -4   7  -6  546.35   19.00
  -4   7  -6  518.35   20.40
  -4   7  -6  467.55   19.80
   4  -7   6  493.45   19.60
   4  -7   6  487.05   20.90
  -5   7  -6 1156.68   44.60
  -5   7  -6 1212.28   45.10
  -5   7  -6 1283.17   43.90
   5  -7   6 1179.98   44.60
  -6   7  -6   19.60    3.40
  -6   7  -6   10.80    4.60
  -6   7  -6    7.70    4.60
   6  -7   6   13.80    4.60
  -7   7  -6  160.88   10.30
   7  -7   6  163.98   11.00
  -8   7  -6  110.49    9.80
   8  -7   6  101.69   10.70
  -9   7  -6   13.20    5.80
   9  -7   6   12.10    6.60
 -10   7  -6   -0.10    6.30
  10  -7   6    3.40    7.40
   9   6  -6   13.30    6.20
   9   6  -6   24.00    8.70
  -9  -6   6   20.60   10.70
   8   6  -6  127.99   12.20
   8   6  -6  135.49   10.70
  -8  -6   6   94.19   11.20
   7   6  -6  229.68   13.50
   7   6  -6  229.28   12.20
  -7  -6   6  216.48   16.50
   6   6  -6    7.80    3.70
   6   6  -6    6.40    5.10
  -6  -6   6   21.20    7.50
   5   6  -6  761.22   30.30
   5   6  -6  772.12   29.40
   5   6  -6  753.32   28.30
  -5  -6   6  702.93   30.60
   4   6  -6 1445.66   53.19
   4   6  -6 1373.56   51.59
   4   6  -6 1427.76   52.39
  -4  -6   6 1419.96   52.49
  -4  -6   6 1405.66   52.59
   3   6  -6 2220.08   78.79
   3   6  -6 2211.88   79.39
   3   6  -6 2011.90   77.89
  -3  -6   6 2186.08   78.99
  -3  -6   6 2179.28   78.69
   2   6  -6  179.28    8.30
   2   6  -6  179.68    9.50
   2   6  -6  186.58   10.20
   2   6  -6  178.38    9.60
  -2  -6   6  185.18    9.80
  -2  -6   6  198.78    9.90
   1   6  -6  945.81   35.70
   1   6  -6  961.50   36.20
   1   6  -6  908.81   37.30
   1   6  -6 1017.40   35.10
  -1  -6   6  941.51   35.50
  -1  -6   6  970.00   36.00
   0   6  -6 2062.99   70.19
   0   6  -6 1938.61   70.89
   0   6  -6 1908.41   70.69
   0  -6   6 1937.41   71.19
   0  -6   6 1914.31   70.49
  -1   6  -6  608.84   24.10
  -1   6  -6  648.64   23.50
  -1   6  -6  630.74   24.30
   1  -6   6  651.03   23.70
   1  -6   6  647.44   24.80
  -2   6  -6   69.59    5.90
  -2   6  -6   67.39    5.70
   2  -6   6   54.09    6.50
   2  -6   6   65.39    4.90
  -3   6  -6  142.49    7.90
  -3   6  -6  145.79    8.10
   3  -6   6  148.09    8.20
   3  -6   6  138.79    8.80
   3  -6   6  156.58    7.40
  -4   6  -6  659.13   25.80
  -4   6  -6  707.93   26.20
   4  -6   6  644.84   26.90
   4  -6   6  677.03   25.80
   4  -6   6  718.63   26.20
  -5   6  -6  565.84   23.20
  -5   6  -6  623.24   23.80
   5  -6   6  628.94   23.60
   5  -6   6  597.74   23.50
  -6   6  -6   89.89    9.90
   6  -6   6   79.89    7.90
   6  -6   6   87.19    7.40
  -7   6  -6  365.06   16.40
  -7   6  -6  397.76   20.80
   7  -6   6  372.96   17.20
  -8   6  -6  184.08   11.40
   8  -6   6  193.48   12.30
  -9   6  -6   42.20    6.30
   9  -6   6   38.80    7.20
 -10   6  -6    2.80    6.20
  10  -6   6    4.50    7.40
  10   5  -6   15.40    7.60
  10   5  -6   31.40    7.80
 -10  -5   6   38.40   11.50
   9   5  -6   96.19   12.20
   9   5  -6  136.19   12.30
  -9  -5   6  115.19   15.80
   8   5  -6  110.29   10.80
   8   5  -6  107.89   10.50
  -8  -5   6   93.39   14.30
   7   5  -6  158.38   10.80
   7   5  -6  165.28   10.20
  -7  -5   6  148.39   13.30
   6   5  -6    7.20    4.60
   6   5  -6   -2.40    5.00
   6   5  -6   11.00    3.90
  -6  -5   6   10.30    3.90
  -6  -5   6    8.10    6.60
   5   5  -6  544.75   21.30
   5   5  -6  517.15   21.00
   5   5  -6  529.25   22.80
  -5  -5   6  505.45   22.30
  -5  -5   6  560.04   22.20
   4   5  -6 1048.80   39.70
   4   5  -6 1032.80   38.80
   4   5  -6 1048.70   38.60
   4   5  -6 1012.10   38.20
  -4  -5   6 1048.10   38.90
  -4  -5   6 1003.90   39.00
   3   5  -6  667.23   26.80
   3   5  -6  676.73   25.30
   3   5  -6  691.53   25.90
   3   5  -6  683.93   25.80
  -3  -5   6  663.33   26.10
  -3  -5   6  651.53   26.00
   2   5  -6  547.15   21.90
   2   5  -6  548.55   26.30
   2   5  -6  593.44   21.60
   2   5  -6  577.14   22.00
  -2  -5   6  564.64   22.20
  -2  -5   6  571.04   22.00
   1   5  -6  549.85   21.80
   1   5  -6  563.44   21.80
   1   5  -6  592.54   21.20
  -1  -5   6  564.94   22.10
  -1  -5   6  562.24   21.60
   0   5  -6   34.50    4.60
   0   5  -6   44.80    4.60
   0   5  -6   38.30    3.60
   0  -5   6   32.90    4.60
   0  -5   6   23.80    3.40
  -1   5  -6  103.69    6.10
  -1   5  -6   93.59   14.60
  -1   5  -6  115.79    6.30
   1  -5   6  106.99    6.10
   1  -5   6  100.79    5.80
   1  -5   6   98.89    6.80
  -2   5  -6    5.50    2.50
  -2   5  -6    4.00    2.70
  -2   5  -6    2.40    5.80
   2  -5   6    5.30    2.90
   2  -5   6    6.50    2.20
   2  -5   6    1.10    2.50
  -3   5  -6  870.01   31.60
  -3   5  -6  817.82   35.00
  -3   5  -6  829.32   31.30
   3  -5   6  869.01   31.60
   3  -5   6  846.42   31.90
   3  -5   6  843.32   31.40
  -4   5  -6 2280.67   84.59
  -4   5  -6 2367.86   85.29
  -4   5  -6 2354.96   87.59
   4  -5   6 2422.16   84.89
   4  -5   6 2306.57   84.79
  -5   5  -6  281.97   12.70
  -5   5  -6  297.07   12.80
  -5   5  -6  291.87   16.50
   5  -5   6  280.77   13.00
   5  -5   6  303.47   12.60
  -6   5  -6   27.00    6.10
  -6   5  -6   27.20    5.10
  -6   5  -6   25.20    3.90
   6  -5   6   28.60    4.60
   6  -5   6   23.90    3.50
  -7   5  -6  462.15   19.60
  -7   5  -6  497.65   22.10
   7  -5   6  467.45   20.30
  -8   5  -6  224.28   12.60
   8  -5   6  238.18   13.50
  -9   5  -6   23.00    6.00
   9  -5   6   31.90    7.10
 -10   5  -6    6.00    6.50
  10  -5   6   19.40    7.70
 -11   5  -6   16.40    7.60
  11  -5   6   16.70    9.10
  10   4  -6   20.70    7.80
  10   4  -6   19.40    6.80
 -10  -4   6   27.80    9.70
   9   4  -6  226.68   13.90
   9   4  -6  235.28   15.30
  -9  -4   6  232.88   17.00
   8   4  -6  234.38   12.60
   8   4  -6  219.28   13.30
  -8  -4   6  211.08   16.10
   7   4  -6   31.30    5.60
   7   4  -6   33.50    5.60
  -7  -4   6   25.70    7.60
   6   4  -6    3.70    4.10
   6   4  -6    3.60    4.10
  -6  -4   6   12.60    3.70
  -6  -4   6    2.20    7.80
   5   4  -6   98.39    8.30
   5   4  -6   92.39    7.40
   5   4  -6   95.79    7.50
  -5  -4   6   85.19    9.40
  -5  -4   6  119.39    7.90
   4   4  -6 1611.94   57.49
   4   4  -6 1611.54   57.49
   4   4  -6 1598.54   57.79
  -4  -4   6 1495.15   57.89
  -4  -4   6 1550.74   57.89
   3   4  -6    7.40    2.70
   3   4  -6    9.70    3.10
   3   4  -6   11.50    3.30
  -3  -4   6   12.70    4.10
  -3  -4   6   11.00    3.10
   2   4  -6  553.14   21.00
   2   4  -6  570.74   20.70
   2   4  -6  544.95   20.70
   2   4  -6  492.25   27.10
  -2  -4   6  535.95   21.30
  -2  -4   6  557.54   21.10
   1   4  -6 2963.50  106.59
   1   4  -6 3004.30  106.89
   1   4  -6 2720.33  110.89
   1   4  -6 3059.09  106.49
  -1  -4   6 2962.90  106.89
  -1  -4   6 3106.29  106.69
  -1  -4   6 2964.80  107.09
   0   4  -6  974.50   34.70
   0   4  -6  863.81   39.40
   0   4  -6  975.20   35.10
   0   4  -6  953.20   34.80
   0  -4   6  967.50   35.10
   0  -4   6  970.00   35.40
  -1   4  -6 1072.99   46.50
  -1   4  -6 1153.68   42.00
  -1   4  -6 1134.09   42.40
   1  -4   6 1165.68   42.30
   1  -4   6 1197.78   42.30
   1  -4   6 1209.58   42.70
  -2   4  -6   39.70    4.30
  -2   4  -6   33.50    4.30
  -2   4  -6   27.60    6.50
   2  -4   6   29.30    3.20
   2  -4   6   32.70    5.00
   2  -4   6   38.70    4.10
  -3   4  -6 1154.88   42.40
  -3   4  -6 1194.08   42.50
  -3   4  -6 1146.09   46.20
   3  -4   6 1195.18   42.60
   3  -4   6 1151.68   42.60
   3  -4   6 1130.69   42.80
  -4   4  -6 2239.58   78.89
  -4   4  -6 2193.08   81.89
  -4   4  -6 2095.79   78.69
   4  -4   6 2106.89   78.99
   4  -4   6 2281.97   78.99
  -5   4  -6   63.39    5.70
  -5   4  -6   63.09   11.00
  -5   4  -6   54.29    6.30
   5  -4   6   72.19    5.60
   5  -4   6   65.49    6.50
  -6   4  -6   36.90    5.00
  -6   4  -6   37.70    5.50
  -6   4  -6   41.30   10.00
   6  -4   6   41.30    5.10
  -7   4  -6  120.09    9.20
  -7   4  -6  139.59   11.20
   7  -4   6  116.59   10.00
  -8   4  -6   49.00    6.00
   8  -4   6   50.59    6.60
  -9   4  -6   12.60    6.00
   9  -4   6    8.80    6.80
 -10   4  -6   12.70    6.80
  10  -4   6   11.60    7.80
 -11   4  -6   10.20    7.90
  11  -4   6    8.60    9.10
  11   3  -6   -3.10    6.90
  11   3  -6  -10.20    8.00
 -11  -3   6   15.50   10.50
  10   3  -6   12.90    6.40
  10   3  -6    1.50    7.60
 -10  -3   6   26.20    9.30
   9   3  -6   98.59   11.60
   9   3  -6   81.99   10.00
  -9  -3   6  108.89   13.50
   8   3  -6   63.89    7.20
   8   3  -6   57.39    7.10
  -8  -3   6   59.69    8.40
   7   3  -6   -0.60    4.20
   7   3  -6   -1.50    5.70
  -7  -3   6    5.70    6.70
  -7  -3   6    9.80    4.30
   6   3  -6  115.39    8.70
   6   3  -6  119.19    9.00
   6   3  -6  133.79   11.50
  -6  -3   6  132.69   10.80
  -6  -3   6  127.19    8.70
   5   3  -6  695.03   26.40
   5   3  -6  675.43   25.90
   5   3  -6  680.63   26.70
  -5  -3   6  694.13   26.60
  -5  -3   6  668.43   27.20
   4   3  -6 1760.32   80.19
   4   3  -6 2108.39   72.19
   4   3  -6 2011.60   72.59
   4   3  -6 2120.69   72.49
  -4  -3   6 2008.60   72.89
  -4  -3   6 1938.31   72.69
   3   3  -6   72.39    5.70
   3   3  -6   68.19   13.20
   3   3  -6   58.29    5.80
   3   3  -6   62.19    5.20
  -3  -3   6   60.99    6.80
  -3  -3   6   59.59    5.90
   2   3  -6   69.29    5.10
   2   3  -6   77.39    5.40
   2   3  -6   66.19    4.80
   2   3  -6   59.79   12.00
  -2  -3   6   67.09    6.10
  -2  -3   6   66.69    5.40
  -2  -3   6   63.19    5.50
   1   3  -6  638.24   23.10
   1   3  -6  635.54   23.40
   1   3  -6  637.34   23.00
   1   3  -6  585.64   28.70
  -1  -3   6  608.44   23.60
  -1  -3   6  611.04   23.40
   0   3  -6 1461.65   52.59
   0   3  -6 1459.35   52.29
   0   3  -6 1488.35   52.29
   0   3  -6 1380.86   57.29
   0  -3   6 1464.25   53.09
   0  -3   6 1426.56   52.59
  -1   3  -6 1017.10   44.80
  -1   3  -6 1108.29   40.10
  -1   3  -6 1108.29   39.90
   1  -3   6 1134.69   40.40
   1  -3   6 1085.49   40.10
   1  -3   6 1128.39   40.30
  -2   3  -6   72.09    5.00
  -2   3  -6   83.59    4.90
  -2   3  -6   68.79   11.80
   2  -3   6   83.59    5.60
   2  -3   6   88.39    5.70
  -3   3  -6 1493.05   60.39
  -3   3  -6 1561.44   56.49
  -3   3  -6 1595.84   56.29
   3  -3   6 1558.54   56.59
  -4   3  -6  592.54   28.10
  -4   3  -6  604.44   23.40
  -4   3  -6  652.93   23.30
   4  -3   6  643.34   23.40
   4  -3   6  610.04   23.90
  -5   3  -6    6.50    2.40
  -5   3  -6    4.00    5.80
  -5   3  -6    9.20    3.50
   5  -3   6    9.70    2.60
   5  -3   6    2.70    3.70
  -6   3  -6  154.28    8.00
  -6   3  -6  178.38   13.10
  -6   3  -6  137.79   13.20
   6  -3   6  138.89   11.50
   6  -3   6  163.68    8.60
  -7   3  -6  161.58   10.40
  -7   3  -6  176.18   12.30
   7  -3   6  166.18   11.20
  -8   3  -6  226.88   12.70
   8  -3   6  241.78   13.60
  -9   3  -6   33.70    6.70
   9  -3   6   34.90    7.30
 -10   3  -6    0.00    7.00
  10  -3   6    3.20    7.70
 -11   3  -6   45.70    8.90
  11   2  -6    0.00    8.70
  11   2  -6   -1.60    6.30
 -11  -2   6    6.50    8.70
  10   2  -6   13.40    7.80
  10   2  -6   24.30    6.00
 -10  -2   6   23.40    8.20
   9   2  -6  178.38   14.20
   9   2  -6  195.08   12.60
  -9  -2   6  199.18   14.60
   8   2  -6  231.18   14.00
  -8  -2   6  231.68   15.10
   7   2  -6    5.00    6.20
   7   2  -6   10.30    4.00
  -7  -2   6   14.70    6.10
  -7  -2   6    3.90    3.80
   6   2  -6    0.40    3.20
   6   2  -6    1.40    4.60
   6   2  -6    2.90    3.80
  -6  -2   6    6.30    3.50
  -6  -2   6    3.40    5.00
   5   2  -6 1354.66   50.29
   5   2  -6 1369.86   49.40
   5   2  -6 1370.76   49.99
  -5  -2   6 1316.57   49.99
  -5  -2   6 1354.66   50.29
   4   2  -6 2110.89   75.89
   4   2  -6 1981.90   84.49
   4   2  -6 2201.88   75.39
   4   2  -6 2088.99   76.09
  -4  -2   6 2154.58   75.99
  -4  -2   6 1989.20   75.99
   3   2  -6  224.28   17.40
   3   2  -6  226.38   10.40
   3   2  -6  216.18   10.20
   3   2  -6  226.38    9.60
  -3  -2   6  219.78   10.60
  -3  -2   6  234.48   10.50
  -3  -2   6  218.58   10.50
   2   2  -6  999.20   45.30
   2   2  -6 1108.99   40.20
   2   2  -6 1115.29   40.50
   2   2  -6 1132.69   39.90
  -2  -2   6 1122.49   40.60
  -2  -2   6 1119.29   40.20
  -2  -2   6 1079.29   40.60
   1   2  -6  335.77   20.00
   1   2  -6  358.16   14.00
   1   2  -6  369.76   13.70
   1   2  -6  368.66   14.30
  -1  -2   6  359.66   14.50
  -1  -2   6  356.66   14.30
   0   2  -6 1462.15   50.59
   0   2  -6 1472.95   50.99
   0   2  -6 1420.36   50.79
   0   2  -6 1275.67   55.59
   0  -2   6 1362.56   51.19
   0  -2   6 1418.16   51.09
  -1   2  -6    1.20    2.00
  -1   2  -6    0.70    5.60
   1  -2   6   -0.10    1.40
   1  -2   6   -3.70    2.60
   1  -2   6   -0.20    2.20
  -2   2  -6  735.33   34.80
  -2   2  -6  816.32   29.50
  -2   2  -6  816.12   29.70
   2  -2   6  832.52   29.60
   2  -2   6  811.92   30.10
   2  -2   6  805.02   29.90
  -3   2  -6 2850.51  111.79
  -3   2  -6 3069.99  107.19
  -3   2  -6 3041.10  107.29
   3  -2   6 2993.10  107.49
   3  -2   6 2994.60  107.79
  -4   2  -6 1396.86   49.80
  -4   2  -6 1299.57   54.79
  -4   2  -6 1391.76   50.09
   4  -2   6 1431.46   49.99
   4  -2   6 1356.66   50.59
  -5   2  -6   14.30    7.00
  -5   2  -6   21.90    3.90
   5  -2   6   13.90    4.10
   5  -2   6   19.20    2.70
  -6   2  -6  376.46   18.20
  -6   2  -6  428.66   21.40
   6  -2   6  381.86   18.00
   6  -2   6  425.16   16.00
  -7   2  -6  124.19    9.80
  -7   2  -6  153.18   13.10
   7  -2   6  109.39   10.50
  -8   2  -6  151.18   11.20
   8  -2   6  154.78   12.60
  -9   2  -6   -5.40    6.20
   9  -2   6    8.50    6.50
 -10   2  -6   -1.20    7.10
  10  -2   6    6.40    7.70
  11   1  -6    1.50    6.50
  11   1  -6   -6.10    9.20
 -11  -1   6    9.60    8.70
  10   1  -6    3.30    7.60
  10   1  -6   12.40    5.60
 -10  -1   6   17.00    7.80
   9   1  -6   83.29    9.00
   9   1  -6   88.49   12.40
  -9  -1   6   99.39   12.50
   8   1  -6  434.36   20.30
   8   1  -6  429.16   18.10
  -8  -1   6  439.76   20.80
  -8  -1   6  430.36   20.30
   7   1  -6  171.78   11.50
   7   1  -6  154.38    9.00
   7   1  -6  154.48   11.50
  -7  -1   6  173.48   10.70
  -7  -1   6  168.48   11.70
   6   1  -6   12.30    4.90
   6   1  -6   14.30    4.00
   6   1  -6   11.10    3.20
  -6  -1   6   14.30    4.20
  -6  -1   6   11.00    4.90
   5   1  -6  834.32   30.50
   5   1  -6  831.12   31.70
   5   1  -6  823.02   31.50
  -5  -1   6  822.72   31.60
  -5  -1   6  806.92   31.50
   4   1  -6  458.95   17.10
   4   1  -6  454.85   18.20
   4   1  -6  417.36   17.90
  -4  -1   6  422.46   18.10
  -4  -1   6  448.16   18.10
  -4  -1   6  464.55   18.40
   3   1  -6   -1.40    2.30
   3   1  -6    0.90    2.80
  -3  -1   6    1.00    2.80
  -3  -1   6   -4.60    2.50
  -3  -1   6    3.40    3.10
   2   1  -6 2364.06   85.69
   2   1  -6 2474.05   85.09
   2   1  -6 2363.46   85.49
   2   1  -6 2302.37   91.69
  -2  -1   6 2329.07   85.39
  -2  -1   6 2337.17   85.69
  -2  -1   6 2412.56   85.79
   1   1  -6 1827.72   75.59
   1   1  -6 1969.40   70.79
   1   1  -6 1942.91   70.49
   1   1  -6 2043.00   70.19
  -1  -1   6 2045.10   70.39
  -1  -1   6 1893.91   70.79
   0   1  -6  464.45   24.90
   0   1  -6  497.85   19.00
   0   1  -6  528.05   19.20
   0   1  -6  529.65   18.70
   0  -1   6  474.45   19.20
   0  -1   6  514.95   19.10
  -1   1  -6    7.20    1.90
  -1   1  -6    8.00    2.20
  -1   1  -6    7.30    6.20
   1  -1   6    5.80    3.00
   1  -1   6    4.80    2.30
   1  -1   6    6.10    2.20
  -2   1  -6  674.03   23.60
  -2   1  -6  654.83   23.70
  -2   1  -6  557.24   29.70
   2  -1   6  643.94   23.60
   2  -1   6  656.83   24.40
  -3   1  -6  269.67   11.00
  -3   1  -6  230.88   18.40
   3  -1   6  274.87   10.60
   3  -1   6  268.77   11.80
  -4   1  -6  349.57   13.80
  -4   1  -6  300.97   20.70
   4  -1   6  324.97   14.30
   4  -1   6  353.76   13.10
  -5   1  -6   92.09    7.40
  -5   1  -6   92.99   15.10
   5  -1   6  102.99    5.50
   5  -1   6   87.09    7.80
  -6   1  -6   61.39    8.00
  -6   1  -6   94.49    8.40
  -6   1  -6   50.19   10.30
   6  -1   6   68.49    8.30
   6  -1   6   78.69    5.40
  -7   1  -6   92.89    9.80
   7  -1   6  112.69   10.40
   7  -1   6  114.89   10.50
  -8   1  -6   17.70    6.30
   8  -1   6   12.00    6.40
   8  -1   6   21.00    6.30
  -9   1  -6  -12.20    6.60
   9  -1   6    2.60    6.90
   9  -1   6    4.20    6.60
 -10   1  -6    3.60    8.00
  10  -1   6   20.60    8.10
  10  -1   6   10.10    8.50
  11   0  -6   -8.10   10.10
  11   0  -6  -14.40    8.60
 -11   0   6    1.70    9.00
  10   0  -6   93.19   10.50
  10   0  -6  118.49   11.00
 -10   0   6  120.49   14.80
   9   0  -6  170.18   14.50
   9   0  -6  173.08   10.30
  -9   0   6  161.78   14.00
   8   0  -6   58.19    9.30
   8   0  -6   44.90    7.30
   8   0  -6   49.99    6.90
  -8   0   6   46.60    7.50
   7   0  -6    3.70    3.60
   7   0  -6   12.30    5.10
   7   0  -6    9.90    5.50
  -7   0   6   14.60    6.00
   6   0  -6 1263.47   46.50
   6   0  -6 1251.37   44.90
   6   0  -6 1108.89   48.40
  -6   0   6 1239.68   47.60
  -6   0   6 1273.97   46.40
   5   0  -6 1811.22   70.09
   5   0  -6 1940.11   69.09
   5   0  -6 1954.70   70.49
  -5   0   6 1876.21   70.59
  -5   0   6 1970.90   70.59
  -5   0   6 1959.70   70.39
   4   0  -6  545.35   22.60
   4   0  -6  595.64   22.90
   4   0  -6  607.74   21.50
  -4   0   6  552.44   22.70
  -4   0   6  594.34   22.80
  -4   0   6  548.25   22.90
   3   0  -6  312.87   13.80
   3   0  -6  319.97   13.80
   3   0  -6  357.06   12.60
  -3   0   6  314.67   14.00
  -3   0   6  325.47   13.80
  -3   0   6  290.57   13.40
   2   0  -6  569.14   21.70
   2   0  -6  572.74   21.90
   2   0  -6  589.64   20.70
  -2   0   6  554.74   21.40
  -2   0   6  545.05   22.80
  -2   0   6  528.35   22.10
   1   0  -6 2242.28   83.39
   1   0  -6 2475.95   82.89
   1   0  -6 2258.57   83.49
  -1   0   6 2363.96   83.29
  -1   0   6 2396.36   83.59
  -1   0   6 2134.19   85.19
   0   0  -6  538.75   19.50
   0   0  -6  509.15   20.30
   0   0  -6  498.25   20.60
   0   0   6  536.25   20.00
   0   0   6  548.65   19.80
  -1   0  -6    4.90    2.20
  -1   0  -6   10.70    2.10
   1   0   6    1.90    3.10
   1   0   6    6.90    1.90
   1   0   6    4.50    2.20
  -2   0  -6  266.07   10.70
   2   0   6  254.17   11.70
   2   0   6  267.17   12.00
   2   0   6  257.97   10.30
  -3   0  -6  274.97   11.60
   3   0   6  286.57   11.20
   3   0   6  270.87   10.80
   3   0   6  267.97   12.40
  -4   0  -6   95.19    7.10
   4   0   6  106.09    5.20
   4   0   6  106.49    5.50
   4   0   6   81.99    7.70
  -5   0  -6   31.90    4.80
  -5   0  -6   36.40    4.80
   5   0   6   30.90    3.90
   5   0   6   27.30    5.00
   5   0   6   28.10    8.60
  -6   0  -6   59.89   12.30
  -6   0  -6   50.39    7.50
  -6   0  -6   53.89    6.00
   6   0   6   76.59    5.30
   6   0   6   70.99    8.90
   6   0   6   65.39    9.00
  -7   0  -6  453.95   22.10
   7   0   6  545.75   22.60
   7   0   6  572.34   22.90
   8   0   6   71.69    8.30
   8   0   6   70.19    7.90
   9   0   6   -1.30    6.90
   9   0   6   -0.90    7.60
 -10   0  -6    0.10    9.30
  10   0   6   21.30    9.40
  10   0   6   11.30    7.90
  11  -1  -6   -8.30    8.60
 -11   1   6   13.70    9.20
  10  -1  -6   65.89    9.90
 -10   1   6   85.59   10.20
   9  -1  -6   83.39    9.40
  -9   1   6  100.29   13.40
   8  -1  -6   17.90    6.40
   8  -1  -6   14.10    3.80
  -8   1   6   11.30    7.10
   7  -1  -6    3.70    4.90
   7  -1  -6    5.10    5.60
   7  -1  -6   -1.30    3.10
  -7   1   6   -3.50    6.00
   6  -1  -6  322.07   15.60
   6  -1  -6  354.96   16.20
   6  -1  -6  342.07   13.60
   5  -1  -6  189.68   10.70
   5  -1  -6  159.08   10.40
   5  -1  -6  189.68   10.10
  -5   1   6  175.08   10.20
   4  -1  -6  148.69    9.30
   4  -1  -6  169.78    9.30
  -4   1   6  137.79    9.20
  -4   1   6  153.08    8.80
   3  -1  -6   11.00    3.20
   3  -1  -6   10.70    3.90
  -3   1   6   12.30    3.10
  -3   1   6   11.00    3.90
   2  -1  -6    4.70    2.60
   2  -1  -6    5.70    3.30
  -2   1   6    6.90    3.10
  -2   1   6    0.20    2.50
   1  -1  -6  123.59    7.00
   1  -1  -6  152.18    6.70
   1  -1  -6  143.09    7.70
  -1   1   6  141.89    7.40
  -1   1   6  141.09    7.60
   0  -1  -6   85.49    6.20
   0  -1  -6   88.59    4.80
   0   1   6   84.89    5.60
   0   1   6   85.09    5.60
  -1  -1  -6   96.49    5.30
   1   1   6   86.79    5.60
   1   1   6   93.39    5.20
   1   1   6   89.39    7.00
  -2  -1  -6  473.75   17.80
   2   1   6  472.25   17.80
   2   1   6  446.86   17.40
   2   1   6  469.15   19.00
  -3  -1  -6  558.84   21.10
   3   1   6  532.85   22.00
   3   1   6  558.14   20.80
  -4  -1  -6  114.09    8.00
   4   1   6  120.19    8.20
   4   1   6  107.59    6.40
   4   1   6  109.69    8.70
  -5  -1  -6    4.80    4.80
   5   1   6   -1.20    4.50
   5   1   6   -3.90    7.40
  -6  -1  -6  148.29   11.10
   6   1   6  144.89   10.90
   6   1   6  153.38   11.70
  -7  -1  -6  248.58   14.80
   7   1   6  254.67   15.10
   7   1   6  253.27   14.10
   8   1   6   31.20    6.90
   8   1   6   27.90    7.30
   9   1   6    2.70    7.90
   9   1   6   10.20    7.20
  10  -2  -6   34.00    8.90
 -10   2   6   37.30    9.00
   9  -2  -6   54.09    8.30
  -9   2   6   70.19    8.90
   8  -2  -6  124.89   12.70
  -8   2   6   96.79   12.00
   7  -2  -6   45.90    6.70
  -7   2   6   46.50    7.30
   6  -2  -6  226.48   12.50
  -6   2   6  205.18   13.00
   5  -2  -6  835.22   31.80
   5  -2  -6  745.53   32.70
  -5   2   6  857.31   30.80
  -5   2   6  723.53   32.20
   4  -2  -6   20.50    4.60
   4  -2  -6   16.00    3.90
  -4   2   6    9.20    3.40
  -4   2   6   21.00    4.80
   3  -2  -6   66.79    6.80
   3  -2  -6   68.89    7.70
  -3   2   6   84.49    7.10
   2  -2  -6  737.43   28.80
   2  -2  -6  755.82   29.10
  -2   2   6  770.72   30.00
  -2   2   6  794.32   29.10
   1  -2  -6 1375.26   51.39
  -1   2   6 1447.46   51.39
  -1   2   6 1388.46   51.49
   0  -2  -6  320.17   12.20
   0  -2  -6  314.37   13.60
   0   2   6  318.97   13.00
   0   2   6  308.47   13.20
  -1  -2  -6   18.50    2.80
  -1  -2  -6   19.80    4.00
   1   2   6   20.10    3.50
   1   2   6   16.50    2.40
  -2  -2  -6  483.95   18.20
   2   2   6  464.45   19.40
   2   2   6  471.05   18.50
  -3  -2  -6  629.24   23.50
   3   2   6  598.24   23.40
   3   2   6  618.74   24.60
   4   2   6  124.79    7.50
   4   2   6  124.49    8.80
   4   2   6  115.09   10.80
   5   2   6   27.70    4.20
   5   2   6   20.00    5.20
   5   2   6   20.60    5.30
  -6  -2  -6   92.19   11.60
   6   2   6  121.99   11.00
   6   2   6   91.69   10.50
  -7  -2  -6   97.89   10.60
   7   2   6  108.59   11.30
   7   2   6  116.79   12.20
   8   2   6   19.20    7.70
   8   2   6   15.10    6.60
  10  -3  -6   -5.50    8.30
 -10   3   6   -1.10    8.80
   9  -3  -6    8.80    7.50
  -9   3   6   -1.70    7.90
   8  -3  -6   12.90    7.30
  -8   3   6    2.30    7.40
   7  -3  -6   63.59    7.30
  -7   3   6   45.80    7.70
   6  -3  -6  207.88   11.90
  -6   3   6  179.78   12.80
   5  -3  -6  743.93   29.00
  -5   3   6  722.13   29.30
   4  -3  -6    8.00    4.40
   4  -3  -6    9.80    8.30
  -4   3   6   27.70    6.50
   3  -3  -6  409.96   17.80
   3  -3  -6  403.06   17.20
  -3   3   6  406.16   17.70
  -3   3   6  424.66   17.00
   2  -3  -6  351.66   15.50
  -2   3   6  352.86   15.80
  -2   3   6  366.96   15.00
   1  -3  -6  114.69    9.50
  -1   3   6  122.29    7.20
  -1   3   6  128.29    8.60
   0  -3  -6   40.10    4.20
   0  -3  -6   55.29    7.10
   0   3   6   50.99    6.40
   0   3   6   30.70    4.90
  -1  -3  -6   -2.10    4.00
  -1  -3  -6   -1.50    2.80
   1   3   6   11.80    4.00
  -2  -3  -6   61.69    7.90
  -2  -3  -6   56.09    5.90
   2   3   6   42.30    5.40
   2   3   6   55.09    6.70
  -3  -3  -6  143.09    8.80
   3   3   6  150.08    8.80
   3   3   6  106.19   13.90
   3   3   6  147.59    8.80
   4   3   6   29.70    6.60
   4   3   6   39.40    4.90
   4   3   6   39.70    5.80
   5   3   6   73.89    9.40
   5   3   6   66.99    7.90
   5   3   6   58.59    6.80
  -6  -3  -6  170.88   15.00
   6   3   6  191.88   12.70
   6   3   6  181.28   12.60
  -7  -3  -6   55.09   11.40
   7   3   6   59.89    7.40
   7   3   6   58.89    7.60
   8   3   6   14.10    7.40
   8   3   6    5.30    7.60
   9  -4  -6   24.70    8.20
  -9   4   6   31.40    9.40
   8  -4  -6   18.50    7.40
  -8   4   6  -10.50    7.70
   7  -4  -6   39.00    7.10
  -7   4   6   37.70    8.10
   6  -4  -6  269.17   14.30
  -6   4   6  248.38   15.10
   5  -4  -6  114.69   10.30
  -5   4   6  121.59   11.50
   4  -4  -6  138.19   10.20
  -4   4   6  130.39   11.10
   3  -4  -6   34.30    6.00
  -3   4   6   31.10    5.90
   2  -4  -6  213.58   16.80
  -2   4   6  210.78   13.40
   1  -4  -6    5.60    5.10
  -1   4   6    1.60    6.40
   0  -4  -6   -5.10    3.10
   0  -4  -6    7.80    4.90
   0   4   6   -6.00    4.70
   0   4   6   -3.20    2.60
  -1  -4  -6   35.90    8.80
  -1  -4  -6   34.70    3.40
   1   4   6   44.90    5.90
  -2  -4  -6  140.89    8.10
  -2  -4  -6  131.29    9.80
   2   4   6  129.19   11.80
   3   4   6  153.78    9.30
   3   4   6  147.59   11.20
   3   4   6  139.69   10.40
   4   4   6  116.19   10.00
   4   4   6  106.09   10.10
   4   4   6  100.49    9.30
   5   4   6   51.69    6.80
   5   4   6   61.79    9.00
   5   4   6   57.29    6.80
  -6  -4  -6  108.69   15.20
   6   4   6  116.69   11.90
   6   4   6  102.89   10.30
   6   4   6  109.19   11.60
  -7  -4  -6   23.80    9.60
   7   4   6   22.40    7.50
   7   4   6   25.50    6.70
   9  -5  -6   30.60    8.80
  -9   5   6   23.70   10.40
   8  -5  -6   -0.30    7.60
  -8   5   6  -10.30    8.70
   7  -5  -6   10.90    6.70
  -7   5   6   -4.00    8.00
   6  -5  -6   30.00    7.00
  -6   5   6   30.70    8.00
   5  -5  -6   10.80    5.80
  -5   5   6   -6.70    6.50
   4  -5  -6    1.20    6.00
  -4   5   6    1.00    6.20
   3  -5  -6  101.19   10.30
  -3   5   6   96.29   11.20
   2  -5  -6  146.89   11.10
  -2   5   6  141.89   11.30
   1  -5  -6   75.49    9.30
  -1   5   6   62.09    7.30
   0  -5  -6   51.39    6.20
   0   5   6   37.50    6.40
  -1  -5  -6   23.30    5.80
   1   5   6   23.60    5.90
  -2  -5  -6  148.19   10.80
  -2  -5  -6  157.28    9.30
   2   5   6  137.99   11.20
  -3  -5  -6  146.69   11.00
   3   5   6  139.99   11.10
   3   5   6  147.59    9.90
  -4  -5  -6   32.20    6.70
   4   5   6   48.40    6.20
   4   5   6   43.20    6.30
   4   5   6   28.70    6.20
   5   5   6   28.60    6.30
   5   5   6   21.60    6.10
   5   5   6   41.70    6.40
   7  -6  -6   66.59    8.40
  -7   6   6   65.39   11.00
   6  -6  -6   55.69    8.00
  -6   6   6   49.40    9.80
   5  -6  -6   21.40    6.60
  -5   6   6    4.90    7.80
   4  -6  -6   16.70    6.20
  -4   6   6   17.70    7.70
   3  -6  -6   74.39   10.50
  -3   6   6   53.29    8.30
   2  -6  -6  144.09   12.00
  -2   6   6  118.19   12.30
   1  -6  -6   93.49   10.90
  -1   6   6   96.19   11.60
   0  -6  -6   38.20    7.00
   0   6   6   39.60    7.40
  -1  -6  -6    3.40    6.60
   1   6   6    4.30    6.40
  -2  -6  -6   93.29   10.90
   2   6   6   90.99   11.80
  -3  -6  -6   79.69   10.60
   3   6   6   78.29   11.60
  -4  -6  -6    4.10    6.70
   4   6   6    3.80    6.30
   5  -7  -6   40.00    7.80
  -5   7   6   37.90   10.10
   4  -7  -6    0.90    6.30
  -4   7   6    3.30    8.50
   3  -7  -6    7.80    6.50
  -3   7   6    5.50    8.40
   2  -7  -6   21.00    6.90
  -2   7   6   16.00    8.20
   1  -7  -6   33.60    7.20
  -1   7   6   17.30    8.10
   0  -7  -6   30.10    7.20
   0   7   6   17.40    8.10
  -1  -7  -6   31.30    7.40
   1   7   6   23.40    8.00
   3  12  -7    5.40    8.00
  -3 -12   7    5.20   10.40
   2  12  -7  109.69   13.70
  -2 -12   7  162.18   17.50
   1  12  -7  211.38   13.60
   1  12  -7  167.58   14.40
   0  12  -7   97.49   12.40
   0  12  -7  104.99   11.30
  -1  12  -7   -1.50    6.50
  -1  12  -7   -0.70    6.30
  -2  12  -7   59.29    7.10
  -2  12  -7   55.29    8.10
  -3  12  -7   82.09   10.20
  -3  12  -7   86.99   12.20
  -4  12  -7   83.69   11.70
  -4  12  -7   67.69   10.30
  -5  12  -7    2.10    6.70
  -6  12  -7   43.30    7.20
   5  11  -7   50.99    9.50
  -5 -11   7   46.80   11.60
   4  11  -7   22.50    8.10
  -4 -11   7   34.20   10.80
   3  11  -7   -9.80    6.70
  -3 -11   7    4.80    8.90
   2  11  -7   50.69    7.90
  -2 -11   7   74.79    9.80
   1  11  -7  384.06   19.20
   1  11  -7  387.36   18.00
   0  11  -7   -5.80    5.50
   0  11  -7   -0.10    6.20
  -1  11  -7   30.30    6.40
  -1  11  -7   28.30    6.00
  -2  11  -7   61.59    7.30
  -2  11  -7   59.29    6.40
  -3  11  -7   68.89    9.30
  -3  11  -7   78.39   10.30
  -4  11  -7    5.70    5.70
  -5  11  -7   18.10    6.30
  -6  11  -7  165.88   13.20
  -7  11  -7  120.99   12.50
   6  10  -7   89.49   10.30
  -6 -10   7  129.79   19.00
   5  10  -7   57.99    8.90
  -5 -10   7   62.99   10.60
   4  10  -7   14.80    6.90
  -4 -10   7   25.00    9.40
   3  10  -7    8.90    6.40
  -3 -10   7   16.70    8.10
   2  10  -7  114.69   11.30
  -2 -10   7  110.79   12.90
   1  10  -7  584.94   23.80
   1  10  -7  586.34   25.00
  -1 -10   7  583.74   25.30
   0  10  -7    4.90    8.40
   0  10  -7   -4.80    5.60
  -1  10  -7  523.65   21.60
  -1  10  -7  552.24   23.00
  -2  10  -7  495.55   20.30
  -2  10  -7  511.95   21.80
  -3  10  -7  313.77   14.30
  -3  10  -7  341.87   16.00
  -4  10  -7   68.39    9.80
  -4  10  -7   51.19    7.10
  -5  10  -7   22.90    5.90
  -6  10  -7  165.18   11.80
   6 -10   7  149.09   10.50
  -7  10  -7   70.89    7.60
   7 -10   7   66.99    8.20
  -8  10  -7   16.70    7.60
   8 -10   7   -4.00    6.10
   7   9  -7   26.40    8.50
  -7  -9   7   38.00   12.00
   6   9  -7  147.09   14.10
  -6  -9   7  162.78   17.40
   5   9  -7   67.89    8.00
  -5  -9   7   70.59   10.00
   4   9  -7   -1.60    5.80
  -4  -9   7   -1.00    7.90
   3   9  -7   51.19    6.80
  -3  -9   7   78.59   11.50
   2   9  -7  806.12   31.30
  -2  -9   7  753.82   33.40
   1   9  -7  435.96   19.00
  -1  -9   7  414.26   19.10
   0   9  -7   84.89    7.60
   0   9  -7   93.29    9.80
   0  -9   7   73.79    9.50
  -1   9  -7  177.08   10.80
  -1   9  -7  170.88   11.10
   1  -9   7  161.98   11.40
  -2   9  -7  378.96   16.10
  -2   9  -7  402.86   15.60
  -2   9  -7  371.76   16.80
   2  -9   7  347.07   17.50
  -3   9  -7   63.69    6.00
  -3   9  -7   64.19    8.70
   3  -9   7   59.59    5.50
   3  -9   7   47.00    6.70
  -4   9  -7    1.40    5.10
  -4   9  -7    2.60    3.10
  -4   9  -7    0.80    4.90
   4  -9   7    9.00    3.60
  -5   9  -7   16.10    5.50
   5  -9   7   11.30    4.30
  -6   9  -7   69.89    9.80
   6  -9   7   73.99    8.60
  -7   9  -7    2.50    5.70
   7  -9   7   -0.40    5.60
  -8   9  -7   43.70    6.80
   8  -9   7   40.50    6.90
  -9   9  -7   12.60    7.00
   9  -9   7    1.90    6.80
   8   8  -7    0.80    7.30
  -8  -8   7    8.60   11.70
   7   8  -7  280.57   17.10
  -7  -8   7  298.77   20.40
   6   8  -7  467.65   22.10
  -6  -8   7  493.95   23.90
   5   8  -7  301.97   16.30
  -5  -8   7  314.27   18.20
   4   8  -7    3.60    5.30
  -4  -8   7    5.30    7.00
   3   8  -7  217.48   12.80
  -3  -8   7  233.98   16.10
   2   8  -7 1203.28   45.70
  -2  -8   7 1204.08   45.50
  -2  -8   7 1231.88   45.70
   1   8  -7  169.68   10.90
  -1  -8   7  180.38   10.80
  -1  -8   7  182.58   10.60
   0   8  -7   -5.60    7.70
   0   8  -7    8.90    3.50
   0  -8   7   -2.60    4.20
   0  -8   7   10.80    4.70
  -1   8  -7  283.87   13.70
  -1   8  -7  313.97   11.70
  -1   8  -7  276.07   14.00
  -1   8  -7  291.97   12.30
   1  -8   7  298.77   14.40
  -2   8  -7  397.56   15.50
  -2   8  -7  364.06   17.70
  -2   8  -7  391.86   16.70
   2  -8   7  377.86   17.40
   2  -8   7  397.46   15.30
  -3   8  -7   64.99    7.60
  -3   8  -7   63.99    5.00
   3  -8   7   59.59    5.90
   3  -8   7   44.40    5.80
  -4   8  -7    6.30    3.10
  -4   8  -7    1.30    4.00
  -4   8  -7    2.50    4.60
   4  -8   7    0.90    3.60
  -5   8  -7  200.88   11.20
   5  -8   7  194.28   10.60
  -6   8  -7  338.57   15.50
   6  -8   7  343.77   16.00
  -7   8  -7  195.68   12.00
   7  -8   7  184.38   12.60
  -8   8  -7  119.59   10.90
   8  -8   7   93.19   11.30
  -9   8  -7   36.50    6.80
   9  -8   7   36.70    7.40
   9   7  -7   18.40    8.10
  -9  -7   7   24.10   11.80
   8   7  -7    3.80    5.40
   8   7  -7    3.30    6.90
  -8  -7   7   10.20   10.30
   7   7  -7   99.49   11.60
   7   7  -7   77.39    9.00
  -7  -7   7   99.19   15.50
   6   7  -7  109.89    8.10
   6   7  -7   86.09   10.60
  -6  -7   7   86.29   13.80
   5   7  -7    3.60    5.20
   5   7  -7   14.80    3.60
  -5  -7   7    9.00    7.20
   4   7  -7   55.69    5.60
   4   7  -7   52.59    6.10
  -4  -7   7   69.29    9.90
  -4  -7   7   49.99    9.00
   3   7  -7  169.48   10.50
   3   7  -7  150.78    8.00
  -3  -7   7  174.98   10.60
  -3  -7   7  174.58   11.50
   2   7  -7  138.99    7.10
   2   7  -7  124.89    9.30
  -2  -7   7  136.19    9.40
  -2  -7   7  138.79    9.50
   1   7  -7    3.30    3.50
   1   7  -7   -1.70    3.70
   1   7  -7    8.50    2.80
  -1  -7   7    6.80    4.00
  -1  -7   7    3.50    4.30
   0   7  -7    2.50    3.90
   0   7  -7    5.50    2.50
   0   7  -7    2.00    3.40
   0  -7   7   -3.70    3.50
  -1   7  -7  281.47   13.00
  -1   7  -7  288.27   13.10
  -1   7  -7  296.77   11.60
   1  -7   7  295.07   12.50
   1  -7   7  305.07   13.80
  -2   7  -7  811.82   31.90
  -2   7  -7  869.71   32.20
   2  -7   7  862.51   31.50
   2  -7   7  850.31   32.70
  -3   7  -7  320.57   14.10
  -3   7  -7  344.57   14.40
   3  -7   7  316.77   15.30
   3  -7   7  320.57   13.70
  -4   7  -7   96.09    9.80
  -4   7  -7  104.09    7.90
   4  -7   7   94.69    7.20
  -5   7  -7  205.98   11.70
  -5   7  -7  180.68   10.50
   5  -7   7  189.68   10.40
  -6   7  -7  125.29    9.20
   6  -7   7  108.69   14.80
  -7   7  -7  307.47   14.90
   7  -7   7  303.17   15.90
  -8   7  -7   -0.50    5.30
   8  -7   7    2.30    5.80
  -9   7  -7   77.09   10.80
   9  -7   7   63.69    8.20
 -10   7  -7  111.29   13.20
  10  -7   7  135.89   14.50
   9   6  -7    7.10    6.40
   9   6  -7   19.50    7.20
  -9  -6   7    3.40   10.70
   8   6  -7   93.59   11.50
   8   6  -7  121.99   11.30
  -8  -6   7  119.49   15.60
   7   6  -7   43.40    6.40
   7   6  -7   39.00    6.20
  -7  -6   7   39.60    8.50
   6   6  -7  109.79    9.20
   6   6  -7  116.99   10.10
  -6  -6   7  118.39   12.70
   5   6  -7   97.89    8.50
   5   6  -7   81.79    7.40
  -5  -6   7   81.49    9.80
   4   6  -7  121.49   13.80
   4   6  -7  131.39    8.00
  -4  -6   7  147.59    9.40
  -4  -6   7  124.09   10.80
   3   6  -7 1416.76   49.90
   3   6  -7 1369.86   50.59
   3   6  -7 1328.37   50.39
  -3  -6   7 1350.66   50.49
  -3  -6   7 1341.57   50.69
   2   6  -7 2902.11   98.99
   2   6  -7 2689.43   99.29
   2   6  -7 2766.82   99.49
  -2  -6   7 2696.03   99.69
  -2  -6   7 2675.03   99.19
   1   6  -7 1521.15   52.39
   1   6  -7 1434.26   52.99
   1   6  -7 1430.86   52.99
  -1  -6   7 1434.86   53.39
  -1  -6   7 1392.96   52.69
   0   6  -7    9.90    3.50
   0   6  -7   13.70    2.70
   0   6  -7    6.70    3.10
   0  -6   7    9.50    3.60
  -1   6  -7  785.82   29.30
  -1   6  -7  745.53   29.00
   1  -6   7  787.72   29.70
   1  -6   7  768.72   28.70
  -2   6  -7 1785.12   62.69
  -2   6  -7 1669.83   62.39
   2  -6   7 1725.73   62.69
   2  -6   7 1680.93   62.99
   2  -6   7 1722.73   62.29
  -3   6  -7  767.92   29.80
  -3   6  -7  779.72   30.80
   3  -6   7  810.92   30.20
   3  -6   7  817.22   30.10
  -4   6  -7   47.70    6.50
  -4   6  -7   60.49    6.60
   4  -6   7   45.70    6.30
   4  -6   7   56.89    6.30
  -5   6  -7  305.17   15.20
   5  -6   7  322.17   14.30
   5  -6   7  327.27   14.00
  -6   6  -7  114.89    8.60
   6  -6   7  105.19   11.30
  -7   6  -7  210.18   11.90
   7  -6   7  211.18   12.80
  -8   6  -7    8.50    5.60
   8  -6   7   -0.80    5.90
  -9   6  -7  157.88   12.20
   9  -6   7  169.78   13.70
 -10   6  -7  110.29   12.50
  10  -6   7  108.39   14.20
  10   5  -7   57.89    8.50
  10   5  -7   51.89    8.20
 -10  -5   7   48.80   11.80
   9   5  -7    3.00    6.80
   9   5  -7   12.90    6.30
  -9  -5   7   22.80    9.80
   8   5  -7  134.39   10.90
   8   5  -7  107.69   11.50
  -8  -5   7  147.29   15.40
   7   5  -7  272.67   20.50
   7   5  -7  272.07   14.10
  -7  -5   7  298.17   17.10
   6   5  -7  123.59    9.50
   6   5  -7  117.59    9.20
  -6  -5   7  111.59   12.10
   5   5  -7  469.85   18.80
  -5  -5   7  461.85   19.20
  -5  -5   7  419.96   20.00
   4   5  -7   15.00    4.10
   4   5  -7   14.00    4.00
   4   5  -7   16.70    4.10
  -4  -5   7    4.20    5.30
  -4  -5   7   15.80    4.30
   3   5  -7  993.60   35.60
   3   5  -7  981.70   36.10
   3   5  -7  970.40   35.90
  -3  -5   7  928.01   36.20
  -3  -5   7  902.01   36.00
   2   5  -7 1039.60   38.90
   2   5  -7 1022.90   38.70
   2   5  -7 1092.79   38.60
  -2  -5   7 1009.80   38.80
  -2  -5   7 1058.69   39.30
   1   5  -7  200.28    9.00
   1   5  -7  205.88    9.50
   1   5  -7  204.68    9.70
  -1  -5   7  192.58    9.60
  -1  -5   7  203.48   10.30
   0   5  -7  459.95   18.10
   0   5  -7  468.75   17.50
   0   5  -7  436.86   17.80
   0  -5   7  447.06   18.10
   0  -5   7  474.55   18.70
  -1   5  -7  718.03   27.30
  -1   5  -7  742.03   27.50
   1  -5   7  737.33   27.30
   1  -5   7  729.33   28.00
   1  -5   7  714.23   27.40
  -2   5  -7   89.99    6.30
  -2   5  -7   76.39    6.00
   2  -5   7   86.39    5.90
   2  -5   7   68.29    7.10
   2  -5   7   70.79    6.00
  -3   5  -7   70.09    6.10
  -3   5  -7   60.09    6.20
   3  -5   7   70.99    6.20
   3  -5   7   56.19    6.30
  -4   5  -7  697.23   25.60
  -4   5  -7  643.54   25.50
   4  -5   7  693.13   25.70
   4  -5   7  643.34   25.70
  -5   5  -7  201.58    9.90
  -5   5  -7  177.38   13.80
   5  -5   7  203.98   10.50
   5  -5   7  208.58    9.90
  -6   5  -7  371.26   16.20
   6  -5   7  377.96   16.80
  -7   5  -7   93.19    9.10
   7  -5   7   93.89   10.00
  -8   5  -7    7.40    5.50
   8  -5   7   -7.50    5.80
  -9   5  -7  182.68   12.80
   9  -5   7  196.28   14.50
 -10   5  -7   64.79    8.20
  10  -5   7   58.19    9.00
  10   4  -7  135.89   12.70
  10   4  -7  145.79   15.50
 -10  -4   7  168.98   16.90
   9   4  -7   -6.00    5.70
   9   4  -7    1.70    6.70
  -9  -4   7   13.50    8.30
   8   4  -7   45.40    7.00
   8   4  -7   41.10    6.00
  -8  -4   7   44.60    8.60
   7   4  -7  291.37   14.80
   7   4  -7  273.47   13.50
  -7  -4   7  276.67   17.00
   6   4  -7  183.58   12.80
   6   4  -7  216.98   11.60
  -6  -4   7  188.68   13.90
  -6  -4   7  215.48   11.30
   5   4  -7  677.23   27.10
   5   4  -7  735.23   27.20
   5   4  -7  693.23   27.50
  -5  -4   7  718.93   27.60
  -5  -4   7  658.13   29.00
   4   4  -7  306.27   13.80
   4   4  -7  310.57   13.30
   4   4  -7  305.87   13.40
  -4  -4   7  296.67   13.80
  -4  -4   7  284.87   14.70
   3   4  -7  672.83   25.60
   3   4  -7  679.93   26.00
   3   4  -7  687.03   25.80
  -3  -4   7  655.73   26.20
  -3  -4   7  665.73   26.30
   2   4  -7  622.34   23.90
   2   4  -7  648.74   24.00
   2   4  -7  624.74   24.30
  -2  -4   7  646.84   24.40
  -2  -4   7  599.84   25.00
  -2  -4   7  643.44   27.50
   1   4  -7   -0.30    2.60
   1   4  -7    3.50    2.60
   1   4  -7   -1.60    2.60
  -1  -4   7    2.20    3.20
  -1  -4   7    3.50    2.40
  -1  -4   7    3.10    2.90
   0   4  -7  509.35   19.10
   0   4  -7  503.05   19.50
   0   4  -7  501.25   19.30
   0  -4   7  509.35   20.00
   0  -4   7  493.75   19.50
  -1   4  -7 1125.59   41.90
  -1   4  -7 1119.99   41.60
   1  -4   7 1178.18   42.10
   1  -4   7 1146.89   42.30
   1  -4   7 1134.09   41.90
  -2   4  -7 1342.57   49.20
  -2   4  -7 1351.16   49.10
   2  -4   7 1367.26   49.30
   2  -4   7 1335.57   49.50
  -3   4  -7  685.33   26.10
  -3   4  -7  712.13   26.10
   3  -4   7  672.43   26.40
   3  -4   7  705.33   26.20
  -4   4  -7  163.18    8.00
  -4   4  -7  147.69    8.60
   4  -4   7  148.69    8.80
  -5   4  -7  199.68   10.00
  -5   4  -7  239.88   13.00
   5  -4   7  247.58   11.70
  -6   4  -7  585.94   30.50
  -6   4  -7  550.34   22.40
   6  -4   7  559.84   23.10
  -7   4  -7   88.79   13.60
  -7   4  -7   80.29    9.10
   7  -4   7   83.19   10.00
  -8   4  -7   36.90    6.00
   8  -4   7   31.30    6.80
  -9   4  -7   64.79    7.70
   9  -4   7   78.69    8.60
 -10   4  -7   26.80    7.80
  10  -4   7   20.40    8.60
  10   3  -7   25.00    8.30
  10   3  -7   42.40    7.00
 -10  -3   7   37.60    9.30
   9   3  -7   -9.20    6.50
   9   3  -7    3.00    5.40
  -9  -3   7   11.30    8.00
   8   3  -7   75.59    8.60
   8   3  -7   70.19    8.00
  -8  -3   7   78.79   12.00
   7   3  -7   53.39    6.90
  -7  -3   7   58.99    9.00
  -7  -3   7   50.39    8.30
   6   3  -7   91.99    7.60
   6   3  -7   96.29    9.40
   6   3  -7  107.49    9.70
  -6  -3   7  107.49    8.70
   5   3  -7   73.69    7.90
   5   3  -7   68.79    7.60
   5   3  -7   59.89    6.30
  -5  -3   7   61.39    6.70
  -5  -3   7   69.29    7.90
   4   3  -7  469.45   19.20
   4   3  -7  472.45   19.50
   4   3  -7  478.65   18.80
  -4  -3   7  465.55   19.50
  -4  -3   7  492.45   19.80
   3   3  -7 1689.13   63.19
   3   3  -7 1701.53   62.99
   3   3  -7 1751.72   62.69
  -3  -3   7 1651.73   63.29
  -3  -3   7 1807.82   63.99
  -3  -3   7 1762.72   63.09
   2   3  -7 1129.89   42.00
   2   3  -7 1163.68   41.50
   2   3  -7 1133.59   41.80
  -2  -3   7 1174.68   41.70
  -2  -3   7 1104.79   42.10
  -2  -3   7 1099.49   42.20
   1   3  -7  124.49    6.90
   1   3  -7  127.69    6.50
  -1  -3   7  123.79    7.00
  -1  -3   7  127.49    7.70
  -1  -3   7  120.69    6.60
   0   3  -7  306.17   12.20
   0   3  -7  307.77   12.40
   0   3  -7  314.57   12.60
   0  -3   7  294.17   13.00
   0  -3   7  296.47   12.50
  -1   3  -7  617.84   23.10
  -1   3  -7  576.64   22.40
   1  -3   7  614.84   23.60
   1  -3   7  594.74   22.70
  -2   3  -7  830.42   30.40
  -2   3  -7  810.72   30.30
   2  -3   7  818.72   30.80
  -3   3  -7   48.60    5.60
  -3   3  -7   56.99    4.90
   3  -3   7   63.89    5.00
   3  -3   7   62.19    6.50
  -4   3  -7    8.20    2.40
  -4   3  -7    8.70    3.40
   4  -3   7    5.40    3.80
   4  -3   7    7.70    2.60
  -5   3  -7  658.73   24.20
  -5   3  -7  623.34   27.90
   5  -3   7  672.53   24.50
   5  -3   7  606.84   26.60
  -6   3  -7  226.18   19.10
  -6   3  -7  210.98   11.40
   6  -3   7  212.48   11.90
  -7   3  -7   11.10    5.20
  -7   3  -7   10.60    8.00
   7  -3   7    9.60    5.60
  -8   3  -7  137.59   11.30
   8  -3   7  150.08   12.10
  -9   3  -7   88.79   11.60
   9  -3   7  110.69   13.50
 -10   3  -7   21.20    7.70
  10  -3   7   22.40    8.40
  10   2  -7   -2.40    5.50
  10   2  -7   -9.10    7.60
 -10  -2   7    0.00    8.90
   9   2  -7   10.30    7.50
   9   2  -7   14.90    5.40
  -9  -2   7   19.90    7.80
   8   2  -7   83.69   11.50
   8   2  -7   66.89    9.50
  -8  -2   7   89.79   11.50
   7   2  -7  173.48   12.10
   7   2  -7  157.98   15.30
   7   2  -7  163.48    9.60
  -7  -2   7  175.68   12.50
  -7  -2   7  177.88   11.40
   6   2  -7  963.60   36.20
   6   2  -7  939.21   34.90
  -6  -2   7  920.61   35.90
  -6  -2   7  922.11   40.50
   5   2  -7    4.30    4.00
   5   2  -7    4.70    3.80
   5   2  -7    5.50    3.20
  -5  -2   7   10.00    3.50
  -5  -2   7   -3.70    4.80
   4   2  -7   69.49    5.80
   4   2  -7   62.69    7.10
   4   2  -7   74.69    7.10
  -4  -2   7   69.79    7.40
  -4  -2   7   59.79    7.10
   3   2  -7 1064.29   37.70
   3   2  -7 1043.70   38.50
   3   2  -7  981.00   38.20
  -3  -2   7 1076.69   38.70
  -3  -2   7 1025.50   38.10
  -3  -2   7  968.00   38.50
   2   2  -7 1338.47   48.80
   2   2  -7 1344.37   49.10
   2   2  -7 1372.56   48.40
  -2  -2   7 1381.96   49.20
  -2  -2   7 1297.07   48.60
  -2  -2   7 1258.87   49.10
   1   2  -7  240.48   10.50
   1   2  -7  229.48   10.30
   1   2  -7  242.68    9.80
  -1  -2   7  242.88   10.60
  -1  -2   7  213.28   11.10
  -1  -2   7  240.18    9.90
   0   2  -7  293.97   12.40
   0   2  -7  302.87   12.00
   0   2  -7  306.37   12.40
  -1   2  -7 1463.75   53.29
  -1   2  -7 1497.45   53.59
   1  -2   7 1456.65   53.59
   1  -2   7 1484.05   54.09
  -2   2  -7  750.62   27.70
  -2   2  -7  739.63   27.70
   2  -2   7  747.53   28.50
  -3   2  -7  340.47   13.20
  -3   2  -7  338.77   13.60
   3  -2   7  331.57   13.30
   3  -2   7  317.67   14.40
  -4   2  -7   84.09    6.80
   4  -2   7   78.29    5.40
   4  -2   7   80.69    7.40
  -5   2  -7  761.12   32.20
   5  -2   7  777.92   31.10
   5  -2   7  852.11   29.80
  -6   2  -7  540.75   22.10
   6  -2   7  543.05   22.90
   6  -2   7  561.54   22.40
  -7   2  -7    9.50    5.30
   7  -2   7    0.80    5.80
  -8   2  -7  128.69   11.50
   8  -2   7  133.49   12.40
  -9   2  -7  137.49   12.90
   9  -2   7  137.69   13.80
 -10   2  -7   -2.20    7.80
  10  -2   7    8.70    8.20
  10   1  -7   17.20    5.90
  10   1  -7   -0.20    8.40
 -10  -1   7   13.80   11.40
   9   1  -7   -1.80    5.10
   9   1  -7   -7.20    7.20
  -9  -1   7    7.50    7.60
   8   1  -7   -2.90    6.30
   8   1  -7   -5.30    4.30
  -8  -1   7    2.60    6.60
   7   1  -7  193.48   12.60
   7   1  -7  165.78    9.40
   7   1  -7  172.88   12.40
  -7  -1   7  184.08   13.20
   6   1  -7  749.23   29.90
   6   1  -7  762.02   28.40
   6   1  -7  762.12   29.90
   5   1  -7   18.70    4.10
   5   1  -7   15.80    4.70
   5   1  -7   15.80    3.20
  -5  -1   7   21.40    5.10
   4   1  -7  150.78    7.50
   4   1  -7  139.09    9.30
   4   1  -7  147.39    9.20
  -4  -1   7  136.39    9.10
  -4  -1   7  140.49    9.30
   3   1  -7  281.57   13.20
   3   1  -7  325.67   12.20
   3   1  -7  310.07   13.50
  -3  -1   7  292.87   13.80
  -3  -1   7  288.97   13.10
   2   1  -7  318.97   13.90
   2   1  -7  327.07   12.90
   2   1  -7  341.07   14.10
  -2  -1   7  342.87   14.20
  -2  -1   7  323.77   13.60
   1   1  -7    2.10    2.40
   1   1  -7    5.20    2.60
   1   1  -7    1.80    3.30
  -1  -1   7    9.10    2.60
   0   1  -7  903.61   34.10
   0   1  -7  928.71   34.10
   0   1  -7  899.71   33.50
   0  -1   7  920.51   34.10
   0  -1   7  947.11   33.60
  -1   1  -7 2457.25   88.49
  -1   1  -7 2497.35   88.19
   1  -1   7 2435.06   88.49
   1  -1   7 2441.16   89.09
  -2   1  -7  312.27   12.50
   2  -1   7  308.87   12.40
   2  -1   7  302.07   13.70
  -3   1  -7  102.69    6.80
   3  -1   7   93.29    7.70
   3  -1   7  101.19    5.60
  -4   1  -7  369.86   14.90
   4  -1   7  330.57   16.80
   4  -1   7  367.36   14.10
  -5   1  -7   52.49    7.50
   5  -1   7   60.49    4.70
   5  -1   7   51.69    5.90
  -6   1  -7  146.19   10.20
   6  -1   7  155.18    9.10
   6  -1   7  146.99   10.80
  -7   1  -7   -7.60    5.40
   7  -1   7    2.10    5.70
  -8   1  -7   16.90    6.40
   8  -1   7   24.30    6.70
  -9   1  -7   17.80    7.40
   9  -1   7   34.50    7.90
  10   0  -7   16.90    8.40
 -10   0   7   29.40    9.30
   9   0  -7   -7.20    6.90
  -9   0   7   -4.70    7.30
   8   0  -7    4.10    6.30
   8   0  -7    7.30    4.10
  -8   0   7    1.10    6.90
   7   0  -7  754.02   29.20
   7   0  -7  620.14   26.60
  -7   0   7  766.22   29.40
   6   0  -7  150.88    8.00
   6   0  -7  175.18   11.20
   6   0  -7  155.48   10.70
  -6   0   7  159.98   11.90
   5   0  -7  237.58   10.20
   5   0  -7  220.08   13.20
   5   0  -7  252.97   12.80
  -5   0   7  244.48   12.80
  -5   0   7  224.78   12.70
   4   0  -7 1430.16   56.79
   4   0  -7 1546.65   57.29
   4   0  -7 1622.84   55.69
  -4   0   7 1431.96   56.59
  -4   0   7 1663.93   57.19
   3   0  -7 1355.96   54.29
   3   0  -7 1584.84   53.39
   3   0  -7 1466.35   54.39
  -3   0   7 1555.84   54.59
  -3   0   7 1415.56   54.19
   2   0  -7  511.75   21.10
   2   0  -7  543.35   19.90
   2   0  -7  544.35   21.10
  -2   0   7  537.15   20.80
   1   0  -7   64.29    6.90
   1   0  -7   79.89    5.70
   1   0  -7   87.69    7.10
  -1   0   7   80.49    6.30
  -1   0   7   80.99    5.70
   0   0  -7  749.03   28.90
   0   0  -7  793.12   28.20
   0   0  -7  729.23   28.70
   0   0   7  792.92   28.90
   0   0   7  782.32   28.50
  -1   0  -7 1533.25   56.39
  -1   0  -7 1548.05   55.79
   1   0   7 1551.74   55.99
   1   0   7 1562.74   55.89
   1   0   7 1528.55   56.79
  -2   0  -7   43.50    6.30
   2   0   7   40.40    4.20
   2   0   7   43.70    4.20
   2   0   7   39.90    5.00
  -3   0  -7    3.60    3.50
   3   0   7   -3.50    4.10
   3   0   7   -2.80    2.30
   3   0   7    0.80    2.00
  -4   0  -7  166.28    9.40
   4   0   7  174.38    7.80
   4   0   7  169.18   10.50
   4   0   7  170.78    7.60
  -5   0  -7   83.99    8.50
  -5   0  -7  101.69    9.10
   5   0   7   79.59    9.60
   5   0   7   94.69    5.60
  -6   0  -7   66.59    9.10
   6   0   7   57.49    6.90
  -7   0  -7   -2.20    5.60
   7   0   7    2.60    5.70
  -8   0  -7   50.69    7.40
   8   0   7   53.39    7.70
  -9   0  -7   29.00    7.90
   9   0   7   33.70    8.50
  10  -1  -7    2.20    8.60
 -10   1   7   -2.90    8.40
   9  -1  -7   15.20    7.70
  -9   1   7   31.10    8.20
   8  -1  -7   87.49   11.50
  -8   1   7   89.99   12.30
   7  -1  -7  311.17   16.10
  -7   1   7  305.57   16.50
   6  -1  -7   83.09    9.60
  -6   1   7   67.29    9.90
   5  -1  -7  103.59    6.20
   5  -1  -7   86.59    9.00
  -5   1   7   88.99   13.40
   4  -1  -7  451.15   18.60
   4  -1  -7  396.16   22.10
  -4   1   7  469.15   18.40
  -4   1   7  412.26   18.40
   3  -1  -7   55.89    5.80
   3  -1  -7   68.59    6.50
  -3   1   7   53.69    6.90
  -3   1   7   52.39    8.10
   2  -1  -7   40.60    4.10
   2  -1  -7   43.40    5.50
   2  -1  -7   35.80    4.70
  -2   1   7   33.00    3.90
  -2   1   7   39.10    4.50
   1  -1  -7    0.60    3.80
   1  -1  -7   -1.60    2.40
   1  -1  -7   -1.60    2.70
  -1   1   7   -1.50    3.00
  -1   1   7    0.10    3.30
   0  -1  -7  146.29    8.60
   0  -1  -7  140.09    6.70
   0   1   7  131.39    7.70
   0   1   7  140.99    7.60
  -1  -1  -7   20.70    3.10
  -1  -1  -7   23.70    4.20
   1   1   7   16.00    2.70
   1   1   7   20.00    3.30
  -2  -1  -7    2.80    3.20
   2   1   7    6.00    2.90
   2   1   7    2.40    2.10
   2   1   7    3.20    4.40
  -3  -1  -7   54.39    7.00
   3   1   7   53.39    6.30
   3   1   7   50.79    5.10
  -4  -1  -7  105.39    9.90
   4   1   7   99.79    9.20
   4   1   7   96.39    6.40
  -5  -1  -7  189.38   10.80
  -5  -1  -7  131.19   10.30
   5   1   7  170.18   11.60
  -6  -1  -7   30.00    5.90
   6   1   7   38.00    6.40
  -7  -1  -7    1.50    6.40
   7   1   7    4.30    6.40
  -8  -1  -7   70.99    8.50
   8   1   7   60.89    8.40
  10  -2  -7   -8.60    8.40
 -10   2   7   -4.40    8.70
   9  -2  -7   -3.40    7.70
  -9   2   7   -2.10    8.00
   8  -2  -7  292.67   16.30
  -8   2   7  249.38   16.60
   7  -2  -7   73.29    7.90
  -7   2   7   62.49    8.20
   6  -2  -7   16.90    5.80
  -6   2   7    8.80    6.40
   5  -2  -7   40.20    6.00
  -5   2   7   46.10    6.50
   4  -2  -7  107.89   10.30
   3  -2  -7  459.25   20.10
   3  -2  -7  476.35   20.30
  -3   2   7  473.95   19.40
  -3   2   7  480.05   19.70
   2  -2  -7   22.40    8.30
   2  -2  -7   27.00    4.10
  -2   2   7   40.20    4.80
  -2   2   7   40.40    5.10
   1  -2  -7   53.79    6.00
   1  -2  -7   69.19    4.60
  -1   2   7   70.09    7.00
  -1   2   7   58.49    6.40
   0  -2  -7 1169.48   41.30
   0  -2  -7 1089.69   42.80
   0   2   7 1186.98   42.10
   0   2   7 1106.69   42.20
  -1  -2  -7  385.96   15.10
   1   2   7  375.86   16.00
   1   2   7  394.36   15.30
  -2  -2  -7  140.29   10.20
  -2  -2  -7  158.88    9.70
   2   2   7  151.98    8.50
   2   2   7  150.98   10.20
  -3  -2  -7    3.40    4.00
   3   2   7    2.40    3.60
   3   2   7   -3.50    4.90
  -4  -2  -7  186.28   10.50
   4   2   7  177.68    9.40
   4   2   7  162.48   11.90
  -5  -2  -7  266.87   14.20
   5   2   7  307.57   13.10
   5   2   7  267.77   15.10
  -6  -2  -7   20.70    6.40
   6   2   7   18.00    6.50
  -7  -2  -7    0.80    6.60
   7   2   7    6.30    6.40
   7   2   7    8.20    6.60
   9  -3  -7   -0.30    7.90
  -9   3   7   -8.00    8.30
   8  -3  -7  102.79   12.70
  -8   3   7   71.59    9.50
   7  -3  -7   24.20    7.00
  -7   3   7    0.10    7.40
   6  -3  -7   48.00    6.50
  -6   3   7   42.20    7.50
   5  -3  -7   88.29   10.10
  -5   3   7   72.19    7.90
   4  -3  -7   82.49    9.90
  -4   3   7   92.99   10.10
   3  -3  -7  540.35   23.50
  -3   3   7  535.05   22.60
   2  -3  -7   55.89    7.20
  -2   3   7   69.09    8.20
   1  -3  -7  249.88   13.30
  -1   3   7  244.78   12.70
  -1   3   7  268.77   13.70
   0  -3  -7  511.95   18.60
   0  -3  -7  492.75   20.50
   0   3   7  507.75   19.60
   0   3   7  467.75   20.40
  -1  -3  -7   95.09    6.30
  -1  -3  -7   99.89    9.00
   1   3   7   98.09    7.60
   1   3   7   97.19    8.40
  -2  -3  -7   25.30    4.00
  -2  -3  -7   19.10    5.40
   2   3   7   16.00    4.50
  -3  -3  -7   -1.70    4.30
   3   3   7    2.80    4.20
   3   3   7   -0.20    5.10
  -4  -3  -7   43.10    5.80
   4   3   7   37.80    5.60
   4   3   7   42.90    6.60
  -5  -3  -7   37.20    6.40
   5   3   7   42.60    6.90
   5   3   7   45.50    6.40
  -6  -3  -7    0.00    6.40
   6   3   7   -4.30    6.00
   6   3   7    3.00    6.30
  -7  -3  -7   19.00    7.60
   7   3   7   23.30    7.40
   7   3   7   14.10    7.30
   8  -4  -7  169.78   14.20
  -8   4   7  132.19   15.10
   7  -4  -7   51.59    7.60
  -7   4   7   48.60    9.10
   6  -4  -7   -0.60    6.30
  -6   4   7   -9.40    6.90
   5  -4  -7   29.40    6.40
  -5   4   7   29.50    7.30
   4  -4  -7  158.38   11.90
  -4   4   7  160.98   13.30
   3  -4  -7  171.68   12.20
  -3   4   7  174.18   12.40
   2  -4  -7   34.90    6.30
  -2   4   7   42.40    6.50
   1  -4  -7   70.09    9.70
  -1   4   7   72.29    9.20
   0  -4  -7   33.90    7.80
   0   4   7   26.80    5.90
  -1  -4  -7   19.10    5.80
   1   4   7   31.20    5.80
  -2  -4  -7   -4.30    5.60
  -2  -4  -7   -6.80    4.00
   2   4   7   -6.90    4.90
  -3  -4  -7    5.10    5.80
  -3  -4  -7    4.30    7.50
   3   4   7    8.10    5.30
  -4  -4  -7   67.39    9.40
   4   4   7   60.39    7.20
   4   4   7   70.99    9.20
  -5  -4  -7   48.00    6.90
   5   4   7   51.29    6.40
   5   4   7   39.40    7.00
   7  -5  -7   11.40    7.80
  -7   5   7    6.90    9.40
   6  -5  -7    9.70    7.10
  -6   5   7   -5.30    8.50
   5  -5  -7    5.30    6.50
  -5   5   7   -3.00    7.60
   4  -5  -7   13.40    6.60
  -4   5   7    9.00    7.40
   3  -5  -7   14.40    6.40
  -3   5   7   21.40    7.20
   2  -5  -7   31.60    6.90
  -2   5   7   21.10    6.90
   1  -5  -7  218.98   13.00
  -1   5   7  158.68   12.90
   0  -5  -7   51.99    7.30
   0   5   7   46.20    7.10
  -1  -5  -7   10.60    6.00
   1   5   7    4.00    5.90
  -2  -5  -7   18.90    6.70
   2   5   7   18.40    6.30
  -3  -5  -7    0.50    6.40
   3   5   7    3.50    6.20
  -4  -5  -7   47.40    7.80
   4   5   7   57.39    7.40
   6  -6  -7    5.50    7.60
  -6   6   7  -12.10    9.10
   5  -6  -7   45.10    7.70
  -5   6   7   41.20    9.90
   4  -6  -7   55.69    7.80
  -4   6   7   49.80    9.80
   3  -6  -7   36.70    7.70
  -3   6   7   33.70    8.70
   2  -6  -7   14.70    6.90
  -2   6   7    0.50    7.50
   1  -6  -7   51.09    7.90
  -1   6   7   38.10    8.10
   0  -6  -7   99.39   11.80
   0   6   7   80.69   12.50
  -1  -6  -7    7.90    7.20
   1   6   7   25.60    7.20
  -2  -6  -7   16.30    7.20
   2   6   7    6.20    6.90
   2  12  -8   40.40    8.50
  -2 -12   8   38.80    9.90
   1  12  -8   26.70    8.50
  -1 -12   8   34.70    9.70
   0  12  -8  302.27   15.70
   0  12  -8  292.37   17.70
   0 -12   8  285.47   18.20
  -1  12  -8  159.18   12.10
  -1  12  -8  165.98   14.10
  -2  12  -8   40.70    6.70
  -2  12  -8   46.40    7.60
  -3  12  -8    5.30    6.70
  -3  12  -8   18.90    6.90
  -4  12  -8   34.50    7.60
  -5  12  -8   89.19   12.60
   4  11  -8  143.99   15.50
  -4 -11   8  170.88   17.40
   3  11  -8   81.79    9.10
  -3 -11   8   78.79   10.40
   2  11  -8   20.50    6.80
  -2 -11   8   24.20    8.50
   1  11  -8   -0.70    6.50
  -1 -11   8    2.80    7.70
   0  11  -8  159.38   13.40
   0 -11   8  152.68   13.80
  -1  11  -8  151.08   12.60
  -1  11  -8  135.59   10.40
  -2  11  -8    6.30    9.70
  -2  11  -8    3.40    6.30
  -3  11  -8    0.80    5.10
  -3  11  -8   14.60    6.30
  -4  11  -8  181.28   13.30
  -5  11  -8   70.69    8.20
  -6  11  -8    5.00    6.70
  -7  11  -8   38.40    8.00
   6  10  -8   21.40    8.50
  -6 -10   8   20.40   11.10
   5  10  -8   14.90    8.00
  -5 -10   8   15.60    9.90
   4  10  -8  173.88   14.10
  -4 -10   8  207.18   16.60
   3  10  -8  227.98   15.10
  -3 -10   8  238.78   16.20
   2  10  -8   -1.50    6.20
  -2 -10   8   -4.80    7.30
   1  10  -8  117.89   11.80
  -1 -10   8  112.89   11.60
   0  10  -8  142.89   11.50
   0 -10   8  127.39   11.70
  -1  10  -8  273.47   14.90
  -1  10  -8  251.57   12.60
  -2  10  -8   11.00    4.30
  -2  10  -8   14.20    6.00
  -3  10  -8  180.48   10.00
  -3  10  -8  184.98   12.20
  -4  10  -8  492.35   21.60
  -5  10  -8  327.97   16.70
   5 -10   8  319.07   17.80
  -6  10  -8    6.00    6.50
   6 -10   8    8.70    6.00
  -7  10  -8   14.40    6.60
   7 -10   8    0.50    6.00
  -8  10  -8   32.20    7.80
   8 -10   8   46.50    7.40
   7   9  -8   27.80    8.40
  -7  -9   8   47.00   12.00
   6   9  -8   18.10    7.80
  -6  -9   8   36.80   10.10
   5   9  -8   46.10    7.50
  -5  -9   8   49.70    9.30
   4   9  -8  257.87   15.70
  -4  -9   8  298.97   17.70
   3   9  -8  163.28   12.50
  -3  -9   8  191.48   14.00
   2   9  -8   33.80    6.50
  -2  -9   8   40.20   11.20
   1   9  -8  344.27   16.60
  -1  -9   8  349.07   16.60
   0   9  -8  485.55   20.40
   0  -9   8  482.25   19.60
   0  -9   8  407.36   23.60
  -1   9  -8  344.17   16.30
   1  -9   8  340.27   16.70
   1  -9   8  322.27   16.80
  -2   9  -8   68.99    8.90
  -2   9  -8   55.29    5.30
   2  -9   8   66.59   10.30
  -3   9  -8  187.08   11.90
  -3   9  -8  199.88   11.60
   3  -9   8  174.28    9.20
  -4   9  -8  244.38   13.50
   4  -9   8  254.27   12.10
  -5   9  -8   56.29    6.70
   5  -9   8   61.09    8.10
  -6   9  -8   43.30    6.60
   6  -9   8   41.40    6.10
  -7   9  -8    5.80    6.20
   7  -9   8    2.50    5.80
  -8   9  -8    7.00    6.40
   8  -9   8    9.00    6.70
   8   8  -8   76.19    9.30
  -8  -8   8   89.99   12.40
   7   8  -8   33.90    7.80
  -7  -8   8   58.39   11.10
   6   8  -8   -0.70    6.20
  -6  -8   8  -11.60    9.10
   5   8  -8  318.87   16.80
  -5  -8   8  349.37   18.60
   4   8  -8  854.01   35.40
   4   8  -8  946.51   34.60
  -4  -8   8  929.61   36.20
   3   8  -8  592.34   25.10
   3   8  -8  617.94   23.20
  -3  -8   8  605.14   27.60
   2   8  -8   80.29    6.20
   2   8  -8   87.89    9.20
  -2  -8   8  101.59   10.10
  -2  -8   8   83.49    9.70
   1   8  -8  368.16   17.40
   1   8  -8  426.76   15.60
  -1  -8   8  381.86   17.00
  -1  -8   8  364.16   17.40
   0   8  -8  609.84   21.20
   0   8  -8  554.54   22.80
   0   8  -8  530.55   22.70
   0  -8   8  533.95   21.90
   0  -8   8  544.95   23.20
  -1   8  -8  364.36   16.40
  -1   8  -8  395.66   14.80
  -1   8  -8  377.56   16.60
   1  -8   8  368.76   15.60
   1  -8   8  367.96   17.40
  -2   8  -8   -0.30    4.10
   2  -8   8   -8.20    5.30
   2  -8   8    0.80    3.80
   2  -8   8    2.70    3.40
  -3   8  -8  473.45   19.40
  -3   8  -8  443.56   19.30
   3  -8   8  456.65   18.50
  -4   8  -8  470.75   20.10
   4  -8   8  488.05   19.70
  -5   8  -8    3.80    4.90
   5  -8   8    7.60    4.70
  -6   8  -8   -0.30    5.00
   6  -8   8   -1.40    5.20
  -7   8  -8   29.40    6.40
   7  -8   8   22.60    6.10
  -8   8  -8   59.49    7.30
   8  -8   8   54.69    7.60
  -9   8  -8  138.99   12.90
   9  -8   8  140.19   14.10
   8   7  -8  181.68   14.60
   8   7  -8  208.38   13.30
  -8  -7   8  211.88   18.80
   7   7  -8   74.89    8.00
   7   7  -8   81.89    9.60
  -7  -7   8   77.29   10.50
   6   7  -8   12.40    5.70
   6   7  -8   11.20    5.00
  -6  -7   8    8.60    9.60
   5   7  -8  300.87   13.70
   5   7  -8  288.17   14.80
  -5  -7   8  289.17   16.80
   4   7  -8  267.57   14.20
   4   7  -8  298.27   14.50
   3   7  -8    1.80    3.50
   3   7  -8   -3.00    4.50
  -3  -7   8   -3.20    5.80
  -3  -7   8    6.90    4.30
   2   7  -8   72.59    8.20
   2   7  -8   74.09    8.90
   2   7  -8   89.29    6.60
  -2  -7   8   79.59    8.50
  -2  -7   8   81.69    8.50
   1   7  -8  197.78    9.10
   1   7  -8  188.78   10.70
   1   7  -8  184.38   12.80
  -1  -7   8  182.38   10.30
  -1  -7   8  191.68   11.30
   0   7  -8   27.20    4.10
   0   7  -8   28.00    3.40
   0   7  -8   27.10    8.80
   0  -7   8   21.60    4.80
   0  -7   8   27.40    4.30
  -1   7  -8   11.80    7.30
  -1   7  -8   28.80    3.30
  -1   7  -8   18.10    3.90
   1  -7   8   20.70    4.70
   1  -7   8   25.60    3.90
  -2   7  -8   16.00    3.80
  -2   7  -8   33.50    7.50
   2  -7   8   22.30    4.00
  -3   7  -8  393.26   16.40
  -3   7  -8  368.46   16.30
   3  -7   8  379.66   15.90
  -4   7  -8  569.74   24.00
  -4   7  -8  675.13   25.60
   4  -7   8  592.94   24.10
  -5   7  -8    7.90    4.70
   5  -7   8    4.70    4.70
  -6   7  -8   37.30    5.70
   6  -7   8   38.00    5.90
  -7   7  -8   23.80    5.70
   7  -7   8   18.00    5.90
  -8   7  -8   98.89   11.20
   8  -7   8   95.59   11.70
  -9   7  -8   61.49    7.80
   9  -7   8   48.00    8.50
   9   6  -8   99.19   13.40
   9   6  -8  119.99   12.70
  -9  -6   8  136.49   18.70
   8   6  -8  197.18   13.50
   8   6  -8  202.48   13.80
  -8  -6   8  216.08   17.80
   7   6  -8   48.80    7.00
   7   6  -8   48.10    6.80
  -7  -6   8   53.09    9.50
   6   6  -8   92.59    9.50
   6   6  -8   90.79    9.80
  -6  -6   8   82.69   13.10
   5   6  -8  365.56   15.70
   5   6  -8  314.97   15.60
  -5  -6   8  326.77   17.20
   4   6  -8  412.56   16.50
   4   6  -8  378.86   17.40
  -4  -6   8  371.26   17.90
  -4  -6   8  404.06   17.50
   3   6  -8   30.80    4.10
   3   6  -8   17.30    4.10
   3   6  -8   13.60    7.90
  -3  -6   8   21.10    5.40
  -3  -6   8   18.00    4.40
   2   6  -8    1.60    4.20
   2   6  -8   10.10    3.60
   2   6  -8    3.10    3.60
  -2  -6   8   16.80    4.70
  -2  -6   8    5.90    4.20
   1   6  -8  403.16   17.30
   1   6  -8  418.96   16.60
   1   6  -8  397.46   17.40
  -1  -6   8  456.45   17.10
  -1  -6   8  411.26   18.00
   0   6  -8 1949.90   70.99
   0   6  -8 1884.01   70.69
   0   6  -8 1972.80   70.29
   0  -6   8 1975.00   70.39
   0  -6   8 1947.11   71.39
  -1   6  -8 1410.56   51.69
  -1   6  -8 1517.95   51.99
  -1   6  -8 1442.36   51.29
   1  -6   8 1280.77   53.59
   1  -6   8 1386.16   51.69
  -2   6  -8   44.60    5.70
  -2   6  -8   52.89    7.00
   2  -6   8   60.19    6.30
   2  -6   8   55.99    6.10
  -3   6  -8 1039.70   44.50
  -3   6  -8 1203.88   42.50
   3  -6   8 1161.48   42.50
   3  -6   8 1151.38   42.40
  -4   6  -8  788.72   29.30
  -4   6  -8  727.43   29.00
   4  -6   8  781.02   29.10
   4  -6   8  731.73   29.20
  -5   6  -8  191.88   10.40
   5  -6   8  190.28   16.30
  -6   6  -8   -1.50    4.80
   6  -6   8   -2.10    4.90
  -7   6  -8  136.49   10.70
   7  -6   8  123.89   11.20
  -8   6  -8  180.28   12.60
   8  -6   8  192.48   14.00
  -9   6  -8   27.70    7.10
   9  -6   8   24.20    7.90
   9   5  -8   38.80    8.20
   9   5  -8   46.00    6.90
  -9  -5   8   51.29   10.20
   8   5  -8   73.79    8.20
   8   5  -8   75.99    9.90
  -8  -5   8   73.79   10.40
   7   5  -8    1.20    5.70
  -7  -5   8    5.10    7.60
   6   5  -8  112.89    9.50
  -6  -5   8  109.99   12.60
   5   5  -8  700.73   27.30
   5   5  -8  737.53   27.40
  -5  -5   8  684.63   27.90
  -5  -5   8  660.83   31.90
   4   5  -8  434.46   18.80
   4   5  -8  437.96   18.60
   4   5  -8  456.55   18.30
  -4  -5   8  427.96   19.60
  -4  -5   8  438.76   19.10
   3   5  -8   60.49    7.20
   3   5  -8   58.29    6.70
   3   5  -8   50.99    6.80
  -3  -5   8   56.99    8.60
  -3  -5   8   64.89    7.80
   2   5  -8    6.80    3.60
   2   5  -8    4.00    3.80
   2   5  -8    9.30    3.50
  -2  -5   8    5.10    4.30
  -2  -5   8    8.00    4.00
   1   5  -8  576.84   22.40
   1   5  -8  561.54   22.10
   1   5  -8  574.74   21.90
  -1  -5   8  572.54   22.10
  -1  -5   8  571.04   23.00
   0   5  -8 1342.77   49.90
   0   5  -8 1391.06   49.70
   0   5  -8 1421.66   50.59
   0  -5   8 1365.26   50.29
   0  -5   8 1302.57   50.89
  -1   5  -8   61.79    6.20
  -1   5  -8   46.60    6.20
   1  -5   8   48.20    6.00
   1  -5   8   56.69    5.50
  -2   5  -8  325.77   14.00
  -2   5  -8  338.97   14.20
   2  -5   8  349.87   14.10
   2  -5   8  326.37   14.40
  -3   5  -8 1447.06   52.19
  -3   5  -8 1392.76   52.09
   3  -5   8 1482.95   52.39
   3  -5   8 1369.46   52.39
  -4   5  -8    5.00    4.00
  -4   5  -8    3.60    3.10
   4  -5   8   10.00    4.20
   4  -5   8    4.90    3.00
  -5   5  -8    1.30    4.30
   5  -5   8   -2.20    4.40
  -6   5  -8  168.58   10.80
   6  -5   8  175.18   11.60
  -7   5  -8  181.38   11.70
   7  -5   8  190.68   13.00
  -8   5  -8  113.59   11.00
   8  -5   8  109.79   12.60
  -9   5  -8    9.30    6.80
   9  -5   8   -0.50    7.40
  10   4  -8   17.30    7.10
  10   4  -8   28.20    8.50
 -10  -4   8   33.70   10.30
   9   4  -8  133.09   14.00
   9   4  -8  129.89   11.20
  -9  -4   8  158.58   16.00
   8   4  -8  327.07   16.00
   8   4  -8  355.26   17.80
  -8  -4   8  333.87   19.00
   7   4  -8   18.60    7.90
   7   4  -8   18.60    6.20
  -7  -4   8   29.20    7.50
   6   4  -8  118.79    9.20
   6   4  -8  133.49   10.70
  -6  -4   8  142.79   12.00
  -6  -4   8  146.19   10.50
   5   4  -8  668.03   26.90
   5   4  -8  695.13   26.60
   5   4  -8  659.13   26.00
  -5  -4   8  664.33   27.10
  -5  -4   8  665.73   26.90
   4   4  -8   99.99    8.30
   4   4  -8  100.49    8.20
   4   4  -8   93.19    7.80
  -4  -4   8   96.39    9.10
  -4  -4   8  106.89    8.70
   3   4  -8  184.18   10.50
   3   4  -8  199.38   10.10
   3   4  -8  211.68   10.70
  -3  -4   8  193.68   11.20
  -3  -4   8  220.08   11.10
   2   4  -8   24.30    4.00
   2   4  -8   22.90    3.80
   2   4  -8   19.50    3.50
  -2  -4   8   19.40    4.40
  -2  -4   8   22.80    4.10
  -2  -4   8   29.10    4.40
   1   4  -8  554.54   21.60
   1   4  -8  573.54   22.20
   1   4  -8  553.54   21.70
  -1  -4   8  563.04   22.20
  -1  -4   8  578.94   21.50
   0   4  -8 1267.17   47.30
   0   4  -8 1313.57   46.80
   0   4  -8 1274.27   46.70
   0  -4   8 1260.07   47.10
  -1   4  -8    6.50    2.80
  -1   4  -8    6.30    3.40
   1  -4   8    5.90    3.60
   1  -4   8    5.30    2.60
  -2   4  -8 1341.57   49.60
  -2   4  -8 1355.46   49.80
   2  -4   8 1353.26   50.29
   2  -4   8 1394.06   49.99
  -3   4  -8  312.77   13.50
  -3   4  -8  333.37   13.70
   3  -4   8  332.07   14.50
  -4   4  -8  122.99   12.70
  -4   4  -8  112.29    6.70
   4  -4   8   98.99    6.20
   4  -4   8  137.19    9.60
  -5   4  -8  222.58   11.40
   5  -4   8  210.58   13.30
  -6   4  -8    4.70    4.80
   6  -4   8    9.70    5.20
  -7   4  -8  148.79   11.20
   7  -4   8  151.68   11.70
  -8   4  -8  149.39   12.00
   8  -4   8  176.28   13.40
  -9   4  -8   26.60    7.10
   9  -4   8   14.10    7.70
  10   3  -8   60.09    7.50
  10   3  -8   72.59    9.70
 -10  -3   8   59.99    9.90
   9   3  -8  131.29   13.60
   9   3  -8  111.29   12.00
  -9  -3   8  134.79   13.90
   8   3  -8   64.79    8.20
   8   3  -8   68.49    8.60
  -8  -3   8   59.89    8.20
   7   3  -8   -1.50    4.30
   7   3  -8    4.60    5.90
  -7  -3   8    5.80    6.50
   6   3  -8  452.55   20.10
   6   3  -8  437.56   18.50
   6   3  -8  462.05   19.80
  -6  -3   8  450.15   20.20
  -6  -3   8  468.45   22.00
   5   3  -8  335.37   14.70
   5   3  -8  311.27   20.80
   5   3  -8  316.77   15.20
  -5  -3   8  334.67   15.40
   4   3  -8   19.30    4.50
   4   3  -8   16.70    3.90
   4   3  -8   13.30    3.70
  -4  -3   8   15.70    4.80
   3   3  -8   -8.30    3.80
   3   3  -8    0.50    3.30
   3   3  -8    0.10    3.40
  -3  -3   8   -1.00    3.70
  -3  -3   8   -0.90    3.70
   2   3  -8  183.18    8.90
   2   3  -8  189.58    9.80
   2   3  -8  173.78    9.60
  -2  -3   8  184.08    9.10
  -2  -3   8  189.08    9.70
   1   3  -8 1245.48   45.40
   1   3  -8 1235.48   45.90
   1   3  -8 1217.98   45.70
  -1  -3   8 1280.97   46.20
  -1  -3   8 1247.18   45.40
   0   3  -8 1166.78   43.60
   0   3  -8 1191.08   43.50
   0   3  -8 1184.28   43.20
   0  -3   8 1186.78   43.70
  -1   3  -8  321.67   13.40
  -1   3  -8  342.47   14.00
   1  -3   8  324.07   14.40
  -2   3  -8 1679.73   61.09
  -2   3  -8 1721.93   61.29
   2  -3   8 1632.24   61.29
   2  -3   8 1712.93   61.89
  -3   3  -8  126.39    7.80
  -3   3  -8  127.59    7.10
   3  -3   8  137.59    7.40
   3  -3   8  122.39    8.60
  -4   3  -8  102.29    6.90
   4  -3   8  114.69    7.10
   4  -3   8   92.19    8.80
  -5   3  -8   44.80    5.20
   5  -3   8   39.30    5.50
  -6   3  -8   12.30    5.20
   6  -3   8   21.00    5.60
  -7   3  -8  208.58   12.60
   7  -3   8  192.58   13.10
  -8   3  -8   98.09   11.10
   8  -3   8   86.99   12.20
  -9   3  -8   -2.70    7.10
   9  -3   8    1.70    7.60
  10   2  -8   26.20    9.10
  10   2  -8   23.10    6.40
 -10  -2   8   32.20    9.30
   9   2  -8   88.09   12.40
   9   2  -8   76.39    9.60
  -9  -2   8   92.99   13.50
   8   2  -8    1.70    6.50
   8   2  -8    9.20    4.70
  -8  -2   8   17.10    7.00
   7   2  -8   -6.00    3.80
   7   2  -8    0.00    5.80
  -7  -2   8    3.50    6.30
   6   2  -8  508.45   20.30
   6   2  -8  504.35   21.70
   6   2  -8  510.25   22.10
  -6  -2   8  524.05   22.10
   5   2  -8  286.97   12.80
   5   2  -8  288.77   14.40
   5   2  -8  297.07   14.30
  -5  -2   8  305.67   14.60
   4   2  -8  389.76   15.60
   4   2  -8  383.56   16.70
   4   2  -8  357.26   16.80
  -4  -2   8  384.76   18.90
  -4  -2   8  383.56   16.50
   3   2  -8   24.40    4.10
   3   2  -8   23.00    3.50
   3   2  -8   19.40    4.30
  -3  -2   8   22.40    4.00
  -3  -2   8   23.20    5.80
   2   2  -8   52.49    6.30
   2   2  -8   37.90    5.10
   2   2  -8   35.70    4.60
  -2  -2   8   44.00    6.20
  -2  -2   8   39.10    5.30
   1   2  -8  969.40   35.90
   1   2  -8  944.71   36.30
   1   2  -8  973.20   36.50
  -1  -2   8 1007.80   36.70
  -1  -2   8  986.00   35.90
   0   2  -8  882.91   34.20
   0   2  -8  921.71   34.20
   0   2  -8  895.51   33.70
   0  -2   8  962.80   33.60
  -1   2  -8   16.50    4.10
  -1   2  -8   18.20    2.90
  -1   2  -8   13.00    3.20
   1  -2   8   10.30    4.10
   1  -2   8    9.90    2.90
  -2   2  -8  351.26   14.20
  -2   2  -8  353.76   14.10
   2  -2   8  335.77   15.40
   2  -2   8  348.57   14.10
  -3   2  -8  432.56   17.10
   3  -2   8  448.86   16.70
   3  -2   8  379.66   21.90
  -4   2  -8  216.08   13.90
   4  -2   8  201.38   11.60
   4  -2   8  215.68    9.50
  -5   2  -8   11.10    4.70
   5  -2   8    4.80    5.20
  -6   2  -8  146.19   10.30
   6  -2   8  128.09   10.90
  -7   2  -8  246.38   13.80
   7  -2   8  239.68   14.90
  -8   2  -8   79.09   11.30
   8  -2   8   68.59    8.40
  -9   2  -8    6.40    7.30
   9  -2   8   -0.50    7.60
  10   1  -8   56.99    9.90
 -10  -1   8   55.59    9.60
   9   1  -8   86.29   10.50
   9   1  -8   65.59    9.10
  -9  -1   8   77.09    9.60
   8   1  -8   71.39    8.00
   8   1  -8   71.49    8.30
  -8  -1   8   78.89   12.20
   7   1  -8    2.90    5.90
   7   1  -8   -2.80    3.80
  -7  -1   8    1.80    6.40
   6   1  -8  161.58   11.10
   6   1  -8  158.68    8.60
  -6  -1   8  155.58   12.00
   5   1  -8  102.59    6.70
   5   1  -8  113.79    9.80
   5   1  -8  102.99    9.10
  -5  -1   8   89.89    9.80
   4   1  -8  324.67   13.00
   4   1  -8  331.07   15.20
   4   1  -8  271.57   15.00
  -4  -1   8  299.07   14.50
  -4  -1   8  323.67   15.00
   3   1  -8   79.49    5.90
   3   1  -8   67.19    8.20
   3   1  -8   86.39    7.70
  -3  -1   8   73.29    7.00
  -3  -1   8   80.39    7.70
   2   1  -8  219.88   11.40
   2   1  -8  230.78   11.10
   2   1  -8  228.58   10.00
  -2  -1   8  237.58   11.40
  -2  -1   8  233.38   10.70
   1   1  -8  436.46   18.20
   1   1  -8  464.25   17.30
   1   1  -8  437.96   18.00
  -1  -1   8  452.25   17.50
   0   1  -8  455.25   17.50
   0   1  -8  438.76   18.40
   0   1  -8  471.05   18.10
   0  -1   8  443.66   19.20
   0  -1   8  461.65   17.50
  -1   1  -8  518.85   20.90
  -1   1  -8  540.65   20.30
   1  -1   8  553.54   20.00
   1  -1   8  539.15   20.60
   1  -1   8  507.05   21.60
  -2   1  -8  234.48   10.30
   2  -1   8  224.68    9.80
   2  -1   8  208.48   14.90
  -3   1  -8  672.83   25.70
   3  -1   8  690.73   25.40
   3  -1   8  664.83   26.90
  -4   1  -8  158.78    9.90
   4  -1   8  155.78    7.60
   4  -1   8  154.88   11.00
  -5   1  -8   16.30    4.90
   5  -1   8   10.80    5.60
  -6   1  -8  187.08   11.70
   6  -1   8  180.88   12.90
  -7   1  -8   95.49   10.70
   7  -1   8   93.49   11.40
  -8   1  -8   15.70    8.90
   8  -1   8   15.00    7.40
  10   0  -8   48.10    9.90
 -10   0   8   47.10    9.80
   9   0  -8   71.79   10.20
  -9   0   8   57.79    9.60
   8   0  -8   22.20    7.20
  -8   0   8   32.10    8.10
   7   0  -8   49.20    7.00
  -7   0   8   50.59    7.60
   6   0  -8    9.10    3.20
   6   0  -8   14.20    5.60
  -6   0   8    9.00    6.00
   5   0  -8  328.37   13.60
   5   0  -8  341.77   16.10
  -5   0   8  355.96   16.30
   4   0  -8  151.58    7.40
   4   0  -8  144.19   10.60
  -4   0   8  141.49    9.70
   3   0  -8   27.00    4.10
   3   0  -8   23.10    5.40
   3   0  -8   34.20    4.90
  -3   0   8   27.70    4.60
  -3   0   8   18.50    4.10
   2   0  -8 1161.18   47.90
   2   0  -8 1293.07   44.80
  -2   0   8 1208.98   45.20
   1   0  -8 1764.42   65.69
   1   0  -8 1624.94   68.09
   1   0  -8 1932.11   64.99
  -1   0   8 1791.72   67.79
  -1   0   8 1889.51   65.59
   0   0  -8  182.28   15.10
   0   0  -8  216.98    9.60
   0   0   8  228.38   10.10
   0   0   8  236.68   10.50
  -1   0  -8  280.97   14.70
  -1   0  -8  299.97   12.30
   1   0   8  309.07   12.30
   1   0   8  295.57   12.40
  -2   0  -8  206.78    9.70
   2   0   8  210.08    8.80
   2   0   8  194.98    8.90
   2   0   8  182.48   11.60
  -3   0  -8  530.45   20.30
   3   0   8  541.05   19.60
   3   0   8  476.25   21.50
   3   0   8  492.05   19.40
  -4   0  -8   68.59    7.80
   4   0   8   51.79    6.60
   4   0   8   58.69    5.20
  -5   0  -8   23.10    5.30
   5   0   8   23.60    6.00
  -6   0  -8   45.10    6.40
   6   0   8   62.29    7.60
  -7   0  -8   45.50    6.90
   7   0   8   32.30    7.30
  -8   0  -8    3.50    7.10
   8   0   8    3.30    7.60
   9  -1  -8  116.39   14.20
  -9   1   8   72.19    9.80
   8  -1  -8   36.60    8.80
  -8   1   8   23.70    7.70
   7  -1  -8  316.77   16.80
  -7   1   8  291.77   16.90
   6  -1  -8   86.19   10.00
  -6   1   8   66.49   10.40
   5  -1  -8  129.09   10.50
  -5   1   8  125.79   10.70
   4  -1  -8  150.28   11.20
   3  -1  -8   62.09    8.80
  -3   1   8   67.59    7.80
   2  -1  -8  282.87   14.80
   2  -1  -8  267.27   14.00
   2  -1  -8  307.57   12.10
  -2   1   8  289.07   13.50
   1  -1  -8  495.05   19.00
   1  -1  -8  484.25   20.90
  -1   1   8  503.55   20.30
  -1   1   8  537.95   20.40
   0  -1  -8   99.69    8.70
   0  -1  -8   98.59    6.20
   0   1   8   89.79    7.20
   0   1   8  100.29    6.90
  -1  -1  -8   97.09    9.60
  -1  -1  -8   86.99    6.30
   1   1   8   84.99    5.90
   1   1   8   80.49    6.70
  -2  -1  -8   29.80    5.60
  -2  -1  -8   25.20    4.00
   2   1   8   20.40    2.90
   2   1   8   23.50    3.70
   2   1   8   25.30    5.60
  -3  -1  -8   10.60    4.40
   3   1   8    3.00    5.50
   3   1   8    5.20    3.30
  -4  -1  -8    9.60    4.90
   4   1   8    8.90    5.90
  -5  -1  -8   61.49    6.40
   5   1   8   56.79    7.20
  -6  -1  -8   38.10    6.70
   6   1   8   45.50    7.30
  -7  -1  -8   15.70    6.90
   7   1   8   14.90    7.50
   9  -2  -8  133.99   15.60
  -9   2   8  132.29   15.10
   8  -2  -8   10.90    7.60
  -8   2   8    2.40    8.20
   7  -2  -8   43.40    7.30
  -7   2   8   26.40    7.90
   6  -2  -8  272.37   15.20
  -6   2   8  247.88   15.30
   5  -2  -8   31.60    6.40
  -5   2   8   28.10    6.40
   4  -2  -8   35.10    6.60
  -4   2   8   37.20    6.20
   3  -2  -8    1.60    5.60
  -3   2   8   -2.50    5.20
   2  -2  -8  107.29   10.10
  -2   2   8  110.69    9.60
   1  -2  -8  185.98   11.70
  -1   2   8  206.08   11.20
   0  -2  -8    1.20    2.60
   0  -2  -8   -2.50    5.20
   0   2   8    4.20    4.40
  -1  -2  -8    7.70    3.40
  -1  -2  -8    4.70    5.10
   1   2   8    3.00    4.00
   1   2   8    7.10    5.10
  -2  -2  -8  299.17   15.00
  -2  -2  -8  311.57   13.30
   2   2   8  305.07   13.80
  -3  -2  -8  198.48   14.40
   3   2   8  217.18   10.70
   3   2   8  187.18   13.70
  -4  -2  -8   82.29    8.80
   4   2   8   73.39   10.40
   4   2   8   84.39    8.40
  -5  -2  -8    4.90    5.60
   5   2   8   11.80    6.80
  -6  -2  -8   83.69   10.80
   6   2   8  107.09   12.70
   8  -3  -8    5.60    7.90
  -8   3   8  -10.60    8.70
   7  -3  -8   10.10    8.10
  -7   3   8  -10.70    7.40
   6  -3  -8   45.20    7.10
  -6   3   8   22.10    7.80
   5  -3  -8   12.60    6.50
  -5   3   8    9.40    7.00
   4  -3  -8   11.90    6.40
  -4   3   8   18.90    6.50
   3  -3  -8   75.69   11.00
  -3   3   8   76.69   10.80
   2  -3  -8  398.06   18.70
  -2   3   8  407.76   18.80
   1  -3  -8   73.29   10.50
  -1   3   8   51.09    6.60
   0  -3  -8   -0.40    5.80
   0   3   8   -1.90    5.40
  -1  -3  -8   46.50    6.60
   1   3   8   45.50    9.30
  -2  -3  -8  183.88   12.40
  -2  -3  -8  190.68   10.10
   2   3   8  178.98   15.70
  -3  -3  -8   85.49   10.60
  -3  -3  -8  107.89    8.90
   3   3   8   95.69   10.30
  -4  -3  -8    9.70    5.50
   4   3   8    4.60    5.40
   4   3   8    0.40    6.20
  -5  -3  -8   29.00    6.60
   5   3   8   31.10    7.10
   7  -4  -8   50.29    8.70
  -7   4   8   35.20    9.80
   6  -4  -8  118.79   12.80
  -6   4   8   85.09   10.60
   5  -4  -8   78.89   11.40
  -5   4   8   73.79    9.30
   4  -4  -8    4.70    6.50
  -4   4   8   -1.60    7.10
   3  -4  -8   18.10    6.90
  -3   4   8   11.80    6.90
   2  -4  -8  262.07   14.80
  -2   4   8  222.38   14.40
   1  -4  -8   35.50    7.00
  -1   4   8   35.60    7.00
   0  -4  -8   -0.60    6.40
   0   4   8    5.40    6.30
  -1  -4  -8   24.40    6.60
   1   4   8   24.60    6.40
  -2  -4  -8   35.60    7.00
   2   4   8   28.00    6.30
  -3  -4  -8    4.90    6.60
   3   4   8    7.80    5.80
  -4  -4  -8   -7.10    7.10
  -4  -4  -8   -2.60    6.00
   4   4   8    6.00    6.00
   5  -5  -8   22.00    7.70
  -5   5   8   11.90    8.70
   4  -5  -8    1.00    6.90
  -4   5   8    6.00    8.30
   3  -5  -8   28.40    7.60
  -3   5   8   19.20    7.80
   2  -5  -8    7.80    7.00
  -2   5   8    2.20    7.00
   1  -5  -8    2.80    6.80
  -1   5   8    9.40    7.40
   0  -5  -8   13.20    7.20
   0   5   8   12.70    7.40
  -1  -5  -8   64.29    8.10
   1   5   8   65.99    8.30
  -2  -5  -8   87.19   12.30
   2   5   8   65.69    8.30
   2  12  -9   59.49    9.20
  -2 -12   9   52.39    9.80
   1  12  -9   77.79   10.00
  -1 -12   9   65.79    9.70
   0  12  -9   32.70    8.30
   0 -12   9   10.60    7.90
  -1  12  -9   50.29    9.00
   1 -12   9   50.59    8.60
  -2  12  -9  154.48   15.10
  -3  12  -9  277.07   17.40
  -4  12  -9   29.40    8.10
   4  11  -9  -12.40    7.70
  -4 -11   9    9.70   10.30
   3  11  -9  116.79   14.40
  -3 -11   9  125.09   15.90
   2  11  -9  280.07   17.50
  -2 -11   9  285.37   18.00
   1  11  -9   95.59   12.60
  -1 -11   9   99.59   13.00
   0  11  -9    2.80    6.50
   0 -11   9    8.30    7.40
  -1  11  -9    5.20    6.80
   1 -11   9   -3.40    8.10
  -2  11  -9  135.79   13.00
  -3  11  -9  139.79   13.20
  -4  11  -9    4.60    6.60
  -5  11  -9   64.89    8.30
  -6  11  -9   75.29    8.90
   5  10  -9  125.09   14.30
  -5 -10   9  143.39   16.70
   4  10  -9    3.20    7.10
  -4 -10   9   14.60    9.20
   3  10  -9   17.00    7.00
  -3 -10   9   22.70    8.60
   2  10  -9  198.28   14.10
  -2 -10   9  189.68   15.90
   1  10  -9  186.28   13.60
  -1 -10   9  170.68   16.00
   0  10  -9    3.30    6.20
   0 -10   9  -10.50    6.20
  -1  10  -9   23.60    6.50
   1 -10   9   28.90    6.20
  -2  10  -9  418.46   19.60
  -3  10  -9  145.09   12.20
  -4  10  -9    5.50    6.30
  -5  10  -9  108.49   12.20
  -6  10  -9  161.88   13.40
   6 -10   9  164.78   12.90
  -7  10  -9   62.69    8.50
   7 -10   9   77.79   11.00
   6   9  -9  145.39   14.60
  -6  -9   9  193.98   17.70
   5   9  -9   67.99    8.30
  -5  -9   9   74.39   10.40
   4   9  -9   -3.60    6.20
  -4  -9   9    1.80    8.10
   3   9  -9  146.89   12.30
  -3  -9   9  159.08   13.20
   2   9  -9  415.36   19.40
  -2  -9   9  403.96   22.00
   1   9  -9   76.59   10.40
  -1  -9   9   69.09   10.40
   0   9  -9   46.20    6.70
   0  -9   9   46.40    6.00
  -1   9  -9  253.27   14.00
  -1   9  -9  262.07   11.10
   1  -9   9  227.48   12.10
  -2   9  -9  686.63   25.80
  -2   9  -9  680.83   27.60
  -3   9  -9  195.18   12.20
   3  -9   9  190.18   10.50
  -4   9  -9   18.00    6.00
   4  -9   9   18.00    4.90
  -5   9  -9   90.09   10.80
   5  -9   9   81.69    9.70
  -6   9  -9  106.89   11.30
   6  -9   9   92.89   10.80
  -7   9  -9   17.20    7.00
   7  -9   9   25.20    6.60
  -8   9  -9    7.50    7.00
   8  -9   9    8.00    7.00
   7   8  -9   55.19    8.30
  -7  -8   9   53.89   11.10
   6   8  -9  263.17   15.90
  -6  -8   9  273.07   18.10
   5   8  -9   48.10    6.50
   5   8  -9   37.20    6.80
  -5  -8   9   30.70    8.30
   4   8  -9   58.29    7.30
   4   8  -9   35.50    6.60
  -4  -8   9   49.70    8.40
   3   8  -9  396.06   19.20
   3   8  -9  448.06   17.50
  -3  -8   9  420.06   25.40
   2   8  -9  978.40   33.30
  -2  -8   9  744.53   38.20
  -2  -8   9  905.51   34.30
   1   8  -9  380.96   15.10
   1   8  -9  332.47   16.90
  -1  -8   9  353.06   16.00
  -1  -8   9  353.26   17.50
   0   8  -9    4.60    4.50
   0   8  -9   -1.30    5.10
   0   8  -9    0.00    3.40
   0  -8   9   -0.60    4.50
   0  -8   9    6.70    6.00
  -1   8  -9  418.56   18.60
  -1   8  -9  435.06   16.90
  -1   8  -9  413.86   18.40
   1  -8   9  429.96   17.10
  -2   8  -9  394.06   17.30
   2  -8   9  384.86   16.30
  -3   8  -9  171.48   11.20
   3  -8   9  177.28   10.30
  -4   8  -9   31.10    5.80
   4  -8   9   26.40    5.40
  -5   8  -9  137.59   11.10
   5  -8   9  157.78   11.20
  -6   8  -9  179.18   11.90
   6  -8   9  166.58   12.10
  -7   8  -9   10.80    6.50
   7  -8   9   19.90    6.40
  -8   8  -9   24.20    7.10
   8  -8   9   10.90    6.80
   8   7  -9  -14.10    5.60
   8   7  -9   -1.80    6.90
  -8  -7   9    1.10   10.40
   7   7  -9  113.09   11.40
   7   7  -9  124.09   12.00
  -7  -7   9  124.59   16.00
   6   7  -9  424.66   18.30
   6   7  -9  354.76   18.50
  -6  -7   9  379.96   20.70
   5   7  -9  198.18   13.10
   5   7  -9  232.08   12.30
  -5  -7   9  225.58   15.20
   4   7  -9   67.99    9.50
   4   7  -9  101.39    8.50
  -4  -7   9   78.89   11.40
   3   7  -9  563.84   20.80
   3   7  -9  490.55   21.60
  -3  -7   9  492.55   21.80
  -3  -7   9  497.55   22.30
   2   7  -9  259.57   13.50
   2   7  -9  282.87   12.50
   2   7  -9  251.67   13.80
  -2  -7   9  251.97   14.20
  -2  -7   9  254.07   13.20
   1   7  -9    0.70    3.60
   1   7  -9   -0.60    3.90
   1   7  -9    0.00    4.70
  -1  -7   9   10.00    5.40
  -1  -7   9    1.70    4.50
   0   7  -9  147.89    9.90
   0   7  -9  145.79    8.40
   0   7  -9  144.39    9.50
   0  -7   9  173.28    8.80
  -1   7  -9  487.65   19.50
  -1   7  -9  459.95   18.30
  -1   7  -9  442.66   19.20
  -2   7  -9   36.30    4.80
  -2   7  -9   40.40    5.20
   2  -7   9   35.80    5.00
  -3   7  -9   16.80    5.00
   3  -7   9   13.30    4.50
  -4   7  -9   46.30    5.60
  -5   7  -9   83.79    9.20
   5  -7   9   79.39    9.60
  -6   7  -9  177.68   11.90
   6  -7   9  168.08   12.00
  -7   7  -9    8.70    5.80
   7  -7   9   22.40    6.20
  -8   7  -9    4.90    6.90
   8  -7   9    9.20    6.90
  -9   7  -9   18.40    7.70
   9  -7   9   25.90    8.50
   8   6  -9   -2.40    6.10
   8   6  -9   -0.10    6.60
  -8  -6   9   11.10    9.80
   7   6  -9  330.07   16.20
   7   6  -9  269.87   15.40
  -7  -6   9  265.57   18.60
   6   6  -9  330.07   15.70
   6   6  -9  277.07   15.10
  -6  -6   9  301.47   18.00
   5   6  -9   49.40    6.20
   5   6  -9   53.19    7.10
  -5  -6   9   41.50    7.90
   4   6  -9  267.67   12.90
   4   6  -9  244.18   13.40
  -4  -6   9  270.77   15.00
  -4  -6   9  244.78   14.20
   3   6  -9  513.35   21.90
   3   6  -9  521.95   21.50
   3   6  -9  545.45   21.40
  -3  -6   9  525.55   22.10
  -3  -6   9  495.25   22.40
   2   6  -9  146.79    9.90
   2   6  -9  131.89    9.60
   2   6  -9  154.48    9.10
  -2  -6   9  163.28   10.00
  -2  -6   9  135.49   12.70
   1   6  -9   27.50    4.10
   1   6  -9   20.40    4.10
   1   6  -9   25.60    5.20
  -1  -6   9   28.30    4.60
   0   6  -9   88.69    9.70
   0   6  -9   87.09    7.00
   0   6  -9   96.19    7.90
   0  -6   9  107.29    7.00
  -1   6  -9  385.16   15.70
  -1   6  -9  390.36   16.40
  -1   6  -9  361.16   16.50
   1  -6   9  387.36   16.60
  -2   6  -9  608.34   24.60
  -2   6  -9  663.33   25.30
   2  -6   9  651.73   24.90
   2  -6   9  599.74   24.80
  -3   6  -9  279.47   13.10
   3  -6   9  278.87   13.50
  -4   6  -9   92.09    8.70
   4  -6   9   87.29    9.10
  -5   6  -9  180.88   11.10
   5  -6   9  195.68   12.10
  -6   6  -9  408.86   18.60
   6  -6   9  428.56   19.20
  -7   6  -9  145.79   11.90
   7  -6   9  156.28   12.70
  -8   6  -9   14.10    6.90
   8  -6   9    3.00    6.90
  -9   6  -9   53.59    8.30
   9  -6   9   57.29    8.80
   9   5  -9    8.50    6.60
   9   5  -9   11.30    7.40
  -9  -5   9   21.10    9.60
   8   5  -9   16.60    6.80
   8   5  -9   17.80    5.90
  -8  -5   9   19.70    8.60
   7   5  -9  269.77   14.70
   7   5  -9  220.88   13.00
  -7  -5   9  227.08   16.00
   6   5  -9  202.18   12.10
   6   5  -9  231.28   13.20
  -6  -5   9  203.78   14.50
   5   5  -9   64.99    8.90
   5   5  -9   40.60    5.60
  -5  -5   9   72.99   10.90
  -5  -5   9   42.90    6.70
   4   5  -9  370.86   16.80
   4   5  -9  383.86   17.40
   4   5  -9  375.06   16.80
  -4  -5   9  382.46   17.50
   3   5  -9  527.35   21.90
   3   5  -9  479.95   25.60
   3   5  -9  560.34   21.70
  -3  -5   9  555.64   21.80
   2   5  -9  149.69    9.30
   2   5  -9  149.88    9.20
   2   5  -9  156.08    9.60
  -2  -5   9  156.48    9.10
   1   5  -9  194.28   10.50
   1   5  -9  189.78    9.90
   1   5  -9  189.08   10.00
  -1  -5   9  188.28   15.60
  -1  -5   9  203.88    9.30
   0   5  -9   11.70    4.00
   0   5  -9   14.50    3.90
   0   5  -9   13.70    3.50
   0  -5   9    8.20    3.40
  -1   5  -9  776.02   30.50
  -1   5  -9  807.52   30.00
  -1   5  -9  796.82   30.70
   1  -5   9  811.72   30.50
  -2   5  -9  638.54   24.50
  -2   5  -9  596.54   25.20
   2  -5   9  625.14   25.00
   2  -5   9  654.23   24.50
  -3   5  -9    3.60    4.10
   3  -5   9    3.80    8.90
  -4   5  -9   73.59    8.10
   4  -5   9   68.49    9.30
  -5   5  -9  678.53   26.40
   5  -5   9  651.13   27.00
  -6   5  -9   96.59   10.20
   6  -5   9   96.09   10.70
  -7   5  -9   14.80    6.10
   7  -5   9   17.60    6.60
  -8   5  -9  109.39   12.20
   8  -5   9  118.59   13.60
  -9   5  -9   71.19    8.50
   9  -5   9   60.79    9.00
   9   4  -9   -4.80    7.60
   9   4  -9   -4.10    5.60
  -9  -4   9   10.10    8.10
   8   4  -9   57.89    8.50
   8   4  -9   45.80    6.30
  -8  -4   9   47.60    8.10
   7   4  -9  342.67   16.70
   7   4  -9  296.47   14.80
  -7  -4   9  302.37   17.10
   6   4  -9  613.74   24.90
   6   4  -9  635.14   25.70
  -6  -4   9  631.44   26.20
   5   4  -9   10.90    4.90
   5   4  -9    8.20    4.70
   5   4  -9    6.60    5.00
  -5  -4   9    6.40   10.20
   4   4  -9  209.48   11.80
   4   4  -9  213.48   11.30
   4   4  -9  169.68   17.40
  -4  -4   9  224.48   12.00
   3   4  -9  392.46   17.00
   3   4  -9  405.96   17.60
   3   4  -9  406.46   17.60
  -3  -4   9  415.06   17.10
   2   4  -9  223.08   11.10
   2   4  -9  219.58   11.40
   2   4  -9  237.38   11.60
  -2  -4   9  228.28   12.10
  -2  -4   9  231.18   10.70
   1   4  -9   -2.30    4.10
   1   4  -9    2.40    3.90
   1   4  -9    1.50    3.80
  -1  -4   9   -3.60    2.80
  -1  -4   9    0.70    3.10
   0   4  -9    2.90    3.80
   0   4  -9    2.20    3.70
   0   4  -9    2.20    3.20
   0  -4   9   10.10    3.00
  -1   4  -9  572.04   22.20
  -1   4  -9  563.64   22.30
  -1   4  -9  571.44   22.30
   1  -4   9  592.94   22.40
   1  -4   9  555.04   22.80
  -2   4  -9  462.95   19.90
   2  -4   9  473.95   21.10
   2  -4   9  491.65   19.80
  -3   4  -9    3.30    4.10
   3  -4   9   -0.90    4.80
  -4   4  -9  284.97   13.40
   4  -4   9  269.07   14.20
  -5   4  -9  321.67   15.10
   5  -4   9  322.87   16.10
  -6   4  -9   88.79   10.00
   6  -4   9   94.19   10.40
  -7   4  -9    9.40    5.80
   7  -4   9    1.50    6.20
  -8   4  -9    3.40    6.70
   8  -4   9    4.70    7.40
  -9   4  -9   23.40    8.10
   9  -4   9   16.80    8.50
   9   3  -9    0.40    5.50
   9   3  -9   -1.30    7.80
  -9  -3   9    4.00    8.00
   8   3  -9  134.89   13.00
   8   3  -9  100.79    9.80
  -8  -3   9  116.39   13.10
   7   3  -9  334.07   17.10
   7   3  -9  319.47   14.90
  -7  -3   9  324.17   17.20
   6   3  -9   81.59   10.00
  -6  -3   9   67.39    7.60
   5   3  -9   24.10    4.20
   5   3  -9   22.40    5.40
  -5  -3   9   13.00   10.90
   4   3  -9  435.16   19.50
   4   3  -9  427.36   19.60
   4   3  -9  468.35   18.40
  -4  -3   9  454.35   19.00
   3   3  -9  259.67   13.30
   3   3  -9  205.38   16.70
   3   3  -9  227.18   11.80
  -3  -3   9  233.88   12.70
  -3  -3   9  234.48   11.60
   2   3  -9   69.59    8.20
   2   3  -9   83.19    6.80
  -2  -3   9   74.59    6.80
  -2  -3   9   79.29    7.50
   1   3  -9   90.59    8.10
   1   3  -9   95.39    7.10
   1   3  -9   97.49    7.60
  -1  -3   9   95.89    7.40
  -1  -3   9  106.29    6.20
   0   3  -9  439.96   18.00
   0   3  -9  423.76   18.40
   0   3  -9  444.26   18.50
   0  -3   9  445.46   18.30
   0  -3   9  507.15   18.10
  -1   3  -9  411.06   18.70
  -1   3  -9  530.05   18.90
  -1   3  -9  500.55   22.60
  -2   3  -9  199.08    9.70
  -2   3  -9  199.98   10.00
   2  -3   9  189.58    9.60
   2  -3   9  189.58   11.30
  -3   3  -9  194.48   13.40
  -3   3  -9  197.18   10.40
   3  -3   9  185.98   11.90
  -4   3  -9  434.26   18.00
   4  -3   9  415.46   18.90
  -5   3  -9  243.68   12.70
   5  -3   9  224.38   13.70
  -6   3  -9   74.99    9.90
   6  -3   9   76.59   11.20
  -7   3  -9    6.00    6.20
   7  -3   9    6.30    6.50
  -8   3  -9   25.50    7.40
   8  -3   9   11.00    7.60
   9   2  -9   -0.50    7.60
   9   2  -9    9.60    6.50
  -9  -2   9   12.90    8.10
   8   2  -9   90.99   12.20
   8   2  -9   58.39    8.40
  -8  -2   9   64.29    8.50
   7   2  -9  175.18   11.80
   7   2  -9  186.58   13.10
  -7  -2   9  176.78   14.00
   6   2  -9    0.90    5.40
   6   2  -9    7.50    4.20
  -6  -2   9    5.60    5.90
   5   2  -9   42.50    6.10
   5   2  -9   49.70    7.20
  -5  -2   9   49.90    6.80
   4   2  -9  233.88   10.60
   4   2  -9  182.78   12.10
  -4  -2   9  188.48   11.70
   3   2  -9  366.26   16.90
   3   2  -9  397.96   15.80
  -3  -2   9  383.76   16.30
   2   2  -9  290.07   14.30
   2   2  -9  305.77   13.00
   2   2  -9  316.87   14.00
  -2  -2   9  305.07   14.10
  -2  -2   9  306.17   13.30
   1   2  -9   39.10    5.60
   1   2  -9   45.30    5.70
   1   2  -9   27.50    5.50
  -1  -2   9   46.10    5.20
  -1  -2   9   28.70    4.10
   0   2  -9  299.67   12.30
   0   2  -9  269.77   13.40
   0   2  -9  284.67   12.60
   0  -2   9  313.37   11.80
   0  -2   9  239.08   14.50
  -1   2  -9  262.47   12.70
  -1   2  -9  267.77   11.60
  -1   2  -9  282.37   12.30
   1  -2   9  228.58   14.50
  -2   2  -9  194.38    9.90
   2  -2   9  201.88    9.50
   2  -2   9  183.38   11.50
  -3   2  -9   49.70    7.20
   3  -2   9   44.60    6.40
  -4   2  -9  196.78   10.80
   4  -2   9  177.08   12.20
  -5   2  -9  248.98   13.00
   5  -2   9  232.08   14.30
  -6   2  -9   26.00    6.20
   6  -2   9   23.50    6.90
  -7   2  -9    5.30    6.30
   7  -2   9    6.40    7.10
  -8   2  -9   88.79   12.40
   8  -2   9   74.89    9.50
   9   1  -9    3.60    8.20
  -9  -1   9    5.70    8.30
   8   1  -9  331.07   18.60
  -8  -1   9  316.47   18.30
   7   1  -9  140.89   12.70
  -7  -1   9  153.08   13.20
   6   1  -9   20.60    6.00
   6   1  -9   21.80    4.10
  -6  -1   9   14.50    6.40
   5   1  -9   -1.20    4.60
   5   1  -9    7.40    5.50
  -5  -1   9   -4.90    5.30
   4   1  -9   43.40    6.30
   4   1  -9   62.89    6.30
  -4  -1   9   42.30    6.00
   3   1  -9  235.58   10.20
   3   1  -9  195.78   12.00
  -3  -1   9  200.88   11.10
   2   1  -9  201.08   12.10
   2   1  -9  214.48   10.10
  -2  -1   9  217.08   10.50
   1   1  -9    5.90    3.50
   1   1  -9    4.80    4.60
  -1  -1   9   12.50    3.60
   0   1  -9  427.76   19.30
   0   1  -9  474.55   18.20
   0   1  -9  459.35   19.40
   0  -1   9  485.25   18.10
   0  -1   9  470.35   20.20
  -1   1  -9   63.09    6.40
  -1   1  -9   58.79    8.20
   1  -1   9   56.09    6.80
   1  -1   9   52.09    7.20
  -2   1  -9  237.08   11.10
   2  -1   9  230.88   13.30
  -3   1  -9   74.99    7.90
   3  -1   9   59.49    7.10
  -4   1  -9  325.97   14.70
   4  -1   9  310.47   16.60
  -5   1  -9  271.87   14.00
   5  -1   9  263.27   15.50
  -6   1  -9    8.20    6.00
   6  -1   9   -6.70    6.10
  -7   1  -9   24.20    6.90
   7  -1   9    8.30    7.50
   9   0  -9   12.80    8.20
  -9   0   9  -10.90    8.00
   8   0  -9  241.08   16.10
  -8   0   9  215.18   15.80
   7   0  -9   85.39   10.70
  -7   0   9   59.39    8.60
   6   0  -9    0.50    6.00
  -6   0   9  -12.70    6.00
   5   0  -9   23.40    6.10
  -5   0   9   13.80    6.00
   4   0  -9   49.40    6.90
  -4   0   9   57.09    7.10
   3   0  -9  187.78    8.60
   3   0  -9  180.68   12.20
  -3   0   9  183.68   10.60
   2   0  -9  120.09    6.90
   2   0  -9  111.19   10.00
  -2   0   9  121.19    8.70
   1   0  -9   75.19    6.30
   1   0  -9   67.29    9.30
  -1   0   9   74.19    7.30
   0   0  -9  619.34   25.80
   0   0  -9  654.03   24.30
   0   0   9  650.53   24.70
  -1   0  -9  549.54   23.20
  -1   0  -9  562.94   21.70
   1   0   9  584.74   21.80
  -2   0  -9  157.68   10.80
  -2   0  -9  173.68    9.50
   2   0   9  175.88   10.20
   2   0   9  170.68   11.90
  -3   0  -9   72.79    8.00
   3   0   9   48.00    7.00
  -4   0  -9  290.07   13.90
   4   0   9  258.17   15.70
  -5   0  -9  179.58   11.70
   5   0   9  145.19   13.00
  -6   0  -9    4.60    6.50
   6   0   9    4.00    7.10
  -7   0  -9   36.40    7.40
   7   0   9   39.20    9.10
   8  -1  -9    9.80    7.90
  -8   1   9  -17.10    7.60
   7  -1  -9   31.20    7.30
  -7   1   9   30.10    7.80
   6  -1  -9   -3.10    6.00
  -6   1   9   -4.50    6.30
   5  -1  -9   78.19   11.10
  -5   1   9   58.49    7.60
   4  -1  -9  222.28   14.40
  -4   1   9  220.08   13.00
   3  -1  -9  248.88   14.50
  -3   1   9  251.47   13.60
   2  -1  -9   29.20    6.40
  -2   1   9   33.90    5.70
   1  -1  -9  209.38   12.30
   1  -1  -9  177.48    8.90
  -1   1   9  218.78   11.50
   0  -1  -9   36.80    6.50
   0  -1  -9   43.80    4.50
   0   1   9   46.70    7.10
  -1  -1  -9  242.78   13.40
  -1  -1  -9  251.67   11.40
   1   1   9  257.57   12.00
  -2  -1  -9    7.60    4.30
  -2  -1  -9    5.90    5.80
   2   1   9    4.70    3.80
  -3  -1  -9   81.89    8.70
   3   1   9  104.59   11.20
  -4  -1  -9   75.59    9.60
   4   1   9   76.99   11.50
  -5  -1  -9    2.90    5.80
   5   1   9    3.10    7.10
  -6  -1  -9   15.10    6.60
   6   1   9   15.80    7.80
   8  -2  -9   26.10    8.70
  -8   2   9   32.40    9.20
   7  -2  -9   63.59    8.20
  -7   2   9   43.40    9.20
   6  -2  -9   19.10    7.10
  -6   2   9   11.40    7.10
   5  -2  -9   30.10    6.90
  -5   2   9   14.50    6.90
   4  -2  -9  205.88   14.30
  -4   2   9  189.68   13.30
   3  -2  -9  175.28   13.40
  -3   2   9  175.38   12.70
   2  -2  -9    6.70    6.30
  -2   2   9   -1.50    5.40
   1  -2  -9   91.19   11.20
  -1   2   9   89.39   13.10
   0  -2  -9   -0.20    6.20
   0   2   9    1.90    5.50
  -1  -2  -9   92.59   11.20
  -1  -2  -9   89.79    7.70
   1   2   9   87.09    9.00
  -2  -2  -9    7.90    6.50
  -2  -2  -9    6.90    6.00
  -3  -2  -9   16.30    5.40
  -3  -2  -9   24.50    6.80
  -4  -2  -9   31.50    6.00
   4   2   9   21.10    7.10
  -5  -2  -9   52.79    7.00
   5   2   9   51.79    8.20
   7  -3  -9   21.70    7.60
  -7   3   9   -4.90    8.70
   6  -3  -9    5.30    7.00
  -6   3   9   -9.40    8.00
   5  -3  -9   34.60    7.60
  -5   3   9   20.00    7.90
   4  -3  -9   27.10    7.40
  -4   3   9   29.20    7.90
   3  -3  -9   12.60    6.90
  -3   3   9   13.90    6.80
   2  -3  -9   48.40    7.70
  -2   3   9   59.89    7.80
   1  -3  -9   22.70    7.30
  -1   3   9   25.40    6.70
   0  -3  -9  150.78   12.80
   0   3   9  139.19   11.70
  -1  -3  -9   63.19    7.90
   1   3   9   80.19   10.10
  -2  -3  -9    2.40    6.40
   2   3   9    1.70    5.40
  -3  -3  -9   86.09    9.30
  -4  -3  -9   40.90    6.40
  -4  -3  -9   26.40    7.90
   5  -4  -9   49.30    8.60
  -5   4   9   44.70    9.40
   4  -4  -9  175.78   14.70
  -4   4   9  175.08   15.40
   3  -4  -9   24.00    8.30
  -3   4   9   17.30    7.80
   2  -4  -9    7.50    7.60
  -2   4   9    9.20    7.50
   1  -4  -9    8.40    7.20
  -1   4   9    5.70    7.30
   0  -4  -9  100.69   13.10
   0   4   9   79.59   11.50
  -1  -4  -9   36.70    8.20
   1   4   9   42.10    7.30
   1  12 -10   58.99    9.80
  -1 -12  10   49.40    8.80
   0  12 -10  111.69   14.60
  -1  12 -10  111.99   14.30
  -2  12 -10   23.90    8.50
  -3  12 -10   55.39    9.30
   3  11 -10   39.70    8.50
  -3 -11  10   39.20    9.50
   2  11 -10   -3.30    7.80
  -2 -11  10    4.80    8.30
   1  11 -10  281.17   17.80
  -1 -11  10  284.77   17.00
   0  11 -10  188.28   14.70
  -1  11 -10  132.79   14.20
  -2  11 -10   12.70    7.60
  -3  11 -10  118.79   13.50
  -4  11 -10   58.89    8.40
  -5  11 -10   49.10    8.40
   5  10 -10   58.99    9.10
  -5 -10  10  108.99   16.30
   4  10 -10   74.39    9.20
  -4 -10  10   76.39   10.50
   3  10 -10  130.59   13.70
  -3 -10  10  158.88   14.30
   2  10 -10  -10.20    6.60
  -2 -10  10    1.00    7.50
   1  10 -10   58.29    7.60
  -1 -10  10   54.09   13.80
   0  10 -10   88.19   12.10
  -1  10 -10  121.59   12.80
  -2  10 -10    0.20    6.20
  -3  10 -10   53.19    7.50
  -4  10 -10  130.89   12.30
   4 -10  10  116.39   13.50
  -5  10 -10   69.89    8.70
   5 -10  10   77.09    9.00
  -6  10 -10   -2.70    7.40
   6 -10  10    8.80    6.40
   6   9 -10   -1.80    7.40
  -6  -9  10   10.20   10.20
   5   9 -10   75.29    8.70
  -5  -9  10  107.29   14.50
   4   9 -10  166.68   13.60
  -4  -9  10  183.48   14.80
   3   9 -10  124.29   12.30
  -3  -9  10  131.49   13.30
   2   9 -10    7.70    6.50
  -2  -9  10   13.20    9.20
   1   9 -10  181.78   13.50
  -1  -9  10  209.48   12.60
   0   9 -10  563.44   21.40
   0   9 -10  507.25   23.10
  -1   9 -10  109.69    9.50
  -1   9 -10   98.59   11.20
  -2   9 -10  115.19    9.20
  -2   9 -10  112.79   11.20
  -3   9 -10  171.88   12.30
   3  -9  10  161.28   10.80
  -4   9 -10  298.67   16.30
   4  -9  10  326.07   15.50
  -5   9 -10   77.49   11.10
   5  -9  10   60.19    7.30
  -6   9 -10    6.70    7.10
   6  -9  10    8.10    6.50
  -7   9 -10   49.80    8.60
   7  -9  10   49.70    7.90
   7   8 -10    7.50    7.00
  -7  -8  10   29.30   10.50
   6   8 -10   28.10    7.30
  -6  -8  10   50.49    9.90
   5   8 -10   77.79   11.10
   4   8 -10  318.87   14.70
   4   8 -10  286.77   16.50
  -4  -8  10  332.77   18.50
   3   8 -10   35.10    6.00
   3   8 -10   26.50    6.30
  -3  -8  10   38.40   11.00
   2   8 -10  111.39    9.30
   2   8 -10  106.49   10.60
  -2  -8  10  121.89   10.90
   1   8 -10  341.27   14.90
   1   8 -10  306.17   16.30
  -1  -8  10  339.27   15.30
   0   8 -10  892.51   35.40
   0   8 -10  928.01   34.30
  -1   8 -10  117.19   10.40
  -1   8 -10  130.69    8.60
  -2   8 -10   64.09    9.20
  -2   8 -10   61.69    7.40
  -3   8 -10  161.38   11.30
   3  -8  10  155.78   12.40
  -4   8 -10  138.79   11.60
   4  -8  10  144.09   10.90
  -5   8 -10   35.80    6.60
   5  -8  10   34.10    6.50
  -6   8 -10    6.70    6.20
   6  -8  10    8.90    6.40
  -7   8 -10   49.99    7.50
   7  -8  10   58.79    7.90
   7   7 -10   -2.40    5.70
   7   7 -10   -1.00    6.50
  -7  -7  10   10.30    9.30
   6   7 -10   26.60    6.30
   6   7 -10   40.80    6.40
  -6  -7  10   28.30    9.00
   5   7 -10  176.18   11.70
   5   7 -10  116.49   13.00
  -5  -7  10  164.68   14.50
   4   7 -10  394.96   19.30
  -4  -7  10  451.55   20.60
   3   7 -10  102.69    9.30
   3   7 -10   76.79   11.10
  -3  -7  10  109.89   11.20
   2   7 -10   12.80    4.80
   2   7 -10   13.80    5.60
  -2  -7  10   23.80    5.90
   1   7 -10  400.96   18.00
   1   7 -10  402.16   17.00
  -1  -7  10  383.96   16.90
   0   7 -10  593.64   22.90
   0   7 -10  569.64   23.60
  -1   7 -10   13.40    4.30
  -1   7 -10   14.00    5.20
  -2   7 -10  228.28   12.30
  -2   7 -10  197.48   13.40
   2  -7  10  194.58   17.20
  -3   7 -10  269.17   14.10
   3  -7  10  276.77   14.10
  -4   7 -10   43.90    6.00
   4  -7  10   38.00    6.10
  -5   7 -10    5.80    5.60
   5  -7  10    7.30    5.70
  -6   7 -10   29.20    6.40
   6  -7  10   23.30    6.50
  -7   7 -10  113.79   12.30
   7  -7  10   84.59   12.00
  -8   7 -10   10.10    7.10
   8  -7  10   22.80    7.60
   8   6 -10  127.19   13.00
   8   6 -10   94.79   11.60
  -8  -6  10  109.09   16.20
   7   6 -10    4.90    7.10
   7   6 -10    6.10    6.70
  -7  -6  10   25.70    8.30
   6   6 -10   14.60    5.80
   6   6 -10   11.60    6.30
  -6  -6  10    8.50    7.70
   5   6 -10  291.27   15.40
   5   6 -10  346.27   15.90
  -5  -6  10  317.77   17.50
   4   6 -10  466.25   18.90
   4   6 -10  421.66   19.10
  -4  -6  10  386.66   25.50
   3   6 -10    2.40    5.10
  -3  -6  10   14.50    7.50
   2   6 -10  248.78   13.00
   2   6 -10  256.97   13.40
  -2  -6  10  260.27   13.30
   1   6 -10  609.44   24.30
   1   6 -10  610.34   24.70
  -1  -6  10  632.04   23.80
   0   6 -10  163.68   10.60
   0   6 -10  180.68   10.00
  -1   6 -10    1.10    4.50
  -1   6 -10    0.90    7.00
  -2   6 -10  139.59   10.00
   2  -6  10  137.99   10.00
  -3   6 -10  113.19    9.60
   3  -6  10  108.29   10.10
  -4   6 -10  183.68   11.00
   4  -6  10  182.78   12.20
  -5   6 -10  100.99   10.50
   5  -6  10   89.39   10.60
  -6   6 -10    7.10    5.70
   6  -6  10   -3.60    6.50
  -7   6 -10   70.09    8.20
   7  -6  10   61.89    8.10
  -8   6 -10   36.10    7.80
   8  -6  10   29.70    8.20
   8   5 -10   18.20    7.50
   8   5 -10   14.40    5.90
  -8  -5  10   20.10    8.40
   7   5 -10   -4.20    6.30
   7   5 -10   -6.10    5.40
  -7  -5  10    8.10    7.50
   6   5 -10   38.60    6.30
   6   5 -10   28.20    5.50
  -6  -5  10   32.30    7.10
   5   5 -10  323.27   15.50
   5   5 -10  296.97   14.80
  -5  -5  10  304.27   16.10
   4   5 -10  145.09   10.90
   4   5 -10  173.78   11.40
  -4  -5  10  158.98   11.40
   3   5 -10   -5.50    5.00
   3   5 -10   -1.60    4.90
  -3  -5  10    2.90    4.80
   2   5 -10  610.74   25.40
   2   5 -10  620.14   24.70
  -2  -5  10  634.14   24.10
   1   5 -10  932.71   34.90
   1   5 -10  876.21   37.70
  -1  -5  10  953.10   34.20
   0   5 -10    5.50    4.30
   0   5 -10    0.40    5.10
  -1   5 -10   11.90    4.60
  -1   5 -10   10.30    4.60
  -2   5 -10    5.80    4.60
   2  -5  10    7.10    5.90
  -3   5 -10  178.38   10.40
   3  -5  10  169.98   11.80
  -4   5 -10  292.37   14.10
   4  -5  10  274.47   15.10
  -5   5 -10   42.40    5.90
   5  -5  10   47.70    6.90
  -6   5 -10  168.08   12.30
   6  -5  10  147.89   12.80
  -7   5 -10  244.68   15.20
   7  -5  10  247.98   18.90
  -8   5 -10   30.60    7.70
   8  -5  10   26.70    8.10
   8   4 -10   21.00    7.60
   8   4 -10   11.60    6.00
  -8  -4  10   15.00    7.90
   7   4 -10   -2.90    5.60
   7   4 -10    9.20    6.60
  -7  -4  10    9.70    7.20
   6   4 -10   96.29   10.70
   6   4 -10   82.39    9.00
  -6  -4  10   92.59   11.10
   5   4 -10  331.87   16.60
   5   4 -10  339.67   16.20
  -5  -4  10  337.57   16.50
   4   4 -10  332.47   15.10
   4   4 -10  300.27   15.80
  -4  -4  10  332.37   15.40
   3   4 -10   70.39   10.10
   3   4 -10   67.69    9.40
  -3  -4  10   75.69    8.20
   2   4 -10  235.48   12.70
   2   4 -10  204.68   16.70
  -2  -4  10  240.78   11.30
   1   4 -10  676.03   25.90
   1   4 -10  613.44   28.00
  -1  -4  10  669.33   24.80
   0   4 -10   41.30    5.40
   0   4 -10   44.50    6.00
  -1   4 -10   27.00    5.10
  -1   4 -10   28.30    4.90
  -2   4 -10    4.80    4.60
   2  -4  10   -2.70    5.20
  -3   4 -10  235.08   12.10
   3  -4  10  223.58   13.30
  -4   4 -10  194.48   11.30
   4  -4  10  185.78   12.50
  -5   4 -10    7.30    5.50
   5  -4  10    7.20    6.10
  -6   4 -10  178.68   12.40
   6  -4  10  168.28   13.50
  -7   4 -10  123.79   12.50
   7  -4  10  111.19   13.90
  -8   4 -10   14.10    7.60
   8  -4  10   14.80    8.70
   8   3 -10   24.80    5.70
   8   3 -10   28.30    7.80
  -8  -3  10   41.90    8.40
   7   3 -10   -0.80    5.30
   7   3 -10    0.70    6.30
  -7  -3  10    9.00    7.10
   6   3 -10  165.08   12.40
   6   3 -10  149.69   10.20
  -6  -3  10  158.98   12.60
   5   3 -10  219.68   12.90
   5   3 -10  192.68   16.00
  -5  -3  10  219.78   13.10
   4   3 -10  103.79    8.70
   4   3 -10   91.39   10.50
  -4  -3  10   92.79    9.60
   3   3 -10   19.10    4.50
   3   3 -10   10.70    6.00
  -3  -3  10   11.40    4.70
   2   3 -10  651.83   26.50
   2   3 -10  700.13   25.60
  -2  -3  10  635.54   26.00
   1   3 -10  229.18   12.60
   1   3 -10  236.28   11.40
  -1  -3  10  244.08   10.80
   0   3 -10   22.30    5.20
   0   3 -10   22.10    4.70
  -1   3 -10  133.49   10.40
  -1   3 -10  137.79   10.10
  -2   3 -10  122.79    8.70
   2  -3  10  105.19   10.60
  -3   3 -10  332.87   14.70
   3  -3  10  317.27   16.30
  -4   3 -10  151.38   10.50
   4  -3  10  142.49   12.40
  -5   3 -10   13.90    6.30
   5  -3  10   -0.50    6.40
  -6   3 -10   88.89   10.80
   6  -3  10  106.69   12.60
  -7   3 -10   62.19    7.70
   7  -3  10   61.79    9.00
   8   2 -10   14.90    7.70
  -8  -2  10    8.30    8.00
   7   2 -10   25.50    5.70
   7   2 -10   30.10    6.80
  -7  -2  10   21.80    7.60
   6   2 -10   92.29   11.50
   6   2 -10   89.19    8.50
  -6  -2  10   85.99   11.10
   5   2 -10  122.69    8.40
   5   2 -10  112.79   11.20
  -5  -2  10   98.89   10.70
   4   2 -10    7.40    4.50
   4   2 -10   -2.90    5.70
   3   2 -10   97.19   10.70
   3   2 -10  131.39    9.50
  -3  -2  10  106.49    9.00
   2   2 -10  302.97   15.60
   2   2 -10  334.47   13.80
  -2  -2  10  308.97   14.00
   1   2 -10  188.28   11.60
   1   2 -10  199.88   10.20
  -1  -2  10  201.38    9.70
   0   2 -10   20.40    4.30
   0   2 -10   16.40    5.30
   0  -2  10   20.70    4.00
  -1   2 -10   10.40    7.00
  -1   2 -10   28.60    5.70
  -2   2 -10   38.70    5.00
  -2   2 -10   42.90    6.10
   2  -2  10   34.40    6.50
  -3   2 -10  145.39   10.00
   3  -2  10  152.58   11.90
  -4   2 -10  180.78   11.00
   4  -2  10  153.18   13.00
  -5   2 -10   19.80    6.00
   5  -2  10   12.10    6.70
  -6   2 -10   54.29    7.10
   6  -2  10   55.49    8.40
  -7   2 -10   39.30    7.60
   7  -2  10   30.80    8.20
   8   1 -10   36.00    8.40
  -8  -1  10   17.50    7.80
   7   1 -10    7.40    6.90
  -7  -1  10    2.50    6.70
   6   1 -10  180.08   13.30
  -6  -1  10  183.08   13.00
   5   1 -10  223.28   14.60
  -5  -1  10  245.68   14.10
   4   1 -10  110.99   11.80
  -4  -1  10  100.49   10.00
   3   1 -10  127.09    7.90
   3   1 -10  107.09   11.10
  -3  -1  10   82.89    9.00
   2   1 -10  100.89    7.40
   2   1 -10   80.79   11.70
  -2  -1  10   82.49    8.20
   1   1 -10   82.39    7.30
   1   1 -10   81.09    9.90
  -1  -1  10   81.49    7.40
   0   1 -10   37.40    4.70
   0   1 -10   34.70    6.10
   0  -1  10   36.90    5.70
  -1   1 -10   26.90    5.90
  -1   1 -10    9.30    5.20
  -2   1 -10  173.28   11.70
  -2   1 -10  192.68   10.40
  -3   1 -10  123.19    9.80
   3  -1  10  129.59   11.80
  -4   1 -10   54.19    6.20
   4  -1  10   47.10    7.80
  -5   1 -10   34.30    6.50
   5  -1  10   32.70    8.00
  -6   1 -10  155.68   12.90
   6  -1  10  136.19   14.80
   8   0 -10    1.40    8.20
  -8   0  10   -6.70    8.00
   7   0 -10   -2.70    7.00
  -7   0  10   -8.20    6.90
   6   0 -10  119.19   12.50
  -6   0  10  106.89   12.10
   5   0 -10  133.19   12.40
  -5   0  10  117.79   11.30
   4   0 -10   -4.80    6.70
  -4   0  10    3.20    5.70
   3   0 -10  129.79   11.70
  -3   0  10  101.89   13.70
   2   0 -10  165.88   12.60
  -2   0  10  164.28   10.80
   1   0 -10    0.30    6.00
   1   0 -10    9.10    3.80
  -1   0  10    7.10    4.80
   0   0 -10   40.50    6.80
   0   0 -10   37.60    4.70
   0   0  10   46.20    6.70
  -1   0 -10    6.20    4.60
  -1   0 -10   10.80    6.10
  -2   0 -10  279.37   15.00
  -2   0 -10  277.97   13.00
  -3   0 -10  284.87   13.60
  -3   0 -10  264.17   14.70
   3   0  10  261.87   15.80
  -4   0 -10    6.90    5.50
   4   0  10    9.40    7.10
  -5   0 -10   26.40    6.30
   5   0  10   10.10    7.50
   7  -1 -10   10.00    7.30
  -7   1  10   -4.90    7.60
   6  -1 -10   21.50    7.20
  -6   1  10    3.00    7.00
   5  -1 -10   46.30    7.90
  -5   1  10   35.90    7.10
   4  -1 -10    1.60    6.90
  -4   1  10   -4.50    6.20
   3  -1 -10   40.80    7.50
  -3   1  10   39.00    8.80
   2  -1 -10  186.58   13.80
  -2   1  10  174.78   12.30
   1  -1 -10   44.70    7.70
  -1   1  10   48.70    8.30
   0  -1 -10   50.49    7.50
   0   1  10   30.50    5.90
  -1  -1 -10   63.59    7.80
  -1  -1 -10   46.10    7.20
  -2  -1 -10  153.18   12.60
  -2  -1 -10  157.38    9.90
  -3  -1 -10   46.70    8.50
  -3  -1 -10   70.69    9.10
  -4  -1 -10   24.90    6.10
  -4  -1 -10    8.70    8.00
   4   1  10   15.80    7.20
   6  -2 -10   90.69   13.10
  -6   2  10   70.29    9.60
   5  -2 -10  122.09   13.40
  -5   2  10  106.39   13.00
   4  -2 -10    6.90    8.00
  -4   2  10  -12.20    7.00
   3  -2 -10   45.20    8.50
  -3   2  10   44.70    7.50
   2  -2 -10   40.00    7.80
  -2   2  10   36.50    7.20
   1  -2 -10   52.59    8.10
  -1   2  10   70.19   10.00
   0  -2 -10   12.50    7.30
   0   2  10   12.30    5.80
  -1  -2 -10   23.90    7.60
  -2  -2 -10   83.99   12.50
  -3  -2 -10    9.00    7.90
   4  -3 -10   12.10    8.10
  -4   3  10   -1.00    7.60
   3  -3 -10   77.39    9.80
  -3   3  10   81.19    9.40
   2  -3 -10   10.30    7.90
  -2   3  10    2.50    7.20
   1  -3 -10   17.60    8.10
  -1   3  10   -4.30    6.90
   0  -3 -10   22.20    8.30
   0   3  10   25.70    6.70
  -1  -3 -10   27.70    8.40
   2  11 -11  204.38   16.80
  -2 -11  11  212.68   23.80
   1  11 -11   70.99    9.60
   0  11 -11   25.90    8.50
  -1  11 -11  232.08   17.00
  -2  11 -11  208.68   16.30
  -3  11 -11   57.29    8.80
  -4  11 -11   -1.30    8.40
   4  10 -11   -2.10    8.40
  -4 -10  11   21.70    8.80
   3  10 -11  168.58   15.00
  -3 -10  11  166.68   13.90
   2  10 -11  121.29   13.60
  -2 -10  11  121.89   13.50
   1  10 -11   67.89    8.60
   0  10 -11    6.30    7.50
  -1  10 -11  132.29   13.50
  -2  10 -11   44.20    7.80
  -3  10 -11   33.80    7.90
  -4  10 -11    1.80    7.00
   4 -10  11   -8.40    6.00
  -5  10 -11   38.60    8.30
   5 -10  11   45.30    7.30
   5   9 -11   83.09    9.00
   4   9 -11    5.70    7.10
  -4  -9  11   12.40    8.40
   3   9 -11  159.98   14.00
  -3  -9  11  183.48   14.10
   2   9 -11  127.09   12.40
   1   9 -11  113.79    9.80
   1   9 -11   92.09   11.90
   0   9 -11   12.70    6.70
   0   9 -11   -5.30    4.80
  -1   9 -11  224.18   14.30
  -1   9 -11  223.78   13.80
  -2   9 -11  275.37   13.40
  -2   9 -11  258.27   15.40
  -3   9 -11   68.99    9.10
  -3   9 -11   76.99   10.80
  -4   9 -11   54.59    7.80
   4  -9  11   47.30    7.10
  -5   9 -11  156.28   13.70
   5  -9  11  141.69   12.40
  -6   9 -11  100.79   13.20
   6  -9  11   84.19   12.20
   6   8 -11   56.29    8.10
  -6  -8  11   59.19   10.10
   5   8 -11   51.29    6.80
   5   8 -11   39.70    7.40
  -5  -8  11   40.30    9.00
   4   8 -11  120.29   10.50
   4   8 -11  100.09   12.30
  -4  -8  11  146.69   14.00
   3   8 -11  314.77   17.50
   3   8 -11  361.56   16.40
  -3  -8  11  359.36   18.30
   2   8 -11  176.58   13.50
   2   8 -11  195.38   13.70
  -2  -8  11  209.88   14.50
   1   8 -11   20.00    8.70
   1   8 -11   28.00    6.80
   0   8 -11  155.78   12.30
   0   8 -11  155.48   11.70
  -1   8 -11  309.97   14.40
  -1   8 -11  295.17   15.70
  -2   8 -11  311.17   16.40
  -2   8 -11  346.67   15.30
  -3   8 -11   60.09    7.30
   3  -8  11   71.39    9.70
  -4   8 -11   90.79   11.40
   4  -8  11  102.79   11.10
  -5   8 -11   82.89   11.80
   5  -8  11   75.99   11.40
  -6   8 -11  100.79   12.70
   6  -8  11   88.49   12.00
   6   7 -11   72.09    8.10
   6   7 -11   87.49   11.10
  -6  -7  11   71.19    9.50
   5   7 -11   14.00    5.80
   5   7 -11   15.10    6.00
  -5  -7  11   18.30    7.60
   4   7 -11  100.19   11.60
   4   7 -11   96.19   10.60
  -4  -7  11  127.09   12.40
   3   7 -11  271.07   14.10
   3   7 -11  248.28   15.70
  -3  -7  11  219.18   14.30
   2   7 -11  266.07   15.00
   2   7 -11  286.77   14.40
  -2  -7  11  280.07   13.60
   1   7 -11   16.30    5.80
   1   7 -11   22.60    5.40
   0   7 -11   37.20    6.10
   0   7 -11   37.70    5.50
  -1   7 -11  147.89   10.00
  -1   7 -11  146.19   11.00
  -2   7 -11  258.07   14.10
  -2   7 -11  265.17   13.40
  -3   7 -11    1.40    6.10
   3  -7  11    1.30    5.60
  -4   7 -11  116.19   11.10
   4  -7  11  102.89   11.50
  -5   7 -11  132.39   12.10
   5  -7  11  130.89   12.40
  -6   7 -11   46.50    7.60
   6  -7  11   51.79    7.70
  -7   7 -11   24.70    7.70
   7  -7  11   18.90    8.00
   7   6 -11   93.79   12.00
   7   6 -11   65.99    8.00
  -7  -6  11   68.69    9.20
   6   6 -11  131.19   12.10
   6   6 -11  115.39   11.00
  -6  -6  11  136.69   13.10
   5   6 -11    1.80    5.70
   5   6 -11    2.30    5.60
  -5  -6  11    3.70    6.70
   4   6 -11   22.60    6.30
   4   6 -11   26.10    5.90
  -4  -6  11   30.20    6.50
   3   6 -11  146.59   11.30
   3   6 -11  161.28   11.50
  -3  -6  11  151.28   11.90
   2   6 -11  655.33   26.60
   2   6 -11  661.33   26.70
  -2  -6  11  658.73   25.60
   1   6 -11    5.70    5.50
   1   6 -11    1.10    5.20
   0   6 -11  286.37   14.30
   0   6 -11  285.97   14.20
  -1   6 -11  311.87   14.90
  -1   6 -11  313.07   15.00
  -2   6 -11  166.78   11.00
  -2   6 -11  165.78   11.40
  -3   6 -11   37.60    6.20
   3  -6  11   39.70    6.50
  -4   6 -11   44.70    6.50
   4  -6  11   43.50    7.10
  -5   6 -11   87.89   10.80
   5  -6  11   77.89   11.70
  -6   6 -11   39.10    7.20
   6  -6  11   39.30    7.70
  -7   6 -11    2.50    6.80
   7  -6  11    0.80    7.90
   7   5 -11   67.79    7.30
   7   5 -11   95.69   12.50
  -7  -5  11   64.59    8.50
   6   5 -11   56.69    6.70
   6   5 -11   79.99   11.00
  -6  -5  11   61.49    7.90
   5   5 -11   17.80    5.60
   5   5 -11   19.00    6.10
  -5  -5  11   26.50    6.70
   4   5 -11   82.09    9.80
   4   5 -11   83.09   10.70
  -4  -5  11   85.79   12.10
   3   5 -11  180.68   11.60
   3   5 -11  162.78   12.20
  -3  -5  11  160.68   10.80
   2   5 -11  225.48   12.20
   2   5 -11  197.88   12.60
  -2  -5  11  204.68   11.00
   1   5 -11   13.90    5.50
   1   5 -11    9.10    5.10
   0   5 -11  459.95   19.60
   0   5 -11  468.35   19.90
  -1   5 -11  486.45   20.20
  -1   5 -11  466.35   20.10
  -2   5 -11   11.40    5.40
  -2   5 -11   20.30    5.40
  -3   5 -11   24.70    5.70
   3  -5  11   23.20    6.40
  -4   5 -11   19.00    5.80
   4  -5  11   16.80    6.80
  -5   5 -11   53.99    6.80
   5  -5  11   50.89    7.90
  -6   5 -11   26.10    6.80
   6  -5  11   27.30    7.90
  -7   5 -11   19.60    7.60
   7  -5  11   18.00    8.10
   7   4 -11  182.58   12.10
   7   4 -11  205.58   15.10
  -7  -4  11  202.28   14.50
   6   4 -11   24.10    6.70
   6   4 -11   23.00    5.60
  -6  -4  11   30.30    7.00
   5   4 -11   33.70    7.00
   5   4 -11   37.30    5.90
  -5  -4  11   39.00    7.00
   4   4 -11   83.99   11.50
   4   4 -11   98.19    9.80
  -4  -4  11   88.79   11.90
   3   4 -11  406.86   19.50
   3   4 -11  437.56   18.70
  -3  -4  11  419.36   18.20
   2   4 -11   91.79    9.00
   2   4 -11   97.59   10.40
  -2  -4  11   83.89    7.60
   1   4 -11    7.10    4.90
   1   4 -11    8.50    5.40
   0   4 -11   91.49    9.80
   0   4 -11  119.19   10.20
  -1   4 -11  345.67   16.00
  -1   4 -11  329.77   15.50
  -2   4 -11   26.60    5.30
  -2   4 -11   16.60    5.60
  -3   4 -11    1.20    5.00
   3  -4  11   -3.70    6.10
  -4   4 -11   32.10    6.20
   4  -4  11   34.30    7.30
  -5   4 -11   83.39   10.40
   5  -4  11   88.39   12.80
  -6   4 -11   15.70    6.90
   6  -4  11    4.90    7.80
   7   3 -11  163.48   13.80
   7   3 -11  142.99   13.40
  -7  -3  11  149.09   13.60
   6   3 -11   25.40    5.50
   6   3 -11   26.30    6.90
  -6  -3  11   18.20    6.90
   5   3 -11    5.00    6.20
   5   3 -11    2.30    4.90
  -5  -3  11   -5.90    6.00
   4   3 -11  120.59   12.70
   4   3 -11  162.18   10.60
  -4  -3  11  115.99   10.50
   3   3 -11  309.77   14.10
   3   3 -11  267.67   15.20
  -3  -3  11  267.37   13.90
   2   3 -11   27.00    5.30
   2   3 -11   18.40    6.40
  -2  -3  11    9.80    4.30
   1   3 -11   16.00    6.10
   1   3 -11   25.50    5.20
   0   3 -11  358.76   17.60
   0   3 -11  388.66   17.60
  -1   3 -11  234.48   12.50
  -1   3 -11  246.28   13.70
  -2   3 -11   -8.20    5.80
  -2   3 -11    1.70    5.00
  -3   3 -11   22.10    5.50
   3  -3  11   24.10    6.90
  -4   3 -11  138.79   10.80
   4  -3  11  114.19   12.70
  -5   3 -11   91.19   10.80
   5  -3  11   77.39    9.20
  -6   3 -11   26.30    7.20
   6  -3  11   11.90    8.10
   7   2 -11   26.60    7.70
  -7  -2  11   17.00    7.40
   6   2 -11    1.90    6.70
  -6  -2  11   -6.30    6.20
   5   2 -11    3.00    6.60
  -5  -2  11  -12.40    5.90
   4   2 -11  174.18   13.90
   4   2 -11  226.48   13.20
  -4  -2  11  184.58   12.10
   3   2 -11  105.99   12.10
  -3  -2  11   99.89    9.50
   2   2 -11    2.50    6.30
   2   2 -11    3.60    4.90
  -2  -2  11    4.80    4.50
   1   2 -11   86.69   10.80
   1   2 -11   66.29    9.30
   0   2 -11  178.88   13.00
   0   2 -11  186.78   10.90
  -1   2 -11  113.29   11.10
  -1   2 -11  105.39    9.20
  -2   2 -11   -1.70    6.20
  -2   2 -11   -0.50    4.80
  -3   2 -11    9.30    5.20
  -3   2 -11    6.00    6.80
   3  -2  11   -2.30    6.50
  -4   2 -11   18.10    5.90
   4  -2  11   21.10    7.70
  -5   2 -11    6.80    6.30
   5  -2  11   -2.80    7.70
   7   1 -11    0.50    7.70
  -7  -1  11   -4.40    7.70
   6   1 -11    0.70    7.40
  -6  -1  11   -4.90    6.50
   5   1 -11   -7.10    7.10
  -5  -1  11    4.60    6.10
   4   1 -11  129.09   13.00
  -4  -1  11  105.49   10.70
   3   1 -11  170.18   13.10
  -3  -1  11  159.38   11.40
   2   1 -11   42.90    7.40
  -2  -1  11   23.60    5.60
   1   1 -11   48.60    5.60
   1   1 -11   39.90    7.40
   0   1 -11   80.59    8.40
   0   1 -11   56.09    7.70
  -1   1 -11   61.89    7.60
  -1   1 -11   55.59    5.90
  -2   1 -11   27.20    7.20
  -2   1 -11   22.20    5.40
  -3   1 -11   21.50    5.60
  -3   1 -11   14.00    7.20
  -4   1 -11   34.40    6.40
   4  -1  11   28.30    8.10
  -5   1 -11   31.10    7.20
   5  -1  11   17.20    8.60
   6   0 -11   11.50    7.90
  -6   0  11    5.80    7.20
   5   0 -11   29.30    8.10
  -5   0  11   26.10    7.20
   4   0 -11   82.89    9.70
  -4   0  11   77.69   10.60
   3   0 -11   37.50    8.40
  -3   0  11   51.19    7.00
   2   0 -11   -3.10    7.30
  -2   0  11   -7.50    5.60
   1   0 -11   54.19    8.20
   0   0 -11   97.69   12.60
  -1   0 -11   26.20    6.90
  -1   0 -11   26.90    7.70
  -2   0 -11    7.90    5.10
  -2   0 -11    9.50    7.10
  -3   0 -11   47.10    6.00
  -3   0 -11   50.19    8.40
  -4   0 -11   44.70    7.70
  -4   0 -11   34.00    8.20
   4   0  11   33.00    8.60
   5  -1 -11   33.20    9.00
  -5   1  11   39.60    7.80
   4  -1 -11   44.40    9.40
   3  -1 -11   12.80    8.40
  -3   1  11   -0.20    6.40
   2  -1 -11   -2.20    7.80
  -2   1  11   10.70    6.30
   1  -1 -11   48.10    8.90
   0  -1 -11   47.00    8.50
  -1  -1 -11   23.60    7.90
  -2  -1 -11    5.00    7.60
   2  -2 -11   -0.20    8.40
  -2   2  11    4.90    6.50
   1  -2 -11   37.10    8.80
   2  10 -12   22.80    8.00
   1  10 -12  100.49   13.70
   0  10 -12  122.99   15.00
  -1  10 -12   60.89    9.00
  -2  10 -12   32.30    8.10
  -3  10 -12   81.69    9.60
  -3  10 -12  110.09   16.20
   4   9 -12   58.29    8.50
   3   9 -12   21.60    7.90
   2   9 -12   -8.10    6.70
   1   9 -12   62.69    8.70
   0   9 -12  190.18   12.00
   0   9 -12  178.38   14.70
  -1   9 -12   60.79    8.80
  -1   9 -12   31.50    7.80
  -2   9 -12    9.90    5.50
  -2   9 -12    5.80    7.00
  -3   9 -12  167.58   13.40
  -3   9 -12  140.09   11.30
  -4   9 -12   61.69    8.70
   4  -9  12   78.69   11.50
   5   8 -12   61.99    8.10
   4   8 -12   81.79    9.90
   4   8 -12   60.89    8.40
  -4  -8  12   74.19   11.60
   3   8 -12   32.40    7.70
   3   8 -12   37.60    6.60
   2   8 -12   86.79   10.80
   2   8 -12   93.69   12.60
   1   8 -12  350.56   16.80
   1   8 -12  349.17   18.00
   0   8 -12  252.37   13.70
   0   8 -12  242.18   14.90
  -1   8 -12    6.60    6.30
  -1   8 -12   -4.00    5.50
  -2   8 -12  146.09   11.40
  -2   8 -12  186.18   13.10
  -3   8 -12  189.78   12.50
  -3   8 -12  210.78   14.40
  -4   8 -12   56.89    8.30
   4  -8  12   54.09    7.70
  -5   8 -12   28.80    7.80
   5  -8  12   12.90    7.60
   5   7 -12  180.28   13.20
   5   7 -12  167.98   13.60
  -5  -7  12  177.88   13.40
   4   7 -12   10.70    6.70
   4   7 -12   19.60    6.00
  -4  -7  12   14.20    6.30
   3   7 -12    4.10    6.20
   3   7 -12   15.90    6.40
   2   7 -12   43.50    6.60
   2   7 -12   42.40    7.20
   1   7 -12  348.97   17.00
   1   7 -12  348.97   17.60
   0   7 -12  137.19   10.90
   0   7 -12  136.29   11.80
  -1   7 -12    8.90    6.10
  -1   7 -12    2.90    5.40
  -2   7 -12  106.99   10.70
  -2   7 -12  110.89   11.10
  -3   7 -12   51.39    7.60
  -3   7 -12   59.99    7.20
   3  -7  12   57.29    7.70
  -4   7 -12   34.30    7.40
   4  -7  12   39.60    7.50
  -5   7 -12   10.00    7.10
   5  -7  12    6.70    7.70
   6   6 -12  171.58   13.60
   6   6 -12  166.88   13.10
  -6  -6  12  186.98   13.70
   5   6 -12  189.38   13.20
   5   6 -12  186.78   12.70
  -5  -6  12  193.28   13.10
   4   6 -12   45.10    7.50
   4   6 -12   45.90    7.20
  -4  -6  12   51.79    6.60
   3   6 -12    2.70    6.10
   3   6 -12    7.50    6.20
   2   6 -12   15.40    6.20
   2   6 -12   26.30    6.40
   1   6 -12  151.58   11.90
   1   6 -12  147.99   11.90
   0   6 -12  226.68   13.20
   0   6 -12  231.28   13.40
  -1   6 -12   -5.10    5.50
  -1   6 -12    3.30    5.80
  -2   6 -12  173.98   12.20
  -2   6 -12  165.18   12.10
  -3   6 -12  159.38   12.00
  -3   6 -12  153.88   12.10
   3  -6  12  149.09   12.60
  -4   6 -12  121.39   13.20
   4  -6  12   88.09   12.60
  -5   6 -12   32.70    7.20
   5  -6  12   31.70    8.10
   6   5 -12   45.80    7.60
   6   5 -12   45.20    6.80
  -6  -5  12   40.40    7.60
   5   5 -12   47.10    7.10
   5   5 -12   45.90    7.30
  -5  -5  12   36.90    6.80
   4   5 -12   51.19    7.00
   4   5 -12   49.80    7.70
  -4  -5  12   51.69    6.60
   3   5 -12   14.10    6.10
   3   5 -12   16.30    6.70
   2   5 -12  110.09   11.70
   2   5 -12  135.69   10.80
   1   5 -12   98.99   11.20
   1   5 -12  114.69   10.60
   0   5 -12  131.69   11.50
   0   5 -12  138.09   10.90
  -1   5 -12   43.40    6.70
  -1   5 -12   44.90    6.40
  -2   5 -12  183.88   12.50
  -2   5 -12  178.18   12.40
  -3   5 -12  145.79   11.90
  -3   5 -12  147.79   11.40
   3  -5  12  135.69   12.60
  -4   5 -12   39.80    7.00
   4  -5  12   42.70    9.00
  -5   5 -12   56.59    7.60
   5  -5  12   50.49    9.20
   6   4 -12   84.79   10.10
   6   4 -12   64.19    8.60
  -6  -4  12   75.19    8.50
   5   4 -12  146.19   13.40
   5   4 -12  146.59   11.10
  -5  -4  12  143.69   11.90
   4   4 -12   49.99    6.80
   4   4 -12   46.60    8.00
  -4  -4  12   47.00    6.50
   3   4 -12   51.69    7.80
   3   4 -12   59.39    6.90
   2   4 -12  141.49   12.90
   2   4 -12  166.68   11.30
   1   4 -12  182.98   13.80
   1   4 -12  214.58   12.20
   0   4 -12  102.69   11.50
   0   4 -12  101.59    9.80
  -1   4 -12   19.20    5.80
  -1   4 -12   20.50    6.50
  -2   4 -12   50.59    6.80
  -2   4 -12   80.09   11.20
  -3   4 -12  102.09   12.40
  -3   4 -12  101.49   11.30
   3  -4  12   93.49   13.30
  -4   4 -12   13.30    6.30
   4  -4  12    9.70    7.60
  -5   4 -12   -1.30    6.60
   5  -4  12   12.60    8.20
   6   3 -12   59.99    8.40
  -6  -3  12   63.19    7.70
   5   3 -12   96.79   13.20
   5   3 -12  128.49   10.90
  -5  -3  12  100.29   10.90
   4   3 -12    8.80    7.90
   4   3 -12   34.20    6.30
  -4  -3  12   25.70    6.10
   3   3 -12   27.80    7.60
   3   3 -12   51.29    7.10
   2   3 -12   87.79    9.70
   2   3 -12   80.49   12.00
   1   3 -12  134.79   10.30
   1   3 -12  129.29   12.70
   0   3 -12    8.50    6.60
   0   3 -12   11.50    5.40
  -1   3 -12   25.60    7.00
  -1   3 -12   18.50    5.70
  -2   3 -12  161.48   11.60
  -2   3 -12  165.48   13.80
  -3   3 -12  154.78   13.70
  -3   3 -12  146.99   11.20
  -4   3 -12   10.10    6.50
   4  -3  12   19.60    8.10
   5   2 -12   33.90    8.10
  -5  -2  12    3.80    6.10
   4   2 -12    3.20    7.80
  -4  -2  12   -9.10    5.60
   3   2 -12   11.50    7.90
   2   2 -12   73.69    9.20
   1   2 -12   72.19    9.00
   1   2 -12   82.99    9.50
   0   2 -12   15.60    7.50
   0   2 -12   10.10    5.30
  -1   2 -12   15.50    7.50
  -1   2 -12   17.10    5.50
  -2   2 -12  113.59   12.60
  -2   2 -12  130.39   10.80
  -3   2 -12   45.70    8.30
  -3   2 -12   71.09    9.80
   4   1 -12   10.60    8.50
  -4  -1  12    4.90    6.00
   3   1 -12   -5.10    8.20
   2   1 -12   61.59    9.20
   1   1 -12   74.79    9.60
   0   1 -12    8.50    7.30
   0   1 -12   16.10    8.00
  -1   1 -12   -8.00    7.60
  -1   1 -12    4.60    5.50
  -2   1 -12   57.19    8.60
  -2   1 -12   73.59    9.70
   3   0 -12   -2.80    8.80
  -3   0  12  -15.70   10.50
   2   0 -12   73.79   10.10
   1   0 -12   49.90    9.70
   0   0 -12   -7.00    8.30
   1   9 -13   62.59    9.10
   0   9 -13   16.00    8.00
   0   9 -13   10.30    6.00
  -1   9 -13   61.29    9.00
  -1   9 -13   90.59   10.40
  -2   9 -13   61.59    8.90
  -2   9 -13   55.09    7.10
   3   8 -13   16.70    7.90
   3   8 -13   17.00    6.50
   2   8 -13   70.79    9.40
   2   8 -13  111.19   11.90
   1   8 -13   50.89    8.20
   1   8 -13   45.90    7.40
   0   8 -13   91.39   11.70
   0   8 -13  108.49   13.10
  -1   8 -13  200.08   14.60
  -1   8 -13  206.48   13.40
  -2   8 -13  141.19   13.60
  -2   8 -13  145.79   12.00
  -3   8 -13    0.10    7.40
  -3   8 -13   -6.20    6.50
   3   7 -13   98.89   12.10
   3   7 -13   90.79   10.00
   2   7 -13   95.19   12.90
   2   7 -13   99.79   14.00
   1   7 -13    1.00    7.00
   1   7 -13    3.80    6.50
   0   7 -13  123.39   11.80
   0   7 -13  122.39   12.80
  -1   7 -13  149.79   12.30
  -1   7 -13  167.38   13.30
  -2   7 -13    9.90    6.30
  -2   7 -13   23.90    7.10
  -3   7 -13   -1.10    7.00
  -3   7 -13    2.10    7.00
   4   6 -13  106.09   13.30
   4   6 -13  132.09   13.80
   3   6 -13  241.68   15.90
   3   6 -13  240.78   14.90
   2   6 -13   91.19   11.70
   2   6 -13   83.69   11.90
   1   6 -13   27.30    6.80
   1   6 -13   36.50    7.20
   0   6 -13   93.79   11.60
   0   6 -13   93.89   11.10
  -1   6 -13   97.39   11.40
  -1   6 -13   81.69   11.70
  -2   6 -13   10.80    7.00
  -2   6 -13    9.90    7.00
  -3   6 -13    3.40    7.10
  -3   6 -13    8.80    7.30
   4   5 -13    9.40    9.30
   4   5 -13   16.10    7.80
   3   5 -13   95.79   11.50
   3   5 -13   98.79   13.70
   2   5 -13   22.00    6.70
   2   5 -13   15.40    7.60
   1   5 -13   20.80    6.60
   1   5 -13   25.70    7.90
   0   5 -13   76.69    8.70
   0   5 -13   74.29   10.60
  -1   5 -13   52.89    8.00
  -1   5 -13   49.50    6.90
  -2   5 -13   39.40    7.80
  -2   5 -13   38.60    8.10
  -3   5 -13   13.70    6.90
  -3   5 -13    7.80    7.30
   4   4 -13   65.09    7.90
   4   4 -13   45.60    8.90
   3   4 -13  262.27   15.10
   3   4 -13  232.28   17.10
   2   4 -13    8.30    7.60
   2   4 -13   19.30    6.50
   1   4 -13   45.00    8.40
   1   4 -13   67.59    7.70
   0   4 -13   99.49   12.70
   0   4 -13  116.09   11.20
  -1   4 -13   50.39    6.90
  -1   4 -13   46.10    8.40
  -2   4 -13   97.69   12.80
  -2   4 -13   93.29   11.50
   3   3 -13   82.49   10.10
   2   3 -13   10.10    6.00
   2   3 -13    4.20    8.20
   1   3 -13   77.89    9.90
   1   3 -13  111.99   10.90
   0   3 -13   28.00    8.10
   0   3 -13   36.50    6.70
  -1   3 -13   33.50    7.00
  -1   3 -13   11.30    8.00

_computing_structure_solution     'SHELXT 2014/4 (Sheldrick, 2014)'
;
_shelx_hkl_checksum              18033
loop_
_space_group_symop_operation_xyz
'x, y, z'
'-x, -y, -z'
loop_
_atom_site_label
_atom_site_type_symbol
_atom_site_fract_x
_atom_site_fract_y
_atom_site_fract_z
_atom_site_U_iso_or_equiv
_atom_site_adp_type
_atom_site_occupancy
_atom_site_site_symmetry_order
_atom_site_calc_flag
_atom_site_refinement_flags_posn
_atom_site_refinement_flags_adp
Se1 Se 0.87563(2) 0.48018(2) 0.22893(2) 0.04211(11) Uani 1 1 d . .
Cl1 Cl 0.95728(9) -0.17835(8) 0.10969(9) 0.0706(2) Uani 1 1 d . .
N1 N 0.77178(19) 0.4627(2) 0.48510(18) 0.0383(4) Uani 1 1 d . .
N2 N 0.7638(2) 0.3778(2) 0.5582(2) 0.0454(4) Uani 1 1 d . .
C1 C 0.7131(2) 0.3869(2) 0.0802(2) 0.0357(4) Uani 1 1 d . .
C14 C 0.7263(2) 0.6128(3) 0.5549(2) 0.0390(4) Uani 1 1 d . .
C7 C 0.8214(2) 0.3879(2) 0.3493(2) 0.0367(4) Uani 1 1 d . .
C8 C 0.8425(2) 0.2415(3) 0.3321(2) 0.0366(4) Uani 1 1 d . .
C2 C 0.7265(3) 0.4142(3) -0.0405(2) 0.0455(5) Uani 1 1 d . .
H2 H 0.8125 0.4692 -0.0484 0.055 Uiso 1 1 calc R U
C13 C 0.8067(2) 0.2434(3) 0.4655(2) 0.0409(5) Uani 1 1 d . .
C15 C 0.7701(3) 0.7114(3) 0.7031(3) 0.0496(5) Uani 1 1 d . .
H15 H 0.8286 0.6811 0.7556 0.060 Uiso 1 1 calc R U
C6 C 0.5867(3) 0.2997(3) 0.0884(3) 0.0481(5) Uani 1 1 d . .
H6 H 0.5783 0.2779 0.1669 0.058 Uiso 1 1 calc R U
C9 C 0.8897(2) 0.1109(3) 0.2191(2) 0.0432(5) Uani 1 1 d . .
H9 H 0.9143 0.1091 0.1315 0.052 Uiso 1 1 calc R U
C10 C 0.8974(3) -0.0130(3) 0.2448(3) 0.0461(5) Uani 1 1 d . .
C11 C 0.8609(3) -0.0150(3) 0.3762(3) 0.0533(6) Uani 1 1 d . .
H11 H 0.8673 -0.1033 0.3870 0.064 Uiso 1 1 calc R U
C3 C 0.6112(3) 0.3589(3) -0.1484(3) 0.0522(6) Uani 1 1 d . .
H3 H 0.6194 0.3787 -0.2280 0.063 Uiso 1 1 calc R U
C18 C 0.5921(3) 0.7994(3) 0.5468(3) 0.0609(7) Uani 1 1 d . .
H18 H 0.5318 0.8291 0.4950 0.073 Uiso 1 1 calc R U
C12 C 0.8162(3) 0.1113(3) 0.4871(3) 0.0511(6) Uani 1 1 d . .
H12 H 0.7928 0.1111 0.5741 0.061 Uiso 1 1 calc R U
C4 C 0.4852(3) 0.2755(3) -0.1389(3) 0.0560(6) Uani 1 1 d . .
H4 H 0.4079 0.2391 -0.2117 0.067 Uiso 1 1 calc R U
C19 C 0.6365(3) 0.6548(3) 0.4765(3) 0.0504(5) Uani 1 1 d . .
H19 H 0.6061 0.5866 0.3774 0.060 Uiso 1 1 calc R U
C5 C 0.4728(3) 0.2453(4) -0.0214(3) 0.0586(7) Uani 1 1 d . .
H5 H 0.3872 0.1877 -0.0158 0.070 Uiso 1 1 calc R U
C17 C 0.6379(3) 0.9000(3) 0.6949(4) 0.0641(7) Uani 1 1 d . .
H17 H 0.6093 0.9977 0.7422 0.077 Uiso 1 1 calc R U
C16 C 0.7258(3) 0.8550(3) 0.7717(3) 0.0621(7) Uani 1 1 d . .
H16 H 0.7555 0.9225 0.8711 0.075 Uiso 1 1 calc R U
loop_
_atom_site_aniso_label
_atom_site_aniso_U_11
_atom_site_aniso_U_22
_atom_site_aniso_U_33
_atom_site_aniso_U_23
_atom_site_aniso_U_13
_atom_site_aniso_U_12
Se1 0.04528(15) 0.04535(16) 0.04321(15) 0.02834(12) 0.00527(9) 0.00370(10)
Cl1 0.0874(5) 0.0402(3) 0.0810(5) 0.0237(3) 0.0193(4) 0.0184(3)
N1 0.0419(9) 0.0435(9) 0.0357(8) 0.0232(7) 0.0036(7) 0.0100(7)
N2 0.0536(11) 0.0557(12) 0.0402(9) 0.0322(9) 0.0069(8) 0.0141(9)
C1 0.0438(10) 0.0358(10) 0.0327(9) 0.0186(8) 0.0072(8) 0.0136(8)
C14 0.0391(10) 0.0412(11) 0.0383(10) 0.0202(9) 0.0085(8) 0.0071(8)
C7 0.0414(10) 0.0392(10) 0.0337(9) 0.0203(8) 0.0038(8) 0.0085(8)
C8 0.0340(9) 0.0421(11) 0.0375(10) 0.0224(9) 0.0009(7) 0.0057(8)
C2 0.0585(13) 0.0465(12) 0.0426(11) 0.0288(10) 0.0143(10) 0.0130(10)
C13 0.0419(10) 0.0497(12) 0.0398(10) 0.0285(10) 0.0028(8) 0.0080(9)
C15 0.0484(12) 0.0541(14) 0.0427(11) 0.0217(10) 0.0032(9) 0.0032(10)
C6 0.0520(12) 0.0604(14) 0.0394(11) 0.0306(11) 0.0066(9) 0.0067(11)
C9 0.0441(11) 0.0445(12) 0.0427(11) 0.0231(9) 0.0038(9) 0.0038(9)
C10 0.0468(12) 0.0343(11) 0.0542(13) 0.0186(10) 0.0022(10) 0.0076(9)
C11 0.0544(13) 0.0491(13) 0.0694(16) 0.0396(13) -0.0018(11) 0.0075(10)
C3 0.0737(16) 0.0576(15) 0.0352(11) 0.0269(10) 0.0078(10) 0.0227(12)
C18 0.0636(16) 0.0581(16) 0.0721(17) 0.0355(14) 0.0163(13) 0.0260(13)
C12 0.0595(14) 0.0577(15) 0.0533(13) 0.0400(12) 0.0052(11) 0.0120(11)
C4 0.0610(15) 0.0655(17) 0.0388(12) 0.0211(12) -0.0007(10) 0.0176(12)
C19 0.0528(13) 0.0534(14) 0.0484(13) 0.0249(11) 0.0036(10) 0.0169(11)
C5 0.0485(13) 0.0737(18) 0.0522(14) 0.0317(13) 0.0028(11) 0.0002(12)
C17 0.0747(18) 0.0446(14) 0.0732(18) 0.0244(13) 0.0333(15) 0.0193(13)
C16 0.0743(17) 0.0500(14) 0.0450(13) 0.0117(11) 0.0144(12) -0.0015(12)
loop_
_atom_type_symbol
_atom_type_description
_atom_type_scat_dispersion_real
_atom_type_scat_dispersion_imag
_atom_type_scat_source
C C 0.0033 0.0016 'International Tables Vol C Tables 4.2.6.8 and 6.1.1.4'
H H 0.0000 0.0000 'International Tables Vol C Tables 4.2.6.8 and 6.1.1.4'
N N 0.0061 0.0033 'International Tables Vol C Tables 4.2.6.8 and 6.1.1.4'
O O 0.0106 0.0060 'International Tables Vol C Tables 4.2.6.8 and 6.1.1.4'
Br Br -0.2901 2.4595 'International Tables Vol C Tables 4.2.6.8 and 6.1.1.4'
Se Se -0.0929 2.2259 'International Tables Vol C Tables 4.2.6.8 and 6.1.1.4'
Cl Cl 0.1484 0.1585 'International Tables Vol C Tables 4.2.6.8 and 6.1.1.4'
loop_
_geom_angle_atom_site_label_1
_geom_angle_atom_site_label_2
_geom_angle_atom_site_label_3
_geom_angle
C7 Se1 C1 100.58(9)
N2 N1 C7 113.29(18)
N2 N1 C14 117.78(17)
C7 N1 C14 128.91(17)
C13 N2 N1 104.53(17)
C6 C1 C2 119.9(2)
C6 C1 Se1 124.15(15)
C2 C1 Se1 115.94(16)
C15 C14 C19 121.0(2)
C15 C14 N1 118.53(19)
C19 C14 N1 120.42(19)
N1 C7 C8 105.50(17)
N1 C7 Se1 125.62(16)
C8 C7 Se1 128.26(16)
C7 C8 C9 134.0(2)
C7 C8 C13 104.79(19)
C9 C8 C13 121.2(2)
C3 C2 C1 119.6(2)
C3 C2 H2 120.2
C1 C2 H2 120.2
N2 C13 C8 111.85(19)
N2 C13 C12 127.8(2)
C8 C13 C12 120.3(2)
C14 C15 C16 119.1(2)
C14 C15 H15 120.5
C16 C15 H15 120.5
C1 C6 C5 119.3(2)
C1 C6 H6 120.4
C5 C6 H6 120.4
C10 C9 C8 116.4(2)
C10 C9 H9 121.8
C8 C9 H9 121.8
C9 C10 C11 123.6(2)
C9 C10 Cl1 118.77(19)
C11 C10 Cl1 117.65(18)
C12 C11 C10 120.6(2)
C12 C11 H11 119.7
C10 C11 H11 119.7
C4 C3 C2 120.5(2)
C4 C3 H3 119.7
C2 C3 H3 119.7
C17 C18 C19 119.7(3)
C17 C18 H18 120.1
C19 C18 H18 120.1
C11 C12 C13 117.9(2)
C11 C12 H12 121.1
C13 C12 H12 121.1
C3 C4 C5 120.0(2)
C3 C4 H4 120.0
C5 C4 H4 120.0
C14 C19 C18 119.4(2)
C14 C19 H19 120.3
C18 C19 H19 120.3
C4 C5 C6 120.7(2)
C4 C5 H5 119.7
C6 C5 H5 119.7
C18 C17 C16 120.0(3)
C18 C17 H17 120.0
C16 C17 H17 120.0
C15 C16 C17 120.7(2)
C15 C16 H16 119.6
C17 C16 H16 119.6
loop_
_geom_bond_atom_site_label_1
_geom_bond_atom_site_label_2
_geom_bond_distance
Se1 C7 1.886(2)
Se1 C1 1.920(2)
Cl1 C10 1.748(2)
N1 N2 1.353(2)
N1 C7 1.372(3)
N1 C14 1.433(3)
N2 C13 1.339(3)
C1 C6 1.385(3)
C1 C2 1.394(3)
C14 C15 1.383(3)
C14 C19 1.381(3)
C7 C8 1.400(3)
C8 C9 1.405(3)
C8 C13 1.417(3)
C2 C3 1.382(4)
C2 H2 0.9300
C13 C12 1.421(3)
C15 C16 1.375(4)
C15 H15 0.9300
C6 C5 1.386(3)
C6 H6 0.9300
C9 C10 1.366(3)
C9 H9 0.9300
C10 C11 1.413(4)
C11 C12 1.362(4)
C11 H11 0.9300
C3 C4 1.368(4)
C3 H3 0.9300
C18 C17 1.388(4)
C18 C19 1.385(4)
C18 H18 0.9300
C12 H12 0.9300
C4 C5 1.378(4)
C4 H4 0.9300
C19 H19 0.9300
C5 H5 0.9300
C17 C16 1.377(5)
C17 H17 0.9300
C16 H16 0.9300
