#------------------------------------------------------------------------------
#$Date: 2019-11-12 04:47:43 +0200 (Tue, 12 Nov 2019) $
#$Revision: 227606 $
#$URL: file:///home/coder/svn-repositories/cod/cif/4/03/33/4033374.cif $
#------------------------------------------------------------------------------
#
# This file is available in the Crystallography Open Database (COD),
# http://www.crystallography.net/
#
# All data on this site have been placed in the public domain by the
# contributors.
#
data_4033374
loop_
_publ_author_name
'Frei, Przemyslaw'
'Jones, D. Heulyn'
'Kay, Steven T.'
'McLellan, Jayde A.'
'Johnston, Blair F.'
'Kennedy, Alan R.'
'Tomkinson, Nicholas C. O.'
_publ_section_title
;
 Regioselective Reaction of Heterocyclic N-Oxides, an Acyl Chloride, and
 Cyclic Thioethers.
;
_journal_issue                   3
_journal_name_full               'The Journal of organic chemistry'
_journal_page_first              1510
_journal_page_last               1517
_journal_paper_doi               10.1021/acs.joc.7b02457
_journal_volume                  83
_journal_year                    2018
_chemical_formula_sum            'C4 H3 Cl N2 O'
_chemical_formula_weight         130.53
_space_group_crystal_system      orthorhombic
_space_group_IT_number           19
_space_group_name_Hall           'P 2ac 2ab'
_space_group_name_H-M_alt        'P 21 21 21'
_symmetry_space_group_name_Hall  'P 2ac 2ab'
_symmetry_space_group_name_H-M   'P 21 21 21'
_atom_sites_solution_hydrogens   difmap
_audit_creation_method           SHELXL-2014/7
_cell_angle_alpha                90
_cell_angle_beta                 90
_cell_angle_gamma                90
_cell_formula_units_Z            4
_cell_length_a                   4.7980(8)
_cell_length_b                   5.6534(11)
_cell_length_c                   19.038(3)
_cell_measurement_reflns_used    2783
_cell_measurement_temperature    150(2)
_cell_measurement_theta_max      29.9374
_cell_measurement_theta_min      3.5967
_cell_volume                     516.41(16)
_computing_cell_refinement       CrysalisPro
_computing_data_collection       CrysalisPro
_computing_data_reduction        CrysalisPro
_computing_publication_material  SHELXL-2014
_computing_structure_refinement  'SHELXL-2014/7 (Sheldrick, 2014)'
_computing_structure_solution    SIR92
_diffrn_ambient_temperature      150(2)
_diffrn_measured_fraction_theta_full 0.999
_diffrn_measured_fraction_theta_max 0.939
_diffrn_measurement_device_type  'Oxford Diffraction Xcalibur E'
_diffrn_measurement_method       'omega scans'
_diffrn_radiation_type           MoK\a
_diffrn_radiation_wavelength     0.71073
_diffrn_reflns_av_R_equivalents  0.0343
_diffrn_reflns_av_unetI/netI     0.0337
_diffrn_reflns_Laue_measured_fraction_full 0.999
_diffrn_reflns_Laue_measured_fraction_max 0.939
_diffrn_reflns_limit_h_max       6
_diffrn_reflns_limit_h_min       -6
_diffrn_reflns_limit_k_max       7
_diffrn_reflns_limit_k_min       -6
_diffrn_reflns_limit_l_max       26
_diffrn_reflns_limit_l_min       -15
_diffrn_reflns_number            4289
_diffrn_reflns_point_group_measured_fraction_full 0.999
_diffrn_reflns_point_group_measured_fraction_max 0.913
_diffrn_reflns_theta_full        27.000
_diffrn_reflns_theta_max         30.004
_diffrn_reflns_theta_min         3.760
_diffrn_source                   'sealed tube'
_exptl_absorpt_coefficient_mu    0.618
_exptl_absorpt_correction_T_max  1.00000
_exptl_absorpt_correction_T_min  0.68480
_exptl_absorpt_correction_type   multi-scan
_exptl_absorpt_process_details
;
CrysAlisPro, Oxford Diffraction Ltd.,
Version 1.171.34.40 (release 27-08-2010 CrysAlis171 .NET)
(compiled Aug 27 2010,11:50:40)
Empirical absorption correction using spherical harmonics,
 implemented in SCALE3 ABSPACK scaling algorithm.
;
_exptl_crystal_colour            colourless
_exptl_crystal_density_diffrn    1.679
_exptl_crystal_description       'FRAGMENT CUT FROM LONG SPAR'
_exptl_crystal_F_000             264
_exptl_crystal_size_max          0.40
_exptl_crystal_size_mid          0.15
_exptl_crystal_size_min          0.08
_refine_diff_density_max         0.257
_refine_diff_density_min         -0.215
_refine_diff_density_rms         0.052
_refine_ls_abs_structure_details
;
 Flack x determined using 466 quotients [(I+)-(I-)]/[(I+)+(I-)]
 (Parsons, Flack and Wagner, Acta Cryst. B69 (2013) 249-259).
;
_refine_ls_abs_structure_Flack   -0.01(6)
_refine_ls_extinction_method     none
_refine_ls_goodness_of_fit_ref   1.076
_refine_ls_hydrogen_treatment    refall
_refine_ls_matrix_type           full
_refine_ls_number_parameters     85
_refine_ls_number_reflns         1372
_refine_ls_number_restraints     0
_refine_ls_restrained_S_all      1.076
_refine_ls_R_factor_all          0.0321
_refine_ls_R_factor_gt           0.0294
_refine_ls_shift/su_max          0.000
_refine_ls_shift/su_mean         0.000
_refine_ls_structure_factor_coef Fsqd
_refine_ls_weighting_details
'w=1/[\s^2^(Fo^2^)+(0.0348P)^2^+0.0311P] where P=(Fo^2^+2Fc^2^)/3'
_refine_ls_weighting_scheme      calc
_refine_ls_wR_factor_gt          0.0672
_refine_ls_wR_factor_ref         0.0703
_reflns_Friedel_coverage         0.597
_reflns_Friedel_fraction_full    1.000
_reflns_Friedel_fraction_max     0.872
_reflns_number_gt                1293
_reflns_number_total             1372
_reflns_threshold_expression     'I > 2\s(I)'
_cod_data_source_file            jo7b02457_si_002.cif
_cod_data_source_block           shelx
_cod_depositor_comments          'Adding full bibliography for 4033374.cif.'
_cod_database_code               4033374
_shelx_shelxl_version_number     2014/7
_shelx_space_group_comment
;
The symmetry employed for this shelxl refinement is uniquely defined
by the following loop, which should always be used as a source of
symmetry information in preference to the above space-group names.
They are only intended as comments.
;
_shelx_res_file
;

    shelx.res created by SHELXL-2014/7

TITL SIR92 run in space group P 21 21 21
CELL  0.71073   4.7980   5.6534  19.0380   90.000   90.000   90.000
ZERR     4.00   0.0008   0.0011   0.0030    0.000    0.000    0.000
LATT  -1
SYMM  1/2 - X, - Y, 1/2 + Z
SYMM  1/2 + X, 1/2 - Y, - Z
SYMM  - X, 1/2 + Y, 1/2 - Z
SFAC  CL   O    N    C    H
UNIT  4 4 8 16 12
MERG   2
OMIT    -3.00 180.00
EQIV $1 x+1/2, -y+3/2, -z+2
HTAB C1 O1_$1
EQIV $2 x-1, y-1, z
HTAB C3 Cl1_$2
EQIV $3 -x, y-1/2, -z+3/2
HTAB C3 N2_$3
EQIV $4 x-1/2, -y+1/2, -z+2
HTAB C4 O1_$4
FMAP   2
PLAN   25
ACTA    54.00
BOND   $H
CONF
L.S.  10
TEMP  -123.00
WGHT    0.034800    0.031100
FVAR      12.82832
CL1   1    0.443507    0.714278    0.819877    11.00000    0.02270    0.03000 =
         0.03006    0.00556    0.00120   -0.00900
O1    2   -0.226072    0.460800    1.004213    11.00000    0.02997    0.02721 =
         0.01720   -0.00400    0.00733    0.00115
N1    3   -0.116892    0.424541    0.943147    11.00000    0.01781    0.01839 =
         0.01475   -0.00149    0.00064    0.00349
N2    3    0.119859    0.346157    0.812033    11.00000    0.02264    0.02246 =
         0.01795   -0.00073    0.00119   -0.00023
C1    4    0.083743    0.571971    0.918293    11.00000    0.02047    0.01775 =
         0.01839   -0.00166   -0.00291    0.00043
C2    4    0.191607    0.525145    0.852830    11.00000    0.01396    0.01935 =
         0.01952    0.00299   -0.00133   -0.00095
C3    4   -0.076940    0.203169    0.839559    11.00000    0.02469    0.01904 =
         0.01802   -0.00278   -0.00121   -0.00366
C4    4   -0.198314    0.236781    0.903747    11.00000    0.01878    0.01834 =
         0.01896    0.00067   -0.00075   -0.00281
H1    5    0.140524    0.697537    0.945991    11.00000    0.02627
H3    5   -0.123710    0.073442    0.812229    11.00000    0.02576
H4    5   -0.327184    0.145164    0.921018    11.00000    0.02681
HKLF    4

REM  SIR92 run in space group P 21 21 21
REM R1 =  0.0294 for    1293 Fo > 4sig(Fo)  and  0.0321 for all    1372 data
REM     85 parameters refined using      0 restraints

END

WGHT      0.0347      0.0311

REM Highest difference peak  0.257,  deepest hole -0.215,  1-sigma level  0.052
Q1    1   0.6621  0.7152  0.8275  11.00000  0.05    0.26
Q2    1   0.0777  0.5571  0.8823  11.00000  0.05    0.23
Q3    1  -0.0967  0.2353  0.8743  11.00000  0.05    0.21
Q4    1   0.0769  0.2358  0.8395  11.00000  0.05    0.19
Q5    1   0.2034  0.7194  0.8256  11.00000  0.05    0.19
Q6    1  -0.0096  0.3034  0.8210  11.00000  0.05    0.18
Q7    1  -0.0032  0.5004  0.9303  11.00000  0.05    0.17
Q8    1   0.1580  0.4227  0.8389  11.00000  0.05    0.17
Q9    1  -0.0932  0.1567  1.0028  11.00000  0.05    0.17
Q10   1  -0.1250  0.2961  0.9226  11.00000  0.05    0.17
Q11   1   0.2624  0.3090  0.7780  11.00000  0.05    0.16
Q12   1  -0.1142  0.5542  0.9965  11.00000  0.05    0.16
Q13   1  -0.0353  0.7074  0.7858  11.00000  0.05    0.16
Q14   1   0.3096  0.6168  0.8274  11.00000  0.05    0.16
Q15   1   0.0605 -0.1614  0.8283  11.00000  0.05    0.16
Q16   1   0.1244  0.8072  0.7826  11.00000  0.05    0.15
Q17   1  -0.1142  0.5415  0.9138  11.00000  0.05    0.15
Q18   1  -0.0558  0.4785  1.0437  11.00000  0.05    0.15
Q19   1  -0.0643 -0.0525  0.8422  11.00000  0.05    0.15
Q20   1  -0.2160  0.4583  0.9745  11.00000  0.05    0.15
Q21   1  -0.1558  0.3167  0.7833  11.00000  0.05    0.15
Q22   1  -0.4362  0.2212  0.9017  11.00000  0.05    0.14
Q23   1   0.1900  0.5717  0.9966  11.00000  0.05    0.14
Q24   1  -0.2468  0.0563  1.0050  11.00000  0.05    0.14
Q25   1   0.5869  0.4562  0.7595  11.00000  0.05    0.14
;
_shelx_res_checksum              7630
_shelx_hkl_file
;
   0   0   4 162002. 2829.49   1
   0   0  -4 162514. 2812.03   1
   0   0  -5 105.084 110.056   1
   0   0   5 182.611 148.591   1
   0   0   6 770034. 10668.8   1
   0   0  -6 763670. 10574.6   1
   0   0   7 583.878 300.538   1
   0   0   8 584356. 8894.14   1
   0   0   9 529.370 155.562   4
   0   0   9 448.802 320.942   1
   0   0  10 71267.3 1670.47   4
   0   0  10 72941.8 2338.19   1
   0   0  11 491.342 402.462   1
   0   0  11 192.565 136.725   4
   0   0  12 349357. 6643.75   1
   0   0  12 357492. 5366.13   4
   0   0  13 1078.30 223.009   4
   0   0  13 1747.73 484.660   1
   0   0  14 19757.5 1344.30   1
   0   0  14 18872.0 831.566   4
   0   0  15 497.089 297.669   1
   0   0  15 332.961 145.061   4
   0   0  16 73246.7 2859.29   1
   0   0  16 73330.4 1810.77   4
   0   0  17 609.713 338.568   1
   0   0  18 5012.53 770.425   1
   0   0  19 59.9350 227.327   1
   0   0  20 1164.53 427.251   1
   0   0  21 803.346 487.712   1
   0   0  22 61195.5 3105.53   1
   0   0  23 770.459 488.722   1
   0   0  24 7142.64 1075.94   2
   0   0  24 5429.94 972.772   1
   0   0  25 311.909 258.282   1
   0   0  25 600.909 363.464   2
   0   0  26-235.277 280.132   2
   0  -1   0 127.795 62.6178   5
   0   1   0 23.4923 63.2709   5
   0  -1   0 172.562 44.9278   2
   0  -1  -1 51276.9 1144.94   4
   0   1   1 53249.9 1269.02   5
   0  -1  -1 54251.0 1303.38   5
   0  -1   1 47771.1 1239.02   5
   0   1   1 46082.2 1079.62   4
   0   1  -1 51753.9 1248.62   5
   0  -1   1 51161.2 918.258   1
   0  -1   2 522476. 7331.94   5
   0  -1   2 520423. 6958.32   1
   0   1   2 513539. 7008.14   4
   0  -1  -2 537905. 7017.99   4
   0   1  -2 530471. 6871.40   1
   0   1   2 524944. 6657.12   1
   0   1  -2 523787. 7316.86   5
   0  -1  -2 518597. 6714.14   1
   0   1  -3 106733. 1950.59   1
   0  -1  -3 103820. 1855.89   4
   0   1   3 107878. 1776.52   1
   0  -1   3 108656. 2231.31   5
   0   1  -3 105224. 2171.28   5
   0  -1  -3 102651. 1811.75   1
   0  -1   3 106336. 2011.52   1
   0   1   3 101397. 1826.85   4
   0  -1   4 292.967 142.843   5
   0  -1  -4 600.609 113.479   4
   0   1  -4 875.357 200.496   5
   0   1   4 438.878 111.089   1
   0   1   4 657.028 122.243   4
   0  -1   4 633.603 167.929   1
   0   1  -4 575.947 138.669   1
   0  -1  -4 717.424 141.913   1
   0   1   5 105194. 1892.37   4
   0  -1   5 106979. 2351.58   1
   0  -1  -5 102986. 2154.12   1
   0   1   5 101798. 2115.78   1
   0  -1  -5 112632. 1952.07   4
   0   1  -5 106770. 2284.12   1
   0   1   6 36319.3 952.990   4
   0   1   6 36605.8 1206.63   1
   0  -1   6 40325.3 1395.80   1
   0  -1  -6 38001.8 1245.06   1
   0  -1  -6 38375.4 1004.11   4
   0   1  -6 37740.5 1314.25   1
   0   1   7 326.329 131.903   1
   0   1   7 335.719 91.5504   4
   0  -1  -7 656.465 133.928   4
   0  -1  -8 1188.71 166.262   4
   0  -1   8 1441.55 325.712   1
   0   1   8 1001.28 232.830   1
   0   1   8 1006.03 156.052   4
   0  -1   9 61053.7 2076.21   1
   0  -1  -9 57500.6 1380.02   4
   0   1   9 61875.1 1922.20   1
   0   1   9 60916.4 1361.00   4
   0   1  10 91744.4 2552.65   1
   0  -1  10 94309.8 2747.25   1
   0   1  10 89514.3 1798.50   4
   0  -1  11 28565.0 1491.76   1
   0   1  11 27569.8 877.423   4
   0   1  11 26276.6 1344.65   1
   0   1  12 16519.8 671.634   4
   0  -1  12 16096.4 1157.60   1
   0   1  12 16379.8 1098.97   1
   0  -1  13 22764.6 1422.71   1
   0   1  13 22303.0 1343.62   1
   0   1  13 22587.0 806.436   4
   0   1  14 17077.1 700.395   4
   0   1  14 19764.7 1298.81   1
   0  -1  14 18523.4 1342.26   1
   0   1  15 921.119 165.046   4
   0   1  15 924.158 314.450   1
   0  -1  15 1559.10 426.580   1
   0  -1  16 48.7030 242.312   1
   0   1  16 125.661 203.061   1
   0  -1  17 26347.7 1741.68   1
   0   1  17 26477.6 1687.91   1
   0   1  18 1693.85 509.663   1
   0  -1  18 1134.07 442.257   1
   0  -1  19 74430.8 3199.34   1
   0   1  19 71658.7 3044.56   1
   0  -1  20 13617.2 1406.64   1
   0   1  20 14192.9 1359.44   1
   0  -1  21 3289.44 740.418   1
   0   1  21 2240.76 589.925   1
   0  -1  22 2919.24 650.474   1
   0   1  22 1686.16 483.460   1
   0   1  23 12775.1 1414.60   1
   0  -1  23 13660.2 1485.18   1
   0  -1  24 911.849 478.201   2
   0   1  24 286.963 285.056   2
   0   1  24 487.684 342.601   1
   0  -1  24 401.865 365.913   1
   0  -1  25 7738.25 1178.34   2
   0   1  25 8012.87 1105.15   2
   0   1  25 5801.57 1018.68   1
   0   1  26 6123.15 1006.76   2
   0   2   0 99108.8 2373.86   5
   0  -2   0 87655.1 1632.35   2
   0   2   1 55710.9 1743.54   5
   0   2  -1 55066.0 1717.49   5
   0  -2   1 54621.0 1245.75   2
   0  -2   1 56117.1 1048.94   1
   0  -2  -1 56543.3 1117.28   2
   0  -2  -2 585808. 8020.04   4
   0   2   2 580516. 8384.53   5
   0   2   2 552922. 6954.47   2
   0   2  -2 580691. 8361.42   5
   0  -2   2 542169. 7551.77   2
   0  -2   2 526472. 7292.81   1
   0  -2   3 12501.5 601.026   1
   0  -2  -3 10967.2 383.327   1
   0   2   3 12090.6 810.867   5
   0  -2  -3 11210.8 656.549   4
   0   2  -3 12312.8 801.477   5
   0   2   3 11499.5 383.848   1
   0   2  -3 13574.0 556.169   1
   0   2   3 11042.8 348.414   2
   0  -2  -4 134128. 2298.40   1
   0  -2   4 140972. 2761.28   1
   0   2  -4 139957. 3169.10   5
   0   2   4 146003. 3323.38   5
   0  -2  -4 145697. 2845.37   4
   0   2   4 146668. 2303.63   1
   0   2   4 141481. 2783.97   4
   0   2  -4 146302. 2614.64   1
   0  -2  -5 53562.3 1338.96   1
   0  -2   5 60078.5 1698.06   1
   0  -2  -5 54874.7 1565.80   4
   0   2   5 62494.2 2042.39   5
   0   2   5 59375.5 1362.85   1
   0   2  -5 57763.6 1928.62   5
   0   2   5 58550.4 1594.21   4
   0   2  -5 59920.1 1573.07   1
   0  -2   6 68616.2 1947.16   1
   0   2   6 67705.2 1620.83   1
   0   2   6 70600.8 1778.46   4
   0  -2  -6 68984.8 1784.06   4
   0   2  -6 73595.0 2294.71   5
   0  -2  -6 63498.5 1618.98   1
   0   2   6 68337.3 2329.82   5
   0   2   7 759.067 205.105   4
   0   2  -7 124.212 152.801   5
   0  -2  -7 58.6006 63.9935   4
   0  -2  -7 425.075 161.267   1
   0  -2   7 619.751 214.249   1
   0   2   7 382.543 165.502   1
   0   2  -8 286769. 5720.00   5
   0  -2   8 272336. 5168.79   1
   0   2   8 272620. 4697.66   1
   0  -2  -8 273460. 4548.42   4
   0   2   8 278691. 4553.74   4
   0   2   9 2159.95 368.885   1
   0   2   9 1574.24 256.249   4
   0  -2  -9 2238.41 308.415   4
   0  -2   9 2447.56 433.148   1
   0   2  10 23344.4 1169.40   1
   0  -2  10 21698.7 1274.23   1
   0   2  10 23012.7 955.592   4
   0  -2 -10 22400.9 974.683   4
   0   2  11 4515.08 415.254   4
   0  -2 -11 5249.86 459.559   4
   0  -2  11 4908.14 629.402   1
   0   2  11 5357.20 593.818   1
   0  -2  12 13256.6 1058.70   1
   0   2  12 13123.0 714.091   4
   0  -2 -12 13069.0 724.371   4
   0   2  12 14755.0 1012.33   1
   0  -2  13 49815.5 2198.84   1
   0   2  13 52118.4 1500.14   4
   0   2  13 50906.8 2069.27   1
   0  -2  14 278074. 6136.51   1
   0   2  14 279152. 5801.59   1
   0   2  14 282404. 4582.20   4
   0  -2  15 20509.0 1485.76   1
   0   2  15 19932.9 1360.07   1
   0   2  15 20714.0 880.691   4
   0   2  16 54.5185 175.980   1
   0  -2  16 55.7358 188.873   1
   0  -2  17-206.059 266.429   1
   0   2  17 294.641 222.213   1
   0   2  18-62.4854 162.671   1
   0  -2  18 263.417 185.759   1
   0   2  19 332.091 308.829   1
   0  -2  19 409.049 305.120   1
   0   2  20 34144.0 2115.51   1
   0  -2  20 31357.0 2133.76   1
   0   2  21 7614.69 1029.28   1
   0  -2  21 7992.11 1172.78   2
   0  -2  21 6852.18 1035.58   1
   0  -2  22 7099.72 1106.73   2
   0  -2  22 7787.39 1129.23   1
   0   2  22 7298.46 1014.70   1
   0   2  23 2237.29 595.379   1
   0  -2  23 1730.97 574.508   1
   0  -2  23 1811.18 582.423   2
   0  -2  24 3134.79 748.948   1
   0  -2  24 3467.52 827.436   2
   0   2  24 3103.40 730.772   1
   0   2  25 958.940 427.869   1
   0   3   0-19.1531 171.142   5
   0  -3   0 20.2870 46.8088   2
   0  -3  -1 35764.5 997.010   2
   0   3  -1 29639.0 1488.56   5
   0  -3   1 30044.2 672.835   1
   0  -3   1 32061.9 1055.92   2
   0   3   1 34397.8 1613.81   5
   0   3   2 2712.92 460.185   5
   0  -3   2 3146.73 239.509   1
   0   3  -2 2163.83 404.794   5
   0  -3   2 2823.26 318.456   2
   0   3  -3-36.3346 175.630   5
   0   3   3 18.6374 157.473   5
   0  -3   3 31.4011 58.0002   1
   0  -3   3 158.087 94.0178   2
   0   3   4 119172. 1806.76   2
   0  -3   4 118014. 2412.61   1
   0   3  -4 123644. 3348.99   5
   0  -3   4 119730. 2704.39   2
   0  -3  -5 324791. 4332.30   1
   0   3   5 317435. 4450.41   1
   0   3  -5 327308. 6167.21   5
   0  -3   5 321074. 5074.98   1
   0  -3   5 327849. 5466.36   2
   0  -3   6 105171. 2571.73   1
   0   3   6 106692. 1753.54   2
   0  -3  -6 113132. 2071.73   1
   0   3  -6 104954. 3139.36   5
   0   3   6 115888. 2136.91   1
   0   3   6 121382. 3490.00   5
   0  -3   6 110262. 2838.45   2
   0   3  -7 55.3224 164.316   5
   0   3   7 76.5486 87.8304   1
   0  -3   7 139.264 133.602   1
   0   3   7 255.018 175.623   5
   0  -3  -7 97.0443 59.1102   1
   0  -3   7 0.00000 90.4635   2
   0   3  -8 644.122 292.215   5
   0  -3   8 680.946 255.342   2
   0  -3   8 403.905 172.857   1
   0   3   8 453.063 135.714   1
   0   3   8 484.179 228.554   5
   0  -3   9 52890.0 1981.12   1
   0   3   9 54578.2 2453.17   5
   0   3   9 54960.4 1685.68   1
   0   3  -9 55131.6 2418.49   5
   0   3  10 31735.5 1933.87   5
   0   3  10 31490.7 1328.01   1
   0   3 -10 31440.3 1861.77   5
   0  -3  10 29561.0 1509.95   1
   0   3  11 21781.0 1165.44   1
   0   3  11 23388.7 1737.99   5
   0  -3  11 21803.8 1353.42   1
   0  -3  12 127880. 3686.00   1
   0   3  12 134426. 3355.32   1
   0  -3  13 40940.2 2011.28   1
   0   3  13 40438.0 1784.64   1
   0   3  13 40921.9 2487.47   5
   0   3  14 27477.6 1522.92   1
   0  -3  14 26193.8 1649.93   1
   0  -3  15 13699.1 1232.16   1
   0   3  15 15295.1 1162.98   1
   0  -3  16 7298.92 1006.97   2
   0   3  16 7605.61 870.038   1
   0  -3  16 8757.73 1049.38   1
   0   3  17 139290. 4187.45   1
   0  -3  17 138934. 4444.40   1
   0  -3  17 145290. 4691.02   2
   0  -3  18 64008.8 3126.34   2
   0   3  18 67007.7 2831.99   1
   0  -3  18 63988.0 2986.63   1
   0  -3  19 1758.66 576.142   2
   0  -3  19 2295.50 602.003   1
   0   3  19 2492.09 561.320   1
   0  -3  20 15792.2 1530.33   1
   0  -3  20 16776.4 1645.70   2
   0   3  20 15142.9 1428.22   1
   0  -3  21 2516.64 614.745   1
   0  -3  21 1827.10 598.879   2
   0   3  21 2126.34 576.840   1
   0   3  22 105.121 204.869   1
   0  -3  22 171.378 184.599   2
   0  -3  22 329.732 334.656   1
   0  -3  23 2821.54 716.714   1
   0   3  23 2134.93 586.549   1
   0   3  24 11089.4 1371.73   1
   0   4   0 112773. 3560.03   5
   0  -4   0 113369. 2449.05   2
   0   4   1 40223.7 2022.22   5
   0  -4  -1 42635.7 1270.61   2
   0  -4   1 37605.3 1313.40   2
   0   4  -1 38853.6 1979.04   5
   0  -4   2 1401.00 143.536   1
   0  -4   2 2053.10 309.349   2
   0   4   2 1785.51 434.040   5
   0   4  -2 1627.10 403.517   5
   0   4  -3 41.1508 218.168   5
   0  -4   3 206.814 69.4571   1
   0   4   3-183.975 207.209   5
   0  -4   3 190.293 112.113   2
   0  -4   4 13351.7 876.037   2
   0   4   4 13534.0 1196.05   5
   0  -4   4 13405.2 646.922   1
   0   4  -4 13715.1 1190.36   5
   0  -4   5 6672.30 626.612   2
   0   4   5 5906.73 802.230   5
   0  -4   5 6086.68 480.906   1
   0   4  -5 6657.51 830.956   5
   0   4   6 61780.9 2653.24   5
   0  -4   6 55197.6 1992.87   2
   0  -4   6 54239.0 1705.03   1
   0   4  -6 55306.0 2453.42   5
   0  -4   7 65976.6 2026.54   1
   0   4   7 75891.3 3027.09   5
   0   4  -7 73933.6 2871.25   5
   0  -4   7 66257.2 2302.37   2
   0   4   8 1373.67 402.606   5
   0   4  -8 1560.98 430.256   5
   0  -4   8 1555.34 351.927   2
   0   4   8 1260.42 216.167   1
   0  -4   8 1162.11 255.995   1
   0   4   9 6479.38 536.878   1
   0  -4   9 7064.54 767.480   2
   0   4  -9 7032.99 911.698   5
   0  -4   9 6771.00 674.468   1
   0   4   9 7117.76 972.455   5
   0   4  10 2745.42 629.510   5
   0  -4  10 2189.40 401.088   1
   0   4 -10 3145.61 635.090   5
   0   4  10 2707.56 369.428   1
   0  -4  10 2943.27 515.131   2
   0   4  11 10279.2 1232.76   5
   0   4 -11 12422.6 1303.96   5
   0  -4  11 9794.62 997.437   2
   0  -4  11 9903.89 897.457   1
   0   4  11 10515.7 769.041   1
   0  -4  12 38645.0 1909.04   1
   0  -4  12 37447.4 2042.28   2
   0   4 -12 45721.3 2559.19   5
   0   4  12 39197.0 2479.74   5
   0   4  12 41517.1 1662.85   1
   0  -4  13 4633.69 654.530   1
   0  -4  13 5014.34 770.601   2
   0   4  13 4607.21 582.147   1
   0   4  13 5086.26 904.011   5
   0   4  14 3387.99 766.636   5
   0  -4  14 3843.07 704.618   2
   0  -4  14 3784.24 636.048   1
   0  -4  15 54524.6 2534.52   1
   0   4  15 53812.7 3155.25   5
   0  -4  15 54464.3 2722.29   2
   0  -4  16 1963.51 547.753   2
   0  -4  16 1721.06 463.718   1
   0   4  16 1016.72 417.654   5
   0  -4  17 10278.1 1150.81   1
   0  -4  17 11135.7 1274.29   2
   0   4  17 12927.7 1622.95   5
   0  -4  18 4317.31 754.059   1
   0  -4  18 4600.23 851.819   2
   0   4  18 5125.66 1093.19   5
   0  -4  19 7360.04 1119.56   2
   0   4  19 8231.02 1404.61   5
   0  -4  19 8108.51 1081.94   1
   0   4  20-205.721 503.853   5
   0  -4  20 269.497 190.385   1
   0  -4  20 424.866 365.569   2
   0   4  21-329.214 501.884   5
   0  -4  21 145.211 255.641   2
   0  -4  21 41.0450 229.158   1
   0  -4  22 5466.78 994.575   1
   0  -5   0 11.9485 70.1520   2
   0   5   0-402.219 429.684   5
   0  -5   1 1386.63 285.298   2
   0   5   1 1056.63 379.000   5
   0   5  -1 443.130 196.207   5
   0  -5   2 4926.98 523.527   2
   0   5  -2 5054.81 803.679   5
   0   5   2 4576.16 770.564   5
   0   5   3 94417.2 3647.95   5
   0   5  -3 97208.9 3648.15   5
   0  -5   3 89793.2 2547.85   2
   0   5   4 100958. 3838.37   5
   0   5  -4 101004. 3751.33   5
   0  -5   4 99504.6 2781.99   2
   0   5  -5 5984.03 897.058   5
   0   5   5 5975.19 897.730   5
   0  -5   5 7029.09 712.990   2
   0   5  -6 5043.47 817.975   5
   0   5   6 4140.89 791.290   5
   0  -5   6 5465.96 669.446   2
   0   5   7 939.456 410.179   5
   0   5  -7 1400.28 417.383   5
   0  -5   7 1201.69 330.693   2
   0  -5   8 7420.19 826.535   2
   0   5   8 6535.53 1002.07   5
   0   5  -8 7369.09 1023.25   5
   0   5   9 26605.4 2068.47   5
   0  -5   9 28419.1 1672.56   2
   0   5  -9 27456.7 2020.94   5
   0  -5  10 8002.36 771.722   1
   0   5  10 6563.27 1052.54   5
   0  -5  10 6219.13 802.697   2
   0   5 -10 8462.36 1145.27   5
   0  -5  11 3503.17 547.164   1
   0  -5  11 3653.64 641.293   2
   0   5 -11 2464.97 578.597   5
   0   5  11 3922.32 847.111   5
   0  -5  12 24292.8 1698.05   2
   0  -5  12 26018.0 1553.91   1
   0   5 -12 27054.1 2125.56   5
   0   5  12 27921.2 2215.33   5
   0   5 -13 3533.71 800.475   5
   0  -5  13 3944.00 706.062   2
   0  -5  13 3438.33 588.565   1
   0   5  13 3403.82 829.837   5
   0  -5  14 6517.80 938.557   2
   0   5  14 5272.11 1030.92   5
   0  -5  14 5795.16 793.948   1
   0   5  15 265.797 345.907   5
   0  -5  15 310.488 222.110   2
   0  -5  15 396.105 292.839   1
   0  -5  16 2622.17 578.388   1
   0  -5  16 1642.07 529.162   2
   0   5  16 1054.26 442.660   5
   0  -5  17 742.307 368.699   1
   0  -5  17 725.369 349.131   2
   0   5  17 1249.71 598.866   5
   0   5  18 21555.3 2278.73   5
   0  -5  18 17259.6 1691.90   2
   0  -5  18 18568.5 1621.57   1
   0  -5  19 31986.9 2219.75   1
   0  -5  19 30705.8 2322.46   2
   0   6   0 10784.4 1294.41   5
   0   6   1 92705.4 3920.01   5
   0   6  -1 86799.0 3808.78   5
   0   6   2 9812.70 1260.15   5
   0   6  -2 10400.9 1275.20   5
   0   6   3-874.223 589.435   5
   0   6  -3-379.577 462.349   5
   0   6  -4 1830.10 582.450   5
   0   6   4 1489.89 558.763   5
   0   6  -5 34532.8 2380.54   5
   0   6   5 41333.2 2646.00   5
   0   6  -6 20785.7 1841.78   5
   0   6   6 23468.3 2010.03   5
   0   6  -7 39043.6 2549.58   5
   0   6   7 44140.5 2820.10   5
   0  -6   8 5311.00 728.473   2
   0   6  -8 4063.88 814.831   5
   0   6   8 4250.58 871.262   5
   0   6   9 12411.4 1550.23   5
   0  -6   9 10287.0 1072.45   2
   0   6  -9 11122.0 1411.91   5
   0   6 -10-271.010 328.949   5
   0   6  10 384.446 300.670   5
   0  -6  10 429.412 260.999   2
   0   6  11 1978.50 659.393   5
   0  -6  11 1229.31 424.812   2
   0   6 -12 3714.73 856.877   5
   0  -6  12 3727.04 749.426   2
   0   6  12 2574.32 697.878   5
   0  -6  13 33675.4 2310.55   2
   0   6 -13 30956.2 2501.90   5
   0   6  13 32588.2 2692.38   5
   0  -6  14 489.346 238.850   2
   0   6  14 391.064 400.517   5
   0  -6  15 1180.82 467.085   2
   0  -6  16 599.331 347.791   2
   0   7   0-593.913 509.663   5
   0   7   1-1120.01 501.675   5
   0   7  -1 2592.88 860.038   5
   0   7  -2 6474.66 1126.87   5
   0   7   2 6852.97 1137.05   5
   0   7   3 2514.48 769.082   5
   0   7  -3 1920.70 687.073   5
   0   7   4 23.5607 280.209   5
   0   7  -4 680.480 408.334   5
   0   7  -5 9465.39 1372.18   5
   0   7   5 9046.94 1339.63   5
   0   7  -6 9221.40 1331.31   5
   0   7   6 11301.3 1523.87   5
   0   7   7 4478.22 976.209   5
   0   7  -7 1320.01 468.808   5
   0   7  -8-85.2888 285.311   5
   0   7   8 287.789 275.001   5
  -1   0   0 17.2124 80.5954   3
   1   0   0 223.358 149.343   3
   1   0   0 143.569 90.2957   4
  -1   0  -1 8305.29 573.365   3
   1   0  -1 6156.24 379.334   4
   1   0  -1 6750.34 487.932   3
   1   0   1 6268.24 439.509   4
  -1   0  -1 5854.33 395.787   2
  -1   0   1 7909.22 529.404   3
  -1   0   1 6367.55 402.807   4
   1   0   1 6646.67 514.945   3
  -1   0  -2 42839.2 1175.83   2
  -1   0   2 42792.0 1097.37   4
  -1   0  -2 56909.9 1561.16   3
   1   0  -2 53281.6 1407.08   3
  -1   0   2 52791.3 1451.23   3
  -1   0  -2 42479.6 1252.59   1
   1   0   2 44197.1 1220.32   2
   1   0  -2 44284.6 1086.33   4
   1   0   2 53446.9 1516.94   3
   1   0   2 44948.8 1352.85   4
   1   0   3 323349. 4755.58   2
  -1   0  -3 317458. 4645.02   2
   1   0  -3 345535. 4960.97   3
   1   0   3 322496. 4911.28   1
  -1   0   3 314437. 4421.74   4
  -1   0  -3 319185. 4809.00   1
   1   0  -3 319492. 4334.81   4
   1   0   3 320419. 5047.17   4
  -1   0   3 386746. 5097.40   3
  -1   0  -3 247514. 4873.30   3
   1   0  -4 399511. 5197.42   4
  -1   0   4 367606. 5225.12   4
  -1   0  -4 372291. 5580.99   2
  -1   0   4 427482. 5913.03   3
   1   0   4 366276. 5977.68   4
   1   0  -4 400788. 5813.37   3
   1   0   4 410573. 6158.46   3
  -1   0  -4 423041. 5991.73   3
  -1   0  -4 377585. 5772.98   1
   1   0   4 363433. 5658.73   2
   1   0   4 383449. 5873.43   1
   1   0  -5 112153. 2155.06   3
  -1   0   5 114545. 2255.52   3
  -1   0  -5 99307.8 2169.72   1
  -1   0  -5 76794.2 1956.26   3
   1   0  -5 97909.8 1484.63   4
  -1   0   5 95668.4 1573.30   4
   1   0   5 97404.6 2320.16   4
   1   0   5 95590.2 2208.84   1
  -1   0  -5 84903.3 1918.97   2
   1   0   5 100023. 2107.46   2
   1   0  -6 13859.3 405.319   4
   1   0   6 17559.1 927.163   4
  -1   0   6 13940.3 449.488   4
   1   0   6 14151.7 773.444   3
  -1   0   6 13726.7 745.187   1
   1   0  -6 18416.2 816.932   3
  -1   0   6 18386.8 806.069   3
   1   0   6 15540.8 807.811   2
  -1   0  -6 15501.3 738.629   3
   1   0   6 14553.4 833.059   1
   1   0   7 63666.4 1970.34   1
   1   0   7 66628.6 1844.56   2
  -1   0   7 62322.0 1876.55   1
   1   0   7 76131.3 2117.49   4
  -1   0   7 75766.8 1783.15   3
   1   0  -7 91293.2 1990.54   3
  -1   0  -7 54467.5 1560.60   3
   1   0   8 51747.3 1672.64   2
   1   0   8 55198.7 1854.80   4
  -1   0   8 52796.9 1729.98   1
   1   0   8 53770.1 1848.82   1
   1   0  -8 55818.8 1486.74   3
  -1   0  -8 51830.0 1434.10   3
   1   0   9 6624.80 597.084   2
   1   0   9 8022.99 685.300   4
  -1   0   9 6219.81 621.027   1
   1   0   9 7391.45 681.700   1
   1   0  -9 7921.07 515.109   3
   1   0  10 6127.83 591.374   2
  -1   0 -10 3933.53 356.254   3
   1   0  10 5768.92 652.157   1
  -1   0  10 5003.03 594.967   1
   1   0  10 5737.19 612.637   4
   1   0  11 30458.0 1429.22   4
  -1   0  11 27131.6 1472.74   1
   1   0  11 28423.0 1484.74   1
  -1   0 -11 25491.6 920.336   3
   1   0  11 27332.2 1352.50   2
   1   0  12 22910.0 1283.95   2
  -1   0  12 23327.4 1445.05   1
   1   0  12 24410.7 1293.12   4
   1   0  12 24025.2 1420.55   1
   1   0  13 69428.0 2282.04   4
   1   0  13 64664.4 2480.35   1
  -1   0  13 67514.7 2604.58   1
   1   0  14 89.3432 196.162   2
  -1   0  14 396.304 274.756   1
   1   0  14 444.680 345.673   1
   1   0  14 405.690 259.378   4
   1   0  15 63116.7 2212.56   4
   1   0  15 54051.7 2284.01   2
  -1   0  15 62404.3 2688.62   1
   1   0  15 56273.3 2463.60   1
   1   0  16 10923.4 1055.94   2
  -1   0  16 14185.4 1303.94   1
   1   0  16 15234.3 1079.20   4
   1   0  16 12890.4 1203.41   1
   1   0  17 7896.10 996.276   1
   1   0  17 8511.86 810.664   4
  -1   0  17 9194.87 1069.95   1
   1   0  17 7015.22 845.818   2
   1   0  18 26628.5 1728.82   2
  -1   0  18 29717.8 1982.34   1
   1   0  18 29620.0 1920.94   1
   1   0  18 32563.6 1607.47   4
  -1   0  19 14178.0 1390.60   1
   1   0  19 16600.1 1372.68   2
   1   0  19 16912.1 1533.91   1
   1   0  20 12170.6 1316.83   1
  -1   0  20 14422.9 1436.88   1
   1   0  20 11162.0 1181.74   2
   1   0  21 31635.5 2054.04   2
  -1   0  21 32264.8 2205.37   1
   1   0  21 31111.2 2194.89   1
   1   0  22 757.893 427.594   1
  -1   0  22 171.983 356.051   1
   1   0  22 499.550 279.108   2
   1   0  23 7160.23 1014.38   2
   1   0  23 5842.75 992.636   1
  -1   0  23 6820.14 1059.49   1
   1   0  24 442.027 388.909   1
   1   0  24-54.8080 246.423   2
  -1   0  24 31.0628 255.405   1
   1   0  25 379.501 306.499   2
   1   0  26 2648.73 711.978   2
  -1   1  25 1986.74 616.776   1
   1  -1  25 1940.01 610.342   2
  -1   1  24 13245.2 1512.70   1
   1  -1  24 13935.5 1579.73   1
   1  -1  24 13652.6 1504.73   2
   1  -1  23 1555.74 478.223   2
   1  -1  23 1938.80 605.518   1
  -1   1  23 1738.51 513.641   1
   1  -1  22 935.129 436.491   1
   1  -1  22 1001.83 421.555   2
  -1   1  22 1111.63 459.650   1
   1  -1  21 1891.07 550.623   2
  -1   1  21 1763.90 511.571   1
   1  -1  21 1753.92 589.657   1
   1  -1  20 8519.62 1053.47   2
   1  -1  20 6924.30 1002.33   1
  -1   1  20 6981.55 980.422   1
   1  -1  19 369.593 370.908   2
   1  -1  19 1283.50 516.735   1
  -1   1  19 271.238 329.211   1
   1  -1  18 75753.2 2851.38   4
  -1   1  18 68810.9 3004.44   1
   1  -1  18 69793.0 3072.92   1
   1  -1  18 70159.4 2966.50   2
   1  -1  17 7361.40 879.449   4
   1  -1  17 7839.09 1023.56   1
  -1   1  17 9301.39 1079.46   1
   1  -1  17 8411.34 1010.25   2
   1  -1  16 77790.2 3067.87   1
   1  -1  16 75501.1 2970.06   2
  -1  -1 -15 11265.0 688.955   3
   1  -1  15 12303.4 1114.28   2
  -1   1  15 13567.4 1219.65   1
   1  -1  15 11896.0 1121.76   1
  -1   1  14 12080.7 1095.02   1
  -1  -1 -14 10025.0 622.956   3
   1  -1  14 9574.36 939.221   2
   1  -1  14 10463.7 1023.98   1
   1  -1  13 20642.9 1366.87   1
   1  -1  13 22012.6 1380.58   2
  -1   1  13 21710.0 1420.41   1
  -1  -1 -12 92644.4 2282.82   3
  -1   1  12 97582.2 2941.76   1
   1  -1  12 91237.5 2865.26   1
   1  -1  12 91522.5 2828.37   2
   1  -1  11 19015.3 1234.09   1
  -1   1  11 20110.3 1199.30   1
   1  -1  11 17226.9 1129.70   2
   1  -1  10 233012. 3993.34   1
  -1   1  10 233640. 3816.46   1
   1  -1  10 228400. 3855.56   2
   1  -1   9 21393.3 1157.58   1
  -1   1   9 20824.9 1077.33   1
   1  -1   9 19932.6 1121.93   2
   1  -1   8 128117. 2790.12   2
  -1   1   8 125718. 2580.88   1
   1  -1   8 124849. 2795.81   1
   1  -1   7 32120.1 1306.29   1
  -1   1   7 29486.3 1171.50   1
   1  -1   7 33672.3 1338.56   2
  -1   1   6 107517. 2325.96   1
   1   1  -6 106814. 2036.25   4
   1  -1   6 108701. 2508.13   1
   1  -1   6 113061. 2611.52   2
  -1  -1  -5 31619.7 1103.57   1
   1  -1   5 31649.7 1167.83   1
  -1  -1  -5 33620.6 1229.69   4
   1  -1   5 32253.6 1243.39   2
  -1  -1  -5 30705.6 888.792   2
   1   1  -5 31586.4 976.549   4
   1  -1   5 31335.2 1134.03   5
   1  -1   4 943042. 12457.4   1
  -1  -1  -4 934242. 12337.3   1
  -1  -1  -4 947975. 11828.8   2
  -1  -1  -4 925132. 12629.3   4
   1  -1   4 930938. 12554.6   2
   1  -1   4 929584. 12366.9   5
   1   1  -4 921830. 12577.4   5
   1  -1   4 919115. 12623.6   3
   1   1  -4 937125. 12149.7   4
   1  -1   3 166703. 2278.12   5
  -1  -1  -3 158515. 2320.72   1
   1  -1   3 153078. 2335.29   1
   1  -1   3 152265. 2381.00   2
  -1  -1  -3 173215. 2568.97   4
   1   1  -3 159726. 2207.60   4
   1   1  -3 161725. 2356.74   5
  -1  -1  -3 152418. 1744.30   2
   1   1  -2 853123. 11166.6   4
  -1  -1  -2 861647. 10798.2   2
  -1   1   2 840484. 11141.6   5
   1  -1   2 857834. 11026.6   5
   1   1  -2 834379. 11026.1   5
   1  -1   2 855438. 11364.8   2
  -1  -1  -1 300215. 4361.40   5
   1  -1   1 292080. 4345.64   5
   1  -1   1 282914. 4617.52   2
   1   1  -1 281558. 4500.46   4
  -1  -1  -1 295885. 4683.42   4
   1   1  -1 293854. 4336.11   5
  -1   1   1 290752. 4362.29   5
   1  -1   0 6437.73 401.738   5
  -1  -1   0 7338.58 505.971   4
   1   1   0 6338.88 445.854   4
   1   1   0 5884.44 367.248   5
  -1   1   0 6004.25 385.352   5
  -1  -1   0 6478.83 401.489   5
  -1   1   0 6347.48 458.697   2
  -1  -1   1 306440. 4629.01   4
   1   1   1 307067. 4695.11   4
  -1   1  -1 284796. 4310.75   5
  -1   1  -1 287749. 4412.85   1
   1   1   1 292018. 4330.53   5
   1  -1  -1 301295. 4474.28   5
  -1  -1   1 294329. 4414.57   5
  -1   1  -1 279899. 4555.18   2
   1   1   2 930629. 12130.1   4
  -1   1  -2 915513. 11840.3   5
   1   1   2 924194. 11857.3   5
  -1   1  -2 922777. 12035.2   2
  -1  -1   2 919637. 11991.1   5
  -1  -1   2 879119. 11990.3   4
  -1   1  -2 893824. 11890.5   1
  -1   1  -3 172612. 3028.06   5
  -1  -1   3 186363. 3219.72   5
  -1   1  -3 179402. 3216.20   2
  -1  -1   3 169337. 2986.58   4
   1   1   3 165823. 3208.21   4
   1   1   3 165430. 3032.74   5
  -1   1  -3 159887. 2968.42   1
   1   1   4 965374. 12788.2   1
   1   1   4 958330. 12302.8   2
  -1   1  -4 980795. 12724.9   1
  -1   1  -4 971427. 12818.6   5
  -1  -1   4 948825. 12531.4   4
  -1  -1   5 33870.9 1310.38   5
   1   1   5 30580.3 1197.29   4
   1   1   5 29248.7 916.971   2
  -1  -1   5 30608.1 1017.04   4
   1   1   5 27849.2 1170.45   1
  -1  -1   6 110289. 2495.35   1
   1   1   6 116540. 2594.46   4
   1   1   6 108431. 2189.21   2
  -1  -1   6 112010. 2239.24   4
   1   1   6 109256. 2568.11   1
   1   1   7 35439.1 1335.20   4
   1   1   7 35240.2 1351.37   1
   1   1   7 39001.7 1256.15   2
   1  -1  -7 28998.2 667.537   4
  -1  -1   7 32585.4 1299.13   1
  -1  -1   7 34170.4 1073.02   4
   1  -1  -7 35445.3 1271.13   3
  -1  -1   7 41759.1 1385.73   3
  -1  -1   8 130133. 2551.16   4
  -1  -1   8 122439. 3045.80   1
   1   1   8 130336. 3009.96   4
   1   1   8 132364. 3128.43   1
   1   1   8 131695. 2728.34   2
   1  -1  -8 136698. 2874.16   3
  -1  -1   9 18935.5 1090.48   1
  -1  -1   9 19971.7 810.754   4
   1  -1  -9 19667.8 970.436   3
   1   1   9 18930.1 916.231   2
   1   1   9 19714.8 1041.12   4
   1   1   9 18001.9 1067.20   1
   1   1  10 225999. 4711.46   1
   1   1  10 227208. 4203.94   2
  -1  -1  10 224068. 3724.87   4
  -1  -1  10 230365. 4785.62   1
  -1  -1  10 225668. 3799.02   3
   1   1  10 235851. 4481.63   4
   1  -1 -10 214278. 4120.20   3
   1   1  11 21787.9 1113.78   4
  -1  -1  11 20130.7 1275.71   1
  -1  -1  11 19772.7 809.504   4
   1   1  11 18480.3 1196.67   1
   1   1  11 20907.1 1064.67   2
   1  -1 -11 19359.4 934.475   3
   1   1  12 94503.5 2731.47   1
  -1  -1  12 99505.7 2926.67   1
   1   1  12 96070.7 2371.03   4
  -1  -1  12 91925.2 1710.19   4
   1   1  12 89160.5 2290.81   2
   1  -1 -12 88225.4 1920.25   3
   1   1  13 22659.2 1207.67   2
  -1  -1  13 22547.8 842.163   4
   1   1  13 25277.9 1233.07   4
   1   1  13 22728.2 1385.13   1
  -1  -1  13 22693.7 1468.29   1
   1   1  14 10592.3 987.399   1
   1   1  14 11502.6 918.907   2
  -1  -1  14 10579.6 581.335   4
  -1  -1  14 11603.1 1127.02   1
   1   1  14 11553.1 864.512   4
   1   1  15 13780.3 1181.36   1
   1   1  15 16617.2 1078.99   4
   1   1  15 13823.2 1051.89   2
  -1  -1  15 13887.5 1267.43   1
   1   1  16 77085.1 2982.79   1
   1   1  16 82454.1 2535.67   4
   1   1  16 77755.5 2700.29   2
  -1  -1  16 83451.9 3315.41   1
   1   1  17 7998.03 855.055   2
   1   1  17 8582.24 752.310   4
   1   1  17 9179.48 1050.57   1
  -1  -1  17 10406.3 1195.95   1
   1   1  18 68689.2 3002.34   1
   1   1  18 68798.1 2685.78   2
  -1  -1  18 76793.3 3350.29   1
  -1  -1  19 493.238 393.280   1
   1   1  19 339.332 204.796   2
   1   1  19 285.501 401.116   1
   1   1  20 8281.67 1065.55   1
  -1  -1  20 6448.43 969.247   1
   1   1  20 6470.46 852.039   2
   1   1  21 2971.73 756.363   1
  -1  -1  21 1609.73 505.660   1
   1   1  21 2410.72 553.582   2
  -1  -1  22 1167.34 411.095   1
   1   1  22 750.642 343.174   2
   1   1  22 1078.58 461.270   1
   1   1  23 2195.52 653.383   1
  -1  -1  23 2004.28 597.845   1
   1   1  23 1558.02 450.601   2
   1   1  24 15078.6 1632.94   1
   1   1  24 15013.5 1444.35   2
  -1  -1  24 15509.3 1662.37   1
  -1   2  25 81.6141 232.596   1
   1  -2  24 12727.0 1514.17   2
  -1   2  24 11902.8 1407.74   1
  -1   2  23 11227.9 1333.11   1
   1  -2  23 10309.8 1344.39   2
   1  -2  23 10686.2 1413.82   1
   1  -2  22 12255.4 1436.15   1
  -1   2  22 12612.3 1377.21   1
   1  -2  22 13612.1 1486.27   2
   1  -2  21 23307.7 1916.95   2
  -1   2  21 22433.9 1781.18   1
   1  -2  21 22971.2 1904.78   1
   1  -2  20 1393.91 494.337   2
  -1   2  20 1488.66 439.188   1
   1  -2  20 505.511 349.303   1
   1  -2  19 6492.08 951.561   1
  -1   2  19 5581.47 852.282   1
   1  -2  19 7555.21 1023.64   2
   1  -2  18 23449.2 1780.53   1
  -1   2  18 26546.1 1769.78   1
   1  -2  18 23634.6 1779.84   2
   1  -2  17 17873.8 1490.70   1
  -1   2  17 17098.9 1387.38   1
   1  -2  17 17543.6 1501.86   2
   1  -2  16 64369.1 2849.91   2
   1  -2  16 68924.8 2936.55   1
   1  -2  15 41109.0 2167.11   2
   1  -2  15 40127.2 2143.32   1
  -1   2  15 46266.5 2224.17   1
   1  -2  14 73777.9 2856.80   1
   1  -2  14 72357.3 2865.49   2
   1  -2  13 21968.1 1454.88   1
   1  -2  13 21212.5 1446.65   2
  -1   2  13 24268.6 1478.02   1
   1  -2  12 7831.74 846.662   2
  -1   2  12 7546.80 792.121   1
   1  -2  12 8342.35 851.321   1
   1  -2  11 9484.26 890.494   2
   1  -2  11 9558.71 860.914   1
  -1   2  11 9832.60 857.184   1
  -1   2  10 23890.0 1263.25   1
   1  -2  10 22244.6 1281.86   1
   1  -2  10 22298.7 1327.84   2
  -1   2   9 57083.3 1908.16   1
   1  -2   9 54267.0 1980.37   1
   1  -2   9 56783.5 2108.27   2
   1  -2   8 85643.8 2458.34   1
   1  -2   8 89270.2 2640.19   2
  -1   2   8 92014.2 2340.17   1
   1   2  -7 100278. 2893.31   5
   1  -2   7 102891. 2795.07   2
   1  -2   7 98741.3 2549.92   1
  -1   2   7 97667.6 2308.07   1
   1  -2   6 146294. 3113.38   1
  -1   2   6 139374. 2805.60   1
   1   2  -6 147201. 3508.70   5
  -1   2   6 144061. 3656.25   5
  -1  -2  -5 7039.58 490.653   1
  -1   2   5 7018.47 453.818   1
   1  -2   5 7306.39 627.737   2
   1   2  -5 7330.39 652.153   5
  -1   2   5 6938.39 660.802   5
   1  -2   5 6991.15 542.502   1
   1   2  -4 46084.9 1527.71   4
   1   2  -4 47486.1 1644.49   5
  -1  -2  -4 46796.8 1316.35   1
  -1   2   4 49028.9 1742.03   5
   1  -2   4 45384.9 1402.47   1
   1  -2   4 43972.0 1539.35   2
   1   2  -3 57034.5 1819.87   5
  -1   2   3 65396.6 1982.87   5
  -1  -2  -3 55641.7 1000.12   2
   1  -2   3 57599.2 1736.47   2
   1  -2   3 59828.4 1562.51   1
  -1  -2  -3 59249.4 1511.14   1
   1   2  -3 67730.0 1874.08   4
   1   2  -2 47402.6 1609.18   5
  -1   2   2 54970.5 1563.67   2
   1   2  -2 50859.7 1631.05   4
  -1   2   2 52150.0 1695.42   5
  -1  -2  -2 51164.7 1391.64   1
   1  -2   2 48017.9 1546.14   2
   1   2  -1 191025. 3709.77   5
   1  -2   1 187785. 3624.28   2
  -1   2   1 200250. 3495.20   2
   1   2  -1 179402. 3623.82   4
  -1   2   1 193388. 3778.89   5
   1   2   0 84368.8 2210.12   5
  -1   2   0 86369.8 2024.48   2
  -1   2   0 86142.2 2253.30   5
   1  -2   0 83746.0 2113.48   2
   1   2   0 85652.4 2233.81   4
  -1   2   0 87494.9 1697.52   1
  -1   2  -1 194615. 3081.05   1
  -1   2  -1 192020. 3721.53   5
   1   2   1 193136. 3778.44   5
  -1   2  -1 204009. 3563.13   2
  -1   2  -2 51178.2 1294.20   1
  -1   2  -2 49588.4 1637.69   5
   1   2   2 47221.1 1613.68   4
   1   2   2 52109.9 1692.43   5
  -1   2  -3 66802.2 1615.11   1
  -1   2  -3 65626.2 1967.03   5
   1   2   3 66673.8 1940.07   4
   1   2   3 64314.9 1965.96   5
  -1   2  -4 45443.1 1627.99   5
   1   2   4 43056.2 1562.39   4
  -1   2  -4 53018.0 1479.09   1
   1   2   4 49606.2 1735.27   5
  -1   2  -5 6697.50 625.597   5
   1   2   5 6031.98 572.528   4
   1   2   5 6699.11 663.101   5
  -1  -2   5 6383.37 509.570   1
   1   2   6 145096. 3221.45   4
   1   2   6 147596. 3536.80   5
   1   2   6 142361. 2370.44   2
  -1   2  -6 155413. 3552.07   5
   1  -2  -6 149513. 2711.20   4
   1   2   6 139659. 3051.76   1
  -1  -2   6 136299. 3011.66   1
   1   2   7 102738. 3018.37   5
  -1  -2   7 95746.4 2516.74   1
   1   2   7 93327.5 2525.03   4
   1   2   7 100535. 1903.92   2
   1  -2  -7 98553.9 2062.40   4
  -1   2  -7 105630. 2954.01   5
   1   2   7 100382. 2551.15   1
  -1  -2   8 86471.8 2469.72   1
   1  -2  -8 87186.2 1869.18   4
   1   2   8 89525.8 2505.27   1
   1   2   8 84277.2 2384.01   4
   1   2   8 89018.5 1852.15   2
   1  -2  -9 52534.5 1347.29   4
   1   2   9 59371.1 1542.16   2
  -1  -2   9 56601.6 2055.03   1
   1   2   9 57072.5 1971.44   1
   1   2   9 59021.0 1951.19   4
  -1  -2  10 22560.8 1311.33   1
   1   2  10 22248.2 1242.63   1
   1  -2 -10 22519.7 776.636   4
   1   2  10 20942.3 1121.96   4
   1   2  10 24764.5 1027.28   2
   1   2  11 8400.43 709.681   4
   1   2  11 8801.67 799.385   1
  -1  -2  11 8455.65 858.718   1
   1   2  11 8829.09 625.050   2
   1  -2 -11 9173.78 482.189   4
   1   2  12 6171.49 734.144   1
   1  -2 -12 7026.19 376.138   4
   1   2  12 7117.82 663.978   4
   1   2  12 7562.20 616.110   2
  -1  -2  12 7410.40 829.140   1
  -1  -2  13 24433.5 1170.49   3
   1   2  13 21638.2 1190.58   4
   1   2  13 18827.5 1321.64   1
   1   2  13 20629.7 1080.71   2
  -1  -2  13 21375.9 1504.22   1
   1   2  14 75657.3 2384.22   4
   1   2  14 77807.2 2334.13   2
   1   2  14 79939.9 2871.83   1
  -1  -2  14 79721.1 3139.83   1
   1   2  15 42032.3 2143.35   1
   1   2  15 46099.0 1790.11   4
   1   2  15 45440.6 1801.28   2
  -1  -2  15 46957.1 2422.61   1
   1   2  16 69365.2 2877.57   1
   1   2  16 70022.6 2280.34   4
   1   2  16 69635.1 2373.59   2
  -1  -2  16 73215.0 3131.99   1
   1   2  17 17006.3 1433.90   1
  -1  -2  17 19545.1 1650.60   1
   1   2  17 15312.4 1021.12   4
   1   2  17 15948.3 1125.46   2
   1   2  18 27455.7 1540.06   2
  -1  -2  18 28144.4 2005.51   1
   1   2  18 27144.2 1881.82   1
  -1  -2  19 6472.48 974.478   1
   1   2  19 6038.04 930.687   1
   1   2  19 5527.58 706.454   2
  -1  -2  20 542.765 378.856   1
   1   2  20 1575.53 537.071   1
   1   2  21 22698.4 1915.16   1
  -1  -2  21 25109.3 2004.90   1
   1   2  22 14029.0 1489.60   1
  -1  -2  22 12138.3 1437.23   1
  -1  -2  23 9168.07 1282.30   1
   1   2  23 9496.93 1324.88   1
   1   2  24 12388.2 1495.54   1
   1  -3  23 4405.58 886.422   1
  -1   3  23 3653.25 755.298   1
   1  -3  22 16562.0 1734.51   2
   1  -3  22 14970.0 1622.88   1
  -1   3  22 14444.1 1463.51   1
   1  -3  21 646.683 416.747   1
  -1   3  21 861.481 382.762   1
   1  -3  21 685.045 418.714   2
  -1   3  20 7434.69 979.388   1
   1  -3  20 7601.10 1084.09   1
   1  -3  20 7733.14 1141.13   2
   1  -3  19 1118.12 402.834   1
   1  -3  19 386.113 266.045   2
  -1   3  19 313.438 265.358   1
   1  -3  18 13591.6 1370.18   1
  -1   3  18 14631.3 1287.15   1
   1  -3  18 12854.1 1382.13   2
   1  -3  17 4413.00 790.726   2
   1  -3  17 4028.66 733.167   1
  -1   3  17 5044.62 739.607   1
  -1   3  16 22653.3 1499.87   1
   1  -3  16 19661.4 1549.61   1
   1  -3  16 20633.0 1645.42   2
  -1   3  15 5994.68 735.027   1
   1  -3  15 5448.10 792.767   1
   1  -3  15 6267.82 888.663   2
   1  -3  14 29099.8 1784.05   1
  -1   3  14 33608.3 1727.93   1
   1  -3  14 27874.1 1818.88   2
   1  -3  13 46210.9 2195.24   1
   1  -3  13 48321.4 2353.07   2
  -1   3  13 52207.4 2821.44   5
  -1   3  12 54685.7 2755.21   5
   1  -3  12 49166.0 2156.18   1
  -1   3  12 52172.3 2034.13   1
   1  -3  12 48282.4 2280.56   2
   1  -3  11 24778.3 1450.31   1
   1  -3  11 26345.5 1612.63   2
  -1   3  11 29481.8 1428.61   1
  -1   3  11 27414.0 1874.76   5
   1  -3  10 106099. 3090.26   1
  -1   3  10 116770. 3872.27   5
   1  -3  10 103140. 3289.11   2
  -1   3  10 121463. 3028.62   1
  -1   3   9 32651.0 1903.66   5
   1  -3   9 33739.5 1551.32   1
   1  -3   9 34194.8 1742.66   2
  -1   3   9 36474.6 1453.92   1
   1   3  -9 33604.7 1863.70   5
  -1   3   8 10436.1 709.647   1
   1  -3   8 9212.64 758.493   1
   1  -3   8 10097.8 941.590   2
  -1   3   8 9720.92 982.315   5
   1   3  -8 10465.6 992.788   5
  -1   3   7 7396.98 839.384   5
   1  -3   7 9214.65 835.315   2
   1  -3   7 8846.34 702.529   1
  -1   3   7 9583.28 643.207   1
   1   3  -7 8874.05 877.357   5
   1   3  -6 31455.1 1640.69   5
   1  -3   6 30076.0 1255.57   1
  -1   3   6 33376.7 1753.15   5
  -1   3   6 34357.6 1130.42   1
   1  -3   6 32983.7 1535.28   2
  -1  -3  -5 33287.9 1101.62   1
   1  -3   5 31658.4 1221.27   1
   1  -3   5 33316.7 1479.52   2
  -1   3   5 33330.3 1697.40   5
  -1   3   5 35598.8 1032.73   1
   1   3  -5 32544.7 1614.23   5
   1  -3   4 117367. 2496.55   1
  -1   3   4 112500. 2628.63   2
  -1   3   4 120999. 2074.58   1
  -1   3   4 113084. 3257.24   5
   1   3  -4 117432. 3227.84   5
  -1  -3  -4 111466. 2247.94   1
   1  -3   4 113448. 2908.87   2
   1  -3   3 59543.7 1941.27   2
   1   3  -3 61428.3 2209.98   5
  -1   3   3 56239.7 2180.19   5
  -1   3   3 59056.5 1171.76   1
   1  -3   3 59624.7 1555.58   1
  -1  -3  -3 56351.0 1434.49   1
  -1   3   2 123040. 3261.37   5
   1  -3   2 118195. 2797.59   2
  -1  -3  -2 115130. 2233.48   1
   1   3  -2 118617. 3007.76   4
  -1  -3  -2 99828.0 1576.77   2
  -1   3   2 104265. 1787.92   1
   1   3  -2 113041. 3098.57   5
  -1   3   1 47912.8 987.133   1
   1   3  -1 49940.0 1944.08   5
   1   3  -1 48114.3 1861.32   4
  -1   3   1 49120.4 1967.41   5
   1  -3   1 48760.8 1701.00   2
   1   3   0 97294.6 2750.18   4
   1  -3   0 94277.3 2467.87   2
  -1   3   0 100607. 1720.05   1
  -1   3   0 94885.7 2843.25   5
   1   3   0 95528.3 2831.30   5
  -1   3  -1 51693.8 1198.34   1
  -1   3  -1 47032.0 1887.34   5
   1   3   1 48036.5 1929.72   5
  -1   3  -2 128064. 2387.81   1
   1   3   2 124512. 3353.96   5
  -1   3  -2 121295. 3284.67   5
   1   3   2 122589. 3216.16   4
   1   3   3 60883.1 2169.48   4
  -1   3  -3 59097.1 2189.76   5
  -1  -3   3 55542.9 1575.06   1
  -1   3  -3 68424.0 1685.28   1
   1   3   3 64995.6 2319.30   5
  -1  -3   4 121243. 2655.35   1
   1   3   4 126234. 3444.20   5
  -1   3  -4 126179. 3400.91   5
  -1  -3   5 33296.1 1305.63   1
   1   3   5 34071.9 1553.72   4
  -1   3  -5 35759.9 1697.58   5
   1   3   5 36249.0 1761.89   5
  -1  -3   6 30507.4 1287.39   1
   1   3   6 31906.4 1701.25   5
  -1   3  -6 27849.5 1519.54   5
   1   3   6 29313.4 1440.40   4
  -1  -3   7 9176.84 751.425   1
  -1   3  -7 8507.46 853.933   5
   1   3   7 8630.15 894.726   5
   1   3   7 7495.74 717.440   4
  -1   3  -8 9169.85 931.101   5
   1   3   8 11039.0 1035.47   5
   1   3   8 10233.1 844.023   4
  -1  -3   8 9956.16 820.758   1
   1   3   8 10037.8 765.831   1
   1   3   9 32785.6 1558.39   4
   1   3   9 30858.5 1856.50   5
  -1   3  -9 33288.6 1842.00   5
   1   3   9 30317.1 1441.17   1
  -1  -3   9 33186.3 1612.59   1
   1   3  10 116256. 3771.52   5
   1   3  10 111245. 3069.05   1
  -1   3 -10 118182. 3760.81   5
   1   3  10 107274. 2024.33   2
  -1  -3  10 112826. 3318.94   1
   1   3  10 107848. 3042.82   4
  -1  -3  11 25621.7 1563.20   1
   1   3  11 25367.0 891.491   2
   1   3  11 25253.9 1404.21   1
   1   3  11 24310.8 1353.06   4
   1   3  11 28033.4 1852.62   5
   1   3  12 55087.2 2718.93   5
   1   3  12 54092.7 2162.64   1
   1   3  12 50742.2 1433.43   2
   1   3  12 48720.8 1967.76   4
  -1  -3  12 52176.6 2396.01   1
   1   3  13 56272.4 2343.26   1
   1   3  13 54935.3 1598.87   2
   1   3  13 50094.1 2010.18   4
   1   3  13 58526.4 2973.28   5
  -1  -3  13 55995.5 2572.79   1
   1   3  14 33301.2 1820.44   1
   1   3  14 32928.8 1591.73   4
   1   3  14 33230.8 2285.15   5
  -1  -3  14 32430.8 1988.54   1
   1   3  15 6154.90 1030.58   5
   1   3  15 5024.17 613.139   4
  -1  -3  15 5769.36 863.936   1
   1   3  15 6116.21 803.792   1
  -1  -3  16 23725.5 1793.45   1
   1   3  16 22588.0 1313.36   4
   1   3  16 19826.6 1481.05   1
  -1  -3  17 4634.63 832.438   1
   1   3  17 4672.51 774.677   1
  -1  -3  18 13649.0 1418.92   1
   1   3  18 11316.8 1228.74   1
  -1  -3  19 567.527 345.804   1
   1   3  19 564.636 320.118   1
  -1  -3  20 7322.62 1086.47   1
   1   3  20 6452.12 1002.94   1
  -1  -3  21 895.843 423.560   1
   1   3  21 835.697 403.626   1
   1   3  22 14881.9 1537.80   1
  -1  -3  22 13489.8 1529.82   1
   1   3  23 2858.16 753.838   1
   1   3  24 350.317 276.901   1
   1  -4  22 17967.2 1805.47   1
   1  -4  21 12350.2 1456.55   1
   1  -4  20 17052.5 1664.84   1
   1  -4  20 17389.9 1806.53   2
  -1   4  20 18184.1 2121.97   5
   1  -4  19 11217.7 1315.63   1
   1  -4  19 11441.5 1442.17   2
  -1   4  19 10672.7 1618.81   5
  -1   4  18 24342.3 2308.40   5
   1  -4  18 24650.6 2031.75   2
   1  -4  18 22574.8 1818.81   1
   1  -4  17 5189.88 827.450   1
   1  -4  17 5955.56 979.066   2
  -1   4  17 6073.60 1111.49   5
   1  -4  16 13142.0 1281.82   1
   1  -4  16 13120.4 1425.70   2
  -1   4  16 14532.7 1655.27   5
   1  -4  15 26882.9 1785.94   1
  -1   4  15 26167.2 2204.52   5
   1  -4  15 28705.8 2035.73   2
   1  -4  14 19559.9 1478.19   1
   1  -4  14 20413.3 1687.70   2
  -1   4  14 19605.3 1830.05   5
   1  -4  13 26429.3 1646.46   1
  -1   4  13 28027.5 2137.63   5
   1  -4  13 28489.6 1950.07   2
   1  -4  12 14993.4 1185.31   1
  -1   4  12 11421.6 1376.61   5
   1   4 -11 61.9252 219.072   5
   1  -4  11 641.129 270.916   1
   1  -4  11 484.930 262.547   2
  -1   4  11 471.183 256.764   5
   1   4 -10 40284.3 2278.18   5
   1  -4  10 38222.2 1771.70   1
  -1   4  10 41011.4 1451.24   1
   1  -4  10 38287.7 2076.94   2
  -1   4  10 39307.5 2335.20   5
  -1   4   9 23271.3 1746.33   5
   1  -4   9 23601.5 1312.88   1
  -1   4   9 26109.0 1045.32   1
   1  -4   9 24263.1 1557.94   2
   1   4  -9 22320.4 1662.80   5
  -1   4   8 64894.6 1600.37   1
   1  -4   8 61939.6 2458.37   2
  -1   4   8 63840.3 2845.98   5
   1  -4   8 61585.0 2074.70   1
   1   4  -7 46094.0 2289.40   5
   1  -4   7 47773.8 1721.42   1
  -1   4   7 50051.7 2456.31   5
  -1   4   7 51153.5 1238.86   1
   1  -4   7 46969.0 2060.05   2
   1   4  -6 19504.6 1421.16   5
  -1   4   6 19423.6 1470.71   5
   1  -4   6 18728.5 1227.37   2
   1  -4   6 19221.6 1000.57   1
  -1   4   6 18082.5 568.710   1
   1   4  -5 2595.69 516.068   5
  -1  -4  -5 2453.01 263.354   1
  -1   4   5 2464.24 511.642   5
   1  -4   5 2663.24 337.558   1
   1  -4   5 2457.50 446.382   2
   1  -4   4 9375.72 823.431   2
  -1  -4  -4 8349.51 458.090   1
   1   4  -4 8475.80 912.708   5
  -1   4   4 8517.55 958.523   5
   1   4  -3 9905.01 991.530   5
  -1  -4  -3 9420.09 469.150   1
  -1   4   3 10895.0 1062.71   5
   1  -4   3 9776.09 820.393   2
  -1  -4  -2 42109.1 1109.39   1
   1  -4   2 47849.4 1849.31   2
   1   4  -2 42928.6 2097.53   5
  -1   4   2 46701.4 2212.39   5
   1   4  -1 92531.8 3211.21   5
   1  -4   1 96909.0 2714.88   2
  -1   4   1 99493.4 3290.26   5
  -1  -4  -1 98260.5 1761.51   2
  -1  -4  -1 90421.8 1915.00   1
   1   4   0 42975.0 2086.06   5
  -1   4   0 47135.4 2180.83   5
  -1  -4   0 45447.9 1183.95   2
  -1  -4   1 102456. 1898.02   1
  -1   4  -1 99011.8 3208.50   5
  -1  -4   1 99855.7 2004.01   2
  -1   4  -2 49264.5 1126.15   1
  -1   4  -2 44424.3 2151.49   5
   1   4   2 49957.1 2113.68   4
   1   4   2 46379.3 2193.65   5
  -1  -4   2 46234.0 1351.63   1
  -1   4  -3 12084.3 586.818   1
  -1  -4   3 11032.7 668.549   1
   1   4   3 9945.71 918.495   4
  -1   4  -3 10597.1 1012.92   5
   1   4   3 10056.7 1031.40   5
   1   4   4 9101.97 984.790   5
  -1  -4   4 10072.3 688.147   1
  -1   4  -4 9387.52 584.319   1
  -1   4  -4 9095.28 954.065   5
   1   4   4 8297.37 829.988   4
   1   4   5 2499.95 531.191   5
  -1   4  -5 2517.75 514.430   5
  -1  -4   5 2428.87 356.747   1
   1   4   5 2723.95 494.455   4
   1   4   6 20271.0 1502.49   5
  -1  -4   6 20592.7 1117.70   1
  -1   4  -6 17857.7 1369.43   5
   1   4   6 18986.7 1292.68   4
   1   4   7 47780.4 2367.90   5
  -1   4  -7 48276.7 2298.83   5
   1   4   7 48619.7 2175.99   4
  -1  -4   7 50998.9 1939.61   1
   1   4   8 68638.2 2546.14   4
  -1   4  -8 62874.0 2782.21   5
  -1  -4   8 67219.2 2392.01   1
   1   4   8 67490.8 2938.06   5
   1   4   9 26238.7 1577.72   4
  -1   4  -9 27353.0 1832.23   5
   1   4   9 24834.0 1791.38   5
  -1  -4   9 26844.6 1550.36   1
  -1   4 -10 40391.7 2307.33   5
   1   4  10 35940.5 1861.34   4
   1   4  10 43589.2 2442.29   5
  -1  -4  10 40436.4 1981.64   1
  -1  -4  11 510.989 283.858   1
  -1   4 -11 402.944 292.221   5
   1   4  11-59.3618 243.988   5
  -1   4 -12 19975.5 1675.04   5
   1   4  12 17570.9 1238.31   1
   1   4  12 17722.6 1643.24   5
   1   4  12 18375.3 1329.25   4
  -1  -4  12 19860.1 1467.97   1
   1   4  13 30432.3 2202.74   5
   1   4  13 29675.3 1671.01   4
  -1  -4  13 31340.3 1932.21   1
   1   4  13 29325.6 1637.46   1
   1   4  14 21953.4 1429.71   4
  -1  -4  14 22172.8 1653.95   1
   1   4  14 21469.9 1463.96   1
   1   4  14 23630.1 2003.86   5
   1   4  15 29372.2 1644.49   4
  -1  -4  15 27969.3 1910.70   1
   1   4  15 30007.0 2328.18   5
   1   4  15 31211.5 1803.17   1
  -1  -4  16 14259.1 1376.33   1
   1   4  16 14305.3 1659.45   5
   1   4  17 7067.61 1200.60   5
  -1  -4  17 6386.57 992.682   1
  -1  -4  18 22563.3 1816.72   1
   1   4  18 27203.6 2412.35   5
  -1  -4  19 11718.4 1348.28   1
   1   4  19 10422.5 1637.22   5
  -1  -4  20 18907.3 1742.51   1
   1   4  20 22777.4 2333.85   5
   1   4  21 11598.5 1726.75   5
  -1  -4  21 11168.7 1374.63   1
   1  -5  18 849.118 365.705   2
   1  -5  17 10225.6 1338.89   2
  -1   5  17 10913.1 1585.59   5
   1  -5  16 14488.4 1568.00   2
  -1   5  16 13486.6 1689.89   5
   1  -5  15 4806.68 873.443   2
  -1   5  15 4838.44 1021.30   5
  -1   5  14 2617.32 775.354   5
   1  -5  14 3200.08 691.694   2
  -1   5  13 2097.84 587.953   5
   1  -5  13 3432.15 696.999   2
   1   5 -12 111.706 270.264   5
  -1   5  12-29.8569 265.224   5
   1  -5  12 156.794 265.675   2
   1   5 -11 31907.1 2257.41   5
   1  -5  11 31999.1 1992.01   2
  -1   5  11 37551.2 2520.55   5
   1  -5  10 7714.31 943.903   2
  -1   5  10 8330.55 1171.04   5
   1   5 -10 7230.00 1047.92   5
   1   5  -9 51799.1 2783.69   5
  -1   5   9 50281.1 2796.62   5
   1  -5   9 43936.5 2263.25   2
   1   5  -8 12618.7 1337.09   5
   1  -5   8 12047.4 1118.20   2
  -1   5   8 14127.3 1452.68   5
  -1   5   7 4611.58 849.284   5
   1   5  -7 4316.75 758.192   5
   1  -5   7 6114.68 779.551   2
   1  -5   6 5184.06 704.073   2
   1   5  -6 6061.70 871.617   5
  -1   5   6 5026.80 837.278   5
  -1   5   5 18721.1 1614.56   5
   1   5  -5 19026.0 1581.66   5
   1  -5   5 17469.2 1262.04   2
   1   5  -4 9697.98 1108.48   5
   1  -5   4 10077.1 938.336   2
  -1   5   4 8957.17 1094.32   5
   1   5  -3 54006.9 2696.97   5
   1  -5   3 59142.8 2320.78   2
  -1   5   3 58469.2 2820.04   5
   1  -5   2 5985.85 691.063   2
   1   5  -2 5457.57 810.197   5
  -1   5   2 6119.91 901.126   5
   1   5  -1 70880.8 3048.36   5
  -1   5   1 65218.1 2969.80   5
  -1   5   0 27337.3 1852.91   5
   1   5   0 25997.3 1859.69   5
   1   5   1 67462.3 2966.95   5
  -1   5  -1 67304.3 2994.49   5
   1   5   2 5756.82 851.668   5
  -1  -5   2 7148.04 573.402   2
  -1   5  -2 6588.92 915.406   5
  -1   5  -3 57544.4 2764.69   5
  -1  -5   3 56912.4 1815.33   2
   1   5   3 64018.8 2942.34   5
  -1   5  -4 7105.42 965.970   5
   1   5   4 10138.7 1164.13   5
  -1  -5   4 8799.84 711.539   2
  -1   5  -5 18330.9 1543.58   5
  -1  -5   5 18747.2 1113.53   2
   1   5   5 19601.4 1645.04   5
  -1   5  -6 4754.53 802.184   5
  -1  -5   6 5955.25 658.037   2
   1   5   6 5191.45 849.416   5
  -1   5  -7 3928.07 729.538   5
   1   5   7 5014.08 847.955   5
  -1  -5   7 4778.54 630.672   2
  -1   5  -8 11860.6 1320.67   5
  -1  -5   8 15164.0 1083.34   1
  -1  -5   8 14195.8 1128.04   2
   1   5   8 12442.5 1367.23   5
   1   5   9 52875.7 2909.59   5
  -1  -5   9 50842.6 2117.28   1
  -1  -5   9 49372.6 2242.49   2
  -1   5  -9 48324.4 2694.56   5
  -1  -5  10 7855.87 837.506   1
  -1  -5  10 7321.88 878.673   2
  -1   5 -10 6873.28 1027.90   5
   1   5  10 6547.57 1073.91   5
  -1   5 -11 31116.2 2241.29   5
   1   5  11 35644.1 2443.95   5
  -1  -5  11 35505.5 1874.97   1
  -1  -5  11 34091.0 1972.73   2
  -1  -5  12-30.2985 192.501   2
   1   5  12-302.605 347.841   5
  -1   5 -12 226.775 211.742   5
  -1  -5  12-72.2512 156.919   1
   1   5  13 2877.93 749.374   5
  -1   5 -13 3523.60 797.293   5
  -1  -5  13 2591.73 567.190   2
  -1  -5  13 2568.70 528.796   1
   1   5  14 2964.91 748.695   5
  -1  -5  14 2411.21 536.573   1
  -1  -5  14 2620.40 596.056   2
   1   5  15 6051.19 1116.23   5
  -1  -5  15 5863.57 932.709   2
  -1  -5  15 5007.95 786.833   1
   1   5  16 15428.8 1859.95   5
  -1  -5  16 15498.4 1539.99   2
  -1  -5  16 13241.5 1318.17   1
   1   5  17 11212.0 1604.70   5
  -1  -5  17 11563.7 1371.98   2
  -1  -5  17 11074.2 1243.06   1
   1   5  18 401.434 338.349   5
  -1  -5  18 404.910 277.907   2
  -1  -5  18-58.8465 250.525   1
  -1  -5  19 6920.60 1051.17   1
   1  -6  16 13960.0 1578.42   2
   1  -6  15 8491.92 1198.40   2
   1  -6  14 12903.7 1440.16   2
  -1   6  14 13994.9 1759.32   5
   1   6 -13 2977.99 751.698   5
  -1   6  13 3999.91 963.837   5
   1  -6  13 3219.99 706.952   2
   1   6 -12 427.935 320.912   5
  -1   6  12-91.6098 202.483   5
   1  -6  12 286.278 166.134   2
  -1   6  11 3595.43 866.179   5
   1   6 -11 2798.24 784.928   5
   1  -6  11 2282.41 585.141   2
  -1   6  10 2991.52 760.709   5
   1   6 -10 4197.34 877.759   5
   1  -6  10 2680.92 595.613   2
   1   6  -9 339.848 257.797   5
  -1   6   9 1177.67 378.358   5
   1  -6   9 480.873 292.929   2
  -1   6   8 13584.8 1575.37   5
   1  -6   8 14642.2 1336.09   2
   1   6  -8 15146.1 1597.08   5
   1  -6   7 8771.67 1002.94   2
   1   6  -7 7467.42 1140.30   5
  -1   6   7 7387.39 1143.09   5
   1  -6   6 11363.8 1133.98   2
  -1   6   6 10776.6 1377.35   5
   1   6  -6 9886.88 1261.40   5
   1  -6   5 28742.8 1782.28   2
  -1   6   5 28202.0 2186.40   5
   1   6  -5 28095.4 2125.72   5
   1   6  -4 1853.41 532.865   5
  -1   6   4 1795.27 552.245   5
  -1   6   3 10975.6 1327.07   5
   1   6  -3 9853.65 1262.90   5
   1   6  -2 9070.95 1219.94   5
  -1   6   2 9118.22 1183.88   5
  -1   6   1 11445.6 1322.17   5
   1   6  -1 11214.0 1326.52   5
  -1   6   0 5653.63 934.057   5
   1   6   0 6236.84 970.681   5
   1   6   1 11722.2 1332.32   5
  -1   6  -1 9784.09 1224.36   5
   1   6   2 8036.29 1158.95   5
  -1   6  -2 7951.03 1143.01   5
   1   6   3 12055.0 1384.36   5
  -1   6  -3 9919.61 1262.05   5
   1   6   4 1401.57 499.205   5
  -1   6  -4 1516.01 468.843   5
  -1   6  -5 26537.9 2070.76   5
   1   6   5 29173.2 2221.13   5
   1   6   6 10536.4 1380.00   5
  -1   6  -6 10360.5 1307.16   5
  -1   6  -7 6945.12 1075.15   5
   1   6   7 7928.36 1189.04   5
  -1   6  -8 12204.8 1424.02   5
   1   6   8 15252.3 1692.09   5
   1   6   9 98.9460 229.130   5
  -1   6  -9 459.376 209.254   5
   1   6  10 4367.82 931.847   5
  -1   6 -10 3925.63 838.069   5
   1   6  11 3647.00 900.679   5
  -1   6 -11 3862.31 819.298   5
  -1  -6  11 2809.75 573.251   2
  -1   6 -12 524.444 339.513   5
   1   6  12 123.954 269.548   5
  -1  -6  12-115.911 154.786   2
   1   6  13 2482.18 737.024   5
  -1   6 -13 2262.17 654.443   5
  -1  -6  13 1965.98 489.126   2
  -1  -6  14 13944.3 1400.23   2
   1   6  14 14471.2 1816.04   5
  -1  -6  15 6686.96 1004.28   2
  -1  -6  16 14344.1 1500.90   2
  -1   7   7 2942.28 782.709   5
   1   7  -7 3938.73 900.421   5
  -1   7   6 657.428 440.692   5
   1   7  -6 691.464 437.113   5
   1   7  -5 28569.8 2332.64   5
  -1   7   5 26877.5 2350.94   5
  -1   7   4 1654.96 563.961   5
   1   7  -4 5245.58 997.100   5
  -1   7   3 43002.6 2912.84   5
   1   7  -3 46071.2 2979.58   5
  -1   7   2 1576.19 568.908   5
   1   7  -2 763.553 434.128   5
  -1   7   1 1019.99 467.552   5
   1   7  -1 369.840 243.176   5
  -1   7   0 254.818 292.029   5
   1   7   0 24.9779 389.487   5
  -1   7  -1 410.369 360.826   5
   1   7   1 704.795 276.248   5
  -1   7  -2 548.099 402.952   5
   1   7   2 364.487 446.741   5
   1   7   3 46789.2 3063.13   5
  -1   7  -3 43634.0 2920.89   5
   1   7   4 2529.94 785.115   5
  -1   7  -4 3376.85 813.881   5
  -1   7  -5 28468.2 2346.29   5
   1   7   5 26413.8 2323.24   5
   1   7   6-162.654 355.506   5
  -1   7  -6 1595.10 644.613   5
   1   7   7 3340.22 874.197   5
  -1   7  -7 3838.39 843.891   5
   2   0   0 13130.9 847.661   4
  -2   0   0 14520.6 1011.83   3
   2   0  -1 75778.0 2132.05   4
  -2   0  -1 79043.6 2490.43   3
  -2   0   1 83234.7 2519.84   3
   2   0   1 77494.4 2277.85   4
   2   0   2 271402. 5193.35   4
   2   0  -2 260253. 4779.33   4
  -2   0   2 287667. 5414.65   3
  -2   0  -2 304910. 5552.03   3
  -2   0   3 6227.60 664.904   3
   2   0   3 5054.30 260.404   5
   2   0   3 6780.29 675.263   4
   2   0  -3 5488.67 500.588   4
  -2   0  -3 7471.29 729.319   3
   2   0   4 38532.9 1559.42   2
   2   0   4 37268.3 1663.08   4
   2   0  -4 36897.2 1273.11   4
  -2   0  -4 38657.5 1677.16   3
   2   0   5 49032.8 1976.30   4
   2   0   5 47202.5 1774.09   2
   2   0  -5 49518.4 1493.29   4
  -2   0   5 52866.8 1993.17   3
  -2   0  -5 50195.4 1916.07   3
   2   0   6 23605.7 1368.49   4
   2   0   6 20923.9 1176.30   2
   2   0  -6 20868.7 887.847   4
  -2   0   6 25367.8 1338.80   3
  -2   0  -6 22459.9 1232.07   3
  -2   0   7 1150.00 293.505   3
  -2   0  -7 923.590 320.449   3
   2   0   7 1934.97 470.768   4
   2   0   7 951.835 300.121   1
   2   0  -7 1408.78 200.298   4
   2   0   7 1368.33 307.317   2
   2   0   8 336437. 6226.49   2
   2   0   8 354148. 6784.23   4
   2   0  -8 334703. 4965.59   4
   2   0   8 338466. 6554.00   1
   2   0   9 42618.0 1999.08   1
   2   0   9 48438.2 2117.58   4
   2   0   9 45122.3 1856.82   2
   2   0  -9 43658.4 1119.77   4
  -2   0   9 44671.7 1816.63   1
  -2   0  -9 42445.8 1798.99   3
   2   0  10 7408.12 896.170   1
   2   0  10 10663.2 983.595   4
   2   0  10 9633.83 848.518   2
  -2   0  10 10060.1 862.162   1
   2   0 -10 8705.27 409.906   4
  -2   0  10 10679.0 877.794   3
  -2   0 -10 8399.34 769.900   3
   2   0  11 17009.2 1266.82   4
  -2   0 -11 11681.1 922.392   3
   2   0  11 14654.6 1089.70   2
  -2   0  11 11260.9 1027.45   1
   2   0  11 15095.2 1204.36   1
   2   0  12 1283.17 352.231   4
  -2   0  12 1404.53 364.113   1
   2   0  12 1593.17 380.155   2
   2   0  12 1035.27 410.726   1
  -2   0 -12 1551.20 362.005   3
  -2   0  13 3136.24 560.119   1
   2   0  13 4022.63 651.890   4
   2   0  13 3188.64 564.331   2
   2   0  13 2840.58 610.174   1
  -2   0 -13 3383.59 486.712   3
   2   0  14 87625.8 3366.52   1
  -2   0  14 88837.6 3156.35   1
   2   0  14 94800.9 3290.75   4
   2   0  14 87429.4 3064.51   2
  -2   0 -14 95003.4 2609.19   3
  -2   0  15 10990.5 1159.39   1
   2   0  15 12256.9 1144.62   2
   2   0  15 10865.8 1185.19   1
  -2   0  16 11794.9 1179.62   1
   2   0  16 9278.29 1132.54   1
   2   0  16 13773.1 1242.37   4
   2   0  16 11198.2 1113.14   2
   2   0  17 65733.8 2826.46   4
   2   0  17 60237.9 2730.35   2
   2   0  17 60951.7 2920.66   1
  -2   0  17 58471.8 2874.39   1
  -2   0  18 397.442 292.373   1
   2   0  18 1024.47 424.425   4
   2   0  18 250.261 285.165   2
   2   0  18 537.058 523.209   1
   2   0  19 9456.56 1220.70   1
   2   0  19 9242.66 1131.94   2
   2   0  19 11846.4 1199.70   4
  -2   0  19 10679.6 1340.63   1
   2   0  20 54306.9 2999.73   1
   2   0  20 56885.3 2878.40   2
  -2   0  20 58568.3 3178.23   1
  -2   0  21 203.525 384.831   1
   2   0  21 435.712 404.907   2
   2   0  21 460.162 482.848   1
  -2   0  22-178.201 271.901   1
   2   0  22 132.939 237.849   1
   2   0  22 110.642 196.949   2
   2   0  23 2651.84 783.236   1
   2   0  23 3107.54 733.132   2
  -2   0  23 2906.34 752.013   1
   2   0  24 1090.59 448.985   2
   2   0  25 11236.9 1399.09   2
   2  -1  24 9229.53 1321.56   2
  -2   1  24 9960.69 1361.51   1
   2  -1  23 9832.00 1417.66   1
   2  -1  23 10146.3 1348.94   2
  -2   1  23 12302.6 1485.24   1
  -2   1  22 15009.7 1651.25   1
   2  -1  22 14507.6 1634.46   1
   2  -1  22 13995.3 1558.82   2
  -2   1  21 6536.69 1067.38   1
   2  -1  21 6088.08 1053.04   1
   2  -1  21 5918.44 995.481   2
   2  -1  20 16338.1 1623.11   1
   2  -1  20 19861.0 1651.41   4
   2  -1  20 18285.4 1687.78   2
  -2   1  20 15736.3 1601.20   1
   2  -1  19 26198.5 1888.68   4
   2  -1  19 21163.6 1784.48   2
  -2   1  19 23169.1 1910.68   1
   2  -1  19 20226.9 1786.43   1
   2  -1  18 18542.9 1671.62   1
   2  -1  18 22700.0 1748.14   4
   2  -1  18 18007.3 1600.79   2
  -2   1  18 17631.6 1625.07   1
   2  -1  17 22742.7 1728.58   4
   2  -1  17 20220.0 1644.59   2
  -2   1  17 19344.3 1602.36   1
   2  -1  17 17912.5 1585.27   1
   2  -1  16 47737.8 2529.82   1
   2  -1  16 49464.4 2520.46   2
  -2   1  16 47518.9 2439.95   1
   2  -1  15 27904.8 1836.73   2
   2  -1  15 28260.0 1937.84   1
   2  -1  15 33969.0 2075.26   4
  -2   1  15 30039.0 1825.74   1
  -2  -1 -15 31189.7 1522.80   3
  -2   1  14 53146.0 2430.67   1
   2  -1  14 60675.4 2731.27   4
   2  -1  14 53311.5 2523.84   1
   2  -1  14 50750.7 2418.68   2
  -2  -1 -14 62426.6 2256.88   3
  -2  -1 -13 22759.3 1338.63   3
   2  -1  13 21634.8 1487.75   2
   2  -1  13 22991.5 1566.79   1
  -2   1  13 19340.3 1386.91   1
  -2   1  12 19314.7 1310.73   1
   2  -1  12 20213.1 1432.14   1
   2  -1  12 19846.3 1384.18   2
  -2  -1 -12 20134.2 1251.21   3
  -2  -1 -11 121091. 3211.08   3
   2  -1  11 121882. 3776.28   1
  -2   1  11 125823. 3362.96   1
   2  -1  11 119958. 3544.78   2
  -2  -1 -10 47396.6 1896.04   3
  -2   1  10 41664.9 1797.64   1
   2   1 -10 41901.2 1289.38   4
   2  -1  10 44326.9 2035.56   1
   2  -1  10 42641.0 1959.58   2
  -2  -1  -9 3107.74 516.550   3
   2   1  -9 3195.55 354.703   4
  -2   1   9 1931.62 376.113   1
   2  -1   9 2607.66 462.597   2
   2  -1   9 2759.68 479.828   1
   2  -1   8 75674.5 2727.30   1
   2  -1   8 81409.5 2670.80   2
   2   1  -8 79109.3 1995.39   4
  -2  -1  -7 10809.6 989.592   3
   2  -1   7 9822.53 857.735   2
   2   1  -7 9606.18 640.654   4
   2  -1   6 160187. 3890.63   2
   2   1  -6 168047. 3255.72   4
   2  -1   6 155242. 3174.87   5
   2  -1   6 165177. 3858.83   1
   2  -1   5 64860.8 1710.22   5
   2   1  -5 70332.5 1922.27   4
   2  -1   5 67915.8 2312.44   2
   2  -1   4 12512.9 628.748   5
   2  -1   4 12190.5 915.580   2
   2   1  -4 13269.1 767.512   4
   2  -1   3 59141.4 2081.19   2
   2   1  -3 60213.9 1796.29   4
  -2   1   3 58826.7 1598.10   5
   2  -1   3 56329.1 1396.22   5
   2   1  -2 168880. 3020.75   5
  -2   1   2 178418. 3093.99   5
   2   1  -2 172711. 3557.93   4
   2  -1   2 176719. 2918.03   5
  -2   1   1 119788. 2261.04   5
   2   1  -1 130359. 3010.17   4
   2  -1   1 123171. 2215.05   5
  -2  -1  -1 126475. 2215.40   5
   2   1   0 8092.16 417.187   5
   2   1   0 9327.90 753.942   4
  -2   1   0 8616.47 450.479   5
  -2  -1   0 8217.31 439.390   5
  -2   1  -1 117324. 2129.94   5
   2   1   1 119740. 2993.73   4
   2   1   1 112688. 2060.76   5
  -2  -1   1 123013. 2257.57   5
  -2   1  -2 178237. 2981.37   5
   2   1   2 178791. 3968.78   4
   2   1   2 179072. 2969.86   5
  -2  -1   2 186132. 3197.56   5
  -2   1  -3 62802.9 1532.42   5
   2   1   3 58237.0 1442.84   5
   2   1   3 63154.9 2125.41   4
  -2  -1   3 62162.4 1658.92   5
  -2  -1   4 14204.2 787.514   5
   2   1   4 13006.3 976.117   4
   2   1   4 12933.9 678.990   5
   2   1   5 78422.8 2021.75   5
   2   1   5 82328.6 2582.18   4
  -2  -1   6 176929. 3965.54   3
   2   1   6 163464. 3580.89   2
   2  -1  -6 166358. 3211.45   4
   2   1   6 173427. 4066.31   4
   2  -1  -7 10790.7 626.855   4
   2   1   7 11747.0 825.310   2
  -2  -1   7 10675.3 855.452   3
   2   1   7 12492.2 995.761   4
   2   1   8 80102.8 2400.60   2
   2  -1  -8 78966.2 1757.10   4
  -2  -1   8 85446.0 2608.23   3
   2   1   8 81274.3 2711.98   1
   2   1   8 82321.9 2717.90   4
  -2  -1   9 2080.94 429.102   3
  -2  -1   9 2331.84 415.844   1
   2  -1  -9 2375.25 235.180   4
   2   1   9 2143.59 445.398   4
   2   1   9 1863.93 449.141   1
   2   1   9 2413.75 383.607   2
   2   1  10 45111.1 1795.28   2
  -2  -1  10 51127.6 1990.10   3
  -2  -1  10 39554.9 1344.89   4
   2  -1 -10 40929.1 938.109   4
  -2  -1  10 42246.7 1861.06   1
   2   1  10 43143.4 2015.98   1
   2   1  10 47258.3 2049.84   4
   2   1  11 128910. 3826.39   1
  -2  -1  11 118869. 2584.73   4
   2   1  11 136063. 3755.68   4
  -2  -1  11 123399. 3447.06   1
   2   1  11 126632. 3312.64   2
  -2  -1  11 119223. 3233.19   3
   2   1  12 15596.3 1372.32   1
  -2  -1  12 17323.9 1239.97   1
   2   1  12 21677.6 1435.25   4
   2   1  12 19230.9 1209.81   2
  -2  -1  12 20246.6 1187.02   3
   2   1  13 20615.0 1552.43   1
  -2  -1  13 23611.2 1498.68   1
   2   1  13 23383.1 1387.21   2
  -2  -1  13 18910.6 1145.48   3
   2   1  14 52650.9 2579.17   1
   2   1  14 59962.5 2513.90   4
   2   1  14 56608.3 2264.38   2
  -2  -1  14 47501.7 1841.25   3
  -2  -1  14 52350.4 2408.26   1
   2   1  15 28395.3 1969.08   1
  -2  -1  15 27389.6 1857.05   1
   2   1  15 28738.6 1633.90   2
   2   1  15 33849.3 1879.45   4
  -2  -1  16 50658.4 2542.68   1
   2   1  16 50772.2 2616.39   1
   2   1  16 53004.3 2416.31   4
   2   1  16 47699.5 2204.78   2
   2   1  17 18489.1 1657.48   1
   2   1  17 21990.3 1535.87   4
   2   1  17 19230.5 1418.55   2
  -2  -1  17 18390.9 1625.59   1
   2   1  18 18517.0 1641.50   1
   2   1  18 23471.0 1625.49   4
   2   1  18 17700.3 1403.15   2
  -2  -1  18 18864.6 1674.57   1
   2   1  19 25851.9 1729.29   4
   2   1  19 20123.2 1544.82   2
   2   1  19 22113.8 1837.06   1
  -2  -1  19 22672.6 1943.32   1
   2   1  20 19979.0 1788.10   1
   2   1  20 17311.8 1469.34   2
  -2  -1  20 18449.2 1786.12   1
  -2  -1  21 6718.51 1135.38   1
   2   1  21 8279.54 1048.91   2
   2   1  21 5925.22 1026.32   1
   2   1  22 14258.3 1411.22   2
   2   1  22 12132.1 1541.74   1
  -2  -1  22 15957.5 1754.70   1
   2   1  23 11663.0 1549.35   1
  -2  -1  23 11740.1 1535.49   1
  -2   2  24-1505.43 546.477   1
  -2   2  23 2212.68 617.131   1
   2  -2  23 3379.80 852.787   2
   2  -2  22 5271.89 1089.52   1
   2  -2  22 5748.44 1042.61   2
  -2   2  22 4877.95 888.500   1
  -2   2  21 6458.16 1015.69   1
   2  -2  21 5551.74 998.444   2
   2  -2  21 5272.56 992.679   1
   2  -2  20 3820.07 804.508   1
   2  -2  20 4109.57 815.504   4
  -2   2  20 4186.12 802.623   1
   2  -2  20 4095.76 861.230   2
   2  -2  19 6855.26 1037.39   1
  -2   2  19 9034.37 1158.79   1
   2  -2  19 7986.85 1129.09   2
   2  -2  18 8917.19 1171.81   2
  -2   2  18 11795.1 1299.12   1
   2  -2  18 9725.84 1212.46   1
   2  -2  17 2387.34 636.445   1
  -2   2  17 1659.77 513.504   1
   2  -2  17 1173.62 446.079   2
   2  -2  16 24252.1 1842.52   1
  -2   2  16 27518.0 1838.57   1
   2  -2  16 24990.1 1848.35   2
  -2   2  15 27338.7 1769.13   1
   2  -2  15 26753.7 1827.21   1
   2  -2  15 26564.4 1860.03   2
  -2  -2 -14 2193.18 517.962   3
  -2   2  14 1316.56 371.313   1
   2  -2  14 1033.27 370.467   2
   2  -2  14 959.497 381.171   1
  -2   2  13 8288.56 874.413   1
   2  -2  13 8288.42 967.288   1
   2  -2  13 8449.43 985.815   2
   2  -2  12 92231.0 3290.09   1
  -2   2  12 91012.2 2954.77   1
   2  -2  12 87588.4 3224.53   2
   2  -2  11 49592.7 2257.43   1
  -2   2  11 44164.5 1922.59   1
   2  -2  11 44850.8 2172.64   2
   2  -2  10 5120.25 702.107   1
  -2   2  10 4102.71 533.976   1
   2  -2  10 4782.39 690.836   2
   2  -2   9 35956.2 1834.61   2
  -2   2   9 36547.2 1571.66   1
   2   2  -9 33736.1 1401.46   4
   2  -2   9 36735.8 1838.66   1
   2  -2   8 9530.59 868.110   1
   2  -2   8 8778.19 871.963   2
   2   2  -8 9233.56 712.096   4
  -2   2   8 8380.95 696.756   1
   2  -2   7 18570.5 1174.73   1
   2  -2   7 17319.0 1211.17   2
  -2   2   7 17882.6 1220.75   5
   2   2  -7 18152.3 1032.59   4
   2  -2   6 348939. 6675.51   2
  -2  -2  -6 348425. 5381.92   2
   2   2  -6 348564. 6054.50   4
  -2   2   6 362777. 6520.33   5
   2   2  -5 8693.21 722.992   5
   2  -2   5 8900.74 844.455   2
  -2  -2  -5 8415.04 534.749   2
   2   2  -5 9257.61 737.589   4
  -2   2   5 7802.30 732.788   5
   2  -2   4 239763. 5098.22   2
  -2  -2  -4 235703. 4006.34   2
   2   2  -4 238658. 4677.38   4
  -2   2   4 237313. 4661.54   5
   2   2  -4 226530. 4498.17   5
   2   2  -3 208388. 4087.00   5
  -2  -2  -3 219847. 3879.06   2
   2   2  -3 216017. 4382.88   4
   2  -2   3 219318. 4700.40   2
  -2   2   3 216742. 4244.79   5
   2   2  -2 20755.9 1009.14   5
   2  -2   2 23921.4 1327.33   2
  -2   2   2 23507.3 1121.62   5
   2   2  -2 22728.7 1202.75   4
   2   2  -1 46410.2 1541.09   5
  -2   2   1 48409.3 1632.33   5
   2   2  -1 43972.0 1749.32   4
   2   2   0 201426. 3835.51   5
   2   2   0 206317. 4358.22   4
  -2   2   0 211481. 3956.71   5
   2   2   1 46521.3 1822.52   4
  -2   2  -1 48264.0 1595.13   5
   2   2   1 47064.4 1540.89   5
  -2   2  -2 22838.7 1065.46   5
   2   2   2 23598.5 1267.13   4
   2   2   2 22697.9 1063.96   5
  -2   2  -3 215010. 4091.39   5
   2   2   3 208863. 4543.48   4
   2   2   3 218938. 4132.08   5
  -2   2  -4 226915. 4342.78   5
   2   2   4 223832. 4773.56   4
  -2   2  -5 10573.7 783.985   5
   2   2   5 10708.8 915.964   4
   2   2   5 9716.21 762.592   5
  -2   2  -6 361059. 6416.00   5
   2   2   6 375671. 6782.21   4
   2   2   6 359643. 6404.98   5
  -2   2  -7 20834.6 1225.03   5
   2   2   7 20323.9 1274.62   4
   2   2   7 17746.1 1138.72   5
  -2  -2   8 11098.8 1005.29   3
   2   2   8 9377.63 886.617   4
  -2  -2   8 8183.49 753.107   1
   2   2   8 8991.32 851.146   5
   2   2   9 34546.3 1418.66   2
   2   2   9 39079.0 1874.74   5
   2   2   9 33627.8 1715.82   4
  -2  -2   9 33671.1 1623.56   1
  -2  -2  10 6061.80 751.322   3
   2   2  10 4205.33 630.369   4
  -2  -2  10 4339.56 591.345   1
   2  -2 -10 4537.27 347.637   4
   2   2  10 3789.56 648.502   5
   2   2  10 4181.47 609.252   1
   2   2  10 3956.91 480.896   2
   2   2  11 48363.4 1818.84   2
  -2  -2  11 43389.3 1988.42   1
   2   2  11 44078.6 2029.10   4
   2   2  11 41233.2 2161.49   1
  -2  -2  12 93522.7 3129.87   1
   2   2  12 92022.8 3087.99   4
   2   2  12 97410.8 2774.36   2
   2   2  12 87988.8 3242.96   1
  -2  -2  13 7694.87 756.189   3
   2   2  13 8570.02 1008.99   1
  -2  -2  13 7649.91 900.479   1
   2   2  13 9323.50 817.517   2
   2   2  13 9812.87 947.171   4
  -2  -2  14 1354.33 326.950   3
  -2  -2  14 1519.55 449.105   1
   2   2  14 2045.89 478.231   4
   2   2  14 1091.51 279.047   2
   2   2  14 1388.16 411.383   1
  -2  -2  15 26922.3 1810.31   1
   2   2  15 29014.6 1567.46   2
   2   2  15 30378.2 1736.63   4
   2   2  15 30738.4 1977.36   1
   2   2  16 27451.5 1947.02   1
   2   2  16 29548.0 1617.71   2
   2   2  16 29881.9 1727.36   4
  -2  -2  16 25348.8 1859.08   1
  -2  -2  17 997.974 420.437   1
   2   2  17 1080.75 362.927   4
   2   2  17 984.764 324.534   2
   2   2  17 987.412 441.180   1
   2   2  18 12128.1 1347.56   1
   2   2  18 12064.4 1099.58   4
  -2  -2  18 10724.4 1303.74   1
   2   2  19 8151.29 1146.98   1
  -2  -2  19 9122.01 1252.96   1
  -2  -2  20 5178.61 991.662   1
   2   2  20 3747.67 889.201   1
  -2  -2  21 7584.62 1188.30   1
   2   2  21 5145.41 1043.38   1
  -2  -2  22 6737.09 1152.83   1
   2   2  22 5023.51 1015.06   1
   2   2  23 2186.17 683.189   1
   2  -3  22 5945.53 1067.65   1
  -2   3  22 6253.40 1003.88   1
   2  -3  21 3311.09 806.137   2
  -2   3  21 2875.99 677.180   1
   2  -3  21 3467.07 812.558   1
   2  -3  20 13897.7 1601.76   1
   2  -3  20 13553.2 1579.23   2
  -2   3  20 16596.7 1553.38   1
  -2   3  19 5254.94 869.370   1
   2  -3  19 4905.92 932.787   1
   2  -3  19 5363.74 995.062   2
  -2   3  18 2937.27 654.303   1
   2  -3  18 2713.37 681.189   2
   2  -3  18 1861.03 554.190   1
  -2   3  17 3760.45 709.519   1
   2  -3  17 3046.07 663.364   1
   2  -3  17 4090.38 813.895   2
   2  -3  16 23688.6 1807.47   1
   2  -3  16 24071.1 1903.18   2
  -2   3  16 27115.5 1846.22   1
   2  -3  15 10908.0 1194.78   1
   2  -3  15 11050.0 1256.33   2
  -2   3  15 13175.5 1235.54   1
  -2   3  15 12543.2 1470.80   5
  -2   3  14 3002.75 701.927   5
  -2   3  14 2972.87 573.364   1
   2  -3  14 2310.65 567.017   1
   2  -3  14 2720.13 604.003   2
   2  -3  13 20595.5 1618.31   2
   2  -3  13 21660.1 1604.69   1
  -2   3  13 20079.1 1755.13   5
  -2   3  13 22335.3 1463.00   1
   2  -3  12 11631.4 1157.55   1
   2  -3  12 11602.8 1188.83   2
  -2   3  12 12662.2 1309.60   5
  -2   3  12 12520.4 1053.26   1
   2  -3  11 7831.64 873.168   1
   2  -3  11 6471.03 870.372   2
  -2   3  11 6746.14 748.728   1
  -2   3  11 6253.91 901.058   5
   2  -3  10 13157.1 1106.39   1
  -2   3  10 14256.5 1003.91   1
   2  -3  10 12876.5 1180.62   2
  -2   3  10 11925.0 1190.87   5
   2  -3   9 21362.5 1369.04   1
  -2   3   9 20693.8 1173.35   1
   2  -3   9 21840.0 1514.07   2
  -2   3   9 22200.1 1550.30   5
  -2   3   8 51831.5 2388.72   5
   2  -3   8 50505.5 2302.16   2
  -2   3   8 53538.0 1823.96   1
   2   3  -8 50650.7 2258.76   5
   2  -3   8 52779.2 2139.72   1
  -2   3   7 4612.43 684.173   5
   2  -3   7 4681.25 603.068   1
   2  -3   7 4774.87 683.821   2
  -2   3   7 4681.29 496.102   1
   2   3  -7 3889.01 543.771   4
   2   3  -7 4021.52 613.872   5
   2   3  -6 5290.33 684.215   5
  -2   3   6 5960.50 751.025   5
   2  -3   6 5561.70 727.976   2
   2   3  -6 5067.75 627.299   4
  -2  -3  -6 4889.68 313.542   2
  -2   3   5 1600.42 378.076   5
   2   3  -5 1549.54 350.323   5
  -2  -3  -5 1642.56 197.117   2
   2  -3   5 1993.79 437.277   2
   2   3  -5 2323.95 420.910   4
   2   3  -4 35531.9 1649.88   5
   2  -3   4 37805.1 1855.98   2
  -2  -3  -4 36282.8 1045.61   2
   2   3  -4 33662.0 1658.07   4
  -2   3   4 40359.9 1822.67   5
   2   3  -3 84011.6 2640.35   5
   2  -3   3 85959.6 2834.05   2
  -2  -3  -3 89323.0 1956.39   2
  -2   3   3 84184.2 2761.36   5
   2   3  -3 83653.8 2722.12   4
   2   3  -2 28996.4 1467.11   5
   2  -3   2 31200.4 1637.55   2
   2   3  -2 28398.3 1517.69   4
  -2   3   2 29846.0 1550.71   5
  -2   3   1 491.292 186.931   5
   2   3  -1 1032.54 243.380   5
   2   3  -1 1116.93 295.495   4
   2   3   0 100951. 2900.71   5
  -2   3   0 101457. 2950.77   5
   2   3   0 101240. 3065.13   4
   2   3   1 785.222 260.242   5
  -2   3  -1 759.738 239.530   5
   2   3   1 966.602 304.741   4
  -2   3  -2 31220.8 1529.27   5
   2   3   2 31359.9 1642.72   4
   2   3   2 32938.9 1577.32   5
   2   3   3 94324.3 2974.67   4
   2   3   3 88501.1 2757.65   5
  -2   3  -4 36631.4 1681.83   5
   2   3   4 33745.3 1741.84   4
  -2   3  -5 1318.76 326.970   5
   2   3   5 932.435 246.587   5
   2   3   5 1629.18 400.615   4
  -2   3  -6 5927.03 696.958   5
   2   3   6 5440.60 693.603   4
   2   3   6 5221.61 665.920   5
  -2   3  -7 5500.85 702.864   5
   2   3   7 5390.23 721.176   4
  -2  -3   7 4448.29 566.376   1
   2   3   7 5374.67 706.684   5
  -2   3  -8 55404.5 2341.15   5
   2   3   8 55471.1 2295.14   4
  -2  -3   8 50771.7 2044.05   1
   2   3   8 55721.6 2401.91   5
  -2   3  -9 19726.6 1424.36   5
   2   3   9 20838.7 1489.24   5
  -2  -3   9 19651.9 1260.28   1
   2   3   9 20809.3 1415.54   4
   2   3  10 17025.8 1395.58   5
  -2  -3  10 15036.6 1142.04   1
   2   3  10 14505.3 1178.66   4
  -2  -3  11 6528.41 787.961   1
   2   3  11 7147.85 838.912   4
   2   3  11 7101.38 929.763   5
  -2  -3  12 11306.3 1102.48   1
   2   3  12 10783.3 1046.74   4
   2   3  12 12232.6 1260.58   5
  -2  -3  13 21606.4 1560.11   1
   2   3  13 22390.9 1517.16   4
   2   3  13 20651.1 1680.56   5
   2   3  14 1986.52 511.732   5
  -2  -3  14 2481.58 570.311   3
   2   3  14 1989.36 443.186   4
   2   3  14 1219.89 493.479   1
  -2  -3  14 1182.64 367.247   1
   2   3  15 10764.8 1059.93   4
  -2  -3  15 11312.0 1222.62   1
   2   3  15 11928.6 1423.77   5
   2   3  15 11922.1 1266.83   1
  -2  -3  16 26337.7 1943.22   1
   2   3  16 26074.9 1682.25   4
   2   3  16 25701.7 2159.66   5
   2   3  16 25912.0 1893.81   1
   2   3  17 3742.79 880.032   5
  -2  -3  17 3084.93 693.518   1
   2   3  17 2829.82 701.850   1
   2   3  17 3676.96 636.474   4
   2   3  18 2836.57 748.618   5
  -2  -3  18 2988.53 692.565   1
   2   3  18 2055.14 621.910   1
   2   3  19 4037.13 985.051   5
  -2  -3  19 4997.45 939.435   1
   2   3  19 3518.95 780.834   1
   2   3  20 17738.3 2041.16   5
  -2  -3  20 13685.4 1581.51   1
   2   3  20 13147.7 1516.13   1
  -2  -3  21 4092.10 946.967   1
   2   3  21 2780.51 843.307   1
   2   3  21 3678.67 980.413   5
   2   3  22 3626.96 1025.39   1
   2   3  22 7152.43 1359.85   5
   2   3  23 1025.26 475.467   1
   2  -4  21 965.737 499.840   1
   2  -4  20 16426.8 1757.84   1
   2  -4  19 10062.8 1362.33   1
   2  -4  19 9321.44 1333.50   2
  -2   4  19 10596.0 1564.93   5
  -2   4  18 3780.35 934.725   5
   2  -4  18 2510.78 653.896   1
   2  -4  18 2039.59 627.544   2
  -2   4  17 5723.40 1126.60   5
   2  -4  17 5818.88 1014.22   2
   2  -4  17 5527.05 928.428   1
  -2   4  16 5061.92 986.321   5
   2  -4  16 5595.58 949.329   2
   2  -4  16 4224.13 813.374   1
   2  -4  15 10072.5 1160.26   1
   2  -4  15 9261.32 1211.63   2
  -2   4  15 12485.1 1517.64   5
   2  -4  14 15121.2 1515.51   2
   2  -4  14 14527.4 1357.73   1
  -2   4  14 17027.9 1713.94   5
   2  -4  13 12351.0 1334.93   2
   2  -4  13 12846.3 1229.16   1
  -2   4  13 13013.1 1462.38   5
  -2   4  12 127.152 203.099   5
   2  -4  12 709.903 341.692   2
   2  -4  12 429.042 250.374   1
   2  -4  11 55823.3 2746.61   2
   2  -4  11 56903.3 2476.59   1
  -2   4  11 60934.1 3017.71   5
   2  -4  10 53473.1 2633.32   2
  -2   4  10 55250.7 2816.66   5
   2   4 -10 53629.2 2679.86   5
   2  -4  10 52586.3 2303.04   1
  -2   4   9 2098.70 553.520   5
   2   4  -9 2344.60 533.873   5
   2  -4   9 1571.78 385.723   1
   2  -4   9 987.677 380.612   2
   2   4  -8 29150.3 1885.56   5
  -2   4   8 29284.0 1927.23   5
  -2   4   8 34247.1 1396.09   1
   2  -4   8 27646.2 1793.90   2
   2   4  -7 55334.1 2553.92   5
  -2   4   7 63299.8 1861.16   1
   2  -4   7 56688.2 2553.28   2
  -2   4   7 55033.5 2609.07   5
   2   4  -6 20263.9 1476.36   5
  -2   4   6 22903.7 1007.69   1
   2  -4   6 19484.4 1473.29   2
  -2   4   6 21046.5 1569.06   5
   2  -4   5 46143.2 2252.80   2
  -2   4   5 50135.5 1458.52   1
  -2   4   5 45849.8 2297.28   5
   2   4  -4 9140.56 947.913   5
   2  -4   4 8855.92 943.458   2
   2   4  -4 7884.20 885.819   4
  -2   4   4 8311.35 969.747   5
   2  -4   3 36456.8 1914.56   2
   2   4  -3 37185.2 1926.57   4
   2   4  -3 34950.1 1885.05   5
  -2   4   3 37389.9 2021.88   5
   2   4  -2 124678. 3783.01   5
  -2   4   2 135390. 3992.49   5
   2   4  -2 137926. 4008.58   4
   2   4  -1 50350.1 2263.61   5
  -2   4   1 52329.6 2354.02   5
   2   4  -1 57235.8 2441.40   4
  -2   4   0 628.146 227.979   5
   2   4   0 373.713 202.159   5
   2   4   1 48915.0 2248.33   5
  -2   4  -1 52413.1 2341.77   5
   2   4   1 56323.2 2441.98   4
   2   4   2 128531. 3869.87   5
  -2   4  -2 129566. 3840.95   5
   2   4   2 137748. 4004.26   4
   2   4   3 39918.8 2049.60   5
  -2   4  -3 37217.1 1976.21   5
   2   4   3 37546.5 1976.49   4
  -2   4  -4 9045.71 954.899   5
   2   4   4 9377.12 989.536   4
   2   4   4 8282.83 943.563   5
  -2   4  -5 44645.8 2164.24   5
   2   4   5 45008.6 2198.44   4
  -2  -4   5 46272.6 1789.45   1
   2   4   5 46309.5 2309.02   5
  -2   4  -6 19914.2 1440.83   5
  -2  -4   6 22231.3 1265.05   1
   2   4   6 22402.6 1542.53   4
   2   4   6 19664.7 1493.66   5
  -2   4  -7 52825.8 2471.12   5
   2   4   7 59098.8 2697.67   5
  -2  -4   7 60394.9 2199.04   1
   2   4   7 54203.3 2445.47   4
  -2   4  -8 31601.1 1919.49   5
  -2  -4   8 29825.9 1584.66   1
   2   4   8 29971.1 1826.26   4
   2   4   8 30793.5 1986.55   5
   2   4   9 2439.95 587.100   5
  -2  -4   9 2680.17 492.042   1
  -2   4  -9 2831.36 612.870   5
   2   4   9 2240.55 510.016   4
  -2  -4  10 53821.7 2360.60   1
   2   4  10 53993.5 2485.95   4
   2   4  10 56229.9 2779.63   5
  -2   4 -10 57105.3 2748.79   5
  -2  -4  11 60323.2 2588.77   1
  -2   4 -11 56774.6 2850.50   5
   2   4  11 59306.5 2640.50   4
   2   4  11 61809.5 2984.18   5
   2   4  12 819.527 334.246   5
  -2  -4  12 270.453 204.717   1
   2   4  12 591.170 289.276   4
  -2  -4  13 12901.2 1278.38   1
   2   4  13 13515.9 1230.61   4
   2   4  13 15099.9 1570.85   5
   2   4  14 14681.3 1303.18   4
  -2  -4  14 14900.0 1414.70   1
   2   4  14 15978.1 1644.76   5
   2   4  15 9568.73 1054.63   4
  -2  -4  15 10440.7 1244.05   1
   2   4  16 5362.77 1061.04   5
  -2  -4  16 6411.25 1020.40   1
   2   4  16 3991.83 697.255   4
   2   4  17 4637.67 1047.81   5
  -2  -4  17 6952.99 1082.58   1
   2   4  18 3320.02 850.574   5
  -2  -4  18 2558.68 683.878   1
  -2  -4  19 11273.6 1444.51   1
   2   4  19 12110.4 1663.73   5
   2   4  20 17587.7 2098.35   5
  -2  -4  20 18052.8 1844.78   1
  -2   5  17 9917.37 1502.43   5
   2  -5  17 8642.73 1268.11   2
  -2   5  16 6965.47 1238.01   5
   2  -5  16 6494.49 1107.69   2
  -2   5  15 4008.62 944.410   5
   2  -5  15 3700.96 825.255   2
   2  -5  14 6864.30 1089.63   2
  -2   5  14 8151.69 1261.24   5
   2  -5  13 7674.01 1105.74   2
  -2   5  13 9621.97 1332.30   5
   2  -5  12 26226.8 2024.64   2
  -2   5  12 24570.3 2087.36   5
   2   5 -11 28414.3 2164.26   5
   2  -5  11 27983.9 2048.72   2
  -2   5  11 27991.6 2182.07   5
   2   5 -10 10828.9 1300.04   5
  -2   5  10 8548.87 1187.25   5
   2  -5  10 10346.6 1216.41   2
   2  -5   9 19214.9 1615.25   2
   2   5  -9 17644.3 1636.27   5
  -2   5   9 17661.0 1677.46   5
  -2   5   8 608.955 329.248   5
   2   5  -8 856.800 323.634   5
   2  -5   8 609.670 287.633   2
  -2   5   7 1455.98 509.713   5
   2   5  -7 1124.74 416.031   5
   2  -5   7 911.929 370.043   2
   2   5  -6 14901.3 1404.77   5
   2  -5   6 16053.5 1423.03   2
  -2   5   6 14599.9 1445.59   5
   2   5  -5 2610.78 557.449   5
  -2   5   5 2075.51 563.462   5
   2  -5   5 2805.59 581.112   2
   2   5  -4 15802.3 1419.71   5
   2  -5   4 16314.9 1364.29   2
  -2   5   4 15742.0 1455.78   5
  -2   5   3 6936.99 948.481   5
   2   5  -3 5367.40 825.066   5
  -2   5   2 11057.0 1188.65   5
   2   5  -2 11146.2 1208.07   5
  -2   5   1 15596.5 1408.61   5
   2   5  -1 16196.7 1421.37   5
  -2   5   0 27682.6 1887.35   5
   2   5   0 27670.2 1867.20   5
   2   5   0 30380.5 1909.99   4
   2   5   1 15125.4 1391.02   5
  -2   5  -1 14938.0 1358.00   5
   2   5   1 14911.3 1334.91   4
   2   5   2 9352.48 1104.42   5
  -2   5  -2 10019.1 1116.58   5
   2   5   2 9733.00 1070.82   4
   2   5   3 6153.49 898.066   5
  -2   5  -3 5788.67 837.258   5
   2   5   3 6986.85 898.582   4
   2   5   4 17906.2 1547.61   5
  -2   5  -4 14670.8 1373.32   5
   2   5   4 15149.8 1356.04   4
   2   5   5 3582.51 701.226   5
  -2   5  -5 2861.08 591.561   5
   2   5   5 2006.13 515.125   4
  -2   5  -6 13378.7 1319.72   5
  -2  -5   6 15194.8 1065.87   1
   2   5   6 17817.5 1523.62   4
   2   5   6 16392.6 1522.65   5
  -2   5  -7 642.483 333.906   5
  -2  -5   7 1175.62 315.869   1
   2   5   7 1212.75 420.589   4
   2   5   7 391.478 320.250   5
   2   5   8 1223.57 409.942   5
  -2   5  -8 826.858 330.052   5
   2   5   8 1426.45 440.730   4
  -2  -5   8 853.280 312.089   1
  -2  -5   9 20189.8 1411.14   1
  -2   5  -9 20171.3 1708.50   5
   2   5   9 18912.9 1592.05   4
   2   5   9 19983.6 1757.74   5
  -2   5 -10 11119.5 1290.21   5
  -2  -5  10 12630.8 1159.38   1
   2   5  10 9823.50 1165.75   4
   2   5  10 11427.8 1360.69   5
  -2   5 -11 32154.7 2279.72   5
   2   5  11 30743.2 2031.31   4
  -2  -5  11 33846.4 1996.37   1
   2   5  11 34645.9 2428.70   5
  -2   5 -12 25158.2 2034.95   5
   2   5  12 26556.7 1903.43   4
   2   5  12 25406.0 2138.71   5
  -2  -5  12 27976.3 1907.77   1
   2   5  13 9249.62 1303.88   5
   2   5  13 9758.72 1153.72   4
  -2  -5  13 8155.73 1069.92   1
   2   5  14 7183.24 969.986   4
   2   5  14 8669.15 1293.79   5
  -2  -5  14 6473.01 982.687   1
   2   5  15 3688.54 874.199   5
  -2  -5  15 4346.42 817.119   1
   2   5  15 3907.02 754.369   4
   2   5  16 6090.30 1136.16   5
  -2  -5  16 7940.00 1116.74   1
  -2  -5  17 11611.5 1397.16   1
   2   5  17 12030.7 1628.79   5
  -2  -5  18 13221.9 1497.87   1
   2   5  18 15418.5 1910.09   5
   2  -6  14 3006.54 757.822   2
   2  -6  13 10624.2 1392.80   2
  -2   6  13 10929.4 1557.25   5
  -2   6  12 9040.63 1383.66   5
   2   6 -12 8011.11 1258.16   5
   2  -6  12 9274.62 1281.93   2
  -2   6  11 1260.48 499.527   5
   2   6 -11 1480.93 570.077   5
   2  -6  11 1305.53 495.128   2
  -2   6  10 5999.77 1082.19   5
   2   6 -10 6595.22 1098.21   5
   2  -6  10 7211.18 1092.39   2
   2   6  -9 14785.9 1635.16   5
   2  -6   9 17534.1 1666.22   2
  -2   6   9 19105.6 1908.81   5
  -2   6   8 933.220 442.431   5
   2   6  -8 2065.96 604.615   5
   2  -6   8 1563.54 505.316   2
   2   6  -7 20037.0 1850.27   5
   2  -6   7 20163.4 1701.07   2
  -2   6   7 20651.0 1932.42   5
  -2   6   6 1561.95 531.366   5
   2   6  -6 1103.44 408.549   5
   2  -6   6 2188.95 569.482   2
  -2   6   5 8639.68 1221.39   5
   2   6  -5 9339.36 1229.13   5
   2  -6   5 9289.45 1120.35   2
  -2   6   4 13212.8 1474.90   5
   2   6  -4 13044.2 1433.77   5
  -2   6   3 7649.95 1097.27   5
   2   6  -3 8517.55 1156.07   5
   2   6  -2 3123.86 701.106   5
  -2   6   2 3073.76 684.316   5
  -2   6   1 17559.7 1688.62   5
   2   6  -1 18924.1 1734.77   5
  -2   6   0 60.1528 341.854   5
   2   6   0-217.600 382.294   5
   2   6   1 18798.3 1726.81   5
  -2   6  -1 20890.0 1825.23   5
   2   6   2 4116.83 832.884   5
  -2   6  -2 2920.20 662.977   5
  -2   6  -3 7900.00 1117.34   5
   2   6   3 10222.4 1295.81   5
   2   6   4 12027.1 1385.89   5
  -2   6  -4 12776.3 1420.50   5
   2   6   5 9974.40 1293.98   5
  -2   6  -5 9555.40 1243.20   5
   2   6   6 631.495 343.434   5
  -2   6  -6 1602.18 538.777   5
   2   6   7 18034.8 1796.08   5
  -2   6  -7 17308.9 1710.60   5
   2   6   8 2030.53 608.363   5
  -2   6  -8 1130.90 387.343   5
  -2   6  -9 18669.2 1802.35   5
   2   6   9 19165.4 1912.15   5
   2   6  10 6602.45 1142.47   5
  -2   6 -10 6096.52 1052.85   5
   2   6  11 1162.41 555.064   5
  -2   6 -11 637.280 319.847   5
   2   6  12 9476.99 1409.21   5
  -2   6 -12 8599.63 1279.71   5
  -2   6 -13 10994.6 1466.91   5
   2   6  13 13030.2 1669.48   5
   2   6  14 3217.92 863.418   5
   2   7  -6 4946.02 1035.58   5
   2   7  -5 7477.22 1173.64   5
  -2   7   5 8964.86 1362.13   5
   2   7  -4 2727.56 730.398   5
  -2   7   4 2478.73 704.153   5
  -2   7   3 6233.75 1114.45   5
   2   7  -3 6473.38 1121.32   5
  -2   7   2 10404.2 1447.77   5
   2   7  -2 13781.1 1616.72   5
  -2   7   1 7152.23 1162.05   5
   2   7  -1 6987.66 1185.49   5
  -2   7   0-50.5086 285.831   5
   2   7   0-760.187 567.954   5
   2   7   1 5258.71 1016.85   5
  -2   7  -1 5920.32 1084.71   5
   2   7   2 11041.1 1466.90   5
  -2   7  -2 9877.82 1368.25   5
   2   7   3 6396.88 1095.93   5
  -2   7  -3 5032.61 989.468   5
   2   7   4 1911.59 651.799   5
  -2   7  -4 2149.11 647.256   5
   2   7   5 5043.71 1020.28   5
  -2   7  -5 6347.23 1080.64   5
   2   7   6 6590.52 1154.91   5
  -2   7  -6 5635.02 1036.81   5
  -3   0   0 389.767 368.776   3
   3   0   0 447.857 240.579   4
   3   0   1 177686. 4449.50   4
   3   0  -1 176520. 4269.10   4
  -3   0   1 187533. 4817.81   3
  -3   0  -1 179248. 4765.62   3
  -3   0   2 56334.9 1055.16   5
   3   0   2 74075.0 2663.97   4
   3   0  -2 74589.8 2449.08   4
  -3   0   2 52724.5 1007.14   5
  -3   0   2 77212.4 2876.30   3
  -3   0  -2 77904.0 2896.71   3
  -3   0   3 10146.7 498.601   5
  -3   0   3 10663.0 1067.86   3
   3   0   3 10242.9 1011.22   4
   3   0  -3 10643.2 864.543   4
  -3   0  -3 10759.5 1064.99   3
  -3   0   4 100091. 2166.49   5
   3   0   4 98463.2 3286.50   4
   3   0  -4 90775.0 2672.42   4
  -3   0   4 97571.2 3366.89   3
  -3   0  -4 96963.8 3308.72   3
  -3   0   5 24232.4 1058.19   5
   3   0   5 24158.4 1584.04   4
   3   0  -5 23755.3 1249.54   4
  -3   0   5 25569.5 1626.72   3
  -3   0  -5 23148.2 1582.62   3
   3   0   6 21373.1 776.241   5
   3   0   6 25110.1 1656.32   4
   3   0  -6 24604.5 1247.59   4
  -3   0   6 24841.5 1649.77   3
  -3   0  -6 24135.5 1556.59   3
   3   0   7 34879.3 1169.09   5
   3   0   7 41806.4 2191.75   4
   3   0  -7 44259.1 1676.12   4
  -3   0   7 49311.7 2317.01   3
  -3   0  -7 38804.3 2021.94   3
   3   0   8 28840.9 1735.24   2
   3   0   8 33832.4 1997.99   4
   3   0  -8 29890.0 1272.96   4
   3   0   8 27668.3 1122.29   5
  -3   0   8 36418.7 1995.66   3
  -3   0  -8 28290.9 1722.19   3
   3   0   9 28112.7 1716.55   2
   3   0   9 31065.0 1943.44   4
   3   0  -9 26558.3 1162.74   4
  -3   0  -9 28750.6 1709.66   3
   3   0  10 105470. 3579.23   2
   3   0  10 115563. 3969.88   4
   3   0 -10 104013. 2457.50   4
  -3   0 -10 105345. 3475.55   3
  -3   0  10 114466. 3689.23   3
  -3   0  11 3766.64 698.494   3
   3   0 -11 4248.45 415.576   4
   3   0  11 5581.13 860.532   4
   3   0  11 4312.23 730.924   2
  -3   0 -11 4205.43 700.062   3
   3   0  12 159968. 4927.49   4
   3   0  12 159150. 4670.33   2
  -3   0  12 144233. 4168.51   1
  -3   0 -12 145993. 4273.36   3
  -3   0  13 4852.86 740.002   1
   3   0  13 4583.18 825.905   4
   3   0  13 4169.47 722.775   2
  -3   0 -13 5097.82 752.642   3
   3   0  13 4128.47 763.782   1
  -3   0  14 494.471 285.559   1
  -3   0 -14 638.514 281.085   3
   3   0  14 841.661 370.717   4
   3   0  14 708.109 331.905   1
   3   0  14 1041.47 374.371   2
  -3   0  15 17393.6 1495.28   1
   3   0  15 18964.9 1697.50   4
   3   0  15 18164.7 1544.58   2
  -3   0 -15 18610.1 1331.47   3
   3   0  15 19552.0 1718.87   1
  -3   0  16 3833.23 720.939   1
   3   0  16 5706.17 931.715   4
   3   0  16 5406.94 947.288   1
   3   0  16 3699.28 756.076   2
  -3   0  17-38.6136 212.355   1
   3   0  17 3.19148 306.101   4
   3   0  17 165.183 369.228   1
   3   0  17 680.554 369.331   2
  -3   0  18 34257.9 2308.71   1
   3   0  18 35005.9 2328.03   2
   3   0  18 29972.5 2383.43   1
   3   0  19 4624.19 890.281   4
   3   0  19 3561.87 787.048   2
   3   0  19 3664.99 941.837   1
  -3   0  19 2394.64 678.428   1
   3   0  20 72162.4 3461.58   4
   3   0  20 61689.3 3258.37   2
   3   0  20 62466.3 3546.69   1
  -3   0  20 66405.5 3466.79   1
  -3   0  21 2636.36 782.816   1
   3   0  21 2371.56 675.854   2
   3   0  21 3465.23 926.967   1
   3   0  22 8343.31 1245.01   2
  -3   0  22 8124.80 1329.65   1
   3   0  23 16654.1 1783.97   2
   3   0  24 5142.39 994.144   2
  -3   1  22 8752.97 1341.03   1
   3  -1  22 5894.22 1096.03   2
   3  -1  21 13600.8 1577.23   4
   3  -1  21 10987.0 1448.36   2
   3  -1  21 11485.2 1534.89   1
  -3   1  21 11039.2 1456.12   1
  -3   1  20 2347.76 715.110   1
   3  -1  20 2098.51 648.111   4
   3  -1  20 1180.87 593.406   2
   3  -1  20 1888.48 640.440   1
   3  -1  19 20511.3 1891.37   4
   3  -1  19 16498.2 1688.64   2
  -3   1  19 16526.4 1632.40   1
   3  -1  19 16976.3 1882.88   1
  -3   1  18 8305.50 1190.17   1
   3  -1  18 9095.55 1235.29   4
   3  -1  18 8371.65 1186.73   2
   3  -1  18 8594.45 1266.84   1
  -3   1  17 1887.60 542.575   1
   3  -1  17 1962.59 635.413   4
   3  -1  17 1853.75 589.548   2
   3  -1  17 1705.90 583.670   1
  -3   1  16 5844.62 880.825   1
   3  -1  16 6032.10 1024.51   4
   3  -1  16 6094.06 987.601   1
   3  -1  16 5170.53 867.789   2
  -3   1  15 17039.9 1504.95   1
   3  -1  15 19131.8 1746.85   4
   3  -1  15 17318.3 1592.66   2
  -3  -1 -15 18906.6 1402.49   3
   3  -1  15 17234.2 1661.49   1
   3  -1  14 368.204 395.531   4
   3  -1  14-239.020 309.222   1
   3  -1  14 166.870 161.226   2
  -3   1  14 110.173 204.098   1
  -3  -1 -14 91.8884 175.177   3
   3  -1  13 25035.2 1963.10   4
   3  -1  13 20607.8 1665.06   2
  -3   1  13 20391.6 1508.41   1
  -3  -1 -13 23738.6 1611.12   3
   3  -1  13 22859.8 1781.06   1
   3  -1  12 37472.1 2342.14   4
   3  -1  12 36520.8 2203.83   2
  -3   1  12 34897.3 1885.39   1
   3   1 -12 37897.4 1400.80   4
   3  -1  12 35039.4 2218.67   1
  -3  -1 -12 39947.3 2118.57   3
   3  -1  11 25682.8 1914.59   4
   3  -1  11 26164.2 1836.22   2
   3   1 -11 24957.7 1157.23   4
  -3   1  11 24803.9 1537.24   1
  -3  -1 -11 28955.5 1872.95   3
   3  -1  10 66766.1 3078.16   4
   3  -1  10 66476.6 2910.26   2
   3   1 -10 64114.5 2015.42   4
  -3  -1 -10 73817.3 3018.83   3
   3  -1   9 19106.9 1576.00   4
   3  -1   9 18775.9 1484.26   2
   3   1  -9 16625.6 981.017   4
  -3  -1  -9 17120.6 1411.50   3
   3  -1   8 21219.7 1652.07   4
   3  -1   8 18062.2 1421.18   2
   3   1  -8 19223.0 1075.25   4
  -3  -1  -8 19063.5 1488.84   3
   3  -1   7 109250. 2496.48   5
   3  -1   7 115442. 3724.45   2
   3   1  -7 114482. 2980.56   4
   3  -1   6 25530.6 978.828   5
   3  -1   6 28189.3 1722.44   2
   3  -1   6 26790.3 1781.51   4
   3   1  -6 28020.4 1349.54   4
  -3  -1  -6 28401.7 1751.59   3
   3  -1   5 39022.4 2122.36   4
   3   1  -5 36574.0 1602.28   4
  -3   1   5 36125.8 1394.69   5
   3  -1   5 35553.6 1096.30   5
  -3  -1  -5 37100.2 2026.37   3
  -3  -1  -4 41196.6 2082.41   3
   3  -1   4 44130.8 2208.81   4
   3   1  -4 41170.0 1728.29   4
  -3   1   4 39362.4 1335.97   5
   3  -1   4 38988.2 1071.25   5
  -3  -1  -3 6166.40 793.245   3
   3  -1   3 5325.31 772.147   4
   3   1  -3 5831.88 673.801   4
  -3   1   3 5960.74 452.406   5
  -3   1   3 6438.76 833.939   3
   3  -1   3 5233.03 323.421   5
  -3   1   2 931.391 388.592   3
  -3   1   2 826.908 159.655   5
  -3  -1  -2 1066.95 371.218   3
   3  -1   2 1231.13 383.433   4
   3   1  -2 1116.05 332.535   4
  -3  -1  -1 148739. 4206.30   3
   3  -1   1 150910. 4108.45   4
   3   1  -1 158435. 3984.05   4
  -3   1   1 139612. 2420.66   5
  -3   1   1 166828. 4536.05   3
  -3  -1   0 61332.6 2537.14   3
  -3   1   0 54242.1 1156.86   5
   3  -1   0 60115.6 2415.80   4
   3   1   0 59183.4 2307.19   4
  -3   1  -1 144270. 2290.18   5
   3  -1  -1 163866. 4136.32   4
   3   1   1 156286. 4089.82   4
  -3  -1   1 146043. 2455.66   5
  -3  -1   1 154839. 4308.43   3
  -3   1  -2 1182.19 388.618   3
  -3  -1   2 660.426 126.912   5
  -3  -1   2 1024.28 361.080   3
   3   1   2 485.295 77.4542   5
   3  -1  -2 760.031 299.984   4
   3   1   2 643.425 251.287   4
  -3  -1   3 5974.42 441.753   5
   3   1   3 5537.48 305.546   5
   3  -1  -3 7070.91 751.242   4
   3   1   3 6963.72 820.340   4
  -3  -1   3 7146.21 868.975   3
  -3   1  -3 6266.04 819.829   3
  -3  -1   4 42316.9 1391.62   5
   3  -1  -4 41259.7 1807.28   4
   3   1   4 42688.2 2118.48   4
  -3   1  -4 44667.7 2204.67   3
  -3  -1   4 47672.1 2275.91   3
   3   1   4 38930.4 1054.51   5
   3  -1  -5 36683.5 1622.18   4
   3   1   5 40777.3 2086.79   4
  -3   1  -5 37859.0 2047.96   3
   3   1   5 36085.0 1113.58   5
   3   1   6 27837.0 1079.29   5
   3  -1  -6 26773.4 1342.81   4
   3   1   6 32326.1 1870.18   4
  -3   1  -6 28234.8 1729.29   3
  -3  -1   6 32313.2 1939.51   3
   3  -1  -7 120535. 3024.87   4
   3   1   7 123409. 3922.25   4
  -3   1  -7 125889. 3817.21   3
   3   1   7 122757. 2784.83   5
   3   1   8 20296.3 1106.23   5
   3  -1  -8 19736.5 1062.23   4
   3   1   8 21138.5 1564.69   4
  -3  -1   8 22392.7 1566.23   3
   3  -1  -9 18088.0 944.618   4
   3   1   9 21375.5 1594.55   4
  -3  -1   9 20516.4 1482.08   3
   3   1  10 65931.6 2653.39   2
   3   1  10 66784.2 2929.98   4
   3  -1 -10 70238.7 1910.62   4
  -3  -1  10 64386.0 2721.04   3
   3   1  11 26381.8 1645.66   2
   3   1  11 29463.7 1946.91   4
   3  -1 -11 27559.0 1040.19   4
  -3  -1  11 25996.0 1638.45   1
  -3  -1  11 28448.8 1715.04   3
   3   1  12 38527.1 2046.67   2
   3   1  12 41342.4 2356.78   4
  -3  -1  12 36102.3 1976.33   3
   3   1  13 22764.0 1607.11   2
   3   1  13 26763.3 1926.80   4
  -3  -1  13 20840.9 1555.88   1
  -3  -1  13 24808.5 1637.19   3
  -3  -1  14-89.3374 228.471   1
  -3  -1  14 379.349 291.701   3
   3   1  14 164.348 248.411   4
   3   1  14-386.820 246.096   2
  -3  -1  15 15094.5 1469.90   1
   3   1  15 18747.1 1528.98   2
   3   1  15 20602.2 1740.47   4
   3   1  15 15831.6 1588.16   1
   3   1  16 5626.06 990.731   1
  -3  -1  16 6015.62 881.273   1
   3   1  16 6540.58 920.076   2
   3   1  16 7532.94 1060.37   4
  -3  -1  17 1050.35 469.279   1
   3   1  17 58.6384 257.800   1
   3   1  17 1541.18 498.117   4
   3   1  17 1551.80 433.375   2
  -3  -1  18 10197.4 1244.01   1
   3   1  18 10230.1 1192.96   2
   3   1  18 11684.4 1340.02   4
   3   1  18 10328.5 1350.11   1
  -3  -1  19 15999.0 1698.79   1
   3   1  19 15564.6 1523.18   2
   3   1  19 13681.7 1749.86   1
  -3  -1  20 2047.12 617.582   1
   3   1  20 2796.84 783.936   1
   3   1  20 2525.26 632.289   4
   3   1  20 1617.42 515.215   2
  -3  -1  21 10008.8 1422.45   1
   3   1  21 10626.7 1457.22   1
   3   1  22 5254.13 1094.84   1
  -3   2  22 9132.84 1378.53   1
  -3   2  21 5990.94 1087.96   1
   3  -2  21 4897.44 1020.60   4
   3  -2  21 6146.25 1119.76   2
   3  -2  21 4556.05 993.397   1
   3  -2  20 6373.51 1177.76   4
   3  -2  20 5427.63 1022.79   2
   3  -2  20 6321.94 1232.69   1
  -3   2  20 8545.94 1242.76   1
  -3   2  19 5763.71 982.328   1
   3  -2  19 6239.11 1094.96   4
   3  -2  19 5316.28 999.007   2
   3  -2  19 4937.86 1069.39   1
   3  -2  18 18891.3 1858.95   4
   3  -2  18 18410.3 1806.13   2
  -3   2  18 16029.8 1606.60   1
   3  -2  18 18072.6 1796.16   1
   3  -2  17 1620.90 553.150   4
   3  -2  17 1966.67 660.450   1
   3  -2  17 2018.81 621.420   2
  -3   2  17 1496.99 496.914   1
  -3   2  16 11746.7 1242.59   1
   3  -2  16 12723.7 1458.35   4
   3  -2  16 11736.1 1390.13   2
   3  -2  16 11923.4 1402.11   1
  -3   2  15 7665.47 964.161   1
   3  -2  15 8229.96 1137.77   2
   3  -2  15 8153.05 1099.16   1
  -3  -2 -15 8430.48 1005.74   3
  -3  -2 -14 8761.70 1003.63   3
  -3   2  14 8659.16 1017.67   1
   3  -2  14 9127.83 1176.58   2
   3  -2  14 9708.18 1179.86   1
  -3  -2 -13 38520.4 2156.74   3
  -3   2  13 37288.5 2036.82   1
   3  -2  13 38265.6 2367.49   2
   3  -2  13 37258.8 2315.78   1
  -3  -2 -12 43434.1 2400.70   3
   3  -2  12 39447.3 2387.51   2
  -3   2  12 36605.2 1926.37   1
  -3  -2 -11 8200.15 1106.57   3
   3  -2  11 7112.66 1003.14   2
  -3   2  11 6616.90 804.402   1
   3   2 -11 5655.24 650.218   4
   3  -2  10 26532.0 1892.70   2
   3   2 -10 25534.4 1358.68   4
  -3   2  10 27161.0 1700.68   5
   3  -2   9 38212.0 2232.61   2
   3   2  -9 37608.6 1677.91   4
  -3   2   9 38101.4 1948.77   5
  -3  -2  -8 8377.03 1087.26   3
   3  -2   8 5495.93 828.170   2
   3   2  -8 6258.07 675.577   4
  -3   2   8 6841.67 770.635   5
   3  -2   7 33789.0 2009.60   2
   3   2  -7 33838.9 1649.39   4
  -3   2   7 35142.7 1684.56   5
   3  -2   6 29010.3 1842.76   2
   3   2  -6 28457.1 1499.97   4
  -3   2   6 28223.0 1454.65   5
  -3  -2  -5 14921.2 1489.48   3
   3   2  -5 13859.3 1049.15   4
  -3   2   5 14518.0 982.451   5
  -3   2   4 47820.5 1759.15   5
   3   2  -4 52210.9 2122.99   4
  -3   2   3 272.302 114.842   5
   3   2  -3 494.435 156.478   5
   3   2  -3 500.924 244.485   4
   3   2  -2 64862.5 1914.52   5
   3   2  -2 69525.1 2532.01   4
   3  -2   2 73600.5 2010.72   5
  -3   2   2 71685.7 2075.63   5
   3   2  -1 15250.4 817.318   5
   3   2  -1 15152.4 1141.51   4
  -3   2   1 16168.3 887.911   5
   3  -2   1 17633.2 928.396   5
  -3   2   0 173.954 80.2332   5
  -3  -2   0 493.906 242.992   3
   3   2   0 295.873 115.295   5
   3   2   0 359.777 237.134   4
  -3   2  -1 16347.2 860.705   5
   3   2   1 15443.9 810.812   5
   3   2   1 17669.1 1259.66   4
   3   2   2 65607.5 1815.61   5
  -3   2  -2 64799.5 1854.85   5
   3   2   2 68344.0 2639.94   4
   3   2   3 603.185 142.223   5
  -3  -2   3 774.404 407.393   3
  -3   2  -3 579.580 140.491   5
   3   2   3 847.237 348.909   4
  -3   2  -4 56158.9 1798.15   5
   3   2   4 51990.0 2334.10   4
   3   2   4 51279.8 1672.54   5
  -3  -2   5 16988.4 1520.58   3
  -3   2  -5 13996.5 900.996   5
   3   2   5 13365.6 1165.26   4
   3   2   5 13855.1 863.894   5
   3   2   6 31067.8 1821.28   4
   3   2   6 29036.6 1338.50   5
   3   2   7 40037.6 2130.07   4
   3   2   7 38347.3 1626.32   5
  -3  -2   8 7518.21 940.618   3
   3  -2  -8 7204.24 704.549   4
   3   2   8 6693.96 880.995   4
   3   2   8 7283.00 722.586   5
  -3  -2   9 40244.0 2102.15   3
   3  -2  -9 41913.6 1677.16   4
   3   2   9 44304.5 1936.81   5
  -3  -2  10 26081.7 1676.57   3
   3  -2 -10 25271.8 1207.15   4
   3   2  10 30255.0 1920.98   4
   3   2  10 26041.8 1544.56   5
   3   2  11 8931.92 1047.59   4
  -3  -2  11 6128.39 807.363   1
   3   2  11 7089.59 846.968   5
  -3  -2  11 7810.21 963.900   3
   3   2  12 39044.0 2244.25   4
  -3  -2  12 36102.3 2047.30   1
   3   2  12 43687.8 2192.18   5
  -3  -2  12 43571.1 2277.82   3
   3   2  13 39172.5 2290.69   4
   3   2  13 44720.9 2330.43   5
  -3  -2  13 43070.7 2295.24   3
  -3  -2  14 7960.45 967.187   3
   3   2  14 9707.37 1019.37   2
  -3  -2  14 8597.28 1040.36   1
   3   2  14 10230.4 1154.08   4
   3   2  14 9329.31 1119.89   5
  -3  -2  15 7559.87 986.520   1
   3   2  15 6790.52 869.281   2
   3   2  15 7344.38 1003.01   4
   3   2  15 7617.79 1069.51   5
  -3  -2  16 10795.9 1346.23   1
   3   2  16 11990.4 1302.10   4
  -3  -2  17 1954.53 577.720   1
   3   2  17 1894.75 470.431   4
  -3  -2  18 16858.2 1726.72   1
   3   2  18 18761.0 1642.83   4
  -3  -2  19 5864.50 1032.01   1
   3   2  19 6242.82 941.310   4
  -3  -2  20 6884.28 1116.21   1
   3   2  21 4970.94 1073.64   1
   3  -3  21 5782.18 1129.38   4
  -3   3  20 709.647 440.297   5
  -3   3  20 1127.27 401.524   1
   3  -3  20 620.559 246.819   1
   3  -3  19 10333.9 1468.10   2
  -3   3  19 12031.6 1414.46   1
  -3   3  19 9559.17 1476.98   5
   3  -3  19 10371.5 1401.83   1
   3  -3  18 8096.29 1287.72   2
  -3   3  18 7441.50 1090.15   1
  -3   3  18 8600.83 1332.71   5
   3  -3  18 8209.34 1295.51   1
  -3   3  17 7351.25 1215.35   5
   3  -3  17 9169.64 1319.00   2
   3  -3  17 7686.20 1140.45   1
  -3   3  17 8975.97 1148.32   1
   3  -3  16 8417.26 1247.74   2
  -3   3  16 8329.38 1249.95   5
   3  -3  16 8041.29 1162.28   1
  -3   3  16 9272.42 1122.94   1
  -3   3  15 21887.6 1651.43   1
   3  -3  15 19353.6 1827.28   2
  -3   3  15 19459.7 1812.10   5
   3  -3  15 18432.4 1759.15   1
  -3  -3 -14 32274.0 2319.01   3
  -3   3  14 27088.0 1779.08   1
   3  -3  14 27681.4 2149.51   2
  -3   3  14 26829.8 2065.72   5
   3  -3  14 26283.8 2010.30   1
  -3   3  13 34058.0 1925.71   1
   3  -3  13 30998.5 2249.04   2
  -3   3  13 28679.4 2059.01   5
  -3   3  12 354.835 314.364   5
  -3  -3 -12 552.003 421.316   3
  -3   3  12 484.964 253.347   1
   3  -3  12-33.3498 253.017   2
   3  -3  11 16226.4 1593.67   2
  -3   3  11 15462.4 1222.55   1
  -3   3  11 16349.8 1431.86   5
  -3  -3 -10 17439.8 1713.76   3
   3  -3  10 15588.7 1520.56   2
  -3   3  10 16155.0 1188.34   1
   3   3 -10 14657.1 1153.72   4
  -3   3  10 13986.4 1311.04   5
  -3  -3  -9 12733.0 1459.30   3
   3  -3   9 11927.0 1301.09   2
   3   3  -9 10841.1 978.449   4
  -3   3   9 11383.4 971.295   1
  -3   3   9 11262.0 1129.35   5
   3  -3   8 57476.8 2851.70   2
   3   3  -8 58361.8 2391.73   4
  -3   3   8 60207.8 2587.81   5
   3  -3   7 70943.0 3113.87   2
   3   3  -7 69592.8 2635.77   4
  -3   3   7 70964.6 2713.54   5
   3   3  -6 45438.0 2026.65   5
   3  -3   6 49497.9 2525.32   2
   3   3  -6 49002.3 2197.11   4
  -3   3   6 49654.9 2173.07   5
   3   3  -5 95361.2 2986.85   5
   3   3  -5 102558. 3274.73   4
  -3   3   5 99985.3 3151.30   5
   3   3  -4 23021.8 1339.63   5
   3   3  -4 25712.0 1585.40   4
  -3   3   4 23675.9 1416.18   5
   3   3  -3 65101.6 2287.91   5
   3   3  -3 69602.2 2704.05   4
  -3   3   3 69428.6 2464.24   5
   3   3  -2 53045.3 1976.58   5
   3   3  -2 58141.3 2455.55   4
  -3   3   2 56994.5 2145.54   5
  -3   3   1 27819.8 1445.06   5
   3   3  -1 26298.9 1348.14   5
   3   3  -1 31002.6 1765.76   4
  -3   3   0 51052.5 1969.18   5
   3   3   0 49401.4 1908.04   5
   3   3   0 52987.8 2369.78   4
  -3   3  -1 28026.1 1415.17   5
   3   3   1 27706.3 1396.50   5
   3   3   1 27508.1 1698.13   4
   3   3   2 57276.0 2083.05   5
  -3   3  -2 61555.9 2168.63   5
   3   3   2 58543.1 2541.67   4
  -3   3  -3 66718.6 2286.51   5
   3   3   3 66021.1 2754.60   4
   3   3   3 64705.1 2242.98   5
   3   3   4 22107.5 1293.63   5
  -3   3  -4 21104.3 1237.41   5
   3   3   4 23330.9 1633.70   4
  -3   3  -5 103585. 3053.90   5
   3   3   5 99662.2 3543.29   4
   3   3   5 102654. 3063.31   5
  -3   3  -6 46804.5 2025.48   5
   3   3   6 46452.6 2376.64   4
   3   3   6 48794.6 2088.08   5
  -3   3  -7 72961.3 2656.15   5
   3   3   7 75078.8 3104.79   4
   3   3   7 76013.1 2724.31   5
   3   3   8 61573.5 2812.47   4
   3   3   8 62157.7 2535.32   5
   3   3   9 13000.9 1265.63   4
   3   3   9 10941.7 1042.27   5
   3   3  10 13668.8 1313.30   4
  -3  -3  10 13354.1 1183.45   1
   3   3  10 13480.2 1197.26   5
  -3  -3  11 20145.7 1748.07   3
   3   3  11 16098.5 1444.49   4
  -3  -3  11 16294.0 1354.74   1
   3   3  11 18014.3 1437.80   5
   3   3  12 673.905 277.358   5
  -3  -3  12 523.152 304.224   1
  -3  -3  12 705.082 445.995   3
   3   3  12 73.8951 243.314   4
  -3  -3  13 34555.8 2125.58   3
  -3  -3  13 30108.9 1981.07   1
   3   3  13 35126.5 2189.50   4
   3   3  13 34393.0 2170.78   5
  -3  -3  14 26001.2 1755.38   3
  -3  -3  14 28353.3 1946.70   1
   3   3  14 29344.8 2046.21   4
   3   3  14 30478.5 2097.34   5
  -3  -3  15 19291.1 1666.03   1
   3   3  15 20170.8 1695.79   4
   3   3  15 21461.5 1836.19   5
  -3  -3  16 8348.32 1120.85   1
   3   3  16 9751.84 1198.00   4
   3   3  16 10029.0 1280.25   5
  -3  -3  17 8060.46 1176.24   1
   3   3  17 9886.84 1213.53   4
   3   3  17 9274.05 1279.84   5
  -3  -3  18 8909.64 1242.41   1
   3   3  18 10651.5 1260.45   4
   3   3  18 11399.5 1440.13   5
   3   3  19 10713.8 1472.26   5
  -3  -3  19 12483.0 1508.43   1
   3  -4  19 4015.38 853.147   1
  -3   4  18 5505.03 1079.19   5
   3  -4  18 5600.52 1027.93   1
   3  -4  17 7770.78 1271.39   2
  -3   4  17 8448.77 1335.64   5
   3  -4  17 7547.11 1153.49   1
   3  -4  16 16212.3 1794.74   2
  -3   4  16 16063.7 1765.99   5
  -3   4  15 1291.90 459.340   5
  -3  -4 -15 2760.01 756.619   3
   3  -4  15 2403.27 698.776   2
  -3   4  14 5622.35 990.796   5
  -3  -4 -14 7293.50 1210.29   3
   3  -4  14 5035.18 964.067   2
  -3   4  13 6945.79 1064.86   5
   3  -4  13 8545.80 1245.49   2
   3  -4  12 9236.94 1287.27   2
  -3   4  12 9035.01 1188.29   5
   3  -4  11 18504.7 1761.27   2
  -3   4  11 17466.2 1600.25   5
   3  -4  10 11479.7 1378.39   2
  -3   4  10 8571.02 1096.25   5
  -3   4   9 4146.97 757.154   5
   3  -4   9 4584.35 863.704   2
   3   4  -8 8553.36 993.605   5
   3  -4   8 8244.49 1093.12   2
   3   4  -8 8702.13 982.554   4
  -3   4   8 8349.85 1021.91   5
   3   4  -7 11750.3 1148.40   5
   3  -4   7 12496.3 1325.52   2
   3   4  -7 11820.4 1130.27   4
  -3   4   7 12570.3 1250.24   5
  -3   4   6 3996.88 687.438   5
   3  -4   6 4202.27 759.723   2
   3   4  -6 3194.91 613.036   5
   3   4  -6 3789.13 681.617   4
   3   4  -5 36730.8 2003.00   5
   3   4  -5 39522.9 2165.26   4
  -3   4   5 39900.4 2142.67   5
  -3   4   4 3032.37 579.231   5
   3   4  -4 3508.84 596.724   5
   3   4  -4 3540.46 660.900   4
   3   4  -3 5842.07 745.095   5
  -3   4   3 5534.37 756.051   5
   3   4  -3 6025.42 842.888   4
  -3   4   2 5825.58 765.826   5
   3   4  -2 5249.15 688.243   5
   3   4  -2 5789.56 814.015   4
  -3   4   1 5304.84 699.783   5
   3   4  -1 4747.77 671.324   5
   3   4  -1 5532.98 814.688   4
  -3   4   0 17038.0 1292.87   5
   3   4   0 16147.5 1246.62   5
   3   4   0 18296.3 1466.47   4
  -3   4  -1 5915.20 748.350   5
   3   4   1 5800.99 721.666   5
   3   4   1 6395.89 878.726   4
   3   4   2 6078.26 764.733   5
  -3   4  -2 5316.74 714.341   5
   3   4   2 4920.33 795.183   4
   3   4   3 6034.76 768.531   5
  -3   4  -3 5155.15 705.163   5
   3   4   3 5758.12 853.193   4
   3   4   4 3220.55 553.441   5
  -3   4  -4 2930.46 534.374   5
   3   4   4 3192.73 647.657   4
   3   4   5 41163.8 2105.75   5
  -3   4  -5 37536.9 1949.55   5
   3   4   5 39590.8 2285.12   4
   3   4   6 3435.32 617.413   5
  -3   4  -6 3941.89 640.150   5
   3   4   6 3659.04 702.344   4
  -3   4  -7 11995.9 1148.85   5
   3   4   7 11663.5 1253.45   4
   3   4   7 11470.6 1149.46   5
  -3   4  -8 8830.90 995.081   5
   3   4   8 8696.33 1071.50   4
  -3  -4   8 8484.28 920.285   1
   3   4   8 9890.16 1091.42   5
   3   4   9 4290.98 735.990   5
  -3   4  -9 5133.40 785.194   5
  -3  -4   9 3730.86 641.537   1
   3   4   9 4596.78 813.616   4
  -3  -4  10 10311.5 1322.51   3
  -3  -4  10 9710.03 1039.18   1
   3   4  10 10573.2 1213.30   4
   3   4  10 9570.56 1123.95   5
  -3  -4  11 21253.9 1928.35   3
  -3  -4  11 17432.1 1423.61   1
   3   4  11 18320.0 1606.19   4
   3   4  11 18510.3 1595.94   5
  -3  -4  12 8472.79 1087.68   1
   3   4  12 9987.26 1202.34   4
   3   4  12 12042.1 1297.12   5
  -3  -4  13 6832.83 941.023   1
   3   4  13 6963.29 1026.27   4
   3   4  13 8927.84 1168.77   5
  -3  -4  14 5298.83 883.676   1
   3   4  14 4045.54 826.908   5
   3   4  14 5626.20 910.679   4
   3   4  15 1102.14 384.164   5
   3   4  15 1842.73 534.380   4
  -3  -4  15 2194.41 586.226   1
  -3  -4  16 17326.4 1665.21   1
   3   4  16 15904.8 1565.32   4
   3   4  16 18947.0 1866.36   5
   3   4  17 8540.96 1297.87   5
   3   4  17 7681.81 1100.16   4
  -3  -4  17 7772.91 1159.11   1
   3   4  18 7036.25 1227.45   5
  -3  -4  18 6141.09 1043.77   1
  -3   5  15 5438.65 1064.44   5
   3  -5  14 12534.0 1608.77   2
  -3   5  14 11866.5 1517.04   5
  -3   5  13 2903.57 733.003   5
   3  -5  13 2307.67 688.208   2
  -3   5  12 2338.79 665.631   5
   3  -5  12 2847.81 804.115   2
  -3   5  11 6164.43 1054.08   5
   3  -5  11 6599.40 1081.27   2
  -3   5  10 217.045 294.212   5
   3  -5  10 68.6638 291.051   2
   3   5  -9 14300.4 1476.71   5
   3  -5   9 14897.0 1578.79   2
  -3   5   9 13775.9 1481.60   5
   3   5  -8 21410.9 1773.23   5
   3  -5   8 25096.2 2037.96   2
  -3   5   8 23013.4 1882.91   5
   3   5  -7 25793.6 1930.57   5
   3  -5   7 26696.1 2079.93   2
  -3   5   7 27166.8 2041.34   5
   3   5  -6 42966.2 2443.04   5
  -3   5   6 38048.1 2392.16   5
   3   5  -5 14565.9 1372.05   5
   3   5  -5 13102.8 1307.51   4
  -3   5   5 12846.2 1345.97   5
  -3   5   4 11107.2 1221.42   5
   3   5  -4 9457.86 1086.91   5
   3   5  -4 9022.98 1105.42   4
  -3   5   3 19359.7 1591.08   5
   3   5  -3 18060.4 1496.20   5
   3   5  -3 18103.1 1628.08   4
  -3   5   2 7258.10 963.066   5
   3   5  -2 7135.41 938.909   5
   3   5  -2 8199.91 1061.36   4
  -3   5   1 19148.5 1578.94   5
   3   5  -1 17773.0 1477.56   5
   3   5  -1 20479.3 1702.76   4
  -3   5   0 35014.8 2112.31   5
   3   5   0 34940.9 2118.70   5
   3   5   0 35504.2 2287.07   4
  -3   5  -1 16165.7 1437.91   5
   3   5   1 17545.2 1483.24   5
   3   5   1 19183.3 1658.09   4
   3   5   2 8565.36 1037.27   5
  -3   5  -2 7393.72 951.187   5
   3   5   2 8401.19 1106.25   4
   3   5   3 19400.7 1578.56   5
  -3   5  -3 16348.9 1441.81   5
   3   5   4 11659.8 1219.80   5
  -3   5  -4 9975.02 1125.00   5
   3   5   4 10357.9 1278.57   4
   3   5   5 13498.2 1324.37   5
  -3   5  -5 12719.0 1263.53   5
   3   5   5 12462.0 1337.83   4
  -3  -5   5 14698.2 1148.41   1
   3   5   6 38585.0 2341.20   5
  -3   5  -6 36896.5 2236.44   5
  -3  -5   6 38577.6 1922.06   1
   3   5   6 40796.1 2478.66   4
   3   5   7 31379.1 2126.90   5
  -3   5  -7 28075.4 1945.78   5
  -3  -5   7 26260.3 1618.43   1
   3   5   7 26815.0 1999.24   4
  -3   5  -8 25312.5 1889.11   5
  -3  -5   8 23944.5 1587.52   1
   3   5   8 27341.2 2049.21   4
   3   5   8 25880.4 1974.62   5
  -3   5  -9 16002.3 1512.44   5
  -3  -5   9 15468.1 1330.32   1
   3   5   9 14480.6 1498.38   4
   3   5   9 16983.1 1623.84   5
   3   5  10 508.587 395.160   5
  -3   5 -10-173.570 319.024   5
  -3  -5  10 378.863 249.669   1
   3   5  10 279.435 313.850   4
  -3  -5  11 7008.36 932.254   1
   3   5  11 6746.27 1044.19   4
   3   5  11 8307.96 1188.92   5
   3   5  12 2115.75 654.069   5
   3   5  12 3282.83 701.382   4
  -3  -5  12 2068.44 530.378   1
   3   5  13 3412.32 790.309   5
   3   5  13 2350.81 614.968   4
  -3  -5  13 2790.00 619.303   1
   3   5  14 10770.2 1341.47   4
   3   5  14 11475.9 1489.37   5
  -3  -5  14 11135.9 1294.79   1
   3   5  15 6060.52 1138.01   5
  -3  -5  15 6937.50 1069.15   1
   3   5  15 5341.52 948.922   4
   3   5  16 12194.4 1410.88   4
  -3  -5  16 10589.5 1360.16   1
   3  -6  11 9607.73 1388.04   2
  -3   6  11 10193.7 1446.38   5
  -3   6  10 2066.51 609.363   5
   3   6 -10 3245.05 793.056   5
   3  -6  10 1462.72 519.954   2
  -3   6   9 6638.46 1134.99   5
   3  -6   9 5798.39 1046.79   2
   3   6  -9 5952.48 1025.93   5
  -3   6   8 5550.87 1040.98   5
   3   6  -8 6435.72 1057.39   5
   3   6  -7 18228.1 1793.83   5
  -3   6   7 17864.0 1792.15   5
  -3   6   6 6491.87 1057.99   5
   3   6  -6 6524.33 1025.58   5
  -3   6   5 4659.00 887.615   5
   3   6  -5 4056.57 823.145   5
  -3   6   4 5319.42 928.099   5
   3   6  -4 5555.80 936.400   5
  -3   6   3 15071.5 1565.25   5
   3   6  -3 15831.1 1565.05   5
  -3   6   2 10804.9 1352.53   5
   3   6  -2 11151.9 1294.87   5
  -3   6   1 700.195 293.006   5
   3   6  -1 1077.92 370.044   5
  -3   6   0 13765.0 1447.19   5
   3   6   0 14706.2 1527.47   5
   3   6   0 13865.6 1491.21   4
  -3   6  -1 120.917 263.558   5
   3   6   1 478.908 212.625   5
   3   6   2 10441.1 1278.08   5
  -3   6  -2 11163.5 1317.38   5
   3   6   2 11096.8 1344.03   4
   3   6   3 17044.0 1666.07   5
  -3   6  -3 17584.4 1638.04   5
   3   6   3 17980.3 1735.57   4
   3   6   4 6244.40 985.133   5
  -3   6  -4 5498.99 920.046   5
   3   6   4 5652.37 1014.71   4
   3   6   5 6030.97 996.783   5
  -3   6  -5 4733.22 857.512   5
   3   6   5 6017.67 984.077   4
  -3   6  -6 7788.53 1112.64   5
   3   6   6 6701.86 1091.21   5
   3   6   6 8882.12 1261.14   4
   3   6   7 17398.4 1726.10   5
  -3   6  -7 18199.7 1727.95   5
   3   6   7 16809.7 1691.72   4
   3   6   8 3938.40 830.792   5
  -3   6  -8 6322.50 1029.65   5
   3   6   8 4346.70 853.818   4
   3   6   9 5881.72 1073.01   5
  -3   6  -9 6346.04 1061.82   5
   3   6   9 5709.28 1035.38   4
   3   6  10 2282.92 647.284   5
  -3   6 -10 2369.48 664.617   5
   3   6  10 2574.11 754.521   4
  -3   6 -11 9715.04 1352.23   5
   3   6  11 9804.14 1403.83   5
   3   6  12 1965.36 677.472   5
   3   7  -3-291.404 457.437   5
   3   7  -2 8689.62 1261.76   5
   3   7  -1 313.574 331.890   5
   3   7   0 11749.0 1473.70   5
  -3   7   0 9142.24 1325.27   5
  -3   7  -1 285.791 237.898   5
   3   7   1 950.817 486.756   5
   3   7   2 9355.35 1366.00   5
  -3   7  -2 8798.53 1271.13   5
   3   7   3-144.869 301.285   5
   3   7   4 4150.46 866.237   5
   4   0   0 11539.1 1159.42   4
  -4   0   0 10757.3 1230.55   3
  -4   0   1 3732.54 734.423   3
  -4   0  -1 3752.65 748.896   3
   4   0   1 3717.10 667.351   4
   4   0  -1 3172.05 612.482   4
  -4   0   2 1790.84 590.730   3
  -4   0  -2 2339.65 637.896   3
   4   0   2 1609.74 494.331   4
   4   0  -2 1942.59 513.771   4
   4   0   3 194715. 5483.36   4
   4   0  -3 198480. 4989.24   4
  -4   0   3 206791. 5861.62   3
  -4   0  -3 188234. 5573.05   3
  -4   0  -4 4927.71 890.811   3
   4   0  -4 4940.04 713.673   4
   4   0   4 4508.71 841.927   4
  -4   0   4 5950.51 954.491   3
   4   0   5 94218.1 3746.37   4
   4   0  -5 90186.3 3106.19   4
  -4   0   5 95306.9 3872.95   3
  -4   0  -5 90925.6 3695.60   3
   4   0   6 11721.7 1316.27   4
   4   0  -6 11104.1 1007.78   4
  -4   0   6 10126.6 1232.48   3
  -4   0  -6 11631.1 1289.53   3
   4   0   7 15169.6 1519.59   4
   4   0  -7 15171.2 1175.94   4
  -4   0   7 15481.9 1571.02   3
  -4   0  -7 15055.3 1465.55   3
   4   0   8 48716.3 2786.18   4
   4   0  -8 47389.9 2022.02   4
  -4   0   8 49616.9 2730.46   3
  -4   0  -8 42312.4 2493.58   3
   4   0   9 133553. 4799.78   4
   4   0  -9 122611. 3330.65   4
  -4   0   9 133159. 4656.77   3
  -4   0  -9 115673. 4321.22   3
   4   0  10 8829.14 1223.27   4
   4   0 -10 7798.25 727.718   4
  -4   0  10 9708.85 1179.44   3
  -4   0 -10 8227.49 1072.60   3
  -4   0  11 1747.97 536.436   3
  -4   0 -11 1563.78 525.531   3
   4   0  11 1432.21 521.700   4
  -4   0 -12 4716.61 834.623   3
   4   0  12 6239.25 1058.86   4
   4   0  13 10239.8 1349.10   4
  -4   0  13 7396.61 1001.49   1
  -4   0 -13 7825.67 1056.07   3
  -4   0 -14 561.311 334.366   3
  -4   0  14 377.069 262.930   1
   4   0  14 216.400 211.112   2
   4   0  14 742.647 359.928   4
  -4   0 -15 3570.55 692.716   3
  -4   0  15 3810.40 750.467   1
   4   0  15 4640.75 972.149   4
   4   0  15 4289.75 859.353   2
   4   0  16 717.250 459.399   4
   4   0  16 1209.38 474.135   2
  -4   0  16 476.763 334.906   1
   4   0  17 18492.7 1833.53   2
  -4   0  17 16223.2 1723.20   1
  -4   0  18 860.541 409.707   1
   4   0  18 1190.07 498.103   4
   4   0  18 295.720 215.209   2
  -4   0  19 2871.27 804.911   1
   4   0  19 3821.74 919.137   4
   4   0  19 3459.89 853.846   2
   4   0  20 35.4333 313.167   4
   4   0  20 272.495 365.589   2
   4   0  21 696.746 416.103   4
   4   0  21 326.297 260.294   2
   4  -1  21 2748.28 767.777   4
   4  -1  20 2876.70 822.985   4
   4  -1  20 2024.68 728.892   2
  -4   1  19 104.167 257.293   1
   4  -1  19 619.739 432.460   4
   4  -1  19 433.110 362.070   2
  -4   1  18 1524.43 453.095   1
   4  -1  18 1023.27 439.858   4
   4  -1  18 1237.61 635.341   2
  -4   1  17 2983.83 775.383   1
   4  -1  17 4416.73 982.436   4
   4  -1  17 4494.25 977.878   2
   4  -1  16 14946.9 1692.77   2
   4  -1  16 15400.0 1757.81   4
  -4   1  16 13320.5 1426.12   1
  -4  -1 -15 364.291 306.092   3
  -4   1  15 628.931 277.167   1
   4  -1  15 554.914 377.818   4
   4  -1  15 377.579 297.508   2
   4  -1  14 45680.4 2861.59   2
   4  -1  14 47945.3 3047.07   4
  -4   1  14 44637.7 2521.05   1
  -4  -1 -14 45142.7 2584.06   3
  -4  -1 -13 3559.80 736.924   3
   4  -1  13 5075.65 1002.41   4
   4  -1  13 3676.86 819.719   2
  -4   1  13 4234.67 761.165   1
   4  -1  12 6821.41 1065.87   2
   4  -1  12 7470.83 1177.93   4
  -4  -1 -12 6177.25 956.648   3
  -4  -1 -11-110.988 309.602   3
   4  -1  11 601.610 405.774   4
   4  -1  10 32967.5 2366.58   4
   4   1 -10 29605.2 1551.52   4
  -4  -1 -10 29789.4 2094.87   3
   4  -1   9 22093.4 1909.08   4
   4   1  -9 22227.6 1355.60   4
  -4  -1  -9 19976.2 1720.35   3
   4  -1   8 31600.9 2270.61   4
   4   1  -8 34016.4 1741.67   4
  -4   1   8 33536.9 1577.11   5
  -4  -1  -8 35270.5 2275.28   3
   4  -1   7 9975.61 1243.48   4
   4   1  -7 9097.16 889.576   4
  -4   1   7 8221.83 704.833   5
  -4  -1  -7 8686.85 1155.61   3
   4  -1   6 38674.5 2445.44   4
   4   1  -6 36140.6 1836.43   4
  -4  -1  -6 37735.5 2402.85   3
   4  -1   5 19236.8 1689.96   4
   4   1  -5 18083.9 1317.10   4
  -4  -1  -5 18165.9 1642.63   3
   4  -1   4 10985.6 1246.92   4
   4   1  -4 12688.1 1101.72   4
  -4  -1  -4 12718.7 1413.52   3
   4  -1   3 15340.9 1440.39   4
   4   1  -3 14680.4 1247.35   4
  -4   1   3 16630.8 1565.44   3
  -4  -1  -3 15056.4 1515.14   3
   4  -1   2 29606.3 1991.67   4
   4   1  -2 29790.8 1856.38   4
  -4   1   2 28249.6 2036.79   3
  -4  -1  -2 29581.4 2145.98   3
   4  -1   1 8305.93 1046.00   4
   4   1  -1 8653.51 1025.88   4
  -4   1   1 10219.1 1205.29   3
  -4  -1  -1 8514.17 1132.90   3
   4  -1   0 85453.7 3365.18   4
   4   1   0 88455.3 3358.74   4
  -4   1   0 87907.0 3664.48   3
  -4  -1   0 95463.7 3880.27   3
   4  -1  -1 6979.54 913.328   4
   4   1   1 8744.96 1024.30   4
  -4   1  -1 7619.14 1073.59   3
  -4  -1   1 7983.11 1084.34   3
   4  -1  -2 27490.1 1783.39   4
   4   1   2 29137.8 1918.18   4
  -4   1  -2 27768.3 1995.21   3
  -4  -1   2 28739.0 2071.91   3
   4  -1  -3 15110.7 1272.90   4
   4   1   3 15976.1 1434.80   4
  -4   1  -3 17301.5 1557.77   3
  -4  -1   3 16387.5 1529.41   3
   4  -1  -4 12708.5 1133.67   4
   4   1   4 12577.6 1314.73   4
  -4   1  -4 11404.3 1272.99   3
  -4  -1   4 12542.9 1314.72   3
   4  -1  -5 19294.9 1398.08   4
   4   1   5 20242.0 1710.89   4
  -4   1  -5 18399.4 1598.94   3
  -4  -1   5 18659.4 1629.49   3
   4  -1  -6 38946.3 1947.36   4
   4   1   6 41121.2 2473.20   4
  -4   1  -6 40714.3 2417.22   3
  -4  -1   6 39788.6 2354.34   3
   4  -1  -7 9821.93 945.898   4
   4   1   7 10094.2 1242.10   4
  -4   1  -7 7954.50 1052.38   3
  -4  -1   7 9087.00 1122.41   3
   4  -1  -8 33162.9 1661.62   4
   4   1   8 37645.2 2453.77   4
  -4  -1   8 35639.4 2280.93   3
   4  -1  -9 22137.7 1350.40   4
   4   1   9 25897.8 2056.36   4
  -4  -1   9 20547.3 1695.34   3
   4   1  10 32179.1 2339.78   4
  -4  -1  10 30725.6 2094.19   3
  -4  -1  11 691.066 394.913   3
   4   1  11 365.901 317.045   4
   4   1  12 8018.21 1207.09   4
  -4  -1  12 7519.72 1078.00   3
  -4  -1  13 4236.94 782.243   3
  -4  -1  13 3566.95 686.824   1
   4   1  13 5951.27 1054.76   4
   4   1  14 53269.7 3151.83   4
  -4  -1  14 44836.7 2555.54   1
  -4  -1  14 53902.2 2836.18   3
  -4  -1  15 249.310 200.078   1
   4   1  15 1217.12 533.373   4
  -4  -1  16 12972.0 1404.78   1
   4   1  16 14114.6 1653.27   4
  -4  -1  17 1993.65 715.284   1
   4   1  17 3986.01 894.731   4
   4   1  18 1711.33 546.279   2
  -4  -1  18 934.868 369.577   1
   4   1  18 1681.85 659.402   4
   4   1  19 45.1785 277.136   4
   4   1  20 2449.99 762.962   4
  -4   2  19 13666.9 1579.64   1
   4  -2  19 13814.3 1769.73   4
  -4   2  18 68.9934 242.044   1
   4  -2  18 774.320 473.469   4
   4  -2  18 774.390 533.203   2
  -4   2  17 35002.8 2386.90   1
   4  -2  17 40205.0 2942.48   4
   4  -2  17 35629.1 2802.76   2
  -4   2  16 4399.13 863.100   1
   4  -2  16 4540.05 1059.37   4
   4  -2  16 4064.47 954.859   2
   4  -2  15 13413.5 1659.91   4
   4  -2  15 15639.7 1770.45   2
  -4   2  15 12236.2 1403.20   1
  -4   2  15 12851.7 1417.25   5
  -4  -2 -15 16277.8 1636.47   3
  -4   2  14 2475.85 589.192   5
  -4  -2 -14 2878.31 732.897   3
  -4   2  14 1201.37 447.630   1
   4  -2  14 2102.59 692.090   4
   4  -2  14 2017.42 633.356   2
  -4   2  13 2960.42 607.007   5
  -4  -2 -13 3595.33 792.453   3
   4  -2  13 3015.99 785.626   4
   4  -2  13 2537.38 658.290   2
  -4   2  13 2424.12 587.495   1
  -4   2  12 3234.21 632.468   5
  -4  -2 -12 3880.46 843.438   3
  -4   2  12 2957.00 658.549   1
   4  -2  12 2981.30 760.036   4
   4  -2  12 3204.26 742.037   2
   4  -2  11 58172.4 3215.17   2
   4  -2  11 55387.2 3204.41   4
   4   2 -11 54215.6 2247.92   4
  -4   2  11 54232.7 2493.67   5
  -4  -2 -11 60116.5 3182.37   3
  -4  -2 -10 7092.56 1066.70   3
   4  -2  10 8289.65 1212.58   4
   4   2 -10 7357.70 809.835   4
  -4   2  10 6607.65 813.029   5
   4  -2   9 27470.4 2184.57   4
   4   2  -9 29091.6 1683.82   4
  -4   2   9 29575.4 1655.53   5
  -4  -2  -9 29107.0 2144.08   3
   4  -2   8 18935.4 1772.39   4
   4   2  -8 17391.5 1309.57   4
  -4   2   8 17631.0 1218.72   5
  -4  -2  -8 17670.9 1646.73   3
  -4  -2  -7 21425.9 1817.19   3
   4   2  -7 19249.5 1394.10   4
  -4   2   7 18834.8 1195.54   5
  -4  -2  -6 15844.2 1533.79   3
   4   2  -6 15495.3 1268.02   4
  -4  -2  -5 83411.7 3604.71   3
   4   2  -5 76114.0 2926.26   4
  -4  -2  -4 46703.0 2677.17   3
   4   2  -4 47363.3 2297.37   4
  -4  -2  -3 24679.7 1914.82   3
   4   2  -3 26932.9 1705.42   4
  -4  -2  -2 7950.29 1083.81   3
   4   2  -2 6318.70 827.464   4
  -4  -2  -1 20409.5 1715.26   3
   4   2  -1 20097.7 1509.20   4
  -4  -2   0 159.253 309.927   3
   4  -2   0-279.823 326.393   4
   4   2   0-156.421 226.522   4
  -4  -2   1 16756.3 1566.81   3
   4  -2  -1 19254.6 1581.29   4
   4   2   1 21161.8 1609.11   4
  -4  -2   2 7391.48 1044.60   3
   4  -2  -2 7239.61 952.111   4
   4   2   2 7657.53 993.871   4
  -4  -2   3 26901.8 1979.36   3
   4  -2  -3 26235.2 1791.56   4
   4   2   3 24263.4 1778.62   4
   4  -2  -4 47385.7 2382.37   4
   4   2   4 47132.6 2527.42   4
  -4  -2   4 47637.1 2673.93   3
   4  -2  -5 77951.1 3054.31   4
   4   2   5 73528.8 3266.72   4
  -4  -2   5 76835.9 3473.89   3
   4  -2  -6 16969.2 1343.64   4
   4   2   6 15093.7 1452.17   4
  -4  -2   6 17739.7 1644.36   3
   4  -2  -7 19570.0 1408.64   4
   4   2   7 21139.9 1780.11   4
  -4  -2   7 22112.3 1860.02   3
   4  -2  -8 18065.4 1293.27   4
   4   2   8 21103.4 1817.18   4
  -4  -2   8 21020.8 1855.44   3
   4   2   9 27120.9 2098.32   4
  -4  -2   9 35854.7 2449.38   3
   4   2  10 7788.84 1145.30   4
  -4  -2  10 8225.09 1148.93   3
   4   2  11 59700.5 3189.54   4
  -4  -2  11 56438.7 2956.69   3
  -4  -2  12 3320.74 693.466   3
   4   2  12 3710.75 819.144   4
  -4  -2  12 2813.75 639.973   1
  -4  -2  13 2110.63 577.492   3
  -4  -2  13 1777.64 533.121   1
  -4  -2  14 1902.35 544.226   1
   4   2  14 3075.87 737.352   4
  -4  -2  15 12525.4 1386.87   1
   4   2  15 13974.1 1583.93   4
   4   2  16 4759.11 944.370   4
  -4  -2  16 3890.85 845.023   1
  -4  -2  17 33786.2 2411.46   1
   4   2  17 39584.0 2712.91   4
   4   2  18 2018.89 673.896   4
   4   2  19 14157.5 1652.35   4
   4  -3  17 4289.80 1008.51   4
  -4   3  17 3437.24 753.588   1
  -4   3  16 3783.69 761.819   1
   4  -3  16 1905.03 703.787   4
   4  -3  16 3294.53 929.546   2
  -4   3  15 21473.4 1776.29   1
   4  -3  15 20269.3 2107.41   2
  -4  -3 -15 20296.7 1921.84   3
  -4  -3 -14 23249.5 2014.68   3
   4  -3  14 25403.0 2288.44   2
  -4   3  14 26059.1 1901.09   1
  -4  -3 -13 12268.3 1470.24   3
   4  -3  13 15306.0 1727.16   2
  -4   3  13 13644.5 1335.13   1
  -4  -3 -12 11491.9 1439.24   3
   4  -3  12 10131.2 1424.69   2
  -4   3  12 9788.91 1101.61   1
  -4   3  12 10665.6 1206.26   5
  -4  -3 -11 10516.7 1480.53   3
  -4   3  11 7304.29 937.356   1
   4   3 -11 6718.25 854.342   4
   4  -3  11 7778.79 1206.14   2
  -4   3  11 7797.06 992.573   5
  -4  -3 -10 16759.3 1922.71   3
   4  -3  10 12665.8 1514.67   2
   4   3 -10 14403.0 1246.64   4
  -4   3  10 13647.1 1269.65   5
   4   3  -9 29962.0 1840.71   4
  -4   3   9 32997.6 1915.62   5
   4   3  -8 40943.0 2180.47   4
  -4   3   8 41546.9 2081.06   5
  -4  -3  -7 14880.0 1803.64   3
   4   3  -7 12069.4 1172.66   4
  -4  -3  -6 68.1207 295.151   3
   4   3  -6 824.923 347.124   4
  -4  -3  -5 1279.22 556.798   3
   4   3  -5 1305.91 438.845   4
  -4  -3  -4 7274.39 1171.85   3
   4   3  -4 6305.58 851.930   4
  -4  -3  -3 2625.74 724.696   3
   4   3  -3 2475.67 556.276   4
  -4  -3  -2 6200.09 1098.14   3
   4   3  -2 5279.70 834.842   4
  -4  -3  -1 3411.87 875.217   3
   4   3  -1 2911.63 649.365   4
  -4  -3   0 59826.1 3445.06   3
   4   3   0 51084.7 2631.70   4
  -4  -3   1 4509.52 1003.93   3
   4   3   1 2777.94 606.930   4
  -4  -3   2 5832.00 1086.27   3
   4   3   2 3797.73 719.195   4
  -4  -3   3 4114.59 905.917   3
   4   3   3 1485.71 471.678   4
  -4  -3   4 9399.77 1455.84   3
   4   3   4 7433.14 1011.10   4
  -4  -3   5 1955.39 687.330   3
   4   3   5 1478.53 459.579   4
  -4  -3   6 141.427 279.830   3
   4   3   6 408.162 305.215   4
  -4  -3   7 14145.0 1546.48   3
   4   3   7 10668.8 1280.02   4
  -4  -3   8 43885.6 2692.94   3
   4  -3  -8 42619.8 2196.68   4
   4   3   8 42823.9 2578.26   4
  -4  -3   9 30429.5 2204.00   3
   4   3   9 35515.1 2362.57   4
  -4  -3  10 13140.6 1412.94   3
   4   3  10 14091.4 1507.42   4
  -4  -3  11 6528.37 1037.95   3
   4   3  11 7512.36 1125.51   4
  -4  -3  11 8080.80 1036.40   1
   4   3  12 10088.0 1310.54   4
  -4  -3  12 9281.59 1124.22   1
  -4  -3  12 10983.2 1354.82   3
   4   3  13 14128.0 1572.01   4
  -4  -3  13 12446.1 1374.29   1
  -4  -3  13 15802.3 1657.22   3
  -4  -3  14 23881.3 1893.65   1
   4   3  14 26501.3 2174.27   4
  -4  -3  15 20298.8 1841.53   1
   4   3  15 19323.9 1879.36   4
  -4  -3  16 2397.57 655.638   1
   4   3  16 2035.40 597.114   4
   4   3  17 3826.56 876.886   4
   4   3  18 727.357 424.749   4
  -4  -4 -15-122.469 255.551   3
  -4  -4 -14 704.234 472.010   3
  -4  -4 -13 10756.6 1653.78   3
   4  -4  13 7971.99 1312.89   2
  -4  -4 -12 12455.8 1697.63   3
   4  -4  12 9092.83 1384.02   2
  -4  -4 -11 3975.69 1017.89   3
   4  -4  11 3174.61 840.704   2
  -4  -4 -10 35757.1 2950.73   3
   4   4 -10 31338.0 1995.49   4
  -4  -4  -9 45151.9 3351.24   3
   4   4  -9 35568.7 2166.77   4
  -4  -4  -8 3795.11 1078.47   3
   4   4  -8 2577.58 577.249   4
  -4  -4  -7 3983.95 1131.50   3
   4   4  -7 1893.76 554.776   4
  -4  -4  -6 18166.0 2128.32   3
   4   4  -6 11948.4 1281.76   4
  -4  -4  -5 27115.6 2651.10   3
   4   4  -5 21198.1 1707.63   4
  -4  -4  -4 20072.8 2246.74   3
   4   4  -4 15273.6 1444.53   4
  -4  -4  -3 52944.8 3563.84   3
   4   4  -3 36372.7 2277.33   4
  -4  -4  -2 37646.8 3015.41   3
   4   4  -2 25095.9 1895.53   4
  -4  -4  -1 8315.86 1394.00   3
   4   4  -1 5195.05 878.317   4
  -4  -4   0 10853.8 1594.82   3
   4   4   0 7809.09 1069.03   4
  -4  -4   1 7238.58 1367.01   3
   4   4   1 4506.51 830.494   4
  -4  -4   2 34632.8 2917.70   3
   4   4   2 27662.6 2051.61   4
  -4  -4   3 56179.3 3805.80   3
   4   4   3 42890.5 2588.44   4
  -4  -4   4 26314.0 2559.26   3
   4   4   4 15629.6 1561.94   4
  -4  -4   5 26726.7 2483.90   3
   4   4   5 23351.7 1937.01   4
  -4  -4   6 15484.3 1832.93   3
   4   4   6 12534.6 1443.43   4
  -4  -4   7 2305.23 772.232   3
   4   4   7 2542.98 743.042   4
  -4  -4   8 3749.01 965.333   3
   4   4   8 3350.39 795.807   4
  -4  -4   9 45430.9 3195.63   3
   4   4   9 33068.6 2416.54   4
  -4  -4  10 39192.8 3085.71   3
   4   4  10 35127.7 2499.23   4
  -4  -4  10 31473.3 2068.44   1
  -4  -4  11 2645.63 723.031   3
  -4  -4  11 1580.62 497.505   1
  -4  -4  12 9621.68 1331.83   3
  -4  -4  12 9037.12 1142.60   1
   4   4  12 11178.6 1449.06   4
   4   4  13 6701.13 1135.69   4
  -4  -4  13 5643.00 957.697   1
  -4  -4  14 598.259 393.452   1
   4   4  14 736.389 415.252   4
  -4  -4  15 474.629 332.295   1
   4   4  15 46.3130 276.620   4
  -4  -5 -12 5171.99 1317.75   3
  -4  -5 -11 24092.7 2690.85   3
  -4  -5 -10 6050.36 1398.80   3
  -4  -5  -9 18841.6 2311.27   3
  -4  -5  -8 1882.80 794.559   3
  -4  -5  -7 8703.31 1540.13   3
   4   5  -7 5841.60 927.920   4
  -4  -5  -6 14747.1 1997.27   3
   4   5  -6 13015.5 1408.87   4
  -4  -5  -5 12382.2 1806.39   3
   4   5  -5 8554.35 1143.93   4
   4   5  -4 1452.46 520.957   4
   4   5  -3 1757.65 576.187   4
   4   5  -2 8607.94 1214.83   4
   4   5  -1 26017.6 2080.35   4
   4   5   0 18422.8 1728.20   4
  -4  -5   1 31962.7 2901.88   3
   4   5   1 24257.6 2022.07   4
  -4  -5   2 11070.8 1672.60   3
   4   5   2 8965.54 1228.76   4
  -4  -5   3 2953.91 937.423   3
   4   5   3 1032.09 452.662   4
  -4  -5   4 2459.05 866.101   3
   4   5   4 1549.86 553.998   4
  -4  -5   5 13751.0 1918.35   3
   4   5   5 7604.01 1140.01   4
  -4  -5   6 17009.6 2117.75   3
   4   5   6 12685.7 1528.91   4
  -4  -5   7 10539.4 1731.36   3
  -4  -5   7 7773.00 971.449   1
   4   5   7 7937.21 1188.39   4
  -4  -5   8 1402.60 424.197   1
  -4  -5   8 2653.39 919.960   3
   4   5   8 1566.75 554.339   4
  -4  -5   9 19365.4 2223.65   3
  -4  -5   9 14548.3 1409.83   1
   4   5   9 14603.2 1648.27   4
  -4  -5  10 3744.07 747.350   1
  -4  -5  10 4855.36 1090.66   3
  -4  -5  11 16717.7 1986.37   3
  -4  -5  11 16593.0 1547.60   1
  -4  -5  12 4325.03 1073.96   3
  -4  -5  12 4546.13 905.465   1
  -5   0   0-258.419 375.781   3
   5   0   0 77.4005 263.753   4
  -5   0   1-175.774 397.924   3
  -5   0  -1 57.5665 188.008   3
   5   0   1-94.1609 217.570   4
   5   0  -1 58.3810 323.498   4
   5   0   2 23476.5 1917.47   4
   5   0  -2 25874.5 1968.90   4
  -5   0   2 24202.5 2142.25   3
  -5   0  -2 23588.9 2086.36   3
  -5   0   3 1263.58 512.981   3
  -5   0  -3 887.633 490.795   3
   5   0   3 710.055 429.147   4
   5   0  -3 857.839 369.648   4
  -5   0   4 7487.81 1207.62   3
   5   0   4 7426.96 1135.02   4
   5   0  -4 8614.77 1067.18   4
  -5   0  -4 7232.81 1249.97   3
   5   0   5 12904.6 1503.44   4
   5   0  -5 11073.9 1201.78   4
  -5   0   5 11904.8 1515.64   3
  -5   0  -5 11074.5 1426.45   3
   5   0   6 18070.4 1798.07   4
   5   0  -6 19293.8 1603.14   4
  -5   0   6 17660.4 1844.36   3
  -5   0  -6 15474.3 1702.79   3
  -5   0   7 7160.95 1139.69   3
  -5   0  -7 5012.74 966.463   3
   5   0  -7 7310.61 937.186   4
   5   0   7 5968.86 1046.84   4
  -5   0   8 363.088 281.185   3
  -5   0  -8 248.465 243.819   3
   5   0   8 432.045 266.269   4
   5   0  -8 347.519 189.418   4
  -5   0   9 1011.54 536.364   3
  -5   0  -9 1743.17 631.187   3
   5   0   9 2092.80 691.147   4
   5   0  10 28592.7 2409.53   4
  -5   0  10 28507.2 2257.15   3
  -5   0 -10 26401.4 2212.53   3
  -5   0 -11 996.141 483.656   3
   5   0  11 1677.41 630.621   4
   5   0  12 14360.3 1749.35   4
  -5   0 -12 11452.7 1451.23   3
  -5   0 -13 988.529 460.261   3
   5   0  13 1110.31 436.860   4
  -5   0 -14 1035.80 413.617   3
  -5   0  14 1041.59 426.786   1
   5   0  14 539.842 257.881   4
  -5   0  15 554.866 359.302   1
   5   0  15 434.266 399.867   4
  -5   1  15 13996.6 1568.73   1
  -5  -1 -14 5949.39 1085.33   3
  -5   1  14 4789.13 930.204   1
   5  -1  14 5260.90 1109.38   4
   5  -1  13 32029.0 2724.19   4
  -5  -1 -13 32698.8 2471.37   3
  -5  -1 -12 310.267 302.672   3
   5  -1  12-600.213 407.808   4
  -5  -1 -11 2190.97 635.248   3
   5  -1  11 2347.25 699.602   4
  -5  -1 -10 3280.20 813.110   3
   5  -1  10 3396.19 857.209   4
   5  -1   9 26037.9 2290.98   4
  -5  -1  -9 24450.9 2145.94   3
   5  -1   8 25833.4 2260.11   4
   5   1  -8 26487.2 1739.76   4
  -5  -1  -8 25328.1 2180.80   3
   5  -1   7 82211.7 4052.45   4
   5   1  -7 76518.4 3065.61   4
  -5  -1  -7 78567.8 3883.67   3
   5   1  -6 7335.77 954.646   4
   5  -1   6 7908.63 1264.00   4
  -5  -1  -6 8243.76 1246.85   3
   5  -1   5 33251.7 2467.53   4
   5   1  -5 34502.2 2106.57   4
  -5  -1  -5 32978.0 2497.03   3
   5  -1   4 23538.6 2050.66   4
   5   1  -4 22076.4 1700.22   4
  -5  -1  -4 21045.6 1981.83   3
  -5  -1  -3 5032.26 973.410   3
   5  -1   3 6927.92 1093.26   4
   5   1  -3 5026.90 832.763   4
  -5  -1  -2 2792.27 744.779   3
   5  -1   2 4248.09 879.686   4
   5   1  -2 3401.82 726.451   4
   5  -1   1 57105.5 3101.24   4
   5   1  -1 62792.1 3180.12   4
  -5  -1  -1 57782.8 3313.05   3
  -5  -1   0 1623.44 607.588   3
   5  -1   0 2235.24 653.881   4
   5   1   0 1698.81 601.229   4
   5  -1  -1 59593.7 3066.17   4
   5   1   1 62426.2 3257.21   4
  -5   1  -1 57055.6 3247.67   3
  -5  -1   1 57322.6 3315.79   3
  -5  -1   2 2721.53 731.984   3
   5  -1  -2 4145.41 802.578   4
   5   1   2 3556.08 785.616   4
  -5   1  -2 4504.73 892.520   3
  -5  -1   3 4905.70 966.097   3
   5  -1  -3 5074.90 858.414   4
   5   1   3 5033.57 924.300   4
  -5   1  -3 4216.62 873.289   3
   5  -1  -4 21578.7 1728.86   4
   5   1   4 20362.9 1872.95   4
  -5  -1   4 20567.5 1945.87   3
   5  -1  -5 32069.7 2054.54   4
   5   1   5 33773.4 2477.98   4
  -5  -1   5 31045.0 2370.87   3
   5  -1  -6 8463.26 1037.80   4
   5   1   6 9413.71 1332.58   4
  -5  -1   6 8226.44 1212.99   3
   5  -1  -7 83207.2 3288.70   4
   5   1   7 89122.3 4205.05   4
  -5  -1   7 76634.5 3805.16   3
   5   1   8 27090.0 2317.25   4
  -5  -1   8 26873.4 2232.71   3
   5   1   9 26044.1 2303.57   4
  -5  -1   9 20861.4 1998.66   3
  -5  -1  10 4502.55 947.281   3
   5   1  10 4155.27 957.000   4
  -5  -1  11 2127.40 672.515   3
   5   1  11 3631.16 922.960   4
  -5  -1  12 7.52751 287.072   3
   5   1  12 489.082 446.858   4
   5   1  13 33085.8 2726.46   4
  -5  -1  13 30664.0 2388.11   3
  -5  -1  14 5320.64 991.358   1
   5   1  14 5604.76 1148.51   4
   5   1  15 18610.3 2105.95   4
  -5   2  15 1704.93 560.244   1
  -5  -2 -14 380.444 371.429   3
  -5   2  14 867.244 415.981   1
  -5  -2 -13 7478.24 1217.74   3
  -5   2  13 8350.47 1154.88   1
   5  -2  13 6943.62 1305.95   4
   5  -2  12 18207.9 2025.50   4
  -5  -2 -12 17073.7 1882.96   3
   5  -2  11 21038.5 2174.69   4
  -5  -2 -11 22648.2 2147.59   3
   5  -2  10 11931.5 1635.77   4
  -5  -2 -10 10939.9 1511.89   3
   5  -2   9 14655.6 1802.31   4
   5   2  -9 14535.3 1317.84   4
  -5  -2  -9 15513.8 1785.09   3
  -5  -2  -8 5878.24 1152.70   3
   5   2  -8 6170.92 892.059   4
   5  -2   8 5248.45 1094.03   4
  -5  -2  -7 992.229 492.487   3
   5  -2   7 1137.42 578.175   4
   5   2  -7 1640.45 481.754   4
  -5  -2  -6 3412.22 891.871   3
   5  -2   6 2031.43 718.462   4
   5   2  -6 3174.35 666.778   4
   5  -2   5 21067.8 2055.71   4
   5   2  -5 20918.9 1689.94   4
  -5  -2  -5 25796.7 2363.63   3
   5  -2   4 31424.1 2457.56   4
   5   2  -4 29456.8 2043.43   4
  -5  -2  -4 31510.9 2605.51   3
   5  -2   3 12026.4 1490.88   4
   5   2  -3 12923.3 1344.72   4
  -5  -2  -3 13378.2 1682.82   3
   5  -2   2 11366.4 1422.70   4
   5   2  -2 11864.2 1296.30   4
  -5  -2  -2 10947.0 1523.25   3
  -5  -2  -1 3595.63 851.210   3
   5  -2   1 3365.59 813.267   4
   5   2  -1 1921.28 531.733   4
  -5  -2   0 318.686 353.370   3
   5  -2   0 1104.49 448.349   4
   5   2   0 902.322 405.361   4
  -5  -2   1 3302.44 801.449   3
   5  -2  -1 2576.17 640.148   4
   5   2   1 3126.51 703.566   4
   5  -2  -2 11841.6 1348.63   4
   5   2   2 12312.8 1411.11   4
  -5  -2   2 10346.5 1447.80   3
   5  -2  -3 14608.4 1471.49   4
   5   2   3 14481.0 1547.40   4
  -5  -2   3 13749.0 1684.43   3
   5  -2  -4 30781.0 2124.16   4
   5   2   4 33010.2 2364.68   4
  -5  -2   4 32475.8 2538.41   3
   5  -2  -5 23262.1 1809.60   4
   5   2   5 22917.3 2002.94   4
  -5  -2   5 24126.5 2190.63   3
  -5  -2   6 1792.49 616.510   3
   5  -2  -6 1663.14 531.736   4
   5   2   6 3292.80 757.626   4
  -5  -2   7-2.30104 335.739   3
   5   2   7 710.867 439.577   4
  -5  -2   8 5449.01 1027.59   3
   5   2   8 6311.61 1123.78   4
   5   2   9 13733.8 1642.47   4
  -5  -2   9 14255.4 1639.00   3
   5   2  10 11818.9 1528.18   4
  -5  -2  10 11816.0 1494.22   3
   5   2  11 23030.5 2173.60   4
  -5  -2  11 22744.0 2037.82   3
   5   2  12 21482.0 2143.17   4
  -5  -2  12 17989.5 1857.17   3
  -5  -2  13 7581.10 1210.43   3
  -5  -2  13 6293.15 1068.67   1
   5   2  13 9253.54 1402.63   4
  -5  -3 -14 1579.26 667.847   3
  -5  -3 -13 4112.90 1011.80   3
  -5   3  13 3710.40 755.308   1
  -5  -3 -12 6526.95 1254.08   3
  -5   3  12 6938.80 1038.35   1
  -5  -3 -11 1871.98 669.676   3
  -5  -3 -10 5022.38 1087.84   3
   5  -3  10 4027.38 951.318   4
  -5  -3  -9 1709.58 678.590   3
   5  -3   9 1602.26 649.692   4
   5   3  -9 2229.78 541.062   4
  -5  -3  -8 2700.74 839.540   3
   5  -3   8 2740.05 804.766   4
   5   3  -8 2589.29 596.269   4
   5  -3   7 27688.9 2410.69   4
   5   3  -7 26066.8 1936.84   4
  -5  -3  -7 25711.0 2394.71   3
   5  -3   6 18479.0 1961.24   4
   5   3  -6 19055.1 1658.00   4
  -5  -3  -6 22071.7 2193.71   3
   5  -3   5 9556.81 1401.21   4
   5   3  -5 7998.52 1092.16   4
  -5  -3  -5 8976.68 1414.67   3
  -5  -3  -4 5573.38 1140.63   3
   5   3  -4 7465.59 1071.12   4
   5  -3   4 6675.70 1134.76   4
  -5  -3  -3 1978.65 668.024   3
   5  -3   3 1419.64 523.291   4
   5   3  -3 2565.01 673.804   4
  -5  -3  -2 2793.46 742.651   3
   5  -3   2 3036.37 843.667   4
   5   3  -2 3653.57 769.931   4
  -5  -3  -1 21158.5 2100.30   3
   5  -3   1 20747.5 1982.27   4
   5   3  -1 22477.2 1899.59   4
  -5  -3   0 21156.6 2112.27   3
   5  -3   0 20560.8 1938.60   4
   5   3   0 23128.1 1942.27   4
   5  -3  -1 22308.5 1992.22   4
   5   3   1 24504.9 2044.65   4
  -5  -3   1 20314.5 2064.42   3
  -5  -3   2 3507.92 834.262   3
   5  -3  -2 3288.61 754.220   4
   5   3   2 2869.02 717.513   4
  -5  -3   3 3099.54 854.759   3
   5  -3  -3 2424.65 698.630   4
   5   3   3 1553.70 539.995   4
  -5  -3   4 6106.25 1158.13   3
   5  -3  -4 6958.04 1085.16   4
   5   3   4 7453.68 1139.32   4
  -5  -3   5 8989.63 1393.59   3
   5  -3  -5 9108.70 1217.41   4
   5   3   5 7316.43 1144.77   4
   5   3   6 20001.8 1920.78   4
  -5  -3   6 24093.0 2268.64   3
   5   3   7 29237.9 2367.99   4
  -5  -3   7 28333.6 2499.67   3
  -5  -3   8 2268.23 756.207   3
   5   3   8 3029.11 781.117   4
  -5  -3   9 1356.50 559.338   3
   5   3   9 1760.93 653.580   4
  -5  -3  10 4515.18 991.834   3
   5   3  10 4821.34 1000.83   4
  -5  -3  11 1764.52 608.941   3
   5   3  11 2200.60 694.397   4
  -5  -3  12 4770.11 956.619   3
   5   4  -9 13227.6 1439.92   4
  -5  -4  -8 1361.42 571.963   3
   5   4  -8 1085.17 377.583   4
  -5  -4  -7 4041.28 1028.37   3
   5   4  -7 4040.08 811.656   4
  -5  -4  -6 3873.70 1062.64   3
   5   4  -6 2750.06 650.116   4
  -5  -4  -5 10689.9 1737.08   3
   5   4  -5 10209.4 1288.32   4
  -5  -4  -4 14536.5 1992.88   3
   5   4  -4 10387.5 1319.98   4
  -5  -4  -3 18365.3 2262.32   3
   5   4  -3 20193.6 1830.56   4
  -5  -4  -2 4366.46 1162.42   3
   5   4  -2 3761.62 852.089   4
  -5  -4  -1 15695.5 2032.50   3
   5   4  -1 14493.4 1624.59   4
  -5  -4   0 206.082 320.511   3
   5   4   0-56.7438 390.120   4
  -5  -4   1 15526.1 2021.57   3
   5   4   1 14070.7 1584.76   4
  -5  -4   2 3722.22 993.774   3
   5   4   2 4255.19 908.485   4
  -5  -4   3 19946.9 2223.99   3
   5   4   3 20095.3 1966.18   4
  -5  -4   4 12843.7 1727.52   3
   5   4   4 13808.3 1634.05   4
  -5  -4   5 12713.7 1707.07   3
   5   4   5 10020.0 1387.91   4
  -5  -4   6 4533.29 1023.20   3
  -5  -4   7 4106.28 964.318   3
  -5  -4   8 1513.41 590.304   3
  -5  -4   9 13896.8 1749.27   3
  -5  -4  10 24710.5 2344.06   3
  -5  -4  11 3757.98 1007.15   3
   6   0   0 28654.8 2387.37   4
  -6   0   0 25590.8 2399.36   3
  -6   0   1 6445.85 1222.53   3
  -6   0  -1 5105.09 1081.25   3
   6   0   1 6686.17 1159.95   4
   6   0  -1 6416.79 1085.07   4
  -6   0   2 114.326 313.969   3
  -6   0  -2 280.391 387.167   3
   6   0   2 308.933 272.658   4
   6   0  -2 970.107 506.151   4
   6   0   3 21928.4 2176.52   4
   6   0  -3 23272.5 2070.27   4
  -6   0   3 18740.4 2052.35   3
  -6   0  -3 21766.9 2209.40   3
  -6   0   4 62.7392 324.534   3
  -6   0  -4 99.5375 360.098   3
   6   0   4 398.938 500.533   4
   6   0  -4-208.677 293.246   4
   6   0   5 26019.1 2453.44   4
   6   0  -5 23932.5 2003.05   4
  -6   0   5 22566.4 2252.68   3
  -6   0  -5 21326.1 2204.96   3
  -6   0   6 4505.98 997.711   3
  -6   0  -6 5694.08 1162.85   3
   6   0   6 6531.50 1255.77   4
  -6   0  -7 292.441 333.040   3
  -6   0   7 204.168 310.241   3
  -6   0   8 10962.0 1561.21   3
  -6   0  -8 10318.8 1524.56   3
  -6   0  -9-146.789 402.563   3
  -6   0 -10 1352.23 570.702   3
  -6   0 -11 56164.2 3504.60   3
  -6  -1  -9 6250.74 1212.45   3
  -6  -1  -8 15537.3 1903.11   3
  -6  -1  -7 4036.62 1009.42   3
   6   1  -6 9527.11 1200.78   4
   6  -1   6 10388.7 1542.51   4
  -6  -1  -6 10950.7 1603.86   3
  -6  -1  -5 1165.31 633.458   3
   6   1  -5 365.691 206.409   4
  -6  -1  -4 3518.33 959.340   3
   6  -1   4 3161.17 930.726   4
   6   1  -4 2149.51 617.768   4
  -6  -1  -3 6996.98 1282.58   3
   6   1  -3 8575.03 1227.75   4
   6  -1   3 8239.89 1317.60   4
  -6  -1  -2 4555.63 1063.57   3
   6  -1   2 3669.87 877.746   4
   6   1  -2 3303.04 751.975   4
  -6  -1  -1 1143.82 570.410   3
   6  -1   1 484.132 419.662   4
   6   1  -1 161.065 240.854   4
  -6  -1   0 2582.58 816.688   3
   6  -1   0 4149.28 896.377   4
   6   1   0 4558.69 955.121   4
  -6  -1   1 865.377 468.807   3
   6  -1  -1 1190.90 500.400   4
   6   1   1 894.866 442.617   4
  -6  -1   2 3668.93 923.898   3
   6  -1  -2 3914.30 853.801   4
   6   1   2 3777.07 912.121   4
  -6  -1   3 7450.03 1328.25   3
   6  -1  -3 7800.90 1185.32   4
   6   1   3 8859.00 1400.62   4
  -6  -1   4 3102.27 901.533   3
   6  -1  -4 2769.25 717.909   4
   6   1   4 2882.61 817.610   4
  -6  -1   5 951.365 429.669   3
   6   1   5 1497.84 697.083   4
  -6  -1   6 11275.4 1610.04   3
  -6  -1   7 3022.21 921.290   3
  -6  -1   8 15936.9 1932.91   3
  -6  -1   9 5141.55 1098.28   3
  -6  -1  10 2427.59 788.220   3
   6   2  -6 17458.7 1684.09   4
   6   2  -5 1529.99 594.268   4
   6  -2   4 3367.91 914.230   4
   6   2  -4 2957.25 755.930   4
   6  -2   3 31687.5 2658.74   4
   6   2  -3 31401.4 2375.62   4
   6  -2   2 13473.2 1727.19   4
   6   2  -2 14486.6 1616.92   4
  -6  -2  -1 9885.84 1551.64   3
   6  -2   1 12394.1 1584.66   4
   6   2  -1 14011.6 1592.14   4
  -6  -2   0 5000.41 1117.47   3
   6  -2   0 4198.37 937.970   4
   6   2   0 5202.59 1005.14   4
   6  -2  -1 11444.3 1500.89   4
   6   2   1 10273.3 1414.21   4
  -6  -2   1 11549.4 1652.75   3
   6  -2  -2 14354.5 1662.39   4
   6   2   2 14705.8 1732.67   4
  -6  -2   2 12998.1 1762.39   3
   6  -2  -3 31958.5 2455.69   4
   6   2   3 29648.4 2487.45   4
  -6  -2   3 30688.5 2717.13   3
   6  -2  -4 3581.02 805.497   4
   6   3  -6 21421.7 1951.89   4
   6   3  -5 11342.7 1429.20   4
   6   3  -4 436.072 311.917   4
   6  -3   1 18932.3 2063.11   4
   6  -3   0 2472.31 800.370   4
   6  -3  -1 15633.5 1820.76   4
   6  -3  -2 6786.16 1175.23   4
   6  -3  -3 2222.68 677.691   4
;
_shelx_hkl_checksum              87042
loop_
_space_group_symop_operation_xyz
'x, y, z'
'-x+1/2, -y, z+1/2'
'x+1/2, -y+1/2, -z'
'-x, y+1/2, -z+1/2'
loop_
_atom_site_label
_atom_site_type_symbol
_atom_site_fract_x
_atom_site_fract_y
_atom_site_fract_z
_atom_site_U_iso_or_equiv
_atom_site_adp_type
_atom_site_occupancy
_atom_site_site_symmetry_order
_atom_site_calc_flag
Cl1 Cl 0.44351(11) 0.71428(10) 0.81988(3) 0.02759(17) Uani 1 1 d
O1 O -0.2261(3) 0.4608(3) 1.00421(7) 0.0248(4) Uani 1 1 d
N1 N -0.1169(3) 0.4245(3) 0.94315(8) 0.0170(4) Uani 1 1 d
N2 N 0.1199(4) 0.3462(3) 0.81203(9) 0.0210(4) Uani 1 1 d
C1 C 0.0837(4) 0.5720(4) 0.91829(10) 0.0189(4) Uani 1 1 d
C2 C 0.1916(4) 0.5251(4) 0.85283(10) 0.0176(4) Uani 1 1 d
C3 C -0.0769(4) 0.2032(4) 0.83956(10) 0.0206(4) Uani 1 1 d
C4 C -0.1983(4) 0.2368(4) 0.90375(10) 0.0187(4) Uani 1 1 d
H1 H 0.141(5) 0.698(4) 0.9460(12) 0.026(6) Uiso 1 1 d
H3 H -0.124(5) 0.073(5) 0.8122(12) 0.026(6) Uiso 1 1 d
H4 H -0.327(6) 0.145(4) 0.9210(13) 0.027(7) Uiso 1 1 d
loop_
_atom_site_aniso_label
_atom_site_aniso_U_11
_atom_site_aniso_U_22
_atom_site_aniso_U_33
_atom_site_aniso_U_23
_atom_site_aniso_U_13
_atom_site_aniso_U_12
Cl1 0.0227(3) 0.0300(3) 0.0301(3) 0.0056(2) 0.0012(2) -0.0090(2)
O1 0.0300(9) 0.0272(8) 0.0172(7) -0.0040(6) 0.0073(6) 0.0011(8)
N1 0.0178(8) 0.0184(8) 0.0148(8) -0.0015(6) 0.0006(6) 0.0035(7)
N2 0.0226(9) 0.0225(9) 0.0179(8) -0.0007(6) 0.0012(7) -0.0002(7)
C1 0.0205(10) 0.0177(9) 0.0184(9) -0.0017(7) -0.0029(8) 0.0004(9)
C2 0.0140(9) 0.0194(10) 0.0195(9) 0.0030(7) -0.0013(7) -0.0009(8)
C3 0.0247(10) 0.0190(9) 0.0180(9) -0.0028(7) -0.0012(8) -0.0037(10)
C4 0.0188(9) 0.0183(10) 0.0190(9) 0.0007(7) -0.0007(7) -0.0028(9)
loop_
_atom_type_symbol
_atom_type_description
_atom_type_scat_dispersion_real
_atom_type_scat_dispersion_imag
_atom_type_scat_source
Cl Cl 0.1484 0.1585 'International Tables Vol C Tables 4.2.6.8 and 6.1.1.4'
O O 0.0106 0.0060 'International Tables Vol C Tables 4.2.6.8 and 6.1.1.4'
N N 0.0061 0.0033 'International Tables Vol C Tables 4.2.6.8 and 6.1.1.4'
C C 0.0033 0.0016 'International Tables Vol C Tables 4.2.6.8 and 6.1.1.4'
H H 0.0000 0.0000 'International Tables Vol C Tables 4.2.6.8 and 6.1.1.4'
loop_
_geom_angle_atom_site_label_1
_geom_angle_atom_site_label_2
_geom_angle_atom_site_label_3
_geom_angle
O1 N1 C4 120.32(16)
O1 N1 C1 120.24(16)
C4 N1 C1 119.43(17)
C2 N2 C3 114.39(17)
N1 C1 C2 117.66(18)
N1 C1 H1 118.7(16)
C2 C1 H1 123.6(16)
N2 C2 C1 125.60(19)
N2 C2 Cl1 116.22(16)
C1 C2 Cl1 118.18(15)
N2 C3 C4 124.21(19)
N2 C3 H3 115.2(15)
C4 C3 H3 120.6(15)
N1 C4 C3 118.70(19)
N1 C4 H4 117.4(17)
C3 C4 H4 123.9(17)
loop_
_geom_bond_atom_site_label_1
_geom_bond_atom_site_label_2
_geom_bond_distance
Cl1 C2 1.731(2)
O1 N1 1.2915(19)
N1 C4 1.357(2)
N1 C1 1.358(3)
N2 C2 1.321(3)
N2 C3 1.349(3)
C1 C2 1.375(3)
C1 H1 0.93(2)
C3 C4 1.367(3)
C3 H3 0.93(3)
C4 H4 0.87(3)
loop_
_geom_hbond_atom_site_label_D
_geom_hbond_atom_site_label_H
_geom_hbond_atom_site_label_A
_geom_hbond_distance_DH
_geom_hbond_distance_HA
_geom_hbond_distance_DA
_geom_hbond_angle_DHA
_geom_hbond_site_symmetry_A
C1 H1 O1 0.93(2) 2.24(2) 3.160(3) 170(2) 3_567
C3 H3 Cl1 0.93(3) 2.91(3) 3.616(2) 134.2(19) 1_445
C3 H3 N2 0.93(3) 2.69(3) 3.528(3) 150.4(19) 4_546
C4 H4 O1 0.87(3) 2.46(3) 3.276(3) 156(2) 3_457
loop_
_geom_torsion_atom_site_label_1
_geom_torsion_atom_site_label_2
_geom_torsion_atom_site_label_3
_geom_torsion_atom_site_label_4
_geom_torsion
O1 N1 C1 C2 -179.76(17)
C4 N1 C1 C2 1.3(3)
C3 N2 C2 C1 0.1(3)
C3 N2 C2 Cl1 -179.95(15)
N1 C1 C2 N2 -1.0(3)
N1 C1 C2 Cl1 178.99(14)
C2 N2 C3 C4 0.6(3)
O1 N1 C4 C3 -179.60(18)
C1 N1 C4 C3 -0.7(3)
N2 C3 C4 N1 -0.4(3)
