#------------------------------------------------------------------------------
#$Date: 2019-11-04 08:50:55 +0200 (Mon, 04 Nov 2019) $
#$Revision: 222275 $
#$URL: file:///home/coder/svn-repositories/cod/cif/4/03/37/4033700.cif $
#------------------------------------------------------------------------------
#
# This file is available in the Crystallography Open Database (COD),
# http://www.crystallography.net/
#
# All data on this site have been placed in the public domain by the
# contributors.
#
data_4033700
loop_
_publ_author_name
'Kaleta, Ji\<r\'i'
'Ron\<cevi\'c, Igor'
'C\'isa\<rov\'a, Ivana'
'Dra\<c\'insk\'y, Martin'
'\<Sol\'inov\'a, Veronika'
'Ka\<si\<cka, V\'aclav'
'Michl, Josef'
_publ_section_title
;
 Bridge-Chlorinated Bicyclo[1.1.1]pentane-1,3-dicarboxylic Acids.
;
_journal_issue                   5
_journal_name_full               'The Journal of organic chemistry'
_journal_page_first              2448
_journal_page_last               2461
_journal_paper_doi               10.1021/acs.joc.8b02780
_journal_volume                  84
_journal_year                    2019
_chemical_compound_source        'Synthesized by Dr. Jiri Kaleta'
_chemical_formula_moiety         'C7 H6 Cl2 O4'
_chemical_formula_sum            'C7 H6 Cl2 O4'
_chemical_formula_weight         225.02
_space_group_crystal_system      monoclinic
_space_group_IT_number           14
_space_group_name_Hall           '-P 2ybc'
_space_group_name_H-M_alt        'P 1 21/c 1'
_atom_sites_solution_hydrogens   mixed
_audit_creation_method           SHELXL-2018/1
_cell_angle_alpha                90
_cell_angle_beta                 106.715(2)
_cell_angle_gamma                90
_cell_formula_units_Z            4
_cell_length_a                   8.3441(6)
_cell_length_b                   8.7828(6)
_cell_length_c                   12.8812(10)
_cell_measurement_reflns_used    9971
_cell_measurement_temperature    150(2)
_cell_measurement_theta_max      27.5109
_cell_measurement_theta_min      2.5486
_cell_volume                     904.11(11)
_computing_cell_refinement       'SAINT V8.38A (Bruker AXS Inc., 2017)'
_computing_data_collection       'Bruker Instrument Service vV6.2.9'
_computing_data_reduction        'SAINT V8.38A (Bruker AXS Inc., 2017)'
_computing_structure_refinement  'SHELXL-2018/1 (Sheldrick, 2018)'
_computing_structure_solution    'SHELXT 2014/5 (Sheldrick, 2014)'
_diffrn_ambient_temperature      150(2)
_diffrn_measured_fraction_theta_full 0.999
_diffrn_measured_fraction_theta_max 0.995
_diffrn_measurement_device_type  'Bruker D8 VENTURE Kappa Duo PHOTON 100 CMOS'
_diffrn_measurement_method       '\f and \w scans'
_diffrn_radiation_monochromator  'Quazar Mo multilayer optic'
_diffrn_radiation_type           MoK\a
_diffrn_radiation_wavelength     0.71073
_diffrn_reflns_av_R_equivalents  0.0212
_diffrn_reflns_av_unetI/netI     0.0156
_diffrn_reflns_Laue_measured_fraction_full 0.999
_diffrn_reflns_Laue_measured_fraction_max 0.995
_diffrn_reflns_limit_h_max       10
_diffrn_reflns_limit_h_min       -10
_diffrn_reflns_limit_k_max       11
_diffrn_reflns_limit_k_min       -11
_diffrn_reflns_limit_l_max       16
_diffrn_reflns_limit_l_min       -16
_diffrn_reflns_number            12778
_diffrn_reflns_point_group_measured_fraction_full 0.999
_diffrn_reflns_point_group_measured_fraction_max 0.995
_diffrn_reflns_theta_full        25.242
_diffrn_reflns_theta_max         27.526
_diffrn_reflns_theta_min         2.549
_diffrn_source                   'I\mS  micro-focus sealed tube'
_exptl_absorpt_coefficient_mu    0.695
_exptl_absorpt_correction_T_max  0.90
_exptl_absorpt_correction_T_min  0.84
_exptl_absorpt_correction_type   multi-scan
_exptl_absorpt_process_details
;
SADABS-2016/2 - Bruker AXS area detector scaling and absorption correction
;
_exptl_crystal_colour            colourless
_exptl_crystal_density_diffrn    1.653
_exptl_crystal_description       prism
_exptl_crystal_F_000             456
_exptl_crystal_size_max          0.270
_exptl_crystal_size_mid          0.198
_exptl_crystal_size_min          0.158
_refine_diff_density_max         0.352
_refine_diff_density_min         -0.255
_refine_diff_density_rms         0.044
_refine_ls_extinction_coef       0.0108(16)
_refine_ls_extinction_expression Fc^*^=kFc[1+0.001xFc^2^\l^3^/sin(2\q)]^-1/4^
_refine_ls_extinction_method     'SHELXL-2018/1 (Sheldrick 2018)'
_refine_ls_goodness_of_fit_ref   1.041
_refine_ls_hydrogen_treatment    constr
_refine_ls_matrix_type           full
_refine_ls_number_parameters     120
_refine_ls_number_reflns         2084
_refine_ls_number_restraints     0
_refine_ls_restrained_S_all      1.041
_refine_ls_R_factor_all          0.0279
_refine_ls_R_factor_gt           0.0236
_refine_ls_shift/su_max          0.001
_refine_ls_shift/su_mean         0.000
_refine_ls_structure_factor_coef Fsqd
_refine_ls_weighting_details
'w=1/[\s^2^(Fo^2^)+(0.0329P)^2^+0.3895P] where P=(Fo^2^+2Fc^2^)/3'
_refine_ls_weighting_scheme      calc
_refine_ls_wR_factor_gt          0.0623
_refine_ls_wR_factor_ref         0.0644
_reflns_Friedel_coverage         0.000
_reflns_number_gt                1876
_reflns_number_total             2084
_reflns_threshold_expression     'I > 2\s(I)'
_cod_data_source_file            jo8b02780_si_003.cif
_cod_data_source_block           JK830
_cod_original_sg_symbol_H-M      'P 21/c'
_cod_database_code               4033700
_shelx_shelxl_version_number     2018/1
_shelx_space_group_comment
;
The symmetry employed for this shelxl refinement is uniquely defined
by the following loop, which should always be used as a source of
symmetry information in preference to the above space-group names.
They are only intended as comments.
;
_shelx_estimated_absorpt_t_min   0.835
_shelx_estimated_absorpt_t_max   0.898
_shelx_res_file
;
TITL jk830_kaleta_0m_a.res in P2(1)/c
    jk830_kaleta.res
    created by SHELXL-2018/1 at 20:22:42 on 19-Sep-2018
REM Old TITL jk830_kaleta_0m in P2(1)/c
REM SHELXT solution in P2(1)/c
REM R1 0.108,  Rweak 0.003,  Alpha 0.020,  Orientation as input
REM Formula found by SHELXT:  C7 Cl2 O4
CELL  0.71073   8.3441   8.7828  12.8812   90.000  106.715   90.000
ZERR    4.000   0.0006   0.0006   0.0010    0.000    0.002    0.000
LATT  1
SYMM -X, 1/2+Y, 1/2-Z
SFAC C H CL O
UNIT 28 24 8 16
TEMP -123.150
SIZE 0.158 0.198 0.27
L.S. 10
BOND $H
HTAB
EQIV $1 -x+1, -y+1, -z+1
HTAB O1 O2_$1
EQIV $2 -x, -y+1, -z+2
HTAB O3 O4_$2
HTAB O4 O3_$2
LIST 4
ACTA
FMAP 2
PLAN -20
WGHT    0.032900    0.389500
EXTI    0.010809
FVAR       0.83740   0.64177
CL1   3    0.503028    0.628489    0.879882    11.00000    0.01880    0.04268 =
         0.01799   -0.00211    0.00329   -0.00604
CL2   3    0.247965    0.820754    0.750351    11.00000    0.03290    0.01555 =
         0.03573   -0.00048    0.01814    0.00012
O1    4    0.294051    0.443315    0.510480    11.00000    0.02149    0.03527 =
         0.01688   -0.00786    0.01077   -0.00524
AFIX   3
H1    2    0.357811    0.435994    0.467421    11.00000   -1.20000
AFIX   0
O2    4    0.501042    0.590296    0.611265    11.00000    0.02401    0.02776 =
         0.02169   -0.00661    0.01482   -0.00797
O3    4    0.136317    0.395051    0.947994    11.00000    0.03055    0.02770 =
         0.02174    0.00831    0.01513    0.00525
AFIX   3
H3    2    0.093409    0.392752    1.000647    21.00000   -1.20000
AFIX   0
O4    4    0.005518    0.615988    0.893882    11.00000    0.03866    0.02930 =
         0.03170    0.00739    0.02618    0.01228
AFIX   3
H4    2   -0.035625    0.614135    0.937436   -21.00000   -1.20000
AFIX   0
C1    1    0.175479    0.511029    0.793332    11.00000    0.01677    0.01647 =
         0.01522    0.00029    0.00908   -0.00055
C2    1    0.307782    0.627440    0.779218    11.00000    0.01546    0.01791 =
         0.01470   -0.00003    0.00685   -0.00032
C3    1    0.279353    0.518516    0.681673    11.00000    0.01681    0.01688 =
         0.01421   -0.00057    0.00834   -0.00018
C4    1    0.088008    0.528705    0.669007    11.00000    0.01635    0.02578 =
         0.01541   -0.00071    0.00733   -0.00201
AFIX  23
H4A   2    0.019482    0.441258    0.632907    11.00000   -1.20000
H4B   2    0.034495    0.628337    0.645257    11.00000   -1.20000
AFIX   0
C5    1    0.284176    0.384832    0.763113    11.00000    0.02541    0.01753 =
         0.02113    0.00233    0.01481    0.00170
AFIX  23
H5A   2    0.224702    0.290554    0.731704    11.00000   -1.20000
H5B   2    0.393734    0.365016    0.816758    11.00000   -1.20000
AFIX   0
C6    1    0.098545    0.509248    0.884612    11.00000    0.01608    0.01911 =
         0.01566    0.00022    0.00742   -0.00175
C7    1    0.369266    0.522472    0.596898    11.00000    0.01869    0.01528 =
         0.01420    0.00086    0.00716    0.00245
HKLF 4




REM  jk830_kaleta_0m_a.res in P2(1)/c
REM R1 =  0.0236 for    1876 Fo > 4sig(Fo)  and  0.0279 for all    2084 data
REM    120 parameters refined using      0 restraints

END

WGHT      0.0316      0.3959

REM Instructions for potential hydrogen bonds
HTAB O1 O2_$1
HTAB O3 O4_$2
HTAB O4 O3_$2

REM Highest difference peak  0.352,  deepest hole -0.255,  1-sigma level  0.044
Q1    1   0.2353  0.5780  0.8013  11.00000  0.05    0.35
Q2    1   0.3172  0.5190  0.6422  11.00000  0.05    0.33
Q3    1   0.1763  0.5217  0.6614  11.00000  0.05    0.33
Q4    1   0.2369  0.4453  0.7965  11.00000  0.05    0.32
Q5    1   0.1469  0.5102  0.8369  11.00000  0.05    0.32
Q6    1   0.3054  0.5848  0.7242  11.00000  0.05    0.31
Q7    1   0.3022  0.4458  0.7152  11.00000  0.05    0.31
Q8    1   0.1115  0.5212  0.7400  11.00000  0.05    0.27
Q9    1   0.1573  0.4681  0.9405  11.00000  0.05    0.18
Q10   1   0.4453  0.4303  0.4195  11.00000  0.05    0.16
Q11   1   0.3857  0.6259  0.8227  11.00000  0.05    0.16
Q12   1   0.0958  0.5958  0.9170  11.00000  0.05    0.16
Q13   1   0.4772  0.3948  0.4381  11.00000  0.05    0.15
Q14   1   0.3248  0.7897  0.7947  11.00000  0.05    0.15
Q15   1  -0.0020  0.6510  0.8423  11.00000  0.05    0.15
Q16   1   0.0591  0.4082  0.9090  11.00000  0.05    0.15
Q17   1   0.4195  0.5938  0.5932  11.00000  0.05    0.14
Q18   1   0.4633  0.5169  0.6194  11.00000  0.05    0.13
Q19   1   0.3427  0.4736  0.5564  11.00000  0.05    0.13
Q20   1   0.5125  0.6266  0.6411  11.00000  0.05    0.13
;
_shelx_res_checksum              17477
_shelx_hkl_file
;
  -1   0   0  673.03   13.30
  -2   0   0  114.09    3.30
   2   0   0  122.09    2.60
   3   0   0  497.25   10.10
  -3   0   0  503.35   10.70
  -4   0   0 5059.89   98.79
  -5   0   0 3879.01   76.69
   5   0   0 3896.61   75.69
  -6   0   0  344.57    9.10
   6   0   0  342.57    8.00
  -7   0   0   75.89    4.80
   7   0   0   77.39    3.50
   8   0   0 1227.08   27.00
  -8   0   0 1272.47   27.60
   9   0   0  513.85   13.00
  -9   0   0  533.65   14.80
 -10   0   0  379.86   12.60
  10   0   0  362.06   10.90
   0  -1   0    0.30    0.30
   0  -1   0    0.00    0.20
   0   1   0    0.20    0.30
   1  -1   0  829.12   16.20
  -1  -1   0  804.12   16.10
  -1   1   0  834.72   16.20
  -2  -1   0   42.00    1.40
   2  -1   0   40.70    1.40
  -2  -1   0   40.70    1.00
   2   1   0   40.30    1.20
   2   1   0   39.50    1.40
  -2   1   0   43.40    1.30
   3  -1   0  911.41   18.40
  -3  -1   0  918.71   18.60
  -3   1   0  939.11   19.00
   3   1   0  916.21   18.60
   3   1   0  929.71   18.20
  -3   1   0  905.41   18.00
  -4  -1   0   22.50    1.80
   4  -1   0   18.60    1.20
   4  -1   0   22.60    1.60
  -4   1   0   17.40    2.10
   4   1   0   19.30    1.40
   5  -1   0  564.74   11.80
  -5  -1   0  552.54   12.40
   5  -1   0  542.95   11.20
   5   1   0  553.04   11.60
  -5   1   0  547.25   12.70
   6  -1   0  105.39    3.70
  -6  -1   0  101.99    4.50
  -6   1   0  109.39    4.70
   6   1   0  102.29    3.50
  -7  -1   0  153.48    6.10
   7  -1   0  158.28    5.10
   7   1   0  157.68    4.90
  -7   1   0  155.48    6.10
  -8  -1   0   11.00    3.50
  -8   1   0   11.90    3.20
  -9  -1   0   28.50    4.10
   9  -1   0   25.40    3.80
  -9   1   0   26.30    4.70
   9   1   0   26.30    3.80
 -10  -1   0    7.90    4.70
  10  -1   0    8.30    4.20
  10   1   0    4.60    4.70
 -10   1   0    5.90    5.90
  10   1   0   -2.50    4.10
   0  -2   0 6222.88  125.19
   0   2   0 6244.98  125.39
  -1  -2   0  160.98    3.70
  -1  -2   0  155.88    3.70
   1  -2   0  154.78    3.80
   1   2   0  158.98    3.70
  -1   2   0  151.88    4.10
   1   2   0  160.38    3.80
   2  -2   0  135.29    3.50
  -2  -2   0  133.39    3.10
  -2  -2   0  132.29    3.20
  -2   2   0  133.39    3.30
   2   2   0  131.99    3.30
   2   2   0  131.89    3.10
   2   2   0  132.49    3.30
  -3  -2   0   17.70    0.80
   3  -2   0   17.70    1.50
  -3  -2   0   19.20    0.80
  -3  -2   0   19.10    1.30
  -3   2   0   18.30    1.20
   3   2   0   19.80    1.50
   3   2   0   19.30    1.00
   3   2   0   18.80    1.40
  -4  -2   0  692.93   14.60
   4  -2   0  689.33   14.60
   4   2   0  705.53   14.40
  -4   2   0  702.83   15.30
  -5  -2   0  474.95   10.90
   5  -2   0  489.35   10.70
  -5   2   0  478.95   11.50
   5   2   0  479.65   10.40
   6  -2   0  142.49    4.50
   6  -2   0  138.69    3.90
  -6  -2   0  138.99    5.00
  -6   2   0  130.09    5.50
   6   2   0  135.59    4.30
   7  -2   0    7.30    2.00
   7  -2   0    6.60    1.20
  -7  -2   0    6.00    2.50
   7   2   0    5.00    1.90
   7   2   0    7.40    2.20
  -7   2   0    5.30    2.60
  -8  -2   0   52.39    4.90
   8  -2   0   49.20    4.70
  -8   2   0   49.50    5.00
   8   2   0   52.99    4.50
   8   2   0   59.09    4.10
  -9  -2   0   52.39    6.10
   9  -2   0   70.49    6.40
   9   2   0   57.59    5.70
   9   2   0   54.19    6.10
  -9   2   0   62.49    7.20
  10  -2   0  136.29    8.40
  10   2   0  137.69    7.50
 -10   2   0  145.49    9.70
   0  -3   0   -0.40    0.80
   0  -3   0   -0.60    0.70
   0   3   0   -1.50    0.80
   0   3   0   -1.00    0.60
  -1  -3   0  707.23   14.80
   1  -3   0  734.93   15.10
   1  -3   0  722.53   15.00
  -1  -3   0  720.13   14.90
   1   3   0  728.93   15.00
  -1   3   0  717.43   14.90
  -1   3   0  711.93   15.00
   1   3   0  723.23   14.90
  -2  -3   0    7.50    0.90
   2  -3   0    6.60    1.20
   2  -3   0    6.50    1.20
  -2  -3   0    8.50    1.00
  -2   3   0    6.20    0.90
   2   3   0    6.10    0.90
   2   3   0    7.40    0.70
   2   3   0    8.70    1.20
  -3  -3   0  174.28    4.20
   3  -3   0  178.28    4.80
  -3  -3   0  179.88    4.20
   3   3   0  178.08    4.70
   3   3   0  174.88    4.20
  -3   3   0  179.68    4.50
   4  -3   0    2.00    1.30
   4   3   0    0.70    1.20
  -4   3   0    2.80    1.50
   4   3   0    2.90    1.10
  -4   3   0    1.90    0.70
   4   3   0    2.40    0.50
   5  -3   0   20.70    2.60
   5   3   0   18.10    1.50
  -5   3   0   21.60    2.50
   5   3   0   23.30    2.40
   6  -3   0  230.08    6.70
   6  -3   0  222.58    6.20
   6   3   0  226.18    6.40
  -6   3   0  226.08    7.40
   6   3   0  233.28    5.60
   7  -3   0    3.20    2.30
   7  -3   0    0.40    1.60
  -7   3   0    2.00    2.70
   7   3   0   -2.50    1.60
   8  -3   0   23.70    3.60
   8  -3   0   23.00    2.20
   8   3   0   20.60    2.70
   8   3   0   30.70    3.70
   9  -3   0   63.19    6.40
   9   3   0   56.99    4.90
   9   3   0   72.19    6.40
  -9   3   0   55.79    6.30
 -10   3   0   -0.70    5.50
   0  -4   0 2745.23   53.69
   0  -4   0 2697.73   53.49
   0   4   0 2699.43   53.49
   0   4   0 2698.63   53.69
   1  -4   0 1002.90   21.00
  -1  -4   0  994.40   20.90
   1  -4   0 1003.80   21.20
  -1  -4   0 1029.70   20.90
  -1   4   0  995.30   21.00
  -1   4   0 1016.00   20.90
   1   4   0 1027.90   20.90
   1   4   0 1029.40   21.10
   2  -4   0 1584.74   32.30
  -2  -4   0 1559.74   31.90
   2  -4   0 1600.54   32.20
  -2  -4   0 1611.44   31.90
   2   4   0 1580.54   32.00
  -2   4   0 1584.04   32.10
   2   4   0 1623.04   32.30
  -3  -4   0  315.77    7.20
   3  -4   0  314.47    7.80
   3  -4   0  308.67    7.90
  -3  -4   0  314.27    7.20
   3   4   0  311.87    7.40
   3   4   0  309.47    6.70
  -3   4   0  307.67    7.50
   3   4   0  313.67    7.70
   4  -4   0 2348.17   48.40
  -4  -4   0 2344.07   46.60
  -4  -4   0 2398.76   46.60
   4  -4   0 2409.26   47.90
  -4   4   0 2374.46   47.20
   4   4   0 2315.97   46.70
   4   4   0 2421.66   47.60
  -4   4   0 2442.96   48.20
   5  -4   0  500.85   12.10
  -5   4   0  518.35   12.70
   5   4   0  522.35   11.90
   6  -4   0  948.31   20.40
  -6  -4   0  924.11   19.00
  -6   4   0  913.71   21.10
   7  -4   0   18.50    2.50
   7  -4   0   20.40    2.90
   7   4   0   19.70    3.10
   7   4   0   20.50    1.80
  -7   4   0   25.30    3.40
   8  -4   0  389.76   11.40
   8  -4   0  402.36   10.20
  -8   4   0  399.96   12.80
   8   4   0  403.86   11.20
   9  -4   0   79.29    4.40
   9  -4   0   70.29    7.20
   9   4   0   74.09    7.50
  -9   4   0   87.39    7.90
   9   4   0   75.99    3.40
   0  -5   0    0.60    1.40
   0  -5   0    3.10    1.50
   0   5   0    3.30    1.60
   0   5   0    4.40    1.30
  -1  -5   0  251.87    6.50
  -1  -5   0  240.78    6.60
   1  -5   0  233.58    6.70
   1  -5   0  238.78    6.70
   1   5   0  247.98    6.90
  -1   5   0  245.98    6.80
  -1   5   0  250.47    6.50
   1   5   0  243.68    6.50
  -2  -5   0  108.59    2.70
   2  -5   0  102.69    4.00
  -2  -5   0  107.69    3.90
  -2  -5   0  110.19    3.80
  -2   5   0  112.79    3.90
   2   5   0  110.49    4.30
   2   5   0  109.89    3.80
  -3  -5   0  695.93   15.00
  -3  -5   0  678.73   15.00
   3  -5   0  688.63   15.70
   3  -5   0  788.12   16.80
   3   5   0  675.83   16.40
   3   5   0  683.43   14.10
  -3   5   0  697.13   15.30
   3   5   0  696.43   15.20
   4  -5   0   27.30    3.20
   4  -5   0   27.60    2.80
  -4  -5   0   27.30    2.20
  -4  -5   0   28.50    2.00
   4   5   0   23.70    2.60
  -4   5   0   25.30    2.40
   4   5   0   28.50    1.90
  -4   5   0   26.40    2.70
  -5  -5   0  201.68    4.50
   5  -5   0  204.88    6.90
   5  -5   0  192.48    6.60
  -5   5   0  196.58    7.00
   6  -5   0   12.20    2.70
   6  -5   0   10.60    2.60
  -6   5   0    6.50    2.60
   6   5   0    9.20    2.90
  -7  -5   0    1.50    1.60
   7  -5   0    6.50    2.70
   7  -5   0    3.00    3.30
   7   5   0    2.80    3.70
  -7   5   0    2.90    3.40
   8  -5   0   11.50    3.60
   8  -5   0   13.30    3.80
   8   5   0   13.80    4.80
  -8   5   0   22.00    4.60
   9  -5   0   18.90    4.50
  -9   5   0   19.60    5.50
   9   5   0   15.20    5.50
   0  -6   0  586.44   13.40
   0  -6   0  569.84   13.50
   0   6   0  574.64   14.60
   0   6   0  577.34   13.30
   1  -6   0   42.80    3.40
  -1  -6   0   46.40    3.30
   1  -6   0   45.70    3.50
   1   6   0   44.90    3.60
   1   6   0   45.30    3.00
  -1   6   0   47.80    3.10
  -2  -6   0  862.61   18.60
   2  -6   0  880.61   19.10
   2  -6   0  857.61   19.30
  -2  -6   0  856.01   18.70
   2   6   0  847.42   18.70
  -2   6   0  863.01   18.80
   2   6   0  880.71   19.20
   3  -6   0    0.60    1.80
  -3  -6   0   -2.00    1.50
   3  -6   0   -0.60    2.10
  -3  -6   0    2.20    1.80
   3   6   0   -0.10    0.90
   3   6   0    0.50    2.10
  -3   6   0    0.60    1.80
  -4  -6   0   32.70    3.10
   4  -6   0   32.80    3.40
   4  -6   0   36.00    4.20
  -4  -6   0   35.50    2.90
   4   6   0   38.00    2.00
  -4   6   0   33.30    3.80
   4   6   0   32.40    3.90
   5  -6   0    5.40    2.80
  -5  -6   0   12.00    1.50
   5  -6   0    8.50    2.50
  -5  -6   0   11.30    1.40
  -5   6   0   11.70    2.80
   5   6   0   13.70    3.10
   6  -6   0  442.46   12.20
   6  -6   0  417.86   11.90
  -6   6   0  440.86   12.40
   6   6   0  437.66   12.10
   7  -6   0   38.30    4.30
  -7  -6   0   35.20    4.00
   7  -6   0   46.10    5.50
  -7   6   0   37.50    4.70
   7   6   0   37.20    4.70
   8  -6   0   55.69    6.80
   8  -6   0   36.70    4.70
  -8  -6   0   37.70    2.80
  -8   6   0   60.49    7.40
   8   6   0   47.30    5.30
   0  -7   0   -1.20    2.10
   0  -7   0   -0.10    2.20
   0   7   0   -2.60    2.40
   0   7   0    2.40    1.80
   1  -7   0 1479.85   31.70
   1  -7   0 1494.65   32.00
  -1  -7   0 1546.15   31.80
  -1  -7   0 1540.25   31.60
  -1   7   0 1487.25   31.50
  -1   7   0 1497.85   31.90
   1   7   0 1511.65   32.00
   1   7   0 1468.95   31.40
   2  -7   0  108.29    5.40
  -2  -7   0  101.79    5.80
   2  -7   0   98.09    5.30
  -2  -7   0   99.29    4.70
  -2  -7   0  102.49    3.00
  -2   7   0  103.59    4.60
   2   7   0  103.49    5.50
   2   7   0  103.19    4.70
   3  -7   0  102.69    5.30
  -3  -7   0  100.99    4.70
   3  -7   0   98.99    5.40
  -3  -7   0   99.79    5.40
   3   7   0   98.59    2.80
   3   7   0  102.59    6.00
  -3   7   0  100.19    4.60
   4  -7   0    5.80    2.90
  -4  -7   0    0.70    2.10
   4  -7   0    0.50    2.30
  -4  -7   0    1.80    2.00
   4   7   0    5.10    2.80
  -4   7   0   -1.30    2.30
  -5  -7   0  191.28    5.40
   5  -7   0  175.88    7.40
   5  -7   0  191.88    7.60
  -5  -7   0  184.48    5.60
  -5   7   0  179.28    7.40
   5   7   0  175.48    7.50
   6  -7   0    9.90    3.80
   6   7   0   19.30    3.90
  -7  -7   0  266.07    9.00
   7   7   0  256.67    9.70
  -7   7   0  262.57   10.50
   8  -7   0    2.30    5.00
   8  -7   0    8.80    5.00
  -8   7   0   13.00    5.50
   0  -8   0  324.27    9.60
   0  -8   0  317.57    9.60
   0   8   0  328.27   10.00
   0   8   0  317.77    9.30
  -1  -8   0    4.90    2.70
  -1  -8   0    5.80    2.60
   1  -8   0   13.60    3.00
   1  -8   0   14.40    3.00
  -1   8   0   12.90    2.60
   1   8   0   11.10    3.20
  -1   8   0    5.20    2.90
   2  -8   0  752.52   18.20
  -2  -8   0  753.82   15.80
  -2  -8   0  776.42   17.70
   2  -8   0  754.32   18.40
  -2  -8   0  772.82   17.90
   2   8   0  763.92   18.50
  -3  -8   0   54.79    4.60
   3  -8   0   60.49    5.30
  -3  -8   0   50.69    4.50
   3  -8   0   54.49    5.20
   3   8   0   47.90    5.40
  -3   8   0   58.39    4.30
  -4  -8   0   41.00    4.00
   4  -8   0   41.70    5.10
   4  -8   0   40.40    4.10
  -4   8   0   48.60    5.20
   4   8   0   46.20    4.80
   5  -8   0  168.88    9.00
  -5  -8   0  190.58    6.40
  -5  -8   0  194.88    6.10
  -5   8   0  191.58    8.20
   5   8   0  172.08    8.20
   6  -8   0  524.05   15.10
  -6   8   0  522.55   15.40
   7  -8   0   -2.40    4.30
  -7   8   0    6.10    5.70
   0  -9   0    4.90    3.20
   0  -9   0    0.40    3.40
   0   9   0   -0.80    3.30
   1  -9   0   10.30    3.30
  -1  -9   0    9.30    2.20
  -1  -9   0    1.80    3.60
  -1  -9   0    6.70    3.30
   1  -9   0   10.60    3.50
   1   9   0    8.20    2.90
  -1   9   0    9.50    3.70
  -2  -9   0    2.40    3.10
  -2  -9   0    2.20    1.40
   2  -9   0    5.20    3.00
  -2  -9   0    1.20    1.80
  -2  -9   0   -1.00    3.10
  -2   9   0   -1.90    2.50
  -3  -9   0  230.18    8.50
  -3  -9   0  227.88    7.70
   3  -9   0  178.28   10.10
  -3   9   0  226.08    8.10
  -4  -9   0   61.79    5.40
   4  -9   0   40.50    5.10
  -4  -9   0   50.19    5.50
  -4   9   0   52.79    5.50
   5  -9   0  106.89    8.00
  -5  -9   0  103.09    5.60
  -5   9   0  103.69    8.10
   6  -9   0    7.40    5.00
  -6  -9   0    0.30    2.00
  -6   9   0    2.90    4.90
   0 -10   0  255.77   10.20
   0  10   0  268.97    7.90
   1 -10   0   33.80    4.90
  -1 -10   0   32.00    4.90
  -1 -10   0   29.20    4.70
  -1 -10   0   30.80    3.80
   1  10   0   31.20    3.40
  -1  10   0   36.70    3.60
  -2 -10   0   16.50    1.90
   2 -10   0    8.20    4.40
  -2 -10   0   16.80    4.20
  -2 -10   0   14.70    2.20
  -2  10   0   19.30    3.50
  -3 -10   0   23.60    4.40
   3 -10   0   27.30    4.90
  -3 -10   0   23.70    4.40
  -3  10   0   24.20    3.90
   4 -10   0    0.70    4.80
  -4 -10   0   -0.50    4.00
  -4 -10   0    3.40    3.90
  -4  10   0    0.00    4.40
   0 -11   0   10.60    3.70
   0 -11   0    7.00    4.90
   1 -11   0   38.10    6.00
  -1 -11   0   25.60    3.10
  -1 -11   0   25.20    5.20
   1  11   0   28.00    2.80
  -1  11   0   27.50    4.20
   2 -11   0    0.70    5.20
  -2 -11   0    2.90    2.20
  -2 -11   0   -2.50    4.50
  -2  11   0   -1.90    4.00
  10   0  -1    0.40    3.50
 -10   0   1   -5.90    5.30
  -9   0   1   -1.40    3.50
  -8   0   1   -2.80    2.70
   8   0  -1    0.20    1.90
   7   0  -1    0.50    1.40
  -7   0   1    0.60    2.10
   6   0  -1    0.80    0.90
  -6   0   1    1.90    1.70
   5   0  -1   -0.40    0.70
  -5   0   1   -2.70    1.20
   4   0  -1    0.20    0.50
  -4   0   1    0.00    1.10
   4   0  -1    0.30    1.40
  -3   0   1   -0.30    0.70
   3   0  -1    0.10    0.80
  -2   0   1    0.20    0.50
   2   0  -1    1.70    0.60
  -1   0   1    0.10    0.30
   1   0  -1   -0.10    0.30
  -1   0  -1    0.30    0.30
  -1   0  -1   -0.10    0.40
   1   0   1   -0.20    0.40
   1   0   1   -0.30    0.30
   2   0   1    1.30    0.50
  -3   0  -1    0.40    0.80
   3   0   1   -1.20    0.60
  -3   0  -1    0.40    0.50
   4   0   1    1.00    0.90
  -4   0  -1    1.50    1.30
   5   0   1    0.40    1.10
  -5   0  -1   -1.70    1.30
   6   0   1   -0.20    1.40
  -6   0  -1   -1.40    2.00
  -7   0  -1   -3.40    2.20
   8   0   1    1.10    2.80
  -8   0  -1    1.70    2.80
   9   0   1    0.60    4.30
   9   0   1   -0.40    3.70
 -10   0  -1    4.70    5.60
  10   0   1    5.80    4.60
  10   0   1    6.50    4.90
 -10  -1   1  118.09    8.00
  10  -1  -1  123.59    6.60
 -10   1   1  133.29    8.70
  10   1  -1  114.69    6.50
  -9  -1   1  261.87    9.60
   9  -1  -1  273.37    8.20
   9   1  -1  270.97    8.00
   8  -1  -1   14.10    2.40
  -8  -1   1   13.20    3.10
   8   1  -1   14.40    2.20
  -8   1   1   13.40    3.10
  -7  -1   1   41.90    3.70
   7  -1  -1   39.20    2.80
  -7   1   1   38.10    3.80
   7   1  -1   40.70    2.60
  -6  -1   1  490.65   11.70
   6  -1  -1  506.65   10.70
  -6   1   1  476.45   12.00
   6   1  -1  489.85   10.40
  -5  -1   1  301.87    7.70
   5  -1  -1  300.97    6.70
   5   1  -1  300.67    6.40
   5   1  -1  306.17    7.60
  -5   1   1  293.27    7.80
  -4  -1   1  573.64   12.40
   4  -1  -1  568.04   11.60
   4   1  -1  573.34   11.30
  -4   1   1  560.34   12.60
   4   1  -1  576.44   12.40
  -3  -1   1 2906.11   57.49
  -3   1   1 2975.00   57.79
   2  -1  -1  548.85   11.20
  -2  -1   1  562.84   11.30
   2  -1  -1  586.04   11.80
   2   1  -1  578.34   11.60
   2   1  -1  565.24   11.00
   2   1  -1  550.84   11.00
  -2   1   1  574.44   11.80
  -1  -1   1  554.44   11.00
  -1  -1   1  563.34   11.00
   1  -1  -1  561.74   11.20
   1  -1  -1  560.84   11.30
  -1  -1   1  560.94   11.00
  -1  -1   1  559.34   11.20
   1   1  -1  558.04   11.10
  -1   1   1  572.94   11.30
   1   1  -1  563.14   11.10
  -1   1   1  546.15   11.20
   0  -1  -1   75.79    1.80
   0  -1   1   78.89    1.90
   0  -1   1   77.09    2.00
   0  -1  -1   76.79    2.00
   0  -1  -1   74.59    1.60
   0  -1   1   74.49    1.90
   0   1   1   77.49    2.00
   0   1  -1   76.19    1.90
   0   1   1   76.49    1.90
  -1   1  -1 8152.28  160.98
   2  -1   1 2319.47   45.00
  -2  -1  -1 2294.77   44.80
   2   1   1 2295.67   45.00
  -3  -1  -1  350.16    7.30
  -3  -1  -1  353.06    7.30
   3  -1   1  365.16    7.80
   3  -1   1  360.16    7.60
  -3  -1  -1  348.57    7.80
   3   1   1  358.96    7.70
   4  -1   1  432.46    9.50
  -4  -1  -1  431.36    9.70
   4  -1   1  432.66    9.10
  -4   1  -1  434.56   10.10
   4   1   1  431.26    9.40
   5  -1   1  134.09    3.30
  -5  -1  -1  130.09    4.40
   5  -1   1  130.09    4.00
  -5   1  -1  130.09    4.60
   5   1   1  127.99    3.90
  -6  -1  -1    4.90    1.80
   6  -1   1    3.10    1.60
  -6   1  -1    3.80    2.00
   6   1   1    3.80    1.70
  -7  -1  -1    5.40    2.70
   7  -1   1    3.70    2.30
  -7   1  -1    3.00    2.90
   8  -1   1  231.68    7.40
  -8  -1  -1  232.88    8.20
   8   1   1  224.38    7.40
   8   1   1  220.48    7.80
  -8   1  -1  223.48    8.70
   9  -1   1  111.39    6.60
  -9  -1  -1  104.69    6.60
  -9   1  -1   94.49    7.10
   9   1   1   93.69    7.00
   9   1   1  116.09    7.10
 -10  -1  -1   19.80    5.80
  10  -1   1   12.70    5.40
 -10   1  -1   17.90    5.60
  10   1   1   19.70    4.60
  10   1   1   16.80    5.30
  10  -2  -1  472.85   12.80
 -10   2   1  458.75   15.40
  10   2  -1  449.26   12.60
   9  -2  -1  261.77    8.50
  -9   2   1  265.97   10.40
  -8  -2   1   15.40    3.30
  -8   2   1   21.10    3.40
   8   2  -1   15.40    2.50
   7  -2  -1  152.78    4.00
   7  -2  -1  153.88    5.10
  -7  -2   1  151.98    5.60
  -7   2   1  151.48    6.20
   7   2  -1  145.29    4.60
  -6  -2   1 1998.00   40.30
   6  -2  -1 1983.70   39.60
   6   2  -1 1955.80   39.20
  -6   2   1 2008.40   41.00
  -5  -2   1  191.48    5.30
   5  -2  -1  186.38    4.80
  -5   2   1  182.58    5.80
   5   2  -1  181.08    4.50
   5   2  -1  181.78    5.30
  -4  -2   1  567.64   11.80
   4  -2  -1  600.64   12.30
   4   2  -1  581.14   11.90
   4   2  -1  595.84   12.60
  -4   2   1  585.44   13.10
   4   2  -1  578.44   12.00
   3  -2  -1 1167.28   22.70
   3   2  -1 1129.89   22.40
   3   2  -1 1096.69   22.40
  -3   2   1 1134.79   23.20
   3   2  -1 1143.69   22.70
   3   2  -1 1123.29   22.20
   2  -2  -1 4108.39   84.99
   2  -2  -1 4050.79   84.79
  -2  -2   1 4136.29   83.59
   2   2  -1 4088.09   83.69
   1  -2  -1 1224.18   23.90
  -1  -2   1 1220.68   23.90
  -1  -2   1 1198.78   23.80
   1   2  -1 1192.28   23.90
  -1   2   1 1209.38   24.00
  -1   2   1 1171.48   23.90
   1   2  -1 1227.08   23.90
   0  -2  -1  625.74   12.80
   0  -2   1  635.44   12.80
   0   2   1  616.74   12.40
   0   2  -1  625.54   12.90
   0   2   1  634.24   12.90
  -1  -2  -1  671.03   13.70
   1  -2   1  679.93   13.70
  -1  -2  -1  660.43   13.50
  -1  -2  -1  668.83   13.20
   1   2   1  669.13   13.70
   1   2   1  658.43   13.20
  -1   2  -1  666.53   13.70
   2  -2   1 9741.13  195.48
  -2  -2  -1 9999.00  194.68
  -2   2  -1 9749.12  195.38
   2   2   1 9639.94  194.48
  -3  -2  -1    4.60    0.70
  -3  -2  -1    4.90    0.80
   3  -2   1    4.70    1.10
   3   2   1    5.10    1.10
  -3   2  -1    4.00    0.80
   3   2   1    5.80    0.80
  -4  -2  -1    2.30    0.50
   4  -2   1    3.20    1.10
  -4  -2  -1    1.70    0.90
   4  -2   1    0.30    0.90
  -4  -2  -1    2.10    0.50
   4   2   1    3.40    1.20
   4   2   1   -0.30    0.80
  -4   2  -1    1.50    0.70
   5  -2   1  784.72   16.20
   5  -2   1  753.52   15.70
  -5  -2  -1  746.73   16.10
   5   2   1  760.52   15.80
  -5   2  -1  747.63   16.90
   5   2   1  749.03   15.90
  -5   2  -1  736.33   15.20
   6  -2   1 1276.47   26.00
  -6  -2  -1 1306.77   27.00
   6   2   1 1309.87   26.50
   6   2   1 1292.47   26.50
  -6   2  -1 1279.07   27.70
  -7  -2  -1  362.66    9.60
   7  -2   1  382.96    9.60
   7   2   1  336.67   10.00
  -7   2  -1  364.46   10.40
   7   2   1  364.36    9.20
   8  -2   1    1.80    2.90
  -8  -2  -1    8.30    3.10
  -8   2  -1    3.40    3.00
   8   2   1    5.10    3.10
   8   2   1   -1.50    3.50
   9  -2   1   -1.70    3.80
  -9  -2  -1    0.20    4.00
  -9   2  -1    2.90    4.40
   9   2   1    2.40    3.90
   9   2   1    9.70    4.30
 -10  -2  -1  302.47   11.60
  10  -3  -1    2.90    4.80
  10   3  -1   -5.40    6.10
 -10   3   1    7.90    6.40
  10   3  -1   11.80    3.10
   9  -3  -1    6.30    3.30
   9   3  -1    6.00    2.90
   9   3  -1   -1.00    3.50
   9   3  -1   -1.50    2.60
  -9   3   1    1.40    4.20
   8  -3  -1   40.90    3.20
   8  -3  -1   35.50    4.30
   8   3  -1   39.90    3.40
  -8   3   1   39.90    4.80
   7   3  -1  579.74   13.10
  -7   3   1  593.94   14.80
   7   3  -1  597.54   12.70
   6  -3  -1  301.27    7.80
   6   3  -1  304.67    7.50
   6   3  -1  312.17    6.90
  -6   3   1  299.77    8.80
  -5  -3   1   32.90    1.80
   5  -3  -1   37.30    2.60
   5   3  -1   35.10    1.50
   5   3  -1   34.70    1.50
   5   3  -1   38.60    2.40
  -5   3   1   32.40    3.10
   5   3  -1   36.50    2.60
   4  -3  -1  150.58    4.40
   4  -3  -1  158.98    4.40
   4   3  -1  156.48    4.00
  -4   3   1  153.68    4.90
   4   3  -1  156.08    4.30
   4   3  -1  151.48    4.20
   3  -3  -1  192.18    5.20
  -3  -3   1  200.98    4.40
   3  -3  -1  195.48    5.20
  -3  -3   1  194.28    4.40
   3   3  -1  199.68    4.80
  -3   3   1  200.58    5.40
   3   3  -1  203.28    5.00
   3   3  -1  198.88    4.80
   2  -3  -1 1034.50   20.60
  -2  -3   1  986.10   20.30
   2  -3  -1 1028.50   20.70
  -2  -3   1 1020.60   20.20
   2   3  -1 1001.40   20.40
  -2   3   1 1013.00   20.60
   2   3  -1  985.60   20.50
  -1  -3   1 1196.58   24.30
  -1  -3   1 1240.88   24.20
   1  -3  -1 1210.98   24.40
   1  -3  -1 1245.58   24.50
  -1   3   1 1185.68   24.40
   1   3  -1 1204.68   24.40
   1   3  -1 1184.48   24.20
   0  -3  -1 2831.72   55.49
   0   3   1 2818.82   55.49
  -1  -3  -1 5181.28  106.69
   1  -3   1 4991.40  106.79
   1   3   1 5167.28  107.09
  -2  -3  -1   43.10    1.30
  -2  -3  -1   44.50    1.90
   2  -3   1   46.70    2.40
  -2  -3  -1   47.50    2.00
   2  -3   1   40.80    2.30
   2   3   1   44.90    2.40
  -2   3  -1   45.30    2.10
  -3  -3  -1  491.45   10.40
  -3  -3  -1  485.65   10.30
   3  -3   1  497.75   10.90
   3   3   1  482.85   10.70
  -3   3  -1  487.35   10.60
   3   3   1  477.25    9.80
  -4  -3  -1  380.76    8.10
   4  -3   1  391.86    9.10
  -4  -3  -1  373.46    8.10
  -4   3  -1  384.06    8.60
   4   3   1  381.96    8.90
   4   3   1  382.86    8.00
   5  -3   1  959.20   20.00
  -5  -3  -1  937.61   19.70
   5   3   1  961.70   20.00
  -5   3  -1  950.20   19.40
  -5   3  -1  939.61   20.90
   5   3   1  953.90   19.20
  -6  -3  -1  115.69    4.30
   6  -3   1  115.19    4.90
   6  -3   1  109.29    4.30
   6   3   1  111.59    3.70
  -6   3  -1  116.79    5.70
  -7  -3  -1  196.38    6.50
   7  -3   1  212.38    7.10
   7  -3   1  202.78    6.00
   7   3   1  206.88    7.00
   7   3   1  209.18    5.90
  -7   3  -1  202.48    7.60
   8  -3   1  246.48    8.60
  -8  -3  -1  265.27    8.30
   8  -3   1  252.87    6.60
   8   3   1  270.97    8.90
  -8   3  -1  231.58   10.80
   8   3   1  254.87    7.40
   9  -3   1  286.47   10.10
  -9   3  -1  285.87   11.00
   9   3   1  278.37    9.80
   9  -4  -1   25.30    3.90
   9  -4  -1   24.50    4.30
   9  -4  -1   29.50    2.90
  -9   4   1   32.30    5.30
   9   4  -1   32.60    2.70
   9   4  -1   28.50    4.50
   8  -4  -1  268.47    8.80
   8  -4  -1  272.77    8.50
   8  -4  -1  265.17    7.70
   8   4  -1  265.47    6.10
  -8   4   1  273.37    9.80
   8   4  -1  262.77    8.40
   7  -4  -1    9.20    2.50
   7  -4  -1    5.30    2.50
  -7   4   1    7.50    2.90
   7   4  -1    9.90    2.80
   6  -4  -1  515.95   12.40
  -6  -4   1  519.05   11.20
   6  -4  -1  513.75   12.30
   6   4  -1  529.95   12.10
   6   4  -1  531.65   12.00
  -6   4   1  525.45   13.30
   5  -4  -1    8.80    1.80
   5  -4  -1    9.60    1.80
  -5  -4   1    8.70    1.50
   5   4  -1   11.50    1.80
  -5   4   1    7.00    2.10
   5   4  -1   10.80    1.90
   4  -4  -1 1097.69   23.20
   4  -4  -1 1130.29   23.20
  -4  -4   1 1100.59   21.80
   4   4  -1 1102.49   22.70
   4   4  -1 1134.89   23.00
  -4   4   1 1081.29   23.50
   4   4  -1 1111.99   22.50
   3  -4  -1  294.87    7.60
  -3  -4   1  302.57    6.80
  -3  -4   1  299.27    6.80
   3  -4  -1  300.27    7.40
  -3   4   1  296.97    7.50
   3   4  -1  303.27    7.40
   3   4  -1  297.17    6.70
   3   4  -1  298.17    7.10
   2  -4  -1 1272.17   26.10
   2  -4  -1 1304.97   26.30
  -2  -4   1 1256.77   24.90
  -2  -4   1 1306.37   25.80
  -2  -4   1 1264.97   25.80
   2   4  -1 1255.77   26.00
  -2   4   1 1271.67   25.90
  -2   4   1 1269.87   26.10
   2   4  -1 1278.67   25.90
   1  -4  -1    9.70    1.50
  -1  -4   1    9.30    1.30
   1  -4  -1    8.70    1.50
  -1  -4   1   11.40    1.40
  -1   4   1   10.40    1.30
  -1   4   1   12.30    1.60
   1   4  -1    8.90    1.50
   1   4  -1   10.10    1.30
   0  -4   1 2775.42   55.59
   0  -4   1 2815.62   55.49
   0  -4  -1 2862.01   55.49
   0  -4  -1 2766.92   55.59
   0   4   1 2808.02   55.39
   0   4  -1 2867.91   55.69
   0   4   1 2811.62   55.69
   0   4  -1 2776.22   55.49
   1  -4   1   17.50    2.10
  -1  -4  -1   17.10    1.70
   1  -4   1   16.80    1.80
  -1  -4  -1   14.00    1.50
   1   4   1   16.20    1.80
  -1   4  -1   14.10    1.50
  -2  -4  -1  189.88    4.10
   2  -4   1  192.28    5.40
   2  -4   1  186.18    5.50
  -2  -4  -1  193.08    5.20
  -2  -4  -1  189.18    5.10
  -2   4  -1  193.68    5.30
   2   4   1  199.58    5.50
   3  -4   1   57.59    3.30
  -3  -4  -1   58.59    2.50
   3  -4   1   56.89    3.10
  -3  -4  -1   62.29    2.60
   3   4   1   59.39    3.30
  -3   4  -1   58.29    2.70
  -4  -4  -1  263.87    6.20
   4  -4   1  262.77    7.10
  -4  -4  -1  258.77    6.20
  -4   4  -1  259.07    6.70
   4   4   1  266.07    7.10
   5  -4   1   22.00    2.50
  -5  -4  -1   21.90    1.30
  -5   4  -1   24.10    2.30
  -5   4  -1   24.30    2.90
   6  -4   1  154.58    5.60
   6  -4   1  155.58    5.80
   6   4   1  152.58    6.00
  -6   4  -1  150.88    6.40
   6   4   1  147.69    3.80
   7  -4   1   63.49    4.20
   7  -4   1   57.89    4.80
  -7   4  -1   66.29    5.30
   7   4   1   66.19    5.30
   7   4   1   63.69    2.80
   8  -4   1   96.89    5.40
   8  -4   1   96.49    6.70
   8   4   1   90.09    3.90
  -8   4  -1   88.29    7.00
   8   4   1   83.49    6.60
   9  -4   1   16.10    2.70
  -9   4  -1   18.40    5.90
   9   4   1   19.10    2.60
   9   4   1   15.40    4.90
   9  -5  -1   97.69    6.60
  -9   5   1  106.39    8.80
   9   5  -1   94.29    7.90
   8  -5  -1   20.00    4.10
   8  -5  -1   25.30    3.90
   8   5  -1   24.10    4.40
  -8   5   1   25.90    4.70
   7  -5  -1  129.69    6.50
  -7  -5   1  135.99    4.40
   7  -5  -1  131.99    6.30
  -7   5   1  147.19    6.80
   7   5  -1  122.89    6.10
   6  -5  -1  111.29    5.20
  -6  -5   1  114.49    4.30
   6  -5  -1  106.19    5.10
   6   5  -1  112.59    4.40
  -6   5   1  116.39    5.70
   6   5  -1  114.69    5.30
   5  -5  -1  237.88    7.20
   5  -5  -1  239.88    7.30
   5   5  -1  233.78    6.20
   5   5  -1  248.08    7.10
  -5   5   1  236.28    7.60
  -4  -5   1   13.60    1.40
   4  -5  -1   15.60    2.20
   4  -5  -1   11.50    2.30
  -4  -5   1   10.00    1.20
  -4   5   1   14.00    2.20
   4   5  -1   10.90    1.70
   4   5  -1   12.30    1.50
   3  -5  -1 1027.20   21.50
   3  -5  -1  998.70   21.60
  -3  -5   1 1005.40   20.70
  -3  -5   1  994.20   20.80
   3   5  -1 1037.10   21.50
  -3   5   1  996.80   21.40
   3   5  -1  991.30   21.10
  -2  -5   1  259.57    6.70
  -2  -5   1  257.27    6.60
   2  -5  -1  250.37    7.00
  -2  -5   1  260.67    5.60
   2   5  -1  265.27    6.80
  -2   5   1  264.77    7.10
   2   5  -1  261.97    7.00
  -1  -5   1  133.49    4.50
   1  -5  -1  137.49    4.80
   1  -5  -1  139.39    4.70
  -1  -5   1  147.09    4.50
   1   5  -1  140.49    4.40
  -1   5   1  138.89    4.80
   1   5  -1  137.89    4.80
   0  -5  -1  584.84   13.10
   0  -5   1  576.54   13.20
   0  -5   1  598.94   13.20
   0  -5  -1  593.44   13.30
   0   5  -1  585.04   13.10
   0   5  -1  586.54   13.30
   0   5   1  587.44   13.40
   1  -5   1  527.95   11.90
   1  -5   1  512.85   12.00
  -1  -5  -1  512.05   11.70
  -1  -5  -1  510.55   10.90
  -1  -5  -1  512.85   11.80
  -1   5  -1  519.45   11.90
  -1   5  -1  505.35   11.80
   1   5   1  523.05   12.10
  -2  -5  -1   10.80    1.10
   2  -5   1    9.20    1.80
  -2  -5  -1   10.50    1.70
   2  -5   1   10.80    1.80
  -2  -5  -1    7.10    1.60
   2   5   1    9.90    2.20
  -2   5  -1   10.60    1.70
   3  -5   1  652.03   15.20
   3  -5   1  669.83   15.30
  -3  -5  -1  668.63   14.50
  -3  -5  -1  661.73   14.50
  -3   5  -1  677.23   14.80
   3   5   1  671.53   15.40
   4  -5   1   46.20    3.70
  -4  -5  -1   48.30    2.70
   4  -5   1   54.39    3.80
  -4  -5  -1   49.30    2.90
  -4   5  -1   50.39    3.20
   5  -5   1  211.08    7.00
   5  -5   1  213.98    7.00
  -5  -5  -1  207.28    5.10
  -5  -5  -1  212.08    5.20
   5   5   1  208.98    7.20
  -5   5  -1  207.58    6.00
  -5   5  -1  207.88    7.20
   6  -5   1   35.00    3.50
   6  -5   1   33.80    4.00
   6   5   1   37.20    3.90
  -6   5  -1   44.90    4.60
   7  -5   1   39.00    4.40
  -7  -5  -1   42.40    3.00
   7  -5   1   39.90    4.30
   7  -5   1   40.30    5.00
  -7   5  -1   48.30    5.90
   7   5   1   45.30    4.60
   8  -5   1  155.98    8.80
   8  -5   1  177.18    8.30
  -8   5  -1  187.08    9.00
   8   5   1  162.18    8.60
  -9   5  -1   13.50    5.70
  -9   6   1   -2.90    5.30
  -8  -6   1   88.29    3.70
   8  -6  -1   81.29    7.00
  -8   6   1   92.69    7.70
   8   6  -1   94.99    7.70
   7  -6  -1  107.69    6.40
  -7  -6   1  110.19    5.10
   7  -6  -1  113.59    6.20
  -7   6   1  106.29    6.90
   7   6  -1  120.59    6.80
   6  -6  -1  457.75   12.30
  -6  -6   1  469.15   11.30
   6  -6  -1  462.75   12.30
   6   6  -1  452.75   12.20
  -6   6   1  453.85   12.60
  -5  -6   1   14.20    1.40
  -5  -6   1   15.40    1.40
   5  -6  -1   12.90    3.20
   5  -6  -1   18.10    3.00
  -5   6   1   17.60    3.00
   5   6  -1   16.10    2.70
   5   6  -1   15.40    1.90
  -4  -6   1  975.30   20.10
   4  -6  -1  967.90   21.50
  -4  -6   1  975.60   20.00
   4  -6  -1  950.20   21.20
   4   6  -1  925.71   19.60
  -4   6   1  970.70   21.30
   4   6  -1  943.91   20.60
   4   6  -1  979.80   21.20
  -3  -6   1   27.90    2.80
   3  -6  -1   30.00    3.40
  -3  -6   1   25.60    2.60
   3  -6  -1   27.10    3.30
   3   6  -1   27.50    2.70
  -3   6   1   24.50    2.80
   3   6  -1   27.90    3.40
  -2  -6   1   31.00    3.20
   2  -6  -1   29.30    3.30
   2  -6  -1   26.20    3.20
  -2  -6   1   28.20    1.70
  -2  -6   1   27.10    2.80
   2   6  -1   32.20    3.10
  -2   6   1   33.10    3.40
   2   6  -1   31.90    2.80
  -2   6   1   31.30    2.70
  -1  -6   1  468.55   11.30
   1  -6  -1  464.35   11.50
   1  -6  -1  472.35   11.40
   1   6  -1  464.15   11.60
   1   6  -1  469.35   11.20
   0  -6  -1  302.67    8.70
   0  -6   1  276.67    7.90
   0  -6  -1  274.87    7.90
   0  -6   1  279.17    7.70
   0   6  -1  277.47    7.60
   0   6   1  280.77    8.10
   0   6  -1  288.37    8.10
  -1  -6  -1   43.80    3.20
   1  -6   1   48.50    3.10
  -1  -6  -1   51.89    3.70
   1  -6   1   46.80    3.50
  -1  -6  -1   54.39    2.30
  -1   6  -1   48.10    3.20
   1   6   1   51.39    3.80
  -1   6  -1   51.19    3.60
  -2  -6  -1  254.27    7.40
   2  -6   1  259.67    7.70
  -2  -6  -1  280.07    7.50
  -2  -6  -1  248.38    6.20
   2  -6   1  263.77    7.60
  -2   6  -1  267.47    7.40
   2   6   1  269.27    8.10
   3  -6   1   68.89    4.30
  -3  -6  -1   66.79    3.70
   3  -6   1   71.69    4.40
  -3  -6  -1   63.09    3.80
  -3   6  -1   67.59    3.70
   3   6   1   70.59    4.40
   4  -6   1  720.23   16.80
  -4  -6  -1  721.73   15.70
   4  -6   1  722.13   17.00
  -4  -6  -1  704.53   15.60
  -4   6  -1  718.93   16.10
   4   6   1  721.13   16.70
  -5  -6  -1   22.60    2.10
   5  -6   1   12.70    2.90
   5  -6   1   14.50    3.10
  -5  -6  -1   22.60    2.30
  -5   6  -1   18.10    2.40
   5   6   1   24.60    3.60
  -5   6  -1   25.30    3.40
   6  -6   1    2.20    3.00
   6  -6   1    9.60    3.30
   6  -6   1    5.40    2.90
   6   6   1    6.90    3.80
  -6   6  -1    4.30    3.20
   7  -6   1   28.00    4.30
  -7  -6  -1   30.20    2.80
   7  -6   1   28.80    4.40
  -7   6  -1   27.60    4.70
   7   6   1   21.40    4.80
   8  -6   1  108.39    7.60
   8   6   1  138.99   10.50
  -8   6  -1  118.59    8.70
   8  -7  -1   -3.80    4.20
  -8   7   1    4.80    5.10
  -7  -7   1   48.70    4.70
   7  -7  -1   46.60    4.90
   7   7  -1   46.90    5.20
  -7   7   1   46.50    5.40
   6  -7  -1  194.78    8.30
  -6  -7   1  188.78    7.00
   6  -7  -1  176.38    7.70
  -6   7   1  163.98    8.50
   6   7  -1  180.68    8.50
   5  -7  -1  195.98    7.60
   5  -7  -1  194.88    7.50
  -5  -7   1  182.88    5.10
  -5  -7   1  185.68    5.30
  -5   7   1  194.58    7.70
   5   7  -1  177.68    5.10
   5   7  -1  180.08    7.30
  -4  -7   1   58.29    3.70
   4  -7  -1   46.60    4.80
  -4  -7   1   59.39    3.50
   4  -7  -1   59.99    4.80
   4   7  -1   61.99    4.80
   4   7  -1   56.09    2.80
  -4   7   1   56.19    4.30
   3  -7  -1   94.69    5.30
  -3  -7   1   96.69    4.50
   3  -7  -1   96.29    5.20
   3   7  -1   91.79    4.60
  -3   7   1   99.99    4.80
   3   7  -1   86.39    5.30
  -2  -7   1  104.09    3.30
   2  -7  -1  105.59    5.40
   2  -7  -1  111.79    5.30
  -2  -7   1  101.59    4.90
   2   7  -1   99.99    5.40
   2   7  -1  100.19    4.70
  -2   7   1  100.39    5.30
  -2   7   1  105.19    4.30
  -1  -7   1  596.94   14.60
  -1  -7   1  642.54   14.70
   1  -7  -1  618.04   14.80
   1  -7  -1  621.14   15.00
   1   7  -1  619.84   14.60
  -1   7   1  628.24   15.10
  -1   7   1  621.94   13.70
   1   7  -1  614.44   15.00
   0  -7  -1  452.95   11.70
   0  -7   1  447.96   11.60
   0  -7  -1  449.95   11.50
   0  -7   1  454.65   11.50
   0   7   1  466.25   11.90
   0   7  -1  449.06   11.40
   0   7  -1  452.35   11.80
  -1  -7  -1   53.79    4.00
   1  -7   1   56.09    4.40
  -1  -7  -1   67.79    4.50
   1  -7   1   57.29    4.40
  -1  -7  -1   63.59    3.00
  -1   7  -1   57.89    4.10
   1   7   1   69.39    4.90
   2  -7   1  177.58    6.80
  -2  -7  -1  176.68    6.20
  -2  -7  -1  177.08    4.50
  -2  -7  -1  178.78    6.30
   2  -7   1  174.38    6.70
  -2   7  -1  186.58    6.30
   2   7   1  177.58    6.90
   3  -7   1   77.59    5.10
  -3  -7  -1   79.69    4.20
   3  -7   1   83.89    5.20
  -3   7  -1   82.79    4.50
   3   7   1   76.19    5.40
  -4  -7  -1  292.27    8.40
   4  -7   1  294.97    9.40
  -4  -7  -1  300.87    8.20
   4  -7   1  315.37    9.60
  -4   7  -1  303.97    8.70
   4   7   1  295.17    9.50
  -5  -7  -1  211.28    6.30
  -5  -7  -1  210.68    6.10
   5  -7   1  203.88    8.00
   5  -7   1  198.68    8.00
  -5   7  -1  219.48    8.40
   5   7   1  218.68    8.30
   6  -7   1   26.00    4.10
  -6   7  -1   19.10    4.30
   6   7   1   26.60    4.30
   7  -7   1    5.50    4.10
   7  -7   1    2.20    4.70
  -7   7  -1    5.70    4.60
  -7  -8   1   18.50    3.60
   7  -8  -1   23.50    4.90
  -7   8   1   19.30    5.20
   6  -8  -1    3.50    4.90
  -6  -8   1   19.70    4.00
  -6   8   1   21.10    4.50
   5  -8  -1   35.70    4.30
  -5  -8   1   33.80    3.90
  -5  -8   1   37.30    3.30
  -5   8   1   36.00    4.40
   5   8  -1   35.40    4.90
   4  -8  -1  215.98    8.40
  -4  -8   1  230.38    7.10
   4  -8  -1  216.08    8.40
   4   8  -1  215.88    8.30
  -4   8   1  220.48    8.00
   4   8  -1  216.78    5.50
   3  -8  -1    4.00    3.00
  -3  -8   1    4.40    2.80
  -3  -8   1    1.80    2.60
   3  -8  -1    6.70    3.00
  -3   8   1    6.20    2.50
   3   8  -1    6.50    3.40
   3   8  -1    1.90    2.60
  -2  -8   1   47.70    2.60
  -2  -8   1   50.09    4.30
   2  -8  -1   49.99    4.80
  -2  -8   1   48.40    4.40
  -2  -8   1   56.89    2.90
   2  -8  -1   51.59    5.20
  -2   8   1   47.00    3.90
  -2   8   1   45.60    4.30
   2   8  -1   52.39    5.30
   2   8  -1   60.79    4.40
  -1  -8   1   22.50    3.00
  -1  -8   1   20.10    3.20
   1  -8  -1   18.30    3.30
   1  -8  -1   21.80    3.20
   1   8  -1   26.20    3.60
   1   8  -1   25.40    3.00
  -1   8   1   23.30    3.40
  -1   8   1   22.40    2.70
   0  -8   1   27.70    3.40
   0  -8  -1   30.60    3.50
   0  -8  -1   31.70    3.50
   0  -8   1   32.30    3.40
   0   8   1   31.40    3.80
   0   8  -1   31.60    3.80
   0   8   1   29.50    2.50
   0   8  -1   29.90    3.70
  -1  -8  -1    3.40    1.60
   1  -8   1   -0.20    2.80
   1  -8   1    0.50    2.60
  -1  -8  -1    3.40    2.50
  -1  -8  -1    2.50    2.80
  -1   8  -1    4.40    2.30
   1   8   1    4.60    3.10
   1   8   1    2.90    1.10
  -2  -8  -1   67.89    4.50
   2  -8   1   60.29    5.00
  -2  -8  -1   52.69    5.40
  -2  -8  -1   57.49    2.50
   2  -8   1   57.19    5.20
  -2   8  -1   51.19    4.30
   2   8   1   50.29    5.50
   3  -8   1    2.70    3.00
  -3  -8  -1    0.70    2.30
  -3  -8  -1    0.90    3.00
   3  -8   1    1.00    2.90
  -3   8  -1    0.50    2.20
   3   8   1   -3.20    3.00
  -4  -8  -1   95.69    5.40
  -4  -8  -1   78.49    4.90
   4  -8   1   87.29    6.10
   4   8   1   93.89    7.20
  -4   8  -1   80.29    5.10
  -5  -8  -1   37.30    4.00
  -5  -8  -1   41.20    4.70
  -6  -8  -1   34.60    3.20
   6  -8   1   40.90    5.30
  -6  -8  -1   39.90    2.70
  -6   8  -1   40.40    5.40
   7  -8   1    4.70    5.60
  -7   8  -1   -4.90    4.60
  -6  -9   1   61.39    6.20
   6  -9  -1   64.69    6.90
  -6   9   1   60.99    6.50
  -5  -9   1  192.98    6.90
   5  -9  -1  210.58    9.50
  -5  -9   1  188.38    6.70
  -5   9   1  207.38    9.30
  -4  -9   1    2.20    3.60
   4  -9  -1    3.10    3.90
  -4  -9   1    2.90    2.70
  -4   9   1    9.90    3.60
  -3  -9   1  161.48    7.50
  -3  -9   1  159.18    6.70
  -3   9   1  175.78    7.00
  -2  -9   1    3.20    3.30
  -2  -9   1    2.30    3.10
  -2  -9   1    3.00    1.80
  -2  -9   1    2.70    1.50
   2  -9  -1   -4.60    2.90
   2   9  -1    6.10    2.80
  -2   9   1   -0.20    2.30
  -1  -9   1  433.56   12.00
   1  -9  -1  420.96   12.40
   1  -9  -1  425.06   12.30
  -1  -9   1  418.86   12.10
   1   9  -1  415.46   12.50
  -1   9   1  433.86   10.60
  -1   9   1  434.46   12.60
   1   9  -1  436.36   11.90
   0  -9  -1  255.87    8.90
   0  -9  -1  252.27    8.90
   0  -9  -1  254.17    7.90
   0  -9   1  250.37    9.00
   0  -9   1  256.07    9.20
   0   9   1  226.08    9.10
   0   9  -1  259.57    8.70
   0   9   1  253.27    6.80
   0   9  -1  233.18    9.00
  -1  -9  -1  949.21   20.20
  -1  -9  -1  979.40   22.20
  -1  -9  -1  927.11   21.80
   1  -9   1  942.51   22.30
   1  -9   1  882.41   21.90
   1   9   1  941.71   19.20
   1   9   1  978.50   24.00
  -1   9  -1  945.41   21.80
  -2  -9  -1   15.80    4.00
  -2  -9  -1   20.00    3.70
  -2  -9  -1   22.30    2.30
  -2   9  -1   17.90    3.10
  -3  -9  -1  269.87    9.00
  -3  -9  -1  266.47    9.30
   3  -9   1  263.97   10.00
  -4  -9  -1   37.90    3.90
  -4  -9  -1   29.40    4.10
   4  -9   1   20.70    4.50
  -4   9  -1   32.10    4.60
  -5  -9  -1   10.60    3.10
   5  -9   1    5.70    4.50
  -5   9  -1   -0.90    4.20
   6  -9   1   -6.50    5.00
  -6  -9  -1    0.90    2.10
  -6   9  -1   -2.10    4.80
   5 -10  -1   26.00    5.90
  -5 -10   1   15.70    3.30
  -5  10   1   15.60    5.40
  -4 -10   1  176.78    7.90
   4 -10  -1  156.28    9.50
  -4 -10   1  162.98    7.70
  -3 -10   1   -0.20    3.90
  -3 -10   1    0.00    3.80
   3 -10  -1    3.50    4.20
  -3  10   1    8.20    3.50
  -2 -10   1   49.30    5.10
  -2 -10   1   55.59    3.10
  -2 -10   1   54.89    3.80
   2 -10  -1   52.09    5.70
  -2  10   1   52.09    5.20
   1 -10  -1   27.20    4.60
  -1 -10   1   30.10    4.60
  -1 -10   1   30.90    4.30
  -1  10   1   28.80    3.20
   0 -10   1  997.30   24.00
   0 -10  -1 1027.50   22.40
   0 -10  -1 1004.00   24.10
   0  10   1  993.60   21.20
  -1 -10  -1   13.70    4.70
  -1 -10  -1   15.90    2.50
   1 -10   1   16.20    4.30
   1  10   1   13.40    1.70
  -2 -10  -1  217.08    5.80
  -2 -10  -1  221.88    9.20
   2 -10   1  215.68    9.70
  -2 -10  -1  192.88    9.20
   3 -10   1    3.80    4.30
  -3 -10  -1    3.70    3.70
  -3  10  -1   -3.60    3.20
   4 -10   1  201.98   10.50
  -4 -10  -1  215.68    8.30
  -4 -10  -1  203.18    8.50
  -4  10  -1  204.18    9.80
  -2 -11   1  110.49    7.90
   2 -11  -1  118.09    9.30
  -2  11   1   96.79    6.80
   2  11  -1   97.69    4.60
  -1 -11   1  427.56   13.90
  -1 -11   1  432.96   11.20
   1 -11  -1  440.96   14.70
   1 -11  -1  450.45   12.60
  -1  11   1  443.86   11.50
   1  11  -1  421.56   11.10
   0 -11   1    2.50    5.00
   0 -11  -1   11.90    3.70
   0 -11  -1   -2.00    5.70
   0  11   1    6.80    2.80
   0  11  -1    1.80    3.50
   1 -11   1   14.00    5.30
  -1 -11  -1   12.20    5.70
  -1 -11  -1   17.40    3.00
  -1  11  -1   25.10    4.10
  -2 -11  -1   13.40    5.60
   2 -11   1    6.80    5.50
  -2  11  -1    7.80    3.90
 -10   0   2    5.70    5.30
  10   0  -2    4.90    3.00
   9   0  -2   34.00    3.90
  -9   0   2   37.70    4.40
  -8   0   2   34.50    3.70
   8   0  -2   36.70    2.90
  -7   0   2   -3.00    2.40
   7   0  -2   -1.70    1.00
   6   0  -2 1187.78   23.40
  -6   0   2 1186.98   25.20
   5   0  -2   73.89    3.50
  -5   0   2   69.99    3.30
  -4   0   2  916.21   19.20
   4   0  -2  926.01   19.20
  -3   0   2  119.39    3.40
   3   0  -2  121.09    3.50
   2   0  -2 1630.84   32.20
   1   0  -2   14.10    0.70
  -1   0   2   13.90    0.60
   1   0  -2   14.10    0.90
  -1   0   2   14.80    0.90
   0   0  -2 3057.59   63.09
   0   0   2 3144.59   63.19
  -1   0  -2    3.50    0.60
  -1   0  -2    3.20    0.60
   1   0   2    3.10    0.70
   1   0   2    3.40    0.60
   2   0   2 8719.43  173.88
  -2   0  -2 8715.53  173.78
   3   0   2    0.50    0.90
  -3   0  -2    1.70    0.70
  -3   0  -2    1.40    0.60
  -4   0  -2 1619.94   32.40
   4   0   2 1671.83   33.00
  -5   0  -2  134.09    4.80
   5   0   2  140.09    4.40
   6   0   2  311.47    8.90
  -6   0  -2  338.37    8.90
   7   0   2    0.50    2.90
   7   0   2    2.40    2.30
  -7   0  -2    3.00    2.80
   8   0   2    3.00    3.20
   8   0   2    8.50    3.20
  -8   0  -2   -7.80    2.80
  -9   0  -2    3.70    4.70
   9   0   2    9.40    4.10
   9   0   2    0.30    4.40
  10  -1  -2   45.90    5.30
 -10   1   2   36.10    5.50
  -9  -1   2  196.18    8.50
   9  -1  -2  182.08    7.40
   9   1  -2  201.58    5.90
   8  -1  -2   93.89    3.90
  -8  -1   2  103.49    5.30
   8   1  -2   93.49    3.60
  -8   1   2   90.89    5.50
   7  -1  -2   19.00    2.20
  -7  -1   2   18.90    2.70
  -7   1   2   19.00    2.80
   7   1  -2   21.70    1.80
   6  -1  -2  627.44   12.80
  -6  -1   2  627.24   14.30
   6   1  -2  622.94   12.50
  -6   1   2  603.44   14.40
  -5  -1   2  481.35   11.00
   5  -1  -2  467.95    9.80
   5   1  -2  489.05   11.10
  -5   1   2  476.85   11.20
  -4  -1   2  705.43   15.10
   4  -1  -2  722.03   15.40
  -4   1   2  709.03   15.30
   4   1  -2  709.23   15.10
   3  -1  -2  875.01   18.00
   3   1  -2  885.91   17.90
  -3   1   2  869.41   18.00
   3   1  -2  859.31   17.30
  -2  -1   2  612.34   12.20
  -2  -1   2  593.84   12.20
   2  -1  -2  617.54   12.50
   2  -1  -2  603.24   12.10
   2   1  -2  613.44   12.30
   2   1  -2  592.94   11.80
   2   1  -2  604.84   12.20
   2   1  -2  609.64   11.80
  -2   1   2  596.94   12.50
   1   1  -2 5241.98  104.09
   0  -1  -2  706.53   14.30
   0  -1  -2  707.93   14.40
   0  -1   2  739.63   14.40
   0  -1   2  715.43   14.40
   0  -1   2  720.83   14.50
   0   1   2  706.13   14.40
   0   1   2  718.63   14.40
   0   1  -2  699.03   14.40
   0   1  -2  728.33   14.40
   0   1  -2  713.63   14.50
   1  -1   2 1809.42   35.60
  -1  -1  -2 1801.62   35.40
   1  -1   2 1855.31   35.70
   1  -1   2 1838.82   35.60
  -1   1  -2 1754.32   35.70
   2  -1   2 1161.58   23.70
  -2  -1  -2 1178.98   23.60
   2  -1   2 1171.08   23.60
  -2   1  -2 1194.98   23.70
   2   1   2 1199.68   23.70
   2   1   2 1190.48   23.50
  -3  -1  -2  829.32   16.90
   3  -1   2  856.21   17.30
   3  -1   2  832.52   16.90
  -3   1  -2  821.82   17.00
   3   1   2  842.02   17.20
   3   1   2  825.92   17.10
  -4  -1  -2 1044.60   20.20
  -4  -1  -2  992.70   20.80
  -4  -1  -2  981.20   20.00
   4  -1   2  997.30   20.30
   4  -1   2 1016.80   20.80
  -4   1  -2  984.90   20.30
   4   1   2 1009.00   20.80
   4   1   2 1055.09   20.80
  -5  -1  -2   27.40    2.50
   5  -1   2   24.40    2.50
  -5   1  -2   19.10    2.20
   5   1   2   24.30    2.50
   5   1   2   26.30    2.50
  -5   1  -2   23.80    1.40
   6  -1   2   97.99    4.80
  -6  -1  -2  111.09    4.40
   6   1   2  118.49    4.60
  -6   1  -2  111.79    4.90
   6   1   2   97.99    4.80
   7  -1   2  336.97    9.20
  -7  -1  -2  326.67    9.50
   7   1   2  341.27    9.20
   7   1   2  344.87    9.40
  -7   1  -2  337.17    9.80
   8  -1   2   62.09    5.50
  -8  -1  -2   72.79    5.50
   8   1   2   67.39    5.40
  -8   1  -2   64.19    5.40
   8   1   2   62.79    5.60
   9  -1   2   -1.80    3.90
   9  -1   2    3.40    4.10
  -9  -1  -2   -2.90    4.10
  -9   1  -2   -7.60    4.70
   9   1   2   -7.10    4.00
   9   1   2   -9.00    4.50
  10  -2  -2  106.59    6.50
 -10   2   2   97.79    9.50
  10   2  -2  105.89    6.20
  10   2  -2   89.69    6.20
   9  -2  -2   39.20    4.50
  -9   2   2   41.70    4.80
   9   2  -2   38.20    4.50
   9   2  -2   40.70    4.00
  -8   2   2  193.58    7.50
   8   2  -2  185.18    5.40
   7  -2  -2    1.90    1.60
   7   2  -2    3.60    1.40
  -7   2   2    1.50    2.30
   6  -2  -2   69.59    2.80
  -6   2   2   65.09    4.00
   6   2  -2   65.79    3.70
   6   2  -2   66.99    2.40
   5  -2  -2    1.10    0.90
  -5   2   2    0.40    1.50
   5   2  -2   -0.20    0.80
   5   2  -2    1.10    0.60
   5   2  -2    1.80    1.50
   5   2  -2    1.10    0.80
   4  -2  -2 1037.40   20.50
  -4  -2   2 1012.20   20.40
   4   2  -2  981.60   20.10
   4   2  -2 1014.10   20.10
  -4   2   2 1037.70   21.50
   4   2  -2 1046.60   21.10
   3  -2  -2   95.69    2.80
   3  -2  -2  101.29    3.40
  -3  -2   2   99.39    2.80
   3   2  -2   97.49    2.50
  -3   2   2   97.39    3.30
   3   2  -2   97.39    2.50
   3   2  -2   99.09    2.50
   3   2  -2   97.19    3.10
   2  -2  -2 2606.14   51.39
  -2   2   2 2631.24   51.39
  -1  -2   2   11.20    1.20
  -1  -2   2   13.30    0.90
  -1  -2   2   13.30    1.10
   1  -2  -2   13.60    1.00
   1  -2  -2   12.80    1.10
  -1  -2   2   12.90    1.00
  -1   2   2   12.70    1.00
  -1   2   2   13.30    1.20
   1   2  -2   13.70    1.00
   1   2  -2   13.00    0.90
   1   2  -2   12.20    1.00
   0  -2   2  886.31   18.20
   0  -2   2  886.51   18.10
   0  -2   2  900.31   18.10
   0  -2  -2  916.81   18.20
   0  -2   2  904.11   18.00
   0   2   2  884.01   18.00
   0   2  -2  888.81   18.10
   0   2   2  902.51   18.20
  -1  -2  -2  514.35   10.60
  -1  -2  -2  517.45   10.90
   1  -2   2  523.75   11.00
   1  -2   2  515.95   11.10
   1   2   2  514.05   10.60
   1   2   2  515.75   11.00
  -1   2  -2  527.05   11.00
  -2  -2  -2    1.70    0.70
  -2  -2  -2    2.20    0.60
   2  -2   2    1.10    0.90
  -2  -2  -2    0.80    0.70
   2  -2   2    1.20    0.90
   2   2   2    0.20    0.70
   2   2   2    0.60    1.00
  -2   2  -2    1.20    0.70
   3  -2   2  155.38    4.40
   3  -2   2  161.58    4.50
  -3  -2  -2  158.08    4.10
  -3  -2  -2  159.38    4.00
   3   2   2  163.48    4.10
   3   2   2  168.08    4.60
  -3   2  -2  164.28    4.30
  -4  -2  -2   18.30    1.80
  -4  -2  -2   20.00    1.30
  -4  -2  -2   20.30    1.50
   4  -2   2   21.10    2.30
   4  -2   2   20.00    1.90
   4   2   2   23.10    2.40
  -4   2  -2   22.10    1.60
   4   2   2   22.00    1.80
   5  -2   2   43.40    3.20
  -5  -2  -2   46.40    2.70
  -5  -2  -2   46.20    1.60
  -5  -2  -2   47.20    1.70
   5  -2   2   40.70    2.50
   5   2   2   48.40    3.00
  -5   2  -2   46.10    2.10
   5   2   2   49.10    2.80
  -6  -2  -2  131.99    4.80
   6  -2   2  137.69    4.10
   6  -2   2  139.49    6.00
  -6   2  -2  124.79    5.50
  -6   2  -2  122.49    3.50
   6   2   2  118.79    5.70
   6   2   2  137.29    4.60
   7  -2   2    9.10    2.70
  -7  -2  -2    0.40    2.50
  -7   2  -2    5.40    2.80
   7   2   2    2.80    2.60
   7   2   2    3.30    2.20
  -8  -2  -2   78.79    5.50
   8  -2   2   73.09    5.90
   8   2   2   71.49    5.80
  -9  -2  -2    4.80    4.00
   9  -2   2   -0.10    4.00
   9   2   2    0.10    4.40
   9   2   2    2.50    4.10
  -9   2  -2    0.60    4.50
  10  -3  -2   41.60    4.50
 -10   3   2   47.00    6.30
  10   3  -2   34.60    3.70
  10   3  -2   30.40    4.70
   9  -3  -2   16.10    3.60
   9  -3  -2   21.80    2.40
   9   3  -2   22.90    3.50
   9   3  -2   19.70    2.90
   9   3  -2   21.80    2.60
  -9   3   2   11.40    4.80
   8  -3  -2    2.40    2.30
   8  -3  -2    0.30    1.60
   8   3  -2    1.90    1.90
   8   3  -2    0.80    2.40
  -8   3   2    0.40    3.00
   7   3  -2   90.19    6.00
   7   3  -2   92.89    3.30
   7   3  -2   97.39    3.90
  -7   3   2  105.09    5.50
   6  -3  -2  662.23   14.20
   6   3  -2  639.24   14.60
   6   3  -2  643.94   13.40
  -6   3   2  630.24   15.30
   6   3  -2  657.73   13.70
   5  -3  -2  248.38    6.40
  -5  -3   2  248.88    5.90
   5  -3  -2  258.97    6.40
   5   3  -2  253.67    6.60
   5   3  -2  251.57    6.00
  -5   3   2  253.47    7.20
   5   3  -2  242.88    5.70
   5   3  -2  252.07    5.50
  -4  -3   2  241.38    5.80
   4  -3  -2  240.38    6.00
   4  -3  -2  241.18    6.00
   4   3  -2  230.58    5.50
  -4   3   2  240.88    6.60
   4   3  -2  233.68    5.00
   4   3  -2  240.78    5.70
   4   3  -2  242.78    6.00
  -3  -3   2    4.60    0.60
  -3  -3   2    5.30    0.60
   3  -3  -2    6.20    1.20
   3  -3  -2    4.40    1.10
  -3  -3   2    5.30    1.10
  -3   3   2    6.10    1.30
   3   3  -2    5.60    0.90
   3   3  -2    4.50    0.50
   3   3  -2    6.20    1.10
  -2  -3   2  133.49    3.40
  -2  -3   2  129.19    3.00
   2  -3  -2  135.19    3.90
   2  -3  -2  133.49    3.80
  -2  -3   2  127.39    3.40
  -2   3   2  127.89    3.70
  -2   3   2  132.69    3.70
   2   3  -2  129.29    3.60
   2   3  -2  131.19    3.50
   1  -3  -2  306.57    6.90
  -1  -3   2  301.27    6.70
  -1  -3   2  298.27    6.80
  -1  -3   2  297.07    6.40
   1  -3  -2  293.87    7.00
   1   3  -2  291.07    6.90
  -1   3   2  296.17    7.00
  -1   3   2  293.57    6.50
   1   3  -2  295.07    6.80
   0  -3   2   12.90    1.50
   0  -3   2   14.80    1.60
   0  -3  -2   15.00    1.60
   0  -3  -2   15.10    1.20
   0  -3  -2   16.60    1.60
   0   3  -2   14.40    1.40
   0   3   2   15.90    0.90
   0   3   2   18.50    1.80
   1  -3   2  481.95   10.70
  -1  -3  -2  479.65   10.60
  -1  -3  -2  493.85   10.50
   1  -3   2  490.75   10.70
   1   3   2  471.55   10.10
   1   3   2  486.75   10.70
  -1   3  -2  483.35   10.60
  -2  -3  -2  651.43   13.80
  -2  -3  -2  657.73   13.70
  -2  -3  -2  647.04   13.20
   2  -3   2  659.23   14.00
  -2   3  -2  661.53   14.00
   2   3   2  656.33   14.00
   2   3   2  633.64   13.20
  -3  -3  -2  166.68    3.90
   3  -3   2  168.88    4.90
  -3  -3  -2  173.38    4.50
   3  -3   2  164.88    4.90
  -3  -3  -2  160.88    4.40
   3   3   2  167.68    4.90
  -3   3  -2  168.08    4.70
   3   3   2  171.38    4.00
  -4  -3  -2  838.42   17.40
   4  -3   2  860.21   18.40
   4  -3   2  846.92   18.10
  -4  -3  -2  843.42   17.50
  -4  -3  -2  850.31   17.50
   4   3   2  864.21   17.40
  -4   3  -2  863.41   17.90
   4   3   2  865.11   18.20
   5  -3   2  105.59    4.10
  -5  -3  -2  102.49    3.60
  -5  -3  -2   92.59    3.00
  -5  -3  -2   98.09    2.80
  -5   3  -2  103.79    3.50
   5   3   2  103.99    5.10
   5   3   2   97.99    3.30
   6  -3   2    5.00    1.70
  -6  -3  -2    0.80    1.90
   6  -3   2    0.20    2.30
  -6   3  -2    4.20    1.20
   6   3   2    3.90    1.60
  -6   3  -2   -1.30    2.30
   7  -3   2   12.30    2.10
  -7  -3  -2   10.80    2.70
   7  -3   2   11.60    3.10
   7   3   2   10.60    2.40
  -7   3  -2   12.70    3.00
   7   3   2    9.50    3.10
   8  -3   2   45.50    4.60
  -8  -3  -2   43.40    4.30
   8   3   2   39.80    4.60
  -8   3  -2   38.30    5.00
   8   3   2   43.00    4.40
  -9  -3  -2   51.59    4.80
  -9   3  -2   47.40    6.10
   9   3   2   46.50    6.00
  10  -4  -2   -8.00    4.80
  10  -4  -2    6.50    3.70
 -10   4   2   -5.90    5.40
   9  -4  -2    8.60    4.10
   9  -4  -2   11.50    3.20
   9  -4  -2   10.90    2.70
   9   4  -2    1.30    4.00
  -9   4   2    5.20    4.40
   9   4  -2    6.40    1.70
   8  -4  -2   30.10    3.50
   8  -4  -2   33.80    4.20
   8   4  -2   32.10    3.90
  -8   4   2   24.70    5.20
   8   4  -2   28.10    2.00
   7  -4  -2    5.30    2.50
   7  -4  -2    6.90    2.30
  -7   4   2    8.20    2.90
   7   4  -2    8.00    2.40
   7   4  -2    6.10    2.50
   6  -4  -2   63.39    3.80
  -6  -4   2   63.09    2.80
   6   4  -2   61.69    3.60
  -6   4   2   57.79    4.40
   6   4  -2   64.39    3.80
  -5  -4   2   92.09    3.50
   5  -4  -2   83.29    3.70
   5   4  -2   89.29    3.00
   5   4  -2   87.69    3.60
   5   4  -2   87.99    3.70
  -5   4   2   86.19    4.30
  -4  -4   2  471.75   10.70
   4  -4  -2  477.75   11.00
   4  -4  -2  474.45   10.80
   4   4  -2  461.75   10.40
  -4   4   2  478.55   11.30
   4   4  -2  463.65   10.60
   4   4  -2  475.35   10.50
  -3  -4   2  574.24   12.10
   3  -4  -2  591.64   12.80
  -3  -4   2  579.44   12.10
   3  -4  -2  559.24   12.90
  -3   4   2  586.84   13.00
   3   4  -2  576.94   12.50
   3   4  -2  594.94   12.70
  -2  -4   2  885.31   18.30
  -2  -4   2  855.21   17.60
  -2  -4   2  856.21   18.30
   2  -4  -2  905.11   18.60
   2  -4  -2  907.61   18.80
  -2   4   2  890.01   18.40
   2   4  -2  876.01   18.40
  -2   4   2  891.51   18.70
   2   4  -2  920.91   18.70
  -1  -4   2   12.10    1.50
  -1  -4   2   15.10    1.80
   1  -4  -2   12.50    1.50
  -1  -4   2   12.70    1.40
   1  -4  -2   12.10    1.60
   1   4  -2   12.60    1.40
  -1   4   2   12.80    1.70
  -1   4   2   13.00    1.30
   1   4  -2   19.50    2.10
   0  -4  -2   17.30    2.10
   0  -4  -2   18.70    1.60
   0  -4   2   17.70    2.10
   0  -4  -2   17.40    1.90
   0  -4   2   17.10    1.80
   0   4  -2   25.20    1.90
   0   4   2   19.40    1.90
   0   4   2   21.20    1.20
   0   4  -2   19.50    2.30
  -1  -4  -2 1198.78   24.60
  -1  -4  -2 1212.68   24.80
  -1  -4  -2 1169.48   24.00
   1  -4   2 1191.18   24.90
   1  -4   2 1213.08   24.80
  -1   4  -2 1198.38   24.70
   1   4   2 1228.18   24.90
   2  -4   2   65.69    3.20
  -2  -4  -2   60.79    2.80
   2  -4   2   65.39    3.10
  -2  -4  -2   63.79    2.90
  -2   4  -2   71.49    3.00
   2   4   2   62.49    3.30
  -3  -4  -2  602.64   13.20
  -3  -4  -2  610.44   13.10
   3   4   2  589.24   12.30
   3   4   2  619.14   13.70
  -3   4  -2  606.24   13.40
   4  -4   2    2.90    1.60
  -4  -4  -2   -0.70    1.20
  -4  -4  -2    1.80    1.20
   4  -4   2    0.50    1.90
   4   4   2    1.40    0.90
  -4   4  -2    0.80    1.40
  -5  -4  -2    0.60    0.90
   5  -4   2   -2.00    1.60
  -5  -4  -2    1.10    1.10
   5  -4   2   -1.90    2.00
   5   4   2   -0.40    2.60
   5   4   2    1.80    1.10
  -5   4  -2    3.00    1.40
   6  -4   2   60.19    4.40
   6  -4   2   61.19    4.20
   6   4   2   58.69    4.80
   6   4   2   54.19    2.70
  -6   4  -2   54.89    4.60
  -6   4  -2   58.39    3.00
   7  -4   2   24.10    2.90
   7  -4   2   32.40    3.90
   7   4   2   16.90    3.90
   7   4   2   22.90    2.60
  -7   4  -2   16.70    4.10
   8  -4   2   48.00    5.10
   8  -4   2   55.99    6.70
  -8   4  -2   52.79    5.40
   8   4   2   47.30    5.60
   8   4   2   52.99    3.90
  -9   4  -2    4.30    5.10
   9   4   2    0.10    6.90
   9  -5  -2  348.07   11.20
   9  -5  -2  362.86   11.10
  -9   5   2  340.47   12.50
   9   5  -2  347.47   10.90
   8  -5  -2  342.67   10.30
   8  -5  -2  332.37   10.50
  -8   5   2  332.27   11.30
   8   5  -2  333.47   10.00
   7  -5  -2   20.70    3.10
  -7  -5   2   22.90    2.20
   7  -5  -2   16.90    3.20
   7   5  -2   20.70    3.10
   7   5  -2   17.70    3.50
  -7   5   2   19.60    3.50
   6  -5  -2   59.59    4.20
   6  -5  -2   61.49    4.40
  -6  -5   2   59.59    3.70
  -6   5   2   58.59    4.60
   6   5  -2   63.59    3.90
   6   5  -2   66.99    5.20
  -5  -5   2  512.85   11.90
   5  -5  -2  497.75   12.30
   5  -5  -2  515.45   12.40
   5   5  -2  514.05   11.60
   5   5  -2  523.45   11.70
  -5   5   2  510.35   12.80
   4  -5  -2  670.53   15.30
  -4  -5   2  660.23   13.80
  -4  -5   2  685.73   13.90
   4  -5  -2  671.53   16.10
   4   5  -2  693.53   15.10
   4   5  -2  679.23   14.40
  -4   5   2  657.53   15.30
   4   5  -2  677.53   14.80
   3  -5  -2   -1.10    1.40
  -3  -5   2   -0.90    1.20
   3  -5  -2    1.90    1.60
  -3  -5   2    0.60    1.10
   3   5  -2    0.20    1.80
  -3   5   2    1.10    1.30
   3   5  -2   -1.50    1.10
  -2  -5   2  539.85   11.90
   2  -5  -2  537.95   12.50
  -2  -5   2  525.45   11.10
  -2  -5   2  523.45   11.90
   2   5  -2  535.35   12.10
   2   5  -2  536.65   12.30
  -2   5   2  546.25   12.40
  -2   5   2  540.15   11.90
   1  -5  -2  627.34   14.60
  -1  -5   2  667.93   14.40
   1  -5  -2  658.33   14.50
  -1  -5   2  644.84   14.40
  -1   5   2  649.54   14.60
  -1   5   2  652.93   13.70
   1   5  -2  663.93   14.60
   1   5  -2  653.23   14.40
   0  -5  -2 1143.49   23.60
   0  -5   2 1127.69   24.20
   0  -5   2 1173.08   24.10
   0  -5  -2 1164.18   24.10
   0  -5  -2 1164.08   24.30
   0   5  -2 1164.98   24.30
   0   5  -2 1140.29   24.10
   0   5   2 1153.98   24.30
  -1  -5  -2  307.17    6.90
   1  -5   2  278.07    8.40
  -1  -5  -2  307.97    7.80
   1  -5   2  301.67    8.00
  -1  -5  -2  313.87    7.90
  -1   5  -2  305.27    7.80
  -2  -5  -2  534.05   12.20
  -2  -5  -2  506.55   11.10
   2  -5   2  527.05   12.60
  -2  -5  -2  540.05   12.10
   2  -5   2  545.05   12.60
  -2   5  -2  525.45   12.30
   2   5   2  544.95   12.60
  -3  -5  -2  301.07    7.70
   3  -5   2  301.77    8.40
   3  -5   2  305.47    8.30
  -3  -5  -2  299.07    7.70
  -3  -5  -2  298.57    6.40
  -3   5  -2  301.27    7.90
  -4  -5  -2  135.19    4.50
   4  -5   2  133.19    5.50
   4  -5   2  139.99    5.50
  -4  -5  -2  135.59    4.60
  -4   5  -2  149.29    5.10
   4   5   2  141.69    5.90
   5  -5   2   83.89    5.10
  -5  -5  -2   84.99    3.20
  -5  -5  -2   78.49    3.30
   5  -5   2   88.09    5.50
   5   5   2   79.79    5.40
  -5   5  -2   80.69    4.00
   6  -5   2  338.87   10.20
   6  -5   2  342.57    9.70
  -6   5  -2  345.57   10.50
   6   5   2  348.37   10.40
  -6   5  -2  348.37    8.80
   7  -5   2  375.76   11.70
   7  -5   2  386.66   11.00
   7   5   2  392.76   11.50
  -7   5  -2  405.66   12.40
   8  -5   2   45.60    4.50
  -8   5  -2   42.20    5.60
   8   5   2   35.40    5.50
   9  -6  -2   30.80    4.80
   9   6  -2   26.00    5.40
  -9   6   2   26.30    6.60
   8  -6  -2   26.20    4.20
  -8  -6   2   21.30    2.30
   8   6  -2   24.30    4.40
  -8   6   2   24.60    4.80
   7  -6  -2   52.49    5.20
  -7  -6   2   51.29    4.10
   7  -6  -2   55.19    5.50
   7   6  -2   49.20    5.70
   7   6  -2   56.59    5.30
  -7   6   2   52.19    6.00
   6  -6  -2   96.29    6.00
  -6  -6   2   96.69    4.90
  -6   6   2   87.79    5.70
   6   6  -2   92.79    4.40
   6   6  -2  100.79    5.70
   5  -6  -2   -0.30    2.10
   5  -6  -2   -2.50    2.30
  -5  -6   2    0.60    2.50
   5   6  -2    2.80    2.50
   5   6  -2   -1.50    1.70
  -5   6   2   -2.20    2.20
   5   6  -2    1.80    1.70
  -4  -6   2  223.88    5.90
   4  -6  -2  225.98    7.30
   4  -6  -2  229.88    7.30
  -4  -6   2  225.38    5.90
   4   6  -2  230.28    6.80
   4   6  -2  235.48    7.40
   4   6  -2  228.28    6.10
  -4   6   2  223.38    7.10
  -3  -6   2   16.30    2.00
  -3  -6   2   23.00    2.50
   3  -6  -2   20.50    2.50
   3  -6  -2   17.50    2.60
   3   6  -2   15.50    2.20
  -3   6   2   17.70    2.20
   3   6  -2   20.30    2.80
   2  -6  -2  412.26   10.40
  -2  -6   2  417.56   10.00
   2  -6  -2  402.06   10.50
  -2  -6   2  400.26    8.90
  -2  -6   2  398.06   10.00
   2   6  -2  407.76   10.40
  -2   6   2  406.76    9.70
  -2   6   2  437.16   11.50
   2   6  -2  409.96   10.20
   1  -6  -2    0.60    1.90
   1  -6  -2   -0.10    1.80
  -1  -6   2    1.50    1.70
  -1  -6   2   -0.70    3.30
  -1   6   2    3.20    1.00
   1   6  -2    5.10    2.00
   1   6  -2    2.90    1.50
  -1   6   2    2.20    2.30
   0  -6  -2 1596.24   33.30
   0  -6  -2 1553.24   34.00
   0  -6   2 1710.13   34.20
   0  -6  -2 1584.94   32.50
   0  -6   2 1589.64   33.30
   0   6  -2 1605.74   33.30
   0   6   2 1562.24   31.70
   0   6   2 1644.84   33.50
   0   6  -2 1569.54   33.10
  -1  -6  -2   65.19    3.80
   1  -6   2   68.29    3.90
  -1  -6  -2   63.79    2.70
   1  -6   2   66.09    3.90
  -1  -6  -2   66.19    3.80
   1   6   2   70.49    4.20
  -1   6  -2   62.59    3.60
  -2  -6  -2 1043.10   22.30
  -2  -6  -2 1005.30   22.10
  -2  -6  -2 1029.10   20.70
   2  -6   2 1041.50   22.50
   2  -6   2 1023.50   22.60
   2   6   2 1040.20   22.60
  -2   6  -2 1029.40   22.20
  -3  -6  -2   90.99    4.50
   3  -6   2   88.09    4.80
  -3  -6  -2   83.69    2.30
   3  -6   2   84.49    4.70
  -3  -6  -2   84.59    3.90
   3   6   2   92.29    5.10
  -3   6  -2   84.59    4.20
  -4  -6  -2  293.57    7.90
  -4  -6  -2  309.37    8.20
   4  -6   2  296.67    9.10
   4  -6   2  303.27    9.10
   4   6   2  307.67    9.20
  -4   6  -2  298.97    8.50
   5  -6   2   18.10    3.60
  -5  -6  -2   23.40    2.50
   5  -6   2   24.50    3.40
  -5  -6  -2   22.80    2.70
   5  -6   2   22.40    3.30
  -5   6  -2   20.20    2.70
   5   6   2   25.00    4.00
   6  -6   2   58.19    6.30
  -6  -6  -2   50.39    2.60
   6  -6   2   42.50    5.00
   6  -6   2   45.40    5.40
  -6  -6  -2   52.19    2.20
   6   6   2   48.00    4.70
  -6   6  -2   53.09    3.90
   7  -6   2   -2.00    3.40
   7  -6   2    0.00    4.00
  -7   6  -2    0.10    4.00
   7   6   2   -0.20    4.60
   8  -6   2   70.99    7.10
   8  -6   2   72.69    8.50
  -8   6  -2   67.19    7.00
  -8   7   2   61.19    6.50
   8   7  -2   70.19    7.80
   7  -7  -2  287.07    9.90
  -7   7   2  282.87   11.00
   7   7  -2  268.47   10.00
   6  -7  -2    3.60    3.40
   6  -7  -2   -0.30    2.90
  -6  -7   2    6.90    3.10
   6   7  -2    8.00    3.80
  -6   7   2   -3.20    3.20
   6   7  -2    7.40    2.50
  -5  -7   2  560.44   13.90
   5  -7  -2  573.24   14.50
  -5  -7   2  555.24   12.00
   5  -7  -2  544.95   14.30
  -5  -7   2  558.14   11.90
   5   7  -2  564.04   14.20
   5   7  -2  551.04   12.50
  -5   7   2  580.84   14.40
   5   7  -2  571.74   13.70
   4  -7  -2  168.58    6.90
  -4  -7   2  174.28    5.70
  -4  -7   2  179.78    5.50
   4  -7  -2  167.18    6.90
  -4   7   2  180.18    6.70
   4   7  -2  175.88    7.20
   4   7  -2  171.68    5.20
   4   7  -2  185.28    6.20
  -3  -7   2  345.87    9.10
   3  -7  -2  348.67   10.00
   3  -7  -2  334.27    9.70
  -3  -7   2  351.86    9.10
   3   7  -2  353.46    9.50
  -3   7   2  350.56    9.20
   3   7  -2  358.36   10.30
  -2  -7   2   43.60    4.30
  -2  -7   2   43.70    3.90
   2  -7  -2   41.00    3.70
  -2  -7   2   43.30    2.50
   2  -7  -2   45.10    4.10
   2   7  -2   43.90    3.60
  -2   7   2   46.60    3.10
   2   7  -2   51.39    4.50
  -2   7   2   44.80    4.40
  -1  -7   2  573.04   13.90
   1  -7  -2  583.44   14.10
   1  -7  -2  585.04   14.00
  -1  -7   2  563.04   13.70
   1   7  -2  562.04   13.70
  -1   7   2  567.34   12.60
   1   7  -2  564.04   14.10
  -1   7   2  572.64   14.20
   0  -7  -2  180.38    5.50
   0  -7   2  176.58    6.50
   0  -7  -2  174.28    6.40
   0  -7   2  181.18    6.40
   0   7  -2  174.38    6.20
   0   7  -2  176.58    6.70
   0   7   2  167.98    6.80
   0   7   2  177.48    4.60
  -1  -7  -2  991.40   21.30
  -1  -7  -2  973.40   21.30
   1  -7   2  929.21   21.40
   1  -7   2  959.10   21.40
  -1  -7  -2  953.00   19.90
   1   7   2  945.11   21.60
  -1   7  -2  940.41   21.20
  -2  -7  -2  113.39    5.20
   2  -7   2  112.19    5.70
  -2  -7  -2  118.19    3.30
   2  -7   2  106.79    5.60
  -2  -7  -2  107.29    5.30
   2   7   2  114.19    5.90
  -2   7  -2  117.99    5.20
  -3  -7  -2 1172.58   25.30
   3  -7   2 1151.08   25.90
   3  -7   2 1197.38   26.20
  -3  -7  -2 1193.68   25.20
  -3   7  -2 1171.18   25.50
   3   7   2 1173.38   26.10
   4  -7   2   26.50    3.50
   4  -7   2   25.40    3.50
  -4  -7  -2   21.10    3.00
  -4  -7  -2   24.60    2.80
   4   7   2   27.40    4.40
  -4   7  -2   20.10    2.80
  -5  -7  -2  516.75   12.20
   5  -7   2  525.95   14.10
  -5  -7  -2  528.45   12.20
   5  -7   2  491.65   14.10
   5  -7   2  486.55   13.70
  -5   7  -2  522.85   12.80
   5   7   2  514.95   13.90
  -6  -7  -2   30.60    2.50
   6  -7   2   28.20    4.50
  -6  -7  -2   32.20    3.20
   6   7   2   38.80    5.10
  -6   7  -2   30.10    4.80
   7  -7   2   31.80    4.80
   7  -7   2   32.10    5.10
  -7   7  -2   24.40    5.50
   7  -8  -2   62.39    5.80
  -7  -8   2   61.49    6.50
  -7   8   2   50.29    6.00
  -6  -8   2  154.48    7.50
   6   8  -2  154.78    8.60
  -6   8   2  175.78    8.20
   6   8  -2  160.38    5.50
  -5  -8   2  137.09    6.80
  -5  -8   2  139.89    4.60
   5  -8  -2  139.39    7.20
  -5  -8   2  133.59    5.00
   5   8  -2  129.29    7.80
  -5   8   2  138.79    6.60
   5   8  -2  134.69    5.00
   4  -8  -2   59.69    5.50
  -4  -8   2   67.99    4.40
   4  -8  -2   62.79    5.50
   4   8  -2   47.20    4.50
   4   8  -2   51.19    5.60
   4   8  -2   55.39    3.60
  -4   8   2   53.39    5.00
   3  -8  -2  114.39    6.10
  -3  -8   2  114.19    5.70
  -3  -8   2  111.09    5.20
   3  -8  -2  108.09    6.10
  -3   8   2  109.99    5.30
   3   8  -2  104.09    6.40
   3   8  -2  121.19    5.50
  -2  -8   2  130.99    4.20
   2  -8  -2  140.69    6.30
  -2  -8   2  134.89    6.10
  -2  -8   2  126.69    5.90
   2  -8  -2  134.79    6.50
  -2   8   2  135.59    5.10
   2   8  -2  135.99    5.90
   2   8  -2  121.19    6.60
  -2   8   2  133.49    6.60
   1  -8  -2    0.20    2.50
  -1  -8   2   -1.00    2.30
  -1  -8   2    0.50    1.70
   1  -8  -2   -2.80    2.80
  -1  -8   2   -4.60    2.50
   1   8  -2    2.40    2.10
   1   8  -2    1.20    2.90
  -1   8   2   -0.50    2.90
  -1   8   2   -2.30    1.50
   0  -8   2   33.60    3.70
   0  -8   2   40.20    4.20
   0  -8  -2   36.20    3.70
   0  -8  -2   34.70    3.60
   0  -8  -2   28.20    3.20
   0   8  -2   34.00    4.00
   0   8   2   31.00    2.30
   0   8  -2   39.60    4.00
   0   8   2   42.70    5.10
  -1  -8  -2   77.39    3.50
  -1  -8  -2   74.59    4.70
   1  -8   2   70.89    5.40
   1  -8   2   74.39    5.10
  -1  -8  -2   69.59    5.40
   1   8   2   70.09    5.60
  -1   8  -2   65.69    4.60
   2  -8   2   38.60    3.90
  -2  -8  -2   39.00    4.80
  -2  -8  -2   43.40    2.30
  -2  -8  -2   33.80    4.10
   2  -8   2   39.60    4.00
  -2   8  -2   38.10    4.10
   2   8   2   39.90    4.30
   3  -8   2   25.30    3.60
  -3  -8  -2   29.30    3.30
   3  -8   2   24.00    3.70
  -3  -8  -2   25.50    3.40
  -3   8  -2   27.60    3.30
   3   8   2   24.40    4.10
  -4  -8  -2  147.19    6.20
   4  -8   2  136.09    7.30
  -4  -8  -2  143.59    7.20
   4   8   2  133.29    7.40
  -4   8  -2  144.39    6.30
  -5  -8  -2   22.60    3.10
   5  -8   2   22.80    4.50
   5  -8   2   27.40    4.50
  -5   8  -2   25.30    4.60
  -5   8  -2   19.30    3.10
  -6  -8  -2  156.38    5.00
  -6  -8  -2  151.18    5.30
   6  -8   2  159.38    9.00
  -6   8  -2  150.08    9.60
   6  -9  -2  259.77   11.20
  -6  -9   2  240.98    9.60
  -6   9   2  263.57   11.20
  -5  -9   2   -4.30    2.40
  -5  -9   2    1.90    2.50
   5  -9  -2    7.00    4.90
  -5  -9   2   -1.50    4.10
   5   9  -2    2.00    2.00
  -4  -9   2   85.49    6.10
  -4  -9   2   87.79    5.50
   4  -9  -2   76.89    6.80
   4   9  -2   85.19    4.40
   4   9  -2   88.49    5.70
  -4   9   2   81.19    6.00
  -3  -9   2  575.54   14.60
  -3  -9   2  580.64   14.70
   3   9  -2  581.14   15.00
  -3   9   2  571.54   14.30
   2  -9  -2  156.28    7.60
  -2  -9   2  170.08    7.80
  -2  -9   2  156.48    7.20
  -2  -9   2  162.58    5.20
  -2   9   2  159.68    7.70
   2   9  -2  166.48    7.20
  -2   9   2  177.58    6.30
  -1  -9   2    0.80    2.40
  -1  -9   2   -3.30    3.60
   1  -9  -2    1.40    2.30
   1  -9  -2    3.50    3.40
   1  -9  -2    5.70    3.30
  -1  -9   2   -0.80    3.40
   1   9  -2   -1.60    3.30
   1   9  -2    0.70    2.60
  -1   9   2    3.10    3.40
  -1   9   2    3.60    2.10
   0  -9  -2   76.49    5.60
   0  -9   2   73.59    6.30
   0  -9  -2   74.89    4.50
   0  -9  -2   70.79    5.90
   0  -9   2   74.19    5.70
   0   9   2   72.39    3.30
   0   9   2   70.99    6.10
   0   9  -2   69.19    5.30
  -1  -9  -2  238.18    6.80
  -1  -9  -2  234.38    8.50
  -1  -9  -2  227.18    8.70
   1  -9   2  225.88    8.70
   1  -9   2  245.28    9.00
  -1   9  -2  228.38    8.30
  -2  -9  -2  191.28    8.20
  -2  -9  -2  195.48    8.10
  -2  -9  -2  197.38    5.20
   3  -9   2   56.29    6.30
  -3  -9  -2   63.09    6.10
  -3  -9  -2   62.39    5.90
  -3   9  -2   56.49    5.70
  -4  -9  -2  217.88    8.00
  -4  -9  -2  213.98    8.60
   4  -9   2  199.08    9.60
  -4   9  -2  208.08    8.80
  -5  -9  -2  201.18    8.10
   5  -9   2  211.28   10.30
  -5  -9  -2  225.38    7.80
  -5   9  -2  196.88    9.60
  -5 -10   2   18.80    3.40
   5 -10  -2   27.20    5.60
  -5  10   2   16.30    5.10
  -4 -10   2   63.89    5.90
   4 -10  -2   60.49    6.40
  -4 -10   2   53.69    5.50
  -4  10   2   60.99    6.40
   4  10  -2   62.29    3.80
  -3 -10   2   20.10    3.70
   3 -10  -2   25.10    4.90
  -3 -10   2   30.20    4.30
  -3  10   2   27.10    3.90
  -2 -10   2    8.70    4.30
  -2 -10   2   14.20    4.10
  -2 -10   2   12.20    2.40
   2 -10  -2   12.60    4.60
  -2 -10   2   13.10    2.10
   2  10  -2   17.50    3.80
  -2  10   2   18.90    3.30
  -1 -10   2   -7.30    4.10
   1 -10  -2    0.60    3.20
   1 -10  -2    3.90    4.00
  -1 -10   2   -8.00    4.10
   1  10  -2    7.50    3.30
  -1  10   2   -2.20    2.50
   0 -10  -2   53.79    6.40
   0 -10   2   51.39    5.30
   0 -10   2   52.39    5.80
   0 -10  -2   49.99    4.60
   0  10  -2   57.29    6.10
   0  10   2   46.00    3.40
   1 -10   2   16.80    4.50
  -1 -10  -2   18.30    4.50
  -1 -10  -2   26.00    2.70
  -1  10  -2   26.60    4.20
  -2 -10  -2  263.37   10.70
  -2 -10  -2  281.37   11.40
   2 -10   2  270.37   11.00
  -2 -10  -2  258.87    6.80
  -2  10  -2  276.07   10.00
  -3 -10  -2   -6.10    4.40
  -3 -10  -2    4.30    4.90
   3 -10   2   -0.40    4.50
  -3  10  -2   -2.70    3.60
  -4 -10  -2   32.70    5.00
  -4 -10  -2   28.30    5.40
   4 -10   2   27.50    5.80
  -4  10  -2   34.10    5.30
  -2 -11   2   -0.40    4.30
   2 -11  -2   -3.90    4.50
   2 -11  -2    9.60    5.40
  -2 -11   2    0.80    2.10
  -2  11   2    2.70    3.50
   1 -11  -2    6.30    3.90
   1 -11  -2   -1.70    5.00
  -1 -11   2   -5.80    4.40
  -1  11   2    0.50    3.10
   0 -11   2   -6.40    4.80
   0 -11  -2   -8.90    3.40
   0 -11   2    4.40    3.50
   0 -11  -2    1.60    5.10
   0  11   2    0.10    2.00
   1 -11   2    7.60    4.60
  -1 -11  -2    9.50    5.20
  -1 -11  -2   -1.30    2.70
   1 -11   2    0.90    5.00
  -2 -11  -2  155.48    9.20
   2 -11   2  142.09   10.80
 -10   0   3   -6.40    5.20
  -9   0   3   -8.50    3.10
   9   0  -3   -2.30    1.90
  -8   0   3   -2.10    2.50
   8   0  -3    1.50    1.30
   7   0  -3   -0.10    0.80
  -7   0   3    1.50    2.20
   6   0  -3    0.30    0.60
   6   0  -3   -3.60    2.20
  -6   0   3    0.10    1.90
   5   0  -3   -0.10    0.60
  -5   0   3   -0.80    1.30
   5   0  -3    0.80    1.60
   4   0  -3   -0.60    1.50
  -4   0   3   -1.10    1.10
   3   0  -3    1.30    0.90
   3   0  -3   -0.50    0.60
   2   0  -3   -0.40    0.50
   2   0  -3    0.60    0.40
  -2   0   3    0.20    0.60
  -1   0   3    0.90    0.60
  -1   0   3    0.30    0.50
   1   0  -3   -0.50    0.50
   1   0  -3    0.40    0.50
   0   0   3    0.60    0.60
   0   0  -3    2.80    0.60
   0   0   3   -0.30    0.50
   1   0   3    0.30    0.70
   1   0   3   -0.10    0.70
  -1   0  -3   -0.20    0.60
  -1   0  -3    0.80    0.60
  -1   0  -3    0.30    0.50
  -2   0  -3    0.70    0.80
   2   0   3    0.40    0.90
  -2   0  -3    0.20    0.70
   2   0   3   -0.20    0.90
   3   0   3   -0.30    1.00
  -3   0  -3   -0.10    0.90
  -3   0  -3   -1.00    0.70
   3   0   3    1.20    1.10
   4   0   3   -0.30    1.40
  -4   0  -3    2.10    0.70
  -4   0  -3   -0.50    0.80
   4   0   3   -1.40    1.10
   5   0   3   -0.60    1.60
   5   0   3    0.80    1.50
  -5   0  -3    0.20    0.80
  -6   0  -3    2.90    2.30
   6   0   3    1.40    2.70
   6   0   3   -2.10    2.40
   7   0   3    1.80    3.00
  -7   0  -3    1.80    2.60
   7   0   3   -3.10    2.60
   8   0   3    4.30    3.80
  -8   0  -3   -0.50    3.00
   8   0   3   -1.00    3.50
  -9   0  -3   -0.90    4.80
   9   0   3   -3.40    4.50
   9   0   3    7.40    4.70
 -10   1   3  184.38    9.50
  10   1  -3  197.88    7.90
   9  -1  -3   51.89    3.80
   9   1  -3   48.80    3.40
   9   1  -3   52.79    4.70
   8  -1  -3   62.19    3.10
   8   1  -3   61.69    2.60
  -8   1   3   51.39    4.90
   7  -1  -3  394.56    8.70
   7   1  -3  401.46    8.20
   7   1  -3  409.06   10.90
  -7   1   3  405.26   10.80
   6  -1  -3  617.44   14.50
   6  -1  -3  616.04   12.60
   6   1  -3  629.04   14.40
  -6   1   3  613.04   14.40
   5  -1  -3   22.70    2.80
   5   1  -3   22.70    2.20
  -5   1   3   24.30    2.50
   5   1  -3   24.40    1.90
   4  -1  -3  425.76    9.90
   4   1  -3  428.06    9.30
   4   1  -3  436.26    9.80
  -4   1   3  407.96    9.80
   3  -1  -3  390.16    8.80
   3  -1  -3  381.06    8.00
   3   1  -3  399.26    8.40
  -3   1   3  384.96    8.80
   3   1  -3  401.66    8.80
   3   1  -3  375.26    8.40
   2  -1  -3  121.99    3.00
   2  -1  -3  123.09    3.40
  -2  -1   3  127.89    3.20
  -2  -1   3  126.79    3.30
   2  -1  -3  125.29    3.40
   2   1  -3  121.49    2.90
  -2   1   3  123.79    2.90
   2   1  -3  131.59    3.30
   2   1  -3  123.09    2.80
  -1  -1   3   15.20    0.90
  -1  -1   3   13.40    1.10
   1  -1  -3   13.40    1.00
   1  -1  -3   13.10    1.10
  -1  -1   3   13.50    1.10
   1   1  -3   13.20    1.20
  -1   1   3   14.20    1.30
  -1   1   3   14.10    1.10
   1   1  -3   14.30    1.20
   1   1  -3   14.10    1.00
   0  -1   3  427.66    9.10
   0  -1  -3  434.66    9.10
   0  -1   3  419.76    9.10
   0  -1   3  421.46    9.20
   0  -1  -3  436.66    9.10
   0   1   3  433.26    9.10
   0   1  -3  432.26    9.10
   0   1  -3  425.36    9.20
   0   1  -3  424.86    9.10
   0   1   3  426.46    9.10
   1  -1   3 1177.08   23.50
  -1  -1  -3 1166.98   23.50
  -1  -1  -3 1156.28   23.30
   1  -1   3 1155.88   23.50
   1  -1   3 1153.18   23.50
  -1   1  -3 1180.18   23.50
   1   1   3 1175.48   23.50
  -1   1  -3 1167.48   23.50
   1   1   3 1183.68   23.40
  -2  -1  -3  238.98    5.70
  -2  -1  -3  237.38    5.70
   2  -1   3  240.98    5.70
   2  -1   3  235.08    6.00
   2  -1   3  242.58    5.90
  -2   1  -3  241.78    5.70
   2   1   3  242.68    5.90
  -2   1  -3  234.98    5.70
   2   1   3  237.28    5.70
  -3  -1  -3  180.18    4.60
   3  -1   3  177.08    5.20
   3  -1   3  178.28    4.60
   3  -1   3  185.38    5.00
  -3   1  -3  181.48    4.60
   3   1   3  174.38    4.90
   3   1   3  179.48    4.80
  -3   1  -3  174.28    4.60
   4  -1   3  169.98    5.30
  -4  -1  -3  170.98    4.20
   4  -1   3  173.78    5.00
  -4  -1  -3  168.98    4.40
  -4   1  -3  167.98    4.60
   4   1   3  173.58    4.90
   4   1   3  173.48    5.00
   5  -1   3   23.00    2.50
  -5  -1  -3   19.70    2.20
  -5  -1  -3   18.40    1.60
  -5   1  -3   18.40    1.70
   5   1   3   22.10    2.30
   5   1   3   22.60    2.10
   6  -1   3   75.49    5.20
  -6  -1  -3   79.89    4.30
   6  -1   3   74.19    4.10
  -6   1  -3   81.49    2.50
  -6   1  -3   77.89    4.40
   6   1   3   71.39    4.70
   7  -1   3  221.78    7.70
  -7  -1  -3  227.78    7.60
   7  -1   3  226.28    8.10
   7   1   3  233.08    7.60
   7   1   3  223.88    7.70
  -7   1  -3  221.58    8.20
   8  -1   3   22.60    4.10
   8  -1   3   23.50    4.00
  -8  -1  -3   26.10    3.90
   8   1   3   23.80    4.00
   8   1   3   20.30    4.00
  -8   1  -3   22.10    4.50
   9  -1   3  117.69    8.00
   9   1   3  131.69    8.70
  -9   1  -3  143.69    8.30
   9   1   3  119.39    8.40
  10  -2  -3    2.60    2.80
  10   2  -3   -2.80    3.50
  10   2  -3    4.80    3.70
 -10   2   3   -6.80    4.80
   9   2  -3  240.68    6.70
   9   2  -3  248.08    7.60
  -9   2   3  231.08    9.50
   8  -2  -3 1143.49   23.50
  -8   2   3 1121.19   25.50
   8   2  -3 1129.89   23.90
   7  -2  -3  464.65   10.50
   7   2  -3  476.95   10.90
  -7   2   3  471.55   12.20
   7   2  -3  475.85   11.90
   7   2  -3  470.95    9.90
   6  -2  -3   16.10    1.50
   6   2  -3   13.10    1.30
  -6   2   3   16.00    2.50
   6   2  -3   14.80    1.00
   6   2  -3   14.50    1.60
   5  -2  -3    3.60    0.90
   5  -2  -3    2.50    0.90
   5   2  -3    2.80    0.60
   5   2  -3    5.30    0.90
   5   2  -3    2.40    1.70
   5   2  -3    3.00    0.50
  -5   2   3    2.90    1.60
   4  -2  -3 7549.94  146.99
   3  -2  -3  545.35   11.70
  -3  -2   3  529.35   11.00
   3  -2  -3  532.85   11.30
  -3  -2   3  531.05   11.30
  -3   2   3  529.75   11.60
   3   2  -3  522.95   10.80
   3   2  -3  535.05   10.90
   2  -2  -3  261.77    6.00
  -2  -2   3  257.87    6.00
  -2  -2   3  249.48    5.40
  -2  -2   3  253.37    5.40
  -2  -2   3  254.37    5.60
   2  -2  -3  244.28    5.80
   2  -2  -3  261.97    6.20
   2   2  -3  239.68    5.60
  -2   2   3  254.27    5.70
  -2   2   3  252.77    5.90
   2   2  -3  253.67    6.00
   2   2  -3  262.47    5.70
   2   2  -3  254.37    5.60
  -1  -2   3 1068.69   21.10
   1  -2  -3 1047.80   21.40
   1  -2  -3 1038.90   21.30
   1  -2  -3 1043.40   21.00
  -1  -2   3 1056.49   21.40
  -1  -2   3 1042.40   21.00
  -1  -2   3 1079.29   21.20
   1   2  -3 1055.29   21.40
   1   2  -3 1033.10   21.00
   1   2  -3 1072.39   21.20
  -1   2   3 1055.19   21.30
   0  -2   3 6778.52  138.49
   0  -2  -3 6817.82  138.59
   0   2   3 6757.12  138.69
   0   2  -3 6898.11  138.79
  -1  -2  -3 1798.92   35.90
   1  -2   3 1813.02   36.30
  -1  -2  -3 1853.41   36.30
   1  -2   3 1773.82   36.30
   1  -2   3 1830.52   36.30
  -1   2  -3 1870.61   36.30
   1   2   3 1827.72   36.30
   1   2   3 1821.92   36.00
   2  -2   3 1914.11   37.80
  -2  -2  -3 1907.21   37.70
  -2  -2  -3 1868.31   37.40
   2  -2   3 1895.51   37.80
   2   2   3 1899.01   37.80
  -2   2  -3 1866.41   37.70
   2   2   3 1908.71   37.40
  -3  -2  -3  105.99    3.40
   3  -2   3  111.19    3.60
   3  -2   3  113.99    3.80
  -3   2  -3  109.89    3.60
   3   2   3  110.59    3.80
   3   2   3  111.79    3.40
   4  -2   3 2900.51   56.89
  -4  -2  -3 2751.82   56.29
   4  -2   3 2884.41   56.49
  -4  -2  -3 2860.01   56.19
   4   2   3 2896.61   56.39
  -4   2  -3 2845.82   56.49
   4   2   3 2896.91   56.79
  -5  -2  -3  372.16    8.30
  -5  -2  -3  376.36    8.30
  -5  -2  -3  373.46    9.00
   5  -2   3  383.26    8.90
  -5  -2  -3  376.46    8.20
   5   2   3  377.76    9.00
  -5   2  -3  371.26    8.70
   6  -2   3   68.69    4.60
  -6  -2  -3   73.39    3.90
  -6  -2  -3   68.89    2.20
  -6   2  -3   70.39    2.70
   6   2   3   70.89    3.80
   6   2   3   76.49    4.10
  -6   2  -3   70.09    4.50
  -7  -2  -3  349.77    9.70
   7  -2   3  363.96   10.30
   7   2   3  359.36    9.50
   7   2   3  346.37   10.10
  -7   2  -3  366.76   10.60
   8  -2   3  696.53   17.50
   8  -2   3  695.13   18.20
  -8  -2  -3  739.63   17.40
  -8   2  -3  724.93   18.50
   8   2   3  694.83   16.70
  -9  -2  -3  105.39    7.00
  -9   2  -3   92.19    8.00
   9   2   3  104.39    7.50
   9   2   3   90.29    7.90
  10  -3  -3  108.09    6.30
  10  -3  -3   87.29    6.50
 -10   3   3  103.79    8.60
  10   3  -3  104.29    6.30
  10   3  -3   99.79    5.40
   9  -3  -3   50.09    3.30
   9  -3  -3   43.60    4.40
   9  -3  -3   44.20    5.10
  -9   3   3   44.70    5.20
   9   3  -3   50.39    3.60
   9   3  -3   43.50    4.20
   8  -3  -3  187.38    6.10
   8   3  -3  179.38    5.60
   8   3  -3  186.78    5.40
   8   3  -3  192.18    7.70
  -8   3   3  187.08    7.60
   7  -3  -3  361.86    9.80
   7  -3  -3  381.06    9.10
   7   3  -3  380.46    8.60
   7   3  -3  372.16    8.50
  -7   3   3  367.36   10.60
   7   3  -3  381.06   10.20
   6  -3  -3   67.29    3.00
   6  -3  -3   71.69    3.20
   6   3  -3   69.89    4.10
   6   3  -3   62.99    2.40
  -6   3   3   76.79    4.40
   6   3  -3   70.59    2.80
   5  -3  -3   77.79    3.00
  -5  -3   3   77.59    2.90
   5  -3  -3   83.19    3.10
   5   3  -3   77.29    2.80
   5   3  -3   83.09    3.70
  -5   3   3   74.69    3.80
   4  -3  -3    5.50    1.20
  -4  -3   3    5.10    1.20
   4  -3  -3    7.80    1.30
   4   3  -3    4.10    0.70
   4   3  -3    5.70    1.40
   4   3  -3    6.40    1.10
  -4   3   3    6.70    1.50
   3  -3  -3  827.12   17.20
   3  -3  -3  814.72   16.80
  -3  -3   3  793.42   16.20
  -3  -3   3  796.42   16.00
  -3  -3   3  828.02   17.00
  -3  -3   3  788.42   16.00
   3  -3  -3  814.92   17.00
   3   3  -3  792.32   16.20
  -3   3   3  829.22   17.30
   3   3  -3  830.82   16.70
   3   3  -3  832.62   16.60
  -2  -3   3 1553.84   31.10
   2  -3  -3 1513.85   30.80
  -2  -3   3 1543.15   30.60
  -2  -3   3 1495.35   30.30
   2  -3  -3 1553.84   31.00
  -2  -3   3 1524.55   30.50
   2   3  -3 1519.65   30.80
  -2   3   3 1593.64   30.90
   2   3  -3 1560.14   30.70
  -2   3   3 1557.34   30.80
  -1  -3   3   15.70    1.40
  -1  -3   3   13.70    1.50
  -1  -3   3   13.70    1.50
   1  -3  -3   13.40    1.40
  -1  -3   3   16.10    1.90
   1  -3  -3   14.00    1.50
   1  -3  -3   13.80    1.60
  -1   3   3   12.10    1.20
  -1   3   3   14.00    1.50
   1   3  -3   14.00    1.60
   1   3  -3   14.00    1.40
   0  -3  -3  443.96    9.80
   0  -3   3  456.55   10.40
   0  -3  -3  445.36    9.20
   0  -3   3  455.85   10.10
   0  -3   3  460.55   10.20
   0  -3  -3  461.85   10.20
   0  -3   3  458.95   10.00
   0   3  -3  462.35   10.10
   0   3   3  457.35   10.30
  -1  -3  -3 1646.44   33.50
   1  -3   3 1706.93   33.60
   1  -3   3 1669.83   33.80
  -1  -3  -3 1660.93   33.00
   1   3   3 1681.23   33.70
  -1   3  -3 1634.34   33.50
   1   3   3 1676.63   33.10
   2  -3   3   -1.20    1.20
  -2  -3  -3   -0.80    0.70
   2  -3   3    2.40    1.20
  -2  -3  -3   -1.30    0.90
  -2   3  -3    2.20    1.10
   2   3   3    1.30    1.30
   2   3   3    0.20    0.90
   3  -3   3  860.81   17.70
  -3  -3  -3  813.72   16.80
  -3  -3  -3  837.32   17.20
  -3  -3  -3  711.63   16.60
   3  -3   3  824.02   17.50
   3   3   3  819.02   16.80
   3   3   3  836.82   17.60
  -3   3  -3  840.72   17.50
   4  -3   3  844.32   18.10
  -4  -3  -3  837.02   17.60
  -4  -3  -3  856.21   17.30
  -4  -3  -3  838.92   17.50
   4  -3   3  866.61   18.40
   4   3   3  841.32   17.40
  -4   3  -3  816.92   17.90
   5  -3   3  958.20   20.40
  -5  -3  -3  950.30   19.50
  -5  -3  -3  938.41   19.50
  -5  -3  -3  960.40   19.90
   5  -3   3  974.00   20.90
  -5   3  -3  943.31   20.00
   5   3   3  963.10   19.90
  -6  -3  -3    1.20    0.90
   6  -3   3    2.60    2.60
   6  -3   3    0.90    1.80
  -6  -3  -3    3.10    2.00
   6   3   3   -1.60    1.80
   6   3   3   -1.90    2.80
  -6   3  -3    2.10    1.50
   7  -3   3    6.30    3.30
  -7  -3  -3   -1.40    2.70
   7  -3   3    2.50    2.30
   7   3   3    2.30    3.60
   7   3   3    3.80    2.60
  -7   3  -3   -4.30    3.00
  -8  -3  -3   20.30    3.40
   8  -3   3   18.70    3.80
  -8   3  -3   13.20    4.80
   8   3   3   19.70    4.50
   8   3   3   16.40    4.70
  -9  -3  -3  205.48    9.00
  -9   3  -3  224.38   10.70
   9   3   3  202.58    9.70
  10  -4  -3   37.60    4.60
  10  -4  -3   40.00    4.80
 -10   4   3   49.99    6.60
   9  -4  -3   41.50    4.40
   9  -4  -3   38.90    4.10
  -9   4   3   35.80    5.10
   8  -4  -3   55.69    4.80
   8  -4  -3   55.09    4.40
   8   4  -3   55.89    2.60
   8   4  -3   51.49    5.60
   8   4  -3   57.89    5.20
   7  -4  -3   18.60    2.60
   7  -4  -3   18.20    2.70
   7   4  -3   23.60    2.50
  -7   4   3   22.30    3.40
   7   4  -3   20.60    3.00
   6  -4  -3  193.98    6.00
  -6  -4   3  194.28    5.40
   6  -4  -3  193.18    6.80
   6   4  -3  200.28    5.60
   6   4  -3  196.58    6.30
  -6   4   3  186.38    6.90
   6   4  -3  186.28    5.10
  -5  -4   3   18.90    2.30
   5  -4  -3   20.20    2.50
   5  -4  -3   15.90    2.00
   5   4  -3   19.70    1.80
   5   4  -3   18.50    1.90
   5   4  -3   19.00    2.10
  -5   4   3   17.50    2.40
  -4  -4   3    8.90    1.50
   4  -4  -3   12.90    1.80
   4  -4  -3   10.30    1.80
   4   4  -3   10.10    1.60
  -4   4   3   12.00    1.90
   4   4  -3    8.90    1.10
  -3  -4   3   10.80    1.60
  -3  -4   3   10.90    1.00
   3  -4  -3   11.90    1.60
  -3  -4   3   11.90    1.10
   3  -4  -3   10.20    1.50
  -3  -4   3   10.10    1.10
  -3   4   3    9.00    1.40
   3   4  -3   10.70    1.60
  -3   4   3    8.80    1.50
   3   4  -3   10.00    1.20
  -2  -4   3  971.50   20.70
   2  -4  -3 1008.60   20.70
   2  -4  -3 1010.70   20.50
  -2  -4   3  976.30   20.20
  -2  -4   3  975.80   20.10
  -2  -4   3  957.00   19.70
  -2   4   3  988.40   20.50
   2   4  -3  949.31   20.30
  -2   4   3  981.70   20.20
   2   4  -3  993.60   20.50
  -1  -4   3   19.40    1.90
   1  -4  -3   15.00    1.90
   1  -4  -3   14.10    1.70
  -1  -4   3   16.70    1.70
  -1  -4   3   17.80    2.10
   1  -4  -3   16.00    1.80
  -1  -4   3   13.80    1.70
  -1   4   3   18.90    1.90
  -1   4   3   15.90    1.40
   1   4  -3   15.30    1.70
   1   4  -3   15.30    1.80
   0  -4  -3  619.24   13.80
   0  -4  -3  640.04   13.60
   0  -4   3  614.44   13.70
   0  -4   3  619.24   13.40
   0  -4   3  616.14   13.60
   0  -4  -3  627.24   13.30
   0  -4   3  619.34   14.00
   0   4  -3  616.74   13.60
   0   4   3  634.84   13.90
  -1  -4  -3  707.33   15.40
   1  -4   3  695.63   15.50
  -1  -4  -3  700.73   14.60
   1  -4   3  698.53   15.30
   1  -4   3  702.03   15.60
  -1  -4  -3  727.63   15.30
  -1   4  -3  688.63   15.30
   1   4   3  718.23   15.50
  -2  -4  -3 2212.98   43.70
  -2  -4  -3 2173.78   43.50
   2  -4   3 2163.38   44.00
   2  -4   3 2202.38   44.10
  -2  -4  -3 2109.09   42.80
  -2   4  -3 2185.28   43.80
   2   4   3 2158.38   42.90
   2   4   3 2243.38   44.00
   3  -4   3  125.29    5.30
  -3  -4  -3  105.99    4.00
  -3  -4  -3  103.59    3.00
  -3  -4  -3  107.59    3.90
   3  -4   3  105.99    4.40
   3   4   3  104.09    3.20
   3   4   3   97.19    5.20
  -3   4  -3  104.89    4.00
  -4  -4  -3  797.62   17.10
   4  -4   3  817.22   17.80
   4  -4   3  815.92   18.10
  -4  -4  -3  803.72   17.10
   4   4   3  792.02   19.00
   4   4   3  808.22   16.50
  -4   4  -3  796.72   17.40
  -5  -4  -3   49.60    2.70
  -5  -4  -3   53.79    2.80
   5  -4   3   53.09    3.70
   5  -4   3   51.59    4.60
  -5   4  -3   52.59    3.20
   5   4   3   47.50    2.60
   5   4   3   55.59    4.10
  -6  -4  -3  426.46    9.10
   6  -4   3  427.96   11.60
   6   4   3  438.86   11.90
  -6   4  -3  437.86   10.20
   6   4   3  430.16    9.80
   7  -4   3   11.80    3.40
   7   4   3   10.00    2.40
   7   4   3    0.10    4.10
  -7   4  -3   10.10    1.80
  -7   4  -3    7.10    3.80
   8  -4   3   40.90    5.10
   8   4   3   45.50    5.00
   8   4   3   52.09    4.40
  -8   4  -3   47.10    5.50
   9  -5  -3  110.29    6.70
   9  -5  -3  113.59    8.10
  -9   5   3  100.39    8.40
   9   5  -3  106.99    7.10
   8  -5  -3  104.99    6.40
   8  -5  -3  103.39    5.80
   8   5  -3   96.09    6.20
   8   5  -3   99.79    6.10
  -8   5   3   91.89    7.10
  -7  -5   3  186.08    5.60
   7  -5  -3  190.38    6.70
   7  -5  -3  176.28    6.70
  -7   5   3  179.88    7.50
   6  -5  -3    0.00    2.40
  -6  -5   3    3.40    2.00
   6  -5  -3    0.60    1.90
  -6   5   3    2.90    2.60
   6   5  -3    3.10    2.20
   6   5  -3    2.90    1.50
   6   5  -3    3.80    2.90
   5  -5  -3  901.31   20.10
  -5  -5   3  918.11   19.80
   5  -5  -3  935.81   20.00
   5   5  -3  918.01   19.40
  -5   5   3  917.21   20.60
   5   5  -3  913.41   19.50
  -4  -5   3   22.10    1.60
   4  -5  -3   23.90    2.90
  -4  -5   3   25.50    2.90
   4  -5  -3   27.60    2.90
  -4  -5   3   22.80    1.50
   4   5  -3   20.90    2.30
   4   5  -3   26.10    3.00
  -4   5   3   23.90    2.70
  -3  -5   3 1302.17   26.80
   3  -5  -3 1352.16   27.60
   3  -5  -3 1308.97   27.70
  -3  -5   3 1268.67   26.00
  -3  -5   3 1333.07   26.80
  -3  -5   3 1339.57   27.70
   3   5  -3 1371.76   27.50
  -3   5   3 1330.27   27.40
   3   5  -3 1318.97   27.30
  -3   5   3 1327.07   27.40
  -2  -5   3  345.27    8.20
   2  -5  -3  335.57    8.80
   2  -5  -3  355.96    8.90
  -2  -5   3  341.77    8.30
  -2  -5   3  341.17    7.60
   2   5  -3  347.67    8.70
   2   5  -3  337.37    8.40
  -2   5   3  340.17    8.10
  -2   5   3  347.87    8.70
   1  -5  -3 1420.76   29.30
  -1  -5   3 1429.96   28.90
  -1  -5   3 1408.96   29.10
   1  -5  -3 1415.66   28.90
  -1  -5   3 1368.66   28.40
   1   5  -3 1365.06   29.00
  -1   5   3 1447.16   29.30
  -1   5   3 1403.96   28.20
   1   5  -3 1419.06   29.30
   0  -5   3  120.69    4.40
   0  -5  -3  121.89    4.40
   0  -5  -3  113.19    3.80
   0  -5   3  112.99    3.90
   0  -5  -3  118.89    5.10
   0  -5   3  117.39    4.30
   0   5  -3  110.29    4.20
   0   5   3  114.89    2.90
  -1  -5  -3  166.78    4.30
  -1  -5  -3  157.38    5.20
  -1  -5  -3  168.78    5.20
   1  -5   3  155.98    5.20
   1  -5   3  160.48    5.30
  -1   5  -3  160.28    5.20
   1   5   3  160.58    5.50
   2  -5   3  221.38    6.70
  -2  -5  -3  215.98    6.50
   2  -5   3  226.98    7.00
  -2  -5  -3  223.08    6.30
   2  -5   3  223.08    6.80
  -2  -5  -3  218.78    5.30
  -2   5  -3  217.08    6.40
  -3  -5  -3    6.60    2.00
  -3  -5  -3   11.50    1.90
   3  -5   3    8.50    2.20
  -3  -5  -3    6.90    1.00
   3  -5   3    5.60    2.20
   3  -5   3    4.70    2.00
   3   5   3    6.90    2.30
  -3   5  -3    7.90    1.80
   4  -5   3  556.04   13.70
   4  -5   3  510.35   14.50
   4  -5   3  567.44   13.70
  -4  -5  -3  562.54   12.70
  -4  -5  -3  562.64   12.60
   4   5   3  577.04   13.70
  -4   5  -3  540.15   12.90
   5  -5   3   72.39    5.20
  -5  -5  -3   64.49    3.40
   5  -5   3   65.79    4.90
  -5  -5  -3   65.39    3.70
  -5   5  -3   71.19    4.10
   5   5   3   67.49    2.60
   5   5   3   74.09    5.30
   6  -5   3    0.40    2.90
  -6  -5  -3    0.00    1.40
  -6  -5  -3   -1.10    1.10
   6  -5   3    1.80    3.00
  -6   5  -3    0.50    1.90
   6   5   3   -3.10    3.20
   6   5   3    0.90    1.40
   7  -5   3  131.69    7.20
  -7   5  -3  133.29    7.80
   7   5   3  120.09    7.30
   7   5   3  128.79    3.90
   8  -5   3   14.90    4.10
  -8   5  -3   16.30    5.20
   9  -6  -3   37.80    4.90
  -9   6   3   41.00    6.10
   9   6  -3   31.60    5.10
  -8  -6   3    2.30    2.00
   8  -6  -3    2.20    3.90
   8  -6  -3    2.20    3.40
   8   6  -3    4.20    3.80
  -8   6   3   -4.20    4.10
   8   6  -3    0.70    3.80
   7  -6  -3   -1.00    2.70
  -7  -6   3   -0.30    2.40
   7  -6  -3   -0.40    3.50
   7   6  -3   -2.10    3.00
   6  -6  -3  720.83   17.80
   6  -6  -3  762.72   17.90
   6   6  -3  753.62   16.90
   6   6  -3  792.72   17.60
   6   6  -3  761.12   16.90
  -6   6   3  763.72   18.50
  -5  -6   3   73.69    4.30
   5  -6  -3   67.49    4.50
   5  -6  -3   74.99    4.70
  -5   6   3   70.29    4.50
   5   6  -3   73.89    4.80
   5   6  -3   73.49    3.90
   5   6  -3   67.69    3.60
   4  -6  -3   58.49    4.40
  -4  -6   3   64.69    3.10
   4  -6  -3   66.79    4.20
  -4  -6   3   63.59    2.80
  -4  -6   3   66.59    4.20
   4   6  -3   64.49    4.50
   4   6  -3   64.19    3.50
  -4   6   3   63.99    4.00
  -3  -6   3   35.00    2.90
  -3  -6   3   38.00    1.70
   3  -6  -3   37.80    3.60
  -3  -6   3   40.20    2.80
  -3  -6   3   37.90    4.50
   3  -6  -3   49.80    3.80
   3   6  -3   36.20    3.00
  -3   6   3   34.60    2.80
   3   6  -3   32.70    3.90
  -3   6   3   41.60    3.60
  -2  -6   3 1104.09   22.80
  -2  -6   3 1105.09   23.80
  -2  -6   3 1149.98   23.80
   2  -6  -3 1142.69   24.20
   2  -6  -3 1130.19   24.40
  -2   6   3 1119.09   23.40
   2   6  -3 1130.89   24.20
   2   6  -3 1142.79   24.00
  -1  -6   3  580.44   14.70
  -1  -6   3  605.94   13.30
   1  -6  -3  613.24   13.90
   1  -6  -3  612.14   14.20
   1  -6  -3  608.54   14.40
  -1  -6   3  616.64   14.10
  -1   6   3  613.64   13.00
   1   6  -3  607.24   14.00
  -1   6   3  618.14   14.50
   1   6  -3  618.54   14.30
   0  -6  -3   31.20    2.60
   0  -6   3   31.60    3.80
   0  -6  -3   31.50    3.40
   0  -6  -3   35.70    3.30
   0  -6   3   31.40    3.20
   0   6  -3   32.30    3.10
   0   6   3   35.40    3.80
   1  -6   3   17.40    2.50
  -1  -6  -3   19.00    2.40
   1  -6   3   21.50    2.70
  -1  -6  -3   19.40    1.90
  -1  -6  -3   19.00    2.50
   1   6   3   23.20    2.90
  -1   6  -3   20.30    2.40
  -2  -6  -3  754.62   16.80
  -2  -6  -3  763.32   15.40
   2  -6   3  761.12   17.30
   2  -6   3  758.02   17.10
  -2  -6  -3  618.44   19.10
   2   6   3  766.42   17.30
  -2   6  -3  757.52   16.90
   3  -6   3  132.89    6.10
  -3  -6  -3  128.89    5.10
  -3  -6  -3  129.99    3.50
   3  -6   3  130.79    5.80
  -3  -6  -3  129.49    5.20
   3  -6   3  137.79    5.90
  -3   6  -3  125.29    5.10
   3   6   3  134.49    6.10
   4  -6   3  982.60   22.20
  -4  -6  -3  976.70   21.00
   4  -6   3  958.10   22.10
   4  -6   3  960.10   22.20
   4   6   3  986.20   22.10
  -4   6  -3  972.70   21.40
   5  -6   3   65.49    5.30
   5  -6   3   69.39    5.60
  -5  -6  -3   70.29    3.90
  -5  -6  -3   64.89    4.20
   5  -6   3   64.09    5.30
   5   6   3   70.79    6.00
  -5   6  -3   59.39    4.40
   6  -6   3  113.09    7.50
  -6  -6  -3  109.89    3.90
  -6  -6  -3  107.09    4.20
   6  -6   3  119.89    6.60
   6   6   3   99.69    7.70
  -6   6  -3  111.69    5.30
   7  -6   3   35.40    5.00
  -7   6  -3   49.30    5.50
   8  -6   3   51.69    6.60
   8  -6   3   54.79    6.50
  -8   6  -3   44.10    6.60
  -8   7   3   -8.20    4.60
   8   7  -3   -2.10    4.40
   7  -7  -3  199.58    8.90
  -7  -7   3  203.88    7.40
   7   7  -3  194.38    8.20
   7   7  -3  203.38    9.10
  -7   7   3  195.18    9.00
   6  -7  -3  266.97    9.00
   6  -7  -3  242.68    8.90
  -6  -7   3  266.27    8.80
  -6   7   3  258.97    9.50
   6   7  -3  262.67    8.10
   6   7  -3  240.48    9.10
   6   7  -3  260.47    7.80
   5  -7  -3   10.30    3.10
   5  -7  -3    8.30    3.00
  -5  -7   3    6.00    1.10
  -5  -7   3    9.50    2.80
  -5  -7   3    6.40    1.40
   5   7  -3    6.50    2.40
  -5   7   3    5.10    2.80
   5   7  -3    3.50    2.90
   5   7  -3    7.20    2.20
  -4  -7   3   27.30    3.30
   4  -7  -3   31.40    3.60
  -4  -7   3   27.30    2.40
  -4  -7   3   29.50    3.30
   4  -7  -3   28.60    3.50
  -4   7   3   27.00    3.10
   4   7  -3   29.00    3.70
   4   7  -3   26.80    3.00
   3  -7  -3   41.20    4.40
  -3  -7   3   35.70    1.90
   3  -7  -3   40.40    4.50
  -3  -7   3   36.50    3.40
  -3  -7   3   32.30    3.40
  -3   7   3   42.70    4.30
  -3   7   3   34.20    3.60
   3   7  -3   37.30    3.70
   3   7  -3   37.50    3.60
  -2  -7   3  273.57    6.80
   2  -7  -3  269.47    8.50
  -2  -7   3  261.07    7.90
   2  -7  -3  279.77    8.50
   2   7  -3  267.67    8.00
   2   7  -3  271.47    8.50
  -2   7   3  277.17    7.20
  -2   7   3  277.07    8.50
  -1  -7   3  103.99    5.00
   1  -7  -3  105.79    5.20
   1  -7  -3  109.69    4.70
  -1  -7   3  101.49    4.90
   1  -7  -3  111.19    5.30
  -1  -7   3  107.19    4.30
  -1   7   3  101.49    3.60
   1   7  -3  100.19    5.40
   1   7  -3   98.89    4.80
  -1   7   3   97.59    5.50
   0  -7   3  114.89    5.30
   0  -7   3  109.99    4.50
   0  -7  -3  106.49    5.20
   0  -7   3  112.59    5.30
   0  -7  -3  109.29    4.30
   0  -7  -3  113.69    5.40
   0   7   3  110.39    5.80
   0   7  -3  101.39    5.00
   0   7   3  106.19    3.10
  -1  -7  -3   -4.60    2.10
   1  -7   3   -0.70    2.50
  -1  -7  -3    0.30    1.50
  -1  -7  -3   -5.30    2.40
   1  -7   3    0.10    2.20
   1   7   3   -1.10    2.30
  -1   7  -3    0.10    2.00
  -2  -7  -3  137.89    6.30
  -2  -7  -3  142.89    4.10
  -2  -7  -3  144.09    5.80
   2  -7   3  143.59    6.30
   2  -7   3  148.19    6.40
   2   7   3  137.39    6.60
  -2   7  -3  149.49    5.80
   3  -7   3  628.54   15.90
  -3  -7  -3  643.44   15.30
  -3  -7  -3  652.03   15.20
   3  -7   3  642.64   16.10
   3  -7   3  635.64   16.40
   3   7   3  642.74   16.20
  -3   7  -3  644.34   15.50
   4  -7   3   22.70    3.70
  -4  -7  -3   18.40    3.20
  -4  -7  -3   13.90    2.80
   4  -7   3   19.50    3.60
   4  -7   3   23.30    3.80
  -4   7  -3   18.10    2.90
   4   7   3   10.90    3.50
  -5  -7  -3   23.50    3.00
   5  -7   3   15.80    4.10
   5  -7   3   20.40    4.00
  -5   7  -3   20.20    3.20
   5   7   3   22.80    4.80
   6  -7   3   28.70    5.20
  -6  -7  -3   38.20    3.30
   6  -7   3   34.50    5.00
  -6  -7  -3   39.40    3.80
  -6   7  -3   41.40    4.70
   7  -7   3   -2.20    4.40
   7  -7   3   11.00    5.20
  -7   7  -3    3.00    5.00
   7  -8  -3   80.99    7.50
  -7  -8   3   61.59    6.90
  -7   8   3   65.69    6.20
  -6  -8   3  141.99    7.90
  -6   8   3  138.09    7.80
   6   8  -3  135.39    6.10
   6   8  -3  135.29    8.30
  -5  -8   3    9.50    3.90
  -5  -8   3    6.80    1.70
  -5  -8   3    9.50    2.00
   5  -8  -3    5.40    3.50
   5   8  -3    6.60    3.00
  -5   8   3   12.20    3.30
   5   8  -3    7.60    2.70
   5   8  -3    8.40    4.00
  -4  -8   3   -2.10    3.00
  -4  -8   3   -2.70    2.50
   4  -8  -3   -2.50    3.20
   4  -8  -3    1.60    3.10
  -4  -8   3   -1.30    2.40
   4   8  -3    5.60    3.20
  -4   8   3    2.50    2.90
   4   8  -3    0.10    2.70
  -3  -8   3    1.80    2.70
  -3  -8   3    3.40    2.50
   3  -8  -3   -4.30    2.80
  -3  -8   3    0.20    1.20
   3  -8  -3   -3.00    2.60
   3   8  -3    5.60    2.50
  -3   8   3    1.70    2.30
  -3   8   3    1.20    3.10
   3   8  -3   -1.10    3.00
  -2  -8   3   61.39    3.40
  -2  -8   3   63.49    4.70
   2  -8  -3   47.50    5.20
  -2  -8   3   61.09    4.40
   2  -8  -3   56.59    4.80
  -2   8   3   61.59    3.90
   2   8  -3   62.19    5.50
  -2   8   3   54.19    6.00
   2   8  -3   51.39    4.40
   1  -8  -3   68.79    4.50
   1  -8  -3   56.09    4.80
  -1  -8   3   66.09    4.60
  -1  -8   3   66.59    5.00
   1  -8  -3   57.09    5.30
  -1  -8   3   60.99    4.20
   1   8  -3   63.49    5.50
  -1   8   3   69.19    3.30
   1   8  -3   61.19    4.60
  -1   8   3   61.29    5.50
   0  -8  -3   50.59    3.70
   0  -8  -3   39.30    4.60
   0  -8  -3   48.40    5.20
   0  -8   3   42.40    4.00
   0  -8   3   58.79    4.80
   0  -8   3   44.60    6.40
   0   8  -3   43.40    4.40
   0   8   3   50.89    2.20
   0   8   3   47.90    4.50
  -1  -8  -3   25.20    3.40
  -1  -8  -3   21.70    3.50
  -1  -8  -3   25.20    2.90
   1  -8   3   21.30    3.30
   1  -8   3   21.90    3.50
  -1   8  -3   20.00    3.00
   1   8   3   21.50    3.80
  -2  -8  -3   87.69    6.20
  -2  -8  -3   85.39    3.30
   2  -8   3   81.69    5.70
  -2  -8  -3   76.09    5.60
   2  -8   3   90.89    5.80
  -2   8  -3   76.19    5.50
   2   8   3   88.99    6.40
  -3  -8  -3   -3.50    3.00
   3  -8   3    2.30    3.60
   3  -8   3    5.80    3.10
  -3  -8  -3   -0.90    2.50
   3  -8   3   -7.70    3.00
   3   8   3    6.60    3.50
  -3   8  -3   -1.90    2.80
   4  -8   3  102.29    8.20
  -4  -8  -3  100.19    5.60
   4  -8   3   83.59    7.30
  -4  -8  -3  109.29    6.50
  -4   8  -3   90.59    5.70
  -5  -8  -3    4.30    3.40
   5  -8   3    1.80    3.90
  -5  -8  -3   -1.30    2.90
  -5   8  -3    0.50    3.10
  -6  -8  -3   13.70    2.60
   6  -8   3   22.00    5.10
  -6   8  -3   13.90    5.10
  -6   8  -3   15.70    3.40
  -6  -9   3   28.50    4.40
   6  -9  -3   35.50    5.70
   6   9  -3   24.80    3.80
  -6   9   3   35.50    5.70
  -5  -9   3  127.29    8.70
  -5  -9   3  150.48    5.20
   5  -9  -3  141.39    9.10
  -5  -9   3  145.59    5.60
   5   9  -3  157.48    8.20
  -5   9   3  147.59    7.70
   5   9  -3  141.19    5.70
  -4  -9   3   -1.10    3.60
   4  -9  -3    3.40    4.20
  -4  -9   3    6.20    2.70
  -4   9   3    1.60    3.20
   4   9  -3   -1.60    2.70
  -3  -9   3  300.97    9.30
  -3  -9   3  301.87    9.60
   3  -9  -3  272.07   12.00
  -3  -9   3  288.97    6.70
  -3  -9   3  302.57   10.80
   3   9  -3  293.97    9.80
  -3   9   3  311.77    9.00
  -2  -9   3  167.48    5.50
  -2  -9   3  161.28    7.20
   2  -9  -3  156.08    6.60
  -2  -9   3  166.58    6.90
   2   9  -3  163.18    7.20
  -2   9   3  159.18    7.90
  -2   9   3  161.08    6.00
   1  -9  -3  246.58    8.80
  -1  -9   3  226.78    8.50
   1  -9  -3  226.38    8.70
  -1  -9   3  224.78    8.60
   1  -9  -3  233.98    8.00
  -1  -9   3  232.68    8.30
  -1   9   3  231.78    9.60
   1   9  -3  234.88    8.50
  -1   9   3  235.78    6.70
   0  -9  -3    8.90    3.50
   0  -9   3   11.70    3.10
   0  -9   3    6.40    3.30
   0  -9  -3   10.50    2.50
   0  -9  -3   13.50    3.50
   0  -9   3    8.60    3.20
   0   9   3   10.00    1.40
   0   9  -3    2.50    2.70
   1  -9   3  230.38   10.30
  -1  -9  -3  270.87    7.40
   1  -9   3  245.88    9.60
  -1  -9  -3  278.67    9.30
  -1  -9  -3  266.37    9.40
  -2  -9  -3    1.30    3.40
   2  -9   3    2.00    3.50
  -2  -9  -3   -0.40    1.50
  -2  -9  -3   -5.90    3.60
  -2   9  -3    0.70    3.60
  -3  -9  -3  524.35   14.40
  -3  -9  -3  518.15   13.80
   3  -9   3  517.35   15.10
  -3   9  -3  517.35   14.20
  -4  -9  -3    6.50    3.90
   4  -9   3    3.00    4.40
  -4  -9  -3    6.40    3.50
  -4   9  -3    5.80    3.50
  -5  -9  -3  143.29    7.10
   5  -9   3  157.38    9.80
  -5   9  -3  159.18    7.70
   5 -10  -3    9.90    5.40
  -5 -10   3    5.90    3.10
  -5  10   3    4.20    4.80
  -4 -10   3   47.10    5.20
  -4 -10   3   42.80    4.10
   4 -10  -3   40.40    5.80
   4  10  -3   52.19    6.40
  -4  10   3   38.90    4.60
  -3 -10   3    6.20    3.70
  -3 -10   3   10.50    3.80
   3 -10  -3   11.20    4.40
   3 -10  -3    4.40    4.10
  -3  10   3    7.70    3.60
   3  10  -3    3.00    4.30
  -2 -10   3  431.66   10.50
   2 -10  -3  431.26   13.70
  -2 -10   3  439.46   14.10
  -2 -10   3  420.76   12.90
   2 -10  -3  444.36   12.60
   2  10  -3  420.46   12.90
  -2  10   3  432.46   11.20
  -1 -10   3   10.50    3.20
   1 -10  -3   12.30    4.40
   1 -10  -3    9.50    3.40
  -1 -10   3    4.40    4.30
  -1 -10   3   16.40    4.10
  -1  10   3    8.60    2.50
   1  10  -3    6.00    3.70
   0 -10  -3   36.40    3.80
   0 -10   3   38.70    4.30
   0 -10   3   34.40    4.90
   0 -10  -3   46.90    5.20
   0  10  -3   31.70    4.60
  -1 -10  -3   21.70    2.90
  -1 -10  -3   28.00    4.70
   1 -10   3   23.20    4.30
   1 -10   3   17.00    4.50
  -1  10  -3   19.60    4.10
   2 -10   3  465.75   14.60
  -2 -10  -3  456.55   13.60
  -2 -10  -3  419.36   10.20
  -2  10  -3  457.45   13.50
  -3 -10  -3    2.30    4.20
  -3 -10  -3   -0.80    4.80
   3 -10   3    1.80    4.90
  -3  10  -3   10.20    4.10
  -4 -10  -3   60.79    6.80
   4 -10   3   56.29    6.50
  -4  10  -3   54.09    6.00
  -2 -11   3    2.10    4.50
   2 -11  -3    5.50    5.30
   2 -11  -3   -1.20    4.60
   2  11  -3    9.80    4.60
  -2  11   3   -0.90    3.50
   1 -11  -3  534.95   14.40
   1 -11  -3  523.15   16.30
  -1 -11   3  532.25   15.70
  -1  11   3  522.75   12.20
   1  11  -3  523.15   15.60
   0 -11   3   31.80    5.80
   0 -11  -3   41.60    6.80
   0 -11   3   32.10    5.00
   0 -11  -3   27.30    4.10
   0  11  -3   25.80    5.10
  -1 -11  -3   42.10    4.50
  -1 -11  -3   71.89    7.40
   1 -11   3   34.80    5.20
   1 -11   3   52.49    6.40
  -1  11  -3   45.70    6.10
  10   0  -4  804.82   19.60
   9   0  -4   40.20    2.70
   9   0  -4   39.90    4.10
  -8   0   4  434.46   12.00
   8   0  -4  461.15   11.70
   8   0  -4  454.85    9.40
   7   0  -4 2850.61   55.89
  -7   0   4 2684.23   55.69
   7   0  -4 2710.63   53.49
   7   0  -4 2761.12   55.39
   6   0  -4 1473.15   29.60
   6   0  -4 1377.26   31.10
   6   0  -4 1433.66   28.40
   5   0  -4   85.19    3.90
   5   0  -4   80.49    2.60
   5   0  -4   80.89    3.20
   4   0  -4  200.28    5.30
   4   0  -4  189.88    5.50
   3   0  -4  796.52   16.50
   3   0  -4  786.12   16.40
   3   0  -4  771.32   15.50
   1   0  -4  649.74   13.40
  -1   0   4  640.24   13.50
   1   0  -4  649.54   13.50
  -1   0   4  654.13   13.30
   0   0  -4  222.38    5.40
   0   0   4  227.78    5.40
   0   0  -4  221.48    5.30
   0   0   4  224.08    5.40
   1   0   4  830.22   17.20
   1   0   4  843.92   17.20
  -1   0  -4  820.82   17.20
  -1   0  -4  824.72   17.20
  -1   0  -4  827.82   17.10
  -2   0  -4 9532.45  194.48
   2   0   4 9674.53  194.58
   3   0   4 2724.33   53.49
  -3   0  -4 2646.74   53.19
  -3   0  -4 2663.23   53.09
   3   0   4 2739.63   53.49
  -4   0  -4    0.60    1.10
   4   0   4    0.40    1.40
   4   0   4   -2.70    1.40
  -4   0  -4   -0.80    0.90
   5   0   4  464.05   11.30
  -5   0  -4  462.25   10.40
   6   0   4 1845.62   38.20
  -6   0  -4 1823.62   36.60
   6   0   4 1871.41   38.00
  -6   0  -4 1832.82   38.20
  -7   0  -4  507.95   13.00
   7   0   4  511.95   13.20
   7   0   4  481.75   13.00
  -8   0  -4  432.66   12.50
   8   0   4  405.06   12.40
   8   0   4  426.16   12.80
   9   0   4  118.89    9.60
  -9   0  -4  112.09    8.50
 -10   1   4   18.10    5.10
  10   1  -4    9.60    2.30
  10   1  -4   12.80    3.90
   9  -1  -4  119.29    4.30
   9   1  -4  108.29    3.60
   9   1  -4  116.69    6.00
   8  -1  -4   39.30    2.50
  -8   1   4   36.90    3.90
   8   1  -4   43.10    5.00
   8   1  -4   39.40    3.90
   7  -1  -4  222.88    5.20
   7  -1  -4  215.78    7.70
  -7   1   4  221.48    7.50
   7   1  -4  227.48    6.60
   7   1  -4  232.08    7.50
   6  -1  -4   -2.20    2.10
  -6   1   4   -1.10    2.30
   6   1  -4    1.40    1.40
   6   1  -4    2.20    2.20
   5  -1  -4  669.83   15.00
   5  -1  -4  637.14   13.20
   5   1  -4  673.93   14.70
  -5   1   4  645.14   14.80
   5   1  -4  651.43   14.10
   5   1  -4  672.83   13.70
   4  -1  -4   26.50    2.10
   4  -1  -4   21.50    1.20
   4  -1  -4   26.20    2.50
   4   1  -4   22.60    2.60
   4   1  -4   22.70    1.60
  -4   1   4   26.30    2.30
   4   1  -4   22.60    1.50
  -3  -1   4  240.98    5.70
   3  -1  -4  232.38    5.30
   3  -1  -4  236.18    6.10
   3  -1  -4  238.78    6.10
   3   1  -4  244.28    5.70
   3   1  -4  239.18    5.00
   3   1  -4  229.98    5.70
   2  -1  -4   57.99    2.40
   2  -1  -4   63.89    2.40
  -2  -1   4   61.49    2.30
  -2  -1   4   62.19    1.70
  -2  -1   4   60.09    1.70
  -2   1   4   62.59    2.60
   2   1  -4   60.39    2.30
   2   1  -4   61.99    2.10
   2   1  -4   60.79    1.90
  -2   1   4   55.49    2.00
  -1  -1   4  595.94   12.40
  -1  -1   4  589.44   12.20
   1  -1  -4  569.44   12.50
  -1  -1   4  607.54   12.60
   1  -1  -4  573.84   12.30
   1   1  -4  602.04   12.60
  -1   1   4  585.14   12.30
   1   1  -4  595.54   12.40
   1   1  -4  606.14   12.30
  -1   1   4  595.54   12.50
   0  -1   4   24.00    1.60
   0  -1   4   26.30    1.80
   0  -1  -4   26.00    1.50
   0  -1   4   26.10    1.60
   0  -1  -4   24.00    1.50
   0   1   4   27.20    1.70
   0   1  -4   27.90    1.60
   0   1  -4   26.50    1.50
   0   1  -4   19.40    1.60
   0   1   4   25.70    1.50
   1  -1   4  364.16    8.30
   1  -1   4  359.56    8.30
  -1  -1  -4  359.56    8.10
   1  -1   4  367.06    8.30
  -1  -1  -4  362.46    8.20
  -1   1  -4  358.86    8.30
  -1   1  -4  363.46    8.20
   1   1   4  357.56    8.10
   1   1   4  372.46    8.40
  -1   1  -4  362.16    8.30
  -2  -1  -4   91.79    3.30
   2  -1   4   95.79    3.40
   2  -1   4   99.19    3.60
   2  -1   4   95.29    3.20
  -2  -1  -4   97.69    3.30
  -2   1  -4   96.99    3.30
  -2   1  -4   93.29    3.30
   2   1   4   97.19    3.20
   2   1   4   94.89    3.50
  -3  -1  -4  873.11   18.20
   3  -1   4  884.51   18.50
   3  -1   4  882.01   18.70
   3   1   4  901.41   18.40
  -3   1  -4  839.02   18.20
  -3   1  -4  842.02   18.20
   3   1   4  881.31   18.50
   4  -1   4  191.28    7.00
  -4  -1  -4  215.58    5.60
  -4  -1  -4  211.08    5.30
   4   1   4  216.68    6.30
  -4   1  -4  208.48    5.70
   4   1   4  214.28    6.10
  -5  -1  -4  155.88    4.60
   5  -1   4  154.48    5.50
   5  -1   4  157.58    5.90
  -5  -1  -4  160.78    5.20
  -5  -1  -4  162.98    4.30
  -5   1  -4  156.08    4.70
   5   1   4  153.78    6.60
   5   1   4  169.28    5.40
  -6  -1  -4    9.20    1.30
   6  -1   4   10.10    2.80
  -6  -1  -4   11.30    2.60
   6  -1   4   13.30    2.90
   6   1   4    7.50    2.70
   6   1   4    9.90    5.30
  -6   1  -4   10.40    1.50
   7  -1   4   22.40    3.70
  -7  -1  -4   30.20    3.60
   7  -1   4   25.50    4.30
   7   1   4   26.90    3.70
   7   1   4   24.10    3.90
  -7   1  -4   24.30    3.60
   8  -1   4   19.30    4.40
   8  -1   4   24.30    4.30
  -8  -1  -4   27.10    4.10
   8   1   4   24.30    4.40
   8   1   4   20.60    4.60
  -9  -1  -4   60.99    7.30
  -9   1  -4   68.29    7.50
   9   1   4   39.00    5.60
  10  -2  -4   14.50    2.70
  10  -2  -4   10.40    3.00
 -10   2   4    8.80    5.80
  10   2  -4   13.40    2.70
  10   2  -4   11.90    3.50
   9  -2  -4    9.40    2.00
   9   2  -4    6.90    2.00
  -9   2   4    7.20    4.00
   9   2  -4    3.30    2.70
   8  -2  -4  279.97    7.10
   8  -2  -4  272.97    6.90
   8   2  -4  270.57    9.40
   8   2  -4  267.07    6.20
  -8   2   4  284.37    9.30
   8   2  -4  275.67    7.70
   7  -2  -4  488.85   10.80
   7  -2  -4  493.55   10.80
   7   2  -4  508.45   12.50
   7   2  -4  497.65   11.30
  -7   2   4  491.55   12.70
   7   2  -4  490.95   10.10
   6  -2  -4  982.80   20.20
   6  -2  -4  999.40   21.80
   6  -2  -4  978.40   20.10
  -6   2   4 1002.00   21.90
   6   2  -4  989.30   20.60
   6   2  -4 1007.80   21.60
   5  -2  -4   82.69    2.70
   5  -2  -4   83.89    4.10
   5   2  -4   88.19    2.90
   5   2  -4   86.69    2.10
  -5   2   4   93.89    3.90
   5   2  -4   87.09    2.20
   5   2  -4   84.29    4.00
   4  -2  -4  628.24   13.90
   4  -2  -4  634.04   13.10
   4   2  -4  622.04   13.80
   4   2  -4  622.14   13.10
   4   2  -4  625.64   12.60
   4   2  -4  616.64   12.60
   4   2  -4  627.44   13.30
  -4   2   4  623.94   13.90
  -3  -2   4   -0.50    0.90
   3  -2  -4    1.30    0.90
   3  -2  -4   -0.30    1.10
   3  -2  -4    1.20    1.40
  -3  -2   4   -0.40    0.90
   3   2  -4    2.10    0.90
  -3   2   4   -0.70    1.00
   3   2  -4    1.00    0.70
  -3   2   4    1.60    0.80
   3   2  -4    1.80    0.80
   3   2  -4    1.60    0.70
  -2  -2   4  161.88    3.80
   2  -2  -4  166.88    4.60
   2  -2  -4  158.58    4.30
  -2  -2   4  164.88    4.20
  -2  -2   4  165.58    4.60
   2  -2  -4  167.38    4.40
   2   2  -4  162.28    4.10
   2   2  -4  160.48    4.10
  -2   2   4  166.58    4.20
   2   2  -4  163.48    4.50
  -1  -2   4   85.89    2.60
   1  -2  -4   77.19    2.70
  -1  -2   4   81.19    2.60
   1  -2  -4   80.89    2.80
  -1  -2   4   82.69    3.00
   1  -2  -4   82.29    2.50
  -1  -2   4   80.19    2.60
   1   2  -4   85.59    2.60
  -1   2   4   81.19    2.80
   1   2  -4   79.79    2.80
  -1   2   4   78.19    2.90
   1   2  -4   79.49    2.60
   0  -2  -4 1343.77   27.50
   0  -2   4 1382.86   27.50
   0  -2  -4 1369.16   27.40
   0  -2   4 1360.76   27.70
   0  -2   4 1366.86   27.50
   0   2   4 1394.76   27.60
   0   2  -4 1347.67   27.70
   0   2  -4 1369.46   27.50
   0   2   4 1354.36   27.50
   0   2  -4 1360.66   27.50
   1  -2   4    3.40    1.20
   1  -2   4    6.10    1.30
  -1  -2  -4    3.60    0.90
   1  -2   4    2.90    1.20
  -1  -2  -4    4.00    1.10
   1   2   4    3.50    1.10
  -1   2  -4    2.70    1.10
   1   2   4    3.80    1.40
  -1   2  -4    3.80    1.10
   2  -2   4   33.10    2.40
   2  -2   4   30.30    2.30
  -2  -2  -4   33.90    1.90
   2  -2   4   35.70    2.30
  -2  -2  -4   33.50    2.10
  -2   2  -4   38.50    2.30
   2   2   4   36.30    2.20
   2   2   4   31.10    2.50
  -2   2  -4   34.40    2.30
   3  -2   4   32.50    2.90
   3  -2   4   38.10    2.80
   3  -2   4   36.10    2.50
  -3  -2  -4   36.50    2.20
  -3   2  -4   32.60    2.30
   3   2   4   34.80    2.80
   3   2   4   38.40    2.40
   4  -2   4   42.60    2.70
  -4  -2  -4   38.40    2.50
   4  -2   4   38.20    3.20
   4  -2   4   49.90    4.00
   4   2   4   36.10    3.80
  -4   2  -4   39.60    2.50
   4   2   4   35.80    2.60
   5  -2   4   88.59    4.90
  -5  -2  -4   87.89    3.30
  -5  -2  -4   85.39    3.80
  -5  -2  -4   84.29    3.10
   5  -2   4   95.29    4.50
   5   2   4   87.19    4.00
  -5   2  -4   89.29    3.80
   5   2   4   90.69    4.90
  -6  -2  -4   25.00    1.80
  -6  -2  -4   21.60    1.70
   6  -2   4   30.90    3.60
  -6  -2  -4   22.80    2.10
   6  -2   4   27.10    3.10
  -6  -2  -4   20.60    2.90
  -6   2  -4   26.00    2.50
   6   2   4   23.90    3.40
  -7  -2  -4    5.80    2.90
   7  -2   4   12.70    3.70
   7  -2   4   10.40    3.60
  -7   2  -4   10.30    3.20
   7   2   4    9.00    3.20
  -7   2  -4   11.70    1.40
   7   2   4    8.50    3.00
  -8  -2  -4  167.88    7.80
   8  -2   4  155.08    7.50
   8   2   4  164.08    8.00
   8   2   4  161.68    8.60
  -8   2  -4  183.88    8.70
  -9  -2  -4   63.29    6.70
   9   2   4   36.40    4.80
  -9   2  -4   52.69    6.30
  10  -3  -4   28.40    3.80
  10  -3  -4   27.00    3.90
  10   3  -4   29.90    3.30
 -10   3   4   35.00    5.70
  10   3  -4   24.30    3.60
   9  -3  -4   -4.40    2.80
   9  -3  -4   -3.10    2.40
   9   3  -4   -1.00    2.30
   9   3  -4    0.90    2.40
  -9   3   4    9.90    4.20
   8  -3  -4  101.19    5.20
   8  -3  -4   88.99    4.30
  -8   3   4   81.99    5.80
   8   3  -4   93.79    5.80
   8   3  -4   95.49    3.90
   8   3  -4   88.69    3.80
   7  -3  -4   78.89    3.60
   7  -3  -4   87.09    3.90
   7   3  -4   84.29    5.30
   7   3  -4   78.89    3.20
  -7   3   4   81.19    5.10
   7   3  -4   83.29    3.20
   6  -3  -4    3.00    1.50
   6  -3  -4    3.00    1.40
   6   3  -4    4.50    2.40
   6   3  -4    2.50    1.10
   6   3  -4    2.30    1.20
  -6   3   4    7.40    2.50
   6   3  -4    0.50    1.00
  -5  -3   4   22.30    2.10
   5  -3  -4   21.50    2.10
   5  -3  -4   20.40    4.60
   5  -3  -4   22.10    2.10
  -5   3   4   22.20    2.30
   5   3  -4   20.50    1.80
   5   3  -4   25.00    2.40
   5   3  -4   21.10    1.50
  -4  -3   4    1.40    1.10
   4  -3  -4    5.10    1.70
   4  -3  -4    3.80    1.10
   4   3  -4    2.90    1.00
  -4   3   4    3.20    1.40
   4   3  -4    2.60    0.80
   4   3  -4    1.50    0.70
   3  -3  -4  942.41   19.10
  -3  -3   4  883.51   18.00
  -3  -3   4  904.01   18.10
  -3  -3   4  918.81   19.20
   3  -3  -4  932.91   19.60
  -3  -3   4  897.21   18.50
   3  -3  -4  918.91   19.20
  -3   3   4  921.31   18.70
   3   3  -4  931.11   18.80
  -3   3   4  904.51   19.10
   3   3  -4  910.51   18.70
   3   3  -4  895.51   18.40
  -2  -3   4   20.60    1.50
   2  -3  -4   22.60    2.10
  -2  -3   4   21.00    1.70
   2  -3  -4   20.40    2.10
   2  -3  -4   18.80    1.90
  -2  -3   4   22.60    2.30
  -2  -3   4   22.60    1.70
  -2   3   4   20.80    1.90
   2   3  -4   20.80    2.00
  -2   3   4   22.40    1.70
   2   3  -4   20.60    1.60
   2   3  -4   19.90    1.40
   1  -3  -4  732.73   15.60
   1  -3  -4  734.93   15.50
  -1  -3   4  741.53   15.70
  -1  -3   4  720.43   15.20
   1  -3  -4  727.03   14.90
  -1  -3   4  746.43   15.40
  -1  -3   4  699.33   15.10
  -1   3   4  732.03   15.50
   1   3  -4  714.03   15.40
   1   3  -4  731.13   15.20
   0  -3   4   16.60    1.60
   0  -3   4   13.60    1.80
   0  -3  -4   14.10    1.70
   0  -3   4   17.50    1.90
   0  -3   4   13.40    1.50
   0  -3  -4   14.90    1.20
   0  -3  -4   14.10    1.60
   0   3  -4   14.00    1.50
   0   3   4   15.30    1.50
   0   3   4   14.40    1.80
  -1  -3  -4  921.11   19.30
   1  -3   4  933.71   19.90
  -1  -3  -4  962.60   19.90
   1  -3   4  968.60   20.00
   1  -3   4  962.70   19.80
   1   3   4  941.81   19.90
   1   3   4  935.31   19.40
  -1   3  -4  926.61   19.80
   2  -3   4    1.60    1.10
  -2  -3  -4    1.50    0.90
   2  -3   4    1.40    1.40
  -2  -3  -4    1.10    1.20
   2  -3   4    1.60    1.50
   2   3   4    1.30    1.10
  -2   3  -4    1.30    1.30
   2   3   4    0.20    1.50
  -3  -3  -4   13.40    1.20
   3  -3   4   13.30    2.20
  -3  -3  -4   15.50    1.80
  -3  -3  -4   11.90    1.80
   3  -3   4   11.70    1.90
   3  -3   4   13.20    2.10
   3   3   4   16.90    1.70
  -3   3  -4   12.80    1.80
   4  -3   4  490.05   11.60
   4  -3   4  488.55   11.90
  -4  -3  -4  496.85   10.70
  -4  -3  -4  501.75   11.20
   4  -3   4  496.45   12.30
   4   3   4  464.95   12.90
   4   3   4  503.45   11.00
  -4   3  -4  490.65   11.40
  -5  -3  -4    2.70    1.50
   5  -3   4    2.40    2.60
  -5  -3  -4    5.20    1.60
   5  -3   4    1.60    2.00
  -5  -3  -4    5.40    1.70
   5  -3   4    2.20    2.20
  -5   3  -4    4.20    1.70
   5   3   4    3.60    1.90
   5   3   4    1.90    2.80
   6  -3   4   65.99    4.90
  -6  -3  -4   69.19    3.10
  -6  -3  -4   63.19    2.60
  -6  -3  -4   71.39    2.80
  -6  -3  -4   65.09    3.80
   6  -3   4   67.79    4.50
   6  -3   4   66.89    5.70
   6   3   4   60.19    4.10
  -6   3  -4   74.79    3.70
   6   3   4   66.79    5.50
   7  -3   4   58.49    6.30
  -7  -3  -4   62.59    4.80
   7  -3   4   59.29    5.60
   7   3   4   61.29    6.50
  -7   3  -4   59.49    3.20
  -8  -3  -4   19.80    3.70
  -8   3  -4   15.20    4.80
   8   3   4   18.90    5.10
   8   3   4   13.90    3.90
  10  -4  -4  142.89    8.00
  10  -4  -4  152.28    7.70
 -10   4   4  149.99    9.80
   9  -4  -4   18.60    3.60
   9  -4  -4   22.40    3.20
  -9   4   4   23.20    4.80
   9   4  -4   17.20    4.80
   9   4  -4   21.10    2.30
   8  -4  -4  287.87    8.30
   8  -4  -4  297.07    8.60
   8   4  -4  282.67    9.60
   8   4  -4  297.17    7.80
   7  -4  -4  156.88    5.70
   7  -4  -4  160.08    5.60
   7   4  -4  154.08    4.50
   7   4  -4  158.58    6.50
  -7   4   4  167.38    6.70
   7   4  -4  151.38    5.00
  -6  -4   4 2068.29   41.90
   6  -4  -4 2060.69   42.40
   6  -4  -4 2173.88   42.50
   6   4  -4 2074.89   41.70
   6   4  -4 2104.19   42.70
   6   4  -4 2096.39   41.90
  -6   4   4 2109.99   43.50
  -5  -4   4  325.57    8.10
   5  -4  -4  318.77    8.10
  -5   4   4  316.97    8.80
   5   4  -4  300.07    6.90
   5   4  -4  327.37    7.50
   5   4  -4  322.97    7.80
   5   4  -4  327.97    8.20
   4  -4  -4  439.76   10.40
  -4  -4   4  434.66   10.30
   4  -4  -4  435.96   10.20
   4   4  -4  449.86   10.00
  -4   4   4  430.86   10.60
   4   4  -4  438.76    9.80
  -3  -4   4  491.45   10.40
  -3  -4   4  483.95   11.30
   3  -4  -4  487.15   11.30
  -3  -4   4  485.75   10.30
  -3  -4   4  486.85   10.30
   3  -4  -4  500.55   11.10
   3   4  -4  488.35   11.00
  -3   4   4  483.35   11.10
  -3   4   4  478.75   11.00
   3   4  -4  494.95   10.90
   2  -4  -4 4688.53   91.89
  -2  -4   4 4631.64   91.89
   2  -4  -4 4723.93   91.29
   2  -4  -4 4701.13   91.89
  -2  -4   4 4650.83   91.29
   2   4  -4 4710.43   91.59
  -2   4   4 4634.14   91.59
  -1  -4   4  705.73   15.00
  -1  -4   4  698.73   14.80
   1  -4  -4  686.53   15.40
  -1  -4   4  681.73   15.10
   1  -4  -4  705.83   14.40
  -1  -4   4  715.23   15.50
   1  -4  -4  702.03   15.10
  -1   4   4  706.93   15.40
   1   4  -4  690.03   15.10
   0  -4   4  157.18    5.30
   0  -4   4  165.78    4.90
   0  -4   4  157.58    4.70
   0  -4  -4  163.38    5.00
   0  -4   4  155.88    4.90
   0  -4  -4  157.28    4.50
   0   4   4  168.58    5.20
   0   4  -4  157.08    4.80
   1  -4   4  487.75   11.60
  -1  -4  -4  473.75   11.30
  -1  -4  -4  496.35   10.70
   1  -4   4  492.35   11.40
   1  -4   4  492.25   11.30
   1  -4   4  485.65   11.50
  -1   4  -4  475.85   11.30
   1   4   4  515.05   11.70
   1   4   4  485.65   10.80
  -2  -4  -4 1287.67   26.20
   2  -4   4 1321.77   27.30
   2  -4   4 1319.17   27.20
  -2  -4  -4 1300.57   27.00
  -2   4  -4 1288.87   27.10
   2   4   4 1291.17   26.30
   2   4   4 1294.67   27.30
   3  -4   4 1376.26   28.60
  -3  -4  -4 1345.37   28.10
   3  -4   4 1363.86   28.60
  -3  -4  -4 1369.06   28.00
  -3  -4  -4 1332.67   27.30
  -3   4  -4 1347.77   28.30
   3   4   4 1412.86   28.90
   3   4   4 1307.27   27.40
   4  -4   4 2173.28   44.10
  -4  -4  -4 2159.58   43.30
  -4  -4  -4 2144.49   43.20
   4   4   4 2106.39   42.70
   4   4   4 2239.48   44.20
  -4   4  -4 2085.99   43.60
   5  -4   4   50.09    4.60
   5  -4   4   45.70    4.10
  -5  -4  -4   45.80    2.30
  -5  -4  -4   44.60    3.00
  -5  -4  -4   44.60    3.40
  -5   4  -4   45.20    3.40
   5   4   4   47.50    4.60
   5   4   4   44.70    3.10
   6  -4   4  405.86   11.70
  -6  -4  -4  433.56    9.50
  -6  -4  -4  415.26    9.60
  -6  -4  -4  428.36    9.90
   6  -4   4  439.66   11.40
   6   4   4  420.26   10.10
   6   4   4  409.46   12.10
  -6   4  -4  420.36   10.40
   7  -4   4  246.38    9.60
  -7  -4  -4  256.77    7.60
  -7  -4  -4  250.57    6.20
  -7   4  -4  265.67    7.20
   7   4   4  262.57    9.50
   7   4   4  265.07    7.70
  -7   4  -4  268.17    9.80
  -8   4  -4  125.19    9.60
   9  -5  -4    2.50    3.80
   9  -5  -4   -5.70    3.10
  -9   5   4   -2.40    5.40
   9   5  -4   -0.40    3.60
   9   5  -4    6.40    4.50
   8  -5  -4    4.60    2.80
   8  -5  -4    9.50    3.40
  -8   5   4    5.20    3.70
   8   5  -4    5.80    3.10
   8   5  -4    8.70    3.80
   7  -5  -4  222.08    7.50
  -7  -5   4  217.08    6.60
   7  -5  -4  205.68    7.50
   7   5  -4  212.98    7.50
  -7   5   4  226.48    8.30
   7   5  -4  212.78    6.20
   7   5  -4  231.98    8.00
   6  -5  -4    6.40    2.10
   6  -5  -4    7.40    2.70
  -6  -5   4    7.70    2.10
  -6   5   4    6.90    2.70
   6   5  -4    6.50    2.50
   6   5  -4    5.90    1.70
  -5  -5   4  466.05   11.20
   5  -5  -4  460.55   11.40
   5  -5  -4  458.35   11.30
   5   5  -4  453.85   10.70
   5   5  -4  470.25   11.10
  -5   5   4  456.85   11.80
   4  -5  -4  138.59    5.20
  -4  -5   4  136.39    5.10
   4  -5  -4  141.69    5.00
  -4  -5   4  136.09    3.50
  -4  -5   4  131.99    3.40
   4   5  -4  130.79    4.30
  -4   5   4  135.49    5.10
   4   5  -4  124.39    5.30
  -3  -5   4  397.86    8.60
  -3  -5   4  390.66    9.90
  -3  -5   4  400.06    9.10
   3  -5  -4  386.56    9.90
  -3  -5   4  394.96    9.00
  -3   5   4  394.96    9.50
   3   5  -4  389.46    9.50
  -3   5   4  398.56    9.70
   3   5  -4  389.36   10.50
   2  -5  -4    0.90    1.50
  -2  -5   4    0.90    1.50
  -2  -5   4    1.60    1.20
   2  -5  -4    4.40    1.80
  -2  -5   4    1.70    1.40
   2  -5  -4    1.90    1.80
  -2  -5   4    1.90    1.90
   2   5  -4    2.30    1.30
  -2   5   4    4.00    1.80
  -2   5   4    2.90    1.30
  -1  -5   4  691.23   15.30
  -1  -5   4  701.63   15.20
   1  -5  -4  684.83   15.50
  -1  -5   4  664.93   14.70
   1  -5  -4  690.13   15.30
   1  -5  -4  691.33   15.20
  -1   5   4  683.33   14.30
   1   5  -4  685.93   15.30
   0  -5  -4   10.20    2.00
   0  -5  -4   15.20    2.10
   0  -5   4   15.60    2.00
   0  -5  -4   12.50    1.70
   0  -5   4   12.50    1.80
   0  -5   4   17.20    2.00
   0   5  -4   11.20    1.80
   0   5   4   12.90    2.30
  -1  -5  -4 1031.90   22.30
   1  -5   4 1046.80   22.70
  -1  -5  -4 1031.30   21.40
   1  -5   4 1020.20   22.10
   1  -5   4 1045.90   22.50
   1   5   4 1054.39   22.70
  -1   5  -4 1036.70   22.20
  -2  -5  -4  210.08    6.30
   2  -5   4  210.68    6.70
   2  -5   4  175.18   10.10
  -2  -5  -4  215.98    6.50
   2  -5   4  212.88    6.80
  -2  -5  -4  206.98    5.40
   2   5   4  212.48    6.90
  -2   5  -4  203.58    6.30
   3  -5   4  101.29    4.90
  -3  -5  -4  102.89    4.40
   3  -5   4   98.19    4.90
   3  -5   4   99.49    5.10
  -3  -5  -4   93.89    3.20
   3   5   4  103.49    5.20
  -3   5  -4   93.09    4.40
   3   5   4   94.09    3.50
  -4  -5  -4   47.20    3.70
   4  -5   4   46.70    4.40
  -4  -5  -4   43.70    3.50
   4  -5   4   53.59    4.50
   4   5   4   52.89    4.70
  -4   5  -4   45.40    3.50
   4   5   4   46.60    2.80
   5  -5   4    9.90    3.00
  -5  -5  -4    8.90    2.10
  -5  -5  -4    5.30    2.40
   5  -5   4    9.40    2.90
   5   5   4    8.10    3.20
   5   5   4    7.20    1.70
  -5   5  -4    5.40    2.30
   6  -5   4   96.39    6.10
  -6  -5  -4   92.69    3.80
  -6  -5  -4   96.29    4.10
   6  -5   4   89.79    6.20
   6   5   4   89.79    4.00
  -6   5  -4   98.29    5.20
   6   5   4   99.99    7.40
   7  -5   4   12.90    4.10
  -7   5  -4   14.10    2.60
  -7   5  -4   12.50    5.10
   7   5   4   10.00    2.30
   8  -5   4   15.90    4.60
  -8   5  -4   22.00    5.60
   9  -6  -4    9.10    3.80
  -9   6   4   16.50    5.80
   9   6  -4    9.30    4.20
   8  -6  -4  140.89    7.80
   8  -6  -4  151.08    7.40
  -8   6   4  138.89    8.20
   8   6  -4  131.19    7.80
   8   6  -4  133.69    7.40
   7  -6  -4    8.60    3.50
   7  -6  -4    2.30    3.20
   7   6  -4    5.80    3.40
   7   6  -4    6.00    3.50
   7   6  -4    4.30    2.10
   6  -6  -4    2.60    2.50
   6  -6  -4    2.30    3.30
  -6  -6   4   -2.40    2.60
  -6   6   4    0.40    3.00
   6   6  -4    0.00    2.70
   6   6  -4   -1.50    2.70
   6   6  -4   -1.90    2.00
   5  -6  -4   -1.60    2.20
   5  -6  -4    5.60    3.00
  -5   6   4    5.10    2.80
   5   6  -4    3.10    1.80
   5   6  -4    0.50    2.30
   5   6  -4    3.90    2.50
   4  -6  -4  361.16   10.00
  -4  -6   4  352.76   10.70
  -4  -6   4  364.96    8.30
   4  -6  -4  364.76    9.80
  -4  -6   4  353.56    8.20
   4   6  -4  358.06    9.50
  -4   6   4  363.36    9.70
   4   6  -4  358.46    9.20
  -3  -6   4   11.30    1.90
  -3  -6   4   13.20    2.60
   3  -6  -4   13.40    2.40
  -3  -6   4   13.60    1.40
   3  -6  -4   12.80    2.50
  -3  -6   4   15.50    1.90
  -3   6   4   13.80    2.40
   3   6  -4   11.70    2.10
  -3   6   4   13.10    1.80
   3   6  -4   10.50    2.40
  -2  -6   4   28.60    3.00
   2  -6  -4   30.20    3.50
   2  -6  -4   27.90    2.90
  -2  -6   4   29.30    2.90
   2  -6  -4   33.50    3.10
  -2  -6   4   31.80    2.40
  -2  -6   4   27.10    2.90
   2   6  -4   28.60    3.10
  -2   6   4   29.50    2.40
  -2   6   4   30.60    3.00
   2   6  -4   29.50    2.80
  -1  -6   4    1.30    1.80
   1  -6  -4    1.90    2.10
  -1  -6   4    0.90    1.70
   1  -6  -4    1.30    1.80
  -1  -6   4    2.00    1.80
  -1  -6   4    0.40    1.50
   1  -6  -4   -0.20    2.00
  -1   6   4   -0.60    0.90
   1   6  -4   -0.20    1.50
  -1   6   4   -2.50    2.20
   0  -6   4  175.08    5.90
   0  -6   4  166.08    5.80
   0  -6  -4  164.18    5.20
   0  -6   4  157.18    6.00
   0  -6   4  162.88    5.40
   0  -6  -4  164.58    5.90
   0  -6  -4  160.58    5.80
   0   6   4  160.58    6.20
   0   6  -4  172.68    5.80
   1  -6   4   30.80    3.60
   1  -6   4   26.30    3.10
   1  -6   4   18.50    2.60
  -1  -6  -4   24.50    2.70
  -1  -6  -4   28.80    3.90
  -1  -6  -4   27.10    2.30
   1  -6   4   22.20    3.00
   1   6   4   22.10    3.10
  -1   6  -4   28.60    3.10
   2  -6   4  194.68    7.00
   2  -6   4  194.48    6.90
  -2  -6  -4  194.28    6.60
  -2  -6  -4  186.78    6.40
  -2  -6  -4  193.98    5.20
   2  -6   4  192.48    7.00
   2   6   4  198.58    7.20
  -2   6  -4  192.78    6.50
  -3  -6  -4  106.69    4.80
   3  -6   4  101.09    5.60
   3  -6   4  108.19    6.10
  -3  -6  -4  117.89    5.50
   3  -6   4  117.59    5.70
  -3  -6  -4  110.79    3.40
  -3   6  -4  108.29    4.90
   3   6   4  107.79    6.00
   4  -6   4  972.10   22.50
   4  -6   4  974.70   22.70
  -4  -6  -4 1002.00   21.60
   4  -6   4  990.60   22.60
   4   6   4  977.50   22.70
  -4   6  -4 1004.80   22.00
   5  -6   4  285.17    9.70
  -5  -6  -4  292.37    8.00
   5  -6   4  277.07    9.40
   5  -6   4  276.67    9.70
   5   6   4  271.17   10.10
  -5   6  -4  280.97    8.40
  -6  -6  -4   69.69    3.80
  -6  -6  -4   63.89    4.30
   6  -6   4   71.09    7.40
  -6   6  -4   80.29    5.00
   7  -6   4   13.50    4.60
   7  -6   4   18.30    4.20
  -7   6  -4    2.60    5.10
  -7   6  -4   15.10    3.00
   8  -7  -4   14.80    4.60
   8   7  -4   18.10    4.50
  -8   7   4   11.40    5.30
   8   7  -4   13.00    4.10
  -7  -7   4  101.99    6.10
   7  -7  -4   96.29    7.00
   7   7  -4   99.89    5.50
   7   7  -4   94.69    6.30
   7   7  -4   83.89    6.90
  -7   7   4   85.49    7.80
  -6  -7   4    7.50    3.30
   6  -7  -4    5.50    3.50
   6  -7  -4   16.10    3.40
   6   7  -4    7.90    2.20
  -6   7   4   -1.50    3.10
   6   7  -4    2.60    3.10
   5  -7  -4   14.20    3.30
   5  -7  -4   14.20    3.10
  -5  -7   4    7.50    2.90
  -5   7   4    7.40    3.20
   5   7  -4    6.00    3.30
   5   7  -4    8.00    2.70
   4  -7  -4   93.39    5.30
  -4  -7   4   89.49    4.00
  -4  -7   4   91.69    5.70
  -4  -7   4   82.09    3.80
   4  -7  -4   81.49    5.60
   4   7  -4   89.99    4.80
  -4   7   4   86.59    5.00
   4   7  -4   87.99    5.40
   3  -7  -4  858.71   20.10
  -3  -7   4  869.61   20.40
  -3  -7   4  874.01   19.20
  -3  -7   4  897.01   19.20
   3  -7  -4  865.61   20.10
   3  -7  -4  896.61   20.40
  -3  -7   4  880.81   18.00
   3   7  -4  888.41   19.90
  -3   7   4  892.01   19.30
  -3   7   4  889.01   20.00
   3   7  -4  875.91   20.10
  -2  -7   4    2.30    2.30
   2  -7  -4    4.10    2.60
  -2  -7   4    6.80    1.70
   2  -7  -4    5.20    2.60
   2  -7  -4    0.30    2.30
  -2  -7   4    9.50    2.30
   2   7  -4    4.50    2.20
  -2   7   4    7.70    3.20
   2   7  -4    4.70    3.10
  -2   7   4    2.40    1.70
  -1  -7   4  401.46   10.70
   1  -7  -4  400.66   11.00
  -1  -7   4  398.26   11.20
   1  -7  -4  416.66   10.40
  -1  -7   4  414.36   10.10
   1  -7  -4  408.26   11.10
  -1  -7   4  410.06   10.70
   1   7  -4  395.36   10.70
  -1   7   4  410.26    9.20
  -1   7   4  417.16   11.30
   0  -7   4   54.19    3.80
   0  -7  -4   49.40    4.30
   0  -7   4   58.49    4.40
   0  -7   4   53.39    4.50
   0  -7  -4   56.89    3.50
   0  -7   4   53.49    4.50
   0  -7  -4   54.99    4.70
   0   7   4   56.79    4.90
   0   7  -4   58.29    4.00
   1  -7   4  124.09    5.90
  -1  -7  -4  117.19    4.30
   1  -7   4  126.99    5.80
   1  -7   4  113.29    6.40
  -1  -7  -4  117.49    5.80
   1  -7   4  120.19    5.80
  -1  -7  -4  113.09    5.50
   1   7   4  120.19    6.20
  -1   7  -4  127.49    5.50
   2  -7   4   57.09    4.80
   2  -7   4   64.99    5.20
  -2  -7  -4   68.79    4.50
   2  -7   4   56.49    4.90
  -2  -7  -4   71.49    4.90
  -2  -7  -4   64.09    3.00
  -2   7  -4   59.69    4.40
   2   7   4   66.09    5.50
  -3  -7  -4  271.57    6.50
   3  -7   4  279.87    9.30
  -3  -7  -4  293.67    9.00
  -3  -7  -4  279.37    8.70
   3  -7   4  279.67    9.40
   3  -7   4  263.97    9.10
   3   7   4  267.17    9.50
  -3   7  -4  279.47    8.60
  -4  -7  -4    5.60    3.10
   4  -7   4    3.30    3.20
   4  -7   4    7.80    3.60
  -4  -7  -4    5.50    2.90
   4  -7   4   -2.40    3.10
  -4   7  -4    0.70    2.60
   4   7   4    7.50    3.80
  -5  -7  -4  496.95   12.30
   5  -7   4  486.75   14.10
  -5   7  -4  486.55   12.80
   6  -7   4   39.50    5.40
   6  -7   4   45.40    5.00
  -6  -7  -4   36.60    4.20
  -6  -7  -4   39.90    4.00
  -6   7  -4   34.60    3.80
   7  -7   4  116.69    8.90
   7  -7   4  118.49    9.30
  -7   7  -4  129.09    6.60
  -7   7  -4  137.89    9.50
  -7  -8   4  239.08    9.10
   7  -8  -4  254.37   11.00
   7   8  -4  229.98    8.10
  -7   8   4  243.08   10.40
  -6  -8   4   87.99    7.40
   6   8  -4   85.19    5.80
   6   8  -4   64.49    6.40
  -5  -8   4   18.30    1.80
   5  -8  -4   14.50    4.30
  -5  -8   4   13.70    2.10
  -5  -8   4   12.50    3.70
  -5   8   4   16.10    3.70
   5   8  -4   16.60    3.60
   5   8  -4   19.40    3.30
   5   8  -4   12.70    3.00
  -4  -8   4  758.72   16.70
   4  -8  -4  703.33   18.30
  -4  -8   4  766.92   16.80
   4  -8  -4  747.83   18.50
  -4  -8   4  766.02   19.00
  -4   8   4  763.12   17.70
   4   8  -4  774.92   18.10
   4   8  -4  739.03   18.30
   3  -8  -4   33.40    3.90
  -3  -8   4   29.80    4.00
   3  -8  -4   27.90    3.80
   3  -8  -4   29.60    3.60
  -3  -8   4   34.20    3.60
  -3  -8   4   31.40    2.50
  -3  -8   4   34.90    3.90
  -3   8   4   33.70    4.00
  -3   8   4   29.80    3.00
   3   8  -4   30.60    3.30
   3   8  -4   36.10    4.00
   2  -8  -4   24.50    3.60
   2  -8  -4   24.80    3.50
  -2  -8   4   26.90    3.10
   2  -8  -4   29.70    3.60
  -2  -8   4   27.50    3.30
  -2  -8   4   26.80    3.20
  -2  -8   4   26.40    3.90
   2   8  -4   25.60    3.90
  -2   8   4   25.80    3.80
   2   8  -4   26.50    3.10
  -2   8   4   25.50    2.60
  -1  -8   4   40.80    4.40
   1  -8  -4   43.30    5.00
   1  -8  -4   45.90    3.70
  -1  -8   4   43.00    4.90
   1  -8  -4   43.80    4.70
  -1  -8   4   40.00    4.20
   1   8  -4   39.90    4.30
  -1   8   4   42.20    4.30
  -1   8   4   46.80    2.80
   0  -8   4 1083.79   25.10
   0  -8  -4 1106.49   24.50
   0  -8  -4 1077.29   24.50
   0  -8   4 1072.99   24.40
   0  -8  -4 1110.89   23.40
   0  -8   4 1096.59   23.70
   0  -8   4 1084.59   24.30
   0   8  -4 1051.19   24.20
   0   8   4 1076.59   24.80
   1  -8   4   20.00    3.50
  -1  -8  -4   20.40    2.40
  -1  -8  -4   21.80    3.90
   1  -8   4   17.40    3.80
  -1  -8  -4   16.00    3.30
   1  -8   4   21.00    3.50
   1  -8   4   24.50    3.50
  -1   8  -4   21.40    3.10
   1   8   4   21.50    3.70
   2  -8   4    2.60    2.90
  -2  -8  -4   -3.90    2.70
  -2  -8  -4    6.90    1.70
  -2  -8  -4   -6.80    3.10
   2  -8   4   -1.00    3.20
   2  -8   4    7.40    3.60
   2  -8   4    1.20    3.00
   2   8   4    2.70    3.40
  -2   8  -4    4.80    2.60
   3  -8   4   83.49    7.30
  -3  -8  -4   80.59    2.80
  -3  -8  -4   79.49    6.70
  -3  -8  -4   73.79    5.80
  -3   8  -4   75.79    5.40
   4  -8   4  295.97   11.80
  -4  -8  -4  302.27   10.10
   4  -8   4  316.47   11.00
  -4  -8  -4  313.17    9.50
  -5  -8  -4   94.19    6.00
   5  -8   4   95.89    7.90
  -5  -8  -4  111.19    6.10
  -5   8  -4   92.49    6.10
   6  -8   4    6.30    5.30
  -6  -8  -4    0.50    2.90
  -6   8  -4   -6.30    3.60
   6  -9  -4   68.19    7.70
  -6  -9   4   50.09    5.40
  -6   9   4   50.09    5.50
   5  -9  -4  321.47   11.70
  -5  -9   4  323.37    8.30
  -5  -9   4  302.97   10.90
  -5  -9   4  331.47    8.20
  -5   9   4  343.27   10.90
   5   9  -4  312.57   11.50
  -4  -9   4    9.00    3.90
   4  -9  -4    9.20    4.30
   4  -9  -4   11.80    4.30
  -4  -9   4    6.60    2.90
  -4   9   4    6.60    3.30
   4   9  -4    6.10    3.10
  -3  -9   4   10.30    4.10
  -3  -9   4    9.10    3.30
   3  -9  -4    5.40    3.90
   3  -9  -4   15.00    3.60
  -3  -9   4    9.30    1.90
  -3  -9   4    5.60    3.40
  -3   9   4   11.80    2.80
  -3   9   4   13.30    3.80
   3   9  -4    5.80    3.20
  -2  -9   4    5.80    3.80
  -2  -9   4    2.00    2.90
  -2  -9   4   13.10    2.50
  -2  -9   4    2.60    3.50
   2  -9  -4    7.70    3.30
  -2   9   4    5.40    3.90
   2   9  -4   11.70    3.10
  -2   9   4   11.50    2.40
  -1  -9   4   82.39    6.20
  -1  -9   4  101.39    8.30
  -1  -9   4   88.59    5.90
   1  -9  -4   91.29    5.70
  -1   9   4   91.59    6.50
   1   9  -4  100.19    6.70
  -1   9   4   90.39    3.80
   0  -9   4   18.70    3.50
   0  -9   4   13.60    4.00
   0  -9  -4   16.90    2.80
   0  -9   4   13.00    3.90
   0  -9  -4   11.90    3.70
  -1  -9  -4  224.78    6.60
  -1  -9  -4  221.68    9.40
   1  -9   4  193.98   10.10
   1  -9   4  210.58    8.10
  -1  -9  -4  186.08    8.60
  -1   9  -4  199.48    8.10
   2  -9   4    9.80    4.00
   2  -9   4   11.70    4.00
  -2  -9  -4    8.20    4.50
  -2  -9  -4   15.00    2.00
  -2  -9  -4    7.60    3.80
  -2   9  -4   15.80    3.60
  -3  -9  -4   36.30    4.80
  -3  -9  -4   40.50    4.70
   3  -9   4   35.60    5.20
  -3   9  -4   36.00    4.30
  -4  -9  -4   27.00    4.00
   4  -9   4   35.00    5.40
  -4  -9  -4   30.20    3.90
  -4   9  -4   26.50    4.90
  -5  -9  -4    8.50    4.10
   5  -9   4    8.50    5.50
  -5   9  -4    9.60    4.00
   5 -10  -4    7.20    5.30
   5 -10  -4    2.80    5.30
  -5 -10   4    8.70    2.60
  -5  10   4    3.80    4.70
   5  10  -4   15.70    4.20
   4 -10  -4    1.40    5.10
   4 -10  -4    1.80    4.50
  -4 -10   4   -3.50    3.00
  -4  10   4    5.30    4.10
   3 -10  -4   24.70    5.00
  -3 -10   4   12.00    3.90
  -3 -10   4   13.20    3.90
  -3 -10   4   15.60    2.00
   3 -10  -4   19.10    5.00
   3  10  -4   21.10    4.90
  -3  10   4   17.60    3.60
   2 -10  -4   54.59    5.70
   2 -10  -4   62.49    7.40
  -2 -10   4   44.90    4.60
   2  10  -4   56.29    6.70
  -2  10   4   58.99    4.90
   1 -10  -4    4.70    4.30
   1 -10  -4    6.50    3.50
  -1 -10   4   -0.40    4.00
  -1 -10   4    4.00    3.40
   1  10  -4    5.30    3.80
   0 -10   4    3.00    3.60
   0 -10   4   11.00    4.10
   0 -10  -4    1.00    3.20
   0 -10  -4   -7.50    4.70
   0  10  -4    0.10    3.60
   1 -10   4   -2.30    4.10
   1 -10   4   -4.10    3.90
  -1 -10  -4   -2.00    2.50
  -1 -10  -4   -5.00    4.40
  -1  10  -4   -6.30    3.60
   2 -10   4   26.80    5.40
  -2 -10  -4   18.60    2.40
  -2 -10  -4   20.60    4.80
  -2  10  -4   15.50    4.60
  -3 -10  -4    6.00    5.10
   3 -10   4    8.10    5.10
  -3  10  -4   11.10    4.50
   1 -11  -4   13.50    4.20
  -1 -11   4    4.80    5.00
   1 -11  -4    6.70    5.50
   1  11  -4    5.10    4.60
   0 -11  -4   -6.70    5.20
   0 -11   4    3.50    5.00
   0 -11  -4   -0.80    3.20
   0  11  -4   -1.10    4.30
  10   0  -5    0.50    1.80
  10   0  -5   -1.30    4.00
   9   0  -5   -0.40    1.30
   9   0  -5    2.60    3.30
   8   0  -5   -0.10    3.30
   8   0  -5   -4.00    2.30
   7   0  -5    0.50    1.00
   7   0  -5   -3.40    1.90
   6   0  -5   -0.10    1.60
   6   0  -5   -1.20    2.10
   5   0  -5    0.80    0.40
   5   0  -5    0.80    1.20
   4   0  -5   -0.70    1.40
   4   0  -5    3.90    1.20
   4   0  -5   -0.30    0.60
   3   0  -5    0.00    0.80
   3   0  -5    0.20    1.00
  -3   0   5    0.50    1.20
   2   0  -5   -0.70    0.70
  -2   0   5    2.20    0.80
   2   0  -5   -0.10    0.90
  -2   0   5    0.50    1.00
  -1   0   5    0.20    0.90
   1   0  -5   -0.90    0.90
  -1   0   5   -1.40    1.00
   1   0  -5    1.20    0.90
   0   0  -5    2.00    0.80
   0   0  -5    1.00    1.00
   0   0   5    2.90    1.10
   0   0   5    0.80    1.00
  -1   0  -5    0.50    1.10
   1   0   5    1.40    1.10
   1   0   5   -1.40    1.20
  -1   0  -5    1.60    1.00
  -1   0  -5    1.50    0.90
  -2   0  -5   -0.50    1.20
   2   0   5    0.70    1.20
  -2   0  -5   -0.10    1.20
  -2   0  -5   -1.10    1.00
   2   0   5   -1.50    1.30
  -3   0  -5   -0.10    1.10
  -3   0  -5    0.30    1.20
   3   0   5    1.40    1.40
   3   0   5   -1.10    1.40
  -4   0  -5   -0.90    1.10
  -4   0  -5   -1.50    1.40
  -5   0  -5    0.60    1.50
   5   0   5    0.70    2.60
   5   0   5    2.30    2.50
  -5   0  -5    4.30    1.50
   6   0   5    0.70    2.60
   6   0   5   -3.00    2.40
  -6   0  -5    0.80    1.40
  -7   0  -5   -4.60    3.00
   7   0   5    1.30    3.20
   7   0   5   -0.50    3.60
  -7   0  -5    0.10    1.10
  -8   0  -5    1.70    4.00
   8   0   5    2.40    3.90
  10  -1  -5  213.78    5.90
  10  -1  -5  211.68    9.60
  10  -1  -5  201.78    6.00
  10   1  -5  207.18    8.10
   9  -1  -5    1.80    1.40
   9  -1  -5    1.00    1.80
   9  -1  -5   -2.50    2.90
   9   1  -5   -3.70    3.70
   9   1  -5    3.50    2.90
   8  -1  -5  282.87    6.60
   8  -1  -5  298.17    9.00
   8  -1  -5  291.47   10.10
   8  -1  -5  293.97    6.70
   8  -1  -5  284.87    6.70
   8   1  -5  290.27    8.40
   8   1  -5  291.57    9.50
   7  -1  -5  524.95   12.90
   7  -1  -5  501.35   10.70
   7  -1  -5  507.25   13.20
   7   1  -5  516.35   12.10
  -7   1   5  522.85   13.00
   7   1  -5  505.55   13.00
   6  -1  -5  291.77    6.50
   6  -1  -5  295.67    8.60
   6  -1  -5  303.67    8.20
   6   1  -5  300.87    7.00
   6   1  -5  303.37    7.70
   6   1  -5  303.27    8.50
   5  -1  -5 2260.57   44.60
   5  -1  -5 2288.67   46.00
   5  -1  -5 2171.68   47.00
   5   1  -5 2311.67   45.50
   5   1  -5 2264.27   45.20
   5   1  -5 2382.86   46.30
   4  -1  -5  392.26    9.30
   4  -1  -5  387.16    8.30
   4  -1  -5  393.06    9.40
   4   1  -5  387.36    8.90
   4   1  -5  380.36    8.00
   4   1  -5  392.26    9.30
   4   1  -5  382.46    8.90
   3  -1  -5  188.88    5.30
   3  -1  -5  198.68    5.40
   3  -1  -5  184.38    4.70
  -3  -1   5  195.28    5.20
   3   1  -5  189.18    4.50
  -3   1   5  185.18    4.10
   3   1  -5  197.88    5.10
   3   1  -5  194.98    5.20
  -2  -1   5  105.19    3.40
   2  -1  -5  102.29    3.40
  -2  -1   5  108.29    2.80
   2  -1  -5   98.79    3.10
  -2   1   5  107.69    3.50
   2   1  -5  105.99    3.00
   2   1  -5  106.59    3.50
  -2   1   5  102.39    3.10
   2   1  -5  102.29    3.30
   1  -1  -5  345.37    8.30
   1  -1  -5  359.86    8.20
  -1  -1   5  363.96    8.30
  -1  -1   5  368.76    8.10
   1   1  -5  362.16    8.30
   1   1  -5  368.46    8.50
  -1   1   5  375.36    8.50
   1   1  -5  368.96    8.20
  -1   1   5  362.66    8.20
   0  -1  -5  801.32   16.60
   0  -1  -5  778.52   16.60
   0  -1   5  802.32   16.60
   0  -1   5  798.52   16.50
   0   1  -5  764.62   16.60
   0   1   5  787.62   16.60
   0   1   5  823.32   16.70
   0   1  -5  789.82   16.80
   0   1  -5  770.82   16.50
  -1  -1  -5  198.18    5.30
  -1  -1  -5  196.08    5.30
   1  -1   5  198.68    5.40
   1  -1   5  197.68    5.50
   1   1   5  198.48    5.30
  -1   1  -5  195.28    5.50
  -1   1  -5  185.48    5.30
   1   1   5  205.48    5.40
  -1   1  -5  190.48    5.30
  -2  -1  -5  331.97    8.20
   2  -1   5  344.97    8.50
  -2  -1  -5  338.77    8.20
   2  -1   5  342.77    8.40
  -2   1  -5  336.87    8.30
   2   1   5  343.27    8.40
  -2   1  -5  344.87    8.30
   2   1   5  351.06    8.20
  -3  -1  -5    8.00    1.40
  -3  -1  -5    7.00    1.60
   3  -1   5   12.90    1.90
  -3   1  -5    9.90    1.40
   3   1   5    8.90    1.80
  -3   1  -5   10.80    1.50
   3   1   5   12.20    2.20
  -4  -1  -5  514.05   11.80
  -4  -1  -5  513.95   11.60
   4  -1   5  525.15   12.30
   4   1   5  533.05   12.20
   4   1   5  529.35   13.50
  -4   1  -5  506.95   11.90
  -4   1  -5  521.85   11.80
   5  -1   5   79.69    5.30
  -5  -1  -5   87.19    3.40
   5  -1   5   85.69    4.70
  -5  -1  -5   91.99    3.80
   5   1   5   95.49    4.90
   5   1   5   90.19    4.60
  -5   1  -5   92.29    3.80
   6  -1   5   10.60    2.90
  -6  -1  -5   14.10    1.90
  -6  -1  -5   14.10    1.50
   6  -1   5   15.80    3.50
  -6  -1  -5   16.40    2.90
   6   1   5   13.10    3.40
  -6   1  -5   14.80    1.90
   6   1   5   13.70    3.10
   7  -1   5  111.29    6.70
  -7  -1  -5  107.69    3.30
  -7  -1  -5  107.59    3.10
   7  -1   5  107.79    6.90
  -7  -1  -5  109.69    6.00
   7   1   5  107.29    6.70
  -7   1  -5  111.99    3.70
  -7   1  -5  113.69    6.70
   7   1   5  110.79    6.70
  -8  -1  -5    2.30    3.20
  -8   1  -5   -0.40    4.10
   8   1   5   -5.80    4.40
  10  -2  -5    5.70    2.30
  10  -2  -5   -1.30    5.20
 -10   2   5    2.80    4.90
  10   2  -5    1.10    2.00
  10   2  -5   10.80    3.60
   9  -2  -5   78.59    3.10
   9  -2  -5   78.19    6.60
   9  -2  -5   81.29    4.10
   9  -2  -5   89.89    3.90
   9   2  -5   78.19    5.00
   9   2  -5   85.09    6.50
  -9   2   5   81.49    6.70
   8  -2  -5  887.01   20.60
   8  -2  -5  875.01   18.40
   8  -2  -5  888.41   18.50
  -8   2   5  871.51   20.80
   8   2  -5  907.71   19.30
   8   2  -5  865.71   20.50
   7  -2  -5  118.49    3.70
   7  -2  -5  114.19    6.10
   7  -2  -5  120.59    5.50
   7  -2  -5  116.39    3.90
  -7   2   5  120.49    5.60
   7   2  -5  117.49    5.60
   7   2  -5  113.89    4.40
   6  -2  -5   31.20    2.00
   6  -2  -5   32.00    3.40
   6  -2  -5   34.80    4.00
   6   2  -5   34.00    2.50
   6   2  -5   28.40    1.40
  -6   2   5   27.20    3.30
   6   2  -5   28.10    1.20
   6   2  -5   28.00    2.90
   5  -2  -5  390.66    8.70
   5  -2  -5  392.56    9.90
   5  -2  -5  383.76    9.90
   5   2  -5  380.36    8.90
   5   2  -5  391.36    9.80
  -5   2   5  383.06    9.80
   5   2  -5  392.46    8.10
   5   2  -5  395.56    8.20
   5   2  -5  389.16    8.90
   4  -2  -5 1250.07   25.70
   4  -2  -5 1194.78   24.60
   4  -2  -5 1246.58   25.50
  -4  -2   5 1227.08   24.80
   4   2  -5 1216.08   24.30
   4   2  -5 1224.28   24.80
   4   2  -5 1217.58   24.30
   4   2  -5 1196.48   25.00
  -3  -2   5  549.45   11.60
   3  -2  -5  542.15   12.10
   3  -2  -5  545.45   12.20
  -3  -2   5  538.85   11.90
   3  -2  -5  534.45   11.60
   3   2  -5  531.95   11.30
   3   2  -5  524.85   11.50
  -3   2   5  531.55   11.20
   3   2  -5  533.15   11.90
   2  -2  -5   31.80    2.20
  -2  -2   5   31.90    2.00
  -2  -2   5   29.90    1.70
   2  -2  -5   29.40    2.20
   2  -2  -5   30.80    2.00
  -2  -2   5   28.70    2.30
  -2  -2   5   32.20    1.60
   2   2  -5   30.70    2.30
   2   2  -5   30.70    1.70
   2   2  -5   30.70    1.90
  -2   2   5   29.50    2.40
  -2   2   5   28.40    1.90
   1  -2  -5  450.55   10.50
  -1  -2   5  462.15   10.30
   1  -2  -5  465.75   10.50
  -1  -2   5  478.75   10.20
  -1  -2   5  474.55   10.70
  -1   2   5  472.95   10.60
  -1   2   5  472.85   10.60
   1   2  -5  469.85   10.40
   1   2  -5  476.45   10.40
   1   2  -5  478.05   10.80
   0   2  -5 5710.53  111.29
  -1  -2  -5    9.90    1.30
   1  -2   5   11.20    1.60
   1  -2   5    8.00    1.60
   1  -2   5    8.90    1.60
  -1  -2  -5    9.70    1.50
   1   2   5    9.90    1.50
   1   2   5    8.90    1.50
  -1   2  -5   10.60    1.40
  -1   2  -5    8.70    1.50
  -2  -2  -5  206.68    5.80
   2  -2   5  216.38    6.10
  -2  -2  -5  201.28    5.60
   2  -2   5  217.78    6.00
   2  -2   5  213.68    6.20
   2   2   5  219.68    5.70
  -2   2  -5  210.88    6.00
  -2   2  -5  219.68    6.00
   2   2   5  218.68    6.20
   3  -2   5  811.02   17.40
   3  -2   5  798.82   17.60
  -3  -2  -5  812.72   17.30
   3  -2   5  820.72   17.90
  -3  -2  -5  775.82   17.20
  -3   2  -5  804.72   17.40
   3   2   5  808.62   17.70
   3   2   5  804.22   17.20
   4  -2   5  903.11   19.40
  -4  -2  -5  899.21   19.30
   4  -2   5  903.91   19.90
   4  -2   5  936.51   20.30
  -4   2  -5  883.61   19.50
   4   2   5  924.81   20.00
   4   2   5  906.71   19.40
   5  -2   5  461.95   12.00
  -5  -2  -5  435.46   10.70
   5  -2   5  445.76   11.60
  -5  -2  -5  452.45   10.30
  -5  -2  -5  455.25   10.50
  -5   2  -5  450.15   10.80
   5   2   5  449.76   11.60
   5   2   5  455.15   11.90
  -6  -2  -5   19.90    2.10
  -6  -2  -5   19.80    2.00
   6  -2   5   16.50    3.20
  -6  -2  -5   23.10    3.10
   6  -2   5   17.50    3.50
   6   2   5   22.50    3.30
  -6   2  -5   18.70    2.10
   6   2   5   17.20    3.10
   7  -2   5    7.70    3.60
  -7  -2  -5   -5.20    3.30
   7  -2   5   -2.40    3.20
   7   2   5   -4.30    3.20
   7   2   5    6.60    4.20
  -7   2  -5    1.50    1.70
  -7   2  -5    3.10    3.90
  -8  -2  -5  318.07   10.20
   8   2   5  329.47   10.90
  -8   2  -5  324.97   11.70
  10  -3  -5   31.60    3.50
  10  -3  -5   39.00    5.90
  10  -3  -5   28.10    3.30
  10   3  -5   24.80    3.50
 -10   3   5   29.60    5.70
  10   3  -5   35.00    4.30
   9  -3  -5  572.24   13.30
   9  -3  -5  556.34   13.30
   9   3  -5  545.95   12.20
  -9   3   5  564.44   15.80
   9   3  -5  578.04   13.10
   9   3  -5  560.44   15.40
   8  -3  -5  211.78    6.70
   8  -3  -5  212.98    6.40
  -8   3   5  221.38    8.30
   8   3  -5  212.08    5.30
   8   3  -5  220.58    6.30
   8   3  -5  221.78    5.70
   8   3  -5  220.48    8.20
   7  -3  -5   13.80    2.10
   7  -3  -5    9.40    1.70
   7   3  -5   10.10    1.20
   7   3  -5   11.20    1.70
   7   3  -5    9.60    1.60
   7   3  -5   13.20    3.20
  -7   3   5    6.30    2.80
   6  -3  -5  184.48    6.90
   6  -3  -5  187.18    5.50
   6  -3  -5  193.48    5.40
   6   3  -5  198.38    5.10
   6   3  -5  193.18    4.90
  -6   3   5  195.48    6.60
   6   3  -5  194.58    6.60
   5  -3  -5    6.10    2.60
   5  -3  -5    3.30    2.00
   5  -3  -5    0.10    1.10
  -5  -3   5    1.30    1.40
   5   3  -5    2.70    1.10
  -5   3   5    3.10    1.80
   5   3  -5    2.20    2.00
   5   3  -5    2.10    0.80
   5   3  -5    3.30    1.00
   4  -3  -5  613.64   13.10
   4  -3  -5  606.74   13.70
  -4  -3   5  600.24   13.30
   4  -3  -5  593.24   13.90
  -4  -3   5  611.84   12.80
   4   3  -5  603.04   12.70
   4   3  -5  598.14   12.70
   4   3  -5  587.14   12.60
  -4   3   5  579.44   13.50
   3  -3  -5   93.59    3.70
   3  -3  -5  101.19    3.60
  -3  -3   5  101.49    3.80
  -3  -3   5   99.49    2.60
  -3  -3   5   98.99    3.30
   3  -3  -5   94.29    3.90
   3   3  -5   93.19    3.00
  -3   3   5   97.79    3.30
   3   3  -5  100.19    3.20
  -2  -3   5 1369.46   28.40
  -2  -3   5 1406.86   29.00
   2  -3  -5 1402.36   28.50
  -2  -3   5 1447.76   28.40
  -2  -3   5 1401.16   28.30
   2  -3  -5 1415.86   28.80
   2  -3  -5 1416.86   29.00
  -2   3   5 1421.76   28.70
   2   3  -5 1422.06   28.50
   2   3  -5 1441.06   29.10
   2   3  -5 1385.56   28.50
   1  -3  -5  520.05   11.40
   1  -3  -5  523.75   12.10
  -1  -3   5  544.85   11.90
   1  -3  -5  530.75   12.00
  -1  -3   5  539.85   11.80
  -1  -3   5  537.75   11.70
  -1  -3   5  553.14   12.40
  -1   3   5  551.04   12.10
  -1   3   5  536.05   12.10
   1   3  -5  525.15   11.80
   1   3  -5  543.45   11.90
   1   3  -5  537.55   12.30
   0  -3  -5   69.79    2.90
   0  -3  -5   73.99    3.30
   0  -3   5   75.19    3.20
   0  -3   5   75.89    3.30
   0  -3   5   79.19    3.20
   0   3  -5   72.49    3.20
   0   3   5   75.59    3.10
   0   3   5   71.59    3.50
   0   3  -5   72.69    3.30
   1  -3   5   16.90    1.90
   1  -3   5   16.20    2.00
   1  -3   5   19.50    2.00
  -1  -3  -5   14.80    1.60
  -1  -3  -5   18.10    2.20
  -1   3  -5   15.90    1.70
   1   3   5   16.00    2.00
   1   3   5   17.40    1.80
  -2  -3  -5  343.97    8.60
   2  -3   5  353.36    9.00
   2  -3   5  350.66    8.90
  -2  -3  -5  332.07    8.20
   2   3   5  356.76    8.40
  -2   3  -5  345.77    8.70
   3  -3   5 1684.93   35.30
   3  -3   5 1715.33   35.20
   3  -3   5 1734.33   35.00
  -3  -3  -5 1683.43   34.70
  -3  -3  -5 1676.83   34.40
  -3   3  -5 1673.53   34.90
   3   3   5 1729.53   34.50
   3   3   5 1733.03   35.50
   4  -3   5   -0.20    2.00
   4  -3   5    3.60    2.30
   4  -3   5    1.60    2.20
  -4  -3  -5   -3.20    1.30
  -4  -3  -5    3.40    1.80
   4   3   5    4.30    2.50
   4   3   5    4.00    1.80
  -4   3  -5    0.30    1.90
   5  -3   5  548.65   14.30
  -5  -3  -5  565.14   12.80
   5  -3   5  584.64   13.70
   5  -3   5  552.44   13.90
  -5  -3  -5  554.74   12.60
   5   3   5  562.64   14.10
   5   3   5  578.54   13.00
  -5   3  -5  569.64   13.20
   6  -3   5  901.31   21.30
   6  -3   5  892.31   20.90
  -6  -3  -5  926.31   18.90
  -6  -3  -5  929.61   18.90
  -6  -3  -5  898.51   19.40
  -6  -3  -5  909.31   18.90
  -6   3  -5  895.61   19.40
   6   3   5  842.32   20.80
   6   3   5  864.11   20.60
  -7  -3  -5  354.36    8.10
   7  -3   5  374.66   12.70
  -7  -3  -5  363.06   10.10
  -7   3  -5  375.56    9.20
   7   3   5  368.06   10.60
   7   3   5  366.86   11.90
  -8  -3  -5  109.49    6.70
   8   3   5  109.79    7.10
  -8   3  -5  117.39    9.30
  10  -4  -5  161.68    7.90
  10  -4  -5  177.08    7.70
 -10   4   5  178.38   10.40
   9  -4  -5   21.20    3.90
   9  -4  -5   14.30    3.20
   9   4  -5   17.60    3.00
  -9   4   5   20.70    4.80
   9   4  -5   15.50    2.00
   9   4  -5   15.10    4.80
   8  -4  -5  294.67    8.60
   8  -4  -5  300.97    8.50
   8   4  -5  284.27    7.70
   8   4  -5  300.47   10.10
   8   4  -5  296.97    6.90
   8   4  -5  298.37    7.20
   7  -4  -5    4.10    2.00
   7  -4  -5    4.50    2.20
   7   4  -5    0.80    1.20
   7   4  -5   -0.30    3.10
  -7   4   5   -3.50    2.70
   7   4  -5   -0.30    1.90
   7   4  -5   -0.30    1.20
  -6  -4   5  312.47    8.10
   6  -4  -5  320.67    8.40
   6   4  -5  302.77    7.70
   6   4  -5  321.47    8.90
  -6   4   5  305.67    9.20
   6   4  -5  310.67    7.40
   6   4  -5  315.07    7.10
  -5  -4   5   75.59    3.60
   5  -4  -5   72.59    4.30
   5  -4  -5   75.79    3.50
   5   4  -5   76.89    3.40
   5   4  -5   80.49    3.00
   5   4  -5   71.69    2.50
  -5   4   5   73.49    4.10
   4  -4  -5  709.53   15.90
  -4  -4   5  743.13   16.10
  -4  -4   5  729.33   15.10
   4  -4  -5  711.93   16.50
   4   4  -5  734.43   15.50
  -4   4   5  724.93   16.10
   4   4  -5  739.93   15.60
   4   4  -5  708.93   15.00
  -3  -4   5   16.40    1.70
   3  -4  -5   14.70    2.10
   3  -4  -5   11.10    2.00
   3  -4  -5   17.20    2.00
  -3  -4   5   13.80    1.50
  -3  -4   5   16.30    2.00
  -3  -4   5   17.40    1.80
   3   4  -5   14.50    1.60
  -3   4   5   16.70    1.90
   3   4  -5   14.50    1.70
  -3   4   5   14.30    1.70
   3   4  -5   18.10    2.20
  -2  -4   5 1229.28   25.90
   2  -4  -5 1272.27   26.60
  -2  -4   5 1251.27   25.80
  -2  -4   5 1310.27   26.80
  -2  -4   5 1272.77   26.10
   2  -4  -5 1298.07   26.60
   2  -4  -5 1276.67   26.00
  -2   4   5 1306.17   26.40
   2   4  -5 1261.47   26.30
   1  -4  -5   27.50    2.40
  -1  -4   5   25.10    2.60
  -1  -4   5   24.60    2.20
   1  -4  -5   29.90    2.60
   1  -4  -5   26.40    2.00
  -1  -4   5   29.30    2.40
  -1  -4   5   28.70    2.30
   1   4  -5   24.90    2.30
  -1   4   5   29.00    2.80
   0  -4   5   71.49    3.30
   0  -4   5   71.79    3.30
   0  -4  -5   68.89    3.40
   0  -4  -5   66.69    2.20
   0  -4   5   66.39    3.20
   0  -4   5   65.99    3.70
   0  -4  -5   65.59    3.00
   0   4  -5   68.59    3.20
   0   4   5   64.79    3.60
   0   4   5   71.69    3.30
  -1  -4  -5  150.18    4.40
  -1  -4  -5  143.89    3.30
   1  -4   5  147.19    5.00
  -1  -4  -5  145.79    4.90
   1  -4   5  141.39    4.90
   1  -4   5  142.59    6.00
  -1   4  -5  149.99    5.00
   1   4   5  145.39    4.70
   1   4   5  150.18    5.30
  -2  -4  -5   92.69    3.40
  -2  -4  -5   94.89    4.00
   2  -4   5   92.09    4.30
   2  -4   5   90.39    5.30
  -2   4  -5   91.19    4.00
   2   4   5   92.49    4.60
   2   4   5   93.09    3.70
   3  -4   5   12.60    2.50
  -3  -4  -5   13.10    1.20
  -3  -4  -5   10.70    1.60
   3  -4   5   11.10    2.40
   3  -4   5   10.10    2.30
  -3  -4  -5   11.80    2.00
   3   4   5   11.00    1.90
  -3   4  -5   10.80    2.10
   3   4   5   12.40    2.60
  -4  -4  -5  264.27    7.40
   4  -4   5  271.77    8.70
   4  -4   5  278.57    8.40
  -4  -4  -5  281.67    8.50
  -4  -4  -5  259.67    6.10
  -4   4  -5  273.87    7.70
   4   4   5  264.37    8.50
   4   4   5  278.27    7.20
   5  -4   5  121.69    6.50
   5  -4   5  116.39    5.60
  -5  -4  -5  119.39    3.70
  -5  -4  -5  115.99    4.70
  -5  -4  -5  118.29    5.10
   5  -4   5  118.59    6.50
   5   4   5  119.69    6.20
   5   4   5  113.19    4.60
  -5   4  -5  128.89    5.20
   6  -4   5  102.69    6.30
   6  -4   5  106.39    6.30
   6  -4   5  108.39    6.80
  -6  -4  -5  103.69    4.30
  -6  -4  -5  107.59    4.40
  -6  -4  -5  103.99    4.70
   6   4   5   97.59    6.80
  -6   4  -5  112.49    5.10
   6   4   5  107.09    5.10
  -7  -4  -5   54.69    3.10
  -7  -4  -5   55.89    4.40
  -7   4  -5   55.59    4.10
  -8  -4  -5   34.30    3.90
  -8   4  -5   22.90    5.60
   9  -5  -5   28.60    3.90
   9  -5  -5   25.70    4.20
   9   5  -5   27.10    3.60
  -9   5   5   25.90    5.30
   9   5  -5   18.90    5.60
   8  -5  -5   46.20    5.60
   8  -5  -5   45.40    5.00
  -8   5   5   42.80    4.90
   8   5  -5   43.90    4.70
   8   5  -5   39.10    3.50
   8   5  -5   43.10    4.40
   7  -5  -5  320.37    9.40
  -7  -5   5  321.87    8.50
   7  -5  -5  319.47    9.40
   7   5  -5  311.37    8.10
   7   5  -5  319.97    9.70
  -7   5   5  301.87    9.90
   7   5  -5  330.17    9.60
  -6  -5   5   10.10    2.40
   6  -5  -5    9.70    2.80
   6  -5  -5   11.10    2.30
   6   5  -5   10.80    2.90
   6   5  -5    9.70    1.90
  -6   5   5    7.90    2.80
   6   5  -5    9.90    2.80
   5  -5  -5 1226.88   25.80
   5  -5  -5 1227.48   26.10
  -5  -5   5 1186.28   26.90
  -5   5   5 1217.18   26.30
   5   5  -5 1233.28   25.40
   4  -5  -5  137.29    5.30
  -4  -5   5  135.09    3.50
   4  -5  -5  129.39    5.00
  -4  -5   5  132.09    3.80
   4  -5  -5  130.69    5.10
  -4  -5   5  134.09    3.40
  -4   5   5  130.69    4.70
   4   5  -5  133.89    4.60
  -4   5   5  137.09    5.00
   3  -5  -5  266.17    7.70
   3  -5  -5  258.67    7.50
   3  -5  -5  261.37    7.40
  -3  -5   5  262.77    6.40
  -3  -5   5  261.17    6.60
  -3  -5   5  258.77    7.70
  -3  -5   5  262.57    6.60
   3   5  -5  271.77    7.40
  -3   5   5  263.87    7.30
   3   5  -5  258.27    7.10
  -3   5   5  250.87    6.90
  -2  -5   5  404.76    9.20
   2  -5  -5  395.56   10.00
   2  -5  -5  390.56   10.10
  -2  -5   5  397.26    9.60
   2  -5  -5  400.06    9.90
  -2  -5   5  406.06    9.50
  -2  -5   5  396.26   10.30
   2   5  -5  404.36    9.80
  -2   5   5  384.16   10.80
  -1  -5   5 1624.24   33.70
   1  -5  -5 1661.83   33.90
  -1  -5   5 1634.74   33.50
  -1  -5   5 1630.34   33.90
   1  -5  -5 1645.74   34.20
  -1  -5   5 1719.23   35.70
  -1   5   5 1689.23   34.30
   1   5  -5 1609.54   34.00
   0  -5  -5   21.80    2.20
   0  -5  -5   17.00    2.40
   0  -5   5   18.60    2.50
   0  -5   5   18.40    2.20
   0  -5   5   20.90    2.20
   0   5  -5   22.20    2.70
   0   5   5   19.70    2.50
   1  -5   5 1346.77   28.90
   1  -5   5 1398.66   28.80
   1  -5   5 1379.66   28.80
   1  -5   5 1369.46   29.10
  -1  -5  -5 1350.66   28.00
  -1  -5  -5 1349.96   28.80
   1   5   5 1399.66   29.10
  -1   5  -5 1347.97   28.80
   2  -5   5   12.80    2.50
  -2  -5  -5   12.70    1.70
   2  -5   5   17.60    2.70
   2  -5   5   16.10    2.60
  -2  -5  -5   16.10    2.40
  -2  -5  -5   11.60    2.20
   2  -5   5   20.10    2.80
  -2   5  -5   14.50    2.20
   2   5   5   17.20    2.10
   2   5   5   10.70    2.70
   3  -5   5   85.09    4.90
  -3  -5  -5   84.59    3.30
   3  -5   5   88.49    4.70
  -3  -5  -5   86.39    4.30
  -3  -5  -5   74.99    4.90
   3  -5   5   84.79    5.00
  -3   5  -5   86.39    4.40
   3   5   5   87.49    3.70
   3   5   5   87.89    5.30
   4  -5   5    6.30    3.00
   4  -5   5   10.50    2.90
   4  -5   5   10.30    3.00
  -4  -5  -5   13.00    2.30
   4   5   5   10.10    3.20
   4   5   5    9.70    2.00
  -4   5  -5   12.30    2.70
   5  -5   5    5.00    3.00
   5  -5   5    1.00    3.20
  -5  -5  -5   -3.10    2.30
   5  -5   5    4.50    2.90
   5   5   5   -0.80    3.40
  -5   5  -5    0.60    2.50
   5   5   5    1.60    2.30
  -6  -5  -5  614.04   13.60
   6  -5   5  610.94   15.40
  -6  -5  -5  590.04   13.70
  -6   5  -5  599.34   14.40
   6   5   5  582.24   16.10
   6   5   5  591.34   13.60
   7  -5   5   10.00    4.20
  -7   5  -5    9.10    2.80
   7   5   5   13.10    3.00
   9  -6  -5   24.40    4.70
   9   6  -5   21.00    5.10
   9   6  -5   18.70    4.70
  -9   6   5   19.60    5.70
   8  -6  -5  161.38    7.60
   8  -6  -5  150.48    8.00
   8   6  -5  165.08    8.80
  -8   6   5  172.18    8.70
   8   6  -5  154.88    7.50
   8   6  -5  168.78    6.00
  -7  -6   5    7.60    3.50
   7  -6  -5    5.80    3.20
   7  -6  -5    1.20    3.00
   7   6  -5    2.50    3.40
   7   6  -5    1.20    2.10
   7   6  -5    2.70    3.30
  -6  -6   5  728.93   16.90
   6  -6  -5  704.93   17.20
   6  -6  -5  734.23   17.40
   6   6  -5  717.63   16.30
   6   6  -5  717.53   16.70
   6   6  -5  718.93   16.70
  -6   6   5  736.33   17.70
   5  -6  -5   83.59    5.10
  -5  -6   5   78.49    4.80
   5  -6  -5   80.19    4.80
   5   6  -5   75.39    4.20
   5   6  -5   85.59    5.00
  -5   6   5   81.09    5.10
   4  -6  -5    5.40    2.60
   4  -6  -5    2.00    2.50
  -4  -6   5    2.40    2.70
  -4  -6   5    4.10    1.50
   4  -6  -5    0.40    2.20
  -4  -6   5    2.80    1.30
  -4  -6   5    3.00    1.30
   4   6  -5    5.10    2.30
   4   6  -5    6.20    2.00
  -4   6   5    4.40    2.30
  -3  -6   5  289.07    7.60
  -3  -6   5  292.27    7.60
  -3  -6   5  283.97    8.80
   3  -6  -5  293.67    8.60
   3  -6  -5  301.77    8.70
   3  -6  -5  298.37    8.50
  -3  -6   5  289.27    7.00
  -3   6   5  295.97    7.80
   3   6  -5  284.97    8.00
   3   6  -5  292.07    8.70
  -2  -6   5  251.37    6.70
   2  -6  -5  252.77    7.70
  -2  -6   5  251.87    7.90
   2  -6  -5  254.27    7.80
   2  -6  -5  255.17    7.80
  -2  -6   5  256.47    7.30
  -2  -6   5  255.77    7.20
   2   6  -5  248.68    7.40
  -2   6   5  266.67    8.00
  -2   6   5  251.47    6.60
  -1  -6   5   26.90    2.90
  -1  -6   5   24.70    2.60
   1  -6  -5   24.20    2.80
  -1  -6   5   29.60    2.80
   1  -6  -5   30.00    3.70
   1  -6  -5   25.50    2.80
  -1   6   5   29.10    3.20
   1   6  -5   23.80    2.50
   0  -6   5    3.50    2.00
   0  -6  -5    4.70    2.20
   0  -6   5    3.00    2.30
   0  -6  -5    0.20    2.20
   0  -6  -5    0.30    1.60
   0  -6   5    3.60    2.10
   0  -6   5    4.00    2.10
   0   6   5    2.30    2.50
   0   6  -5   -0.60    1.80
  -1  -6  -5  125.39    4.40
  -1  -6  -5  124.49    5.90
   1  -6   5  131.89    6.20
   1  -6   5  134.99    5.40
   1  -6   5  123.89    5.60
   1  -6   5  124.09    5.50
  -1  -6  -5  127.79    5.40
   1   6   5  123.59    6.00
  -1   6  -5  126.59    5.30
   2  -6   5  571.54   14.10
   2  -6   5  557.64   14.00
  -2  -6  -5  566.24   13.70
   2  -6   5  564.84   14.40
  -2  -6  -5  562.04   12.40
   2  -6   5  543.65   13.90
   2   6   5  559.14   14.20
  -2   6  -5  545.15   13.70
  -3  -6  -5   94.59    5.10
   3  -6   5   94.29    5.70
   3  -6   5   94.69    5.70
   3  -6   5   96.89    6.10
   3  -6   5   98.39    5.60
  -3  -6  -5  100.49    4.90
  -3  -6  -5   91.99    3.60
   3   6   5  101.39    6.20
  -3   6  -5   91.99    4.90
   4  -6   5   10.00    3.40
   4  -6   5    9.70    3.20
   4  -6   5   11.70    3.20
  -4  -6  -5    7.20    3.20
  -4  -6  -5   12.50    2.80
   4  -6   5   10.70    3.30
  -4   6  -5    8.20    2.50
   4   6   5    6.90    3.40
   5  -6   5    2.80    3.50
  -5  -6  -5   -1.80    2.90
   5  -6   5   -1.40    3.30
   5   6   5    2.40    3.70
  -5   6  -5    0.80    2.40
  -6  -6  -5   54.99    4.60
  -6  -6  -5   69.29    4.50
   6  -6   5   59.89    7.00
   6  -6   5   63.09    6.90
  -6   6  -5   60.59    5.20
   7  -6   5   12.10    5.10
   7  -6   5   12.40    4.90
  -7   6  -5    1.40    3.10
  -8  -7   5  188.98   11.60
   8  -7  -5  210.68   10.00
  -8   7   5  241.18   10.60
   8   7  -5  207.98    9.70
   8   7  -5  202.58    8.70
   8   7  -5  211.28    7.70
   7  -7  -5   44.60    4.60
  -7  -7   5   44.30    4.30
   7   7  -5   49.70    5.10
   7   7  -5   50.99    4.90
  -7   7   5   53.69    6.40
   7   7  -5   38.50    4.70
  -6  -7   5   14.60    3.30
   6  -7  -5   12.30    3.80
   6  -7  -5   13.70    3.60
   6   7  -5   12.80    3.60
   6   7  -5   16.40    3.00
   6   7  -5   14.50    3.70
  -6   7   5   15.50    3.40
  -5  -7   5  199.78    7.70
   5  -7  -5  199.58    7.70
   5  -7  -5  188.68    7.60
   5  -7  -5  197.58    8.00
   5   7  -5  194.38    7.70
   5   7  -5  195.68    7.00
  -5   7   5  193.08    7.50
   4  -7  -5  139.99    6.40
  -4  -7   5  145.69    4.90
  -4  -7   5  142.29    6.80
  -4  -7   5  144.49    3.90
   4  -7  -5  137.79    6.50
   4  -7  -5  147.19    6.50
  -4  -7   5  146.69    4.90
   4   7  -5  150.88    5.80
  -4   7   5  141.09    5.90
   4   7  -5  139.99    6.80
  -4   7   5  146.49    6.50
  -3  -7   5  324.57    8.70
   3  -7  -5  321.77    9.60
   3  -7  -5  320.77    9.80
  -3  -7   5  325.67    8.60
   3  -7  -5  314.47    9.70
  -3  -7   5  311.77    9.60
  -3  -7   5  328.67    7.80
   3   7  -5  311.37    9.60
   3   7  -5  312.27    9.20
  -3   7   5  315.27    8.50
  -3   7   5  320.17    9.80
   2  -7  -5  374.86   10.80
   2  -7  -5  362.76   10.60
   2  -7  -5  387.06   10.40
  -2  -7   5  389.76    9.30
  -2  -7   5  391.66   11.30
  -2  -7   5  382.36   10.00
  -2  -7   5  385.36   10.00
  -2   7   5  379.76    9.20
  -2   7   5  384.06   11.20
   2   7  -5  382.66   10.30
  -1  -7   5   34.80    4.20
  -1  -7   5   35.90    3.50
  -1  -7   5   32.00    3.50
   1  -7  -5   33.90    4.10
   1  -7  -5   37.80    4.70
   1  -7  -5   34.10    3.80
  -1  -7   5   43.60    5.10
   1   7  -5   36.00    3.80
  -1   7   5   31.70    3.70
   0  -7   5   64.49    4.60
   0  -7  -5   67.19    3.80
   0  -7   5   65.09    4.70
   0  -7   5   67.29    5.80
   0  -7  -5   54.69    4.60
   0  -7   5   66.59    4.90
   0  -7  -5   71.89    5.10
   0   7  -5   69.69    4.50
   0   7   5   62.99    5.60
   1  -7   5   17.60    3.00
  -1  -7  -5   15.70    2.20
   1  -7   5   11.40    2.90
   1  -7   5   10.10    3.00
  -1  -7  -5   11.10    2.80
  -1  -7  -5    9.60    3.00
   1  -7   5   11.10    2.90
   1   7   5   11.50    3.30
  -1   7  -5   11.60    2.60
   2  -7   5  517.65   13.80
  -2  -7  -5  539.75   13.60
   2  -7   5  535.45   14.10
   2  -7   5  527.35   14.40
   2  -7   5  529.95   13.80
  -2  -7  -5  542.55   12.10
  -2  -7  -5  535.25   13.90
   2   7   5  526.65   14.20
  -2   7  -5  532.35   13.60
   3  -7   5  115.79    6.40
  -3  -7  -5  113.29    3.90
  -3  -7  -5  119.79    6.10
   3  -7   5  118.49    6.50
   3  -7   5  118.59    7.10
  -3  -7  -5  113.99    5.70
   3  -7   5  114.59    6.50
   3   7   5   99.79    6.90
  -3   7  -5  112.69    5.90
   4  -7   5  151.68    8.20
  -4  -7  -5  158.88    7.20
   4  -7   5  151.98    8.40
  -4  -7  -5  143.49    6.30
  -4   7  -5  147.29    7.00
   5  -7   5  102.09    7.40
   5  -7   5   91.49    7.90
  -5  -7  -5  109.29    6.00
  -5  -7  -5   96.29    6.50
  -5   7  -5   95.19    6.20
  -6  -7  -5   -1.30    3.00
   6  -7   5   -0.80    4.60
   6  -7   5    8.20    4.50
  -6   7  -5    0.70    3.70
  -7  -8   5   39.80    4.60
   7  -8  -5   49.20    5.50
   7   8  -5   45.20    4.70
  -7   8   5   42.30    5.50
   7   8  -5   47.90    5.80
   6  -8  -5  252.77   10.20
  -6  -8   5  235.48    9.30
   6   8  -5  227.68    8.90
   6   8  -5  246.98    8.80
   6   8  -5  252.17    8.70
  -5  -8   5   26.10    2.70
  -5  -8   5   23.20    2.20
   5  -8  -5   21.50    4.00
   5  -8  -5   23.10    4.30
  -5  -8   5   18.80    4.10
   5   8  -5   21.30    3.90
  -5   8   5   17.50    3.40
   5   8  -5   18.70    3.20
   4  -8  -5  128.99    6.80
   4  -8  -5  123.79    7.20
  -4  -8   5  125.99    7.20
  -4  -8   5  128.39    5.30
  -4  -8   5  131.99    5.50
   4   8  -5  118.29    6.40
  -4   8   5  123.49    6.00
   4   8  -5  124.19    7.40
   3  -8  -5   10.40    3.30
  -3  -8   5   13.10    2.90
  -3  -8   5   11.70    2.00
  -3  -8   5   14.30    2.70
   3  -8  -5   20.20    3.50
  -3  -8   5   10.10    3.30
   3  -8  -5    7.50    3.00
  -3   8   5    9.20    3.50
   3   8  -5    8.80    2.70
  -3   8   5   11.20    2.50
   3   8  -5    7.20    3.30
  -2  -8   5   -1.80    2.10
  -2  -8   5    0.60    3.20
  -2  -8   5   -2.40    2.50
  -2  -8   5    0.60    2.40
   2  -8  -5   -0.60    3.10
   2  -8  -5    3.00    2.80
   2  -8  -5   -1.40    2.80
  -2   8   5   -2.30    1.70
  -2   8   5   -3.20    3.00
   2   8  -5   -0.50    2.40
   1  -8  -5    6.40    3.10
   1  -8  -5    5.70    2.60
  -1  -8   5    7.30    3.00
  -1  -8   5    1.30    3.40
  -1  -8   5    5.10    3.20
  -1  -8   5   10.80    5.20
   1  -8  -5   10.50    3.20
  -1   8   5    9.40    3.50
   1   8  -5    6.00    2.60
   0  -8  -5   23.70    2.90
   0  -8   5   25.20    3.40
   0  -8   5   24.70    3.90
   0  -8  -5   19.50    3.60
   0  -8  -5   32.90    3.90
   0  -8   5   31.20    4.10
   0  -8   5   33.90    3.70
   0   8  -5   25.90    3.30
   0   8   5   19.30    3.70
  -1  -8  -5    1.80    1.90
   1  -8   5    6.30    3.30
   1  -8   5    1.90    2.80
   1  -8   5    4.40    3.00
  -1  -8  -5   10.60    3.00
   1  -8   5    8.90    3.60
  -1  -8  -5    5.40    3.60
  -1   8  -5    4.80    2.70
   1   8   5    3.50    3.70
   2  -8   5   90.39    6.90
  -2  -8  -5   84.79    6.20
  -2  -8  -5   79.59    5.80
   2  -8   5   80.19    5.90
  -2  -8  -5   85.59    3.90
   2  -8   5   65.79    6.40
   2  -8   5   81.39    7.00
  -2   8  -5   78.59    5.30
  -3  -8  -5    0.40    1.60
   3  -8   5    2.40    3.70
  -3  -8  -5   -1.00    3.10
  -3  -8  -5   -3.50    4.10
   3  -8   5   -2.50    3.50
  -4  -8  -5   20.00    4.30
   4  -8   5    4.90    4.30
  -4  -8  -5   13.50    3.70
  -4   8  -5    6.20    3.50
  -5  -8  -5   83.39    6.00
  -5  -8  -5   66.99    5.50
   5  -8   5   53.09    6.20
  -5   8  -5   68.29    6.70
   6  -9  -5   17.70    5.30
   6  -9  -5   20.20    6.40
  -6  -9   5   28.90    6.20
  -6   9   5   15.10    5.10
   6   9  -5   26.00    4.20
  -5  -9   5   61.09    3.60
  -5  -9   5   65.69    3.90
   5  -9  -5   67.59    7.50
   5  -9  -5   58.79    7.30
  -5   9   5   76.79    5.90
   4  -9  -5    4.40    4.20
   4  -9  -5    7.10    4.20
  -4  -9   5    6.70    3.00
  -4   9   5    9.60    3.30
   3  -9  -5  198.18    8.80
  -3  -9   5  194.28    8.00
  -3  -9   5  199.48    5.90
   3  -9  -5  205.08    8.70
  -3  -9   5  197.88    7.50
  -3   9   5  183.78    8.60
  -3   9   5  204.28    7.10
   3   9  -5  179.18    8.80
   2  -9  -5  187.28    7.60
  -2  -9   5  200.08    8.30
   2  -9  -5  188.88    8.60
  -2  -9   5  200.78    8.00
  -2   9   5  156.68    8.90
   1  -9  -5  452.75   12.10
  -1  -9   5  454.35   11.80
  -1  -9   5  441.36   12.60
  -1  -9   5  437.56   12.60
   1  -9  -5  436.36   13.20
   0  -9   5   -2.70    3.20
   0  -9  -5   -2.60    3.70
   0  -9  -5   -0.30    2.50
   0  -9   5   -1.70    3.20
   0   9  -5    0.60    3.10
  -1  -9  -5  159.38    7.80
  -1  -9  -5  145.89    5.90
   1  -9   5  150.08    8.00
   1  -9   5  137.89    7.60
  -1   9  -5  149.29    7.40
  -2  -9  -5  102.09    7.90
  -2  -9  -5   97.49    4.30
   2  -9   5   99.89    7.40
  -2  -9  -5   98.59    6.80
   2  -9   5   94.09    6.80
  -2   9  -5   93.09    6.80
  -3  -9  -5   38.90    3.00
  -3  -9  -5   52.09    5.20
   3  -9   5   45.50    5.40
  -3  -9  -5   42.00    4.90
  -3   9  -5   53.69    6.30
  -4  -9  -5   11.80    4.60
   4  -9   5   14.70    5.20
  -4  -9  -5   12.80    4.80
  -4   9  -5   25.70    4.50
   4 -10  -5   16.80    4.90
   4 -10  -5    7.20    5.50
  -4 -10   5   14.40    3.40
   4  10  -5   11.10    4.20
  -4  10   5    9.60    3.80
  -3 -10   5   18.10    4.00
   3 -10  -5   22.60    5.50
  -3 -10   5   27.40    4.40
   3 -10  -5   19.50    5.20
  -3 -10   5   22.20    4.10
   3  10  -5   27.10    4.70
  -3  10   5   17.30    3.90
   2 -10  -5  435.26   12.20
  -2 -10   5  408.06   12.30
  -2 -10   5  381.66   14.60
   2 -10  -5  417.86   13.60
   2  10  -5  425.36   13.20
  -1 -10   5    2.70    3.50
   1 -10  -5   -4.10    3.30
  -1 -10   5    1.70    4.10
   1 -10  -5    0.30    4.70
   1  10  -5    1.30    3.70
   0 -10   5   24.70    4.80
   0 -10  -5   13.30    4.90
   0 -10   5   27.70    4.10
   0 -10  -5   20.10    3.30
   0  10  -5   19.20    4.40
  -1 -10  -5    2.00    3.10
   1 -10   5   -1.40    4.30
  -1 -10  -5   11.90    5.40
   1 -10   5    2.60    4.30
  -1  10  -5    2.80    4.10
   2 -10   5  108.89    8.60
  -2 -10  -5  122.19    8.20
  -2 -10  -5   77.49    4.40
  -2  10  -5  108.59    7.90
  10   0  -6  124.79    7.40
   9   0  -6   44.10    5.80
   9   0  -6   46.10    5.20
   8   0  -6 1388.06   29.70
   8   0  -6 1378.06   30.40
   8   0  -6 1397.66   28.00
   7   0  -6   19.90    2.20
   7   0  -6   16.00    2.50
   7   0  -6   11.70    3.20
   6   0  -6    6.40    0.80
   6   0  -6    2.90    2.00
   6   0  -6    6.20    1.40
   6   0  -6    4.60    2.50
   5   0  -6   92.99    3.40
   5   0  -6   90.39    3.70
   5   0  -6   89.69    4.30
   5   0  -6   89.49    2.60
   4   0  -6  374.06    9.20
   4   0  -6  391.96    9.50
   3   0  -6   54.19    2.80
  -3   0   6   53.99    2.90
  -3   0   6   53.09    1.70
   3   0  -6   53.29    2.10
   2   0  -6   11.00    1.20
   2   0  -6    9.90    1.40
  -2   0   6    9.70    1.20
  -2   0   6    9.00    1.50
  -1   0   6  134.59    4.10
   1   0  -6  137.39    4.10
  -1   0   6  140.89    4.10
   1   0  -6  132.49    4.10
   0   0  -6 2244.38   44.40
   0   0  -6 2140.49   44.20
   0   0   6 2237.78   44.30
   0   0  -6 2209.18   44.30
   0   0   6 2255.87   44.20
  -1   0  -6  771.02   16.50
   1   0   6  778.82   16.60
  -1   0  -6  757.32   16.60
  -1   0  -6  773.52   16.60
   1   0   6  754.52   16.50
   2   0   6   24.90    2.60
  -2   0  -6   24.90    2.30
   2   0   6   23.40    2.60
  -2   0  -6   24.10    2.40
  -2   0  -6   24.60    2.30
  -3   0  -6   83.59    3.50
   3   0   6   84.69    4.90
  -3   0  -6   85.59    3.80
  -4   0  -6  903.91   19.80
   4   0   6  932.21   20.40
  -4   0  -6  921.91   19.80
   4   0   6  938.71   20.40
   5   0   6  205.78    7.40
  -5   0  -6  203.48    6.10
  -5   0  -6  199.48    6.20
   5   0   6  191.78    7.10
  -6   0  -6    4.20    2.00
   6   0   6    1.30    2.90
   6   0   6    6.80    3.10
  -7   0  -6  223.58    8.10
   7   0   6  229.58    8.60
   7   0   6  212.08    8.80
  -7   0  -6  226.58    6.10
  -8   0  -6  167.08    8.40
  10  -1  -6   81.39    3.50
  10  -1  -6   85.99    3.90
  10   1  -6   73.19    6.00
   9  -1  -6   17.40    2.10
   9  -1  -6   16.60    1.80
   9  -1  -6   11.90    3.40
   9   1  -6   13.60    3.20
   9   1  -6   10.60    3.90
   8  -1  -6  233.88    7.90
   8  -1  -6  231.58    5.60
   8  -1  -6  221.38    9.30
   8  -1  -6  232.18    6.10
   8   1  -6  237.08    7.50
   8   1  -6  229.58    8.60
   7  -1  -6  298.97    9.40
   7  -1  -6  296.17    6.80
   7  -1  -6  306.27    9.00
   7   1  -6  292.97    9.10
   7   1  -6  310.97    8.30
   7   1  -6  300.97    7.30
   6  -1  -6  318.87    7.20
   6  -1  -6  320.97    9.00
   6  -1  -6  344.07    9.40
   6   1  -6  326.37    8.40
   6   1  -6  323.97    6.70
   6   1  -6  334.87    9.20
   6   1  -6  323.37    7.90
   5  -1  -6  184.38    5.80
   5  -1  -6  191.78    6.20
   5   1  -6  181.98    5.20
   5   1  -6  182.98    6.00
   5   1  -6  185.88    5.40
   5   1  -6  183.78    4.30
  -4  -1   6  221.18    6.00
   4  -1  -6  214.48    6.10
   4  -1  -6  212.78    6.20
   4  -1  -6  215.18    5.20
   4   1  -6  214.18    5.90
   4   1  -6  215.38    5.80
   4   1  -6  185.28    5.30
   3  -1  -6 2090.49   41.10
   3  -1  -6 2033.30   41.20
   3  -1  -6 2046.60   40.50
  -3  -1   6 2013.50   39.70
  -3  -1   6 2039.80   39.70
  -3  -1   6 2061.69   40.90
   3   1  -6 2042.70   40.90
  -3   1   6 1977.70   40.00
   3   1  -6 2025.00   40.40
  -3   1   6 2071.79   41.20
   3   1  -6 2078.39   41.10
  -2  -1   6  396.46    8.60
   2  -1  -6  384.46    9.30
  -2  -1   6  395.76    9.20
   2  -1  -6  383.76    8.90
   2   1  -6  405.36    8.90
  -2   1   6  386.16    9.30
  -2   1   6  393.66    8.80
   2   1  -6  393.56    9.10
   2   1  -6  399.76    9.40
   1  -1  -6  646.04   14.20
   1  -1  -6  625.14   13.90
  -1  -1   6  654.63   14.10
  -1  -1   6  646.34   13.80
  -1   1   6  651.73   14.20
  -1   1   6  667.43   14.00
   1   1  -6  649.24   13.90
   1   1  -6  650.93   14.30
   1   1  -6  653.73   14.10
   0  -1  -6  638.24   14.00
   0  -1   6  643.84   14.00
   0  -1   6  636.74   13.90
   0  -1  -6  632.24   14.00
   0   1  -6  643.94   14.00
   0   1   6  631.34   14.00
   0   1  -6  640.84   14.20
   0   1   6  661.13   14.10
   0   1  -6  646.44   14.10
  -1  -1  -6  747.73   16.20
   1  -1   6  742.53   16.10
  -1  -1  -6  745.53   16.10
   1  -1   6  747.23   16.20
  -1   1  -6  746.53   16.30
   1   1   6  744.13   16.10
  -1   1  -6  724.23   16.20
  -1   1  -6  738.93   16.20
   1   1   6  770.82   16.20
  -2  -1  -6  828.62   17.90
  -2  -1  -6  833.92   17.90
   2  -1   6  826.72   18.10
  -2   1  -6  827.02   18.00
  -2   1  -6  826.52   18.00
   2   1   6  841.52   17.90
   3  -1   6    1.70    1.80
  -3  -1  -6    2.80    1.30
  -3  -1  -6    2.20    1.70
   3  -1   6    2.80    1.80
   3   1   6   -2.20    1.70
  -3   1  -6    1.20    1.40
  -3   1  -6    2.90    1.40
   3   1   6    0.70    1.90
  -4  -1  -6   97.99    4.00
   4  -1   6   96.79    4.80
   4  -1   6  101.79    4.90
  -4  -1  -6   87.89    4.10
   4   1   6  107.29    4.60
  -4   1  -6  101.99    4.10
  -4   1  -6   96.79    4.20
   4   1   6   87.09    4.70
   5  -1   6  419.26   11.70
  -5  -1  -6  414.96   10.00
   5  -1   6  419.26   11.20
  -5  -1  -6  409.56   10.20
   5   1   6  418.96   10.80
  -5   1  -6  419.96   10.40
   5   1   6  415.26   11.50
  -6  -1  -6   65.39    3.50
  -6  -1  -6   66.49    4.70
  -6  -1  -6   69.89    3.80
   6  -1   6   69.39    5.60
   6  -1   6   66.79    5.50
   6   1   6   68.79    5.10
   6   1   6   63.39    5.60
  -6   1  -6   61.29    3.80
  -7  -1  -6   -0.60    3.40
  -7  -1  -6    0.10    1.60
   7  -1   6   -4.00    3.80
   7  -1   6   -5.00    3.70
   7   1   6    0.70    4.10
   7   1   6    5.90    4.00
  -7   1  -6   -0.70    3.80
  -7   1  -6    5.20    2.00
  -8  -1  -6  172.18    8.20
   8   1   6  168.08    9.40
  -8   1  -6  174.38    8.70
  10  -2  -6   -6.70    4.50
  10  -2  -6    1.20    2.30
  10  -2  -6   -1.60    2.90
  10   2  -6   -0.70    3.60
   9  -2  -6   54.19    5.70
   9  -2  -6   56.39    3.40
   9  -2  -6   52.09    3.90
   9  -2  -6   53.19    3.60
   9   2  -6   62.19    6.50
   9   2  -6   49.30    4.40
   8  -2  -6    9.80    3.60
   8  -2  -6    4.60    1.80
   8  -2  -6    8.20    1.60
   8  -2  -6    8.40    3.20
   8   2  -6   10.80    4.00
   8   2  -6    5.20    2.30
   7  -2  -6    1.70    1.30
   7  -2  -6    6.20    2.80
   7  -2  -6   -3.80    3.00
   7   2  -6    3.80    1.80
   7   2  -6    4.90    3.40
   7   2  -6   -0.10    0.80
   7   2  -6    1.00    0.90
   6  -2  -6 1068.79   23.20
   6  -2  -6 1067.79   23.10
   6  -2  -6 1045.70   21.40
   6   2  -6 1061.99   22.90
   6   2  -6 1059.19   21.90
   6   2  -6 1016.50   20.80
   6   2  -6 1013.00   20.80
   6   2  -6 1026.60   21.80
   5  -2  -6    8.40    2.00
   5  -2  -6    5.50    1.10
   5   2  -6    6.40    1.50
   5   2  -6    6.10    1.40
   5   2  -6    4.00    2.20
   5   2  -6    7.20    1.00
  -4  -2   6 1941.61   38.80
   4  -2  -6 1922.91   39.50
   4  -2  -6 1946.41   38.60
   4  -2  -6 2009.60   39.40
   4   2  -6 1904.91   38.20
   4   2  -6 1876.91   38.70
   4   2  -6 1943.81   39.10
   3  -2  -6   24.90    2.50
   3  -2  -6   24.00    1.80
   3  -2  -6   24.20    2.40
  -3  -2   6   23.30    1.30
  -3  -2   6   26.50    2.30
   3   2  -6   23.40    2.10
  -3   2   6   25.20    1.70
   3   2  -6   22.90    1.70
   3   2  -6   23.80    1.80
  -2  -2   6 1458.65   29.40
  -2  -2   6 1433.06   29.10
   2  -2  -6 1406.66   29.40
   2  -2  -6 1407.96   29.10
  -2  -2   6 1463.25   28.80
  -2  -2   6 1465.85   28.70
   2  -2  -6 1447.86   29.10
  -2   2   6 1432.06   29.00
  -2   2   6 1453.95   29.50
   2   2  -6 1422.36   29.50
   2   2  -6 1431.16   29.00
   2   2  -6 1382.96   29.10
  -1  -2   6   44.20    2.90
   1  -2  -6   43.40    2.60
  -1  -2   6   44.10    2.60
  -1  -2   6   48.80    2.50
   1  -2  -6   46.10    2.60
   1   2  -6   48.00    2.40
  -1   2   6   45.50    2.80
   1   2  -6   48.30    2.50
   1   2  -6   47.00    2.90
  -1   2   6   45.10    2.80
   0  -2   6  942.71   19.60
   0  -2  -6  905.31   19.60
   0  -2   6  931.91   19.50
   0  -2   6  941.71   19.90
   0  -2  -6  921.71   19.50
   0   2  -6  930.11   19.70
   0   2   6  925.91   19.70
   0   2  -6  921.31   19.70
   0   2  -6  940.31   20.00
   0   2   6  915.01   19.50
  -1  -2  -6   70.89    3.20
   1  -2   6   72.99    3.40
   1  -2   6   72.29    3.50
   1  -2   6   73.89    3.50
  -1  -2  -6   68.09    3.30
  -1   2  -6   74.39    3.50
   1   2   6   71.89    3.50
  -1   2  -6   75.09    3.30
  -1   2  -6   68.79    3.40
   1   2   6   74.39    3.20
  -2  -2  -6  649.54   14.70
   2  -2   6  656.93   14.90
  -2  -2  -6  646.74   14.50
   2  -2   6  642.94   16.00
   2  -2   6  670.83   14.90
   2   2   6  684.43   15.10
  -2   2  -6  667.53   14.90
   2   2   6  678.83   14.60
  -2   2  -6  659.73   15.00
   3  -2   6   18.30    2.50
  -3  -2  -6   17.80    2.00
  -3  -2  -6   17.10    2.20
   3  -2   6   16.70    2.50
   3   2   6   16.30    2.60
   3   2   6   17.60    2.10
  -3   2  -6   15.20    2.10
  -3   2  -6   16.90    2.10
  -4  -2  -6   29.50    3.10
   4  -2   6   27.00    3.00
   4  -2   6   23.60    3.00
   4   2   6   22.80    4.50
   4   2   6   25.70    3.40
  -4   2  -6   29.50    3.00
  -5  -2  -6  259.97    7.10
   5  -2   6  250.17    8.30
  -5  -2  -6  254.77    7.20
   5  -2   6  264.37    8.70
   5   2   6  243.88    9.00
   5   2   6  261.97    8.80
  -5   2  -6  253.77    7.50
  -6  -2  -6   20.00    2.20
   6  -2   6   21.40    3.90
  -6  -2  -6   19.40    3.00
   6  -2   6   25.40    3.50
  -6  -2  -6   20.60    2.40
   6   2   6   19.30    3.50
  -6   2  -6   22.20    2.80
   6   2   6   18.50    4.20
  -7  -2  -6  123.39    4.20
  -7  -2  -6  119.99    4.50
  -7  -2  -6  125.59    4.00
  -7  -2  -6  111.29    6.10
  -7   2  -6  123.29    5.10
   7   2   6  117.59    7.30
  -8  -2  -6   -4.60    3.90
   8   2   6    3.90    4.40
  -8   2  -6    1.70    1.50
  -8   2  -6    3.90    4.90
  10  -3  -6   28.00    3.60
  10  -3  -6   21.70    5.40
  10  -3  -6   21.90    3.40
  10   3  -6   23.00    3.70
   9  -3  -6   34.80    4.20
   9  -3  -6   36.10    3.60
   9  -3  -6   32.30    5.10
  -9   3   6   42.60    5.30
   9   3  -6   34.20    4.70
   9   3  -6   45.30    2.50
   9   3  -6   38.60    4.30
   9   3  -6   28.20    3.20
   8  -3  -6  250.27    8.90
   8  -3  -6  251.57    7.10
   8  -3  -6  259.37    7.20
   8   3  -6  241.88    6.00
   8   3  -6  242.08    9.30
   8   3  -6  244.88    5.90
  -8   3   6  228.68    9.00
   8   3  -6  253.47    7.00
   7  -3  -6   94.09    5.40
   7  -3  -6   94.59    4.80
   7  -3  -6  102.29    4.10
   7  -3  -6  101.09    6.10
   7   3  -6   96.89    3.40
   7   3  -6  104.09    5.60
   7   3  -6   98.59    3.90
  -7   3   6  109.19    5.50
   6  -3  -6  112.09    4.00
   6  -3  -6  106.19    5.60
   6  -3  -6  113.39    5.30
  -6   3   6  107.59    5.50
   6   3  -6  104.69    5.20
   6   3  -6  114.79    3.90
   6   3  -6  108.09    3.20
   6   3  -6  107.79    3.60
   5  -3  -6  106.89    4.90
   5  -3  -6  101.39    3.80
   5  -3  -6  101.09    4.80
   5   3  -6  118.29    5.40
   5   3  -6  104.19    3.50
   5   3  -6  101.79    3.20
   5   3  -6   98.59    3.50
   4  -3  -6   99.49    3.70
   4  -3  -6   91.89    4.80
  -4  -3   6  103.49    4.10
   4  -3  -6  100.29    4.40
  -4  -3   6   97.49    3.50
   4   3  -6   98.09    3.90
   4   3  -6  102.49    3.30
   4   3  -6   97.89    3.40
  -4   3   6   99.19    3.10
   3  -3  -6   95.19    4.00
  -3  -3   6   93.39    4.00
  -3  -3   6   96.29    2.80
   3  -3  -6   91.59    4.00
   3  -3  -6   93.09    3.70
  -3  -3   6   94.29    3.50
  -3  -3   6   95.99    2.90
   3   3  -6  100.29    3.80
   3   3  -6   96.59    3.30
  -3   3   6   91.29    3.40
   3   3  -6   94.39    3.30
  -2  -3   6   18.00    2.10
   2  -3  -6   14.00    1.80
  -2  -3   6   14.30    1.50
   2  -3  -6   14.60    1.70
   2  -3  -6   14.20    1.80
  -2  -3   6   15.00    1.50
  -2  -3   6   16.00    2.00
   2   3  -6   13.50    1.50
   2   3  -6   12.50    1.70
   2   3  -6   14.80    1.60
  -2   3   6   18.30    2.00
  -1  -3   6   42.60    2.50
  -1  -3   6   45.80    2.60
   1  -3  -6   40.60    2.70
   1  -3  -6   42.20    2.70
  -1  -3   6   41.10    3.10
  -1  -3   6   40.90    2.50
   1  -3  -6   45.10    2.30
   1   3  -6   45.00    2.70
   1   3  -6   43.40    2.70
  -1   3   6   39.40    2.90
   1   3  -6   37.10    2.50
  -1   3   6   43.90    2.90
   0  -3   6  404.86   10.00
   0  -3  -6  403.16    9.90
   0  -3   6  407.66    9.80
   0  -3  -6  417.46    9.80
   0  -3   6  413.66    9.80
   0   3  -6  414.96   10.20
   0   3   6  414.76    9.80
   0   3  -6  407.36    9.80
   0   3   6  409.56   10.00
  -1  -3  -6  141.59    4.50
   1  -3   6  122.39    5.40
   1  -3   6  135.19    5.00
   1  -3   6  143.69    5.20
  -1  -3  -6  143.89    4.90
   1   3   6  166.18    4.90
  -1   3  -6  143.19    4.90
   1   3   6  139.09    5.20
  -1   3  -6  140.49    5.10
   2  -3   6  654.63   16.20
   2  -3   6  681.93   15.30
  -2  -3  -6  659.03   15.10
  -2  -3  -6  671.63   14.70
  -2   3  -6  655.33   15.10
   2   3   6  676.03   15.40
   2   3   6  677.23   14.80
   3  -3   6  186.18    6.50
   3  -3   6  165.98    6.80
  -3  -3  -6  187.98    5.90
   3  -3   6  180.98    6.30
  -3  -3  -6  183.78    5.60
  -3   3  -6  182.38    6.00
   3   3   6  175.38    6.50
   3   3   6  183.78    5.80
  -4  -3  -6   16.10    2.40
   4  -3   6   15.10    2.50
   4  -3   6   13.80    2.70
   4  -3   6   12.90    2.50
   4   3   6   14.50    3.00
   4   3   6   18.90    2.50
  -4   3  -6   12.90    2.20
  -5  -3  -6   -1.30    2.00
   5  -3   6   -2.00    2.90
   5  -3   6    2.50    2.80
  -5  -3  -6    0.00    2.00
   5   3   6   -1.30    2.40
   5   3   6    0.70    3.10
  -5   3  -6   -1.50    1.90
  -6  -3  -6   23.10    2.80
   6  -3   6   22.90    3.80
  -6  -3  -6   29.90    2.90
  -6  -3  -6   21.00    2.50
   6  -3   6   23.90    4.10
  -6  -3  -6   23.90    3.10
   6   3   6   24.20    3.50
  -6   3  -6   20.60    2.80
   6   3   6   19.90    4.00
  -7  -3  -6   44.40    3.10
  -7  -3  -6   45.30    3.30
  -7  -3  -6   54.89    5.10
  -7  -3  -6   52.99    3.10
  -7   3  -6   43.20    4.20
   7   3   6   47.60    5.90
  -8  -3  -6   75.99    6.60
  -8   3  -6   78.69    8.50
  10  -4  -6   74.19    8.70
  10  -4  -6   62.49    6.40
  10  -4  -6   63.39    7.00
  10   4  -6   72.49    4.20
 -10   4   6   75.29    8.70
   9  -4  -6   57.29    5.90
   9  -4  -6   53.89    5.90
   9  -4  -6   54.09    5.30
  -9   4   6   50.09    5.60
   9   4  -6   46.10    5.10
   9   4  -6   50.89    4.20
   9   4  -6   58.19    3.10
   9   4  -6   58.49    3.50
   8  -4  -6    5.10    3.10
   8  -4  -6    9.00    2.50
   8   4  -6    3.70    2.30
   8   4  -6   11.50    4.20
   8   4  -6    2.80    1.50
  -8   4   6    2.00    3.70
   8   4  -6    3.70    1.70
   7  -4  -6   24.80    3.70
   7  -4  -6   30.90    3.80
   7  -4  -6   24.70    2.70
   7   4  -6   22.60    2.30
   7   4  -6   25.50    2.30
   7   4  -6   24.30    3.90
  -7   4   6   27.70    3.70
   7   4  -6   28.10    3.10
   6  -4  -6  364.96    9.20
   6  -4  -6  346.77   10.30
   6  -4  -6  339.27    9.90
  -6   4   6  346.67   10.00
   6   4  -6  364.36    8.40
   6   4  -6  352.86    8.60
   6   4  -6  362.46    8.20
   6   4  -6  361.66   10.00
   5  -4  -6  192.98    6.90
   5  -4  -6  198.28    6.20
  -5  -4   6  202.18    6.40
   5  -4  -6  207.08    6.90
   5   4  -6  200.68    5.50
   5   4  -6  199.18    5.20
  -5   4   6  205.68    6.80
   5   4  -6  202.08    5.70
  -4  -4   6 1507.35   30.20
   4  -4  -6 1505.55   31.70
   4  -4  -6 1510.55   31.00
  -4  -4   6 1503.45   31.10
   4  -4  -6 1509.45   31.30
   4   4  -6 1451.85   30.10
  -4   4   6 1507.15   30.30
   4   4  -6 1489.35   30.50
   3  -4  -6   16.20    2.10
  -3  -4   6   15.70    1.90
  -3  -4   6   17.80    1.70
   3  -4  -6   12.90    2.10
  -3  -4   6   18.00    2.30
   3  -4  -6   19.20    2.10
  -3  -4   6   18.50    1.70
   3   4  -6   16.50    2.00
  -3   4   6   11.30    1.90
   3   4  -6   14.30    1.80
  -2  -4   6    1.70    1.40
  -2  -4   6    1.60    1.30
   2  -4  -6    1.30    1.50
  -2  -4   6    0.70    1.10
   2  -4  -6    0.30    1.50
   2  -4  -6    2.10    1.40
  -2   4   6    1.30    1.60
   2   4  -6   -0.50    1.20
   2   4  -6    1.20    1.40
  -1  -4   6  302.87    9.60
   1  -4  -6  348.07    7.80
   1  -4  -6  343.57    8.60
  -1  -4   6  336.97    8.40
  -1  -4   6  343.27    8.50
   1  -4  -6  339.27    8.70
  -1  -4   6  347.77    8.50
  -1   4   6  346.37    8.80
   1   4  -6  332.97    8.50
   0  -4  -6 1193.68   25.30
   0  -4   6 1213.08   25.50
   0  -4  -6 1183.68   24.30
   0  -4   6 1238.68   26.10
   0  -4   6 1213.78   25.60
   0  -4  -6 1217.08   25.80
   0   4   6 1246.08   25.90
   0   4   6 1244.58   25.50
   0   4  -6 1209.08   25.70
   1  -4   6  116.59    4.70
   1  -4   6  113.89    4.70
  -1  -4  -6  113.09    3.10
  -1  -4  -6  112.69    4.40
   1  -4   6  134.29    6.10
  -1  -4  -6  115.59    4.20
  -1   4  -6  111.69    4.60
   1   4   6  118.29    4.50
   1   4   6  111.39    4.70
   2  -4   6   42.40    4.10
  -2  -4  -6   42.70    2.90
   2  -4   6   46.10    3.80
  -2  -4  -6   42.90    3.40
   2  -4   6   45.60    3.80
   2   4   6   40.40    3.20
   2   4   6   43.20    4.10
  -2   4  -6   39.40    3.40
   3  -4   6   14.90    2.70
   3  -4   6    9.70    2.30
  -3  -4  -6   15.20    1.90
   3  -4   6   12.30    2.60
  -3  -4  -6   16.10    2.60
   3   4   6   11.50    2.10
   3   4   6   12.60    2.90
  -3   4  -6    8.60    2.10
  -4  -4  -6   59.29    4.10
  -4  -4  -6   57.39    2.30
   4  -4   6   54.69    4.90
   4  -4   6   61.99    5.30
   4  -4   6   58.89    5.10
   4   4   6   54.59    3.80
   4   4   6   56.09    5.00
  -4   4  -6   49.40    4.00
   5  -4   6  275.87    9.10
   5  -4   6  281.67    9.60
  -5  -4  -6  278.27    6.80
  -5  -4  -6  281.57    8.00
   5  -4   6  279.87    8.90
  -5  -4  -6  282.77    8.20
  -5   4  -6  274.87    8.50
   5   4   6  277.67    8.30
   5   4   6  264.77    9.40
   6  -4   6  215.48    8.40
  -6  -4  -6  216.28    6.70
  -6  -4  -6  219.98    6.40
  -6  -4  -6  218.48    7.00
   6   4   6  207.78    8.90
   6   4   6  226.78    7.50
  -6   4  -6  213.38    7.30
  -7  -4  -6   53.99    3.20
  -7  -4  -6   43.70    4.40
  -7  -4  -6   48.20    3.70
  -7  -4  -6   49.20    3.50
  -7   4  -6   58.29    4.70
   7   4   6   70.29    6.00
   9  -5  -6   39.00    5.90
   9  -5  -6   34.30    4.40
   9  -5  -6   46.80    5.60
   9   5  -6   39.50    5.70
   9   5  -6   36.40    3.70
  -9   5   6   27.50    5.50
   9   5  -6   32.80    3.60
   8  -5  -6   83.59    5.60
   8  -5  -6   71.59    6.70
   8  -5  -6   73.09    6.10
   8   5  -6   75.99    7.00
   8   5  -6   81.29    4.80
   8   5  -6   78.29    3.90
  -8   5   6   74.59    6.60
   7  -5  -6  368.36   12.80
   7  -5  -6  384.46   10.60
   7  -5  -6  388.66   10.60
   7   5  -6  385.46    9.50
   7   5  -6  376.86   11.10
  -7   5   6  370.66   11.30
   6  -5  -6  384.36   10.30
   6  -5  -6  365.66   11.10
   6  -5  -6  368.06   10.20
  -6  -5   6  370.86    9.90
  -6   5   6  376.36   10.90
   6   5  -6  387.76   10.60
   6   5  -6  407.56   10.70
   6   5  -6  379.46    9.30
   6   5  -6  374.96    8.30
   5  -5  -6   49.80    3.90
   5  -5  -6   50.19    4.50
   5  -5  -6   46.50    4.30
  -5  -5   6   53.99    4.90
   5   5  -6   49.60    3.50
  -5   5   6   44.60    4.30
   5   5  -6   48.20    2.40
   5   5  -6   47.70    4.40
  -4  -5   6  170.98   10.00
   4  -5  -6  221.58    7.00
   4  -5  -6  212.88    7.20
  -4  -5   6  206.58    5.00
  -4  -5   6  213.28    5.60
   4  -5  -6  216.68    6.70
  -4  -5   6  209.08    5.00
  -4   5   6  213.68    6.30
   4   5  -6  218.58    6.30
  -4   5   6  204.88    6.50
  -3  -5   6  645.44   14.00
  -3  -5   6  646.64   15.40
  -3  -5   6  647.34   13.90
   3  -5  -6  639.84   15.10
   3  -5  -6  641.84   14.40
  -3  -5   6  643.34   14.00
   3  -5  -6  639.64   15.10
   3   5  -6  650.53   14.60
  -3   5   6  633.74   14.70
   2  -5  -6  733.63   17.20
   2  -5  -6  762.22   17.10
  -2  -5   6  762.32   16.40
  -2  -5   6  763.62   17.60
  -2  -5   6  761.32   16.50
   2  -5  -6  764.62   16.30
  -2  -5   6  754.42   16.70
  -2   5   6  762.22   17.10
   2   5  -6  775.32   17.00
   1  -5  -6   85.89    3.20
  -1  -5   6   86.39    3.80
  -1  -5   6   87.69    4.90
   1  -5  -6   83.69    3.90
   1  -5  -6   84.69    4.10
  -1  -5   6   87.99    4.20
   1   5  -6   88.89    4.20
  -1   5   6   91.09    4.70
   0  -5   6  453.05   11.60
   0  -5   6  442.46   11.10
   0  -5  -6  435.36   10.60
   0  -5  -6  436.76   11.20
   0  -5  -6  426.66    9.30
   0  -5   6  445.46   11.00
   0  -5   6  443.06   11.00
   0   5   6  434.96   11.30
   0   5  -6  429.66   11.00
   1  -5   6  587.24   14.00
  -1  -5  -6  574.84   14.00
   1  -5   6  585.64   14.30
  -1  -5  -6  581.14   13.20
   1  -5   6  590.14   14.00
   1  -5   6  581.24   14.10
   1   5   6  596.44   13.50
   1   5   6  596.34   14.40
  -1   5  -6  578.54   14.00
   2  -5   6   91.39    5.00
  -2  -5  -6   92.79    4.50
  -2  -5  -6   87.79    3.70
   2  -5   6   90.59    5.30
   2  -5   6   95.29    5.10
   2   5   6   95.99    5.40
  -2   5  -6   84.89    4.60
   2   5   6   86.59    4.40
   3  -5   6   81.89    5.20
   3  -5   6   87.59    5.60
   3  -5   6   88.09    5.60
  -3  -5  -6   89.29    4.80
  -3  -5  -6   88.89    4.90
  -3  -5  -6   89.09    3.70
   3   5   6   87.39    4.10
  -3   5  -6   81.49    4.60
   3   5   6   84.59    5.60
   4  -5   6  191.08    7.70
   4  -5   6  208.08    8.30
  -4  -5  -6  195.88    6.90
   4  -5   6  200.38    8.00
  -4   5  -6  191.28    6.90
   4   5   6  199.48    6.30
   4   5   6  202.08    8.10
  -5  -5  -6  320.17    9.10
  -5  -5  -6  314.97    9.20
   5  -5   6  331.17   10.90
   5  -5   6  344.47   12.00
   5   5   6  303.07   10.70
   5   5   6  317.37    8.90
  -5   5  -6  324.07    9.30
   6  -5   6  132.99    8.30
  -6  -5  -6  130.89    5.50
  -6   5  -6  130.49    6.30
   6   5   6  124.69    6.00
  -7  -5  -6   15.80    2.20
   7  -5   6   24.80    4.50
  -7  -5  -6   22.10    2.90
  -7   5  -6   26.70    3.20
   9  -6  -6   -1.80    5.60
   9  -6  -6   10.10    4.30
   9   6  -6    0.80    2.80
  -9   6   6    1.00    5.30
   9   6  -6    3.50    5.40
   8  -6  -6  130.79    8.50
   8  -6  -6  125.39    7.80
   8  -6  -6  136.59    7.30
   8   6  -6  137.99    7.20
   8   6  -6  143.49    8.30
   8   6  -6  135.59    5.80
  -8   6   6  146.49    8.20
   7  -6  -6    5.70    3.30
  -7  -6   6    8.80    3.10
   7  -6  -6    9.60    3.80
   7  -6  -6    6.30    3.90
   7   6  -6    3.00    3.70
   7   6  -6    7.30    2.20
   7   6  -6    4.50    3.00
   6  -6  -6   41.30    4.50
   6  -6  -6   66.29    5.30
  -6  -6   6   47.90    5.40
   6  -6  -6   47.30    5.00
   6   6  -6   49.70    5.40
   6   6  -6   42.80    3.80
  -6   6   6   53.79    5.50
   6   6  -6   50.59    4.90
   5  -6  -6    0.30    2.70
   5  -6  -6    3.10    2.90
  -5  -6   6   -3.60    2.80
   5  -6  -6    3.60    2.60
   5   6  -6    2.40    2.70
  -5   6   6    3.80    2.80
   5   6  -6    4.20    2.00
   4  -6  -6   20.10    3.10
   4  -6  -6   19.30    3.20
  -4  -6   6   24.10    3.10
  -4  -6   6   24.90    2.70
  -4  -6   6   24.30    2.70
  -4  -6   6   22.70    2.20
   4  -6  -6   17.20    3.00
   4   6  -6   25.20    2.50
  -4   6   6   22.80    2.60
  -4   6   6   20.00    3.30
   4   6  -6   28.20    3.20
  -3  -6   6    2.50    2.60
   3  -6  -6    9.60    2.60
  -3  -6   6    1.70    1.50
   3  -6  -6   -0.30    2.30
   3  -6  -6    1.30    2.30
  -3  -6   6    3.80    2.00
  -3  -6   6    3.30    2.00
  -3   6   6   -0.40    2.60
   3   6  -6    1.70    2.10
  -2  -6   6  804.32   17.60
   2  -6  -6  817.82   18.60
   2  -6  -6  804.12   18.40
  -2  -6   6  819.62   19.10
   2  -6  -6  795.82   18.70
  -2  -6   6  830.12   18.20
   2   6  -6  818.52   18.40
  -2   6   6  840.62   18.80
  -1  -6   6    7.00    2.20
  -1  -6   6    7.80    2.00
   1  -6  -6    8.60    2.60
   1  -6  -6   10.60    2.50
   1  -6  -6   10.70    2.50
  -1  -6   6    9.50    2.80
  -1   6   6    5.80    2.70
   1   6  -6   14.80    2.40
   0  -6  -6  161.58    6.30
   0  -6   6  164.78    6.40
   0  -6  -6  155.78    6.30
   0  -6  -6  159.68    5.40
   0  -6   6  170.18    6.00
   0  -6   6  162.88    7.00
   0  -6   6  158.28    6.10
   0   6  -6  162.48    6.10
   0   6   6  162.58    6.70
   1  -6   6    1.50    2.30
   1  -6   6   -1.20    2.10
  -1  -6  -6   -4.90    1.70
  -1  -6  -6   -2.20    2.10
   1  -6   6    0.10    2.20
  -1  -6  -6    3.40    2.50
   1  -6   6    1.40    2.40
  -1   6  -6   -0.10    1.70
   1   6   6    0.70    2.80
   2  -6   6  125.19    6.60
   2  -6   6  123.79    6.00
   2  -6   6  129.39    6.20
  -2  -6  -6  123.09    6.00
   2  -6   6  126.79    6.10
  -2  -6  -6  128.79    5.80
  -2  -6  -6  126.99    4.60
  -2   6  -6  129.29    5.60
   2   6   6  127.69    6.50
   3  -6   6   73.79    5.40
   3  -6   6   83.19    5.50
  -3  -6  -6   75.09    5.30
   3  -6   6   69.99    5.70
  -3  -6  -6   70.29    3.60
   3  -6   6   70.39    6.00
   3   6   6   69.49    5.90
  -3   6  -6   64.69    4.70
   4  -6   6  101.89    6.40
  -4  -6  -6   97.89    6.30
   4  -6   6  104.59    7.10
  -4  -6  -6  101.59    5.30
   4  -6   6   94.09    6.60
   4  -6   6   92.49    7.00
   4   6   6  109.99    6.80
  -4   6  -6   99.99    6.00
   4   6   6   98.99    5.00
  -5  -6  -6   54.89    4.80
   5  -6   6   54.39    6.70
  -5  -6  -6   42.70    4.50
  -5   6  -6   51.89    4.80
   5   6   6   47.00    4.40
  -6  -6  -6  191.38    6.80
   6  -6   6  195.28    9.20
  -6   6  -6  192.58    7.60
   6   6   6  172.18    6.30
   8  -7  -6   38.50    6.10
   8   7  -6   38.60    4.20
   8   7  -6   34.70    4.80
  -8   7   6   32.20    5.60
   8   7  -6   39.40    5.00
  -7  -7   6  234.28    8.80
   7  -7  -6  235.88    8.80
   7  -7  -6  217.98   10.00
   7   7  -6  221.68    7.80
  -7   7   6  213.28    9.20
   7   7  -6  215.28    8.90
   7   7  -6  205.48    8.70
   6  -7  -6   98.39    6.10
   6  -7  -6   82.19    6.10
  -6  -7   6   98.89    6.30
   6  -7  -6   98.49    7.00
  -6   7   6   98.69    6.60
   6   7  -6  103.29    6.50
   6   7  -6   95.09    6.70
   6   7  -6   96.39    5.40
   5  -7  -6   94.59    6.00
   5  -7  -6   90.19    5.80
  -5  -7   6   94.29    6.90
   5  -7  -6   99.69    6.20
   5   7  -6   92.29    5.30
  -5   7   6   87.79    5.70
   5   7  -6   93.99    5.90
  -4  -7   6   17.50    2.20
  -4  -7   6   17.20    2.10
  -4  -7   6   15.70    3.50
   4  -7  -6   14.00    3.40
   4  -7  -6   16.60    3.70
  -4  -7   6   18.00    1.90
   4  -7  -6   16.00    3.30
   4   7  -6   12.80    3.20
  -4   7   6   15.10    2.80
  -4   7   6   15.90    3.40
   4   7  -6   17.50    2.70
   3  -7  -6  197.68    7.60
   3  -7  -6  203.18    7.60
  -3  -7   6  204.58    6.00
   3  -7  -6  192.48    7.50
  -3  -7   6  193.88    6.40
  -3  -7   6  198.48    7.60
  -3   7   6  194.38    7.80
   3   7  -6  195.18    6.90
  -2  -7   6  124.39    5.40
  -2  -7   6  128.29    5.30
  -2  -7   6  113.79    6.70
  -2  -7   6  119.59    5.10
   2  -7  -6  107.59    5.80
   2  -7  -6  115.49    5.50
   2  -7  -6  128.69    6.20
   2   7  -6  126.29    5.60
  -2   7   6  118.19    6.40
  -1  -7   6  491.85   13.70
   1  -7  -6  485.15   13.10
  -1  -7   6  514.85   16.20
   1  -7  -6  507.15   13.20
  -1  -7   6  491.65   12.70
   1  -7  -6  497.45   12.40
  -1  -7   6  489.55   12.60
   1   7  -6  509.35   12.80
  -1   7   6  494.95   13.30
   0  -7   6  185.88    8.20
   0  -7   6  196.78    7.30
   0  -7   6  203.48    7.50
   0  -7  -6  189.08    6.20
   0  -7  -6  184.68    7.50
   0  -7   6  191.78    6.80
   0  -7  -6  201.18    7.40
   0   7  -6  202.48    7.20
   0   7   6  193.28    8.00
  -1  -7  -6  428.26   11.80
   1  -7   6  433.16   11.70
   1  -7   6  411.16   12.20
  -1  -7  -6  429.06   10.60
   1  -7   6  441.76   12.00
   1  -7   6  428.86   11.90
  -1  -7  -6  422.36   11.90
   1   7   6  436.46   12.40
  -1   7  -6  426.96   11.70
   2  -7   6   -5.10    2.80
   2  -7   6    2.50    2.80
  -2  -7  -6    1.40    2.80
  -2  -7  -6    2.20    2.00
   2  -7   6    6.10    3.00
   2  -7   6   -2.50    3.40
  -2  -7  -6   -1.50    3.10
  -2   7  -6    3.30    2.50
   2   7   6    1.80    3.40
   3  -7   6  466.65   13.70
   3  -7   6  460.55   13.40
  -3  -7  -6  464.65   12.90
  -3  -7  -6  489.05   13.00
  -3  -7  -6  474.55   11.10
   3  -7   6  488.45   15.10
  -3   7  -6  465.45   13.00
  -4  -7  -6    6.10    3.00
   4  -7   6   -1.70    3.90
   4  -7   6   -0.10    3.70
  -4  -7  -6    0.90    3.30
  -5  -7  -6   71.89    5.30
  -5  -7  -6   67.79    6.20
   5  -7   6   59.69    7.30
  -5   7  -6   59.39    6.10
  -6  -7  -6   67.19    5.80
   6  -7   6   58.49    6.60
  -6   7  -6   69.49    6.80
  -7  -8   6  158.48    8.60
   7  -8  -6  177.38   10.00
   7  -8  -6  180.08    9.10
  -7   8   6  174.38    9.80
   7   8  -6  166.38    8.80
   7   8  -6  161.58    7.70
   6  -8  -6  139.49    8.60
   6  -8  -6  136.99    8.10
  -6  -8   6  137.99    7.70
   6   8  -6  146.49    7.80
   6   8  -6  153.58    7.30
  -5  -8   6  115.39    3.80
  -5  -8   6  118.49    8.00
  -5  -8   6  111.29    3.50
   5  -8  -6  120.29    7.50
   5   8  -6  116.19    6.10
   5   8  -6  115.49    6.80
  -5   8   6  114.19    6.60
  -4  -8   6  176.98    6.10
  -4  -8   6  173.38    6.20
  -4  -8   6  183.28    8.20
   4  -8  -6  172.28    8.10
   4  -8  -6  176.98    7.80
  -4  -8   6  177.68    5.00
  -4   8   6  156.88    8.10
  -4   8   6  177.28    6.80
   4   8  -6  167.28    7.10
   3  -8  -6   14.40    3.60
  -3  -8   6    7.00    2.60
  -3  -8   6    4.70    2.90
   3  -8  -6   13.90    3.30
  -3  -8   6    4.00    2.30
  -3  -8   6   11.10    3.60
   3   8  -6    2.40    2.50
  -3   8   6   10.30    4.00
  -2  -8   6  115.69    5.90
   2  -8  -6  117.29    6.60
   2  -8  -6  132.29    6.20
  -2  -8   6  130.89    6.70
   2  -8  -6  139.69    6.50
  -2  -8   6  140.19    7.40
  -2  -8   6  136.29    6.30
  -2   8   6  131.29    7.10
   2   8  -6  131.39    6.70
   1  -8  -6   64.69    5.70
  -1  -8   6   49.40    4.90
  -1  -8   6   56.69    4.90
   1  -8  -6   50.19    5.60
   1  -8  -6   55.29    4.30
  -1  -8   6   53.59    6.20
  -1  -8   6   55.29    6.00
  -1   8   6   55.99    5.60
   1   8  -6   55.69    5.00
   0  -8  -6    4.10    3.50
   0  -8   6   -2.80    2.90
   0  -8   6    3.90    3.50
   0  -8   6    3.30    3.30
   0  -8   6    3.40    3.20
   0  -8  -6    6.90    3.20
   0  -8  -6    5.80    2.50
   0   8  -6    1.10    2.70
   0   8   6    0.90    3.50
  -1  -8  -6   91.59    6.40
   1  -8   6   70.49    5.80
   1  -8   6   70.79    5.90
  -1  -8  -6   82.19    4.60
  -1  -8  -6   84.79    5.80
   1  -8   6   74.39    5.80
   1  -8   6   80.69    5.70
  -1   8  -6   79.59    5.40
  -2  -8  -6  217.68    9.30
   2  -8   6  250.37    9.60
   2  -8   6  240.78    9.00
  -2  -8  -6  251.17    9.30
  -2  -8  -6  237.78    7.00
  -2   8  -6  232.48    9.00
  -3  -8  -6   56.89    5.80
   3  -8   6   58.19    6.60
  -3  -8  -6   60.59    6.00
  -3  -8  -6   62.89    3.50
  -3   8  -6   64.99    6.10
   4  -8   6   35.20    5.20
  -4  -8  -6   25.00    4.60
  -4  -8  -6   49.70    5.70
  -4   8  -6   32.50    4.40
  -5  -8  -6    8.00    3.80
   5  -8   6   12.60    5.40
  -5   8  -6    7.00    4.00
   6  -9  -6   48.20    6.50
   6  -9  -6   45.10    6.30
   6   9  -6   50.49    5.20
   6   9  -6   38.50    5.00
  -6   9   6   48.90    5.70
   5  -9  -6  627.44   17.10
   5  -9  -6  611.34   17.50
  -5  -9   6  573.54   12.90
  -5  -9   6  539.35   14.20
  -5   9   6  611.24   15.60
   4  -9  -6  145.49    8.10
   4  -9  -6  143.59    8.40
  -4  -9   6  137.79    4.30
  -4  -9   6  140.09    6.10
  -4   9   6  139.19    7.00
  -4   9   6  144.39    8.30
  -3  -9   6   10.00    3.30
  -3  -9   6   12.50    3.80
  -3  -9   6   11.00    2.50
   3  -9  -6    9.70    4.30
   3  -9  -6    1.40    4.30
  -3   9   6    4.80    4.50
   2  -9  -6   55.59    5.40
  -2  -9   6   58.29    5.80
  -2  -9   6   48.00    5.80
  -2  -9   6   62.89    5.90
   2  -9  -6   57.19    5.90
   2   9  -6   59.09    5.90
  -1  -9   6  397.06   11.80
   1  -9  -6  409.66   12.70
  -1  -9   6  373.26   11.80
  -1  -9   6  405.46   11.30
   1  -9  -6  401.46   11.20
   1   9  -6  396.86   12.30
   0  -9   6   60.09    6.20
   0  -9   6   53.19    6.30
   0  -9  -6   59.99    7.30
   0  -9  -6   67.99    4.90
   0   9  -6   71.99    6.10
   1  -9   6    7.20    3.50
  -1  -9  -6   -0.70    2.60
  -1  -9  -6    9.70    4.20
   1  -9   6   -2.40    3.70
  -1   9  -6    5.90    3.70
   2  -9   6  242.18   10.30
  -2  -9  -6  242.58    9.90
  -2  -9  -6  250.17    7.40
  -2   9  -6  246.18    9.70
   3  -9   6  295.27   12.10
  -3  -9  -6  300.87   11.10
  -3   9  -6  309.67   11.10
  -4  -9  -6  156.78    8.80
   4  -9   6  170.08   10.10
  -4   9  -6  150.28    9.50
   4 -10  -6    2.60    5.50
   4 -10  -6   -1.10    5.50
  -4 -10   6    5.90    3.50
   4  10  -6   -5.80    4.00
   3 -10  -6   -4.20    4.10
   3 -10  -6   -0.60    4.90
  -3 -10   6   -6.00    3.90
  -3 -10   6   -0.40    3.50
   3  10  -6    4.80    4.00
  -2 -10   6    6.00    4.00
  -2 -10   6   -1.20    4.50
   2 -10  -6    3.90    5.10
  -2 -10   6    1.80    3.40
   2  10  -6   -7.60    3.90
   1 -10  -6   17.70    3.70
  -1 -10   6   12.40    3.50
  -1 -10   6    9.40    4.90
   1 -10  -6   19.10    5.40
   1  10  -6   14.40    4.50
   0 -10   6  112.19    8.20
   0 -10   6   88.79    7.20
   0 -10  -6  107.09    8.70
   0 -10  -6  108.99    6.20
   0  10  -6  102.09    7.70
  -1 -10  -6   17.30    5.50
   1 -10   6   13.20    5.20
  -1 -10  -6   17.20    3.40
  -1  10  -6   17.60    4.60
   2 -10   6   13.40    5.30
  -2 -10  -6    3.70    2.60
  -2 -10  -6   12.60    5.60
  -2  10  -6   15.00    4.90
  10   0  -7   -4.00    3.40
   9   0  -7    0.30    3.40
   9   0  -7   -2.60    1.50
   8   0  -7    5.70    3.60
   8   0  -7    2.20    1.70
   8   0  -7    2.30    1.20
   8   0  -7   -0.90    2.90
   7   0  -7   -1.30    2.00
   7   0  -7    0.10    1.80
   7   0  -7   -0.90    1.00
   7   0  -7   -1.60    2.90
   6   0  -7    0.70    1.70
   6   0  -7   -0.90    2.40
   6   0  -7   -0.90    1.00
   6   0  -7   -0.20    1.50
   5   0  -7    0.00    1.30
   5   0  -7    0.20    2.00
   5   0  -7   -0.80    1.40
   5   0  -7    2.40    1.00
  -4   0   7    0.20    1.50
   4   0  -7    0.40    1.40
   4   0  -7    0.70    0.80
   3   0  -7    0.20    1.00
  -3   0   7    0.10    1.40
   3   0  -7    0.80    1.30
  -3   0   7    1.10    0.90
   2   0  -7    0.00    1.00
  -2   0   7   -0.70    1.10
   2   0  -7    0.90    1.20
  -2   0   7   -1.50    1.30
   1   0  -7   -0.70    1.20
  -1   0   7   -1.70    1.40
  -1   0   7    0.70    1.10
   1   0  -7   -1.60    1.20
   0   0   7    0.40    1.40
   0   0  -7   -2.20    1.30
   0   0  -7   -0.40    1.20
   0   0   7   -0.70    1.40
   0   0  -7    1.80    1.40
   1   0   7   -1.10    1.50
  -1   0  -7    0.80    1.50
   1   0   7    0.60    1.50
  -1   0  -7    1.50    1.50
  -1   0  -7   -1.80    1.40
  -2   0  -7   -1.40    1.40
  -2   0  -7   -0.90    1.50
   2   0   7    1.00    1.70
  -2   0  -7    0.90    1.50
   2   0   7   -0.70    2.20
   3   0   7   -0.90    1.90
   3   0   7   -2.70    2.10
  -3   0  -7   -0.40    1.60
  -3   0  -7    0.60    1.70
  -4   0  -7    0.70    2.00
   4   0   7   -2.40    2.70
   4   0   7    0.70    2.50
  -4   0  -7   -2.20    2.00
  -5   0  -7   -0.40    2.00
   5   0   7   -0.80    2.90
  -5   0  -7   -1.60    1.80
   5   0   7   -0.20    2.80
   6   0   7   -0.60    3.30
   6   0   7   -1.70    3.60
  -6   0  -7    0.50    2.20
  -7   0  -7    3.60    2.50
  -7   0  -7    2.00    4.00
   7   0   7    1.70    4.60
  -8   0  -7    7.00    5.00
  10  -1  -7    8.10    2.00
  10  -1  -7    3.80    5.10
  10  -1  -7    8.30    2.00
  10   1  -7   10.50    3.90
   9  -1  -7    5.10    1.70
   9  -1  -7    8.60    3.70
   9  -1  -7    5.70    1.90
   9  -1  -7   10.10    2.00
   9   1  -7    8.70    3.20
   8  -1  -7  113.29    5.90
   8  -1  -7  109.49    4.60
   8  -1  -7  113.59    6.90
   8   1  -7  118.89    5.60
   8   1  -7  118.69    4.30
   8   1  -7  115.29    6.70
   7  -1  -7  223.58    8.20
   7  -1  -7  217.48    6.00
   7  -1  -7  224.68    7.40
   7   1  -7  216.98    8.00
   7   1  -7  233.08    7.10
   7   1  -7  224.48    6.40
   7   1  -7  231.58    5.10
   6  -1  -7  108.49    3.30
   6  -1  -7  109.49    4.90
   6  -1  -7  103.59    5.40
   6   1  -7  107.69    4.20
   6   1  -7  104.09    3.00
   6   1  -7   99.69    5.30
   6   1  -7  106.89    4.30
   5  -1  -7   77.29    2.70
   5  -1  -7   78.99    4.40
   5  -1  -7   79.29    3.90
   5   1  -7   77.99    3.50
   5   1  -7   72.99    4.20
   5   1  -7   70.09    2.90
   5   1  -7   76.49    3.50
   4  -1  -7   70.89    3.50
  -4  -1   7   68.09    3.40
   4  -1  -7   69.19    2.70
   4   1  -7   63.49    3.10
   4   1  -7   66.79    2.50
   4   1  -7   67.69    3.50
  -3  -1   7   69.59    2.20
   3  -1  -7   69.49    2.80
  -3  -1   7   69.99    2.40
   3  -1  -7   73.79    3.40
  -3  -1   7   69.89    3.50
  -3   1   7   68.79    2.60
   3   1  -7   73.99    3.50
   3   1  -7   69.69    2.70
  -3   1   7   75.89    3.60
   3   1  -7   71.19    3.10
   2  -1  -7  212.28    6.10
  -2  -1   7  222.28    6.10
  -2  -1   7  215.48    5.50
   2  -1  -7  213.08    5.80
   2   1  -7  222.18    6.30
  -2   1   7  214.78    6.20
   2   1  -7  221.08    6.00
  -2   1   7  217.38    5.70
   2   1  -7  217.68    5.70
  -1  -1   7 1451.75   29.30
   1  -1  -7 1419.36   29.30
   1  -1  -7 1426.36   29.20
  -1  -1   7 1449.55   29.00
  -1   1   7 1434.76   29.10
   1   1  -7 1411.36   29.50
  -1   1   7 1436.96   29.30
   1   1  -7 1386.26   29.10
   1   1  -7 1392.26   29.20
   0  -1  -7  487.05   11.30
   0  -1  -7  485.35   11.30
   0  -1   7  486.85   11.30
   0  -1   7  498.85   11.40
   0   1  -7  474.65   11.30
   0   1   7  496.15   11.30
   0   1  -7  467.35   11.20
   0   1   7  488.85   11.30
   0   1  -7  472.55   11.50
  -1  -1  -7   16.40    2.00
   1  -1   7   16.70    2.10
  -1  -1  -7   17.90    2.10
  -1   1  -7   15.50    1.90
   1   1   7   20.20    2.20
  -1   1  -7   13.00    1.90
  -1   1  -7   17.10    1.90
  -2  -1  -7  984.00   21.30
   2  -1   7 1034.90   21.70
  -2  -1  -7  981.00   21.30
   2  -1   7  983.90   21.40
   2   1   7 1006.50   21.50
  -2   1  -7  992.80   21.30
   2   1   7  943.91   22.00
  -2   1  -7  977.00   21.30
   3  -1   7  404.56   10.40
  -3  -1  -7  382.06    9.80
  -3  -1  -7  380.76   10.00
   3  -1   7  373.06   10.10
  -3  -1  -7  385.86    9.70
   3   1   7  427.06   11.10
  -3   1  -7  378.96    9.90
  -3   1  -7  383.76    9.90
   3   1   7  388.46   10.20
   4  -1   7    5.70    2.50
  -4  -1  -7    7.80    1.80
  -4  -1  -7    6.90    2.20
   4  -1   7    5.20    2.60
   4   1   7    2.30    2.30
   4   1   7    5.60    2.70
  -4   1  -7    4.30    1.90
  -4   1  -7    2.90    1.90
  -5  -1  -7   91.19    4.50
   5  -1   7   91.19    5.90
   5  -1   7   92.09    5.80
  -5  -1  -7   93.69    4.70
   5   1   7   93.59    5.30
  -5   1  -7   97.09    4.70
   5   1   7  103.19    6.00
  -5   1  -7   94.79    4.90
  -6  -1  -7   45.40    3.80
   6  -1   7   55.89    5.80
  -6  -1  -7   42.40    3.80
   6  -1   7   58.09    5.50
   6   1   7   45.70    4.40
   6   1   7   41.60    5.00
  -6   1  -7   39.30    4.00
  -7  -1  -7  148.69    7.30
  -7  -1  -7  154.58    5.50
  -7   1  -7  140.79    5.60
   7   1   7  135.49    8.50
  -8  -1  -7  133.59   10.10
  -8   1  -7  159.38   10.00
  10  -2  -7  553.34   15.60
  10  -2  -7  519.65   12.40
  10  -2  -7  528.15   12.00
  10  -2  -7  534.25   13.00
   9  -2  -7  161.48    5.20
   9  -2  -7  165.48    7.70
   9  -2  -7  161.08    5.50
   9   2  -7  168.58    9.30
   9   2  -7  168.78    6.50
   8  -2  -7   54.99    5.00
   8  -2  -7   48.30    3.00
   8  -2  -7   53.59    5.10
   8   2  -7   46.60    4.60
   8   2  -7   47.10    2.00
   8   2  -7   49.60    4.10
   7  -2  -7   28.30    3.40
   7  -2  -7   29.30    2.50
   7  -2  -7   23.80    3.80
   7   2  -7   29.80    3.00
   7   2  -7   29.40    3.20
   7   2  -7   21.10    3.90
   7   2  -7   28.80    1.80
   6  -2  -7 3497.15   68.09
   6  -2  -7 3339.07   66.49
   6  -2  -7 3379.06   67.99
   6   2  -7 3346.87   66.99
   6   2  -7 3275.47   66.89
   6   2  -7 3436.86   67.89
   5  -2  -7  258.47    7.60
   5  -2  -7  241.78    6.40
   5  -2  -7  257.97    7.80
   5   2  -7  253.47    7.60
   5   2  -7  249.48    7.00
   5   2  -7  253.77    6.80
   5   2  -7  251.87    6.00
  -4  -2   7   63.49    3.20
   4  -2  -7   67.69    3.00
   4  -2  -7   70.29    3.70
  -4   2   7   68.29    2.10
   4   2  -7   65.19    3.40
   4   2  -7   64.69    3.10
   4   2  -7   62.19    2.50
  -3  -2   7  574.64   13.10
   3  -2  -7  552.74   13.30
  -3  -2   7  582.54   12.10
  -3  -2   7  599.24   12.20
   3  -2  -7  597.64   13.30
   3  -2  -7  575.64   12.90
   3   2  -7  587.04   13.00
   3   2  -7  603.54   13.50
   3   2  -7  581.54   12.70
  -3   2   7  590.24   13.80
  -3   2   7  577.84   12.60
   2  -2  -7 3812.62   77.59
  -2  -2   7 4045.30   77.19
   2  -2  -7 3906.51   77.89
  -2  -2   7 4058.09   77.69
   2   2  -7 3945.81   78.09
  -2   2   7 3936.91   77.49
   2   2  -7 3976.60   77.69
  -2   2   7 3826.32   77.89
   2   2  -7 3970.10   77.49
  -1  -2   7  940.51   19.70
  -1  -2   7  920.01   19.90
   1  -2  -7  955.00   20.00
   1  -2  -7  929.81   20.00
   1   2  -7  935.61   20.00
  -1   2   7  960.90   20.00
   1   2  -7  925.61   20.30
   1   2  -7  925.81   19.90
  -1   2   7  942.11   20.10
   0  -2  -7  963.40   20.70
   0  -2   7  959.60   20.50
   0  -2  -7  939.51   20.50
   0  -2   7  978.50   20.70
   0   2   7  996.60   20.80
   0   2  -7  967.60   20.90
   0   2   7  976.50   20.70
   0   2  -7  947.71   20.60
   0   2  -7  973.20   20.80
  -1  -2  -7  179.28    5.50
  -1  -2  -7  172.98    5.60
   1  -2   7  172.08    5.80
   1  -2   7  181.68    5.70
   1   2   7  185.98    5.60
  -1   2  -7  177.58    5.90
  -1   2  -7  175.88    5.80
  -1   2  -7  182.78    5.70
   1   2   7  186.18    5.90
   2  -2   7 2936.81   58.49
  -2  -2  -7 2853.91   58.19
   2  -2   7 2999.60   58.39
  -2  -2  -7 2811.32   57.99
   2   2   7 2894.21   58.39
   2   2   7 2943.81   58.09
  -2   2  -7 2882.71   58.39
  -2   2  -7 2932.71   58.29
  -3  -2  -7  507.35   12.30
   3  -2   7  518.75   12.70
  -3  -2  -7  509.35   12.20
   3  -2   7  494.15   12.70
  -3   2  -7  487.65   12.20
  -3   2  -7  502.65   12.50
   3   2   7  514.75   12.20
   3   2   7  520.75   12.70
  -4  -2  -7   72.39    4.10
   4  -2   7   77.59    5.20
   4  -2   7   63.19    4.90
  -4  -2  -7   78.59    4.10
  -4   2  -7   67.39    4.20
   4   2   7   72.39    5.10
   4   2   7   79.09    4.90
   5  -2   7  318.37    9.90
   5  -2   7  326.27   10.30
  -5  -2  -7  309.17    8.80
  -5  -2  -7  317.47    8.60
  -5   2  -7  321.47    8.90
   5   2   7  328.27   10.20
   5   2   7  315.87    9.30
   6  -2   7  758.72   19.60
  -6  -2  -7  820.82   17.90
  -6  -2  -7  810.42   17.60
  -6  -2  -7  777.72   18.20
  -6   2  -7  818.52   18.20
   6   2   7  785.42   19.50
   6   2   7  807.42   19.00
  -7  -2  -7  200.58    5.90
  -7  -2  -7  205.98    6.30
  -7  -2  -7  206.38    8.10
  -7  -2  -7  189.78    6.20
  -7   2  -7  213.88    7.00
   7   2   7  193.28    9.30
  10  -3  -7    0.70    3.30
  10  -3  -7    1.60    3.20
  10  -3  -7   10.30    5.40
  10   3  -7    5.90    3.80
   9  -3  -7  745.53   16.60
   9  -3  -7  743.43   19.10
   9  -3  -7  740.53   16.60
   9   3  -7  707.73   15.30
   9   3  -7  744.23   20.60
   9   3  -7  752.42   16.70
   9   3  -7  727.23   15.20
   8  -3  -7  148.19    7.50
   8  -3  -7  157.38    5.70
   8  -3  -7  155.78    7.30
   8   3  -7  154.98    4.60
   8   3  -7  153.98    8.10
   8   3  -7  161.18    5.60
   7  -3  -7  199.98    7.70
   7  -3  -7  208.08    8.70
   7  -3  -7  220.08    6.40
   7   3  -7  206.08    6.20
   7   3  -7  203.18    5.20
   7   3  -7  210.58    7.80
   6  -3  -7    3.20    2.90
   6  -3  -7    4.00    1.70
   6  -3  -7    3.80    2.50
   6   3  -7   -1.20    3.00
   6   3  -7    2.60    1.10
   6   3  -7    3.10    1.60
   5  -3  -7  126.19    5.60
   5  -3  -7  130.99    4.60
  -5  -3   7  130.39    4.60
   5  -3  -7  128.69    5.50
   5   3  -7  129.49    4.30
   5   3  -7  126.09    4.80
   5   3  -7  132.69    4.00
  -4  -3   7  519.05   11.90
   4  -3  -7  524.05   12.50
   4  -3  -7  521.85   12.80
   4  -3  -7  527.65   12.10
   4   3  -7  530.95   11.70
   4   3  -7  517.15   11.80
   4   3  -7  529.95   12.50
  -4   3   7  527.55   11.30
  -3  -3   7  126.99    4.90
   3  -3  -7  131.79    4.90
  -3  -3   7  130.09    4.40
   3  -3  -7  130.89    4.90
  -3  -3   7  132.19    3.70
  -3  -3   7  133.69    3.80
   3  -3  -7  135.19    4.50
   3   3  -7  136.89    4.40
   3   3  -7  144.09    5.10
  -3   3   7  127.99    4.40
   3   3  -7  131.99    4.40
  -2  -3   7   50.79    2.70
   2  -3  -7   44.10    3.10
  -2  -3   7   52.69    3.20
   2  -3  -7   49.60    3.10
  -2  -3   7   51.49    4.10
   2  -3  -7   52.19    2.90
  -2  -3   7   52.09    2.70
   2   3  -7   52.19    2.90
   2   3  -7   49.00    3.10
   2   3  -7   49.10    2.80
  -2   3   7   45.60    3.00
   1  -3  -7  590.34   13.70
  -1  -3   7  627.24   13.40
   1  -3  -7  581.14   13.60
  -1  -3   7  582.54   13.40
  -1   3   7  607.34   13.70
   1   3  -7  600.04   14.10
   1   3  -7  591.54   13.60
   1   3  -7  589.34   13.50
  -1   3   7  601.34   13.70
   0  -3  -7   60.39    3.10
   0  -3   7   54.19    5.70
   0  -3   7   64.39    3.90
   0  -3  -7   62.19    3.40
   0   3  -7   62.69    3.40
   0   3  -7   62.09    3.50
   0   3   7   60.49    3.40
   0   3   7   63.99    3.80
   0   3  -7   63.89    3.40
   1  -3   7   42.00    3.30
  -1  -3  -7   41.70    3.10
   1  -3   7   44.60    3.70
  -1  -3  -7   39.80    3.20
  -1   3  -7   39.70    3.20
   1   3   7   37.70    3.50
  -1   3  -7   45.70    3.50
   1   3   7   48.60    3.80
  -2  -3  -7   58.29    3.70
   2  -3   7   56.29    4.20
  -2  -3  -7   56.79    3.50
   2  -3   7   57.09    4.20
   2   3   7   56.79    3.60
  -2   3  -7   64.19    4.20
  -2   3  -7   58.39    3.70
   2   3   7   59.19    4.40
  -3  -3  -7  380.46    9.90
  -3  -3  -7  370.46    9.60
   3  -3   7  386.76   10.20
   3  -3   7  377.46   10.40
   3  -3   7  373.26   10.60
   3   3   7  384.56   10.60
  -3   3  -7  374.76   10.00
   4  -3   7   21.40    3.30
  -4  -3  -7   15.50    2.70
   4  -3   7   15.10    3.10
   4   3   7   16.40    3.40
  -4   3  -7   12.90    2.60
   4   3   7   23.60    5.10
   5  -3   7    2.90    3.10
  -5  -3  -7   -3.90    2.40
  -5  -3  -7    0.10    2.30
   5  -3   7    5.00    3.30
  -5  -3  -7    3.00    2.10
   5   3   7    4.90    3.00
   5   3   7    8.10    3.60
  -5   3  -7   -1.30    2.20
  -6  -3  -7  166.88    6.10
  -6  -3  -7  166.28    6.30
  -6  -3  -7  162.18    6.10
  -6   3  -7  165.98    6.60
   6   3   7  177.08    7.50
  -7  -3  -7  259.87    7.40
  -7  -3  -7  278.37    8.80
  -7  -3  -7  285.27    7.50
  -7  -3  -7  266.27    7.90
   7   3   7  265.27    9.90
  -7   3  -7  279.57    8.50
  10  -4  -7   73.69    8.90
  10  -4  -7   67.79    6.30
  10   4  -7   79.79    4.70
   9  -4  -7    1.60    2.90
   9  -4  -7    6.30    3.70
   9  -4  -7    1.30    4.70
   9   4  -7    2.80    1.70
   9   4  -7    7.50    2.50
   9   4  -7    7.00    2.50
   8  -4  -7  228.98    9.20
   8  -4  -7  220.38    7.30
   8  -4  -7  221.88    7.40
   8   4  -7  220.18    6.70
   8   4  -7  217.08    9.40
   8   4  -7  225.28    6.10
   8   4  -7  231.38    6.40
   7  -4  -7    0.50    4.20
   7  -4  -7    8.80    2.60
   7  -4  -7    5.50    3.10
   7  -4  -7    4.30    2.30
   7   4  -7    3.70    1.50
   7   4  -7    6.90    2.10
   7   4  -7    8.10    2.00
   7   4  -7    7.00    3.20
   6  -4  -7    6.00    3.10
   6  -4  -7    2.70    2.60
   6  -4  -7    4.70    2.20
   6   4  -7    7.00    1.70
   6   4  -7    3.60    2.70
   6   4  -7    3.80    1.40
   5  -4  -7    4.80    1.80
  -5  -4   7    0.60    1.70
  -5  -4   7    3.30    2.00
   5  -4  -7    3.70    2.60
   5  -4  -7    4.80    2.40
   5   4  -7    2.80    1.40
   5   4  -7    0.10    1.50
  -4  -4   7  230.08    7.20
  -4  -4   7  236.18    6.50
   4  -4  -7  219.48    7.40
   4  -4  -7  243.98    6.90
   4  -4  -7  261.97    8.50
   4   4  -7  232.58    6.40
   4   4  -7  230.78    6.30
  -4   4   7  234.38    6.40
   3  -4  -7   -4.40    1.70
  -3  -4   7    2.30    1.20
  -3  -4   7   -0.20    2.10
  -3  -4   7    1.00    1.30
   3  -4  -7   -1.50    1.80
  -3  -4   7    0.40    1.60
   3  -4  -7   -1.60    1.80
   3   4  -7    3.40    1.40
   3   4  -7    1.10    1.40
  -3   4   7    1.60    1.60
   2  -4  -7  124.79    4.40
  -2  -4   7  132.29    4.60
   2  -4  -7  131.19    4.90
   2  -4  -7  131.19    4.90
  -2  -4   7  129.09    4.50
  -2  -4   7  131.49    4.40
   2   4  -7  132.59    4.60
   2   4  -7  131.99    4.90
  -2   4   7  131.19    5.20
   1  -4  -7  237.98    7.10
  -1  -4   7  236.58    7.60
   1  -4  -7  241.58    6.20
  -1  -4   7  247.98    6.80
  -1  -4   7  241.18    6.80
   1  -4  -7  236.68    6.90
  -1  -4   7  237.88    6.80
   1   4  -7  242.58    7.00
  -1   4   7  246.68    7.30
   0  -4  -7 1047.00   22.60
   0  -4   7 1076.19   22.90
   0  -4  -7 1050.39   21.60
   0  -4   7 1047.00   23.20
   0  -4  -7 1072.89   23.10
   0   4   7 1073.59   23.10
   0   4   7 1087.99   22.90
   0   4  -7 1033.60   22.90
   1  -4   7   15.70    2.60
   1  -4   7   19.50    2.70
  -1  -4  -7   18.60    2.40
   1  -4   7   17.60    2.50
  -1  -4  -7   18.10    2.40
   1   4   7   19.00    2.50
   1   4   7   16.70    2.90
  -1   4  -7   17.30    2.40
  -2  -4  -7  316.87    8.40
   2  -4   7  327.67    9.20
   2  -4   7  310.27    9.20
   2  -4   7  321.57    9.50
  -2  -4  -7  302.77    9.10
  -2   4  -7  314.87    8.90
   2   4   7  324.07    9.50
   2   4   7  337.57    8.70
   3  -4   7   36.30    3.60
  -3  -4  -7   44.00    4.10
   3  -4   7   38.70    3.60
  -3  -4  -7   43.30    3.30
   3  -4   7   37.50    3.70
  -3   4  -7   34.90    4.10
   3   4   7   37.60    5.30
   3   4   7   35.10    3.80
  -4  -4  -7  326.47    7.50
  -4  -4  -7  326.47    9.40
   4  -4   7  326.17   10.30
   4  -4   7  313.07    9.80
   4  -4   7  329.67   10.10
  -4   4  -7  331.97    9.50
   4   4   7  333.27    9.40
   4   4   7  320.57   10.20
   5  -4   7    0.30    3.40
  -5  -4  -7   -1.90    1.80
  -5  -4  -7   -2.30    2.50
   5  -4   7    2.70    3.10
  -5   4  -7   -0.40    2.70
   5   4   7    4.40    3.70
   5   4   7   -1.70    3.20
  -6  -4  -7   53.79    3.70
  -6  -4  -7   58.99    4.80
  -6  -4  -7   60.09    4.80
  -6   4  -7   50.79    5.00
   6   4   7   55.29    6.30
  -7  -4  -7   -0.60    2.20
  -7  -4  -7    0.60    2.40
  -7  -4  -7    0.70    2.90
   7   4   7   -1.50    4.10
  -7   4  -7    7.90    3.20
   9  -5  -7    5.30    5.30
   9  -5  -7   10.60    4.00
   9  -5  -7    6.20    3.70
   9   5  -7   10.00    2.40
   9   5  -7    7.40    3.40
   8  -5  -7   56.59    5.40
   8  -5  -7   53.59    6.80
   8  -5  -7   49.70    5.90
  -8   5   7   45.40    5.10
   8   5  -7   55.49    5.50
   8   5  -7   54.59    2.70
   8   5  -7   54.99    3.80
   8   5  -7   55.09    4.90
   7  -5  -7  287.37    8.90
   7  -5  -7  303.37    9.10
   7   5  -7  295.87   10.10
   7   5  -7  304.67    8.50
  -7   5   7  299.57    9.70
   7   5  -7  299.37    7.20
   7   5  -7  291.77    8.00
  -6  -5   7   27.30    3.40
   6  -5  -7   26.60    3.10
   6  -5  -7   17.30    3.50
   6  -5  -7   26.20    3.00
   6   5  -7   33.00    4.10
   6   5  -7   25.90    3.10
   6   5  -7   24.80    2.50
   6   5  -7   25.60    2.60
   5  -5  -7  884.31   20.30
  -5  -5   7  889.91   20.10
   5  -5  -7  891.61   20.70
   5  -5  -7  897.51   20.10
  -5  -5   7  876.01   18.70
   5   5  -7  896.21   19.30
   5   5  -7  886.51   18.70
  -4  -5   7  132.99    4.60
  -4  -5   7  141.59    4.00
   4  -5  -7  138.19    6.00
   4  -5  -7  138.49    5.70
  -4  -5   7  139.99    6.10
  -4  -5   7  131.29    3.80
   4  -5  -7  144.39    5.90
  -4   5   7  137.99    5.20
   4   5  -7  142.19    4.50
   4   5  -7  137.89    5.00
  -3  -5   7 1935.01   39.90
   3  -5  -7 1896.61   39.70
  -3  -5   7 1859.01   38.40
   3  -5  -7 1957.30   39.00
  -3  -5   7 1910.91   38.60
   3  -5  -7 1919.31   39.80
  -3  -5   7 1930.11   38.70
   3   5  -7 1921.41   39.30
   2  -5  -7   28.80    3.40
  -2  -5   7   26.30    3.20
  -2  -5   7   28.60    2.80
  -2  -5   7   26.10    2.60
   2  -5  -7   30.90    3.30
   2  -5  -7   28.50    3.50
  -2  -5   7   25.50    3.10
  -2   5   7   27.00    3.00
   2   5  -7   24.80    2.60
  -1  -5   7  173.28    5.90
  -1  -5   7  178.48    6.60
   1  -5  -7  179.88    6.30
  -1  -5   7  174.98    5.90
   1  -5  -7  182.18    5.10
   1  -5  -7  172.48    5.90
   1   5  -7  178.38    6.10
  -1   5   7  181.68    6.80
   0  -5  -7   32.80    3.60
   0  -5  -7   31.20    3.00
   0  -5   7   30.10    3.40
   0  -5   7   31.20    3.70
   0  -5  -7   35.30    2.30
   0  -5   7   35.80    3.60
   0  -5   7   35.70    3.70
   0   5   7   27.90    3.50
   0   5   7   35.10    3.60
   0   5  -7   36.90    3.50
   1  -5   7  361.46   10.50
   1  -5   7  349.77    9.80
  -1  -5  -7  350.96    9.90
  -1  -5  -7  345.07    9.00
   1  -5   7  358.56   10.00
   1  -5   7  352.36    9.90
   1   5   7  354.56   10.30
  -1   5  -7  360.66    9.90
   2  -5   7  128.99    6.00
   2  -5   7  118.99    6.00
  -2  -5  -7  119.19    4.70
  -2  -5  -7  125.39    5.50
   2  -5   7  123.49    5.90
  -2   5  -7  120.59    5.40
   2   5   7  119.89    6.30
   2   5   7  121.99    5.90
   3  -5   7  127.59    5.90
  -3  -5  -7  141.09    6.20
   3  -5   7  132.99    6.80
  -3  -5  -7  137.79    5.10
   3  -5   7  126.99    6.70
   3   5   7  147.39    7.10
  -3   5  -7  145.39    6.00
  -4  -5  -7   -2.00    2.90
   4  -5   7   -6.00    3.20
   4  -5   7   -4.70    2.90
  -4  -5  -7   -1.90    3.20
  -4  -5  -7    7.90    2.20
   4  -5   7    3.70    3.40
   4   5   7   -2.70    4.20
  -4   5  -7   -0.90    2.50
  -5  -5  -7  108.29    6.20
   5  -5   7   98.79    7.90
  -5  -5  -7   93.99    5.60
   5   5   7  104.29    6.00
  -5   5  -7   97.09    5.60
  -6  -5  -7   20.00    3.60
   6  -5   7   18.30    4.90
  -6  -5  -7   20.60    3.30
   6   5   7   19.40    4.40
  -6   5  -7   21.90    3.70
  -9   6   7   40.10    6.10
   9   6  -7   31.80    3.70
   8  -6  -7  267.37    9.50
   8  -6  -7  237.68   10.60
  -8   6   7  248.38   10.20
   8   6  -7  253.97    8.00
   8   6  -7  235.68   10.20
   8   6  -7  229.98    9.00
   7  -6  -7   11.90    3.20
  -7  -6   7    3.50    3.30
   7  -6  -7    6.90    3.80
   7  -6  -7    6.10    4.10
  -7   6   7    5.40    4.40
   7   6  -7   -0.80    2.30
   7   6  -7    9.60    3.60
   7   6  -7    0.40    4.10
   6  -6  -7   26.00    4.10
  -6  -6   7   30.90    4.00
   6  -6  -7   29.30    3.50
   6   6  -7   26.80    4.10
  -6   6   7   31.00    3.70
   6   6  -7   26.50    3.00
   6   6  -7   33.50    4.00
  -5  -6   7   57.89    3.30
   5  -6  -7   56.19    5.00
   5  -6  -7   62.59    5.10
   5  -6  -7   54.79    4.70
  -5  -6   7   54.39    5.10
   5   6  -7   55.49    3.80
  -4  -6   7 1154.88   24.00
   4  -6  -7 1146.89   25.60
   4  -6  -7 1165.18   26.10
  -4  -6   7 1156.58   23.90
  -4  -6   7 1159.38   26.00
  -4  -6   7 1147.89   24.30
   4  -6  -7 1166.78   26.00
   4   6  -7 1183.18   25.30
  -4   6   7 1284.67   26.70
  -3  -6   7  397.06   10.00
   3  -6  -7  391.86   11.00
  -3  -6   7  397.26   11.20
   3  -6  -7  397.46   10.80
  -3  -6   7  402.36    9.80
  -3  -6   7  406.96   10.00
   3  -6  -7  412.36   11.00
   3   6  -7  400.06   10.60
  -3   6   7  402.86   11.00
   2  -6  -7    0.80    2.20
  -2  -6   7    2.50    2.20
  -2  -6   7   -0.80    2.70
   2  -6  -7    0.80    2.50
  -2  -6   7    1.90    2.10
  -2   6   7   -1.50    2.60
   2   6  -7    1.10    2.30
  -1  -6   7    2.20    2.20
  -1  -6   7    2.70    2.90
   1  -6  -7   -0.10    2.40
  -1  -6   7    1.90    2.30
   1  -6  -7    1.00    2.30
  -1  -6   7   -2.50    2.50
   1   6  -7    0.00    2.10
  -1   6   7    1.40    2.80
   0  -6   7  918.71   21.00
   0  -6   7  945.11   20.80
   0  -6   7  906.01   21.50
   0  -6  -7  927.11   21.10
   0  -6  -7  930.81   20.30
   0  -6   7  921.61   20.80
   0   6  -7  915.01   20.90
   0   6   7  905.51   21.20
  -1  -6  -7   46.90    3.60
   1  -6   7   43.00    4.20
   1  -6   7   48.20    4.50
   1  -6   7   50.39    4.70
  -1  -6  -7   52.59    4.50
   1  -6   7   48.80    4.80
  -1   6  -7   45.10    4.30
   1   6   7   45.60    5.40
   2  -6   7  467.65   13.00
  -2  -6  -7  478.65   11.70
  -2  -6  -7  494.25   12.80
   2  -6   7  466.85   12.90
   2  -6   7  470.45   13.50
   2  -6   7  486.95   13.00
  -2   6  -7  481.65   12.70
   2   6   7  479.95   13.40
   3  -6   7  115.99    6.50
   3  -6   7  106.79    7.10
  -3  -6  -7  122.29    6.20
  -3  -6  -7  114.79    6.00
   3  -6   7  116.19    6.50
   3  -6   7  107.19    6.50
  -3  -6  -7  116.99    4.90
   3   6   7  105.89    6.80
  -3   6  -7  120.09    6.00
  -4  -6  -7  159.88    7.70
   4  -6   7  159.78    8.30
  -4  -6  -7  171.98    5.90
  -4  -6  -7  169.58    7.10
  -4   6  -7  172.88    7.60
   5  -6   7  138.29    8.40
  -5  -6  -7  150.58    6.80
  -5  -6  -7  149.39    7.30
  -6  -6  -7   91.49    6.00
   6  -6   7   85.09    7.80
  -6   6  -7   73.29    6.60
   8  -7  -7   36.50    6.30
   8   7  -7   36.00    5.00
  -8   7   7   25.80    5.70
   8   7  -7   42.50    4.20
   8   7  -7   38.30    6.40
  -7  -7   7   66.69    6.50
   7  -7  -7   45.90    5.90
   7  -7  -7   47.90    5.00
  -7   7   7   53.89    5.40
   7   7  -7   50.59    5.10
   7   7  -7   53.29    5.10
   7   7  -7   44.50    5.30
   6  -7  -7   -1.10    4.00
  -6  -7   7    1.80    3.40
   6  -7  -7    5.30    3.80
   6   7  -7    0.70    3.70
   6   7  -7   -2.80    2.70
  -6   7   7   -0.70    3.60
   5  -7  -7   79.49    6.00
   5  -7  -7   71.99    5.90
  -5  -7   7   86.79    6.30
  -5  -7   7   89.29    3.80
   5   7  -7   83.59    5.40
  -4  -7   7  117.49    4.60
  -4  -7   7  107.09    6.80
   4  -7  -7  105.59    6.20
  -4  -7   7  112.99    4.40
   4  -7  -7  106.59    6.10
  -4  -7   7  112.09    4.60
   4  -7  -7  111.59    6.40
  -4   7   7  116.19    6.00
   4   7  -7  115.69    5.80
  -3  -7   7   -7.00    3.00
   3  -7  -7    3.20    2.80
  -3  -7   7   -1.90    2.20
  -3  -7   7    3.20    2.40
  -3  -7   7   -2.30    3.10
   3  -7  -7   -4.00    2.90
   3  -7  -7    0.90    2.60
  -3   7   7   -1.50    2.90
   3   7  -7    1.00    2.40
  -2  -7   7   73.19    4.50
   2  -7  -7   76.29    5.30
  -2  -7   7   72.39    4.80
   2  -7  -7   70.19    5.20
  -2  -7   7   71.19    5.30
   2  -7  -7   66.49    5.30
  -2  -7   7   72.09    5.20
   2   7  -7   72.79    4.90
  -2   7   7   70.69    5.70
   1  -7  -7   24.80    3.20
  -1  -7   7   21.40    4.00
   1  -7  -7   27.70    3.60
  -1  -7   7   27.40    3.40
  -1  -7   7   23.70    3.20
   1  -7  -7   29.10    3.70
  -1  -7   7   26.20    3.70
  -1   7   7   22.80    3.90
   1   7  -7   23.70    3.20
   0  -7   7   21.70    3.20
   0  -7   7   21.30    3.80
   0  -7   7   23.20    3.80
   0  -7  -7   17.40    3.50
   0  -7  -7   23.70    3.50
   0  -7   7   19.60    3.30
   0  -7  -7   17.00    2.70
   0   7   7   17.60    3.70
   0   7  -7   14.30    3.00
  -1  -7  -7  160.08    7.20
  -1  -7  -7  163.08    6.00
   1  -7   7  157.38    6.90
   1  -7   7  150.38    6.90
  -1  -7  -7  155.48    7.00
   1  -7   7  152.18    7.20
   1  -7   7  144.89    6.90
  -1   7  -7  150.58    6.80
   1   7   7  159.78    7.60
   2  -7   7   74.69    5.80
   2  -7   7   80.09    5.80
  -2  -7  -7   72.09    5.60
   2  -7   7   96.29    7.10
  -2  -7  -7   75.69    4.30
  -2  -7  -7   84.19    6.00
   2  -7   7   72.39    5.70
  -2   7  -7   74.39    5.40
  -3  -7  -7   52.79    5.40
   3  -7   7   44.60    4.90
   3  -7   7   53.49    6.30
  -3  -7  -7   57.39    4.00
   4  -7   7    2.30    4.10
  -4  -7  -7    8.90    4.20
  -4  -7  -7    4.70    3.80
  -4   7  -7    6.60    3.60
  -5  -7  -7   22.20    4.20
  -5  -7  -7   32.20    4.10
   5  -7   7   39.50    5.80
  -5   7  -7   39.20    4.60
   7  -8  -7  -10.10    5.20
   7  -8  -7    1.10    4.80
  -7  -8   7    6.00    4.90
  -7   8   7    3.90    4.60
   7   8  -7   -0.30    3.60
   7   8  -7    9.50    4.80
   6  -8  -7   -3.90    5.50
   6  -8  -7    0.40    4.40
  -6  -8   7    5.60    4.80
   6   8  -7   -2.40    3.40
  -5  -8   7    4.50    1.40
   5  -8  -7    5.80    4.90
  -5  -8   7    4.60    1.70
   5  -8  -7    1.30    4.40
  -5  -8   7   12.60    4.80
   5   8  -7    4.90    3.00
  -4  -8   7  150.88    6.00
  -4  -8   7  158.98    5.80
  -4  -8   7  141.99    8.00
  -4  -8   7  152.88    5.30
  -4   8   7  161.08    8.10
   4   8  -7  165.38    7.20
  -3  -8   7   46.90    5.00
  -3  -8   7   37.70    4.10
  -3  -8   7   42.50    5.00
   3  -8  -7   35.80    4.40
   3   8  -7   38.00    4.70
  -3   8   7   39.90    4.80
  -2  -8   7   82.89    6.90
   2  -8  -7   74.49    6.80
  -2  -8   7   85.49    5.20
   2  -8  -7   88.89    5.80
  -2  -8   7   82.09    5.20
  -2  -8   7   76.09    5.70
  -2   8   7   81.49    6.60
   2   8  -7   77.19    5.60
  -1  -8   7    4.00    3.00
   1  -8  -7    4.90    3.10
  -1  -8   7    3.20    2.80
  -1  -8   7    5.70    3.10
  -1  -8   7   10.40    3.40
   1   8  -7    3.10    3.00
  -1   8   7    8.50    3.80
   0  -8   7  193.58    7.70
   0  -8   7  175.68    7.60
   0  -8   7  185.08    8.00
   0  -8  -7  174.08    6.50
   1  -8   7   50.59    4.80
  -1  -8  -7   41.30    4.10
   1  -8   7   46.00    5.90
  -1   8  -7   48.90    5.40
  -2  -8  -7    5.40    5.10
   2  -8   7   -2.80    3.70
  -2  -8  -7    7.20    4.20
  -2  -8  -7    6.70    2.50
  -2   8  -7    4.80    3.60
   3  -8   7   20.80    4.80
  -3  -8  -7   10.10    4.10
  -3  -8  -7   17.20    2.70
  -3  -8  -7   13.30    4.20
  -3   8  -7   16.60    4.60
  -4  -8  -7   37.60    5.70
   4  -8   7   46.40    6.00
  -4  -8  -7   44.20    5.50
  -4   8  -7   39.30    5.30
   5  -9  -7   72.59    8.00
   5  -9  -7   83.29    8.10
   5   9  -7   64.99    5.90
  -4  -9   7   90.19    4.30
   4  -9  -7   97.29    8.20
  -4  -9   7   92.09    5.50
   4  -9  -7   87.69    7.90
   4   9  -7   89.29    6.90
  -4   9   7   84.29    7.30
  -3  -9   7   95.49    5.90
  -3  -9   7   92.69    6.60
   3  -9  -7   82.89    7.40
  -3  -9   7   89.19    6.00
   3  -9  -7   92.79    7.60
   3   9  -7   90.59    7.00
  -2  -9   7   12.60    3.50
   2  -9  -7    5.00    4.40
  -2  -9   7   11.70    3.50
  -2  -9   7    7.20    3.70
   2  -9  -7    9.20    3.90
   2   9  -7    9.60    3.70
  -1  -9   7   76.19    6.30
   1  -9  -7   78.49    7.20
  -1  -9   7   62.29    6.30
   1  -9  -7   64.69    5.30
   1   9  -7   73.59    6.50
   0  -9   7    6.30    3.90
   0  -9  -7    0.50    3.00
   0  -9   7   -1.50    3.50
   0  -9  -7    2.20    4.30
   0   9  -7    5.00    3.50
  -1  -9  -7  228.38   10.10
   1  -9   7  232.18   10.40
  -1  -9  -7  243.98    8.10
   1  -9   7  236.78   10.10
  -1   9  -7  236.98    9.80
  -2  -9  -7   29.50    6.00
   2  -9   7   35.90    5.80
  -2  -9  -7   48.80    4.40
  -2   9  -7   41.10    5.20
   3  -9   7   76.99    8.30
  -3  -9  -7   79.09    7.40
  -3   9  -7   80.39    7.60
   3 -10  -7   15.80    5.90
   3 -10  -7   16.30    4.80
  -3 -10   7    5.40    4.20
   3  10  -7   21.20    4.80
  -2 -10   7   -5.70    5.70
   2 -10  -7   -1.60    5.40
   2 -10  -7   -0.60    3.80
  -2 -10   7    2.30    3.90
   2  10  -7   11.70    4.50
   1 -10  -7    0.00    5.20
   1 -10  -7   -1.20    3.80
  -1 -10   7    0.20    3.70
  -1 -10   7   16.60    4.50
   1  10  -7    2.40    4.20
   0 -10   7  220.58   11.10
   0 -10   7  171.18    9.40
   0 -10  -7  205.98   10.30
   0 -10  -7  198.68    8.00
   0  10  -7  199.88    9.80
   1 -10   7   22.30    5.60
  -1 -10  -7   27.80    6.20
  -1  10  -7   30.10    5.40
  10   0  -8   85.39    6.90
   9   0  -8  790.82   17.10
   9   0  -8  766.62   16.00
   8   0  -8 1544.15   31.50
   8   0  -8 1600.34   32.80
   8   0  -8 1515.05   33.30
   8   0  -8 1429.96   30.30
   7   0  -8  155.68    6.30
   7   0  -8  150.88    7.00
   7   0  -8  149.59    5.50
   7   0  -8  140.99    4.70
   6   0  -8   39.30    2.20
   6   0  -8   43.40    3.80
   6   0  -8   43.20    4.40
   6   0  -8   35.90    3.40
   5   0  -8  384.26   10.20
   5   0  -8  370.26    8.60
   5   0  -8  378.66    9.60
   5   0  -8  372.26    9.70
   4   0  -8 7676.43  144.39
  -4   0   8 7088.59  145.39
  -3   0   8  404.76   10.20
   3   0  -8  391.96    9.90
  -3   0   8  414.86    9.10
   3   0  -8  408.36    9.50
   3   0  -8  415.16   10.20
  -2   0   8  396.86    9.80
   2   0  -8  393.56    9.40
  -2   0   8  399.76    9.20
   2   0  -8  391.16    9.80
   2   0  -8  390.86    9.70
  -1   0   8  328.57    8.00
   1   0  -8  306.97    8.00
   1   0  -8  309.17    8.30
   1   0  -8  296.37    8.10
  -1   0   8  301.47    8.30
   0   0  -8 3787.42   73.59
   0   0   8 3548.34   73.89
   0   0  -8 3695.93   73.19
   0   0  -8 3744.03   73.39
   1   0   8 2747.23   52.59
   1   0   8 2591.14   51.59
  -1   0  -8 2455.25   51.29
  -1   0  -8 2427.16   51.29
  -1   0  -8 2505.75   51.39
   2   0   8   56.69    4.10
  -2   0  -8   49.60    3.60
  -2   0  -8   53.29    3.60
  -2   0  -8   57.29    3.60
   2   0   8   60.29    4.00
  -3   0  -8   17.80    2.40
   3   0   8   15.00    2.70
  -3   0  -8   17.00    2.50
   3   0   8   16.30    2.90
  -4   0  -8  986.20   22.00
   4   0   8  983.50   22.60
   4   0   8 1007.10   22.60
  -4   0  -8 1013.00   22.10
   5   0   8  787.62   19.20
  -5   0  -8  792.82   18.00
  -5   0  -8  815.12   18.40
   5   0   8  788.32   19.00
  -6   0  -8  294.57    8.70
   6   0   8  267.37   10.00
  -6   0  -8  303.87    8.80
  -7   0  -8  373.56   10.10
  10  -1  -8   16.60    2.30
  10  -1  -8   19.00    5.40
  10  -1  -8   17.00    2.40
  10  -1  -8   12.60    2.50
  10   1  -8   23.00    4.50
   9  -1  -8  115.59    7.10
   9  -1  -8  114.49    5.10
   9  -1  -8  108.99    4.00
   9   1  -8  113.89    6.10
   8  -1  -8    4.30    1.70
   8  -1  -8   11.70    3.90
   8  -1  -8    3.00    2.90
   8  -1  -8    7.80    2.30
   8   1  -8    8.60    3.70
   8   1  -8    7.30    2.30
   8   1  -8   11.50    1.50
   8   1  -8    6.40    2.90
   7  -1  -8  414.76   12.00
   7  -1  -8  427.86    9.60
   7  -1  -8  421.46   11.40
   7   1  -8  430.76   10.70
   7   1  -8  433.56   11.10
   7   1  -8  426.66   12.00
   6  -1  -8    2.50    1.50
   6  -1  -8    6.00    2.90
   6  -1  -8    5.80    2.30
   6   1  -8    5.00    1.20
   6   1  -8    3.90    2.70
   6   1  -8    5.20    1.80
   6   1  -8    1.00    1.90
   5  -1  -8   99.89    5.00
  -5  -1   8   91.39    5.40
   5  -1  -8  105.39    4.60
   5  -1  -8  100.79    3.50
   5   1  -8  104.39    4.70
   5   1  -8  105.69    3.40
   5   1  -8   93.09    5.00
   5   1  -8   97.19    4.20
  -4  -1   8   70.69    4.00
   4  -1  -8   63.29    3.20
   4  -1  -8   68.89    3.90
   4   1  -8   67.19    3.80
   4   1  -8   68.99    3.50
  -4   1   8   68.39    4.70
   4   1  -8   72.99    2.90
  -4   1   8   62.09    2.10
  -3  -1   8  268.47    6.20
   3  -1  -8  248.08    6.70
  -3  -1   8  259.87    7.20
   3  -1  -8  252.57    7.20
   3   1  -8  268.87    6.70
   3   1  -8  256.37    7.10
  -3   1   8  252.87    7.40
   3   1  -8  267.87    7.50
  -3   1   8  257.77    6.40
  -2  -1   8   12.40    1.80
   2  -1  -8   10.50    1.70
   2  -1  -8   14.40    1.80
  -2  -1   8   11.30    1.60
   2   1  -8   14.50    1.90
  -2   1   8   12.90    1.90
   2   1  -8   10.60    1.70
   2   1  -8   10.00    1.70
   1  -1  -8  102.59    4.10
  -1  -1   8  105.09    4.00
   1  -1  -8   97.09    4.10
  -1  -1   8   98.49    4.30
   1   1  -8   97.79    4.20
   1   1  -8  103.59    4.20
  -1   1   8  101.69    4.10
   1   1  -8  103.89    4.00
   0  -1   8  133.79    4.80
   0  -1  -8  138.29    4.80
   0  -1  -8  126.49    4.80
   0   1  -8  133.99    4.90
   0   1  -8  133.89    4.60
   0   1  -8  134.09    4.90
   0   1   8  120.39    5.70
  -1  -1  -8  495.85   12.00
   1  -1   8  461.35   12.90
   1  -1   8  519.75   12.20
  -1  -1  -8  504.85   12.10
   1   1   8  514.15   12.10
  -1   1  -8  498.75   12.20
   1   1   8  513.35   12.30
  -1   1  -8  493.75   12.30
  -1   1  -8  494.65   12.00
  -2  -1  -8  113.49    4.70
  -2  -1  -8  112.59    4.80
   2  -1   8  111.19    5.10
  -2  -1  -8  107.29    4.70
   2  -1   8  123.79    5.10
   2   1   8  112.79    5.10
   2   1   8  113.19    4.90
  -2   1  -8  109.79    4.80
  -2   1  -8  118.59    5.00
  -2   1  -8  110.19    4.90
  -3  -1  -8   81.29    4.50
  -3  -1  -8   73.59    4.30
   3  -1   8   78.89    4.90
  -3  -1  -8   85.59    4.60
   3  -1   8   78.79    5.00
   3   1   8   80.79    5.00
   3   1   8   83.89    4.80
  -3   1  -8   78.29    4.80
  -3   1  -8   70.59    4.20
   4  -1   8    3.50    3.00
  -4  -1  -8    3.30    2.20
  -4  -1  -8    2.30    2.30
   4  -1   8    3.10    2.90
   4   1   8    2.30    3.00
   4   1   8    1.20    2.70
  -4   1  -8    2.20    2.30
  -4   1  -8    1.00    2.50
  -5  -1  -8    8.50    2.70
   5  -1   8    5.20    3.50
  -5  -1  -8    8.50    2.70
   5  -1   8    9.30    3.40
   5   1   8   -1.10    3.30
  -5   1  -8    7.20    2.70
  -5   1  -8    9.70    2.60
   5   1   8   12.30    3.80
  -6  -1  -8   46.00    4.20
  -6  -1  -8   53.09    4.90
   6  -1   8   52.29    5.90
  -6   1  -8   39.90    4.50
   6   1   8   52.79    5.20
  -7  -1  -8   52.59    4.70
  -7  -1  -8   48.50    5.00
  -7   1  -8   63.59    4.90
  10  -2  -8   58.79    4.90
  10  -2  -8   50.69    4.20
  10  -2  -8   41.10    6.40
  10   2  -8   50.29    6.30
   9  -2  -8   48.30    3.90
   9  -2  -8   50.19    4.60
   9   2  -8   46.40    4.90
   8  -2  -8   42.20    3.30
   8  -2  -8   34.10    4.70
   8  -2  -8   43.60    4.80
   8   2  -8   40.20    2.30
   8   2  -8   45.40    4.50
   8   2  -8   44.10    4.50
   7  -2  -8    4.40    3.90
   7  -2  -8    2.50    1.70
   7  -2  -8    1.00    2.50
   7   2  -8    2.30    3.30
   7   2  -8    0.20    1.90
   7   2  -8   -0.80    1.20
   7   2  -8   -2.50    2.20
   6  -2  -8   24.40    3.40
   6  -2  -8   26.40    2.50
   6  -2  -8   20.20    3.00
   6   2  -8   18.60    3.30
   6   2  -8   21.80    2.50
   6   2  -8   18.80    2.50
   6   2  -8   21.70    2.00
   5  -2  -8    1.30    2.10
   5  -2  -8    3.40    1.50
  -5  -2   8    1.70    1.80
   5  -2  -8   -0.80    2.30
   5   2  -8   -1.20    1.90
   5   2  -8    0.90    1.80
   5   2  -8    1.00    1.20
   4  -2  -8   85.69    4.10
   4  -2  -8   85.09    3.60
  -4  -2   8   83.89    3.90
   4   2  -8   78.79    4.10
   4   2  -8   77.49    3.20
   4   2  -8   74.69    3.50
  -4   2   8   80.79    2.80
  -3  -2   8   20.20    1.70
  -3  -2   8   16.40    2.00
   3  -2  -8   20.10    2.30
   3  -2  -8   19.40    2.30
  -3  -2   8   16.40    2.10
   3  -2  -8   22.40    2.70
   3   2  -8   19.50    2.30
   3   2  -8   19.80    2.10
   3   2  -8   19.20    2.10
  -3   2   8   19.10    1.90
   2  -2  -8 1324.97   28.30
   2  -2  -8 1339.07   28.60
  -2  -2   8 1367.26   27.80
  -2  -2   8 1388.86   28.40
   2   2  -8 1370.86   28.20
  -2   2   8 1386.56   28.70
   2   2  -8 1364.86   28.80
  -2   2   8 1379.96   28.20
   2   2  -8 1351.36   28.40
   1  -2  -8   23.20    2.60
   1  -2  -8   21.50    2.20
  -1  -2   8   23.20    2.40
  -1   2   8   23.90    2.40
   1   2  -8   22.00    2.20
  -1   2   8   21.60    2.70
   1   2  -8   21.50    2.50
   1   2  -8   18.30    2.10
   0  -2   8  129.99    5.00
   0  -2   8  133.19    4.90
   0  -2  -8  126.99    4.70
   0  -2  -8  125.29    4.80
   0   2   8  144.69    5.20
   0   2  -8  130.39    4.90
   0   2   8  125.59    5.00
   0   2  -8  127.79    5.00
   0   2  -8  129.79    4.80
  -1  -2  -8  121.59    4.80
  -1  -2  -8  123.49    5.00
   1  -2   8  120.29    5.10
   1  -2   8  128.09    5.10
  -1   2  -8  126.89    4.90
   1   2   8  143.49    5.30
  -1   2  -8  123.69    5.30
  -1   2  -8  126.79    5.00
   1   2   8  128.99    5.40
   2  -2   8   22.00    2.90
   2  -2   8   20.30    2.80
  -2  -2  -8   22.50    2.70
  -2  -2  -8   20.20    2.50
  -2   2  -8   15.90    2.40
  -2   2  -8   31.20    3.60
   2   2   8   21.90    3.10
  -3  -2  -8   36.90    4.00
   3  -2   8   38.80    3.80
   3  -2   8   32.20    3.50
  -3  -2  -8   42.40    3.90
  -3   2  -8   40.90    3.80
   3   2   8   41.60    4.60
   3   2   8   41.40    4.40
  -3   2  -8   38.40    3.90
   4  -2   8  109.79    6.20
   4  -2   8  108.59    6.20
  -4  -2  -8  115.99    5.20
  -4  -2  -8  115.29    5.40
   4   2   8  115.59    6.40
   4   2   8  116.89    6.10
  -4   2  -8  107.79    5.70
  -4   2  -8  123.49    5.70
  -5  -2  -8   52.89    4.50
   5  -2   8   50.79    5.40
   5  -2   8   51.29    5.90
  -5  -2  -8   46.90    4.60
  -5   2  -8   57.79    4.40
   5   2   8   63.89    6.00
   5   2   8   57.99    5.90
  -6  -2  -8  104.39    6.20
  -6  -2  -8  106.89    5.70
  -6  -2  -8  105.79    5.40
  -6   2  -8  105.39    5.80
   6   2   8  108.69    7.00
  -7  -2  -8    0.60    3.00
  -7  -2  -8   10.70    4.20
  -7  -2  -8    0.30    2.50
  -7   2  -8   -3.40    3.10
   7   2   8    7.40    5.20
  10  -3  -8   41.90    6.30
  10  -3  -8   37.20    4.00
  10   3  -8   58.19    6.20
  10   3  -8   46.40    3.20
   9  -3  -8   19.90    4.70
   9  -3  -8   16.10    3.50
   9  -3  -8   18.60    3.20
   9   3  -8   17.80    1.80
   9   3  -8   13.00    3.30
   8  -3  -8   -3.90    4.00
   8  -3  -8    1.30    2.30
   8   3  -8    1.00    1.30
   8   3  -8    2.10    2.70
   8   3  -8    4.70    3.60
   7  -3  -8   25.00    2.60
   7  -3  -8   20.50    3.60
   7  -3  -8   30.30    4.10
   7   3  -8   25.20    4.20
   7   3  -8   24.20    2.20
   7   3  -8   31.00    3.40
   6  -3  -8    5.50    3.60
   6  -3  -8    6.10    2.50
   6  -3  -8    4.80    2.10
   6   3  -8   10.40    3.40
   6   3  -8    8.00    1.50
   6   3  -8    8.60    2.30
   6   3  -8    5.40    2.30
  -5  -3   8  403.56   10.10
   5  -3  -8  406.56   11.10
   5  -3  -8  415.76   11.00
   5  -3  -8  404.46   10.10
   5   3  -8  408.66    9.90
   5   3  -8  396.26    9.50
   5   3  -8  398.66   10.50
   4  -3  -8   38.40    3.50
   4  -3  -8   38.70    2.90
  -4  -3   8   32.70    3.30
   4   3  -8   34.20    2.70
  -4   3   8   33.00    2.60
   4   3  -8   31.90    3.40
   4   3  -8   37.20    2.70
   3  -3  -8  288.57    8.00
   3  -3  -8  282.07    7.80
  -3  -3   8  290.57    7.00
  -3  -3   8  290.67    7.80
   3  -3  -8  277.87    8.20
  -3  -3   8  295.07    7.00
   3   3  -8  277.37    7.60
  -3   3   8  282.87    7.60
   3   3  -8  290.17    8.30
   3   3  -8  288.87    7.70
  -2  -3   8   24.40    2.70
  -2  -3   8   19.40    2.30
   2  -3  -8   17.60    2.30
  -2  -3   8   20.00    2.00
   2  -3  -8   20.30    2.40
   2  -3  -8   15.40    2.30
  -2   3   8   19.20    2.30
   2   3  -8   21.50    2.60
   2   3  -8   17.00    2.10
   2   3  -8   20.30    2.50
  -1  -3   8  817.72   17.70
  -1  -3   8  798.32   17.90
   1  -3  -8  799.42   18.00
  -1  -3   8  840.92   18.40
   1  -3  -8  798.32   18.00
   1   3  -8  793.82   18.00
   1   3  -8  829.42   18.00
  -1   3   8  801.02   18.10
   1   3  -8  801.52   18.40
  -1   3   8  817.32   18.00
   0  -3   8   44.90    4.00
   0  -3  -8   42.70    3.50
   0  -3  -8   45.50    3.20
   0  -3   8   46.50    4.20
   0  -3   8   43.20    3.50
   0   3   8   45.90    3.40
   0   3  -8   45.50    3.80
   0   3  -8   45.80    3.40
   0   3   8   40.80    3.80
   0   3  -8   40.90    3.30
   1  -3   8    5.70    2.30
  -1  -3  -8    2.00    2.00
   1  -3   8    0.90    2.10
   1  -3   8    3.70    1.80
  -1  -3  -8    6.40    2.20
   1   3   8    4.50    2.50
  -1   3  -8    2.30    1.90
  -1   3  -8   -1.00    2.00
   1   3   8    3.30    2.10
   2  -3   8  197.08    7.00
  -2  -3  -8  189.78    6.50
  -2  -3  -8  190.08    6.30
   2  -3   8  191.98    7.00
   2  -3   8  184.78    6.90
  -2   3  -8  193.18    6.70
   2   3   8  188.78    7.20
  -2   3  -8  191.88    6.90
   2   3   8  170.48   10.00
  -3  -3  -8   74.59    4.50
   3  -3   8   65.99    5.00
   3  -3   8   76.69    5.30
  -3  -3  -8   71.09    4.50
   3   3   8   69.69    4.50
  -3   3  -8   74.89    4.50
   3   3   8   66.49    5.60
   4  -3   8   43.10    4.30
   4  -3   8   37.80    3.90
  -4  -3  -8   43.70    4.10
  -4   3  -8   34.10    4.00
   4   3   8   42.80    4.00
   4   3   8   39.80    4.20
  -5  -3  -8   98.79    5.20
   5  -3   8  108.09    7.50
  -5  -3  -8   90.19    5.40
   5   3   8   97.29    6.50
  -5   3  -8   94.89    5.30
  -6  -3  -8   43.90    4.70
  -6  -3  -8   47.90    5.20
  -6  -3  -8   50.79    4.70
   6   3   8   55.79    6.80
  -6   3  -8   48.50    5.20
  -7  -3  -8    4.00    2.60
  -7  -3  -8   -2.50    3.70
  -7  -3  -8    0.30    2.90
   7   3   8   -5.70    4.70
  -7   3  -8    4.80    3.40
   9  -4  -8  291.87    9.50
   9  -4  -8  280.17    9.60
   9  -4  -8  299.37   11.60
   9   4  -8  301.37    7.70
   9   4  -8  301.07    8.40
   8  -4  -8  279.47   10.50
   8  -4  -8  279.97    8.60
   8  -4  -8  275.17    8.60
   8   4  -8  278.67    7.80
   8   4  -8  278.47   10.70
   8   4  -8  275.87    7.30
   7  -4  -8   59.49    5.90
   7  -4  -8   53.89    4.60
   7  -4  -8   60.59    5.50
   7   4  -8   57.49    4.00
   7   4  -8   57.39    3.50
   7   4  -8   56.39    6.30
   6  -4  -8  440.06   12.20
   6  -4  -8  445.76   11.10
   6  -4  -8  440.96   12.20
   6   4  -8  437.66   10.50
   6   4  -8  431.86   11.90
   6   4  -8  435.16   10.30
  -5  -4   8  254.57    7.30
   5  -4  -8  255.37    7.60
   5  -4  -8  249.78    8.20
   5  -4  -8  262.47    8.40
   5   4  -8  264.07    7.20
   5   4  -8  257.07    7.10
   4  -4  -8 2836.62   56.49
  -4  -4   8 2840.42   56.69
  -4  -4   8 2754.22   54.59
   4  -4  -8 2815.62   56.49
  -4  -4   8 2779.42   55.89
  -4  -4   8 2776.92   54.59
   4  -4  -8 2832.52   57.09
   4   4  -8 2758.52   55.99
  -4   4   8 2807.22   55.69
   4   4  -8 2802.92   55.89
  -3  -4   8  339.57    8.30
  -3  -4   8  349.37   10.60
   3  -4  -8  330.97    9.30
   3  -4  -8  330.87    9.10
  -3  -4   8  343.57    8.80
   3  -4  -8  331.57    9.40
  -3  -4   8  345.37    8.20
   3   4  -8  343.67    8.70
   3   4  -8  340.97    9.70
   3   4  -8  335.37    8.80
  -3   4   8  340.77    9.10
   2  -4  -8   28.70    3.30
  -2  -4   8   30.70    3.00
   2  -4  -8   27.50    3.10
   2  -4  -8   34.00    3.40
  -2  -4   8   30.60    3.10
  -2  -4   8   36.10    3.30
  -2   4   8   29.60    2.90
   2   4  -8   24.80    3.00
   2   4  -8   35.70    3.20
   2   4  -8   38.90    3.40
   1  -4  -8  544.05   13.10
  -1  -4   8  556.44   13.80
   1  -4  -8  545.65   12.30
  -1  -4   8  587.64   16.70
  -1  -4   8  565.84   13.10
   1  -4  -8  533.35   13.30
  -1  -4   8  544.75   13.00
  -1   4   8  539.45   13.40
  -1   4   8  555.04   13.40
   1   4  -8  555.94   13.80
   1   4  -8  533.15   13.10
   1   4  -8  563.74   13.30
   0  -4  -8 1058.19   23.10
   0  -4   8 1054.49   23.40
   0  -4  -8 1050.89   21.60
   0  -4  -8 1042.10   22.70
   0  -4   8 1067.59   22.90
   0  -4   8 1013.00   25.90
   0   4   8 1050.29   23.20
   0   4  -8 1057.49   23.00
   1  -4   8  563.74   14.10
  -1  -4  -8  566.04   13.50
  -1  -4  -8  543.15   13.80
   1  -4   8  569.24   13.90
   1  -4   8  557.84   14.00
   1   4   8  596.94   17.00
  -1   4  -8  577.64   13.90
   1   4   8  569.24   14.20
   2  -4   8  825.02   19.20
  -2  -4  -8  820.32   18.50
   2  -4   8  847.32   19.40
  -2  -4  -8  840.62   19.00
   2  -4   8  832.82   19.30
   2   4   8  803.32   19.70
  -2   4  -8  813.62   19.00
   2   4   8  825.22   19.40
   3  -4   8   49.80    5.10
  -3  -4  -8   50.19    4.30
   3  -4   8   51.69    5.20
  -3  -4  -8   47.40    4.00
   3  -4   8   55.59    5.30
   3   4   8   49.40    5.60
   3   4   8   49.90    4.60
  -3   4  -8   52.09    4.30
   4  -4   8  490.55   13.80
   4  -4   8  520.85   14.40
   4  -4   8  549.95   14.30
  -4  -4  -8  552.94   13.60
   4   4   8  523.95   13.40
   4   4   8  512.85   14.30
  -4   4  -8  530.15   13.60
  -5  -4  -8  177.48    5.40
  -5  -4  -8  171.18    7.00
  -5   4  -8  176.08    7.40
   5   4   8  175.18    7.60
  -6  -4  -8  120.19    6.00
  -6  -4  -8  120.89    5.20
  -6  -4  -8  129.19    6.60
  -6  -4  -8  125.99    6.00
  -6   4  -8  123.69    6.60
   6   4   8  126.09    8.10
   9  -5  -8   38.70    6.20
   9  -5  -8   26.70    4.40
   9  -5  -8   32.20    5.20
   9   5  -8   30.10    3.40
   9   5  -8   30.80    3.10
   8  -5  -8    1.40    3.30
   8  -5  -8    2.50    3.70
   8  -5  -8    7.80    4.50
   8   5  -8    1.20    2.20
   8   5  -8    3.10    2.10
   8   5  -8   -5.70    4.00
   7  -5  -8   49.20    5.00
   7  -5  -8   52.69    5.50
   7  -5  -8   62.09    6.10
   7   5  -8   57.09    3.40
   7   5  -8   49.80    4.80
   7   5  -8   52.89    4.00
   6  -5  -8  199.98    7.40
   6  -5  -8  203.38    8.00
   6  -5  -8  201.18    8.10
   6   5  -8  208.18    6.50
   6   5  -8  201.18    5.90
   5  -5  -8  195.28    7.50
  -5  -5   8  202.68    7.40
   5  -5  -8  193.18    7.60
   5  -5  -8  196.98    7.20
  -5  -5   8  189.58    6.10
   5   5  -8  198.48    5.90
   5   5  -8  205.38    6.50
   4  -5  -8    0.40    2.90
  -4  -5   8    4.90    2.30
   4  -5  -8   -1.40    2.60
  -4  -5   8    5.50    2.80
  -4  -5   8    3.00    1.50
   4  -5  -8    3.70    3.10
  -4  -5   8    4.60    1.30
   4   5  -8    2.90    1.90
   4   5  -8    2.90    1.90
  -4   5   8    2.30    2.30
   3  -5  -8  508.95   13.00
  -3  -5   8  509.15   13.30
  -3  -5   8  513.75   11.70
   3  -5  -8  496.55   12.80
  -3  -5   8  500.75   11.70
  -3  -5   8  508.45   12.20
   3   5  -8  515.95   12.50
   3   5  -8  514.45   12.20
   2  -5  -8    5.90    2.30
  -2  -5   8    4.20    2.10
   2  -5  -8    6.30    2.50
  -2  -5   8    6.70    2.20
   2  -5  -8    3.50    2.20
  -2  -5   8    7.20    2.80
   2   5  -8    1.80    2.00
  -2   5   8   10.10    2.70
   1  -5  -8  827.02   19.10
  -1  -5   8  833.42   18.60
  -1  -5   8  833.72   18.50
  -1  -5   8  817.92   19.40
   1  -5  -8  836.02   18.70
   1  -5  -8  832.62   17.60
  -1  -5   8  818.02   18.70
   1   5  -8  822.42   18.90
  -1   5   8  826.42   19.20
   0  -5  -8   94.79    4.70
   0  -5   8   83.39    5.70
   0  -5   8   84.79    4.80
   0  -5  -8   90.19    3.50
   0  -5   8   92.09    5.10
   0  -5  -8   79.89    5.10
   0  -5   8   88.79    5.10
   0   5   8   90.29    5.50
   0   5  -8   89.29    4.90
   0   5   8   82.09    4.80
  -1  -5  -8   91.89    4.80
   1  -5   8  106.69    5.50
   1  -5   8  100.29    6.00
   1  -5   8  101.09    6.20
  -1  -5  -8  111.29    5.30
  -1  -5  -8   97.79    3.30
   1   5   8  101.39    5.10
   1   5   8  101.19    6.00
  -1   5  -8  101.39    5.20
   2  -5   8    3.60    2.70
   2  -5   8    6.60    3.00
  -2  -5  -8    8.30    3.10
  -2  -5  -8    7.00    2.30
   2  -5   8    4.50    3.00
  -2   5  -8    6.00    2.50
   2   5   8    7.40    3.30
   2   5   8   10.20    2.80
  -3  -5  -8   17.50    2.80
  -3  -5  -8   21.30    3.70
   3  -5   8   20.00    3.80
   3  -5   8   24.60    3.60
   3  -5   8   20.10    3.60
   3   5   8   20.80    3.30
   3   5   8   29.60    4.20
  -3   5  -8   20.00    3.30
  -4  -5  -8   59.49    4.50
   4  -5   8   60.79    6.40
  -4  -5  -8   55.49    5.10
  -4   5  -8   56.49    5.10
   4   5   8   53.79    5.40
  -5  -5  -8   29.20    4.00
   5  -5   8   23.10    4.50
  -5   5  -8   27.80    4.70
   5   5   8   25.40    4.30
  -6  -5  -8   12.50    3.60
  -6   5  -8    9.30    3.80
   6   5   8   10.40    4.20
   8  -6  -8  199.68   10.10
   8  -6  -8  178.58    8.10
   8   6  -8  187.48   10.90
   8   6  -8  198.58    7.30
   7  -6  -8   11.80    4.50
   7  -6  -8   17.60    3.80
   7  -6  -8    7.00    4.00
   7   6  -8    8.70    2.90
   7   6  -8    6.20    3.90
   6  -6  -8  435.26   13.10
   6  -6  -8  427.46   12.30
  -6  -6   8  432.76   12.20
   6  -6  -8  421.96   11.90
   6   6  -8  428.26   11.20
   5  -6  -8    4.60    3.00
   5  -6  -8   -3.20    2.70
   5  -6  -8    2.50    3.10
  -5  -6   8    2.00    2.20
  -5  -6   8    5.40    3.10
  -5   6   8    3.10    2.40
   5   6  -8    5.80    2.50
  -4  -6   8   -3.30    2.30
  -4  -6   8   -0.60    1.80
   4  -6  -8   -5.40    3.10
  -4  -6   8   -0.80    1.60
   4  -6  -8   -2.30    2.70
  -4  -6   8    1.50    3.00
  -4   6   8    1.10    2.90
   4   6  -8    0.90    2.20
  -3  -6   8    3.50    2.60
   3  -6  -8    2.30    2.50
   3  -6  -8   -0.30    2.70
   3  -6  -8    1.70    2.90
  -3  -6   8    5.30    3.10
  -3  -6   8    3.50    2.00
  -3  -6   8    4.30    2.20
  -3   6   8   -0.50    2.70
   3   6  -8    3.40    2.30
  -2  -6   8    1.90    1.90
   2  -6  -8    2.40    2.70
  -2  -6   8    0.50    2.40
   2  -6  -8   -0.50    2.10
  -2  -6   8    2.80    2.50
   2  -6  -8    0.20    2.70
  -2  -6   8   -0.90    2.30
  -2   6   8    0.50    2.90
   2   6  -8    1.00    2.20
   1  -6  -8   70.69    4.40
   1  -6  -8   77.19    3.70
  -1  -6   8   82.49    5.10
  -1  -6   8   71.89    5.20
   1  -6  -8   66.99    5.00
  -1  -6   8   74.19    5.30
  -1  -6   8   66.79    5.90
   1   6  -8   73.09    4.90
  -1   6   8   77.09    6.40
   0  -6   8   62.79    5.10
   0  -6   8   71.39    6.00
   0  -6  -8   64.09    4.50
   0  -6   8   56.79    4.70
   0  -6  -8   67.29    4.90
   0  -6   8   67.79    5.40
   0   6   8   63.29    5.60
   0   6  -8   68.99    4.70
  -1  -6  -8   -0.50    2.20
   1  -6   8    6.50    2.90
   1  -6   8    2.80    2.90
   1  -6   8   -1.00    2.60
   1  -6   8    1.80    2.60
  -1  -6  -8    4.40    2.80
  -1   6  -8    1.60    2.60
   1   6   8    1.10    3.10
  -2  -6  -8  350.16   10.40
   2  -6   8  330.47   10.50
   2  -6   8  344.97   11.30
  -2  -6  -8  348.47    9.40
   2  -6   8  330.67   10.50
   2  -6   8  339.37   10.70
   2   6   8  319.47   10.90
   2   6   8  344.77    9.90
  -2   6  -8  337.27   10.40
   3  -6   8   37.90    4.50
  -3  -6  -8   41.00    4.90
  -3  -6  -8   35.40    4.00
  -3  -6  -8   42.60    4.30
  -3   6  -8   36.90    4.30
   3   6   8   32.40    4.20
  -4  -6  -8   25.00    3.90
   4  -6   8   18.80    4.20
  -4  -6  -8   18.80    4.00
  -4  -6  -8   17.00    3.10
   4   6   8   13.80    3.60
  -4   6  -8   12.80    3.80
  -5  -6  -8   -5.90    3.60
  -5  -6  -8   -3.80    4.00
   5   6   8   -2.90    3.50
  -5   6  -8    2.30    3.30
   8  -7  -8    9.10    6.00
   8  -7  -8    0.40    5.40
   8   7  -8   -3.60    3.20
   7  -7  -8   62.69    7.90
  -7  -7   8   59.99    6.80
   7   7  -8   73.29    6.10
   7   7  -8   59.89    6.00
   6  -7  -8  135.59    8.10
  -6  -7   8  128.79    8.10
   6  -7  -8  140.89    7.30
   6   7  -8  141.89    6.30
  -5  -7   8  591.24   13.30
   5  -7  -8  605.84   15.80
   5  -7  -8  578.74   15.90
  -5  -7   8  565.14   15.60
   5   7  -8  594.34   15.00
  -4  -7   8   20.50    2.80
  -4  -7   8   21.50    2.70
  -4  -7   8   20.40    2.40
   4  -7  -8   10.60    3.40
  -4  -7   8   17.30    3.90
   4  -7  -8   18.40    3.70
   4  -7  -8   15.20    3.70
   4   7  -8   18.80    3.00
  -4   7   8   24.50    4.00
  -3  -7   8   81.39    5.80
   3  -7  -8   69.29    5.60
   3  -7  -8   68.29    5.50
  -3  -7   8   77.59    4.50
  -3  -7   8   72.19    6.10
   3  -7  -8   72.19    5.30
   3   7  -8   62.39    4.80
  -3   7   8   62.59    5.70
  -2  -7   8    6.80    2.90
  -2  -7   8    7.70    2.50
   2  -7  -8    4.70    2.70
   2  -7  -8   13.60    3.40
  -2  -7   8    5.50    3.50
   2  -7  -8    2.80    3.30
  -2  -7   8    8.30    2.80
  -2   7   8   12.20    3.50
   2   7  -8    3.20    2.70
  -1  -7   8   63.59    5.00
  -1  -7   8   61.19    5.30
   1  -7  -8   79.59    5.70
   1  -7  -8   69.39    5.80
  -1  -7   8   68.09    5.40
   1  -7  -8   79.79    4.90
  -1  -7   8   74.69    5.80
   1   7  -8   67.69    5.30
  -1   7   8   72.39    6.00
   0  -7  -8    7.80    2.80
   0  -7  -8    5.30    3.40
   0  -7  -8    8.60    3.30
   0  -7   8    3.70    3.00
   0  -7   8   15.40    3.10
   0  -7   8   16.00    3.10
   0  -7   8    8.60    3.50
   0   7  -8    8.40    2.90
   0   7   8   11.80    3.90
   1  -7   8   93.59    6.10
  -1  -7  -8  105.19    6.00
   1  -7   8   94.69    6.60
  -1  -7  -8   95.49    5.10
   1  -7   8   82.79    7.10
   1  -7   8   99.49    6.10
  -1   7  -8   86.89    6.70
  -2  -7  -8   40.50    5.20
   2  -7   8   35.10    4.20
  -2  -7  -8   38.50    4.10
  -2  -7  -8   26.20    4.10
   2  -7   8   38.10    4.80
  -2   7  -8   39.10    4.30
   3  -7   8  240.78   10.00
  -3  -7  -8  217.88    9.50
  -3  -7  -8  219.08    7.50
  -3   7  -8  243.78    9.30
  -4  -7  -8    4.00    4.30
   4  -7   8    3.10    4.80
  -4  -7  -8    1.20    2.60
  -4  -7  -8    3.30    4.20
  -4   7  -8   -3.20    4.20
  -5  -7  -8   36.10    5.00
   5  -7   8   34.00    6.10
  -5   7  -8   36.00    5.40
   7   8  -8   10.00    6.30
   7   8  -8   26.60    3.90
   6  -8  -8  193.08   10.00
   6  -8  -8  183.88    9.40
   6   8  -8  199.68    8.50
  -5  -8   8   60.79    3.80
   5  -8  -8   67.19    7.00
   5  -8  -8   59.59    7.00
   5   8  -8   64.29    5.50
   4  -8  -8    1.40    3.80
  -4  -8   8    2.30    2.70
  -4  -8   8   -3.70    2.30
   4  -8  -8   -3.70    4.00
   4   8  -8   -2.40    3.40
  -4   8   8    4.20    4.20
   3  -8  -8   52.29    5.30
  -3  -8   8   47.40    4.90
  -3  -8   8   47.60    4.70
   3  -8  -8   59.99    6.00
  -3  -8   8   52.59    5.50
   3   8  -8   51.79    5.30
  -3   8   8   53.99    6.10
  -2  -8   8  945.51   21.50
  -2  -8   8  933.71   21.20
  -2  -8   8  923.61   21.50
   2  -8  -8  946.91   21.90
   2  -8  -8  949.01   22.70
  -2   8   8  936.81   22.40
  -1  -8   8   -1.20    3.40
   1  -8  -8   -2.90    3.20
  -1  -8   8    4.80    3.60
  -1  -8   8    6.90    3.10
   1  -8  -8    2.40    4.00
   1   8  -8   -1.40    3.80
   0  -8   8   30.00    4.00
   0  -8  -8   29.20    3.70
   0  -8   8   26.30    4.30
   0  -8  -8   27.70    4.70
   0   8  -8   30.20    4.20
   1  -8   8  147.89    8.20
  -1  -8  -8  160.88    8.20
  -1  -8  -8  148.99    6.40
   1  -8   8  147.29    8.20
  -1   8  -8  153.38    7.80
  -2  -8  -8  435.06   13.20
  -2  -8  -8  426.96   11.50
   2  -8   8  440.56   13.90
  -2   8  -8  434.16   13.30
  -3  -8  -8    9.10    3.20
  -3  -8  -8    7.80    5.10
   3  -8   8    4.90    4.90
  -3   8  -8   17.10    4.60
  -4  -8  -8    7.60    5.30
  -4   8  -8    7.20    5.20
  -5  -9   8    2.00    1.90
   5  -9  -8   -2.90    6.10
   5  -9  -8   -6.00    5.00
   5   9  -8   -5.30    3.80
  -4  -9   8   37.80    3.80
   4  -9  -8   37.60    6.00
   4  -9  -8   48.00    5.50
   4   9  -8   42.90    5.30
  -4   9   8   26.60    5.30
  -3  -9   8  210.78    7.50
   3  -9  -8  207.18   10.10
  -3  -9   8  220.38    8.40
   3  -9  -8  200.38    9.10
  -3  -9   8  212.38    8.60
   3   9  -8  213.18    9.20
  -2  -9   8   16.50    3.80
  -2  -9   8    8.30    3.30
   2  -9  -8    8.10    4.70
  -2  -9   8   14.90    3.60
   2   9  -8    8.00    4.00
   1  -9  -8  180.98    9.40
   1  -9  -8  182.48    7.50
  -1  -9   8  186.98    8.20
  -1  -9   8  188.38    8.60
   1   9  -8  189.28    9.10
   0  -9   8   45.00    4.70
   0  -9   8   54.99    5.60
   0  -9  -8   63.29    6.20
   0  -9  -8   56.29    5.40
   0   9  -8   53.99    5.60
   1  -9   8  101.99    8.20
  -1  -9  -8   90.09    6.20
  -1  -9  -8  103.49    9.30
  -1   9  -8   94.99    7.80
  -2  -9  -8   -0.50    5.10
  -2  -9  -8   -0.50    3.10
   2  -9   8    1.00    5.10
  -2   9  -8   -2.40    4.40
   2 -10  -8   -0.40    5.80
  -2 -10   8   12.40    5.00
   2  10  -8   10.50    4.80
   1 -10  -8   19.80    6.20
  -1 -10   8    3.40    4.70
   1  10  -8    6.30    4.80
  10   0  -9   -5.20    5.80
  10   0  -9   -5.40    2.60
  10   0  -9   -3.20    2.10
   9   0  -9   -3.70    3.40
   9   0  -9    0.80    1.70
   9   0  -9   -2.20    2.70
   8   0  -9    3.20    2.50
   8   0  -9   -0.50    3.60
   8   0  -9   -2.30    1.50
   8   0  -9   -3.40    3.10
   7   0  -9   -1.00    1.40
   7   0  -9    2.90    2.90
   7   0  -9   -4.80    3.10
   7   0  -9   -2.30    2.40
   6   0  -9    1.50    2.10
   6   0  -9   -0.50    2.20
   6   0  -9   -0.50    1.40
   6   0  -9    5.90    3.00
   5   0  -9   -1.20    2.00
   5   0  -9    0.30    1.30
   5   0  -9   -1.50    2.60
   5   0  -9    0.60    2.00
  -5   0   9    1.70    2.10
   4   0  -9   -1.90    1.90
   4   0  -9    1.20    1.80
  -4   0   9    0.10    0.80
   4   0  -9   -1.70    1.50
  -4   0   9    0.00    2.00
  -3   0   9    0.70    1.30
   3   0  -9    0.50    1.80
   3   0  -9   -0.60    1.40
   3   0  -9   -2.70    1.80
   2   0  -9   -0.60    1.60
  -2   0   9    1.10    1.80
   2   0  -9   -0.80    1.70
   2   0  -9   -0.30    1.50
   1   0  -9    2.10    1.70
  -1   0   9   -1.00    2.00
   1   0  -9   -2.10    1.70
   1   0  -9   -0.90    1.80
  -1   0   9   -1.10    1.70
   0   0   9   -1.40    1.90
   0   0  -9    1.30    1.90
   0   0  -9    0.40    1.50
   0   0   9   -1.30    2.00
   0   0  -9   -1.00    1.90
   1   0   9    1.20    2.10
  -1   0  -9   -2.10    1.90
  -1   0  -9   -1.40    1.90
  -1   0  -9   -0.80    2.00
   1   0   9    2.30    2.20
  -2   0  -9    4.00    2.10
   2   0   9   -1.20    2.30
  -2   0  -9    0.10    2.10
   2   0   9   -0.80    2.40
  -2   0  -9   -0.40    2.10
  -3   0  -9   -1.50    2.20
   3   0   9    1.70    2.80
  -3   0  -9    0.60    2.20
   3   0   9    1.50    2.60
   4   0   9    3.30    3.00
  -4   0  -9   -5.30    2.30
  -4   0  -9   -1.20    2.30
   4   0   9   -3.50    3.00
   5   0   9    4.10    3.40
  -5   0  -9   -2.50    2.40
  -5   0  -9   -0.90    2.80
  -6   0  -9   -4.10    3.20
  -6   0  -9    2.60    3.10
  -7   0  -9   -0.20    3.30
  10  -1  -9   76.89    4.10
  10  -1  -9   75.49    8.20
  10  -1  -9   63.59    5.20
  10   1  -9   82.09    6.90
   9  -1  -9   74.19    5.00
   9  -1  -9   68.49    6.70
   9  -1  -9   72.69    3.80
   9   1  -9   84.39    6.00
   9   1  -9   61.99    3.30
   9   1  -9   75.69    4.70
   8  -1  -9    9.00    2.00
   8  -1  -9    7.80    2.70
   8  -1  -9    3.60    4.20
   8  -1  -9   13.80    3.50
   8   1  -9    5.30    3.80
   8   1  -9   12.70    3.00
   8   1  -9    7.10    2.80
   8   1  -9    8.40    1.60
   7  -1  -9  125.49    6.80
   7  -1  -9  107.39    5.10
   7  -1  -9  114.29    5.80
   7  -1  -9  114.89    4.20
   7   1  -9  115.69    5.50
   7   1  -9  105.89    5.50
   7   1  -9  118.29    3.80
   7   1  -9  110.09    6.70
   6  -1  -9  101.59    5.20
   6  -1  -9   94.69    3.90
   6  -1  -9  101.49    5.90
   6   1  -9   89.29    6.20
   6   1  -9  104.89    4.90
   6   1  -9  101.89    4.70
   6   1  -9  105.89    3.70
   5  -1  -9   24.30    2.90
   5  -1  -9   22.70    2.80
   5  -1  -9   26.40    3.30
  -5  -1   9   27.00    2.90
   5   1  -9   31.00    3.50
   5   1  -9   24.20    2.50
   5   1  -9   27.50    3.50
   4  -1  -9   46.90    4.10
   4  -1  -9   48.00    3.10
  -4  -1   9   46.90    2.00
   4  -1  -9   50.69    3.30
   4   1  -9   47.80    3.40
  -4   1   9   48.50    4.00
  -4   1   9   50.09    2.30
   4   1  -9   49.70    3.50
   4   1  -9   50.29    2.90
  -3  -1   9   56.79    4.30
   3  -1  -9   48.40    3.20
  -3  -1   9   49.00    2.70
   3  -1  -9   46.70    3.40
   3   1  -9   51.49    3.40
   3   1  -9   55.09    3.20
  -3   1   9   47.60    3.00
   3   1  -9   44.40    3.70
  -3   1   9   48.60    3.40
   2  -1  -9  135.29    4.90
  -2  -1   9  145.39    4.70
   2  -1  -9  137.49    5.10
   2   1  -9  139.69    5.50
  -2   1   9  143.79    5.10
   2   1  -9  137.09    5.10
   2   1  -9  139.29    4.90
  -2   1   9  140.09    5.40
  -1  -1   9  451.85   11.90
   1  -1  -9  450.05   11.10
   1  -1  -9  444.16   11.10
  -1  -1   9  449.95   11.40
  -1   1   9  460.15   11.40
   1   1  -9  449.36   11.00
   1   1  -9  452.85   11.60
   1   1  -9  452.85   11.30
   0  -1  -9  415.66   10.60
   0  -1   9  417.36   10.60
   0  -1  -9  412.86   10.50
   0  -1   9  414.46   10.50
   0   1  -9  398.26   10.60
   0   1   9  420.86   10.70
   0   1  -9  403.96   10.90
   0   1  -9  408.56   10.50
   0   1   9  414.26   10.60
  -1  -1  -9   22.30    2.70
   1  -1   9   20.90    2.80
   1  -1   9   21.80    2.80
  -1  -1  -9   25.20    2.70
  -1  -1  -9   19.30    2.30
  -1   1  -9   25.20    2.90
   1   1   9   22.20    2.80
  -1   1  -9   20.90    2.70
   1   1   9   27.60    3.00
  -1   1  -9   21.00    2.40
  -2  -1  -9  166.58    6.10
   2  -1   9  159.08    6.20
  -2  -1  -9  165.08    6.20
   2  -1   9  160.78    6.10
  -2  -1  -9  167.68    6.20
  -2   1  -9  168.98    6.40
   2   1   9  167.78    6.40
   2   1   9  167.28    6.70
  -2   1  -9  163.28    6.10
  -2   1  -9  168.38    6.40
  -3  -1  -9    1.90    2.30
   3  -1   9    0.40    2.60
  -3  -1  -9    6.60    2.50
   3  -1   9    2.50    2.80
  -3  -1  -9    3.60    2.40
   3   1   9    5.00    2.80
   3   1   9    0.60    2.90
  -3   1  -9    2.30    2.50
  -3   1  -9    1.40    2.40
  -4  -1  -9  242.28    7.90
   4  -1   9  238.98    8.80
  -4  -1  -9  252.47    8.20
   4  -1   9  231.28    8.60
  -4   1  -9  252.67    8.10
  -4   1  -9  249.58    8.10
   4   1   9  241.48    8.90
   4   1   9  228.88    8.80
  -5  -1  -9  203.28    7.20
   5  -1   9  183.48    8.30
  -5  -1  -9  210.08    7.50
  -5   1  -9  196.68    7.20
   5   1   9  180.78    8.10
  -5   1  -9  209.98    7.70
  -6  -1  -9    6.80    3.10
  -6  -1  -9    5.70    3.00
   6   1   9    5.90    3.90
  -6   1  -9   15.00    3.50
  -7  -1  -9   19.90    3.90
  -7  -1  -9   23.80    6.80
  -7   1  -9   14.20    3.80
  10  -2  -9  284.97    8.90
  10  -2  -9  266.17    8.10
  10   2  -9  281.47   10.00
   9  -2  -9   59.59    4.50
   9  -2  -9   62.99    6.70
   9  -2  -9   52.69    5.00
   9   2  -9   61.69    5.50
   9   2  -9   65.99    5.00
   8  -2  -9    0.10    2.30
   8  -2  -9    3.20    3.40
   8   2  -9    0.80    2.80
   8   2  -9    3.90    4.20
   8   2  -9    2.00    2.40
   8   2  -9   -0.20    1.40
   7  -2  -9  146.49    7.20
   7  -2  -9  144.79    6.70
   7  -2  -9  144.89    5.20
   7   2  -9  140.09    7.70
   7   2  -9  156.38    5.80
   7   2  -9  155.08    4.60
   7   2  -9  149.49    6.10
   6  -2  -9  159.18    5.30
   6  -2  -9  158.58    7.10
   6  -2  -9  162.58    6.60
   6   2  -9  158.48    5.90
   6   2  -9  155.88    6.10
   6   2  -9  162.78    4.90
   6   2  -9  156.88    6.80
   5  -2  -9  155.78    6.50
   5  -2  -9  150.48    6.10
   5  -2  -9  151.38    5.20
   5   2  -9  156.28    5.60
   5   2  -9  151.08    4.80
   5   2  -9  158.68    6.00
  -4  -2   9    3.80    2.00
   4  -2  -9    1.10    2.70
   4  -2  -9    6.20    2.00
   4  -2  -9    2.20    2.20
  -4  -2   9    5.60    0.90
   4   2  -9    5.70    2.10
   4   2  -9    5.80    1.60
   4   2  -9    6.80    1.90
  -4   2   9    7.40    1.50
   3  -2  -9  189.18    6.30
  -3  -2   9  211.68    5.60
  -3  -2   9  212.68    5.60
   3  -2  -9  206.38    6.80
   3  -2  -9  213.78    6.70
  -3  -2   9  204.98    6.50
   3   2  -9  209.98    6.30
  -3   2   9  201.08    6.00
   3   2  -9  212.58    7.00
   3   2  -9  210.18    6.40
  -3   2   9  196.38    6.90
   2  -2  -9 1929.21   39.90
   2  -2  -9 1884.21   40.10
  -2  -2   9 2050.79   39.50
   2   2  -9 1943.61   39.80
   2   2  -9 1940.81   40.40
  -2   2   9 1954.50   39.70
   2   2  -9 1926.11   40.00
  -2   2   9 1963.70   40.20
   1  -2  -9    4.80    2.00
   1  -2  -9    3.30    2.00
  -1  -2   9    8.10    2.20
  -1   2   9    4.50    2.20
   1   2  -9    4.20    1.80
   1   2  -9    6.40    1.90
   1   2  -9    4.90    2.00
  -1   2   9    4.80    2.30
   0  -2   9  298.67    8.60
   0  -2  -9  303.17    8.50
   0  -2  -9  301.07    8.50
   0  -2   9  314.37    8.50
   0   2  -9  297.17    8.50
   0   2  -9  304.57    9.00
   0   2   9  303.67    8.80
   0   2  -9  304.07    8.50
   0   2   9  307.47    8.60
  -1  -2  -9  552.74   13.40
  -1  -2  -9  551.74   13.50
   1  -2   9  559.34   13.70
   1  -2   9  547.15   13.50
  -1   2  -9  538.55   13.60
   1   2   9  557.14   13.80
  -1   2  -9  543.75   13.50
   1   2   9  571.64   13.70
  -1   2  -9  548.85   13.90
  -2  -2  -9  431.16   11.40
   2  -2   9  433.56   11.70
  -2  -2  -9  443.36   11.40
   2  -2   9  429.56   11.60
  -2   2  -9  421.26   11.60
  -2   2  -9  438.26   11.50
   2   2   9  443.16   11.40
   2   2   9  438.36   11.90
   3  -2   9  175.08    7.30
  -3  -2  -9  179.58    6.60
  -3  -2  -9  180.18    6.60
  -3  -2  -9  182.28    6.70
   3  -2   9  178.68    6.90
  -3   2  -9  183.08    6.80
  -3   2  -9  179.98    7.00
   3   2   9  181.98    6.90
   3   2   9  183.18    7.50
  -4  -2  -9   81.29    5.00
  -4  -2  -9   84.99    5.10
   4  -2   9   81.19    5.90
   4  -2   9   69.59    5.80
   4   2   9   89.49    5.80
   4   2   9   80.29    6.30
  -4   2  -9   75.99    5.50
  -4   2  -9   85.79    5.70
  -5  -2  -9    1.20    2.90
  -5  -2  -9    5.00    2.70
   5   2   9   -1.20    3.50
  -5   2  -9   -0.70    3.20
  -6  -2  -9  299.67    9.50
  -6  -2  -9  280.97    9.40
  -6   2  -9  282.97    9.40
  10  -3  -9  210.98   10.70
  10   3  -9  213.58    8.50
   9  -3  -9    9.30    3.20
   9  -3  -9    8.20    4.80
   9  -3  -9   12.70    3.60
   9   3  -9   14.40    1.90
   9   3  -9    5.40    3.60
   8  -3  -9    4.60    2.80
   8  -3  -9    5.30    3.90
   8   3  -9    4.50    3.80
   8   3  -9    3.90    2.80
   8   3  -9    6.30    1.80
   7  -3  -9  346.67   10.60
   7  -3  -9  335.97    9.20
   7  -3  -9  318.17   10.70
   7   3  -9  350.36    9.30
   7   3  -9  337.17   10.70
   7   3  -9  337.27    8.40
   6  -3  -9  451.95   11.10
   6  -3  -9  434.56   12.60
   6  -3  -9  459.25   12.30
   6   3  -9  432.76   11.50
   6   3  -9  442.36   11.10
   6   3  -9  426.36   12.20
   6   3  -9  441.86   10.40
  -5  -3   9  299.47    8.40
   5  -3  -9  296.57    8.30
   5  -3  -9  297.37    9.10
   5  -3  -9  291.17    9.00
   5   3  -9  289.77    8.20
   5   3  -9  286.67    8.70
   5   3  -9  290.47    7.70
  -4  -3   9  553.74   13.10
   4  -3  -9  543.85   13.20
  -4  -3   9  518.95   11.80
   4  -3  -9  569.24   13.80
  -4  -3   9  571.24   11.50
   4  -3  -9  549.05   13.70
   4   3  -9  554.94   12.90
  -4   3   9  561.94   12.50
   4   3  -9  569.14   13.80
   4   3  -9  564.04   13.10
  -3  -3   9   54.99    3.00
  -3  -3   9   59.99    4.10
   3  -3  -9   48.70    3.90
   3  -3  -9   49.90    4.20
   3  -3  -9   51.09    3.70
  -3  -3   9   57.09    3.00
   3   3  -9   56.49    3.40
  -3   3   9   52.39    3.70
  -3   3   9   50.89    4.40
   3   3  -9   49.70    3.70
   3   3  -9   56.49    3.50
   2  -3  -9  188.28    6.40
   2  -3  -9  188.18    6.20
  -2  -3   9  188.28    5.80
  -2  -3   9  168.48    6.90
   2  -3  -9  178.98    6.30
  -2  -3   9  190.28    5.80
   2   3  -9  192.98    6.20
  -2   3   9  188.58    6.50
   2   3  -9  190.78    6.20
  -2   3   9  188.98    6.70
   2   3  -9  188.78    6.50
   1  -3  -9  248.38    7.50
  -1  -3   9  255.37    7.80
   1  -3  -9  249.28    7.70
  -1  -3   9  262.47    7.60
   1   3  -9  255.27    8.10
   1   3  -9  245.88    7.60
   1   3  -9  249.18    7.60
  -1   3   9  253.97    7.80
  -1   3   9  252.47    7.80
   0  -3   9   80.59    4.60
   0  -3   9   83.09    4.60
   0  -3  -9   81.99    4.30
   0  -3  -9   74.79    4.60
   0   3  -9   75.09    4.30
   0   3  -9   73.69    4.80
   0   3   9   73.09    4.60
   0   3  -9   79.59    4.50
   0   3   9   76.79    4.90
   1  -3   9  966.00   21.50
  -1  -3  -9  930.41   21.20
   1  -3   9  964.20   21.60
  -1  -3  -9  936.81   21.50
   1   3   9  986.10   21.40
  -1   3  -9  983.60   22.10
  -1   3  -9  969.90   21.60
   1   3   9  945.31   21.70
   2  -3   9   61.49    5.00
  -2  -3  -9   62.09    4.50
  -2  -3  -9   55.79    4.50
   2  -3   9   49.90    4.80
  -2   3  -9   59.29    4.90
  -2   3  -9   52.39    4.40
   2   3   9   58.99    5.10
   2   3   9   47.70    5.20
   3  -3   9  142.49    6.70
   3  -3   9  149.79    7.00
  -3  -3  -9  161.38    6.70
  -3  -3  -9  150.28    6.00
   3   3   9  147.99    7.20
  -3   3  -9  154.98    6.40
   3   3   9  148.89    6.90
   4  -3   9  250.07    9.40
  -4  -3  -9  282.47    9.00
  -4   3  -9  260.57    9.10
   4   3   9  258.87    9.20
  -5  -3  -9  250.87    8.70
  -5  -3  -9  254.47    8.80
   5   3   9  240.38    9.70
  -5   3  -9  243.08    8.90
  -6  -3  -9  206.48    7.70
  -6  -3  -9  186.88    7.70
  -6  -3  -9  194.58    7.60
  -6   3  -9  188.08    8.00
   9  -4  -9    9.90    3.60
   9  -4  -9    9.00    5.10
   9  -4  -9    3.20    3.50
   9   4  -9    6.60    3.50
   8  -4  -9  232.78    9.60
   8  -4  -9  213.98    7.70
   8   4  -9  223.18    7.30
   8   4  -9  214.58    6.60
   7  -4  -9   43.40    4.60
   7  -4  -9   37.10    4.70
   7   4  -9   43.10    3.60
   7   4  -9   42.10    3.70
   7   4  -9   43.60    4.50
   6  -4  -9  748.93   17.20
   6  -4  -9  730.63   18.20
   6  -4  -9  722.33   17.90
   6   4  -9  745.73   16.70
   6   4  -9  745.13   16.40
   5  -4  -9   40.70    3.80
   5  -4  -9   40.50    4.00
  -5  -4   9   41.40    4.60
   5  -4  -9   33.60    3.70
   5   4  -9   35.90    3.40
  -5   4   9   37.50    2.80
   5   4  -9   38.40    3.50
   4  -4  -9  559.74   14.30
   4  -4  -9  544.35   13.60
  -4  -4   9  573.94   13.50
   4  -4  -9  557.84   13.90
  -4  -4   9  554.34   11.90
  -4  -4   9  559.84   11.90
   4   4  -9  566.34   13.30
  -4   4   9  569.04   13.00
   4   4  -9  573.54   14.20
   4   4  -9  561.24   13.20
  -3  -4   9   24.70    4.60
   3  -4  -9   21.10    3.10
  -3  -4   9   16.20    3.00
   3  -4  -9   17.60    2.90
  -3  -4   9   18.30    2.10
  -3  -4   9   16.20    2.10
   3  -4  -9   17.70    2.80
   3   4  -9   17.70    2.40
   3   4  -9   19.40    3.00
   3   4  -9   22.00    2.50
   2  -4  -9   46.80    4.00
   2  -4  -9   39.30    3.80
   2  -4  -9   36.40    3.60
  -2  -4   9   35.50    3.50
  -2  -4   9   40.40    4.10
  -2  -4   9   39.40    3.10
   2   4  -9   35.80    4.20
   2   4  -9   39.80    3.40
   2   4  -9   37.90    3.50
  -2   4   9   41.70    3.90
  -2   4   9   39.50    4.20
   1  -4  -9  154.68    6.10
   1  -4  -9  148.09    5.80
   1  -4  -9  153.08    5.30
  -1  -4   9  148.59    5.90
  -1  -4   9  147.99    6.20
  -1  -4   9  157.68    6.10
  -1  -4   9  142.99    5.80
  -1   4   9  157.48    6.30
   1   4  -9  146.09    5.80
   1   4  -9  151.18    6.00
  -1   4   9  150.18    6.40
   1   4  -9  151.58    6.50
   0  -4  -9   34.70    3.60
   0  -4   9   37.80    4.30
   0  -4   9   34.40    4.10
   0  -4  -9   29.20    3.40
   0  -4   9   35.60    3.80
   0   4   9   39.50    4.70
   0   4   9   35.80    3.50
   0   4  -9   41.50    4.00
   0   4  -9   31.60    3.90
   1  -4   9   35.90    4.50
  -1  -4  -9   40.30    3.70
  -1  -4  -9   34.90    4.30
   1  -4   9   40.80    4.00
   1  -4   9   39.60    3.80
   1   4   9   42.20    5.00
   1   4   9   39.90    4.30
  -1   4  -9   40.20    4.00
   2  -4   9  235.38    8.50
  -2  -4  -9  233.28    7.90
  -2  -4  -9  231.48    7.50
   2  -4   9  228.18    8.20
   2  -4   9  214.78    8.20
   2   4   9  222.68    8.50
  -2   4  -9  225.28    7.80
   2   4   9  229.98    8.00
  -3  -4  -9    4.20    3.20
   3  -4   9    0.10    3.30
   3  -4   9    4.20    3.10
  -3  -4  -9    7.70    2.80
   3   4   9    6.30    3.50
  -3   4  -9    2.60    2.70
   3   4   9    3.80    2.90
  -4  -4  -9   21.40    4.00
  -4   4  -9   25.50    4.00
   4   4   9   28.40    4.40
  -5  -4  -9    9.80    3.60
  -5  -4  -9    8.90    2.40
   5   4   9   10.20    4.50
  -6  -4  -9    8.40    3.60
  -6  -4  -9    8.70    2.90
  -6  -4  -9   14.40    3.90
  -6   4  -9    9.40    4.20
   6   4   9   11.10    4.80
   9  -5  -9   50.89    6.80
   9  -5  -9   56.69    6.80
   9  -5  -9   58.49    6.60
   9   5  -9   63.89    4.50
   9   5  -9   56.19    4.70
   8  -5  -9   15.90    4.10
   8  -5  -9    8.80    4.80
   8  -5  -9    9.60    4.00
   8   5  -9    8.70    2.70
   8   5  -9   12.60    2.80
   7  -5  -9  106.29    6.20
   7  -5  -9  105.09    6.40
   7  -5  -9   91.49    6.50
   7   5  -9   92.69    7.80
   7   5  -9   82.79    5.00
   7   5  -9   94.69    4.50
   6  -5  -9  114.59    5.70
   6  -5  -9  114.29    6.70
  -6  -5   9  112.09    5.20
   6   5  -9  107.79    4.60
   6   5  -9  105.99    5.10
   5  -5  -9    4.30    3.20
   5  -5  -9    8.70    3.40
  -5  -5   9    7.80    2.90
   5  -5  -9    7.10    2.90
   5   5  -9    5.80    2.30
  -5   5   9    7.00    2.20
   5   5  -9    5.00    2.40
  -4  -5   9  243.58    7.60
   4  -5  -9  251.27    8.20
   4  -5  -9  249.38    8.50
   4  -5  -9  244.68    8.20
  -4  -5   9  243.38    6.20
  -4  -5   9  240.78    8.60
  -4  -5   9  248.98    6.30
   4   5  -9  239.08    7.50
   4   5  -9  239.58    7.30
  -3  -5   9 1250.87   27.50
   3  -5  -9 1268.17   26.60
  -3  -5   9 1226.98   26.60
  -3  -5   9 1245.38   26.00
   3  -5  -9 1222.48   27.20
   3  -5  -9 1218.28   27.10
  -3  -5   9 1243.48   25.80
   3   5  -9 1242.28   26.50
  -3   5   9 1232.38   26.70
   3   5  -9 1219.88   26.70
   2  -5  -9   63.69    4.80
  -2  -5   9   44.00    4.60
   2  -5  -9   44.10    4.20
  -2  -5   9   49.60    4.00
  -2  -5   9   45.10    4.10
   2  -5  -9   55.29    4.40
   2   5  -9   48.10    4.10
  -2   5   9   50.99    4.90
   1  -5  -9 1367.76   30.10
   1  -5  -9 1384.66   28.60
  -1  -5   9 1374.46   30.50
  -1  -5   9 1440.66   29.90
  -1  -5   9 1395.26   29.80
   1  -5  -9 1392.66   29.80
  -1  -5   9 1409.16   29.90
  -1   5   9 1389.96   30.30
   1   5  -9 1394.06   30.10
  -1   5   9 1379.96   30.00
   0  -5  -9    0.10    2.00
   0  -5  -9    0.80    2.60
   0  -5   9    1.70    3.10
   0  -5   9    5.60    2.80
   0  -5  -9    3.10    2.90
   0  -5   9    2.40    2.80
   0  -5   9    3.20    2.50
   0   5  -9    1.10    2.50
   0   5   9    6.60    2.80
   0   5   9    6.30    3.20
  -1  -5  -9   99.89    3.70
   1  -5   9   91.69    5.70
  -1  -5  -9   99.99    5.60
  -1  -5  -9  101.69    4.90
   1  -5   9  102.39    5.90
   1  -5   9   89.19    5.80
  -1   5  -9  103.19    5.60
   1   5   9   99.19    6.10
   1   5   9   98.59    6.30
   2  -5   9   21.60    3.60
  -2  -5  -9   17.90    1.90
  -2  -5  -9   23.20    3.10
   2  -5   9   14.30    3.40
   2  -5   9   16.60    3.80
  -2  -5  -9   19.40    3.60
   2   5   9   13.90    3.80
   2   5   9   19.90    3.60
  -2   5  -9   17.60    3.30
   3  -5   9   19.40    4.10
  -3  -5  -9   20.40    3.20
  -3  -5  -9   24.80    4.00
   3   5   9   20.20    3.70
  -3   5  -9   24.20    3.50
   4  -5   9  159.88    8.50
  -4  -5  -9  162.18    6.80
  -4  -5  -9  156.98    7.60
   4   5   9  160.08    7.70
  -4   5  -9  145.49    7.50
  -5  -5  -9   30.20    4.10
  -5  -5  -9   23.70    3.70
  -5   5  -9   34.00    4.30
   5   5   9   18.80    4.40
   8  -6  -9  115.59    9.00
   8  -6  -9  131.39    7.90
   8   6  -9  110.19    6.40
   7  -6  -9   36.20    4.80
   7  -6  -9   36.40    5.20
   7   6  -9   33.50    5.20
   7   6  -9   33.30    3.80
   6  -6  -9   24.50    4.40
  -6  -6   9   26.90    4.40
   6  -6  -9   26.80    4.10
   6  -6  -9   31.80    4.60
   6   6  -9   24.10    3.30
   5  -6  -9  205.38    8.20
  -5  -6   9  195.08    8.40
   5  -6  -9  216.38    8.00
   5   6  -9  217.38    7.40
   4  -6  -9   55.59    5.50
  -4  -6   9   48.10    5.50
  -4  -6   9   53.09    3.60
  -4  -6   9   52.79    3.30
   4  -6  -9   51.39    5.00
   4  -6  -9   50.79    5.10
  -4  -6   9   57.89    5.00
   4   6  -9   49.60    4.40
  -4   6   9   52.09    5.30
  -3  -6   9   18.40    3.60
  -3  -6   9   12.50    2.50
  -3  -6   9   13.40    2.90
   3  -6  -9   11.20    3.40
   3  -6  -9   16.60    3.10
  -3   6   9   18.00    3.40
   3   6  -9   16.90    2.80
   2  -6  -9   36.00    4.00
   2  -6  -9   43.50    4.80
  -2  -6   9   31.60    4.20
  -2  -6   9   36.00    3.70
  -2  -6   9   39.90    4.60
  -2  -6   9   36.40    3.80
   2  -6  -9   34.00    4.20
  -2   6   9   35.80    4.40
   2   6  -9   39.20    4.40
  -1  -6   9  141.59    6.10
   1  -6  -9  140.19    6.40
  -1  -6   9  144.89    6.80
  -1  -6   9  142.79    6.80
  -1  -6   9  120.19    7.30
   1  -6  -9  132.19    5.00
   1  -6  -9  146.49    6.60
  -1   6   9  132.19    7.60
   1   6  -9  142.79    6.40
   0  -6   9  249.58    8.60
   0  -6   9  250.47    9.10
   0  -6   9  260.67    8.80
   0  -6  -9  259.27    8.40
   0  -6  -9  251.97    6.40
   0  -6   9  242.68    8.70
   0  -6  -9  271.47    9.00
   0   6   9  242.58    9.10
   0   6  -9  259.27    8.70
  -1  -6  -9   28.50    3.90
  -1  -6  -9   26.70    3.10
   1  -6   9   26.50    3.60
   1  -6   9   24.00    3.60
   1  -6   9   26.20    4.10
   1  -6   9   29.40    3.80
   1   6   9   23.90    4.00
  -1   6  -9   18.60    3.50
   1   6   9   25.60    3.60
   2  -6   9    1.60    3.10
   2  -6   9   -0.50    3.20
  -2  -6  -9   -5.80    3.00
  -2  -6  -9    3.00    2.80
   2   6   9    0.90    3.40
  -3  -6  -9   49.10    4.70
  -3   6  -9   50.39    5.90
   3   6   9   33.60    4.40
  -4  -6  -9   73.29    5.90
  -4  -6  -9   68.99    7.30
  -4  -6  -9   75.99    6.30
  -4   6  -9   81.09    7.50
   4   6   9   76.59    6.70
  -5  -6  -9    4.90    4.40
  -5  -6  -9    4.90    6.20
  -5   6  -9    3.40    4.00
   7  -7  -9    7.40    4.70
   7  -7  -9    0.50    5.10
   7   7  -9   -0.60    3.20
   6  -7  -9   79.99    7.50
  -6  -7   9   77.09    7.00
   6   7  -9   72.29    5.50
  -5  -7   9  477.15   14.00
  -5  -7   9  458.35   12.90
   5  -7  -9  477.25   14.00
   5  -7  -9  480.65   14.30
  -5   7   9  519.55   13.20
   5   7  -9  484.45   13.20
   4  -7  -9  153.78    7.60
  -4  -7   9  144.39    7.40
  -4  -7   9  154.98    5.60
  -4  -7   9  160.78    5.50
  -4   7   9  158.08    7.80
   4   7  -9  157.98    7.30
  -3  -7   9   95.19    5.50
   3  -7  -9  103.39    6.40
  -3  -7   9   98.49    5.60
   3  -7  -9  100.89    6.00
  -3  -7   9   92.79    5.50
  -3  -7   9   73.79    6.00
  -3   7   9   90.89    7.30
   3   7  -9  102.29    5.90
   2  -7  -9   14.00    3.50
  -2  -7   9   22.80    3.80
  -2  -7   9   21.80    3.10
  -2  -7   9   21.90    3.70
   2  -7  -9   20.00    4.00
  -2  -7   9   26.00    4.00
  -2   7   9   18.20    4.40
   2   7  -9   15.40    3.30
  -1  -7   9   -1.50    3.80
  -1  -7   9   -3.30    3.10
   1  -7  -9    1.10    2.90
  -1  -7   9    3.40    3.40
  -1  -7   9    2.90    3.30
   1   7  -9    1.10    3.00
  -1   7   9   -2.60    3.90
   0  -7   9  616.84   15.90
   0  -7   9  615.74   15.80
   0  -7   9  615.14   16.00
   0  -7  -9  627.14   15.40
  -1  -7  -9  161.78    6.70
   1  -7   9  149.69    7.60
   1  -7   9  156.08    7.80
  -1  -7  -9  154.68    8.60
  -1   7  -9  148.19    7.70
   2  -7   9   28.00    4.80
  -2  -7  -9   26.20    3.50
  -2  -7  -9   32.00    4.80
  -2   7  -9   33.40    4.50
  -3  -7  -9   33.10    3.90
   3  -7   9   34.80    5.50
  -3  -7  -9   36.20    5.40
  -3   7  -9   28.40    4.70
   4  -7   9   93.59    8.90
  -4  -7  -9   84.79    8.30
  -4  -7  -9   85.89    5.90
  -4   7  -9   89.79    8.70
   6  -8  -9    7.50    5.10
   6  -8  -9   -1.50    5.10
  -5  -8   9   18.10    2.80
   5  -8  -9   13.10    4.90
   5  -8  -9   25.70    5.70
  -5   8   9   18.10    4.00
  -4  -8   9    5.20    2.90
  -4  -8   9    5.90    3.20
   4  -8  -9   10.40    4.20
   4  -8  -9    1.50    4.40
  -4   8   9    8.50    4.40
   3  -8  -9   16.70    4.80
  -3  -8   9   14.60    3.90
   3  -8  -9   21.40    4.00
  -3  -8   9   22.20    4.20
  -3  -8   9   24.20    3.50
   3   8  -9   20.50    4.80
  -3   8   9   19.10    4.90
   2  -8  -9  111.69    6.90
   2  -8  -9  116.19    7.80
  -2  -8   9  109.89    6.70
  -2  -8   9  110.49    6.90
  -2  -8   9  114.99    6.70
   2   8  -9  117.89    8.00
   1  -8  -9   14.10    4.80
  -1  -8   9   22.70    3.90
  -1  -8   9   14.70    4.00
   1  -8  -9   26.30    3.70
   1   8  -9   19.30    4.10
   0  -8  -9   59.39    6.90
   0  -8   9   53.29    6.50
   0  -8  -9   47.00    5.40
   0  -8   9   51.19    6.10
   0   8  -9   54.19    6.40
  -1  -8  -9   21.90    3.70
  -1  -8  -9   16.60    5.00
   1  -8   9   14.50    4.80
  -1   8  -9   12.80    4.10
  -2  -8  -9   22.10    3.90
   2  -8   9   28.90    5.50
  -2  -8  -9   22.50    5.70
  -2   8  -9   18.20    4.80
  -3  -8  -9    5.90    3.30
   3  -8   9    2.60    5.30
  -3  -8  -9    6.90    5.80
  -3   8  -9    4.60    4.50
  -4  -9   9   64.29    5.40
   4  -9  -9   54.79    6.60
   4  -9  -9   62.29    6.80
   4   9  -9   66.29    6.50
  -3  -9   9  186.58    7.10
  -3  -9   9  172.78    7.60
   3  -9  -9  177.68    9.10
   3  -9  -9  174.68   10.10
  -3  -9   9  178.78    7.80
   3   9  -9  172.88    9.20
   2  -9  -9   -1.90    3.90
  -2  -9   9   -3.80    4.80
  -2  -9   9   13.10    4.30
   2  -9  -9   11.00    5.40
  -2  -9   9    0.90    3.60
   2   9  -9    3.60    4.10
   1  -9  -9   55.19    6.40
  -1  -9   9   56.09    6.80
  -1  -9   9   52.59    5.50
   1   9  -9   53.39    5.80
   0  -9  -9  159.78    7.60
   0  -9   9  161.98   10.20
   0  -9  -9  145.49    9.60
   0   9  -9  162.28    9.10
  -1  -9  -9   25.10    4.10
  -1  -9  -9   20.10    5.80
   1  -9   9   19.60    5.40
  -1   9  -9   22.60    5.00
  10   0 -10  882.41   21.80
  10   0 -10  885.31   19.80
   9   0 -10   -5.00    3.20
   9   0 -10   -1.00    4.10
   9   0 -10   -2.70    2.20
   8   0 -10   48.00    5.20
   8   0 -10   40.40    4.90
   8   0 -10   54.19    3.40
   7   0 -10    0.40    3.50
   7   0 -10    7.40    2.10
   7   0 -10    5.60    2.50
   7   0 -10   -2.00    2.70
   6   0 -10 1690.43   35.60
   6   0 -10 1686.33   35.60
   6   0 -10 1690.83   34.40
   6   0 -10 1682.33   36.00
   5   0 -10   52.49    3.40
   5   0 -10   47.20    4.00
   5   0 -10   56.89    5.10
   5   0 -10   41.60    4.30
  -5   0  10   57.19    5.20
   4   0 -10  137.59    5.60
   4   0 -10  143.19    5.90
  -4   0  10  141.79    4.00
  -4   0  10  142.29    6.00
   4   0 -10  144.09    5.10
  -3   0  10   19.20    2.10
   3   0 -10   21.00    2.60
   3   0 -10   20.40    2.70
   3   0 -10   22.60    2.90
  -3   0  10   24.70    3.00
  -2   0  10  724.83   15.80
   2   0 -10  682.43   16.40
   2   0 -10  708.33   16.30
   2   0 -10  691.33   16.00
  -2   0  10  682.73   16.20
  -1   0  10  991.80   21.50
   1   0 -10  983.80   21.40
   1   0 -10  983.60   21.60
   1   0 -10  988.50   21.90
  -1   0  10  899.91   22.10
   0   0  10  109.69    5.40
   0   0 -10  115.99    5.30
   0   0 -10  112.99    5.10
   0   0  10  114.49    5.00
   0   0 -10  119.49    5.60
   1   0  10    0.70    2.00
  -1   0 -10    0.00    2.10
  -1   0 -10    2.80    2.40
  -1   0 -10    0.00    2.20
   1   0  10   -1.00    2.60
  -2   0 -10  679.03   16.40
   2   0  10  670.93   16.40
  -2   0 -10  676.73   16.30
  -2   0 -10  663.63   16.10
   2   0  10  648.84   16.20
  -3   0 -10   -0.70    2.60
   3   0  10    8.90    3.70
   3   0  10    2.10    3.10
  -3   0 -10    3.50    2.80
  -4   0 -10   96.99    5.70
  -4   0 -10  105.29    5.90
   4   0  10  105.99    6.60
  -5   0 -10   19.10    3.40
  -5   0 -10   22.60    3.80
  -6   0 -10  152.68    8.00
  -6   0 -10  145.29    7.20
  10  -1 -10   86.09    7.90
  10  -1 -10   61.89    6.10
  10  -1 -10   85.89    4.90
   9  -1 -10  157.58    5.70
   9  -1 -10  164.48    8.00
   9  -1 -10  149.79    6.90
   9   1 -10  146.69    6.80
   9   1 -10  164.38    7.30
   9   1 -10  161.78    4.90
   8  -1 -10  141.89    7.30
   8  -1 -10  133.19    5.00
   8  -1 -10  133.89    6.50
   8   1 -10  139.59    4.70
   8   1 -10  141.99    6.40
   8   1 -10  136.69    6.70
   7  -1 -10   50.19    4.60
   7  -1 -10   50.89    3.60
   7  -1 -10   58.09    4.90
   7  -1 -10   62.29    6.00
   7   1 -10   53.19    4.50
   7   1 -10   48.70    3.20
   7   1 -10   54.79    5.00
   7   1 -10   46.50    4.60
   6  -1 -10   67.49    4.10
   6  -1 -10   67.99    5.60
   6  -1 -10   73.39    5.30
   6   1 -10   74.39    5.80
   6   1 -10   74.79    4.60
   6   1 -10   70.69    4.80
   6   1 -10   79.89    3.60
  -5  -1  10 1122.29   24.60
   5  -1 -10 1109.89   24.80
   5  -1 -10 1121.79   24.70
   5  -1 -10 1121.49   23.70
   5   1 -10 1112.69   23.50
   5   1 -10 1127.59   24.50
   5   1 -10 1116.09   24.70
   4  -1 -10  176.78    5.90
  -4  -1  10  185.48    4.70
  -4  -1  10  175.98    4.40
   4  -1 -10  175.98    6.50
  -4  -1  10  181.48    6.60
   4   1 -10  188.38    5.90
  -4   1  10  186.88    5.10
   4   1 -10  177.28    6.30
   4   1 -10  179.08    6.80
  -4   1  10  185.68    6.90
   3  -1 -10  126.49    5.40
  -3  -1  10  142.39    5.70
  -3  -1  10  136.49    4.70
   3  -1 -10  136.59    5.40
   3   1 -10  134.79    5.40
   3   1 -10  143.59    5.60
  -3   1  10  147.09    5.90
  -3   1  10  140.39    4.90
   3   1 -10  139.19    5.10
  -2  -1  10  217.18    6.70
  -2  -1  10  217.18    7.10
   2  -1 -10  223.18    7.00
   2  -1 -10  214.78    6.90
  -2   1  10  198.18    7.30
   2   1 -10  218.48    7.00
   2   1 -10  217.18    7.40
  -2   1  10  222.78    7.30
   2   1 -10  211.18    6.90
   1  -1 -10  460.35   11.60
  -1  -1  10  465.95   11.80
  -1  -1  10  432.56   12.20
   1  -1 -10  464.95   11.80
   1   1 -10  453.85   11.60
   1   1 -10  458.25   11.50
   1   1 -10  459.45   12.20
  -1   1  10  455.35   11.80
  -1   1  10  479.15   11.60
   0  -1  10  414.06   11.10
   0  -1 -10  418.56   11.00
   0  -1 -10  408.96   10.90
   0  -1  10  418.16   11.10
   0   1 -10  404.56   10.90
   0   1  10  421.96   11.10
   0   1 -10  420.06   11.10
   0   1  10  415.76   11.10
   0   1 -10  410.26   11.30
  -1  -1 -10    6.60    2.40
   1  -1  10    8.10    2.30
  -1  -1 -10    5.40    2.40
   1  -1  10    5.80    2.70
  -1  -1 -10    6.10    2.40
   1   1  10    4.10    2.70
  -1   1 -10    4.10    2.50
  -1   1 -10    2.30    2.60
   1   1  10    4.20    2.60
  -1   1 -10    1.40    2.40
  -2  -1 -10   51.19    4.70
  -2  -1 -10   64.59    4.60
   2  -1  10   60.09    5.10
  -2  -1 -10   53.49    4.50
   2  -1  10   58.69    5.20
   2   1  10   61.19    5.10
  -2   1 -10   64.49    5.00
  -2   1 -10   58.69    4.50
  -2   1 -10   62.79    4.70
   2   1  10   51.59    5.30
   3  -1  10  358.36   11.00
   3  -1  10  361.96   11.10
  -3  -1 -10  368.66   10.60
  -3  -1 -10  365.36   11.00
  -3  -1 -10  381.56   10.80
  -3   1 -10  360.36   10.80
  -3   1 -10  362.76   10.60
   3   1  10  370.06   10.90
   3   1  10  347.07   11.00
  -4  -1 -10   82.99    6.00
   4  -1  10   79.89    6.30
  -4  -1 -10   78.79    6.00
   4   1  10   86.09    7.10
  -4   1 -10   87.79    5.50
  -4   1 -10   83.99    5.70
  -5  -1 -10    6.10    3.60
  -5  -1 -10    4.30    3.10
  -5   1 -10    0.40    3.50
   5   1  10   -2.70    3.70
  -5   1 -10   12.60    3.30
  -6  -1 -10  119.99    6.60
  -6  -1 -10  127.69    7.00
  10  -2 -10   28.50    4.40
  10  -2 -10   21.20    5.80
   9  -2 -10    5.50    4.50
   9  -2 -10    4.70    3.00
   9  -2 -10    6.50    3.50
   9   2 -10    6.80    1.90
   9   2 -10    5.80    3.70
   8  -2 -10  170.48    6.10
   8   2 -10  170.58    5.40
   8   2 -10  172.68    7.10
   8   2 -10  178.38    7.10
   7  -2 -10   27.20    3.70
   7  -2 -10   21.20    4.20
   7  -2 -10   28.70    3.10
   7   2 -10   16.00    4.00
   7   2 -10   29.40    3.20
   7   2 -10   27.40    3.50
   7   2 -10   19.60    3.10
   6  -2 -10   19.70    2.70
   6  -2 -10   23.20    3.30
   6  -2 -10   27.20    4.30
   6   2 -10   17.80    3.10
   6   2 -10   19.30    2.40
   6   2 -10   20.60    3.10
   6   2 -10   10.70    3.60
  -5  -2  10    5.00    2.80
   5  -2 -10    5.60    2.30
   5  -2 -10    3.00    2.90
   5  -2 -10    3.30    2.50
   5   2 -10    2.80    1.90
   5   2 -10    1.60    2.20
   5   2 -10    5.00    2.50
  -4  -2  10   85.59    2.90
   4  -2 -10   89.29    5.20
   4  -2 -10   80.49    4.80
  -4  -2  10   82.89    4.80
   4  -2 -10   91.39    4.40
  -4  -2  10   83.69    2.80
   4   2 -10   80.99    4.30
   4   2 -10   89.59    5.10
  -4   2  10   74.49    4.70
  -4   2  10   84.79    3.70
   4   2 -10   84.29    3.90
   3  -2 -10   21.70    2.70
  -3  -2  10   27.40    3.00
   3  -2 -10   20.10    2.90
  -3  -2  10   21.40    2.20
  -3   2  10   24.30    2.60
   3   2 -10   19.20    2.90
   3   2 -10   19.90    2.50
   3   2 -10   26.50    3.20
  -3   2  10   21.90    2.80
   2  -2 -10  757.52   17.40
  -2  -2  10  758.12   16.80
   2  -2 -10  744.33   17.60
  -2  -2  10  765.72   17.50
  -2   2  10  771.12   17.80
   2   2 -10  740.83   17.20
   2   2 -10  757.32   17.50
  -2   2  10  778.72   17.20
   2   2 -10  772.22   17.90
  -1  -2  10  203.98    7.00
  -1  -2  10  207.98    6.70
   1  -2 -10  205.68    6.90
   1  -2 -10  188.28    6.80
  -1   2  10  208.38    7.40
   1   2 -10  202.78    6.80
   1   2 -10  203.28    7.10
  -1   2  10  201.88    7.10
   1   2 -10  198.08    6.80
   0  -2 -10  791.42   18.10
   0  -2 -10  773.42   18.10
   0  -2  10  780.12   18.00
   0  -2  10  770.52   18.10
   0   2  10  772.22   18.10
   0   2 -10  780.12   18.60
   0   2 -10  783.72   18.30
   0   2  10  805.02   18.20
   0   2 -10  779.12   18.10
  -1  -2 -10   16.10    2.90
   1  -2  10   24.20    3.40
   1  -2  10   18.70    3.20
  -1  -2 -10   19.30    2.90
   1   2  10   19.90    3.20
  -1   2 -10   19.70    3.00
  -1   2 -10   15.10    3.10
   1   2  10   15.20    3.40
  -1   2 -10   20.40    3.00
   2  -2  10   35.00    4.00
  -2  -2 -10   32.90    4.00
  -2  -2 -10   36.00    4.30
   2  -2  10   33.20    3.90
   2   2  10   35.30    4.00
  -2   2 -10   38.50    4.20
  -2   2 -10   37.40    4.60
   2   2  10   36.00    3.70
   3  -2  10   33.80    4.00
  -3  -2 -10   38.90    3.80
   3  -2  10   34.20    4.10
  -3  -2 -10   47.40    5.00
  -3  -2 -10   40.90    4.80
  -3   2 -10   37.50    3.90
   3   2  10   35.90    4.00
  -3   2 -10   44.40    4.60
  -4  -2 -10   78.79    5.60
  -4  -2 -10   86.09    5.70
  -4   2 -10   96.59    6.10
  -4   2 -10   87.49    5.80
   4   2  10   82.99    7.00
  -5  -2 -10    0.30    3.00
  -5  -2 -10    7.60    3.70
   5   2  10    6.90    4.20
  -6  -2 -10   -0.60    3.50
  -6  -2 -10    7.10    3.70
  -6   2 -10    8.40    4.10
   9  -3 -10   22.50    4.00
   9  -3 -10   23.20    5.40
   9   3 -10   24.80    2.50
   9   3 -10   23.50    4.40
   8  -3 -10   36.00    4.90
   8  -3 -10   37.80    3.70
   8   3 -10   42.90    4.70
   8   3 -10   47.20    3.70
   7  -3 -10   55.99    6.20
   7  -3 -10   58.79    4.80
   7   3 -10   65.29    4.80
   7   3 -10   60.49    3.90
   7   3 -10   58.49    5.30
   7   3 -10   59.29    6.20
   6  -3 -10   55.79    4.50
  -6  -3  10   62.29    5.10
   6  -3 -10   60.49    5.10
   6  -3 -10   59.59    5.80
   6   3 -10   58.99    4.50
   6   3 -10   52.29    4.80
   6   3 -10   56.19    3.60
   5  -3 -10  222.78    7.10
  -5  -3  10  220.58    7.60
   5  -3 -10  225.08    7.90
   5  -3 -10  221.48    8.10
   5   3 -10  217.88    6.80
   5   3 -10  213.18    7.80
   5   3 -10  223.38    7.00
  -5   3  10  214.78    5.50
   4  -3 -10   22.50    2.90
   4  -3 -10   21.50    3.20
   4  -3 -10   22.50    3.10
  -4  -3  10   21.90    2.90
  -4  -3  10   18.80    1.90
  -4  -3  10   19.20    2.20
  -4   3  10   18.10    2.30
   4   3 -10   21.10    2.70
   4   3 -10   18.10    2.70
   4   3 -10   19.30    2.70
  -3  -3  10   -0.50    1.90
   3  -3 -10    2.70    2.40
   3  -3 -10    3.60    2.50
  -3  -3  10    1.20    2.40
  -3  -3  10    0.30    1.80
   3  -3 -10    3.40    2.50
  -3   3  10    3.60    2.70
   3   3 -10    0.50    1.90
  -3   3  10    4.10    2.80
   3   3 -10    5.60    2.60
   3   3 -10    3.80    2.20
   2  -3 -10  161.38    6.20
  -2  -3  10  159.28    6.20
   2  -3 -10  167.78    6.20
  -2   3  10  164.48    6.80
   2   3 -10  162.38    6.10
   2   3 -10  169.18    6.80
  -2   3  10  161.78    6.20
   2   3 -10  164.08    6.10
   1  -3 -10   32.40    3.90
   1  -3 -10   41.20    3.80
  -1  -3  10   40.80    4.50
  -1  -3  10   40.30    4.10
   1   3 -10   31.80    3.80
  -1   3  10   35.30    4.20
   1   3 -10   33.60    3.40
  -1   3  10   37.10    4.40
   1   3 -10   31.10    3.70
   0  -3  10  368.56   10.40
   0  -3 -10  368.56   10.10
   0  -3 -10  351.96   10.20
   0  -3  10  350.76   10.30
   0   3 -10  366.26   10.40
   0   3  10  364.06   10.40
   0   3 -10  372.46   10.80
   0   3 -10  360.36   10.20
   0   3  10  361.26   10.50
  -1  -3 -10  192.48    7.20
   1  -3  10  179.68    7.20
  -1  -3 -10  193.78    7.30
   1  -3  10  174.48    7.20
  -1   3 -10  192.28    7.60
  -1   3 -10  187.48    7.00
   1   3  10  185.88    7.60
   1   3  10  186.88    7.60
   2  -3  10   -1.00    3.00
  -2  -3 -10    7.20    2.80
  -2  -3 -10   14.70    3.00
   2  -3  10    5.10    3.10
  -2   3 -10    7.10    3.00
  -2   3 -10    6.20    2.80
   2   3  10    5.80    3.00
   2   3  10   11.30    3.50
   3  -3  10   13.90    3.50
  -3  -3 -10   18.60    3.70
  -3  -3 -10    7.40    2.80
   3  -3  10    9.50    3.70
   3   3  10    6.90    3.40
  -3   3 -10    5.40    3.50
  -3   3 -10    7.90    3.40
   3   3  10    1.30    3.90
  -4  -3 -10   78.19    5.70
  -4  -3 -10   63.29    6.20
   4   3  10   63.89    7.20
  -4   3 -10   62.69    6.70
  -5  -3 -10   63.29    5.60
  -5  -3 -10   65.79    6.20
  -5   3 -10   59.29    6.30
   5   3  10   63.79    7.70
  -6  -3 -10   35.80    4.60
   9  -4 -10   28.60    4.60
   9  -4 -10   27.60    4.70
   9  -4 -10   27.90    5.80
   9   4 -10   30.90    4.20
   9   4 -10   32.40    3.20
   8  -4 -10   19.70    4.80
   8  -4 -10   24.90    4.20
   8   4 -10   20.70    3.00
   8   4 -10   19.60    3.60
   7  -4 -10  193.88    7.50
   7  -4 -10  193.08    8.60
   7   4 -10  171.18    8.20
   7   4 -10  189.48    6.30
   7   4 -10  197.18    6.90
  -6  -4  10  129.09    6.10
   6  -4 -10  122.49    6.70
   6  -4 -10  121.49    7.40
   6  -4 -10  129.39    5.90
   6   4 -10  132.99    5.30
   6   4 -10  129.09    5.60
   5  -4 -10   -2.60    2.80
   5  -4 -10    0.20    3.40
   5  -4 -10   -1.00    2.50
  -5  -4  10   -2.50    2.30
   5   4 -10    1.60    2.70
  -5   4  10    0.20    1.90
   5   4 -10   -2.50    2.30
   5   4 -10   -1.40    2.50
   4  -4 -10  198.18    7.60
  -4  -4  10  196.78    5.40
  -4  -4  10  215.18    7.40
   4  -4 -10  202.48    7.80
   4  -4 -10  207.98    7.50
  -4  -4  10  207.38    5.60
   4   4 -10  205.18    6.70
  -4   4  10  202.08    6.70
   4   4 -10  206.78    7.00
   4   4 -10  203.28    7.40
   3  -4 -10  123.09    6.10
   3  -4 -10  124.89    5.80
   3  -4 -10  115.49    5.90
  -3  -4  10  125.59    4.70
  -3  -4  10  127.09    5.70
  -3  -4  10  130.99    5.00
   3   4 -10  123.99    5.30
   3   4 -10  127.19    6.00
   3   4 -10  132.09    5.80
   2  -4 -10 1234.28   27.40
   2  -4 -10 1246.78   27.40
  -2  -4  10 1277.07   26.80
  -2  -4  10 1263.37   27.20
   2  -4 -10 1276.27   26.80
   2   4 -10 1244.88   27.20
  -2   4  10 1266.87   27.30
   2   4 -10 1244.68   27.20
  -2   4  10 1263.17   27.70
   2   4 -10 1235.68   27.80
   1  -4 -10    9.80    3.10
  -1  -4  10   10.10    2.70
   1  -4 -10    6.60    2.60
   1  -4 -10   10.90    2.80
  -1  -4  10   13.00    2.80
  -1  -4  10   13.50    2.90
   1   4 -10    9.90    2.80
   1   4 -10   12.20    2.80
  -1   4  10    5.20    3.10
   1   4 -10    6.00    3.00
  -1   4  10    4.80    3.60
   0  -4 -10   74.19    5.20
   0  -4 -10   77.29    4.80
   0  -4  10   66.39    5.10
   0  -4  10   68.09    5.00
   0  -4  10   73.99    5.30
   0   4 -10   68.89    4.90
   0   4  10   71.39    5.50
   0   4 -10   65.49    4.90
   0   4  10   76.39    5.80
   1  -4  10   89.99    5.90
   1  -4  10   97.09    5.80
  -1  -4 -10  103.79    5.60
  -1  -4 -10  103.79    5.80
  -1   4 -10   98.19    5.60
   1   4  10   99.59    6.30
  -1   4 -10  104.19    5.70
   1   4  10  103.09    5.80
  -2  -4 -10  115.69    6.10
   2  -4  10  114.19    6.60
  -2  -4 -10  108.49    6.00
   2  -4  10   94.89    6.30
   2   4  10  105.69    6.80
   2   4  10  107.79    6.10
  -2   4 -10  115.69    6.10
  -3  -4 -10   76.59    5.80
  -3  -4 -10   76.99    5.80
   3   4  10   79.99    6.90
   4   4  10  136.19    7.60
  -4   4 -10  127.89    7.40
  -5  -4 -10   21.50    4.80
  -5  -4 -10   18.10    3.80
  -5  -4 -10   12.50    3.00
  -5   4 -10   28.50    4.80
   5   4  10   18.10    5.10
   8  -5 -10  147.19    8.10
   8  -5 -10  154.28    9.40
   8  -5 -10  161.68    7.80
   8   5 -10  173.78    6.80
   8   5 -10  164.68    6.70
   7  -5 -10    1.00    3.70
   7  -5 -10   -1.50    4.10
   7   5 -10    2.00    2.40
   7   5 -10    3.70    2.90
   6  -5 -10   69.69    6.10
   6  -5 -10   89.19    7.20
   6  -5 -10   93.49    6.50
  -6  -5  10   71.69    5.10
   6   5 -10   79.59    5.00
   6   5 -10   81.89    4.70
  -5  -5  10  102.59    6.00
   5  -5 -10  104.59    6.30
   5  -5 -10  103.49    6.40
   5  -5 -10  112.69    6.00
   5   5 -10  112.49    5.20
  -5   5  10  102.09    5.20
   5   5 -10  111.89    5.30
  -4  -5  10  346.27    8.50
  -4  -5  10  359.06   10.20
   4  -5 -10  367.46   10.80
   4  -5 -10  357.16   10.80
  -4  -5  10  337.47   10.80
   4  -5 -10  349.57   10.50
  -4  -5  10  359.86    8.50
   4   5 -10  357.66    9.70
   4   5 -10  354.86    9.90
   3  -5 -10   59.39    4.90
   3  -5 -10   67.59    5.00
  -3  -5  10   62.09    4.60
  -3  -5  10   60.89    3.90
  -3  -5  10   58.39    4.90
  -3  -5  10   55.99    5.80
   3  -5 -10   64.39    5.10
  -3   5  10   61.09    5.20
   3   5 -10   62.19    4.60
   3   5 -10   64.19    5.10
  -2  -5  10  229.78    7.90
  -2  -5  10  239.68    8.60
   2  -5 -10  235.78    8.10
   2  -5 -10  248.08    8.50
  -2  -5  10  235.98    8.00
  -2  -5  10  234.58    7.40
  -2   5  10  240.08    8.60
   2   5 -10  238.58    8.00
   1  -5 -10  469.55   11.40
   1  -5 -10  469.65   12.50
  -1  -5  10  477.65   13.50
  -1  -5  10  475.25   12.60
  -1  -5  10  470.65   12.50
   1  -5 -10  479.05   12.80
  -1  -5  10  493.95   12.60
  -1   5  10  456.45   12.80
  -1   5  10  480.35   13.10
   1   5 -10  477.65   12.80
   0  -5  10   35.40    3.80
   0  -5  10   31.40    3.60
   0  -5 -10   38.50    3.70
   0  -5  10   33.00    3.90
   0  -5 -10   37.30    3.80
   0  -5 -10   41.70    4.90
   0  -5  10   37.30    4.40
   0   5  10   45.30    5.60
   0   5 -10   33.80    3.80
   0   5  10   38.50    4.20
   1  -5  10   92.09    5.90
   1  -5  10   74.89    5.80
  -1  -5 -10   78.79    4.00
  -1  -5 -10   83.99    5.70
   1  -5  10   87.19    6.60
  -1  -5 -10   84.79    5.00
  -1   5 -10   84.79    5.80
   1   5  10   85.89    6.50
   1   5  10   74.59    6.30
  -2  -5 -10  164.28    7.00
   2  -5  10  164.38    8.30
  -2  -5 -10  178.28    7.60
   2   5  10  163.28    7.50
  -3  -5 -10  199.38   10.30
  -3  -5 -10  220.18    7.80
   3  -5  10  227.38    9.80
  -3   5 -10  211.08    8.80
   3   5  10  194.98    8.80
  -4  -5 -10   20.30    3.90
  -4  -5 -10   24.20    5.00
   4   5  10   26.30    4.90
  -4   5 -10   23.60    4.30
  -5  -5 -10   25.30    4.50
  -5   5 -10   20.50    5.20
   5   5  10   26.00    5.70
   8  -6 -10   75.89    7.50
   8  -6 -10   82.59    7.50
   8   6 -10  107.29    6.20
   7  -6 -10   18.90    4.80
   7  -6 -10   19.30    5.30
   7   6 -10   27.90    3.40
   7   6 -10   24.10    3.50
   6  -6 -10  254.87    9.90
   6  -6 -10  250.47   10.20
   6  -6 -10  234.38    9.60
   6   6 -10  264.37    8.80
   5  -6 -10   -0.20    3.30
  -5  -6  10    2.10    3.20
  -5  -6  10   -1.50    3.20
   5  -6 -10    3.80    4.40
   5  -6 -10    2.30    3.90
   5   6 -10   -0.90    2.60
  -4  -6  10  876.11   18.80
   4  -6 -10  899.41   20.40
  -4  -6  10  847.32   21.10
  -4  -6  10  861.71   18.70
  -4  -6  10  892.21   19.90
   4  -6 -10  873.01   20.90
  -4   6  10  880.31   20.20
   4   6 -10  874.61   20.40
  -3  -6  10   12.50    3.70
  -3  -6  10    9.30    2.50
   3  -6 -10   19.40    3.80
   3  -6 -10   10.20    3.30
   3  -6 -10   16.40    3.50
  -3  -6  10    6.70    3.30
   3   6 -10   10.90    2.90
  -3   6  10   10.30    4.00
  -2  -6  10   10.70    3.50
  -2  -6  10   12.50    3.20
  -2  -6  10   12.20    3.10
  -2  -6  10   11.70    3.80
   2  -6 -10    4.60    3.40
   2  -6 -10   14.20    3.20
   2   6 -10    8.80    3.00
  -2   6  10    8.30    4.10
   1  -6 -10    8.70    3.10
  -1  -6  10   16.20    3.40
   1  -6 -10   10.70    3.50
  -1  -6  10    9.70    3.30
  -1  -6  10   14.90    3.70
   1  -6 -10    9.80    2.80
  -1  -6  10    9.80    3.20
  -1   6  10   13.50    3.60
   1   6 -10   11.60    3.20
   0  -6  10   41.00    5.00
   0  -6 -10   27.20    4.50
   0  -6  10   26.60    4.10
   0  -6  10   28.20    3.80
   0  -6 -10   29.70    3.70
   0  -6 -10   30.80    3.40
   0  -6  10   33.60    3.90
   0   6 -10   26.50    3.70
   0   6  10   25.20    4.30
  -1  -6 -10  144.09    6.70
   1  -6  10  143.89    7.10
  -1  -6 -10  118.39    8.60
   1   6  10  138.99    7.90
  -1   6 -10  141.59    7.20
   2  -6  10   35.90    4.80
  -2  -6 -10   42.90    4.20
  -2  -6 -10   38.50    5.00
  -2   6 -10   32.80    4.30
   2   6  10   32.80    4.80
  -3  -6 -10    0.80    3.40
  -3  -6 -10    1.40    4.10
  -3   6 -10   -2.50    3.90
   3   6  10   -7.00    4.50
  -4  -6 -10  106.29    6.60
  -4  -6 -10  107.39    8.40
   4   6  10  100.79    8.30
  -4   6 -10  118.99    8.30
   7  -7 -10  197.68   10.70
   7  -7 -10  179.98   10.30
   7   7 -10  210.98    8.60
   6  -7 -10   11.40    5.00
   6  -7 -10    5.60    5.10
   6   7 -10    4.50    3.80
   5  -7 -10  305.47   11.10
   5  -7 -10  313.97   11.60
  -5  -7  10  308.37    9.30
  -5   7  10  319.67   10.20
   5   7 -10  307.87   10.00
   4  -7 -10   57.79    6.70
  -4  -7  10   59.59    4.90
   4  -7 -10   49.90    5.20
  -4  -7  10   55.39    4.40
  -4  -7  10   53.69    6.00
  -4   7  10   56.29    6.00
   4   7 -10   51.29    5.40
  -3  -7  10  377.76   10.60
  -3  -7  10  406.76   11.00
   3  -7 -10  396.16   12.50
  -3  -7  10  387.86   11.30
  -3   7  10  386.06   11.80
   3   7 -10  382.26   11.50
   2  -7 -10  179.58    8.70
  -2  -7  10  175.18    7.40
  -2  -7  10  176.68    7.50
  -2  -7  10  164.78    7.30
   2  -7 -10  175.68    7.50
  -2   7  10  178.78    8.50
  -1  -7  10  103.79    6.30
  -1  -7  10  105.59    7.20
   1  -7 -10  115.09    6.20
  -1  -7  10  119.59    7.40
   1  -7 -10  107.49    7.30
   1   7 -10  111.19    6.90
   0  -7 -10   10.40    4.50
   0  -7  10    4.50    3.40
   0  -7  10    8.20    3.90
   0  -7  10    4.80    4.00
   0  -7 -10    8.40    3.70
   0   7 -10   12.30    3.80
  -1  -7 -10  380.26   11.20
  -1  -7 -10  375.76   12.40
   1  -7  10  372.86   12.50
  -1   7 -10  387.16   12.50
  -2  -7 -10   15.80    5.70
   2  -7  10   23.70    4.90
  -2  -7 -10   14.50    3.60
  -2   7 -10   15.70    4.50
  -3  -7 -10   40.30    6.10
   3  -7  10   35.90    6.10
  -3  -7 -10   36.60    4.10
  -3   7 -10   41.90    5.40
   5  -8 -10   31.80    5.70
   5  -8 -10   39.40    5.90
   5   8 -10   27.30    5.20
  -5   8  10   24.00    5.00
  -4  -8  10   13.50    3.30
   4  -8 -10   15.30    5.10
   4  -8 -10    5.30    4.40
  -4  -8  10   13.20    3.70
   4   8 -10   11.60    4.10
  -4   8  10   18.80    4.70
  -3  -8  10    2.40    3.10
  -3  -8  10    2.20    3.60
   3  -8 -10    4.30    5.00
  -3  -8  10   11.40    3.70
   3  -8 -10    2.20    4.10
   3   8 -10   -2.90    3.70
  -3   8  10   -6.30    5.50
  -2  -8  10   15.40    4.10
   2  -8 -10    5.20    3.80
   2  -8 -10   11.10    4.90
  -2  -8  10   17.80    3.90
  -2  -8  10    9.20    3.90
   2   8 -10   12.90    4.00
  -1  -8  10   74.39    8.40
  -1  -8  10   86.19    7.50
  -1  -8  10   88.09    7.60
   1  -8 -10  103.79    8.00
   1   8 -10  101.89    7.50
   0  -8  10  255.67   10.50
   0  -8 -10  252.17    9.40
   0  -8 -10  259.27   10.80
   0   8 -10  270.87   10.60
   1  -8  10   91.59    8.30
  -1  -8 -10   90.29    6.90
  -1  -8 -10   86.89    8.40
  -1   8 -10   87.19    8.00
   2  -8  10   26.70    5.70
  -2  -8 -10   12.10    5.50
  -2  -8 -10   14.10    4.30
  -2   8 -10   15.10    4.80
   3  -9 -10  185.68    9.70
   3  -9 -10  169.78   10.70
  -3  -9  10  176.68    7.90
   3   9 -10  193.18   10.00
  -2  -9  10    2.70    5.50
   2  -9 -10    3.20    5.00
  -2  -9  10   -3.30    4.70
  -2  -9  10    1.20    4.50
   2  -9 -10    1.90    5.40
   2   9 -10   10.90    4.80
   1  -9 -10   41.40    5.50
   1  -9 -10   30.00    6.30
  -1  -9  10   40.00    5.20
   1   9 -10   35.50    6.10
   9   0 -11    0.80    2.60
   9   0 -11   -6.60    3.60
   9   0 -11    0.50    4.90
   8   0 -11   -1.90    2.40
   8   0 -11   -3.80    3.40
   8   0 -11    0.10    3.40
   7   0 -11    2.30    3.60
   7   0 -11    0.90    2.10
   7   0 -11   -3.50    3.50
   7   0 -11   -1.30    3.30
   6   0 -11    0.50    3.90
   6   0 -11   -2.70    2.50
   6   0 -11    2.80    2.30
   6   0 -11    1.30    2.70
  -5   0  11    5.50    3.10
   5   0 -11   -2.70    3.10
   5   0 -11   -4.60    2.40
   5   0 -11    3.30    3.20
   5   0 -11   -3.40    2.80
  -4   0  11   -1.10    1.60
   4   0 -11    2.80    2.10
   4   0 -11   -2.10    2.50
   4   0 -11    2.80    2.50
  -4   0  11    2.30    2.70
  -3   0  11    0.30    2.50
   3   0 -11    1.60    2.30
   3   0 -11   -2.10    2.00
  -3   0  11    0.50    1.90
   3   0 -11    0.30    1.90
   2   0 -11    0.50    2.30
  -2   0  11   -1.20    2.60
   2   0 -11   -0.70    2.60
  -2   0  11   -1.60    2.50
   2   0 -11    1.00    2.30
   1   0 -11   -2.20    2.10
  -1   0  11    4.10    2.70
   1   0 -11   -1.60    2.40
  -1   0  11    0.70    2.40
   1   0 -11   -0.50    2.30
   0   0 -11    7.20    2.60
   0   0  11    3.00    2.90
   0   0 -11   -1.90    2.70
   0   0 -11   -0.20    2.50
   0   0  11    0.30    2.80
  -1   0 -11   -0.90    2.40
  -1   0 -11   -2.70    2.40
  -1   0 -11   -5.10    2.10
   1   0  11   -2.70    2.80
   1   0  11    2.80    3.00
  -2   0 -11    3.10    2.90
   2   0  11    2.90    3.20
  -2   0 -11   -2.00    2.80
   2   0  11    2.50    3.10
  -2   0 -11   -6.90    2.80
  -3   0 -11    2.30    3.00
   3   0  11   -4.50    4.00
  -3   0 -11    3.60    3.60
  -4   0 -11   -0.70    3.20
  -5   0 -11    0.40    3.70
  -5   0 -11   -1.50    3.40
   9  -1 -11  184.08    6.80
   9  -1 -11  193.28    8.30
   9  -1 -11  204.78    9.90
   9   1 -11  185.88    7.80
   9   1 -11  193.48    6.20
   9   1 -11  192.18    8.00
   8  -1 -11   28.80    4.20
   8  -1 -11   31.40    3.40
   8   1 -11   32.50    3.80
   8   1 -11   33.20    4.70
   8   1 -11   45.50    4.50
   7  -1 -11    1.00    3.70
   7  -1 -11   -0.40    3.10
   7  -1 -11    0.00    3.50
   7  -1 -11    0.50    2.40
   7   1 -11    2.40    2.90
   7   1 -11    3.20    2.80
   7   1 -11    2.10    4.00
   7   1 -11   -2.60    2.30
   6  -1 -11   40.30    4.70
   6  -1 -11   41.90    4.60
   6  -1 -11   33.70    3.20
   6  -1 -11   37.00    4.20
   6   1 -11   39.30    4.30
   6   1 -11   37.80    3.80
   6   1 -11   40.40    4.40
   6   1 -11   35.20    3.90
   5  -1 -11  465.05   11.70
   5  -1 -11  473.85   12.50
  -5  -1  11  466.05   12.50
   5  -1 -11  464.25   13.10
   5   1 -11  470.35   12.70
  -5   1  11  445.36   12.80
   5   1 -11  461.15   12.20
   5   1 -11  475.25   11.50
  -4  -1  11    3.90    1.70
   4  -1 -11    3.50    2.60
  -4  -1  11    5.40    1.30
   4  -1 -11    1.80    2.50
  -4  -1  11    5.90    2.80
  -4   1  11    3.50    1.90
   4   1 -11    6.60    2.90
   4   1 -11    4.20    2.10
   4   1 -11    4.30    2.50
  -4   1  11   10.10    3.10
   3  -1 -11  128.99    5.80
   3  -1 -11  129.49    5.40
  -3  -1  11  127.59    6.00
  -3  -1  11  134.89    5.20
   3   1 -11  123.39    5.70
   3   1 -11  129.99    5.50
  -3   1  11  136.59    5.30
   3   1 -11  128.69    5.80
  -3   1  11  129.99    6.10
  -2  -1  11  115.19    5.80
   2  -1 -11  118.79    5.60
  -2  -1  11  117.59    5.10
   2  -1 -11  118.89    5.50
   2   1 -11  124.49    5.40
   2   1 -11  127.49    6.10
  -2   1  11  107.59    5.80
   2   1 -11  118.39    5.60
  -1  -1  11   30.40    3.50
  -1  -1  11   23.70    3.10
   1  -1 -11   34.60    3.90
   1  -1 -11   32.20    3.40
   1   1 -11   30.80    3.50
   1   1 -11   37.70    4.00
  -1   1  11   35.20    3.50
   1   1 -11   28.60    3.50
  -1   1  11   25.30    3.40
   0  -1 -11  974.60   22.00
   0  -1 -11  973.10   22.10
   0  -1 -11  979.80   22.00
   0  -1  11  972.40   21.90
   0  -1  11  960.50   22.00
   0   1  11  961.90   21.90
   0   1  11  958.90   21.90
   0   1 -11  936.31   21.70
   0   1 -11  964.60   22.10
   0   1 -11  973.90   22.40
   1  -1  11  456.95   12.60
  -1  -1 -11  466.35   12.60
   1  -1  11  458.25   12.40
  -1  -1 -11  463.15   12.50
  -1  -1 -11  459.95   12.40
   1   1  11  434.86   12.40
  -1   1 -11  468.85   12.60
  -1   1 -11  480.65   12.90
  -1   1 -11  451.05   12.40
   1   1  11  458.55   12.70
  -2  -1 -11   40.50    4.70
   2  -1  11   41.10    4.20
  -2  -1 -11   36.20    4.10
  -2  -1 -11   44.80    4.80
   2  -1  11   47.00    5.40
  -2   1 -11   39.10    4.20
   2   1  11   39.40    4.30
  -2   1 -11   43.50    4.70
   2   1  11   34.30    4.00
  -2   1 -11   32.70    3.80
  -3  -1 -11   45.80    5.10
   3  -1  11   49.50    5.50
  -3  -1 -11   49.90    5.30
  -3  -1 -11   52.39    5.20
   3   1  11   34.50    4.70
  -3   1 -11   46.80    5.60
  -3   1 -11   39.20    4.20
  -4  -1 -11    2.40    3.40
  -4   1 -11   -1.00    4.20
  -4   1 -11   -0.40    4.10
  -5  -1 -11  154.68    8.10
  -5  -1 -11  154.58    8.40
  -5   1 -11  153.78    7.80
  -5   1 -11  155.38    8.20
   9  -2 -11   31.00    4.50
   9  -2 -11   27.70    5.20
   9  -2 -11   27.60    3.70
   9   2 -11   25.80    2.80
   9   2 -11   24.40    4.50
   9   2 -11   26.30    4.00
   8  -2 -11 1362.36   29.10
   8   2 -11 1379.76   30.00
   8   2 -11 1384.86   30.20
   7  -2 -11  126.79    5.60
   7   2 -11  127.69    6.90
   7   2 -11  133.09    6.50
   7   2 -11  124.89    5.20
   6  -2 -11   56.59    5.10
   6  -2 -11   49.99    5.00
   6  -2 -11   48.70    4.30
  -6  -2  11   57.49    5.20
   6   2 -11   57.49    3.90
   6   2 -11   59.69    5.10
   6   2 -11   56.89    4.40
   6   2 -11   51.49    5.80
  -5  -2  11  255.97    8.60
   5  -2 -11  265.17    8.70
   5  -2 -11  257.37    7.90
   5  -2 -11  253.87    9.00
   5   2 -11  271.37    7.80
   5   2 -11  250.87    8.80
   5   2 -11  261.17    8.20
  -5   2  11  259.97    5.90
   4  -2 -11 1424.26   30.00
  -4  -2  11 1397.56   27.90
  -4  -2  11 1360.46   27.80
   4  -2 -11 1340.47   29.30
  -4  -2  11 1386.96   29.80
   4  -2 -11 1369.26   30.10
   4   2 -11 1388.16   29.80
   4   2 -11 1419.76   29.40
  -4   2  11 1360.86   30.30
  -4   2  11 1363.66   28.50
   4   2 -11 1399.66   30.40
   3  -2 -11  408.36   11.20
  -3  -2  11  417.06   11.40
  -3  -2  11  441.46   10.50
   3  -2 -11  411.66   11.00
   3   2 -11  419.46   11.30
   3   2 -11  426.36   11.10
  -3   2  11  403.96   11.80
   3   2 -11  423.26   11.70
   2  -2 -11  369.76   10.30
   2  -2 -11  360.86   10.10
  -2  -2  11  345.07   10.20
  -2   2  11  359.66    9.90
   2   2 -11  361.46   10.20
   2   2 -11  369.46   10.80
  -2   2  11  344.77   10.50
   2   2 -11  364.16   10.00
   1  -2 -11  183.08    6.90
   1  -2 -11  185.48    6.80
  -1  -2  11  181.58    6.70
  -1  -2  11  182.28    7.10
   1   2 -11  182.58    6.90
   1   2 -11  175.78    6.90
  -1   2  11  184.78    7.40
  -1   2  11  171.88    7.10
   1   2 -11  176.28    7.40
   0  -2  11 1749.43   37.40
   0  -2 -11 1775.02   37.50
   0  -2  11 1768.82   37.20
   0  -2 -11 1794.02   37.50
   0   2  11 1737.03   37.40
   0   2 -11 1778.72   37.90
   0   2 -11 1796.62   37.80
  -1  -2 -11  406.86   11.50
   1  -2  11  403.06   11.50
  -1  -2 -11  398.56   11.30
   1  -2  11  388.26   11.40
  -1   2 -11  406.36   11.90
   1   2  11  386.56   11.50
  -1   2 -11  388.96   11.30
  -1   2 -11  399.46   11.60
   1   2  11  413.76   11.80
  -2  -2 -11   42.40    4.90
   2  -2  11   52.59    5.50
  -2  -2 -11   47.00    5.00
   2  -2  11   32.80    4.10
  -2  -2 -11   43.60    4.80
   2   2  11   35.90    4.30
  -2   2 -11   46.80    5.40
   2   2  11   41.10    4.30
  -2   2 -11   45.60    4.70
  -3  -2 -11  264.37    9.10
  -3  -2 -11  257.07    9.00
  -3  -2 -11  256.17    9.30
  -3   2 -11  254.07    9.50
  -3   2 -11  241.88    9.90
   3   2  11  252.57    9.20
  -4  -2 -11  648.24   16.50
  -4  -2 -11  563.14   17.70
  -4   2 -11  634.64   16.50
  -4   2 -11  615.34   16.60
  -5  -2 -11  175.98    8.90
  -5  -2 -11  172.78    8.00
  -5   2 -11  161.78    8.90
   9  -3 -11  112.89    6.80
   9  -3 -11  110.89    9.00
   9   3 -11  122.59    6.90
   9   3 -11  115.59    5.20
   8  -3 -11   18.10    4.70
   8  -3 -11    8.40    3.80
   8   3 -11    8.90    2.60
   8   3 -11   11.50    3.80
   8   3 -11    4.40    3.40
   7  -3 -11  241.08    9.50
   7  -3 -11  239.08    8.10
   7   3 -11  237.88    7.40
   7   3 -11  237.58    8.90
   7   3 -11  235.88    8.30
   6  -3 -11  172.48    7.90
   6  -3 -11  179.68    6.90
  -6  -3  11  166.18    7.60
   6  -3 -11  165.48    7.60
   6   3 -11  174.88    6.20
   6   3 -11  179.78    7.50
   6   3 -11  192.98    7.20
   5  -3 -11  159.58    7.80
   5  -3 -11  148.59    6.10
  -5  -3  11  157.88    6.60
   5  -3 -11  148.09    6.90
   5   3 -11  156.68    7.00
   5   3 -11  162.48    6.60
  -5   3  11  156.88    4.80
   5   3 -11  150.88    5.80
   4  -3 -11   65.79    5.00
  -4  -3  11   60.39    5.00
   4  -3 -11   58.59    5.00
  -4  -3  11   62.29    3.00
   4  -3 -11   66.09    5.40
  -4  -3  11   64.89    3.40
   4   3 -11   71.79    4.70
  -4   3  11   68.59    4.50
   4   3 -11   54.09    5.20
   4   3 -11   68.89    4.80
  -3  -3  11  851.51   19.50
  -3  -3  11  877.71   18.40
   3  -3 -11  837.72   19.40
  -3  -3  11  870.71   18.40
   3  -3 -11  805.82   19.60
   3  -3 -11  825.82   19.40
  -3   3  11  793.12   19.80
   3   3 -11  840.32   19.50
   3   3 -11  848.62   20.20
   3   3 -11  851.61   19.20
  -2  -3  11   10.40    3.00
  -2  -3  11    8.20    2.80
   2  -3 -11    7.10    2.70
   2  -3 -11    7.30    2.90
  -2   3  11    2.10    3.00
   2   3 -11   10.50    2.60
  -2   3  11    4.70    2.80
   2   3 -11    8.30    2.80
   2   3 -11    6.30    2.70
   1  -3 -11   10.30    2.80
  -1  -3  11    5.80    2.80
  -1  -3  11    1.00    2.60
   1  -3 -11    0.80    2.60
  -1   3  11   -4.30    3.20
   1   3 -11   -0.20    2.70
  -1   3  11    2.40    3.00
   1   3 -11   -2.20    2.70
   1   3 -11   -0.20    2.50
   0  -3  11    7.00    3.10
   0  -3 -11   11.60    2.80
   0  -3  11    7.00    3.20
   0  -3 -11    8.20    3.10
   0   3 -11   11.10    3.40
   0   3 -11    7.10    3.10
   0   3  11    9.20    3.40
   0   3 -11    9.20    2.90
   0   3  11    4.70    3.60
   1  -3  11  118.49    6.50
  -1  -3 -11  122.99    6.00
  -1  -3 -11  122.09    6.40
   1  -3  11  114.39    6.30
   1   3  11  122.49    6.90
   1   3  11  111.59    6.50
  -1   3 -11  130.49    6.90
  -1   3 -11  119.99    6.10
  -2  -3 -11   79.79    5.60
   2  -3  11   81.19    6.00
   2  -3  11   73.09    5.70
  -2  -3 -11   84.79    5.80
  -2   3 -11   73.79    5.60
   2   3  11   90.79    7.00
  -2   3 -11   90.79    6.30
   2   3  11   69.89    6.90
  -3  -3 -11   -3.90    3.10
  -3  -3 -11    0.90    2.90
  -3   3 -11    1.80    3.50
  -3   3 -11   -2.00    3.40
   3   3  11    4.90    4.40
  -4  -3 -11    5.20    3.60
  -4  -3 -11   12.30    4.80
  -4   3 -11   14.20    4.00
   4   3  11    6.20    4.90
  -5  -3 -11  196.48    9.30
  -5  -3 -11  191.68    9.00
  -5   3 -11  191.88    9.70
   8  -4 -11    0.70    4.90
   8  -4 -11    4.90    4.40
   8   4 -11    3.50    3.90
   8   4 -11    0.10    2.80
   7  -4 -11   -0.80    4.10
   7  -4 -11    4.20    3.70
   7   4 -11    6.10    2.90
   7   4 -11    7.30    3.30
   6  -4 -11  167.58    7.50
   6  -4 -11  181.08    8.10
  -6  -4  11  173.18    7.50
   6   4 -11  166.48    7.80
   6   4 -11  181.98    7.00
   6   4 -11  172.28    6.60
  -5  -4  11    2.00    3.30
   5  -4 -11    3.70    3.00
   5  -4 -11    0.80    3.10
   5  -4 -11    0.70    3.60
  -5   4  11   -2.60    2.10
   5   4 -11   -1.50    2.50
   5   4 -11    0.90    3.00
   5   4 -11   -0.20    2.90
   4  -4 -11  184.58    7.20
   4  -4 -11  184.28    7.50
  -4  -4  11  188.88    5.40
   4  -4 -11  185.78    7.80
  -4  -4  11  190.88    5.60
  -4  -4  11  189.28    7.30
   4   4 -11  180.18    6.70
   4   4 -11  187.88    7.20
   4   4 -11  197.28    8.10
  -3  -4  11   71.49    5.20
   3  -4 -11   76.59    5.20
   3  -4 -11   76.69    5.20
  -3  -4  11   76.49    4.20
  -3  -4  11   78.09    5.20
   3  -4 -11   78.79    5.50
  -3   4  11   78.29    5.70
   3   4 -11   76.29    6.00
   3   4 -11   74.29    4.90
   3   4 -11   72.49    4.80
   2  -4 -11  492.45   13.00
   2  -4 -11  484.35   13.00
  -2  -4  11  493.35   12.30
   2  -4 -11  491.45   12.50
  -2  -4  11  476.65   12.20
  -2  -4  11  490.45   13.10
   2   4 -11  484.15   13.60
   2   4 -11  480.35   12.80
  -2   4  11  467.15   13.30
  -2   4  11  486.05   12.90
   2   4 -11  480.55   12.80
   1  -4 -11    2.00    2.70
   1  -4 -11    1.80    3.10
  -1  -4  11    7.20    2.90
  -1  -4  11   -1.20    3.00
   1  -4 -11   -4.10    2.70
  -1   4  11    4.70    3.30
   1   4 -11   -6.20    2.50
   1   4 -11   -0.20    2.40
   1   4 -11    3.40    2.80
  -1   4  11    1.60    3.20
   0  -4  11  107.99    6.80
   0  -4  11  114.39    6.40
   0  -4 -11  109.19    6.30
   0  -4 -11  121.39    5.90
   0   4 -11  118.49    6.20
   0   4  11  116.19    6.50
   0   4  11  107.69    6.60
   0   4 -11  103.49    6.60
  -1  -4 -11   15.60    3.70
   1  -4  11   10.20    3.50
   1  -4  11    8.90    3.20
  -1  -4 -11   14.40    3.20
   1   4  11    9.10    3.70
  -1   4 -11   15.20    3.50
  -1   4 -11   12.50    3.70
   1   4  11    4.20    3.40
  -2  -4 -11  193.98    7.80
  -2   4 -11  157.08    9.10
   2   4  11  180.38    8.50
  -3  -4 -11   -1.10    4.70
  -3  -4 -11    4.90    3.20
  -3   4 -11   -3.20    3.60
   3   4  11   -1.50    4.60
  -4  -4 -11   47.50    5.80
   4   4  11   41.40    5.80
  -4   4 -11   41.10    5.60
   8  -5 -11   -6.70    5.20
   8  -5 -11   -1.90    4.50
   8   5 -11    2.30    3.10
   8   5 -11   -2.30    3.50
   7  -5 -11  147.89    7.80
   7  -5 -11  133.59    8.60
   7   5 -11  143.39    6.50
   7   5 -11  145.49    6.80
   6  -5 -11   68.19    7.50
   6  -5 -11   65.29    5.80
  -6  -5  11   60.79    6.40
   6  -5 -11   70.89    6.50
   6   5 -11   62.59    5.20
   6   5 -11   68.69    5.60
   5  -5 -11  310.07   10.90
   5  -5 -11  326.07   10.90
  -5  -5  11  317.47    9.90
   5  -5 -11  319.87   10.20
   5   5 -11  311.47    9.60
   5   5 -11  318.07    9.50
  -5   5  11  308.57    8.90
   4  -5 -11   67.09    5.40
  -4  -5  11   77.99    4.20
  -4  -5  11   72.69    3.70
   4  -5 -11   67.99    5.70
  -4  -5  11   69.99    5.40
   4   5 -11   69.89    4.80
   4   5 -11   66.89    5.10
  -4   5  11   67.99    5.50
  -3  -5  11    2.70    3.40
   3  -5 -11    5.70    3.00
   3  -5 -11    3.50    3.40
  -3  -5  11    0.30    3.00
  -3  -5  11   -1.80    2.30
   3  -5 -11    2.60    3.50
   3   5 -11    4.70    2.80
   3   5 -11    3.20    3.00
  -3   5  11    2.20    3.20
   2  -5 -11   31.00    4.70
  -2  -5  11   35.50    3.90
  -2  -5  11   42.50    4.20
   2  -5 -11   40.50    4.80
  -2  -5  11   41.30    5.00
  -2  -5  11   34.20    3.90
   2  -5 -11   45.90    5.20
  -2   5  11   39.40    4.30
   2   5 -11   39.00    4.80
  -1  -5  11  463.35   12.50
  -1  -5  11  467.95   12.60
   1  -5 -11  476.15   13.20
   1  -5 -11  471.35   13.00
  -1  -5  11  446.96   12.60
  -1  -5  11  464.35   13.50
  -1   5  11  455.55   13.10
  -1   5  11  455.95   13.20
   1   5 -11  467.55   13.00
   0  -5  11   12.30    3.40
   0  -5  11   11.90    3.70
   0  -5  11    9.00    3.10
   0  -5 -11   10.10    4.20
   0  -5  11   10.30    3.40
   0  -5 -11   12.80    3.30
   0  -5 -11   18.40    3.10
   0   5  11    6.70    3.70
   0   5  11   14.30    3.90
   0   5 -11   10.70    3.20
  -1  -5 -11  115.69    5.30
  -1  -5 -11  121.99    6.10
  -1  -5 -11  121.99    7.40
  -1   5 -11  123.59    6.90
   1   5  11  112.99    7.10
  -2  -5 -11   28.00    4.20
  -2  -5 -11   28.10    4.60
   2   5  11   24.60    4.30
  -2   5 -11   29.80    4.30
  -3  -5 -11   97.29    7.40
  -3  -5 -11  102.19    6.80
   3   5  11   87.59    7.90
  -3   5 -11  102.69    7.30
  -4  -5 -11    5.90    4.50
   4   5  11   -2.60    5.30
  -4   5 -11    7.40    4.70
   7  -6 -11   32.10    5.80
   7   6 -11   36.90    4.30
   7   6 -11   37.70    4.30
  -6  -6  11  320.77    9.60
   6  -6 -11  302.47   11.70
   6   6 -11  320.37    9.50
   6   6 -11  313.97    9.90
   5  -6 -11  293.57   10.30
   5  -6 -11  277.07    9.90
   5  -6 -11  279.67   10.70
  -5  -6  11  283.87    9.40
   5   6 -11  291.47    9.80
   4  -6 -11   92.39    6.90
  -4  -6  11   93.89    4.70
   4  -6 -11   93.09    6.90
  -4  -6  11   89.99    6.50
   4  -6 -11   97.99    7.50
  -4  -6  11  101.89    4.70
   4   6 -11   97.99    6.60
  -4   6  11   95.89    6.80
  -3  -6  11   -0.60    3.20
  -3  -6  11   -1.30    3.00
   3  -6 -11    2.60    3.60
  -3  -6  11    3.90    3.60
  -3   6  11    5.80    4.20
   3   6 -11    1.90    3.10
   2  -6 -11  431.86   12.90
  -2  -6  11  443.36   12.80
  -2  -6  11  441.36   12.10
  -2  -6  11  451.25   12.50
  -2   6  11  433.16   12.80
   2   6 -11  443.76   12.80
  -1  -6  11   12.10    3.50
  -1  -6  11   15.30    3.40
   1  -6 -11   17.70    3.30
   1  -6 -11   20.80    3.70
  -1  -6  11   24.90    4.20
   1  -6 -11   15.80    4.30
  -1   6  11   21.30    4.00
   0  -6 -11  194.58    8.30
   0  -6  11  200.48    8.30
   0  -6 -11  210.18    9.00
   0  -6  11  207.18   10.00
   0   6  11  215.38    9.00
   0   6 -11  206.68    8.80
   1  -6  11  136.39    8.10
  -1  -6 -11  144.79    8.10
  -1  -6 -11  130.99    7.10
  -1   6 -11  140.59    8.00
   1   6  11  138.69    8.60
  -2  -6 -11  112.49    8.00
   2  -6  11  117.89    8.20
  -2  -6 -11  114.69    6.90
   2   6  11  100.29    8.50
  -2   6 -11  105.89    7.60
  -3  -6 -11   93.19    6.80
  -3  -6 -11   86.19    8.00
  -3   6 -11   83.79    7.70
   6  -7 -11   15.40    5.70
   6  -7 -11   16.00    5.50
   6   7 -11   25.80    4.60
  -5  -7  11  106.29    6.20
   5  -7 -11  111.59    8.40
   5  -7 -11  118.79    8.10
  -5   7  11  127.39    6.60
   4  -7 -11    0.50    4.30
  -4  -7  11   -1.40    2.70
  -4  -7  11   -3.40    3.00
  -4  -7  11    5.40    3.70
   4  -7 -11    1.90    4.60
  -4   7  11    1.10    4.10
  -3  -7  11   16.70    3.90
   3  -7 -11   16.60    4.90
  -3  -7  11    7.80    4.10
   3  -7 -11    9.60    4.10
  -3  -7  11    8.00    3.20
  -3   7  11   15.60    4.70
   3   7 -11    6.10    3.90
   2  -7 -11   11.30    4.60
  -2  -7  11   16.50    4.10
  -2  -7  11   12.60    3.30
  -2  -7  11    5.60    4.00
   2  -7 -11    2.80    4.40
   2   7 -11   11.20    4.00
   1  -7 -11   16.00    4.90
  -1  -7  11   12.30    4.30
  -1  -7  11   27.80    4.10
  -1  -7  11   14.30    5.30
   1   7 -11   13.60    4.20
   0  -7 -11   87.79    6.70
   0  -7  11   87.29    7.20
   0  -7 -11   82.49    7.50
   0   7 -11   86.69    7.30
   1  -7  11   69.49    7.60
  -1  -7 -11   85.89    8.20
  -1  -7 -11   51.49    6.10
  -1   7 -11   74.59    7.60
  -2  -7 -11    8.90    4.00
  -2  -7 -11   12.60    5.30
   2  -7  11    2.70    5.10
  -2   7 -11   13.50    4.70
   4  -8 -11    9.20    5.80
   4  -8 -11   17.10    6.00
  -4  -8  11   10.80    3.40
  -4  -8  11    9.70    4.00
   4   8 -11    9.90    4.40
  -4   8  11   11.20    5.50
   3  -8 -11    3.20    4.50
  -3  -8  11    2.70    4.10
   3  -8 -11    1.30    5.40
  -3  -8  11    4.10    3.40
  -3  -8  11   12.90    4.10
   3   8 -11   -1.30    4.20
   2  -8 -11   78.69    7.20
  -2  -8  11   74.09    6.40
  -2  -8  11   76.69    7.80
  -2  -8  11   67.59    6.80
   2  -8 -11   77.99    8.40
   2   8 -11   65.69    7.50
  -1  -8  11   61.29    6.90
   1  -8 -11   57.89    6.70
   1   8 -11   72.49    7.80
   0  -8  11    5.80    5.00
   0  -8 -11    7.50    4.00
   0  -8 -11    3.80    5.60
   0   8 -11    0.00    4.60
   9   0 -12   70.69    4.80
   9   0 -12   57.59    6.50
   9   0 -12   56.99    7.00
   8   0 -12   79.79    6.40
   8   0 -12   85.49    5.40
   8   0 -12   75.09    6.60
   7   0 -12  166.28    7.90
   7   0 -12  179.38    7.80
   7   0 -12  159.98    6.30
   6   0 -12 3221.38   67.69
   6   0 -12 3344.17   67.69
   6   0 -12 3373.06   66.39
   5   0 -12   95.59    5.70
   5   0 -12   98.49    6.30
  -5   0  12   97.29    6.40
   5   0 -12   94.89    4.80
   4   0 -12  158.78    6.40
   4   0 -12  164.78    6.90
   4   0 -12  169.68    6.80
  -4   0  12  161.08    7.20
  -4   0  12  170.68    5.50
   3   0 -12  481.55   13.20
  -3   0  12  477.25   12.90
   3   0 -12  505.05   12.70
   3   0 -12  506.75   13.10
   2   0 -12 2389.76   50.19
   2   0 -12 2447.46   50.69
  -2   0  12 2386.46   50.19
  -2   0  12 2489.05   49.50
   2   0 -12 2400.06   49.80
   1   0 -12 1021.20   23.60
   1   0 -12 1039.40   23.40
  -1   0  12 1029.30   23.70
   1   0 -12 1040.30   23.90
  -1   0  12 1051.49   23.20
   0   0 -12   40.80    4.60
   0   0 -12   41.60    4.60
   0   0  12   41.90    4.20
   0   0  12   48.30    5.10
   0   0 -12   41.70    4.50
   1   0  12    5.60    3.30
  -1   0 -12    9.60    3.60
  -1   0 -12    7.60    3.30
  -1   0 -12   11.30    3.20
   1   0  12    6.50    3.30
  -2   0 -12  405.56   11.90
  -2   0 -12  350.76   12.90
   2   0  12  378.16   11.60
  -3   0 -12  928.31   22.40
  -3   0 -12  936.91   22.50
  -4   0 -12  109.69    7.40
  -4   0 -12  107.79    7.50
   9  -1 -12  213.08    9.50
   9  -1 -12  217.48    7.80
   9   1 -12  209.58    7.10
   9   1 -12  204.98   10.10
   9   1 -12  203.18    8.90
   8  -1 -12   -1.10    4.20
   8  -1 -12   -0.40    4.00
   8  -1 -12   -5.00    3.10
   8   1 -12    1.10    4.00
   8   1 -12    1.60    4.20
   8   1 -12    9.30    3.40
   7  -1 -12   58.99    4.80
   7  -1 -12   61.19    6.00
   7   1 -12   64.19    5.50
   7   1 -12   59.39    4.40
   7   1 -12   74.39    6.10
   6  -1 -12   33.80    4.60
   6  -1 -12   40.40    4.60
   6  -1 -12   45.00    4.60
   6  -1 -12   36.60    4.30
  -6  -1  12   53.19    5.60
   6   1 -12   41.90    4.90
   6   1 -12   44.90    4.70
   6   1 -12   45.20    5.00
   6   1 -12   39.50    4.40
   5  -1 -12  142.39    6.30
  -5  -1  12  150.38    7.10
   5  -1 -12  146.89    7.10
   5  -1 -12  151.98    6.80
   5  -1 -12  147.69    7.20
  -5   1  12  150.88    7.20
   5   1 -12  147.99    6.20
   5   1 -12  159.88    7.20
   5   1 -12  150.68    6.50
  -4  -1  12    1.70    2.10
   4  -1 -12    2.00    2.50
   4  -1 -12    4.40    2.90
  -4  -1  12    1.60    3.00
   4  -1 -12    0.40    2.30
   4   1 -12   -0.30    2.80
   4   1 -12   -1.80    2.90
   4   1 -12   -1.50    2.60
  -4   1  12   -1.90    3.20
  -4   1  12    3.20    2.10
  -3  -1  12   68.69    5.20
   3  -1 -12   81.79    5.20
   3  -1 -12   71.99    4.90
   3  -1 -12   66.59    4.80
  -3  -1  12   67.79    5.40
   3   1 -12   67.39    4.60
   3   1 -12   77.79    5.20
   3   1 -12   71.99    5.00
  -3   1  12   76.39    5.50
  -3   1  12   70.69    4.90
   2  -1 -12   91.29    5.90
  -2  -1  12   97.79    5.60
  -2  -1  12   90.89    5.80
   2  -1 -12   87.09    5.40
   2  -1 -12   83.99    5.20
   2   1 -12   92.29    5.40
  -2   1  12   86.59    5.40
  -2   1  12   90.39    5.90
   2   1 -12   85.09    5.20
   2   1 -12   88.39    6.00
  -1  -1  12  211.48    7.60
   1  -1 -12  197.38    7.50
  -1  -1  12  200.68    7.50
   1  -1 -12  207.88    7.70
   1  -1 -12  210.88    8.20
  -1   1  12  200.78    7.90
   1   1 -12  201.18    7.50
   1   1 -12  206.58    7.90
   1   1 -12  208.28    7.90
  -1   1  12  204.98    7.80
   0  -1 -12   44.00    4.90
   0  -1 -12   40.30    4.70
   0  -1 -12   53.99    5.50
   0  -1  12   46.50    5.10
   0  -1  12   48.30    5.30
   0   1 -12   49.60    5.50
   0   1  12   49.30    5.50
   0   1  12   50.29    5.40
   0   1 -12   57.09    4.90
   0   1 -12   47.60    4.80
   1  -1  12   29.70    4.00
  -1  -1 -12   42.60    5.00
  -1  -1 -12   39.40    4.20
   1  -1  12   34.40    4.20
  -1  -1 -12   38.10    4.20
  -1   1 -12   44.00    4.90
   1   1  12   49.20    5.60
  -1   1 -12   44.60    5.60
   1   1  12   43.10    5.40
  -1   1 -12   35.30    4.30
  -2  -1 -12   -3.20    3.30
  -2  -1 -12   -0.90    3.60
  -2   1 -12   -7.10    3.30
   2   1  12   -7.70    4.00
  -3  -1 -12    4.60    4.00
  -3  -1 -12   -2.80    3.80
  -3   1 -12    5.10    3.60
  -3   1 -12   -1.70    3.60
  -4  -1 -12   39.10    5.50
  -4  -1 -12   38.20    4.70
  -4   1 -12   40.10    5.10
   9  -2 -12   -6.10    5.40
   9  -2 -12    4.90    4.70
   9  -2 -12    2.50    3.90
   9   2 -12   -2.00    2.90
   9   2 -12    1.40    4.10
   8  -2 -12   -4.10    4.50
   8  -2 -12   -6.00    4.10
   8  -2 -12   -0.10    3.70
   8   2 -12    0.30    4.10
   8   2 -12    4.60    4.20
   8   2 -12    0.60    2.90
   7  -2 -12    8.10    3.30
   7  -2 -12   -3.00    3.70
   7   2 -12   -1.40    2.50
   7   2 -12    5.30    3.60
   7   2 -12    1.20    3.30
  -6  -2  12    1.20    3.20
   6  -2 -12   -3.90    3.10
   6  -2 -12   -0.90    4.00
   6   2 -12   -7.60    3.00
   6   2 -12    0.50    2.70
   6   2 -12    3.80    3.00
   5  -2 -12   48.10    4.90
   5  -2 -12   53.79    5.10
   5  -2 -12   50.39    5.60
  -5  -2  12   43.00    5.20
   5   2 -12   51.09    5.60
   5   2 -12   47.60    4.70
   5   2 -12   51.09    4.70
  -5   2  12   46.90    2.80
   4  -2 -12    9.80    3.90
  -4  -2  12    6.60    1.80
   4  -2 -12   11.90    3.30
  -4  -2  12   10.00    3.10
  -4  -2  12   10.50    2.10
   4  -2 -12    9.90    2.80
  -4   2  12    9.20    2.60
  -4   2  12    4.90    3.40
   4   2 -12    9.00    2.90
   4   2 -12    9.40    3.00
   4   2 -12   10.80    3.30
   3  -2 -12   49.70    4.60
   3  -2 -12   43.70    4.30
  -3  -2  12   65.59    5.20
   3   2 -12   56.89    5.60
  -3   2  12   52.89    5.50
   3   2 -12   53.59    4.70
   3   2 -12   48.50    4.90
   2  -2 -12    1.60    2.90
  -2  -2  12    3.90    2.90
   2  -2 -12    8.60    2.90
  -2  -2  12    5.80    2.60
   2   2 -12    3.90    2.80
   2   2 -12    2.30    2.60
   2   2 -12    4.20    3.20
  -2   2  12   10.40    3.40
  -2   2  12   -3.50    2.70
   1  -2 -12   11.60    3.20
  -1  -2  12   10.30    3.20
   1  -2 -12   13.70    3.20
  -1  -2  12   17.70    3.50
  -1   2  12   10.30    3.40
   1   2 -12   13.30    3.30
   1   2 -12   14.70    3.20
   1   2 -12    8.30    3.10
  -1   2  12    4.10    3.20
   0  -2  12   39.80    4.00
   0  -2 -12   34.90    3.90
   0  -2  12   37.90    4.10
   0  -2 -12   43.30    5.00
   0   2 -12   35.10    3.90
   0   2  12   38.80    4.20
   0   2  12   42.20    4.40
   0   2 -12   47.80    5.00
   0   2 -12   33.80    4.10
  -1  -2 -12  115.59    6.10
   1  -2  12  116.59    6.80
   1  -2  12  105.49    6.60
  -1  -2 -12  120.49    6.60
  -1  -2 -12  126.89    6.50
  -1   2 -12  112.99    7.60
  -1   2 -12  123.59    6.10
  -1   2 -12  127.99    7.30
   1   2  12  107.59    6.60
   1   2  12  108.69    6.90
  -2  -2 -12  135.79    7.40
  -2  -2 -12  121.89    6.80
  -2   2 -12  130.99    7.30
   2   2  12  117.49    7.40
  -2   2 -12  127.19    7.10
  -3  -2 -12  137.09    7.70
  -3  -2 -12  139.09    8.20
  -3  -2 -12  129.49    7.50
  -3   2 -12  135.09    7.60
  -4  -2 -12   24.90    4.90
  -4   2 -12   30.70    5.10
  -4   2 -12   24.10    5.50
   8  -3 -12   13.20    4.50
   8  -3 -12   13.20    5.20
   8   3 -12   12.60    3.20
   8   3 -12    1.60    4.10
   8   3 -12    0.40    4.20
   7  -3 -12  111.29    6.60
   7  -3 -12  122.99    7.90
   7   3 -12  115.79    7.60
   7   3 -12  125.09    6.50
   7   3 -12  113.19    5.70
   6  -3 -12   15.60    4.20
   6  -3 -12   15.20    3.80
  -6  -3  12   12.40    3.80
   6  -3 -12   14.10    4.20
   6   3 -12   22.70    3.50
   6   3 -12   13.10    3.60
   6   3 -12    7.60    3.00
   5  -3 -12   28.90    3.70
  -5  -3  12   28.80    3.80
   5  -3 -12   36.10    4.50
   5   3 -12   26.20    4.10
  -5   3  12   31.40    3.30
   5   3 -12   29.80    4.10
   5   3 -12   29.40    3.60
   4  -3 -12    6.40    4.10
   4  -3 -12    2.90    3.40
  -4  -3  12    2.70    2.20
  -4  -3  12   -1.40    1.70
  -4  -3  12   -1.40    3.00
   4  -3 -12    1.10    3.10
   4   3 -12    2.20    2.80
  -4   3  12   -2.30    3.20
   4   3 -12    4.00    2.70
   4   3 -12    2.90    3.20
   3  -3 -12  213.28    8.10
  -3  -3  12  227.38    6.90
   3  -3 -12  222.88    8.00
   3  -3 -12  216.88    7.90
  -3  -3  12  209.78    8.00
  -3   3  12  214.28    8.60
   3   3 -12  222.88    7.90
  -3   3  12  218.58    8.00
   3   3 -12  224.98    8.80
   3   3 -12  225.78    7.70
  -2  -3  12   30.50    3.90
  -2  -3  12   34.00    3.50
   2  -3 -12   35.20    3.90
   2  -3 -12   35.80    3.80
   2   3 -12   34.90    3.90
  -2   3  12   36.00    4.30
  -2   3  12   35.20    4.00
   2   3 -12   42.10    4.70
   2   3 -12   31.90    3.60
  -1  -3  12   -0.10    3.40
   1  -3 -12    2.00    2.90
  -1  -3  12    3.20    3.20
   1  -3 -12    6.40    3.30
  -1   3  12    5.50    3.40
   1   3 -12    4.40    2.80
   1   3 -12    8.30    3.20
  -1   3  12    0.80    3.30
   1   3 -12    2.40    3.10
   0  -3  12   55.09    5.60
   0  -3  12   46.40    5.50
   0  -3 -12   52.69    5.50
   0  -3 -12   48.10    5.00
   0   3  12   62.29    5.70
   0   3  12   58.19    5.80
   0   3 -12   60.79    5.30
   0   3 -12   49.30    5.40
   0   3 -12   54.59    5.90
   1  -3  12   76.69    6.80
  -1  -3 -12   77.59    5.70
  -1   3 -12   73.29    7.20
   1   3  12   77.79    6.30
  -2  -3 -12   19.60    4.20
  -2  -3 -12   19.80    4.10
  -2   3 -12   11.90    4.00
  -2   3 -12   14.60    5.40
   2   3  12    5.80    3.90
  -3  -3 -12   71.89    6.50
  -3  -3 -12   79.59    7.10
  -3   3 -12   88.29    7.10
  -3   3 -12   79.19    7.70
  -4  -3 -12   25.50    5.20
  -4  -3 -12   42.30    5.90
  -4   3 -12   36.60    5.20
   8  -4 -12  180.48    8.60
   8  -4 -12  191.68   10.20
   8   4 -12  173.08    7.60
   8   4 -12  196.68    8.20
   7  -4 -12  160.98    8.80
   7  -4 -12  145.69    7.50
   7   4 -12  151.68    7.30
   7   4 -12  139.39    6.60
   6  -4 -12  693.73   17.20
  -6  -4  12  681.73   17.20
   6  -4 -12  672.43   18.00
   6   4 -12  678.33   16.70
   6   4 -12  667.03   17.60
   6   4 -12  676.73   16.30
   5  -4 -12  250.97    9.30
   5  -4 -12  259.47    9.60
  -5  -4  12  257.67    9.00
   5  -4 -12  243.38    9.10
   5   4 -12  240.68    9.50
   5   4 -12  255.17    8.30
   5   4 -12  260.37    8.70
  -5   4  12  241.08    7.50
  -4  -4  12   82.09    3.80
   4  -4 -12   77.69    6.80
   4  -4 -12   72.79    5.50
  -4  -4  12   66.19    6.30
  -4  -4  12   66.49    4.30
   4   4 -12   73.79    5.20
   4   4 -12   73.69    6.40
   4   4 -12   77.49    5.30
  -3  -4  12   82.49    5.80
   3  -4 -12   74.19    5.80
   3  -4 -12   90.79    6.40
  -3  -4  12   84.69    4.70
   3  -4 -12   71.49    5.50
  -3   4  12   79.99    6.20
   3   4 -12   77.39    5.70
   3   4 -12   79.19    5.40
   3   4 -12   81.49    6.60
  -3   4  12   63.09    6.40
  -2  -4  12  154.98    7.00
   2  -4 -12  156.38    7.00
   2  -4 -12  147.39    7.10
  -2  -4  12  147.89    6.50
   2  -4 -12  147.59    6.90
  -2  -4  12  151.98    7.20
  -2   4  12  155.78    7.30
  -2   4  12  146.99    7.50
   2   4 -12  147.99    7.80
   2   4 -12  154.98    7.00
   2   4 -12  146.69    6.80
   1  -4 -12  440.36   12.70
   1  -4 -12  426.46   12.50
   1  -4 -12  440.06   11.60
  -1  -4  12  455.35   12.70
  -1  -4  12  417.66   12.40
   1   4 -12  442.46   12.70
   1   4 -12  446.46   12.70
  -1   4  12  432.66   12.80
  -1   4  12  442.86   13.10
   0  -4  12  239.08    8.60
   0  -4  12  220.98    8.50
   0  -4 -12  242.78    8.60
   0   4  12  217.88    9.40
   0   4 -12  191.88   10.30
   0   4  12  233.08    8.90
  -1  -4 -12  153.08    7.80
  -1  -4 -12  151.08    7.50
   1   4  12  140.29    7.60
  -1   4 -12  136.49    8.30
  -1   4 -12  133.89    7.50
  -2  -4 -12  385.96   12.40
  -2   4 -12  372.46   12.10
   2   4  12  362.16   11.90
  -3  -4 -12   35.90    5.10
  -3  -4 -12   42.40    5.50
  -3   4 -12   42.30    5.20
  -4  -4 -12  106.69    9.00
  -4  -4 -12   92.59    8.20
  -4   4 -12  100.39    8.40
   7  -5 -12   57.69    6.50
   7  -5 -12   52.09    5.90
   7   5 -12   60.39    5.90
   7   5 -12   69.19    5.90
   6  -5 -12   17.80    4.90
  -6  -5  12   14.20    4.20
   6  -5 -12   14.90    4.20
   6   5 -12   15.50    3.90
   6   5 -12   14.90    3.70
  -5  -5  12   68.49    6.70
   5  -5 -12   80.99    6.80
   5  -5 -12   69.79    6.90
   5  -5 -12   77.49    7.40
   5   5 -12   68.99    5.90
   5   5 -12   67.39    5.50
  -4  -5  12   -6.00    3.80
   4  -5 -12    0.40    3.70
  -4  -5  12    3.20    2.10
  -4  -5  12   -0.80    2.50
   4  -5 -12    2.20    3.60
   4  -5 -12    1.20    3.70
   4   5 -12    4.90    3.60
   4   5 -12   -2.80    2.80
  -4   5  12   -3.00    3.50
  -3  -5  12  195.08    7.20
   3  -5 -12  189.98    8.00
   3  -5 -12  188.58    9.00
   3  -5 -12  200.88    8.40
  -3  -5  12  196.08    6.90
  -3  -5  12  186.68    8.00
   3   5 -12  193.98    7.70
   3   5 -12  192.48    8.20
  -3   5  12  187.48    8.50
   2  -5 -12   79.59    6.30
  -2  -5  12   73.59    5.50
  -2  -5  12   78.09    5.80
  -2  -5  12   80.39    6.40
  -2   5  12   59.89    6.50
   2   5 -12   68.09    5.80
  -2   5  12   71.79    7.50
  -1  -5  12    7.30    3.60
  -1  -5  12    6.70    3.60
   1  -5 -12   10.50    4.10
  -1  -5  12   16.00    4.20
   1  -5 -12   14.30    3.80
  -1   5  12   11.80    4.50
  -1   5  12    9.40    4.00
   0  -5 -12   38.30    5.20
   0  -5 -12   41.00    5.20
   0  -5  12   34.80    4.50
   0   5 -12   31.10    4.40
   0   5  12   26.70    5.10
  -1  -5 -12   52.99    5.00
  -1  -5 -12   52.19    5.60
  -1  -5 -12   48.50    5.20
   1   5  12   46.90    5.10
  -1   5 -12   54.49    6.60
  -2  -5 -12   28.80    5.10
  -2   5 -12   13.50    4.70
   2   5  12   21.10    4.50
  -3  -5 -12   14.70    4.10
  -3  -5 -12    5.90    5.80
  -3   5 -12    5.30    4.70
   7  -6 -12    4.60    5.50
   7   6 -12    6.20    4.40
   6  -6 -12   49.50    6.10
  -6  -6  12   44.80    4.50
   6  -6 -12   49.80    5.80
   6   6 -12   44.30    4.40
   6   6 -12   51.09    6.20
  -5  -6  12    5.80    3.80
   5  -6 -12   11.80    4.70
   5  -6 -12    6.00    4.20
   5  -6 -12   -6.30    4.60
   5   6 -12   -2.10    3.30
  -5   6  12    0.60    3.50
  -4  -6  12  120.29    5.50
  -4  -6  12  109.29    7.30
  -4  -6  12  116.29    5.30
   4  -6 -12   96.99    7.50
   4  -6 -12  117.19    7.70
   4  -6 -12  105.39    7.60
   4   6 -12  110.89    6.60
  -4   6  12  116.29    7.40
   3  -6 -12    3.90    4.10
  -3  -6  12   -1.00    3.90
   3  -6 -12   -0.30    4.40
  -3  -6  12   -4.20    3.70
  -3  -6  12   -1.80    3.10
   3  -6 -12    4.70    3.70
  -3   6  12   -1.50    4.50
  -2  -6  12  151.58    8.40
  -2  -6  12  166.98    7.50
   2  -6 -12  162.68    7.50
   2  -6 -12  182.58    8.90
   2  -6 -12  166.98    8.80
  -2  -6  12  171.38    7.60
  -2   6  12  155.88    8.10
   2   6 -12  177.98    8.40
  -1  -6  12    8.10    3.90
   1  -6 -12    1.60    3.70
   1  -6 -12    4.50    4.50
   1   6 -12    0.20    4.00
   0  -6 -12   81.89    7.70
   0  -6 -12   60.49    7.10
   0  -6 -12   80.09    5.00
   0  -6  12   70.09    7.00
   0   6 -12   68.59    7.00
  -1  -6 -12    0.80    2.90
  -1  -6 -12   -1.60    5.00
   1  -6  12   -4.10    4.20
  -1  -6 -12   -1.30    4.40
  -1   6 -12   -0.10    4.40
   2  -6  12   -8.60    4.90
  -2  -6 -12    2.20    5.20
  -2  -6 -12   -1.90    4.50
  -2   6 -12   -3.80    4.50
  -5  -7  12  117.79    7.50
   5  -7 -12  127.99    9.20
   5  -7 -12  121.39    9.10
   5   7 -12  120.79    8.60
  -4  -7  12   20.50    3.10
  -4  -7  12   19.80    4.40
   4  -7 -12   11.90    5.00
   4  -7 -12   24.70    5.50
   4  -7 -12   18.20    5.20
   4   7 -12   17.20    4.40
  -4   7  12   19.80    4.70
  -3  -7  12  222.68    9.80
  -3  -7  12  244.78    8.70
   3  -7 -12  244.18   10.10
   3  -7 -12  235.68   10.60
  -3  -7  12  231.88    8.60
   3   7 -12  233.78   10.10
  -3   7  12  225.88   10.70
  -2  -7  12   12.80    3.80
   2  -7 -12    7.60    5.40
   2  -7 -12    7.30    4.50
   2   7 -12    9.30    4.40
   1  -7 -12   93.89    8.50
   1  -7 -12   76.09    7.00
  -1  -7  12   81.99    6.80
   1   7 -12   76.69    7.80
   0  -7 -12   79.79    8.50
   0  -7 -12   61.29    6.70
   0  -7  12   65.79    6.80
   0   7 -12   79.99    7.70
  -1  -7 -12  106.99    9.30
  -1  -7 -12   93.69    7.90
  -1   7 -12  102.09    8.90
   8   0 -13   -0.30    4.50
   8   0 -13    2.30    3.80
   8   0 -13   -4.30    4.40
   7   0 -13    0.40    3.90
   7   0 -13   -0.50    3.30
   7   0 -13   -2.30    4.00
  -6   0  13   -5.80    3.70
   6   0 -13   -4.50    3.10
   6   0 -13   -2.80    3.40
   5   0 -13   -0.40    3.30
   5   0 -13   -3.80    3.20
   5   0 -13    3.10    3.50
  -5   0  13   -5.20    3.50
  -4   0  13    3.30    3.30
   4   0 -13   -3.10    3.20
   4   0 -13    1.30    3.10
   4   0 -13    3.10    2.90
  -4   0  13    0.30    2.50
   3   0 -13    2.40    3.10
   3   0 -13    1.60    3.10
  -3   0  13    5.30    3.20
   3   0 -13   -0.70    3.00
   2   0 -13    0.00    3.10
  -2   0  13    0.80    3.40
   2   0 -13    1.10    3.30
  -2   0  13    5.40    3.20
   2   0 -13   -4.50    3.00
  -1   0  13   -4.10    3.70
   1   0 -13   -2.00    2.50
   1   0 -13    0.60    3.20
   1   0 -13   10.50    3.30
  -1   0  13   -6.50    3.20
   0   0 -13   -4.60    3.20
   0   0  13   -2.30    3.40
   0   0  13   -2.00    3.20
   0   0 -13    3.30    3.10
  -1   0 -13   -3.00    3.60
  -1   0 -13   -0.80    3.60
  -2   0 -13    4.70    4.20
  -2   0 -13   -0.40    3.80
  -2   0 -13   -2.80    4.40
  -3   0 -13    4.90    4.80
  -3   0 -13    1.00    5.10
  -4   0 -13   -5.50    4.70
  -4   0 -13  -10.50    4.30
   8  -1 -13   31.90    5.50
   8  -1 -13   35.00    4.50
   8   1 -13   37.00    4.20
   8   1 -13   24.30    5.00
   8   1 -13   38.70    5.50
   7  -1 -13   65.69    6.50
   7  -1 -13   61.69    6.30
   7  -1 -13   60.09    5.50
   7   1 -13   54.79    5.10
   7   1 -13   77.09    6.90
   6  -1 -13   18.10    4.30
   6  -1 -13   18.90    4.00
   6  -1 -13   23.60    3.80
  -6  -1  13   22.60    4.60
   6   1 -13   20.70    3.60
   6   1 -13   22.60    3.80
   6   1 -13   20.10    4.30
  -5  -1  13   -0.40    3.30
   5  -1 -13    6.80    3.70
   5  -1 -13    1.70    3.10
   5  -1 -13    5.70    4.50
  -5   1  13    3.90    1.70
   5   1 -13    0.90    3.30
  -5   1  13    5.00    3.60
   5   1 -13    4.40    2.90
   5   1 -13   -1.80    2.80
   4  -1 -13  189.28    7.80
  -4  -1  13  188.58    6.10
  -4  -1  13  186.18    7.80
   4  -1 -13  179.88    7.20
   4  -1 -13  180.08    8.40
  -4   1  13  182.98    6.50
   4   1 -13  187.68    8.30
   4   1 -13  190.08    7.10
  -4   1  13  175.48    8.20
   4   1 -13  186.48    7.60
   3  -1 -13   20.20    3.60
   3  -1 -13   15.70    3.30
   3  -1 -13   15.10    3.70
  -3  -1  13   13.90    3.60
   3   1 -13   13.00    3.40
   3   1 -13   13.00    3.20
   3   1 -13   19.40    3.90
  -3   1  13   15.20    3.40
  -3   1  13   20.30    3.70
  -2  -1  13   13.90    3.40
  -2  -1  13    8.00    3.60
   2  -1 -13    6.60    3.10
   2  -1 -13    3.80    3.30
   2  -1 -13   12.80    3.40
  -2   1  13    7.90    3.20
   2   1 -13    7.10    3.10
   2   1 -13    7.70    3.30
  -2   1  13    6.50    3.40
   2   1 -13    7.10    3.10
   1  -1 -13    6.20    3.20
  -1  -1  13   10.00    3.50
   1  -1 -13    7.30    3.50
  -1  -1  13   10.10    3.90
   1  -1 -13    8.20    3.20
  -1   1  13    4.00    3.50
   1   1 -13   13.30    3.30
  -1   1  13   14.00    4.20
   1   1 -13   12.70    3.90
   1   1 -13    2.90    3.50
   0  -1 -13  182.78    8.90
   0  -1 -13  183.38    8.40
   0  -1  13  197.68    9.00
   0  -1  13  172.08    7.80
   0   1  13  180.88    8.20
   0   1  13  170.78    7.80
   0   1 -13  180.98    7.80
  -1  -1 -13   -3.80    3.70
  -1  -1 -13   -2.50    3.50
  -1   1 -13    0.50    3.70
  -1   1 -13    1.80    3.70
  -2  -1 -13  327.97   12.00
  -2  -1 -13  334.27   11.50
  -2  -1 -13  334.87   11.40
  -2   1 -13  320.87   11.20
  -2   1 -13  334.47   12.00
  -3  -1 -13  203.68   10.80
  -3  -1 -13  188.28    9.30
  -3   1 -13  212.48   10.00
  -3   1 -13  211.38    9.50
  -4  -1 -13   39.80    6.40
  -4  -1 -13   26.80    6.30
  -4   1 -13   28.10    5.60
  -4   1 -13   39.40    5.70
   8  -2 -13    9.10    4.70
   8  -2 -13    6.80    5.30
   8  -2 -13    1.70    4.30
   8   2 -13    8.60    5.10
   8   2 -13    8.20    4.90
   8   2 -13   -3.10    3.40
   7  -2 -13   46.90    5.70
   7  -2 -13   50.79    5.60
   7   2 -13   56.79    5.60
   7   2 -13   55.89    5.80
   7   2 -13   49.20    5.60
  -6  -2  13    5.40    3.60
   6  -2 -13    6.30    3.60
   6  -2 -13    1.50    4.10
   6   2 -13   10.60    3.70
   6   2 -13   17.30    3.40
   6   2 -13    8.90    3.70
   5  -2 -13   47.10    5.70
  -5  -2  13   50.29    5.70
   5  -2 -13   53.99    5.00
   5  -2 -13   37.80    4.80
   5   2 -13   52.49    4.80
  -5   2  13   49.99    3.60
   5   2 -13   48.10    5.70
   5   2 -13   53.09    5.30
  -4  -2  13  402.96   11.90
   4  -2 -13  413.86   12.10
   4  -2 -13  407.76   11.90
  -4  -2  13  417.36    9.90
  -4  -2  13  419.46   10.20
   4   2 -13  429.46   12.10
   4   2 -13  403.66   11.40
   4   2 -13  410.96   12.70
  -4   2  13  387.86   12.30
   3  -2 -13    2.10    3.30
   3  -2 -13    4.10    3.00
  -3  -2  13    4.60    3.20
   3   2 -13    0.40    3.20
   3   2 -13    0.60    2.80
   3   2 -13   -0.40    2.70
  -3   2  13   -3.10    3.10
  -3   2  13   -2.20    3.40
  -2  -2  13  154.58    7.30
   2  -2 -13  162.68    7.20
   2  -2 -13  164.98    7.30
  -2  -2  13  167.78    7.40
  -2   2  13  154.28    7.20
   2   2 -13  147.09    7.00
  -2   2  13  151.28    7.60
   2   2 -13  159.48    7.30
   2   2 -13  156.58    7.90
  -1  -2  13  199.18    8.20
   1  -2 -13  193.48    9.20
   1  -2 -13  214.38    8.40
  -1  -2  13  206.18    8.10
   1   2 -13  214.58    8.40
  -1   2  13  208.58    8.40
  -1   2  13  209.88    8.60
   0  -2  13  117.39    6.80
   0   2 -13  126.49    7.00
   0   2 -13  114.09    9.20
   0   2  13  102.99    6.80
   0   2  13  101.99    7.30
  -1  -2 -13   55.29    6.10
  -1  -2 -13   58.19    6.40
  -1  -2 -13   62.19    6.80
  -1   2 -13   59.19    7.10
  -1   2 -13   57.99    6.30
  -1   2 -13   50.89    6.20
  -2  -2 -13   92.39    7.30
  -2  -2 -13  103.59    8.30
  -2  -2 -13  104.69    8.00
  -2   2 -13  116.69    8.40
  -2   2 -13  100.29    7.50
  -3  -2 -13    1.90    5.20
  -3  -2 -13    1.40    4.60
  -3  -2 -13    3.50    4.70
  -3   2 -13    1.60    4.90
  -3   2 -13   10.70    4.70
   8  -3 -13  245.78    9.90
   8  -3 -13  250.07   11.10
   8   3 -13  228.88   11.40
   8   3 -13  233.28    8.80
   7  -3 -13  155.18    9.00
   7  -3 -13  163.08    7.90
   7   3 -13  174.78    7.20
   7   3 -13  136.99    8.10
   6  -3 -13  232.68    8.50
  -6  -3  13  224.38    9.00
   6  -3 -13  238.98    9.90
   6   3 -13  237.28    8.50
   6   3 -13  226.08    9.10
   5  -3 -13  133.19    7.50
   5  -3 -13  124.19    8.10
   5  -3 -13  136.99    6.80
  -5  -3  13  131.19    7.00
   5   3 -13  130.09    6.50
   5   3 -13  136.29    6.90
  -5   3  13  137.39    5.30
  -4  -3  13   20.60    2.40
  -4  -3  13   22.50    2.80
   4  -3 -13   21.50    4.60
   4  -3 -13   23.50    4.00
   4  -3 -13   16.20    4.10
  -4  -3  13   25.50    4.20
   4   3 -13   24.40    3.90
   4   3 -13   30.10    4.20
  -3  -3  13    0.20    2.40
   3  -3 -13    1.40    4.20
   3  -3 -13    0.10    3.40
   3  -3 -13   -2.10    4.10
  -3  -3  13    3.00    3.20
  -3  -3  13    1.70    3.00
   3   3 -13   -5.20    2.90
  -3   3  13   -2.20    3.20
  -3   3  13    4.60    4.10
   3   3 -13   -1.80    3.10
  -2  -3  13  289.27    9.10
  -2  -3  13  270.17    9.60
   2  -3 -13  286.07    9.80
   2   3 -13  284.37    9.70
  -2   3  13  261.27    9.80
  -2   3  13  271.57    9.60
   2   3 -13  286.57    9.70
  -1  -3  13  916.11   21.60
  -1  -3  13 1050.09   24.20
   1   3 -13  827.82   23.40
  -1   3  13  928.71   22.00
  -1   3  13  914.21   22.40
   0  -3 -13    6.30    4.00
   0  -3  13   10.80    3.60
   0  -3 -13    3.80    5.00
   0   3 -13    1.70    3.80
   0   3 -13    5.70    4.10
   0   3 -13   12.70    4.50
  -1  -3 -13   24.50    4.40
  -1  -3 -13   19.60    4.30
  -1   3 -13   11.00    3.70
  -1   3 -13   16.20    4.20
  -2  -3 -13   44.20    5.70
  -2  -3 -13   45.50    5.60
  -2  -3 -13   49.70    5.30
  -2   3 -13   48.30    6.10
  -2   3 -13   44.60    5.30
  -3  -3 -13  146.69    9.10
  -3  -3 -13  138.09    9.40
  -3  -3 -13  153.08    9.20
  -3   3 -13  138.89    9.80
  -3   3 -13  146.29    9.00
   7  -4 -13   14.10    5.40
   7  -4 -13   14.20    4.90
   7   4 -13   17.10    4.70
   7   4 -13   17.90    3.70
   6  -4 -13  254.07    9.90
   6  -4 -13  247.48   10.40
  -6  -4  13  252.87   10.00
   6   4 -13  254.97    9.20
   6   4 -13  259.47    9.70
   6   4 -13  267.17   10.80
   5  -4 -13   -2.90    4.10
  -5  -4  13    0.60    3.50
   5  -4 -13   -4.20    4.10
   5  -4 -13    3.50    4.90
   5   4 -13    2.00    3.90
   5   4 -13    0.10    3.50
  -5   4  13    2.90    2.70
   5   4 -13    4.80    4.50
  -4  -4  13  101.59    5.30
   4  -4 -13   93.99    6.50
  -4  -4  13  104.59    4.70
  -4  -4  13   93.99    6.50
   4  -4 -13   89.19    6.90
   4  -4 -13   97.39    7.80
   4   4 -13   99.89    6.40
   4   4 -13  107.59    8.00
   4   4 -13   92.19    6.00
  -4   4  13   99.89    6.50
  -3  -4  13   32.10    3.90
  -3  -4  13   30.10    3.60
   3  -4 -13   30.10    4.60
  -3  -4  13   30.30    4.20
   3  -4 -13   30.10    4.90
   3   4 -13   37.00    4.50
   3   4 -13   33.70    5.30
  -3   4  13   32.30    4.50
   3   4 -13   28.50    4.20
   2  -4 -13   79.09    6.50
  -2  -4  13   53.99    6.00
   2  -4 -13   76.39    6.40
  -2  -4  13   76.09    5.20
   2  -4 -13   72.99    8.10
  -2  -4  13   78.99    5.90
   2   4 -13   76.89    7.50
  -2   4  13   91.99    7.50
   1  -4 -13    6.30    3.90
  -1  -4  13   12.00    3.70
   1  -4 -13   12.80    4.60
   1   4 -13    8.10    4.40
   1   4 -13   14.30    4.30
   1   4 -13   11.60    4.10
  -1   4  13   18.00    4.70
   0  -4 -13  222.08    9.00
   0  -4 -13  218.38    9.50
   0   4 -13  219.78    9.40
   0   4 -13  208.08    9.20
  -1  -4 -13    8.10    4.50
  -1  -4 -13    2.70    4.00
  -1   4 -13    9.20    4.80
  -1   4 -13    5.90    4.30
  -2  -4 -13    8.80    5.00
  -2  -4 -13    9.00    4.90
  -2   4 -13    7.50    4.60
  -3  -4 -13   -6.90    5.20
  -3  -4 -13    4.00    5.00
  -3  -4 -13   -6.90    4.30
  -3   4 -13    1.60    5.00
   7  -5 -13    2.70    5.00
   7  -5 -13    4.00    5.80
   7   5 -13    4.50    4.00
   7   5 -13    0.10    4.30
   6  -5 -13  100.99    8.70
   6  -5 -13  110.29    8.70
  -6  -5  13  113.69    7.80
   6   5 -13  118.89    7.60
   6   5 -13  116.09    7.40
   5  -5 -13  275.87   11.00
  -5  -5  13  283.47   10.30
   5  -5 -13  278.57   10.50
   5   5 -13  281.57    9.80
   5   5 -13  284.27    9.80
   4  -5 -13    1.00    4.30
   4  -5 -13    0.10    4.20
   4  -5 -13    3.10    4.60
  -4  -5  13   -0.60    2.50
  -4  -5  13   -0.30    2.80
  -4  -5  13   -2.50    4.20
   4   5 -13   -3.20    3.50
  -4   5  13   -0.90    3.80
   4   5 -13    3.60    3.80
   3  -5 -13  233.28    9.30
  -3  -5  13  227.88    9.00
   3  -5 -13  244.98   10.00
  -3  -5  13  249.08    8.30
   3  -5 -13  253.37    9.90
  -3  -5  13  240.28    8.90
  -3   5  13  224.08    9.80
   2  -5 -13   69.39    6.60
  -2  -5  13   56.29    5.30
   2  -5 -13   79.39    7.20
   2  -5 -13   75.99    7.30
  -2  -5  13   70.69    6.00
  -2   5  13   63.29    6.90
   2   5 -13   71.39    6.80
   1  -5 -13    2.40    4.40
  -1  -5  13   -4.70    3.70
   1  -5 -13   -2.20    4.00
   1  -5 -13   -5.10    3.70
  -1  -5  13    3.90    4.20
   1   5 -13   -5.70    3.80
   0  -5 -13   -2.40    4.60
   0  -5 -13   -0.40    4.50
   0  -5 -13    1.10    4.00
   0   5 -13    4.50    4.00
  -1  -5 -13   50.29    5.80
  -1  -5 -13   45.10    6.10
  -1   5 -13   49.10    5.90
  -2  -5 -13    7.40    5.50
  -2  -5 -13   25.40    4.90
  -2   5 -13   18.90    5.30
   6  -6 -13    0.70    5.60
   6  -6 -13   -5.70    5.50
   6   6 -13    9.30    4.50
   5  -6 -13   43.60    6.00
   5  -6 -13   34.30    5.80
  -5  -6  13   27.00    5.10
   5   6 -13   26.70    4.70
   4  -6 -13    4.50    5.30
  -4  -6  13   -6.50    3.90
   4  -6 -13    3.20    4.70
   4  -6 -13   -4.50    4.70
  -4  -6  13    0.30    2.80
   4   6 -13    3.20    4.20
  -4   6  13   -0.70    4.20
   3  -6 -13    7.90    4.70
  -3  -6  13   14.40    4.00
   3  -6 -13    5.20    5.30
   3  -6 -13   12.20    4.80
  -3  -6  13   15.70    3.40
   3   6 -13    6.90    4.40
  -3   6  13    9.50    4.70
  -2  -6  13    2.90    3.70
  -2  -6  13   -2.70    3.90
   2  -6 -13   -6.20    4.70
   2  -6 -13    1.60    4.40
   2  -6 -13    0.30    4.00
   2   6 -13    2.30    4.20
  -1  -6  13   35.80    5.30
   1  -6 -13   29.80    6.00
   1  -6 -13   34.80    5.30
   1   6 -13   33.10    5.30
   0  -6 -13    6.10    4.40
   0  -6 -13   17.20    6.40
   0  -6  13    5.80    4.60
   0   6 -13   -0.80    4.60
   1  -6  13   61.69    7.30
  -1  -6 -13   77.29    7.30
  -1  -6 -13   60.09    6.80
  -1   6 -13   51.69    6.10
   3  -7 -13  100.69    9.20
   3  -7 -13  110.09    8.80
  -3  -7  13  112.39    6.70
   3   7 -13  110.49    8.90
   2  -7 -13  147.69   10.00
  -2  -7  13  153.28    8.60
  -2  -7  13  132.29    8.70
   2  -7 -13  146.29   10.00
   2   7 -13  141.59    9.40
   1  -7 -13   28.40    6.20
   1  -7 -13   39.00    6.60
  -1  -7  13   35.60    5.90
   1   7 -13   28.50    5.80
   8   0 -14 1195.18   28.40
   7   0 -14   18.10    6.10
   7   0 -14   18.30    4.10
   7   0 -14   22.60    5.30
   6   0 -14  114.39    8.20
   6   0 -14  118.59    7.40
   6   0 -14  100.89    6.10
  -5   0  14    0.40    1.20
   5   0 -14   -0.10    4.00
   5   0 -14    2.90    3.70
   5   0 -14   -0.70    4.10
  -5   0  14    2.40    1.60
   4   0 -14  564.84   15.50
   4   0 -14  574.84   16.30
   4   0 -14  554.64   14.90
  -4   0  14  576.64   13.80
   3   0 -14  285.77   10.10
   3   0 -14  281.67   10.90
  -3   0  14  286.87    9.40
   3   0 -14  310.97   10.50
   2   0 -14    2.80    4.00
   2   0 -14    9.20    3.90
   2   0 -14   10.80    3.70
  -2   0  14    9.20    3.50
   1   0 -14  152.98    7.90
  -1   0  14  159.98    7.70
   1   0 -14  148.79    8.50
   1   0 -14  151.18    7.90
   0   0 -14  677.13   18.50
   0   0 -14  678.13   17.80
   0   0 -14  677.93   18.00
  -1   0 -14    2.10    4.60
  -1   0 -14    5.70    4.60
  -1   0 -14    9.00    4.60
  -2   0 -14  186.98    9.80
  -2   0 -14  188.88   10.20
  -3   0 -14    1.80    5.20
  -3   0 -14    7.90    5.40
   8  -1 -14   17.50    4.70
   8  -1 -14    7.20    5.70
   8  -1 -14   10.90    5.50
   8   1 -14   30.30    5.60
   8   1 -14   24.60    4.70
   8   1 -14   23.20    5.60
   7  -1 -14  522.15   15.80
   7  -1 -14  507.55   15.30
   7  -1 -14  514.35   14.00
   7   1 -14  520.05   15.70
   7   1 -14  516.85   14.00
   6  -1 -14   69.59    6.20
   6  -1 -14   79.59    6.90
   6  -1 -14   78.69    6.60
   6   1 -14   63.89    6.50
   6   1 -14   73.49    7.80
   6   1 -14   72.59    6.10
   5  -1 -14   24.50    5.00
   5  -1 -14   33.30    4.70
   5  -1 -14   27.10    4.80
   5   1 -14   31.00    4.80
  -5   1  14   32.60    3.30
   5   1 -14   25.30    4.30
   5   1 -14   29.70    5.20
  -4  -1  14   79.89    5.20
   4  -1 -14   82.49    7.50
   4  -1 -14   74.99    6.60
   4  -1 -14   85.59    6.00
   4   1 -14   93.39    6.80
   4   1 -14   83.99    5.90
   4   1 -14   87.69    7.50
  -3  -1  14  302.37    9.40
   3  -1 -14  296.27   10.40
   3  -1 -14  282.07   10.90
   3  -1 -14  286.07    9.90
   3   1 -14  289.17    9.70
   3   1 -14  277.57   11.00
  -3   1  14  285.17    9.60
   3   1 -14  290.47   10.30
  -2  -1  14  159.58    7.90
   2  -1 -14  138.59    8.20
   2  -1 -14  145.39    7.70
   2   1 -14  150.28    7.80
   2   1 -14  139.49    8.50
   2   1 -14  142.89    7.30
  -2   1  14  145.89    8.00
  -1  -1  14    2.80    3.60
   1  -1 -14    4.10    3.50
   1  -1 -14   -4.10    3.70
   1  -1 -14    7.00    4.10
   1   1 -14    7.40    4.10
  -1   1  14   10.90    3.80
   1   1 -14   -3.10    4.00
   1   1 -14    2.40    4.00
   0  -1 -14   44.20    5.10
   0  -1 -14   39.20    5.10
   0  -1 -14   42.30    4.80
   0   1 -14   40.00    5.60
   0   1 -14   39.10    5.00
   0   1 -14   38.50    5.20
  -1  -1 -14  252.27   10.30
  -1  -1 -14  235.88   10.60
  -1  -1 -14  238.78   10.20
  -1   1 -14  232.68   10.20
  -1   1 -14  263.87   10.20
  -1   1 -14  247.18   10.20
  -2  -1 -14   57.99    6.40
  -2  -1 -14   48.50    6.10
  -2  -1 -14   51.79    5.50
  -2   1 -14   51.19    6.40
  -2   1 -14   35.40    5.80
  -3  -1 -14    0.50    6.20
  -3  -1 -14    7.40    5.40
  -3   1 -14    8.70    5.40
  -3   1 -14   15.00    5.70
   8  -2 -14   24.10    6.00
   8  -2 -14   21.30    5.80
   8   2 -14   20.10    6.20
   8   2 -14   16.50    4.60
   8   2 -14   25.00    6.20
   7  -2 -14   -1.90    4.20
   7  -2 -14   -0.50    5.80
   7  -2 -14   -0.20    5.00
   7   2 -14   -2.10    3.70
   7   2 -14    6.30    4.50
   7   2 -14    0.40    4.70
   6  -2 -14    8.70    4.30
   6  -2 -14   -7.70    4.00
   6  -2 -14    6.20    4.50
   6   2 -14    7.00    4.50
   6   2 -14    3.00    3.30
   6   2 -14    1.20    4.20
   5  -2 -14   29.70    4.90
   5  -2 -14   21.10    4.60
   5   2 -14   23.60    4.50
   5   2 -14   15.70    5.10
   5   2 -14   19.30    4.10
  -5   2  14   19.00    2.60
   4  -2 -14  135.79    8.40
  -4  -2  14  145.59    5.70
   4  -2 -14  163.88    8.20
   4  -2 -14  150.58    7.80
  -4  -2  14  152.38    6.20
   4   2 -14  158.48    7.80
   4   2 -14  141.99    7.50
   4   2 -14  148.09    8.00
  -3  -2  14    9.80    3.60
   3  -2 -14    8.30    3.80
   3  -2 -14    7.10    4.00
   3   2 -14   10.10    3.60
  -3   2  14   18.30    4.10
   3   2 -14   11.00    4.10
   3   2 -14    7.80    3.80
  -2  -2  14   56.49    6.50
   2  -2 -14   36.30    4.50
   2  -2 -14   49.70    5.20
   2   2 -14   60.59    6.50
  -2   2  14   47.10    5.20
   2   2 -14   47.00    5.60
   1  -2 -14   79.09    6.50
   1  -2 -14   69.69    6.90
   1  -2 -14   79.69    7.40
  -1  -2  14   75.59    7.10
   1   2 -14   83.29    7.00
  -1   2  14   76.69    7.60
   1   2 -14   86.29    6.90
   1   2 -14   82.19    7.50
   0  -2 -14   -3.90    4.30
   0  -2 -14    1.20    4.10
   0  -2 -14    1.10    4.40
   0   2 -14   -0.80    4.70
   0   2 -14    8.30    4.40
   0   2 -14   14.40    4.30
  -1  -2 -14   72.19    7.30
  -1  -2 -14   55.79    6.10
  -1  -2 -14   56.49    5.80
  -1   2 -14   69.09    8.10
  -1   2 -14   51.79    5.70
  -2  -2 -14  101.29    8.30
  -2  -2 -14   84.89    8.80
  -2  -2 -14   88.89    8.40
  -2   2 -14  104.39    8.50
  -2   2 -14   92.99    9.20
   7  -3 -14  152.78    9.60
   7  -3 -14  150.08    8.50
   7   3 -14  152.78    9.60
   7   3 -14  163.18    7.80
   7   3 -14  166.28    8.70
   6  -3 -14    5.50    4.20
   6  -3 -14   -0.20    4.80
   6   3 -14    0.30    5.00
   6   3 -14    4.70    4.00
   6   3 -14    6.80    4.90
   5  -3 -14    8.80    4.60
   5  -3 -14   13.80    4.70
  -5   3  14   15.20    2.90
   5   3 -14   10.50    4.40
   5   3 -14    8.00    4.10
   5   3 -14   15.40    5.00
   4  -3 -14  101.49    7.40
   4  -3 -14  123.99    7.80
  -4  -3  14  115.59    5.20
  -4  -3  14  110.89    5.70
  -4   3  14  110.59    6.50
   4   3 -14  117.39    7.30
   4   3 -14  120.29    8.50
   4   3 -14  119.99    6.80
   3  -3 -14    6.20    4.10
   3  -3 -14    7.70    4.20
  -3  -3  14    3.40    3.50
   3  -3 -14    6.70    4.70
  -3  -3  14    2.70    3.10
   3   3 -14   -1.60    4.10
  -3   3  14   -4.00    4.10
   3   3 -14    2.60    4.40
   2  -3 -14   84.79    7.10
  -2  -3  14   81.09    7.10
   2  -3 -14   79.19    6.90
   2   3 -14   76.19    7.90
   2   3 -14   86.49    6.90
   2   3 -14   84.59    7.50
  -2   3  14   78.59    6.70
  -1  -3  14   65.49    6.30
   1  -3 -14   68.49    6.80
   1  -3 -14   73.79    6.90
   1   3 -14   59.89    6.80
   1   3 -14   68.39    7.90
   1   3 -14   69.59    7.00
   0  -3 -14   21.50    5.00
   0  -3 -14   16.40    4.60
   0   3 -14   19.10    4.60
   0   3 -14   22.80    5.20
   0   3 -14   20.30    4.90
  -1  -3 -14   35.10    5.90
  -1  -3 -14   19.10    5.20
  -1  -3 -14   32.50    5.60
  -1   3 -14   24.20    5.30
  -1   3 -14   30.90    6.10
  -2  -3 -14   56.29    6.60
  -2  -3 -14   74.19    8.10
  -2  -3 -14   71.59    8.80
  -2   3 -14   81.19    9.60
  -2   3 -14   66.09    8.00
   7  -4 -14    8.60    5.80
   7   4 -14    3.50    5.50
   6  -4 -14  195.58   10.20
   6  -4 -14  185.98   10.00
   6   4 -14  189.88    8.80
   6   4 -14  188.88    9.40
   6   4 -14  182.88    9.50
   5  -4 -14   51.69    6.20
   5  -4 -14   49.40    5.80
   5   4 -14   53.59    6.50
   5   4 -14   58.19    5.80
   5   4 -14   53.59    6.40
   4  -4 -14  454.55   13.70
   4  -4 -14  446.56   14.10
  -4  -4  14  462.05   11.40
  -4  -4  14  443.86   11.40
  -4   4  14  452.05   12.90
   4   4 -14  463.75   14.10
   4   4 -14  464.05   15.20
  -3  -4  14   86.99    5.60
   3  -4 -14   88.09    7.60
  -3  -4  14   93.39    6.50
   3  -4 -14   88.69    7.50
   3  -4 -14   81.79    6.70
   3   4 -14   81.59    8.60
   3   4 -14   84.29    7.10
  -3   4  14  103.79    7.60
   3   4 -14   88.39    7.20
   2  -4 -14   41.90    5.60
   2  -4 -14   40.80    5.30
   2  -4 -14   40.40    5.10
  -2  -4  14   29.60    4.50
  -2  -4  14   36.40    4.40
   2   4 -14   29.30    4.90
   2   4 -14   33.70    5.20
  -2   4  14   32.80    5.20
   2   4 -14   40.00    6.10
   1  -4 -14   13.40    5.10
  -1  -4  14    4.80    4.60
   1  -4 -14    9.30    4.50
   1  -4 -14   10.00    4.40
   1   4 -14    8.80    5.30
   1   4 -14    9.60    4.50
   0  -4 -14   23.90    5.00
   0  -4 -14   24.70    5.40
   0   4 -14   11.60    4.90
   0   4 -14   13.00    5.70
  -1  -4 -14  124.59    9.20
  -1  -4 -14  129.39    9.20
  -1   4 -14   99.29   10.10
  -1   4 -14  108.19    8.70
   6  -5 -14  185.48   10.80
   6  -5 -14  180.38   10.50
   6   5 -14  185.68    9.70
   5  -5 -14   30.80    5.80
   5  -5 -14   40.90    6.10
   5   5 -14   34.20    5.30
   5   5 -14   26.90    5.50
   4  -5 -14   27.30    5.70
   4  -5 -14   22.70    5.60
   4  -5 -14   19.30    5.70
  -4   5  14   18.20    4.30
   4   5 -14   30.10    5.00
   4   5 -14   26.70    5.60
   3  -5 -14  143.79    8.80
   3  -5 -14  134.09    8.70
   3  -5 -14  122.79    7.80
  -3  -5  14  127.19    6.90
  -3  -5  14  116.79    6.90
   3   5 -14  136.69    8.40
   3   5 -14  121.89    8.20
  -3   5  14  130.39    8.70
  -2  -5  14   76.89    7.40
   2  -5 -14   81.99    8.30
  -2  -5  14   95.49   11.80
   2  -5 -14   84.39    7.90
   2  -5 -14   89.89    7.60
   2   5 -14  101.09    7.90
  -1  -5  14  182.28    8.70
   1  -5 -14  188.28    9.40
   1  -5 -14  172.38   10.00
   1  -5 -14  180.28    8.10
   1   5 -14  168.88    9.40
   0  -5 -14   24.00    5.40
   0  -5 -14   19.40    6.00
   0  -5  14   14.60    5.10
   0   5 -14   18.90    5.20
   4  -6 -14   16.40    6.10
   4  -6 -14   18.50    6.80
  -4  -6  14   31.00    3.70
   4  -6 -14   17.10    5.90
   4   6 -14   31.90    6.30
   3  -6 -14    4.70    5.60
   3  -6 -14    3.20    5.40
  -3  -6  14    7.40    3.70
   3   6 -14    2.10    5.00
  -2  -6  14  141.69    9.00
   2  -6 -14  164.28    9.50
   2  -6 -14  179.78   10.30
  -2  -6  14  156.78    8.70
   2   6 -14  152.28    9.70
   7   0 -15   -0.70    5.30
   7   0 -15    5.20    5.70
   7   0 -15    2.80    4.70
   6   0 -15    0.20    4.90
   6   0 -15   -6.80    4.50
   5   0 -15    3.00    4.50
  -5   0  15    1.40    1.60
   5   0 -15    6.20    4.90
  -5   0  15   -2.10    2.00
   5   0 -15   -6.30    4.30
   4   0 -15    3.80    4.50
   4   0 -15   -6.40    3.60
  -3   0  15    1.80    4.00
   3   0 -15    2.70    4.20
   3   0 -15   -0.40    4.60
   3   0 -15   -0.70    4.50
   2   0 -15    2.00    4.30
   2   0 -15    4.00    3.90
  -2   0  15   -0.40    4.30
   2   0 -15    0.10    4.30
   1   0 -15   -6.10    4.50
   1   0 -15    5.60    4.50
   1   0 -15   -1.30    4.50
   0   0 -15   -0.20    5.10
   0   0 -15   -0.40    4.80
   0   0 -15   -7.40    4.70
  -1   0 -15    4.30    5.10
  -1   0 -15    3.30    5.20
  -1   0 -15   -0.70    5.60
   7  -1 -15  496.45   16.00
   7  -1 -15  475.05   14.20
   7   1 -15  496.95   14.10
   6  -1 -15    3.60    5.10
   6  -1 -15   11.50    4.70
   6  -1 -15    6.70    5.20
   6   1 -15   13.20    4.90
   6   1 -15    7.90    4.50
   6   1 -15    8.80    5.30
   5  -1 -15   16.50    5.10
  -5  -1  15    9.30    1.50
   5  -1 -15   16.40    4.90
   5   1 -15    2.40    4.30
  -5   1  15   11.80    2.50
   5   1 -15   13.20    4.70
   5   1 -15    9.30    5.30
   4  -1 -15   14.60    4.70
   4  -1 -15   19.60    5.20
   4   1 -15   21.00    5.40
   4   1 -15   24.80    5.00
   3  -1 -15    5.80    4.50
   3  -1 -15    0.40    4.70
  -3  -1  15    8.60    4.00
   3  -1 -15    4.80    4.50
   3   1 -15    9.30    4.00
   3   1 -15   10.90    4.40
  -3   1  15   13.00    4.30
   3   1 -15   -0.10    4.30
   2  -1 -15  157.28    9.80
   2  -1 -15  190.58    9.20
  -2  -1  15  189.88    8.90
   2  -1 -15  204.18    9.20
   2   1 -15  198.28    9.00
   2   1 -15  183.48    9.20
   2   1 -15  172.08   10.00
  -2   1  15  191.18    8.30
   1  -1 -15   38.30    5.70
   1  -1 -15   45.20    5.60
   1  -1 -15   41.60    5.50
   1   1 -15   40.00    5.50
   1   1 -15   38.40    5.30
   1   1 -15   39.50    5.30
   0  -1 -15   51.49    6.30
   0  -1 -15   54.89    6.40
   0  -1 -15   64.69    7.60
   0   1 -15   61.29    7.60
   0   1 -15   55.99    6.40
   0   1 -15   62.19    7.40
  -1  -1 -15   -4.20    5.10
  -1  -1 -15   -5.00    5.00
  -1  -1 -15  -11.00    5.50
  -1   1 -15   -3.00    5.70
  -1   1 -15    0.50    5.10
  -1   1 -15    7.30    5.30
   7  -2 -15  128.49   10.30
   7  -2 -15  121.89    9.50
   7   2 -15  129.29    9.00
   7   2 -15  121.99   10.00
   7   2 -15  127.89    8.00
   6  -2 -15  468.05   15.80
   6  -2 -15  477.85   15.20
   6   2 -15  518.95   16.10
   6   2 -15  478.15   14.90
   6   2 -15  493.15   14.30
   5  -2 -15  169.88    9.40
   5  -2 -15  156.78    9.90
   5   2 -15  188.58    9.90
   5   2 -15  167.78   10.00
  -5   2  15  166.88    6.00
   5   2 -15  157.58    9.40
  -4  -2  15  108.09    5.40
   4  -2 -15  118.99    8.80
   4  -2 -15  108.19    7.70
   4  -2 -15  114.09    8.10
   4   2 -15  113.89    7.90
  -4   2  15  128.39    6.90
   4   2 -15   98.19    8.90
   3  -2 -15   79.99    7.50
   3  -2 -15   72.39    7.00
  -3  -2  15   97.59    6.70
   3  -2 -15   65.99    7.90
   3   2 -15   78.29    7.30
   3   2 -15   83.49    7.20
  -3   2  15   78.19    7.20
   3   2 -15   83.49    7.30
   2  -2 -15  769.72   19.50
   2  -2 -15  763.62   19.90
  -2  -2  15  755.32   18.70
   2  -2 -15  737.03   20.40
  -2   2  15  730.73   18.70
   2   2 -15  742.63   20.50
   2   2 -15  755.92   19.90
   1  -2 -15  332.87   12.30
   1  -2 -15  364.06   12.40
   1   2 -15  338.67   13.30
   1   2 -15  347.97   12.30
   1   2 -15  342.97   12.70
   0  -2 -15   25.20    6.10
   0  -2 -15   30.10    5.80
   0  -2 -15   31.40    5.70
   0   2 -15   22.60    6.20
   0   2 -15   27.10    5.70
   0   2 -15   22.90    5.20
  -1  -2 -15  100.49    8.80
  -1  -2 -15  109.79    8.60
  -1   2 -15   97.99   10.00
  -1   2 -15  101.79    8.70
   6  -3 -15   23.50    6.10
   6  -3 -15   21.20    6.20
   6   3 -15   31.70    5.70
   6   3 -15   37.10    6.40
   5  -3 -15  433.26   14.40
   5   3 -15  447.36   15.30
   5   3 -15  431.66   13.90
   4  -3 -15    0.40    4.90
  -4  -3  15   -0.10    2.90
   4  -3 -15   -1.30    5.60
   4   3 -15   -7.60    5.00
  -4   3  15    6.00    4.10
   4   3 -15    8.70    5.30
   4   3 -15    2.40    4.70
   3  -3 -15    2.90    5.00
   3  -3 -15    5.30    5.00
  -3  -3  15    6.40    3.80
   3  -3 -15    0.30    4.80
  -3  -3  15    1.70    3.50
   3   3 -15    3.10    5.40
   3   3 -15    4.60    4.60
   3   3 -15    9.90    4.60
  -3   3  15    1.00    4.40
   2  -3 -15   18.10    5.20
   2  -3 -15   12.10    5.30
  -2  -3  15   17.90    4.50
  -2   3  15   13.80    5.20
   2   3 -15   11.20    5.10
   2   3 -15   14.40    5.80
   2   3 -15   15.70    5.80
   1  -3 -15  246.08   11.00
   1  -3 -15  250.37   10.90
   1   3 -15  250.27   11.20
   1   3 -15  247.78   11.00
   1   3 -15  256.47   12.10
   0  -3 -15   42.10    6.10
   0  -3 -15   37.10    6.30
   0  -3 -15   22.70    5.80
   0   3 -15   30.60    6.50
   0   3 -15   30.30    5.70
   5  -4 -15   27.30    5.90
   5  -4 -15   41.60    5.90
   5   4 -15   29.60    5.50
   5   4 -15   32.10    5.00
   5   4 -15   34.50    6.60
   4  -4 -15  154.28    9.60
  -4  -4  15  155.78    6.50
   4   4 -15  149.29    9.00
   4   4 -15  145.69    9.50
  -4   4  15  132.39   11.50
   4   4 -15  142.99   10.80
   3  -4 -15   10.00    5.40
  -3  -4  15   14.40    4.00
  -3  -4  15    8.20    4.10
   3  -4 -15    9.10    5.30
   3  -4 -15    5.50    5.20
   3   4 -15    1.90    4.70
   3   4 -15   -1.60    5.60
  -3   4  15    1.90    5.00
   3   4 -15   -1.30    5.10
  -2  -4  15   78.19    7.20
   2  -4 -15   72.49    8.00
   2  -4 -15   69.79    7.60
   2  -4 -15   88.09    9.50
  -2  -4  15   52.49    6.00
   2   4 -15   77.79    8.20
   2   4 -15   78.79    8.20
   2   4 -15   81.19    9.30
   1  -4 -15   47.30    6.20
   1  -4 -15   60.39    7.10
   1  -4 -15   57.59    7.30
   1   4 -15   48.30    6.10
   1   4 -15   53.29    7.10
   0  -4 -15  131.69    9.70
   0  -4 -15  128.79   10.10
   0   4 -15  146.89    9.80
   0   4 -15  135.39   11.10
  -3  -5  15  180.98    7.70
   3  -5 -15  153.58   10.00
   3  -5 -15  160.68   10.20
   3  -5 -15  142.19    9.20
   3   5 -15  161.28    9.90
   3   5 -15  164.38    9.90
   6   0 -16  248.48   11.40
   6   0 -16  245.48   11.10
   6   0 -16  235.48   11.30
   4   0 -16  969.70   25.10
   4   0 -16  981.70   24.40
   4   0 -16  943.91   23.90
   3   0 -16  314.27   12.30
  -3   0  16  327.07   11.20
   2   0 -16    1.10    5.10
   2   0 -16    2.20    5.30
   2   0 -16   -5.20    4.40
  -2   0  16    3.10    5.20
   1   0 -16   32.50    5.90
   1   0 -16   41.80    6.30
   1   0 -16   33.30    6.50
   0   0 -16  280.07   12.60
   0   0 -16  290.67   13.60
   5  -1 -16   16.90    5.90
   5  -1 -16   25.30    5.40
   5  -1 -16   20.80    6.00
   5   1 -16   19.50    5.10
   5   1 -16   24.40    6.40
   5   1 -16   39.60    6.00
   4  -1 -16   61.69    6.90
   4  -1 -16   68.49    8.00
   4  -1 -16   53.79    6.30
   4   1 -16   47.70    7.00
   4   1 -16   55.79    6.70
   4   1 -16   80.99    8.20
   3  -1 -16   53.39    6.20
  -3  -1  16   47.60    4.80
   3  -1 -16   45.60    6.40
   3  -1 -16   46.50    5.90
   3   1 -16   67.39    8.10
   3   1 -16   47.80    6.80
  -3   1  16   50.89    5.10
   3   1 -16   59.39    6.70
   2  -1 -16   25.00    5.80
   2  -1 -16   27.80    5.30
  -2  -1  16   19.00    5.40
   2  -1 -16   34.30    5.90
   2   1 -16   22.60    6.20
   2   1 -16   25.90    5.60
   2   1 -16   24.00    5.80
   1  -1 -16   16.70    5.60
   1  -1 -16   19.30    5.50
   1  -1 -16   16.00    6.00
   1   1 -16   13.10    6.00
   1   1 -16   16.90    5.60
   1   1 -16   13.10    5.70
   5  -2 -16   58.89    6.80
   5  -2 -16   57.19    6.30
   5  -2 -16   52.89    6.30
   5   2 -16   62.49    6.80
   5   2 -16   46.40    5.80
   5   2 -16   59.59    7.20
   4  -2 -16   12.80    5.30
  -4  -2  16    6.80    3.20
   4  -2 -16    3.90    5.30
   4  -2 -16   10.30    4.90
   4   2 -16    7.00    5.10
   4   2 -16    7.10    5.40
   4   2 -16    3.00    5.90
   3  -2 -16   -6.00    6.10
   3  -2 -16   -0.90    5.30
  -3  -2  16   -2.40    4.90
   3  -2 -16    7.20    5.70
   3   2 -16    0.40    5.00
   3   2 -16    3.30    4.40
  -3   2  16   10.50    4.10
   3   2 -16   -1.70    5.10
   2  -2 -16   -3.50    5.00
   2  -2 -16    4.10    5.50
   2  -2 -16    1.90    5.80
  -2  -2  16   -9.80    5.40
   2   2 -16    2.10    5.40
   2   2 -16   -5.30    5.60
   2   2 -16   -7.00    5.10
   1  -2 -16   11.60    6.10
   1  -2 -16    0.10    5.40
   1  -2 -16   -9.90    5.30
   1   2 -16    3.60    5.60
   1   2 -16   -2.70    5.00
   1   2 -16    6.50    5.60
  -4  -3  16   25.90    3.70
   4  -3 -16   21.80    6.20
   4  -3 -16   26.10    6.30
   4   3 -16   27.80    6.90
   4   3 -16   19.40    6.20
   4   3 -16   30.40    6.20
   3  -3 -16    1.60    4.70
  -3  -3  16    4.30    3.60
   3  -3 -16    3.60    5.70
   3   3 -16   -6.60    5.20
   3   3 -16    6.50    5.70
   3   3 -16   -4.90    5.90
   2  -3 -16   24.80    5.60
   2  -3 -16   36.50    6.50
   2  -3 -16   36.40    7.30
   2   3 -16   37.70    6.50
   2   3 -16   43.80    7.40
   2   3 -16   29.60    6.00
   0   0   0    0.00    0.00

_computing_structure_solution     'SHELXT 2014/5 (Sheldrick, 2014)'
;
_shelx_hkl_checksum              99240
loop_
_space_group_symop_operation_xyz
'x, y, z'
'-x, y+1/2, -z+1/2'
'-x, -y, -z'
'x, -y-1/2, z-1/2'
loop_
_atom_site_label
_atom_site_type_symbol
_atom_site_fract_x
_atom_site_fract_y
_atom_site_fract_z
_atom_site_U_iso_or_equiv
_atom_site_adp_type
_atom_site_occupancy
_atom_site_site_symmetry_order
_atom_site_calc_flag
_atom_site_refinement_flags_posn
_atom_site_refinement_flags_adp
_atom_site_refinement_flags_occupancy
Cl1 Cl 0.50303(4) 0.62849(4) 0.87988(2) 0.02691(11) Uani 1 1 d . . .
Cl2 Cl 0.24796(4) 0.82075(4) 0.75035(3) 0.02633(11) Uani 1 1 d . . .
O1 O 0.29405(11) 0.44331(12) 0.51048(7) 0.0234(2) Uani 1 1 d . . .
H1 H 0.357811 0.435994 0.467421 0.028 Uiso 1 1 d R U .
O2 O 0.50104(11) 0.59030(11) 0.61127(7) 0.0228(2) Uani 1 1 d . . .
O3 O 0.13632(12) 0.39505(11) 0.94799(8) 0.0251(2) Uani 1 1 d . . .
H3 H 0.093409 0.392752 1.000647 0.030 Uiso 0.64(3) 1 d R U P
O4 O 0.00552(13) 0.61599(12) 0.89388(8) 0.0299(2) Uani 1 1 d . . .
H4 H -0.035625 0.614135 0.937436 0.036 Uiso 0.36(3) 1 d R U P
C1 C 0.17548(14) 0.51103(13) 0.79333(9) 0.0152(2) Uani 1 1 d . . .
C2 C 0.30778(15) 0.62744(14) 0.77922(9) 0.0155(2) Uani 1 1 d . . .
C3 C 0.27935(14) 0.51852(13) 0.68167(9) 0.0152(2) Uani 1 1 d . . .
C4 C 0.08801(15) 0.52871(15) 0.66901(9) 0.0186(3) Uani 1 1 d . . .
H4A H 0.019482 0.441258 0.632907 0.022 Uiso 1 1 calc R U .
H4B H 0.034495 0.628337 0.645257 0.022 Uiso 1 1 calc R U .
C5 C 0.28418(17) 0.38483(14) 0.76311(10) 0.0197(3) Uani 1 1 d . . .
H5A H 0.224702 0.290554 0.731704 0.024 Uiso 1 1 calc R U .
H5B H 0.393734 0.365016 0.816758 0.024 Uiso 1 1 calc R U .
C6 C 0.09855(14) 0.50925(14) 0.88461(9) 0.0164(2) Uani 1 1 d . . .
C7 C 0.36927(15) 0.52247(13) 0.59690(9) 0.0155(2) Uani 1 1 d . . .
loop_
_atom_site_aniso_label
_atom_site_aniso_U_11
_atom_site_aniso_U_22
_atom_site_aniso_U_33
_atom_site_aniso_U_23
_atom_site_aniso_U_13
_atom_site_aniso_U_12
Cl1 0.01880(17) 0.0427(2) 0.01799(16) -0.00211(13) 0.00329(12) -0.00604(13)
Cl2 0.03290(19) 0.01555(17) 0.03573(19) -0.00048(12) 0.01814(15) 0.00012(12)
O1 0.0215(4) 0.0353(5) 0.0169(4) -0.0079(4) 0.0108(4) -0.0052(4)
O2 0.0240(5) 0.0278(5) 0.0217(5) -0.0066(4) 0.0148(4) -0.0080(4)
O3 0.0306(5) 0.0277(5) 0.0217(5) 0.0083(4) 0.0151(4) 0.0052(4)
O4 0.0387(6) 0.0293(5) 0.0317(5) 0.0074(4) 0.0262(5) 0.0123(4)
C1 0.0168(5) 0.0165(6) 0.0152(5) 0.0003(4) 0.0091(4) -0.0006(4)
C2 0.0155(5) 0.0179(6) 0.0147(5) 0.0000(4) 0.0069(4) -0.0003(4)
C3 0.0168(5) 0.0169(6) 0.0142(5) -0.0006(4) 0.0083(4) -0.0002(4)
C4 0.0163(6) 0.0258(6) 0.0154(5) -0.0007(5) 0.0073(4) -0.0020(5)
C5 0.0254(6) 0.0175(6) 0.0211(6) 0.0023(5) 0.0148(5) 0.0017(5)
C6 0.0161(5) 0.0191(6) 0.0157(5) 0.0002(4) 0.0074(4) -0.0017(4)
C7 0.0187(6) 0.0153(5) 0.0142(5) 0.0009(4) 0.0072(4) 0.0025(4)
loop_
_atom_type_symbol
_atom_type_description
_atom_type_scat_dispersion_real
_atom_type_scat_dispersion_imag
_atom_type_scat_source
C C 0.0033 0.0016 'International Tables Vol C Tables 4.2.6.8 and 6.1.1.4'
H H 0.0000 0.0000 'International Tables Vol C Tables 4.2.6.8 and 6.1.1.4'
Cl Cl 0.1484 0.1585 'International Tables Vol C Tables 4.2.6.8 and 6.1.1.4'
O O 0.0106 0.0060 'International Tables Vol C Tables 4.2.6.8 and 6.1.1.4'
loop_
_geom_angle_atom_site_label_1
_geom_angle_atom_site_label_2
_geom_angle_atom_site_label_3
_geom_angle
C7 O1 H1 110.4
C6 O3 H3 116.4
C6 O4 H4 119.7
C6 C1 C5 127.23(10)
C6 C1 C2 125.46(10)
C5 C1 C2 87.39(8)
C6 C1 C4 128.85(10)
C5 C1 C4 87.04(9)
C2 C1 C4 87.30(8)
C6 C1 C3 177.66(10)
C5 C1 C3 53.28(6)
C2 C1 C3 52.30(6)
C4 C1 C3 52.86(6)
C3 C2 C1 74.88(8)
C3 C2 Cl1 119.64(8)
C1 C2 Cl1 117.00(8)
C3 C2 Cl2 116.98(8)
C1 C2 Cl2 119.12(8)
Cl1 C2 Cl2 107.01(6)
C7 C3 C2 126.14(10)
C7 C3 C4 129.55(10)
C2 C3 C4 87.86(8)
C7 C3 C5 125.85(10)
C2 C3 C5 87.19(9)
C4 C3 C5 86.64(9)
C7 C3 C1 177.32(10)
C2 C3 C1 52.82(6)
C4 C3 C1 53.09(6)
C5 C3 C1 52.49(6)
C3 C4 C1 74.05(8)
C3 C4 H4A 116.1
C1 C4 H4A 116.1
C3 C4 H4B 116.1
C1 C4 H4B 116.1
H4A C4 H4B 113.1
C1 C5 C3 74.24(8)
C1 C5 H5A 116.1
C3 C5 H5A 116.1
C1 C5 H5B 116.1
C3 C5 H5B 116.1
H5A C5 H5B 113.1
O4 C6 O3 125.28(11)
O4 C6 C1 119.27(11)
O3 C6 C1 115.45(10)
O2 C7 O1 125.48(10)
O2 C7 C3 121.49(10)
O1 C7 C3 113.00(10)
loop_
_geom_bond_atom_site_label_1
_geom_bond_atom_site_label_2
_geom_bond_distance
Cl1 C2 1.7665(12)
Cl2 C2 1.7786(12)
O1 C7 1.3094(15)
O1 H1 0.8744
O2 C7 1.2170(15)
O3 C6 1.2743(15)
O3 H3 0.8534
O4 C6 1.2446(15)
O4 H4 0.7373
C1 C6 1.4930(15)
C1 C5 1.5510(16)
C1 C2 1.5532(16)
C1 C4 1.5650(16)
C1 C3 1.8819(16)
C2 C3 1.5423(16)
C3 C7 1.4926(15)
C3 C4 1.5601(16)
C3 C5 1.5673(16)
C4 H4A 0.9900
C4 H4B 0.9900
C5 H5A 0.9900
C5 H5B 0.9900
loop_
_geom_hbond_atom_site_label_D
_geom_hbond_atom_site_label_H
_geom_hbond_atom_site_label_A
_geom_hbond_distance_DH
_geom_hbond_distance_HA
_geom_hbond_distance_DA
_geom_hbond_angle_DHA
_geom_hbond_site_symmetry_A
_geom_hbond_publ_flag
O1 H1 O2 0.87 1.78 2.6480(12) 174.8 3_666 yes
O3 H3 O4 0.85 1.78 2.6354(12) 177.1 3_567 yes
O4 H4 O3 0.74 1.90 2.6354(12) 178.2 3_567 yes
