#------------------------------------------------------------------------------
#$Date: 2019-11-12 04:17:18 +0200 (Tue, 12 Nov 2019) $
#$Revision: 227523 $
#$URL: file:///home/coder/svn-repositories/cod/cif/4/03/35/4033516.cif $
#------------------------------------------------------------------------------
#
# This file is available in the Crystallography Open Database (COD),
# http://www.crystallography.net/
#
# All data on this site have been placed in the public domain by the
# contributors.
#
data_4033516
loop_
_publ_author_name
'Yang, Jianguo'
'Mo, Hanjie'
'Jin, Xiuxiu'
'Cao, Dongdong'
'Wu, Haijian'
'Chen, Di'
'Wang, Zhiming'
_publ_section_title
;
 Vinylogous Elimination/Heck Coupling/Allylation Domino Reactions: Access
 to 2-Substituted 2,3-Dihydrobenzofurans and Indolines.
;
_journal_issue                   5
_journal_name_full               'The Journal of organic chemistry'
_journal_page_first              2592
_journal_page_last               2600
_journal_paper_doi               10.1021/acs.joc.7b02986
_journal_volume                  83
_journal_year                    2018
_chemical_formula_sum            'C19 H18 O3'
_chemical_formula_weight         294.33
_space_group_crystal_system      triclinic
_space_group_IT_number           2
_space_group_name_Hall           '-P 1'
_space_group_name_H-M_alt        'P -1'
_symmetry_space_group_name_Hall  '-P 1'
_symmetry_space_group_name_H-M   'P -1'
_atom_sites_solution_hydrogens   geom
_audit_creation_method           SHELXL-2016/6
_cell_angle_alpha                90.537(11)
_cell_angle_beta                 106.826(9)
_cell_angle_gamma                94.317(8)
_cell_formula_units_Z            2
_cell_length_a                   6.776(2)
_cell_length_b                   10.643(3)
_cell_length_c                   11.371(4)
_cell_measurement_reflns_used    636
_cell_measurement_temperature    296(2)
_cell_measurement_theta_max      22.87
_cell_measurement_theta_min      3.15
_cell_volume                     782.3(4)
_computing_cell_refinement       'Bruker SMART'
_computing_data_collection       'Bruker SMART'
_computing_data_reduction        'Bruker SAINT'
_computing_molecular_graphics    'Bruker SHELXTL'
_computing_publication_material  'Bruker SHELXTL'
_computing_structure_refinement  'SHELXL-2016/6 (Sheldrick, 2016)'
_computing_structure_solution    'Bruker SHELXTL'
_diffrn_ambient_temperature      296(2)
_diffrn_measured_fraction_theta_full 0.989
_diffrn_measured_fraction_theta_max 0.947
_diffrn_measurement_device_type  'CCD area detector'
_diffrn_measurement_method       'phi and omega scans'
_diffrn_radiation_source         'sealed tube'
_diffrn_radiation_type           MoK\a
_diffrn_radiation_wavelength     0.71073
_diffrn_reflns_av_R_equivalents  0.0478
_diffrn_reflns_av_unetI/netI     0.1202
_diffrn_reflns_Laue_measured_fraction_full 0.989
_diffrn_reflns_Laue_measured_fraction_max 0.947
_diffrn_reflns_limit_h_max       7
_diffrn_reflns_limit_h_min       -8
_diffrn_reflns_limit_k_max       13
_diffrn_reflns_limit_k_min       -11
_diffrn_reflns_limit_l_max       14
_diffrn_reflns_limit_l_min       -9
_diffrn_reflns_number            5206
_diffrn_reflns_point_group_measured_fraction_full 0.989
_diffrn_reflns_point_group_measured_fraction_max 0.947
_diffrn_reflns_theta_full        25.242
_diffrn_reflns_theta_max         27.540
_diffrn_reflns_theta_min         1.872
_exptl_absorpt_coefficient_mu    0.084
_exptl_crystal_colour            colorless
_exptl_crystal_density_diffrn    1.250
_exptl_crystal_description       block
_exptl_crystal_F_000             312
_exptl_crystal_size_max          0.210
_exptl_crystal_size_mid          0.200
_exptl_crystal_size_min          0.190
_refine_diff_density_max         0.227
_refine_diff_density_min         -0.218
_refine_diff_density_rms         0.059
_refine_ls_extinction_method     none
_refine_ls_goodness_of_fit_ref   0.875
_refine_ls_hydrogen_treatment    constr
_refine_ls_matrix_type           full
_refine_ls_number_parameters     200
_refine_ls_number_reflns         3410
_refine_ls_number_restraints     1
_refine_ls_restrained_S_all      0.874
_refine_ls_R_factor_all          0.1633
_refine_ls_R_factor_gt           0.0586
_refine_ls_shift/su_max          0.000
_refine_ls_shift/su_mean         0.000
_refine_ls_structure_factor_coef Fsqd
_refine_ls_weighting_details
'w=1/[\s^2^(Fo^2^)+(0.0908P)^2^+0.0897P] where P=(Fo^2^+2Fc^2^)/3'
_refine_ls_weighting_scheme      calc
_refine_ls_wR_factor_gt          0.1347
_refine_ls_wR_factor_ref         0.2079
_reflns_Friedel_coverage         0.000
_reflns_number_gt                1368
_reflns_number_total             3410
_reflns_threshold_expression     'I > 2\s(I)'
_cod_data_source_file            jo7b02986_si_002.cif
_cod_data_source_block           tp_compound_3a
_cod_depositor_comments
'Adding full bibliography for 4033516--4033518.cif.'
_cod_original_cell_volume        782.2(5)
_cod_database_code               4033516
_shelx_shelxl_version_number     2016/6
_shelx_space_group_comment
;
The symmetry employed for this shelxl refinement is uniquely defined
by the following loop, which should always be used as a source of
symmetry information in preference to the above space-group names.
They are only intended as comments.
;
_shelx_estimated_absorpt_t_min   0.983
_shelx_estimated_absorpt_t_max   0.984
_shelx_res_file
;
TITL Tp in P-1
    tp.res
    created by SHELXL-2016/6 at 08:22:19 on 06-Sep-2017
CELL 0.71073   6.7757  10.6432  11.3706  90.537 106.826  94.317
ZERR   2.00   0.0021   0.0033   0.0043   0.011   0.009   0.008
LATT 1
SFAC C  H  O
UNIT 38  36  6
L.S. 20
ACTA
BOND $H
FMAP 2
PLAN 2
SIZE 0.19 0.20 0.21
DELU 0.001 0.002 C5 C6
TEMP 23.000
WGHT    0.090800    0.089697
FVAR       0.33442
MOLE 1
C1    1    0.089748    0.520701    0.312584    11.00000    0.04152    0.04072 =
         0.04526   -0.00118    0.00345    0.00432
AFIX  13
H1    2    0.085063    0.595711    0.362046    11.00000   -1.20000
AFIX   0
C2    1    0.305796    0.520777    0.296445    11.00000    0.04482    0.05580 =
         0.05812    0.00103    0.00145   -0.00563
AFIX  23
H2A   2    0.299207    0.514279    0.210222    11.00000   -1.20000
H2B   2    0.390951    0.596504    0.333139    11.00000   -1.20000
AFIX   0
C3    1    0.387663    0.405653    0.362980    11.00000    0.03271    0.05233 =
         0.04424   -0.00405    0.00458    0.00276
C4    1    0.570553    0.352622    0.379580    11.00000    0.03076    0.09351 =
         0.05539   -0.00835    0.01141    0.00620
AFIX  43
H4    2    0.672416    0.389408    0.347932    11.00000   -1.20000
AFIX   0
C5    1    0.601363    0.242506    0.444764    11.00000    0.04870    0.08467 =
         0.06603   -0.00939    0.00364    0.03109
AFIX  43
H5    2    0.725892    0.205856    0.457522    11.00000   -1.20000
AFIX   0
C6    1    0.451722    0.187265    0.490377    11.00000    0.05688    0.05702 =
         0.05568   -0.00759   -0.00594    0.01842
AFIX  43
H6    2    0.476033    0.113824    0.534136    11.00000   -1.20000
AFIX   0
C7    1    0.264001    0.239144    0.472364    11.00000    0.05102    0.04827 =
         0.05466   -0.00128    0.00759    0.00489
AFIX  43
H7    2    0.161100    0.202363    0.503167    11.00000   -1.20000
AFIX   0
C8    1    0.237260    0.347467    0.406846    11.00000    0.02911    0.04365 =
         0.04162   -0.00678    0.00393    0.00566
C9    1   -0.085963    0.517937    0.196055    11.00000    0.03843    0.04669 =
         0.04805   -0.00483    0.00139    0.00152
C10   1   -0.204410    0.612487    0.155374    11.00000    0.05288    0.05024 =
         0.04662    0.00015   -0.00163    0.00966
AFIX  43
H10   2   -0.315410    0.593772    0.085517    11.00000   -1.20000
AFIX   0
C11   1   -0.182921    0.743189    0.206476    11.00000    0.05687    0.04764 =
         0.04722    0.00345    0.00101    0.01118
C12   1   -0.363019    0.805849    0.185358    11.00000    0.05762    0.06423 =
         0.05594    0.00684    0.00868    0.01826
AFIX  43
H12   2   -0.490968    0.764990    0.144068    11.00000   -1.20000
AFIX   0
C13   1   -0.347930    0.929978    0.226962    11.00000    0.09731    0.06547 =
         0.07814    0.00539    0.02724    0.03912
AFIX  43
H13   2   -0.467642    0.971966    0.213416    11.00000   -1.20000
AFIX   0
C14   1   -0.163608    0.991704    0.286778    11.00000    0.10321    0.05146 =
         0.06550   -0.00349    0.02281    0.01281
AFIX  43
H14   2   -0.157906    1.074367    0.315575    11.00000   -1.20000
AFIX   0
C15   1    0.016307    0.931562    0.304988    11.00000    0.07736    0.05162 =
         0.07032   -0.00257    0.00237    0.00150
AFIX  43
H15   2    0.143656    0.974300    0.344261    11.00000   -1.20000
AFIX   0
C16   1    0.006124    0.807605    0.264570    11.00000    0.06428    0.04650 =
         0.05680    0.00211    0.00734    0.00780
AFIX  43
H16   2    0.127132    0.767245    0.276505    11.00000   -1.20000
AFIX   0
C17   1   -0.140077    0.400092    0.117768    11.00000    0.04675    0.05315 =
         0.05117   -0.00335   -0.00349    0.00515
C18   1   -0.009882    0.213917    0.066532    11.00000    0.08214    0.05191 =
         0.05508   -0.01168    0.00522    0.00915
AFIX  23
H18A  2   -0.052486    0.230212   -0.020636    11.00000   -1.20000
H18B  2   -0.115149    0.156911    0.084580    11.00000   -1.20000
AFIX   0
C19   1    0.193730    0.157625    0.101505    11.00000    0.08540    0.06941 =
         0.07525   -0.00515    0.02181    0.02591
AFIX 137
H19A  2    0.293188    0.211251    0.076065    11.00000   -1.50000
H19B  2    0.178571    0.075950    0.061884    11.00000   -1.50000
H19C  2    0.240277    0.149501    0.189040    11.00000   -1.50000
AFIX   0
O1    3    0.060532    0.408340    0.381685    11.00000    0.03157    0.05238 =
         0.05383    0.00588    0.00942    0.00808
O2    3    0.018327    0.330184    0.137856    11.00000    0.05498    0.05082 =
         0.05926   -0.01506    0.00048    0.01090
O3    3   -0.302422    0.371772    0.043590    11.00000    0.07242    0.07731 =
         0.11129   -0.03552   -0.03539    0.01809
HKLF 4




REM  Tp in P-1
REM R1 =  0.0586 for    1368 Fo > 4sig(Fo)  and  0.1633 for all    3410 data
REM    200 parameters refined using      1 restraints

END

WGHT      0.0907      0.0000

REM Highest difference peak  0.227,  deepest hole -0.218,  1-sigma level  0.059
Q1    1   0.3875  0.2796  0.2301  11.00000  0.05    0.23
Q2    1   0.6214  0.0982  0.3600  11.00000  0.05    0.22
;
_shelx_res_checksum              68713
_shelx_hkl_file
;
   1   0  -1   37.85    1.35
   1   0  -1   37.40    1.34
  -1   0   1   37.62    1.55
  -1   0   1   36.48    1.27
   2   0  -2   53.66    1.91
  -2   0   2   53.03    1.92
  -2   0   2   49.05    2.63
  -4   0   4    0.40    0.41
  -4   0   4   -0.53    0.76
  -5   0   5    0.50    0.77
  -5   0   5    1.28    0.46
  -6   0   6   -0.62    0.65
  -7   0   7    0.70    0.77
  -8   0   8    0.96    0.92
  -8  -1   8    0.21    0.86
  -7  -1   7    0.29    0.70
  -6  -1   6    7.67    1.43
  -5  -1   5    0.29    0.72
  -5  -1   5    0.23    0.31
  -4  -1   4   -0.24    0.84
  -4  -1   4   -0.47    0.31
   4   1  -4   -0.49    0.27
  -3  -1   3    6.78    0.57
   3   1  -3    6.22    0.57
   3   1  -3    7.22    0.72
  -2  -1   2  113.02    4.56
  -2  -1   2  111.08    3.43
   2   1  -2  108.51    3.58
   2   1  -2  108.34    3.44
  -1  -1   1   29.08    2.03
   1   1  -1   26.45    1.18
   0  -1   0  200.09    6.91
   0  -1   0  201.33    5.97
   0   1   0  203.66    5.98
   0   1   0  188.66    6.88
   1  -1  -1   93.13    3.14
  -1   1   1   94.49    3.22
  -1   1   1   99.02    3.65
  -3   1   3   93.35    4.08
  -4   1   4    1.61    0.82
  -4   1   4    2.85    0.59
  -5   1   5    2.59    0.96
  -5   1   5    2.56    0.64
  -6   1   6    1.87    0.94
  -6   1   6    1.02    0.58
  -7   1   7   -0.20    0.75
  -8   1   8    0.31    0.82
  -8  -2   8    0.75    0.94
  -7  -2   7    0.57    0.80
  -6  -2   6    1.23    0.81
  -5  -2   5   -0.13    0.76
   5   2  -5    0.92    0.42
  -4  -2   4    1.88    0.31
  -4  -2   4    0.88    0.91
   4   2  -4    1.67    0.34
   4   2  -4    2.06    0.42
  -3  -2   3   88.20    2.73
   3   2  -3   86.16    2.72
   3   2  -3   87.94    3.04
  -2  -2   2    7.89    1.21
   2   2  -2    7.51    0.65
  -1  -2   1  271.14    7.68
   1   2  -1  257.33    7.69
   1   2  -1  249.79    8.03
   0  -2   0   19.83    1.06
   0   2   0   20.35    1.25
  -1   2   1    3.78    0.57
  -1   2   1    3.47    0.93
  -2   2   2    5.25    0.82
  -2   2   2    5.39    0.87
  -3   2   3    7.89    0.88
  -3   2   3    4.89    0.87
  -4   2   4   63.81    2.68
  -4   2   4   68.52    3.28
  -5   2   5    8.50    1.00
  -5   2   5    7.33    1.25
  -6   2   6    5.92    1.25
  -6   2   6    5.11    0.90
  -7   2   7    0.77    0.84
  -8   2   8    0.18    0.84
  -8  -3   8    0.13    0.96
  -7  -3   7   -0.49    0.68
  -6  -3   6    0.00    0.76
  -5  -3   5    0.70    0.82
   5   3  -5    1.34    0.43
  -4  -3   4   16.82    1.80
   4   3  -4   23.48    1.17
  -3  -3   3   10.45    1.40
   3   3  -3   11.28    0.80
  -1  -3   1   24.72    0.97
  -1  -3   1   15.75    1.62
   1   3  -1   22.04    1.04
   1   3  -1   23.78    0.97
   0  -3   0    0.44    0.61
   0   3   0    2.32    0.47
   0   3   0    2.12    0.69
  -1   3   1  108.84    3.83
  -1   3   1  111.16    3.92
  -2   3   2    7.49    0.77
  -2   3   2    5.79    0.88
  -4   3   4   22.37    1.45
  -4   3   4   22.76    1.67
  -5   3   5    7.39    0.99
  -5   3   5    3.22    0.86
  -6   3   6    9.40    1.44
  -6   3   6   10.17    1.21
  -7   3   7    0.00    0.73
  -8   3   8    0.61    0.88
  -7  -4   7    0.50    0.88
  -6  -4   6   -0.02    0.80
   6   4  -6    0.69    0.39
  -5  -4   5    0.45    0.83
   5   4  -5    0.19    0.35
  -4  -4   4    0.30    0.77
   4   4  -4    0.33    0.38
  -3  -4   3    2.32    0.92
   3   4  -3    3.21    0.54
  -2  -4   2   17.70    1.57
   2   4  -2   21.90    1.12
  -1  -4   1    0.94    0.73
  -1  -4   1    0.77    0.38
   1   4  -1    0.78    0.39
   1   4  -1    0.84    0.41
   0  -4   0    2.63    0.64
   0   4   0    2.53    0.48
   0   4   0    2.42    0.66
   1  -4  -1    3.15    0.29
  -1   4   1    2.83    0.81
  -2   4   2    2.82    0.48
  -2   4   2    1.63    0.73
  -3   4   3   18.28    1.37
  -3   4   3   19.87    1.32
  -5   4   5    2.85    0.82
  -5   4   5    2.95    0.83
  -6   4   6    0.35    0.65
  -6   4   6    0.85    0.71
  -7   4   7    0.51    0.71
  -7   4   7    1.51    0.93
  -8   4   8   -0.47    0.77
  -7  -5   7   -0.11    0.78
   7   5  -7    0.15    0.40
  -6  -5   6    1.12    0.92
   6   5  -6    1.04    0.46
  -5  -5   5    0.02    0.80
   5   5  -5   -0.09    0.36
  -4  -5   4    0.34    0.83
   4   5  -4   -0.01    0.40
  -3  -5   3    2.40    0.85
   3   5  -3    4.34    0.58
  -2  -5   2    0.31    0.22
  -2  -5   2    0.40    0.71
   2   5  -2    0.02    0.21
   2   5  -2    0.00    0.36
  -1  -5   1   39.05    2.09
   1   5  -1   37.90    1.60
   1   5  -1   37.29    1.56
   0  -5   0  133.22    4.83
   0   5   0  132.48    4.38
   0   5   0  122.60    4.28
   1  -5  -1    5.45    0.56
  -1   5   1    4.91    0.82
  -2   5   2    0.53    0.30
  -2   5   2    1.00    0.66
  -3   5   3   14.95    1.29
  -3   5   3   14.57    1.00
  -4   5   4    0.17    0.46
  -4   5   4   -0.02    0.60
  -5   5   5    3.53    0.89
  -5   5   5    2.78    0.75
  -6   5   6    0.70    0.65
  -6   5   6    0.32    0.68
  -7   5   7   -0.27    0.58
  -7  -6   7    0.20    0.92
   7   6  -7    0.04    0.42
  -6  -6   6   -0.04    0.73
   6   6  -6    0.03    0.38
  -5  -6   5   -0.04    0.76
   5   6  -5    0.08    0.39
  -4  -6   4    0.38    0.80
   4   6  -4   -0.04    0.41
  -3  -6   3    5.70    1.09
   3   6  -3    6.34    0.70
  -2  -6   2    1.73    0.77
   2   6  -2    1.63    0.47
   2   6  -2    2.06    0.34
   1   6  -1   41.61    1.77
   1   6  -1   44.22    1.79
   0  -6   0   -0.38    0.47
   0   6   0    0.18    0.51
   0   6   0   -0.36    0.33
   1  -6  -1    1.43    0.42
  -1   6   1    1.09    0.65
   2  -6  -2    7.27    0.46
  -2   6   2    8.42    1.08
  -3   6   3   26.65    1.71
  -3   6   3   26.55    1.30
  -4   6   4    0.14    0.38
  -4   6   4   -0.28    0.66
  -5   6   5    2.75    0.66
  -5   6   5    2.73    0.81
  -6   6   6   -0.72    0.56
  -7   6   7    0.25    0.70
  -6  -7   6    0.17    0.85
   6   7  -6    0.02    0.36
  -5  -7   5    0.84    0.84
   5   7  -5    2.17    0.59
  -4  -7   4    0.57    0.84
   4   7  -4    0.69    0.43
  -3  -7   3   29.46    2.10
   3   7  -3   27.00    1.42
  -2  -7   2    8.15    1.13
   2   7  -2    9.34    0.67
   2   7  -2    8.97    0.80
  -1  -7   1   10.53    1.09
   1   7  -1    7.45    0.77
   0  -7   0   51.05    2.26
   0   7   0   51.40    2.24
   1  -7  -1    0.82    0.34
  -1   7   1    1.72    0.65
  -2   7   2    0.49    0.62
  -3   7   3   15.56    1.42
  -4   7   4   -0.13    0.72
  -5   7   5    0.40    0.68
  -6   7   6    0.98    0.77
  -7   7   7    1.33    0.86
  -6  -8   6    0.03    0.87
   6   8  -6    0.38    0.45
  -5  -8   5    1.38    0.93
   5   8  -5    1.22    0.50
  -4  -8   4    0.21    0.73
   4   8  -4    0.00    0.37
  -3  -8   3    6.90    1.22
   3   8  -3   11.65    0.95
  -2  -8   2    6.09    1.01
   2   8  -2    6.36    0.75
  -1  -8   1   -0.18    0.50
   1   8  -1    0.01    0.42
   1   8  -1   -0.17    0.38
   0   8   0    2.89    0.56
   0   8   0    3.47    0.76
  -1   8   1    1.18    0.70
  -1   8   1    2.77    0.55
  -2   8   2   -0.97    0.59
  -3   8   3   26.26    1.90
  -4   8   4    0.98    0.71
  -5   8   5    2.19    0.95
  -6   8   6    1.66    0.90
  -5  -9   5   -0.87    0.73
   5   9  -5   -0.29    0.35
  -4  -9   4   -0.47    0.70
   4   9  -4    0.50    0.46
  -3  -9   3    7.17    1.21
   3   9  -3    9.96    0.91
   2   9  -2    2.66    0.58
   1   9  -1   -0.25    0.35
   1   9  -1   -0.15    0.45
   0   9   0    3.17    0.76
   0   9   0    4.27    0.67
  -1   9   1   12.03    1.30
  -1   9   1    8.83    0.88
  -2   9   2   -0.48    0.61
  -3   9   3    3.65    0.93
  -4   9   4    1.08    0.69
  -5   9   5   -0.46    0.62
  -6   9   6   -0.78    0.70
   5  10  -5    0.20    0.50
   4  10  -4    2.07    0.57
   3  10  -3    0.10    0.47
   2  10  -2    0.91    0.47
   1  10  -1    3.09    0.63
   0  10   0    2.91    0.76
   0  10   0    2.47    0.58
  -1  10   1   10.26    0.94
  -1  10   1   10.59    1.26
  -2  10   2   -0.34    0.60
  -2  10   2    0.20    0.43
  -3  10   3   10.82    1.41
  -4  10   4    0.98    0.74
  -5  10   5   -0.26    0.71
   4  11  -4    0.54    0.53
   3  11  -3   -0.38    0.39
   2  11  -2   -0.15    0.41
   1  11  -1    1.96    0.58
   0  11   0    0.65    0.49
   0  11   0    0.06    0.59
  -1  11   1    0.15    0.46
  -1  11   1    0.32    0.62
  -2  11   2    1.01    0.50
  -2  11   2    1.16    0.72
  -3  11   3    0.53    0.70
  -3  11   3    1.53    0.56
  -4  11   4    0.72    0.78
   3  12  -3    0.49    0.56
   2  12  -2    0.83    0.58
   1  12  -1   -0.92    0.36
   0  12   0    2.38    0.61
  -1  12   1    0.20    0.61
  -1  12   1   -0.18    0.42
  -2  12   2   -0.43    0.57
  -2  12   2    0.41    0.49
  -3  12   3    0.28    0.76
   1  13  -1    0.15    0.47
   0  13   0    0.13    0.48
  -1  13   1    0.25    0.50
  -2  13   2    0.94    0.77
  -2  13   2    0.34    0.55
  -2  13   3   -0.78    0.44
  -2  13   3    0.01    0.71
  -1  13   2    0.39    0.55
  -1  13   2    0.06    0.70
   0  13   1    0.11    0.48
   1  13   0    0.29    0.54
  -3  12   4    0.00    0.44
  -3  12   4    0.61    0.78
  -2  12   3    3.99    1.04
  -2  12   3    3.31    0.69
  -1  12   2    0.20    0.47
  -1  12   2   -0.25    0.63
   0  12   1    1.31    0.56
   1  12   0   -0.11    0.45
   2  12  -1    0.62    0.56
   3  12  -2   -0.22    0.53
  -4  11   5    0.29    0.77
  -3  11   4   -0.56    0.67
  -2  11   3    1.52    0.55
  -2  11   3    1.78    0.84
  -1  11   2    0.26    0.63
  -1  11   2   -0.39    0.44
   0  11   1    1.86    0.60
   0  11   1    2.75    0.76
   1  11   0   -0.13    0.43
   2  11  -1    0.29    0.48
   3  11  -2    0.36    0.52
   4  11  -3   -0.19    0.40
  -5  10   6   -0.09    0.71
  -4  10   5    2.10    0.90
  -3  10   4    9.67    1.39
  -2  10   3    2.69    0.91
  -1  10   2    1.19    0.53
  -1  10   2    1.95    0.77
   0  10   1    7.53    1.09
   0  10   1    9.12    0.91
   1  10   0    0.01    0.44
   2  10  -1    0.54    0.46
   3  10  -2    4.51    0.80
   4  10  -3   -0.38    0.42
   5  10  -4   -0.13    0.41
  -5   9   6    0.16    0.67
  -4   9   5    2.60    1.01
  -3   9   4   -0.33    0.65
  -2   9   3    1.01    0.71
  -1   9   2    6.81    1.07
  -1   9   2    7.61    0.84
   0   9   1   -0.07    0.41
   0   9   1    0.01    0.56
   1   9   0    0.81    0.48
   1   9   0    0.61    0.54
   2   9  -1    6.11    0.76
   3   9  -2   13.63    1.10
   4   9  -3   -0.83    0.34
  -4  -9   3    0.68    0.72
   5   9  -4   -0.15    0.42
  -5  -9   4    0.59    0.82
   6   9  -5    0.45    0.47
  -6  -9   5    0.31    0.86
  -6   8   7    1.19    0.87
  -5   8   6    1.20    0.83
  -4   8   5   -0.08    0.64
  -3   8   4    1.64    0.77
  -2   8   3   12.84    1.39
  -1   8   2    1.94    0.77
   0   8   1    3.28    0.77
   0   8   1    4.25    0.64
   1   8   0    2.96    0.59
   1   8   0    2.46    0.62
   2   8  -1    0.75    0.42
  -2  -8   1    0.89    0.58
   3   8  -2   -0.20    0.39
  -3  -8   2   -0.25    0.60
   4   8  -3   16.16    1.14
  -4  -8   3   11.65    1.58
   5   8  -4   -0.01    0.40
  -5  -8   4   -0.40    0.65
   6   8  -5   -0.55    0.38
  -6  -8   5    1.15    0.92
  -7   7   8    0.37    0.84
  -6   7   7    0.66    0.73
  -5   7   6    2.29    0.85
  -4   7   5   39.79    2.32
  -3   7   4    6.94    1.13
  -2   7   3   -0.48    0.63
  -1   7   2    6.73    1.01
   0   7   1    8.51    1.02
   0  -7  -1    8.44    0.61
   1   7   0    0.44    0.42
   1   7   0   -0.50    0.48
  -1  -7   0    0.11    0.50
   2   7  -1   27.47    1.29
   2   7  -1   26.11    1.35
  -2  -7   1   29.38    1.83
   3   7  -2    0.26    0.40
  -3  -7   2   -0.29    0.62
   4   7  -3    3.59    0.62
   5   7  -4   -0.05    0.37
  -5  -7   4   -0.35    0.61
   6   7  -5   -0.29    0.37
  -6  -7   5   -0.91    0.70
   7   7  -6    0.35    0.44
  -7  -7   6    0.78    0.94
  -7   6   8   -0.31    0.62
  -6   6   7   -0.14    0.66
  -5   6   6    9.09    1.26
  -4   6   5    0.27    0.65
  -3   6   4    2.71    0.46
  -3   6   4    3.09    0.92
  -2   6   3    4.16    0.95
  -1   6   2   18.42    1.52
   0   6   1    2.32    0.72
   0  -6  -1    2.98    0.41
   1   6   0    0.46    0.41
   1   6   0    0.19    0.51
  -1  -6   0    0.34    0.56
   2   6  -1    5.67    0.61
   2   6  -1    5.12    0.55
  -2  -6   1    4.12    0.89
   3   6  -2    0.37    0.38
  -3  -6   2   -0.23    0.62
   4   6  -3    3.44    0.57
  -4  -6   3   -0.19    0.67
   5   6  -4    0.59    0.42
  -5  -6   4   -0.39    0.70
   6   6  -5    0.54    0.41
  -6  -6   5    0.68    0.79
   7   6  -6    0.13    0.38
  -7  -6   6    0.14    0.85
  -7   5   8   -0.44    0.67
  -6   5   7    0.25    0.68
  -6   5   7    2.34    0.78
  -5   5   6    1.03    0.61
  -5   5   6    1.09    0.74
  -4   5   5    3.58    0.70
  -4   5   5    4.22    0.94
  -3   5   4    8.84    0.86
  -3   5   4    6.94    1.06
  -2   5   3    0.42    0.28
  -2   5   3    0.13    0.72
  -1   5   2    4.01    0.90
   0   5   1   93.55    3.45
   0  -5  -1   95.57    3.45
   1   5   0    0.79    0.42
   1   5   0    0.94    0.54
  -1  -5   0    0.81    0.62
   2   5  -1    4.87    0.55
   2   5  -1    3.58    0.48
  -2  -5   1    4.24    0.87
   3   5  -2   -0.04    0.38
  -3  -5   2   -0.41    0.62
   4   5  -3    0.52    0.38
  -4  -5   3   -0.58    0.64
   5   5  -4    0.24    0.36
  -5  -5   4   -0.49    0.71
   6   5  -5    1.11    0.46
  -6  -5   5    1.01    0.89
   7   5  -6    0.28    0.40
  -7  -5   6    0.25    0.84
  -7   4   8   -0.31    0.65
  -7   4   8    0.14    0.75
  -6   4   7   -0.19    0.65
  -6   4   7    0.29    0.61
  -5   4   6    4.16    0.90
  -5   4   6    3.48    0.87
  -4   4   5   -0.13    0.64
  -4   4   5   -0.54    0.48
  -3   4   4   10.25    1.05
  -3   4   4   11.03    1.22
  -2   4   3    8.86    0.80
  -2   4   3    9.94    1.16
  -1   4   2   14.89    1.27
   0   4   1   35.71    1.73
   0  -4  -1   36.29    1.44
   1   4   0    7.96    0.71
   1   4   0    8.45    0.76
  -1  -4   0    9.74    1.10
   2   4  -1    8.90    0.63
   2   4  -1    8.19    0.70
  -2  -4   1    7.55    1.07
   3   4  -2   26.38    1.24
  -3  -4   2   22.87    1.79
   4   4  -3   -0.08    0.34
  -4  -4   3   -0.04    0.71
   5   4  -4   -0.11    0.34
  -5  -4   4    0.46    0.73
   6   4  -5    1.22    0.43
  -6  -4   5   -0.29    0.73
   7   4  -6    0.19    0.35
  -7  -4   6    0.59    0.80
  -8   3   9    0.62    0.94
  -7   3   8    0.37    0.82
  -6   3   7    0.76    0.65
  -6   3   7    1.24    0.86
  -5   3   6    0.91    0.64
  -5   3   6   -0.30    0.65
  -4   3   5    1.18    0.69
  -4   3   5    1.04    0.69
  -3   3   4    0.04    0.53
  -3   3   4    3.39    0.75
  -2   3   3    2.67    0.65
  -2   3   3    3.35    0.86
  -1   3   2    1.22    0.33
  -1   3   2    0.72    0.77
   0   3   1   -0.09    0.62
   0  -3  -1   -0.11    0.32
   1   3   0    2.30    0.50
   1   3   0    1.67    0.45
  -1  -3   0    2.58    0.39
  -1  -3   0    1.45    0.74
   2   3  -1    0.23    0.26
   2   3  -1    0.16    0.36
  -2  -3   1    0.36    0.69
   4   3  -3    3.42    0.52
  -4  -3   3   -0.21    0.75
   5   3  -4    0.50    0.38
  -5  -3   4   -0.04    0.71
   6   3  -5    0.04    0.32
  -6  -3   5   -0.94    0.60
  -7  -3   6   -0.15    0.72
  -8  -3   7    0.52    0.87
  -8   2   9   -0.07    0.85
  -7   2   8    0.21    0.84
  -6   2   7    7.18    1.36
  -6   2   7   10.69    1.20
  -5   2   6    2.23    0.89
  -5   2   6    2.44    0.71
  -4   2   5    6.00    0.89
  -4   2   5    3.62    0.96
  -3   2   4    1.10    0.69
  -3   2   4    3.26    0.73
  -2   2   3    1.22    0.75
  -2   2   3    1.68    0.72
  -1   2   2    3.30    0.89
  -1   2   2    3.85    0.69
   0   2   1  177.63    6.11
   0   2   1  172.12    5.51
   0  -2  -1  176.68    5.44
   1   2   0    0.55    0.39
   1   2   0    0.15    0.44
  -1  -2   0    0.36    0.82
   2   2  -1  281.17    8.37
   2   2  -1  272.82    8.73
  -2  -2   1  289.32   10.32
   3   2  -2   84.84    2.77
   3   2  -2   88.72    2.98
   4   2  -3    0.53    0.33
  -4  -2   3    0.25    0.24
  -4  -2   3    0.05    0.78
   5   2  -4   -0.54    0.28
  -5  -2   4    0.35    0.74
  -6  -2   5   -0.13    0.64
  -7  -2   6    1.27    0.87
  -8  -2   7    1.49    1.02
  -8   1   9    0.56    0.87
  -7   1   8   -0.09    0.70
  -6   1   7   -0.81    0.58
  -5   1   6    0.53    0.85
  -5   1   6   -0.55    0.47
  -4   1   5    4.70    0.74
  -4   1   5    1.70    0.78
  -3   1   4   -0.42    0.67
  -3   1   4   -0.82    0.51
  -2   1   3    0.17    0.57
  -2   1   3    5.85    1.02
  -1   1   2    1.96    0.79
  -1   1   2    2.47    0.91
   1  -1  -2    2.32    0.55
   0   1   1    2.09    0.56
   0   1   1    1.37    0.20
   0   1   1    1.58    0.28
   0  -1  -1    1.51    0.36
   1   1   0  231.42    7.18
  -1  -1   0  234.61    7.16
   2   1  -1   70.17    2.28
   2   1  -1   69.07    2.32
  -2  -1   1   69.73    2.26
   3   1  -2   15.55    0.85
  -3  -1   2   16.10    0.86
  -3  -1   2   11.35    1.42
   4   1  -3    1.88    0.38
  -4  -1   3    0.46    0.77
  -4  -1   3    1.90    0.42
  -5  -1   4    9.42    1.43
  -5  -1   4    5.54    0.60
  -6  -1   5   -0.35    0.72
  -7  -1   6   -0.72    0.72
  -8  -1   7   -0.18    0.79
  -8   0   9    1.39    1.00
  -7   0   8   -0.43    0.69
  -6   0   7    3.90    1.15
  -5   0   6    1.33    0.92
  -5   0   6    3.28    0.63
  -4   0   5   26.93    1.38
  -3   0   4   49.90    2.05
  -3   0   4   52.33    2.85
  -2   0   3   82.32    3.83
  -2   0   3   91.96    3.00
  -1   0   2  631.94   18.67
   1   0  -2  626.16   18.65
   0   0   1   17.03    0.89
   1   0   0  192.48    5.71
   1   0   0  190.28    5.76
  -1   0   0  189.85    5.75
  -1   0   0  190.06    5.75
  -1   0   0  178.86    6.80
   2   0  -1    5.26    0.51
   2   0  -1    5.27    0.54
  -2   0   1    4.71    1.02
  -2   0   1    4.06    0.58
   3   0  -2   16.17    0.82
  -3   0   2   16.95    1.62
  -3   0   2   17.12    1.01
  -4   0   3    1.82    0.88
  -4   0   3    0.06    0.37
  -6   0   5   14.61    1.71
  -7   0   6    2.71    1.10
  -8   0   7    2.65    1.17
  -8  -1   9    0.42    0.96
  -7  -1   8    0.48    0.79
  -6  -1   7    0.42    0.82
  -5  -1   6    0.87    0.78
  -4  -1   5    0.09    0.37
  -4  -1   5    0.12    0.74
  -3  -1   4    9.35    0.82
  -3  -1   4    8.13    1.29
  -2  -1   3    2.56    1.11
  -2  -1   3    2.87    0.46
   2   1  -3    2.49    0.44
   2   1  -3    3.57    0.42
   0  -1   1    3.42    0.34
   0  -1   1    3.36    0.61
   0  -1   1    2.85    0.40
   0   1  -1    2.78    0.40
   0   1  -1    2.69    0.50
   1  -1   0   61.85    2.21
  -1   1   0   63.99    2.56
  -1   1   0   62.04    2.27
  -2   1   1    5.93    0.74
  -2   1   1    7.22    0.99
  -2   1   1    6.35    0.42
  -3   1   2   17.74    1.55
  -4   1   3    0.49    0.78
  -4   1   3   -0.08    0.44
  -5   1   4   -0.28    0.73
  -5   1   4    0.56    0.45
  -6   1   5   19.72    1.30
  -6   1   5   17.76    1.85
  -7   1   6    0.10    0.73
  -8   1   7    0.33    0.97
  -8  -2   9   -0.03    0.81
  -7  -2   8   -0.69    0.76
  -6  -2   7   -0.22    0.66
  -5  -2   6    0.19    0.80
  -4  -2   5   -0.37    0.27
  -4  -2   5    0.17    0.75
   4   2  -5   -0.12    0.36
  -3  -2   4    0.35    0.90
  -3  -2   4    0.40    0.27
   3   2  -4    0.31    0.36
  -2  -2   3    6.08    1.21
  -2  -2   3    6.00    0.52
   2   2  -3    5.89    0.59
  -1  -2   2   17.10    0.73
   1   2  -2   17.57    0.96
   0  -2   1  237.81    7.12
   0  -2   1  236.90    8.30
   0   2  -1  231.16    7.11
   0   2  -1  230.99    7.23
  -1   2   0  133.92    4.39
  -1   2   0  134.48    4.87
  -2   2   1   -0.24    0.65
  -2   2   1    0.39    0.68
  -3   2   2   23.52    1.49
  -3   2   2   30.36    1.80
  -4   2   3   -0.44    0.65
  -4   2   3   -0.06    0.50
  -5   2   4   16.13    1.22
  -6   2   5   -0.02    0.68
  -6   2   5    0.04    0.48
  -7   2   6    0.33    0.79
  -8   2   7   -0.35    0.75
  -7  -3   8    0.85    0.89
  -6  -3   7    1.61    0.97
  -5  -3   6    0.59    0.79
   5   3  -6    5.77    0.70
  -4  -3   5    0.33    0.82
   4   3  -5    0.70    0.38
  -3  -3   4   19.22    1.82
   3   3  -4   20.20    1.08
  -2  -3   3    0.78    0.99
   2   3  -3    0.36    0.42
  -1  -3   2   -0.13    0.32
  -1  -3   2   -0.21    0.86
   1   3  -2    0.29    0.40
   1   3  -2   -0.02    0.29
   0  -3   1    3.93    0.76
   0   3  -1    3.70    0.64
   0   3  -1    3.92    0.47
   1  -3   0    6.25    0.50
  -1   3   0    6.68    0.82
  -2   3   1    7.87    0.91
  -2   3   1    7.35    0.86
  -3   3   2  282.71   10.26
  -3   3   2  280.33    8.97
  -4   3   3    0.91    0.66
  -4   3   3    1.16    0.60
  -5   3   4   12.66    1.20
  -5   3   4   12.99    1.47
  -6   3   5    4.82    1.14
  -6   3   5    5.19    0.91
  -7   3   6    0.42    0.57
  -7   3   6   -0.77    0.69
  -8   3   7    0.66    0.84
  -7  -4   8    0.72    1.02
  -6  -4   7    0.53    0.90
  -5  -4   6    3.00    1.11
   5   4  -6    3.20    0.56
  -4  -4   5    4.83    1.16
   4   4  -5    9.18    0.83
  -3  -4   4    0.45    0.75
   3   4  -4    1.10    0.43
  -2  -4   3    0.22    0.87
   2   4  -3   -0.22    0.36
  -1  -4   2   18.06    1.62
  -1  -4   2   17.01    0.90
   1   4  -2   16.34    0.84
   1   4  -2   16.90    0.94
   0   4  -1   10.06    0.93
   0   4  -1    6.08    0.57
   1  -4   0    1.56    0.33
  -1   4   0    0.72    0.64
  -2   4   1    9.04    1.02
  -2   4   1    7.20    0.75
  -3   4   2    9.24    1.01
  -3   4   2   11.95    1.12
  -4   4   3    0.15    0.54
  -4   4   3    5.77    0.85
  -5   4   4    9.84    1.25
  -5   4   4   11.29    1.26
  -6   4   5    2.38    0.75
  -6   4   5    1.48    0.77
  -7   4   6    0.09    0.72
  -7   4   6    0.45    0.61
  -8   4   7   -0.36    0.78
  -7  -5   8   -0.04    0.89
  -6  -5   7    0.26    0.86
   6   5  -7    0.79    0.46
  -5  -5   6   -0.42    0.82
   5   5  -6    0.25    0.36
  -4  -5   5   -0.63    0.76
   4   5  -5   -0.08    0.40
  -3  -5   4    0.03    0.73
   3   5  -4    0.10    0.37
  -2  -5   3   23.58    0.89
   2   5  -3   21.30    1.14
   1   5  -2   23.70    1.15
   1   5  -2   23.91    1.08
   0  -5   1  133.98    5.07
   0   5  -1  129.00    4.38
   1  -5   0    0.22    0.38
  -1   5   0   -0.47    0.56
  -1   5   0    0.08    0.35
   2  -5  -1   46.90    1.78
  -2   5   1   45.16    2.21
  -3   5   2    1.83    0.49
  -3   5   2    2.03    0.71
  -4   5   3    1.01    0.52
  -4   5   3    0.96    0.67
  -5   5   4    0.85    0.57
  -5   5   4    0.90    0.70
  -6   5   5   -0.41    0.52
  -6   5   5   -0.12    0.60
  -7   5   6    0.83    0.69
  -7   5   6    1.89    0.85
  -7  -6   8   -0.45    0.85
  -6  -6   7    0.35    0.91
   6   6  -7   -0.09    0.34
  -5  -6   6    0.23    0.85
   5   6  -6    0.15    0.40
  -4  -6   5    2.96    1.03
   4   6  -5    2.21    0.53
  -3  -6   4    2.36    0.93
   3   6  -4    1.83    0.49
   2   6  -3   13.99    0.95
   2   6  -3   13.24    0.65
  -1  -6   2   27.10    1.80
   1   6  -2   27.55    1.28
   1   6  -2   25.85    1.24
   0  -6   1   10.74    1.18
   0   6  -1   12.17    0.85
   0   6  -1   11.68    1.06
   1  -6   0   11.18    0.91
  -1   6   0   11.74    0.77
  -1   6   0   10.79    1.07
   2  -6  -1    1.93    0.33
  -2   6   1    2.16    0.70
  -3   6   2    0.25    0.35
  -3   6   2    0.01    0.57
  -4   6   3    6.05    1.02
  -4   6   3    7.72    0.85
  -5   6   4    0.20    0.66
  -5   6   4    0.57    0.47
  -6   6   5    1.22    0.73
  -7   6   6   -0.18    0.60
  -6  -7   7   -0.99    0.67
   6   7  -7    0.16    0.36
  -5  -7   6    0.38    0.83
   5   7  -6   -0.29    0.37
  -4  -7   5    4.49    1.17
   4   7  -5    3.28    0.62
  -3  -7   4   17.38    1.74
   3   7  -4   15.39    1.05
  -2  -7   3    0.92    0.75
   2   7  -3    0.69    0.43
   2   7  -3    0.43    0.25
  -1  -7   2   13.90    1.43
   1   7  -2   14.44    0.96
   0  -7   1   10.26    1.08
   0   7  -1   11.81    1.02
   1  -7   0    0.26    0.53
  -1   7   0    0.13    0.37
  -1   7   0    0.40    0.60
   2  -7  -1    1.42    0.43
  -2   7   1    2.03    0.73
  -3   7   2    2.13    0.79
  -4   7   3   21.64    1.75
  -5   7   4    4.22    0.98
  -6   7   5   -0.32    0.62
  -7   7   6    1.02    0.80
  -6  -8   7    0.35    0.84
   6   8  -7    0.28    0.42
  -5  -8   6    0.23    0.81
   5   8  -6    0.15    0.47
  -4  -8   5    3.07    1.08
   4   8  -5    3.65    0.66
  -3  -8   4    1.43    0.87
   3   8  -4    1.80    0.51
  -2  -8   3    2.39    0.84
   2   8  -3    2.34    0.55
  -1  -8   2    4.29    0.90
   1   8  -2    3.65    0.62
   1   8  -2    3.84    0.60
   0   8  -1    4.22    0.61
   0   8  -1    4.05    0.74
  -1   8   0    0.64    0.43
  -1   8   0    0.27    0.61
  -2   8   1   10.78    1.28
  -2   8   1   12.13    0.90
  -3   8   2   87.27    3.78
  -4   8   3    3.63    0.92
  -5   8   4    0.61    0.67
  -6   8   5    0.30    0.72
  -5  -9   6    1.15    0.91
   5   9  -6    1.08    0.54
  -4  -9   5   -0.18    0.75
   4   9  -5    0.39    0.44
  -3  -9   4    2.71    0.97
   3   9  -4    4.02    0.67
  -2  -9   3    1.94    0.75
   2   9  -3    2.53    0.57
   1   9  -2    1.43    0.51
   1   9  -2    1.50    0.49
   0   9  -1    2.69    0.54
   0   9  -1    4.38    0.79
  -1   9   0    0.83    0.65
  -1   9   0    0.21    0.43
  -2   9   1   14.51    1.38
  -2   9   1   14.76    1.03
  -3   9   2    0.78    0.74
  -4   9   3    1.77    0.85
  -5   9   4    0.55    0.70
  -6   9   5    1.15    0.74
  -5 -10   6    0.86    0.98
  -4 -10   5   -0.05    0.81
   4  10  -5    0.09    0.47
   3  10  -4    0.95    0.50
   2  10  -3   -0.14    0.45
   1  10  -2    1.69    0.55
   0  10  -1   15.82    1.32
   0  10  -1   14.02    1.05
  -1  10   0    1.71    0.72
  -1  10   0    3.34    0.64
  -2  10   1   17.29    1.55
  -2  10   1   14.94    1.08
  -3  10   2   10.33    0.91
  -3  10   2   10.92    1.42
  -4  10   3   -0.73    0.62
  -5  10   4    0.24    0.70
   4  11  -5    0.26    0.49
   3  11  -4   -0.13    0.47
   2  11  -3    0.53    0.51
   1  11  -2    0.64    0.49
   0  11  -1    1.91    0.65
   0  11  -1    2.67    0.58
  -1  11   0    7.10    1.09
  -1  11   0    6.65    0.82
  -2  11   1   -0.15    0.63
  -2  11   1    0.00    0.41
  -3  11   2    2.74    0.93
  -4  11   3    1.16    0.84
   3  12  -4    0.58    0.57
   2  12  -3    0.12    0.52
   1  12  -2   -0.10    0.48
   0  12  -1    0.56    0.51
  -1  12   0    0.75    0.50
  -1  12   0    0.90    0.64
  -2  12   1    0.19    0.47
  -2  12   1    0.15    0.64
  -3  12   2    0.06    0.69
  -4  12   3    0.87    0.74
   1  13  -2    0.23    0.57
   0  13  -1    0.07    0.52
  -1  13   0    0.37    0.45
  -2  13   1    0.94    0.77
  -3  13   2    0.70    0.77
  -2  13   4   -0.16    0.49
  -2  13   4    0.25    0.78
  -1  13   3    0.83    0.59
  -1  13   3    0.22    0.72
   0  13   2   -0.11    0.54
   1  13   1    0.67    0.55
  -3  12   5    3.69    1.10
  -2  12   4    0.24    0.71
  -2  12   4    1.56    0.59
  -1  12   3    2.80    0.68
  -1  12   3    3.80    0.96
   0  12   2   -0.53    0.39
   1  12   1    0.11    0.48
   2  12   0   -0.01    0.48
   3  12  -1   -0.45    0.43
  -4  11   6    1.03    0.83
  -3  11   5    2.74    0.93
  -2  11   4    1.29    0.79
  -1  11   3    0.02    0.43
  -1  11   3    0.04    0.62
   0  11   2    1.14    0.67
   0  11   2    0.63    0.48
   1  11   1    0.17    0.44
   2  11   0    0.27    0.43
   3  11  -1    0.69    0.49
   4  11  -2    0.13    0.48
  -4  10   6   -0.25    0.67
  -3  10   5    0.74    0.75
  -2  10   4    1.14    0.78
  -1  10   3    1.06    0.75
   0  10   2    1.20    0.51
   0  10   2    1.66    0.73
   1  10   1    0.40    0.47
   1  10   1    0.08    0.53
   2  10   0    2.36    0.62
   3  10  -1    2.58    0.61
   4  10  -2    0.18    0.45
   5  10  -3   -0.26    0.43
  -5   9   7    0.41    0.79
  -4   9   6    0.25    0.66
  -3   9   5    7.47    1.25
  -2   9   4    7.89    1.26
  -1   9   3    0.04    0.69
   0   9   2    1.53    0.75
   0   9   2    1.49    0.57
   1   9   1    3.18    0.74
   1   9   1    2.51    0.57
   2   9   0    5.29    0.75
   3   9  -1    0.25    0.41
   4   9  -2    0.96    0.53
   5   9  -3   -0.46    0.39
  -5  -9   3    0.33    0.80
   6   9  -4    0.82    0.53
  -6  -9   4   -0.75    0.70
  -6   8   8    0.60    0.74
  -5   8   7    0.08    0.66
  -4   8   6    0.22    0.69
  -3   8   5    0.61    0.78
  -2   8   4    6.69    1.17
  -1   8   3    0.03    0.73
   0   8   2    3.03    0.83
   1   8   1   -0.04    0.42
   1   8   1    0.16    0.57
   2   8   0   12.53    1.04
   2   8   0   13.76    1.05
  -2  -8   0   10.72    1.10
   3   8  -1    5.60    0.72
  -3  -8   1    4.53    0.91
   4   8  -2    0.06    0.41
  -4  -8   2   -0.15    0.68
   5   8  -3    0.29    0.41
  -5  -8   3    0.79    0.82
   6   8  -4   -0.13    0.39
  -6  -8   4    0.53    0.89
  -6   7   8    1.79    0.85
  -5   7   7    2.39    0.87
  -4   7   6   10.80    1.40
  -3   7   5    5.92    1.18
  -2   7   4    7.48    1.15
  -1   7   3    2.79    0.83
   0   7   2   19.28    1.51
   1   7   1    8.38    0.81
   1   7   1    8.77    0.98
  -1  -7  -1    8.95    0.82
   2   7   0    0.57    0.40
   2   7   0    0.23    0.46
  -2  -7   0    0.12    0.54
   3   7  -1    7.49    0.77
  -3  -7   1    7.33    1.09
   4   7  -2    0.99    0.44
  -4  -7   2    0.82    0.71
   5   7  -3   -0.11    0.36
  -5  -7   3    0.21    0.74
   6   7  -4    0.89    0.50
  -6  -7   4    0.14    0.80
   7   7  -5   -0.34    0.37
  -7  -7   5    0.08    0.85
  -7   6   9    0.38    0.80
  -6   6   8    1.38    0.84
  -5   6   7    4.16    1.04
  -4   6   6   22.49    1.83
  -3   6   5    2.42    0.87
  -2   6   4    6.61    1.05
  -1   6   3    9.16    1.11
   0   6   2   -0.05    0.59
   1   6   1    6.37    0.69
   1   6   1    5.99    0.81
  -1  -6  -1    6.94    0.77
   2   6   0    3.25    0.57
   2   6   0    2.92    0.53
  -2  -6   0    3.72    0.76
   3   6  -1    0.25    0.36
   3   6  -1   -0.06    0.33
  -3  -6   1   -0.52    0.57
   4   6  -2   -0.03    0.35
  -4  -6   2   -0.07    0.69
   5   6  -3   -0.29    0.35
  -5  -6   3    0.37    0.75
   6   6  -4    0.33    0.37
  -6  -6   4    0.16    0.80
   7   6  -5    0.03    0.40
  -7  -6   5    0.31    0.82
  -7   5   9    0.79    0.77
  -6   5   8    4.90    1.04
  -5   5   7    6.86    1.14
  -5   5   7    5.60    1.00
  -4   5   6    3.07    0.70
  -4   5   6    2.77    0.90
  -3   5   5   19.19    1.23
  -3   5   5   18.54    1.55
  -2   5   4    1.26    0.76
  -1   5   3    5.04    0.93
   0   5   2   61.79    2.57
   1   5   1   28.23    1.47
   1   5   1   27.29    1.30
  -1  -5  -1   27.00    1.45
   2   5   0    2.55    0.51
   2   5   0    1.48    0.47
  -2  -5   0    1.79    0.66
   3   5  -1    2.24    0.47
   3   5  -1    2.18    0.39
  -3  -5   1    2.26    0.80
   4   5  -2    1.65    0.46
  -4  -5   2    0.97    0.75
   5   5  -3    0.06    0.36
  -5  -5   3    0.85    0.73
   6   5  -4    1.13    0.45
  -6  -5   4    1.33    0.87
   7   5  -5   -0.04    0.35
  -7  -5   5    0.30    0.79
  -7   4   9    1.27    0.95
  -6   4   8    1.31    0.77
  -6   4   8    1.57    0.79
  -5   4   7   11.15    1.36
  -5   4   7    7.83    1.24
  -4   4   6    0.24    0.67
  -4   4   6    0.44    0.58
  -2   4   4    1.24    0.51
  -2   4   4    0.93    0.71
  -1   4   3  125.39    4.40
  -1   4   3  124.05    4.41
   0   4   2   85.81    3.02
   0   4   2   87.90    3.19
   1   4   1    0.13    0.51
  -1  -4  -1    0.17    0.52
   2   4   0    3.32    0.46
   2   4   0    3.58    0.52
  -2  -4   0    1.69    0.73
   3   4  -1   14.60    0.67
   3   4  -1   15.00    0.71
   3   4  -1   15.73    0.89
  -3  -4   1   11.44    1.34
   4   4  -2    1.57    0.42
  -4  -4   2    1.00    0.78
   5   4  -3    0.20    0.38
  -5  -4   3   -0.31    0.67
   6   4  -4    4.90    0.67
  -6  -4   4    4.97    1.22
   7   4  -5    0.30    0.36
  -7  -4   5    0.28    0.83
  -8  -4   6    0.37    0.81
  -7   3   9   -0.19    0.69
  -6   3   8    3.74    0.91
  -6   3   8    1.82    0.92
  -5   3   7    0.45    0.66
  -5   3   7    0.09    0.69
  -4   3   6   -0.14    0.63
  -4   3   6   -0.02    0.67
  -3   3   5   12.79    1.24
  -3   3   5   13.62    1.33
  -2   3   4   19.58    1.47
  -2   3   4   21.77    1.52
  -1   3   3   36.42    1.67
  -1   3   3   36.02    1.79
   0   3   2    7.64    0.40
   0   3   2    7.91    0.86
   1   3   1   32.69    1.43
  -1  -3  -1   35.32    1.72
   2   3   0    3.03    0.42
   2   3   0    2.51    0.45
   3   3  -1   15.14    0.75
   3   3  -1   15.87    0.91
   4   3  -2    2.24    0.45
   4   3  -2    2.19    0.34
  -4  -3   2   -0.28    0.66
   5   3  -3    1.23    0.40
  -5  -3   3    0.71    0.82
   6   3  -4    2.17    0.47
  -6  -3   4    0.79    0.90
   7   3  -5    0.04    0.34
  -7  -3   5   -0.35    0.76
  -8  -3   6    1.17    0.92
  -7   2   9    0.17    0.75
  -6   2   8    6.12    1.01
  -6   2   8    4.55    1.20
  -5   2   7    4.22    1.07
  -5   2   7    8.63    1.08
  -4   2   6    8.90    1.09
  -4   2   6    9.71    1.33
  -3   2   5    0.01    0.72
  -3   2   5    0.15    0.60
  -2   2   4    1.20    0.79
  -2   2   4    1.41    0.73
  -1   2   3    5.88    0.88
  -1   2   3    6.60    0.84
   0   2   2  520.54   17.48
   0   2   2  487.37   15.13
   2   2   0   43.28    1.62
   2   2   0   44.27    1.56
  -2  -2   0   44.08    2.27
   3   2  -1   39.08    1.49
   3   2  -1   38.88    1.55
  -3  -2   1   46.03    2.40
   4   2  -2   -0.29    0.29
  -4  -2   2    0.17    0.76
   5   2  -3    0.62    0.34
  -5  -2   3    0.06    0.71
   6   2  -4    8.03    0.73
  -6  -2   4    5.85    1.29
  -7  -2   5   -0.45    0.67
  -8  -2   6    2.15    1.06
  -7   1   9   -0.39    0.72
  -6   1   8    0.50    0.79
  -5   1   7   11.83    1.18
  -4   1   6   -0.26    0.73
  -4   1   6    0.13    0.55
  -3   1   5   29.07    2.05
  -3   1   5   26.56    1.53
  -2   1   4    0.25    0.48
  -2   1   4    0.52    0.82
  -1   1   3    5.44    0.73
  -1   1   3    5.19    0.97
   0   1   2    8.87    0.80
   0   1   2    8.19    0.65
  -1  -1  -1   58.76    2.59
   2   1   0    3.12    0.42
   2   1   0    2.17    0.36
  -2  -1   0    3.52    0.95
   3   1  -1    7.77    0.61
  -3  -1   1    7.08    1.14
  -3  -1   1    7.62    0.62
   4   1  -2   12.79    0.75
  -4  -1   2   12.87    0.80
   5   1  -3    6.38    0.61
  -5  -1   3    7.62    0.66
  -5  -1   3    5.93    1.18
  -6  -1   4   17.17    1.82
  -7  -1   5   -0.52    0.75
  -8  -1   6    0.90    0.93
  -7   0   9   -0.11    0.87
  -6   0   8    0.34    0.76
  -5   0   7   -0.66    0.44
  -5   0   7   -0.76    0.73
  -4   0   6    8.23    1.33
  -4   0   6    8.14    0.88
  -3   0   5    0.83    0.46
  -1   0   3   84.66    2.84
   0   0   2   75.64    2.86
   1   0   1  276.63    8.44
  -1   0  -1  281.45    9.89
   2   0   0    3.66    0.34
  -2   0   0    3.88    0.95
  -2   0   0    4.20    0.34
   3   0  -1    1.34    0.30
  -3   0   1    0.60    0.81
  -3   0   1    0.43    0.45
   4   0  -2    4.02    0.43
  -4   0   2    3.38    0.56
  -4   0   2    4.31    1.05
  -5   0   3    0.11    0.71
  -5   0   3   -0.02    0.35
  -6   0   4    7.80    1.43
  -7   0   5    1.98    0.98
  -8   0   6    0.04    0.87
  -7  -1   9    0.13    0.87
  -6  -1   8   -0.47    0.64
  -5  -1   7    0.20    0.79
  -4  -1   6    5.60    1.21
  -3  -1   5    1.65    0.93
  -3  -1   5    8.60    0.81
  -2  -1   4    0.24    0.96
  -2  -1   4    1.37    0.41
  -1  -1   3 1000.00   34.84
   0  -1   2   33.57    1.63
   1  -1   1    3.52    0.25
  -1   1  -1    3.28    0.70
  -1   1  -1    4.07    0.72
  -2   1   0   23.53    1.26
  -2   1   0   23.06    0.80
  -2   1   0   22.87    1.55
  -3   1   1   -0.09    0.48
  -3   1   1   -0.38    0.72
  -4   1   2    2.07    0.79
  -4   1   2    2.89    0.57
  -5   1   3   27.28    1.46
  -5   1   3   29.98    2.14
  -6   1   4   21.00    1.34
  -6   1   4   19.81    1.97
  -7   1   5    0.26    0.78
  -8   1   6    0.68    0.92
  -7  -2   9    0.01    0.85
  -6  -2   8    1.37    1.00
  -5  -2   7   -0.71    0.62
  -4  -2   6    1.67    0.96
  -4  -2   6    1.88    0.44
  -3  -2   5    5.31    0.55
   3   2  -5    5.35    0.64
  -2  -2   4    7.00    0.58
  -2  -2   4    4.51    1.13
   2   2  -4    6.77    0.67
  -1  -2   3    0.36    0.98
   1   2  -3    0.72    0.42
   0  -2   2   61.01    2.52
   0  -2   2   61.48    2.11
   0   2  -2   60.26    2.14
   0   2  -2   59.96    2.09
   1  -2   1   25.96    1.12
   1  -2   1   25.94    0.91
  -1   2  -1   24.79    1.39
  -2   2   0   91.57    3.68
  -2   2   0   91.56    3.28
  -4   2   2   22.83    1.69
  -4   2   2   23.04    1.32
  -5   2   3    0.07    0.72
  -5   2   3    0.20    0.48
  -6   2   4    4.71    0.79
  -6   2   4    3.75    1.09
  -7   2   5    0.57    0.82
  -8   2   6    0.17    0.82
  -7  -3   9    1.19    0.96
  -6  -3   8    2.81    1.12
  -5  -3   7    0.27    0.89
  -4  -3   6   15.51    1.77
   4   3  -6   14.13    0.97
  -3  -3   5   29.42    1.11
  -3  -3   5   25.73    2.20
   3   3  -5   29.77    1.39
  -2  -3   4   62.47    2.06
  -2  -3   4   65.25    2.07
  -2  -3   4   66.04    3.30
   2   3  -4   62.79    2.36
  -1  -3   3   29.58    2.07
  -1  -3   3   29.37    1.19
   1   3  -3   29.13    1.29
   0  -3   2    0.61    0.55
   0   3  -2    1.86    0.51
   0   3  -2    0.10    0.33
   1  -3   1    6.56    0.59
  -1   3  -1    6.38    0.83
  -1   3  -1    6.93    0.53
  -2   3   0   21.05    1.37
  -2   3   0   23.05    1.36
  -3   3   1    9.09    1.00
  -3   3   1    8.84    0.96
  -4   3   2    2.98    0.72
  -4   3   2    3.17    0.75
  -5   3   3    6.65    1.11
  -5   3   3    6.30    0.91
  -6   3   4    0.28    0.53
  -6   3   4    0.61    0.74
  -7   3   5    0.73    0.76
  -7   3   5    1.10    0.60
  -8   3   6    0.46    0.78
  -7  -4   9    1.06    1.04
  -6  -4   8    0.11    0.79
  -5  -4   7    1.65    1.03
   5   4  -7    0.90    0.44
  -4  -4   6   10.00    1.57
   4   4  -6    7.54    0.79
  -3  -4   5    0.37    0.86
   3   4  -5    0.83    0.43
  -2  -4   4   -0.34    0.71
  -2  -4   4   -0.15    0.23
   2   4  -4    0.24    0.38
  -1  -4   3   -0.21    0.93
   1   4  -3    0.10    0.32
   1   4  -3    0.69    0.40
   0  -4   2   13.02    1.25
   0   4  -2   12.19    0.98
   1  -4   1    5.36    0.59
  -1   4  -1    5.39    0.80
  -1   4  -1    4.61    0.45
   2  -4   0    9.76    0.62
  -2   4   0    8.50    0.89
  -2   4   0    8.66    0.97
  -3   4   1    1.22    0.55
  -3   4   1    1.07    0.69
  -4   4   2    1.77    0.57
  -4   4   2    0.40    0.50
  -5   4   3    2.38    0.75
  -5   4   3    2.61    0.74
  -6   4   4    0.21    0.63
  -6   4   4   -0.25    0.50
  -7   4   5    1.22    0.64
  -7   4   5    0.70    0.75
  -8   4   6    0.28    0.80
  -7  -5   9    0.58    0.91
  -6  -5   8    0.24    0.90
  -5  -5   7    0.38    0.90
   5   5  -7    1.16    0.44
  -4  -5   6    2.43    1.07
   4   5  -6    2.38    0.53
  -3  -5   5   -0.27    0.81
   3   5  -5   -0.07    0.39
  -2  -5   4    2.86    0.98
  -2  -5   4    5.50    0.53
   2   5  -4    5.73    0.67
  -1  -5   3   22.87    1.78
   1   5  -3   23.63    1.16
   1   5  -3   23.79    1.05
   0  -5   2    7.82    0.95
   0   5  -2    8.22    0.76
   0   5  -2    8.98    0.74
   1  -5   1    7.40    0.79
  -1   5  -1    7.91    0.89
   2  -5   0    3.95    0.45
  -2   5   0    3.75    0.43
  -2   5   0    3.73    0.79
  -3   5   1    5.59    0.89
  -3   5   1    5.92    0.72
  -4   5   2    5.42    0.79
  -4   5   2    5.23    0.94
  -5   5   3    4.47    0.91
  -5   5   3    3.93    0.80
  -6   5   4    5.85    1.08
  -6   5   4    8.04    1.18
  -7   5   5    0.43    0.65
  -7   5   5   -0.09    0.56
  -8   5   6    0.00    0.71
  -6  -6   8    0.24    0.85
   6   6  -8    0.07    0.38
  -5  -6   7   -0.17    0.73
   5   6  -7    0.03    0.37
  -4  -6   6    1.35    0.97
   4   6  -6    2.14    0.55
  -3  -6   5    5.03    1.24
   3   6  -5    5.04    0.67
  -2  -6   4    2.09    0.98
   2   6  -4    3.90    0.58
  -1  -6   3   -1.23    0.71
   1   6  -3   -0.13    0.27
   1   6  -3    0.01    0.30
   0  -6   2   15.97    1.44
   0   6  -2   21.42    1.18
   0   6  -2   21.18    1.06
   1  -6   1   13.23    1.01
  -1   6  -1   13.06    1.14
  -1   6  -1   12.26    0.80
   2  -6   0    0.12    0.29
  -2   6   0    0.12    0.57
  -2   6   0   -0.07    0.32
   3  -6  -1    2.13    0.37
  -3   6   1    2.03    0.77
  -4   6   2    3.31    0.82
  -4   6   2    3.78    0.64
  -5   6   3    3.44    0.71
  -5   6   3    4.18    0.90
  -6   6   4    7.94    1.20
  -6   6   4    9.10    1.20
  -7   6   5   -0.34    0.60
  -8   6   6    1.47    0.75
  -6  -7   8    0.04    0.92
   6   7  -8    0.51    0.44
  -5  -7   7    0.60    0.91
   5   7  -7   -0.20    0.33
  -4  -7   6    1.40    0.94
   4   7  -6    1.93    0.53
  -3  -7   5    1.53    0.98
   3   7  -5    2.98    0.59
  -2  -7   4   -0.08    0.75
   2   7  -4   -0.28    0.36
  -1  -7   3    2.14    0.86
   1   7  -3    2.10    0.45
   1   7  -3    1.34    0.47
   0  -7   2   25.31    1.74
   0   7  -2   24.91    1.26
   0   7  -2   26.85    1.40
   1  -7   1    0.48    0.43
  -1   7  -1   -0.12    0.33
  -1   7  -1    0.12    0.54
   2  -7   0    6.14    0.63
  -2   7   0    6.76    0.68
  -2   7   0    6.40    0.99
   3  -7  -1    3.31    0.45
  -3   7   1    3.07    0.82
  -4   7   2    8.77    0.83
  -4   7   2    8.22    1.18
  -5   7   3    1.33    0.69
  -6   7   4   -0.12    0.63
  -7   7   5    0.48    0.71
  -6  -8   8   -0.78    0.93
  -5  -8   7   -0.27    0.78
   5   8  -7    0.57    0.46
  -4  -8   6   -0.39    0.78
   4   8  -6    0.12    0.37
  -3  -8   5    2.69    1.06
   3   8  -5    2.60    0.59
  -2  -8   4    1.91    0.96
   2   8  -4    2.03    0.54
  -1  -8   3   13.98    1.46
   1   8  -3   14.02    0.95
   1   8  -3   13.52    0.96
   0  -8   2   -0.14    0.71
   0   8  -2    0.59    0.49
   0   8  -2    0.03    0.38
   1  -8   1    0.04    0.60
  -1   8  -1    2.38    0.69
  -1   8  -1    2.56    0.49
  -2   8   0   24.79    1.26
  -2   8   0   25.22    1.66
  -3   8   1   28.94    1.36
  -3   8   1   28.80    1.89
  -4   8   2    0.23    0.60
  -5   8   3    0.51    0.69
  -6   8   4   -0.19    0.58
  -7   8   5    0.79    0.82
  -5  -9   7    0.29    0.95
   5   9  -7    0.05    0.44
  -4  -9   6    0.28    0.86
   4   9  -6    0.56    0.51
  -3  -9   5    0.82    0.85
   3   9  -5    1.17    0.52
  -2  -9   4    1.65    0.87
   2   9  -4    1.15    0.47
  -1  -9   3    0.71    0.70
   1   9  -3    0.82    0.45
   0   9  -2    2.96    0.65
   0   9  -2    2.92    0.57
  -1   9  -1    1.16    0.44
  -1   9  -1    1.15    0.60
  -2   9   0   20.88    1.23
  -2   9   0   20.46    1.56
  -3   9   1    4.52    0.96
  -3   9   1    4.75    0.65
  -4   9   2   11.32    1.45
  -5   9   3   -0.07    0.59
  -6   9   4    0.15    0.63
  -4 -10   6    1.30    0.98
   4  10  -6    2.82    0.68
  -3 -10   5    0.55    0.84
   3  10  -5    0.49    0.53
   2  10  -4   -0.13    0.38
   1  10  -3    2.11    0.56
   0  10  -2    1.84    0.61
   0  10  -2    1.11    0.50
  -1  10  -1    3.15    0.78
  -1  10  -1    2.46    0.55
  -2  10   0    4.54    0.96
  -2  10   0    5.37    0.73
  -3  10   1   -0.07    0.62
  -4  10   2    0.95    0.66
  -5  10   3   -0.74    0.50
   3  11  -5    0.20    0.52
   2  11  -4    0.06    0.47
   1  11  -3    1.77    0.57
   0  11  -2   -0.11    0.40
  -1  11  -1    0.44    0.54
  -1  11  -1   -0.01    0.39
  -2  11   0    1.73    0.53
  -2  11   0    0.48    0.61
  -3  11   1    0.09    0.67
  -4  11   2   -0.72    0.62
  -5  11   3    0.80    0.73
   2  12  -4    0.43    0.54
   1  12  -3   -0.22    0.43
   0  12  -2    0.98    0.52
  -1  12  -1    0.18    0.45
  -1  12  -1   -0.07    0.53
  -2  12   0    0.80    0.67
  -3  12   1    0.28    0.61
  -4  12   2   -0.43    0.66
   1  13  -3    0.09    0.58
   0  13  -2   -0.42    0.47
  -1  13  -1    0.15    0.47
  -2  13   0    0.60    0.66
  -3  13   1    2.33    0.91
  -1  13   4    0.17    0.51
  -1  13   4    0.50    0.74
   0  13   3    0.31    0.58
   1  13   2   -0.06    0.51
  -2  12   5    0.80    0.80
  -1  12   4    0.38    0.69
  -1  12   4   -0.20    0.44
   0  12   3   -0.37    0.46
   0  12   3   -0.11    0.61
   1  12   2   -0.40    0.43
   2  12   1   -0.51    0.44
   3  12   0   -0.52    0.47
  -3  11   6    3.25    1.02
  -2  11   5    1.35    0.87
  -1  11   4   -0.61    0.65
   0  11   3   -0.27    0.42
   0  11   3   -0.26    0.62
   1  11   2    0.09    0.44
   2  11   1    1.09    0.56
   3  11   0    1.52    0.52
   4  11  -1   -0.09    0.51
  -4  10   7    0.41    0.70
  -3  10   6    0.46    0.79
  -2  10   5   -0.19    0.65
  -1  10   4    0.94    0.72
   0  10   3    1.19    0.80
   0  10   3    1.69    0.58
   1  10   2   -0.03    0.60
   1  10   2   -0.81    0.38
   2  10   1   -0.05    0.42
   3  10   0    0.21    0.40
   4  10  -1    1.61    0.58
   5  10  -2    0.21    0.49
  -5   9   8    0.31    0.81
  -4   9   7    0.62    0.77
  -3   9   6   -0.18    0.77
  -2   9   5   -0.44    0.72
  -1   9   4    5.30    1.11
   0   9   3    0.81    0.73
   1   9   2    0.14    0.62
   1   9   2    0.74    0.47
   2   9   1    1.57    0.53
   3   9   0    4.83    0.70
   4   9  -1    1.13    0.49
   5   9  -2    0.10    0.45
   6   9  -3    0.50    0.49
  -6  -9   3    0.85    0.90
  -5   8   8    1.72    0.92
  -4   8   7   -0.49    0.83
  -3   8   6   -0.01    0.78
  -2   8   5    2.56    0.92
  -1   8   4   -0.16    0.74
   0   8   3    4.85    0.97
   1   8   2   14.36    1.40
   1   8   2   16.28    1.16
   2   8   1    2.91    0.59
   2   8   1    2.75    0.69
   3   8   0   12.87    0.98
  -3  -8   0    9.46    1.23
   4   8  -1   -0.47    0.35
  -4  -8   1    0.08    0.70
   5   8  -2    0.35    0.41
  -5  -8   2    0.23    0.76
   6   8  -3    0.22    0.44
  -6  -8   3    0.55    0.88
  -6   7   9   -0.77    0.67
  -5   7   8    0.28    0.77
  -4   7   7    0.04    0.72
  -3   7   6   33.64    2.19
  -2   7   5    0.95    0.77
  -1   7   4    0.60    0.78
   0   7   3    0.40    0.66
   1   7   2   18.38    1.19
   1   7   2   18.81    1.40
  -1  -7  -2   19.19    1.05
   2   7   1   -0.41    0.50
   2   7   1    0.28    0.39
  -2  -7  -1    0.10    0.48
   3   7   0   19.04    1.19
  -3  -7   0   17.45    1.48
   4   7  -1   -0.40    0.36
  -4  -7   1   -0.20    0.68
   5   7  -2    0.00    0.36
  -5  -7   2    0.58    0.79
   6   7  -3   -0.07    0.38
  -6  -7   3   -0.64    0.71
   7   7  -4    0.47    0.45
  -7  -7   4    0.10    0.85
  -6   6   9    0.39    0.77
  -5   6   8   19.53    1.73
  -4   6   7   -0.09    0.70
  -3   6   6    7.92    1.25
  -2   6   5    5.09    0.99
  -1   6   4    0.41    0.68
   0   6   3   36.97    2.01
   1   6   2   16.90    1.22
  -1  -6  -2   15.36    0.95
   2   6   1    2.98    0.53
   2   6   1    3.80    0.63
  -2  -6  -1    3.16    0.74
   3   6   0    0.31    0.43
   3   6   0    0.45    0.40
  -3  -6   0    0.21    0.57
   4   6  -1   -0.08    0.36
  -4  -6   1    0.67    0.73
   5   6  -2    0.22    0.38
  -5  -6   2    0.14    0.71
   6   6  -3    0.48    0.40
  -6  -6   3    0.76    0.85
   7   6  -4    0.60    0.46
  -7  -6   4    0.99    0.96
  -7   5  10    0.79    0.79
  -6   5   9    2.05    0.83
  -5   5   8    1.42    0.83
  -4   5   7   11.64    1.23
  -4   5   7    9.46    1.29
  -3   5   6    1.26    0.56
  -3   5   6    0.68    0.75
  -2   5   5    0.41    0.40
  -2   5   5   -0.58    0.63
  -1   5   4   -0.69    0.69
   0   5   3    0.09    0.59
   0   5   3    0.22    0.17
   1   5   2   18.04    1.24
  -1  -5  -2   19.05    1.09
   2   5   1    1.29    0.44
   2   5   1    1.69    0.50
  -2  -5  -1    1.56    0.62
   3   5   0    0.12    0.36
   3   5   0   -0.34    0.34
  -3  -5   0    0.69    0.59
   4   5  -1    0.31    0.38
  -4  -5   1    0.29    0.69
   5   5  -2    5.42    0.67
  -5  -5   2    2.43    0.90
   6   5  -3    0.17    0.38
  -6  -5   3    0.42    0.72
   7   5  -4    0.16    0.38
  -7  -5   4    0.29    0.86
  -6   4   9    6.50    1.15
  -6   4   9    4.49    1.19
  -5   4   8   13.29    1.51
  -5   4   8   12.03    1.55
  -4   4   7    3.94    0.90
  -4   4   7    4.12    1.01
  -3   4   6    0.27    0.59
  -3   4   6    3.08    0.74
  -2   4   5    1.65    0.60
  -2   4   5    1.00    0.78
  -1   4   4  167.70    5.97
  -1   4   4  160.15    5.58
   0   4   3    0.99    0.24
   0   4   3    1.03    0.61
   1   4   2   26.42    1.35
  -1  -4  -2   25.21    1.34
   2   4   1   46.69    1.71
   2   4   1   47.41    1.77
  -2  -4  -1   35.17    2.10
   3   4   0    4.54    0.50
   3   4   0    3.44    0.49
  -3  -4   0    4.27    0.89
   4   4  -1    4.09    0.42
   4   4  -1    2.95    0.51
  -4  -4   1    1.40    0.75
   5   4  -2    4.35    0.61
  -5  -4   2    4.31    1.11
   6   4  -3    0.61    0.39
  -6  -4   3    1.68    0.92
   7   4  -4   -0.12    0.33
  -7  -4   4   -0.04    0.70
  -8  -4   5    0.20    0.88
  -7   3  10   -0.50    0.68
  -6   3   9    0.62    0.70
  -6   3   9    0.51    0.79
  -5   3   8    2.23    0.93
  -5   3   8    3.04    0.89
  -4   3   7    2.21    0.85
  -4   3   7    2.24    0.84
  -3   3   6    0.18    0.52
  -3   3   6    1.26    0.75
  -2   3   5    6.54    0.95
  -2   3   5    7.92    1.02
  -1   3   4   53.81    2.36
  -1   3   4   54.37    2.37
   0   3   3   -0.10    0.24
   0   3   3    0.24    0.57
   1   3   2   43.54    1.75
  -1  -3  -2   43.43    1.94
   2   3   1    0.20    0.36
  -2  -3  -1   -0.16    0.57
   3   3   0   22.03    1.00
  -3  -3   0   18.95    1.57
   4   3  -1    1.48    0.39
  -4  -3   1   -0.34    0.58
   5   3  -2    4.26    0.57
  -5  -3   2    4.04    1.08
   6   3  -3    2.87    0.52
  -6  -3   3    1.03    0.75
   7   3  -4    0.72    0.37
  -7  -3   4   -0.23    0.72
  -8  -3   5    1.31    1.06
  -7   2  10   -0.57    0.71
  -6   2   9    0.26    0.75
  -5   2   8    4.38    1.12
  -5   2   8    5.98    1.05
  -4   2   7    1.74    0.84
  -4   2   7    1.53    0.78
  -3   2   6    0.45    0.60
  -3   2   6    0.62    0.76
  -1   2   4   23.03    1.45
  -1   2   4   23.70    1.38
   0   2   3  346.50   11.82
   0   2   3  333.34   10.40
  -1  -2  -2    0.34    0.57
   3   2   0    0.48    0.31
  -3  -2   0    0.64    0.77
   4   2  -1    2.76    0.42
  -4  -2   1    1.96    0.91
   6   2  -3    9.32    0.75
  -6  -2   3    4.67    1.20
  -7  -2   4    0.53    0.75
  -8  -2   5    0.00    0.73
  -7   1  10   -0.32    0.79
  -6   1   9    2.74    1.05
  -5   1   8    0.95    0.89
  -5   1   8    1.44    0.76
  -4   1   7    0.66    0.63
  -4   1   7   -0.79    0.66
  -3   1   6    0.07    0.56
  -3   1   6   -0.10    0.80
  -2   1   5   18.28    1.23
  -2   1   5   12.03    1.33
  -1   1   4    0.59    0.58
  -1   1   4    0.84    0.74
   0   1   3  812.39   28.14
  -1  -1  -2  404.69   14.21
   2   1   1    9.66    0.62
  -2  -1  -1    9.47    1.08
   3   1   0    0.11    0.27
  -3  -1   0   -0.14    0.79
   4   1  -1    1.69    0.36
  -4  -1   1    0.04    0.31
  -4  -1   1    0.74    0.74
   5   1  -2   19.49    0.98
  -5  -1   2   19.71    1.10
  -5  -1   2   22.37    1.89
  -6  -1   3    1.03    0.84
  -7  -1   4   -0.84    0.67
  -8  -1   5   -0.02    0.77
  -7   0  10    0.09    0.81
  -6   0   9    1.88    0.99
  -5   0   8    1.48    0.92
  -5   0   8    1.75    0.70
  -4   0   7    3.67    0.74
  -4   0   7    2.44    1.02
  -3   0   6    0.18    0.75
  -3   0   6   -0.10    0.49
  -2   0   5   -0.26    0.92
  -2   0   5   -0.09    0.40
  -1   0   4    1.53    0.82
  -1   0   4   -0.18    0.46
   0   0   3    8.25    0.96
   1   0   2   15.83    0.85
  -1   0  -2   16.80    1.26
   2   0   1   26.43    0.96
  -2   0  -1   24.97    1.70
   3   0   0   54.79    1.85
  -3   0   0   54.75    2.77
   4   0  -1   33.53    1.28
  -4   0   1   33.65    1.53
  -5   0   2    0.83    0.40
  -5   0   2    0.52    0.76
  -6   0   3    2.11    0.52
  -6   0   3    3.08    1.00
  -7   0   4    0.58    0.77
  -8   0   5    0.25    0.82
  -7  -1  10   -0.06    0.84
  -6  -1   9    1.23    0.95
  -5  -1   8   13.00    1.80
  -4  -1   7   -0.23    0.86
  -4  -1   7    0.15    0.49
  -3  -1   6    1.42    0.91
  -3  -1   6    0.24    0.41
  -2  -1   5  129.72    4.19
  -2  -1   5  130.06    5.49
  -1  -1   4    3.86    0.97
   0  -1   3  482.80   16.85
   1  -1   2   20.59    1.03
  -2   1  -1    3.62    0.83
  -2   1  -1    3.52    0.64
  -3   1   0   44.32    1.96
  -3   1   0   48.50    2.44
  -3   1   0   49.24    1.57
  -4   1   1   68.21    2.66
  -4   1   1   70.83    3.35
  -5   1   2    4.25    1.04
  -5   1   2    3.67    0.65
  -6   1   3    0.39    0.45
  -6   1   3   -0.06    0.70
  -7   1   4    0.20    0.77
  -8   1   5   -0.28    0.77
  -7  -2  10   -0.27    0.77
  -6  -2   9    0.31    0.86
  -5  -2   8    1.87    1.02
  -4  -2   7   -0.37    0.73
  -3  -2   6    0.52    0.42
  -3  -2   6    1.21    1.02
  -2  -2   5  171.04    6.87
  -2  -2   5  165.39    5.24
  -1  -2   4   23.03    1.78
   1   2  -4   19.44    1.02
   1  -2   2   35.05    1.49
   1  -2   2   35.84    1.21
  -1   2  -2   34.49    1.22
  -1   2  -2   34.87    1.67
  -2   2  -1   42.44    1.91
  -2   2  -1   42.10    2.03
  -3   2   0    2.53    0.24
  -3   2   0    0.10    0.54
  -3   2   0    2.89    0.70
  -4   2   1   10.43    1.22
  -4   2   1   10.97    1.03
  -5   2   2    1.58    0.79
  -5   2   2    0.32    0.48
  -6   2   3    4.69    1.13
  -6   2   3    3.24    0.70
  -7   2   4   -0.63    0.64
  -7   2   4   -0.14    0.45
  -8   2   5    0.63    0.75
  -7  -3  10    1.07    0.96
  -6  -3   9    0.19    0.85
  -5  -3   8    0.66    0.90
  -4  -3   7    2.26    1.09
  -3  -3   6   11.57    1.68
  -3  -3   6   12.71    0.83
   3   3  -6   12.95    0.91
  -2  -3   5    8.72    0.61
  -2  -3   5    8.56    1.43
   2   3  -5    9.36    0.76
  -1  -3   4  101.54    4.27
   1   3  -4   94.68    3.31
   0  -3   3   65.25    2.86
   0   3  -3   68.69    2.39
   1  -3   2    0.03    0.31
  -1   3  -2   -0.10    0.52
  -1   3  -2    0.63    0.29
  -2   3  -1   13.30    1.02
  -2   3  -1   12.62    0.53
  -2   3  -1   13.29    1.25
  -3   3   0   15.67    1.19
  -3   3   0   15.15    1.18
  -5   3   2    0.55    0.53
  -5   3   2    0.85    0.67
  -6   3   3    0.48    0.64
  -6   3   3    0.26    0.50
  -7   3   4    0.29    0.74
  -7   3   4    0.92    0.57
  -8   3   5   -0.39    0.68
  -7  -4  10   -0.13    0.92
  -6  -4   9    0.11    0.83
  -5  -4   8    1.17    0.97
  -4  -4   7    6.56    1.44
   4   4  -7    8.07    0.80
  -3  -4   6    9.08    1.53
   3   4  -6    8.20    0.75
  -2  -4   5    0.32    0.91
   2   4  -5    0.50    0.38
  -1  -4   4    0.00    0.66
   1   4  -4    5.71    0.61
   0  -4   3   44.18    2.07
   0   4  -3   40.84    1.63
   0   4  -3   34.60    1.54
  -1   4  -2   32.92    1.59
  -1   4  -2   34.10    1.29
   2  -4   1  101.69    4.08
  -2   4  -1  118.84    3.99
  -2   4  -1  115.06    3.53
  -3   4   0   16.36    1.23
  -3   4   0   15.89    1.20
  -4   4   1    0.49    0.50
  -4   4   1   -0.11    0.42
  -5   4   2    0.27    0.54
  -5   4   2    1.08    0.58
  -6   4   3    2.41    0.84
  -6   4   3    0.41    0.54
  -7   4   4    0.78    0.61
  -7   4   4    0.82    0.73
  -8   4   5    0.04    0.70
  -6  -5   9   -0.70    0.79
  -5  -5   8    0.52    0.85
   5   5  -8   -0.11    0.36
  -4  -5   7   -0.02    0.88
   4   5  -7   -0.01    0.37
  -3  -5   6   19.25    2.00
   3   5  -6   19.79    1.17
   0  -5   3    1.75    0.77
   0   5  -3    1.72    0.49
   0   5  -3    2.22    0.42
   1  -5   2    4.49    0.64
  -1   5  -2    3.37    0.67
   2  -5   1   18.35    0.98
  -2   5  -1   18.62    1.28
  -2   5  -1   18.20    0.83
  -3   5   0    0.35    0.45
  -3   5   0    1.02    0.60
  -3   5   0    0.70    0.26
  -4   5   1    3.92    0.81
  -4   5   1    3.69    0.69
  -5   5   2    1.23    0.68
  -5   5   2    1.23    0.60
  -6   5   3    1.48    0.68
  -6   5   3    0.14    0.57
  -7   5   4    1.07    0.76
  -7   5   4    1.36    0.69
  -8   5   5    0.39    0.75
  -8   5   5    1.62    0.77
  -6  -6   9   -0.87    0.76
  -5  -6   8    0.68    0.93
   5   6  -8    1.39    0.51
  -4  -6   7    0.73    0.95
   4   6  -7    0.05    0.36
  -3  -6   6    8.32    1.53
   3   6  -6    8.49    0.81
  -2  -6   5   13.31    1.68
   2   6  -5   14.36    0.97
  -1  -6   4   -0.68    0.77
   1   6  -4   -0.28    0.28
   1   6  -4    0.31    0.34
   0  -6   3   18.20    1.56
   0   6  -3   19.28    1.12
   0   6  -3   19.64    1.05
   1  -6   2   19.94    1.28
  -1   6  -2   18.40    1.28
  -1   6  -2   20.61    0.99
   2  -6   1    0.00    0.37
  -2   6  -1   -0.47    0.50
  -2   6  -1    0.25    0.28
   3  -6   0    1.15    0.39
  -3   6   0    0.99    0.67
  -3   6   0    0.82    0.29
  -4   6   1    1.77    0.53
  -4   6   1    2.58    0.75
  -5   6   2   12.58    1.14
  -5   6   2   12.45    1.40
  -6   6   3   -0.19    0.51
  -6   6   3    0.38    0.54
  -7   6   4   -0.15    0.60
  -7   6   4    0.53    0.64
  -8   6   5    2.59    0.92
  -6  -7   9    0.16    0.97
  -5  -7   8    0.60    0.92
   5   7  -8   -0.26    0.37
  -4  -7   7   -0.15    0.85
   4   7  -7    0.03    0.40
  -3  -7   6    0.17    0.84
   3   7  -6    0.22    0.42
  -2  -7   5   10.57    1.57
   2   7  -5   10.94    0.89
  -1  -7   4    3.97    1.14
   1   7  -4    5.64    0.68
   1   7  -4    4.74    0.56
   0  -7   3    1.07    0.87
   0   7  -3    2.03    0.44
   0   7  -3    2.09    0.54
   1  -7   2    8.95    1.02
  -1   7  -2    8.35    0.96
  -1   7  -2    8.99    0.72
   2  -7   1    0.04    0.45
  -2   7  -1    0.39    0.33
  -2   7  -1    0.32    0.59
   3  -7   0   10.37    0.80
  -3   7   0    9.33    0.69
  -3   7   0    8.98    1.10
   4  -7  -1    1.29    0.40
  -4   7   1    1.07    0.69
  -5   7   2    4.99    1.01
  -5   7   2    4.49    0.74
  -6   7   3    1.24    0.70
  -7   7   4   -0.05    0.62
  -5  -8   8    0.98    1.00
   5   8  -8    1.28    0.52
  -4  -8   7    1.06    0.97
   4   8  -7   -0.12    0.38
  -3  -8   6    2.97    1.10
   3   8  -6    2.52    0.61
  -2  -8   5    4.07    1.16
   2   8  -5    2.71    0.58
  -1  -8   4    0.52    0.83
   1   8  -4    1.02    0.38
   1   8  -4    0.19    0.39
   0  -8   3    1.03    0.91
   0   8  -3    1.44    0.52
   0   8  -3    1.20    0.47
   1  -8   2    5.37    0.97
  -1   8  -2    5.23    0.81
  -1   8  -2    5.62    0.65
   2  -8   1   11.32    1.07
  -2   8  -1    9.60    1.15
  -2   8  -1   10.66    0.80
  -3   8   0    3.03    0.79
  -3   8   0    2.37    0.47
  -4   8   1    7.44    1.12
  -5   8   2   -0.70    0.52
  -6   8   3   -0.40    0.56
  -7   8   4    0.54    0.71
  -5  -9   8    0.47    0.92
   5   9  -8    0.93    0.52
  -4  -9   7    0.20    0.88
   4   9  -7    0.73    0.46
  -3  -9   6    0.22    0.86
   3   9  -6   -0.64    0.40
  -2  -9   5    1.26    0.92
   2   9  -5    1.53    0.53
  -1  -9   4   -0.07    0.79
   1   9  -4    0.44    0.43
   0  -9   3   -1.64    0.60
   0   9  -3   -0.52    0.37
   0   9  -3    0.11    0.41
  -1   9  -2    0.96    0.55
  -1   9  -2    0.51    0.43
  -2   9  -1   13.85    1.31
  -2   9  -1   11.34    0.90
  -3   9   0    5.74    1.02
  -4   9   1    2.53    0.81
  -5   9   2    0.17    0.63
  -6   9   3    0.72    0.67
  -4 -10   7   -0.56    0.68
   4  10  -7    0.95    0.55
  -3 -10   6    1.18    0.84
   3  10  -6    0.23    0.48
  -2 -10   5    0.81    0.89
   2  10  -5    0.74    0.52
   1  10  -4    0.05    0.43
   0  10  -3    0.46    0.46
   0  10  -3    0.48    0.46
  -1  10  -2    2.62    0.70
  -1  10  -2    2.86    0.58
  -2  10  -1   -0.09    0.54
  -2  10  -1    0.09    0.38
  -3  10   0   -0.48    0.57
  -4  10   1   -0.23    0.58
  -5  10   2    2.30    0.87
   3  11  -6   -0.09    0.49
   2  11  -5    1.04    0.57
   1  11  -4    0.86    0.48
   0  11  -3    0.38    0.49
  -1  11  -2    2.21    0.60
  -1  11  -2    3.21    0.79
  -2  11  -1   -0.47    0.38
  -2  11  -1    0.43    0.60
  -3  11   0    0.49    0.62
  -4  11   1    1.37    0.77
  -5  11   2   -0.16    0.62
   2  12  -5   -0.39    0.47
   1  12  -4    0.72    0.53
   0  12  -3    0.52    0.55
  -1  12  -2    1.26    0.58
  -2  12  -1    0.31    0.61
  -3  12   0    0.08    0.62
  -4  12   1    0.32    0.68
   1  13  -4   -0.25    0.48
   0  13  -3    1.01    0.60
  -2  13  -1    0.63    0.67
  -3  13   0   -0.22    0.63
  -2  12   6    0.07    0.73
  -1  12   5    1.20    0.80
   0  12   4    0.18    0.66
   0  12   4    0.19    0.50
   1  12   3    2.36    0.70
   2  12   2    0.11    0.48
  -3  11   7    0.54    0.87
  -2  11   6    3.11    1.09
  -1  11   5    0.34    0.80
   0  11   4    1.40    0.80
   0  11   4    0.59    0.53
   1  11   3    0.42    0.47
   2  11   2    0.61    0.56
   3  11   1    2.53    0.63
   4  11   0   -0.20    0.42
  -4  10   8   -0.25    0.71
  -3  10   7   -0.54    0.68
  -2  10   6   -0.85    0.75
  -1  10   5    0.18    0.76
   0  10   4    0.02    0.70
   1  10   3   -0.02    0.44
   1  10   3   -0.13    0.61
   2  10   2    0.17    0.44
   3  10   1    3.67    0.70
   4  10   0    4.11    0.77
   5  10  -1    0.74    0.55
  -4   9   8    0.15    0.76
  -3   9   7    0.75    0.81
  -2   9   6    0.13    0.70
  -1   9   5    0.64    0.73
   0   9   4    1.19    0.76
   1   9   3    2.27    0.60
   1   9   3    2.97    0.82
   2   9   2   -0.17    0.35
   3   9   1    0.90    0.46
   4   9   0    4.63    0.76
   5   9  -1    0.43    0.48
   6   9  -2    0.05    0.42
  -5   8   9    0.73    0.82
  -4   8   8    0.99    0.88
  -3   8   7    0.78    0.83
  -2   8   6    3.25    0.96
  -1   8   5    0.72    0.80
   0   8   4    2.35    0.88
   1   8   3    4.95    0.93
   2   8   2   12.29    1.23
   2   8   2   13.82    1.06
   3   8   1    2.07    0.53
   4   8   0    1.66    0.50
  -4  -8   0    0.77    0.72
   5   8  -1    3.32    0.64
  -5  -8   1    1.88    0.93
   6   8  -2   -0.22    0.41
  -6  -8   2    0.23    0.84
  -6   7  10    0.11    0.80
  -5   7   9    1.52    0.92
  -4   7   8    0.90    0.85
  -3   7   7   -0.23    0.77
  -2   7   6   -0.24    0.71
  -1   7   5    5.61    1.05
   0   7   4    0.30    0.75
   1   7   3    4.51    0.90
   2   7   2   -0.28    0.56
   2   7   2    0.36    0.46
  -2  -7  -2    0.37    0.43
   3   7   1    4.39    0.69
  -3  -7  -1    3.74    0.79
   4   7   0    1.30    0.45
  -4  -7   0    0.61    0.70
   5   7  -1    1.76    0.53
  -5  -7   1    2.36    0.91
   6   7  -2   -0.09    0.39
  -6  -7   2    0.90    0.90
   7   7  -3    0.40    0.44
  -7  -7   3   -0.09    0.84
  -6   6  10    1.03    0.77
  -5   6   9    2.75    0.94
  -4   6   8    9.79    1.38
  -3   6   7    3.32    0.99
  -2   6   6    1.54    0.78
  -1   6   5    1.12    0.75
   0   6   4    4.12    0.91
   0   6   4    3.94    0.37
   1   6   3    2.40    0.72
  -1  -6  -3    2.00    0.42
   2   6   2   14.20    1.15
   2   6   2   16.02    1.04
  -2  -6  -2   16.51    1.17
   3   6   1   25.06    1.38
   3   6   1   23.85    1.31
  -3  -6  -1   27.05    1.77
   4   6   0    1.56    0.46
  -4  -6   0    1.75    0.82
   5   6  -1    1.85    0.50
  -5  -6   1    1.41    0.87
   6   6  -2    4.54    0.70
   7   6  -3    0.03    0.39
  -7  -6   3    0.82    0.92
  -6   5  10    0.68    0.79
  -5   5   9    0.42    0.80
  -4   5   8    2.40    0.92
  -3   5   7   10.84    1.17
  -3   5   7    7.51    1.16
  -2   5   6    4.01    0.69
  -2   5   6    3.03    0.88
  -1   5   5   -1.15    0.67
  -1   5   5   -0.40    0.40
   0   5   4    0.01    0.60
   0   5   4   -0.16    0.25
   1   5   3    7.13    0.85
  -1  -5  -3    6.96    0.68
   2   5   2    1.12    0.52
   2   5   2    1.36    0.44
  -2  -5  -2    1.77    0.54
   3   5   1    1.63    0.46
   3   5   1    2.00    0.47
  -3  -5  -1    2.03    0.69
   4   5   0    0.42    0.36
  -4  -5   0    0.53    0.74
   5   5  -1    0.43    0.37
  -5  -5   1    1.89    0.89
   6   5  -2    4.08    0.63
  -6  -5   2    2.12    1.00
   7   5  -3    0.71    0.41
  -7  -5   3    0.23    0.82
  -6   4  10    1.74    0.92
  -5   4   9   -0.30    0.62
  -5   4   9    0.51    0.71
  -4   4   8    0.27    0.60
  -4   4   8    1.60    0.83
  -3   4   7    0.93    0.74
  -3   4   7    0.88    0.65
  -2   4   6    1.87    0.75
  -2   4   6    0.57    0.60
  -1   4   5    0.37    0.52
  -1   4   5    0.43    0.64
   0   4   4  197.06    6.48
   0   4   4  197.56    6.97
   1   4   3   15.91    1.07
  -1  -4  -3   14.84    0.97
   2   4   2    4.22    0.62
  -2  -4  -2    4.36    0.73
   3   4   1   12.32    0.87
   3   4   1   11.48    0.85
  -3  -4  -1   11.48    1.26
   4   4   0    3.12    0.51
  -4  -4   0    3.16    0.94
   5   4  -1    0.95    0.41
  -5  -4   1   -0.03    0.70
   6   4  -2    0.17    0.37
  -6  -4   2    0.41    0.75
   7   4  -3    0.07    0.35
  -7  -4   3    0.34    0.83
  -8  -4   4    0.25    0.88
  -7   3  11   -0.23    0.80
  -6   3  10    0.30    0.74
  -6   3  10    2.12    0.91
  -5   3   9    1.55    0.88
  -5   3   9    2.14    0.86
  -4   3   8    0.11    0.66
  -4   3   8   -0.81    0.69
  -3   3   7    1.64    0.73
  -3   3   7    0.97    0.74
  -2   3   6   40.11    2.03
  -2   3   6   41.68    2.22
  -1   3   5   13.03    1.28
  -1   3   5   12.33    1.15
   0   3   4   80.75    3.02
   0   3   4   81.33    3.02
   1   3   3   60.43    2.33
  -1  -3  -3   59.40    2.48
  -2  -3  -2    0.22    0.56
   3   3   1   22.79    1.10
  -3  -3  -1   26.03    1.73
   4   3   0    1.88    0.41
  -4  -3   0    0.27    0.58
   5   3  -1    0.50    0.35
  -5  -3   1    0.49    0.75
   6   3  -2    0.82    0.38
  -6  -3   2    0.84    0.88
  -7  -3   3    0.01    0.77
  -8  -3   4    0.77    0.89
  -7   2  11   -0.08    0.75
  -6   2  10    0.37    0.75
  -5   2   9   -0.31    0.72
  -5   2   9    0.01    0.69
  -4   2   8    0.26    0.77
  -4   2   8   -0.94    0.60
  -3   2   7   -0.09    0.65
  -3   2   7   -0.89    0.65
  -2   2   6   -0.55    0.40
  -2   2   6    0.10    0.70
  -1   2   5   55.02    2.20
  -1   2   5   52.90    2.52
   0   2   4    4.37    0.71
   0   2   4    6.25    0.64
   1   2   3    0.17    0.28
  -2  -2  -2    0.66    0.63
   5   2  -1    1.80    0.40
  -5  -2   1    0.36    0.69
   6   2  -2    1.00    0.38
  -6  -2   2   -0.21    0.65
  -7  -2   3    0.20    0.75
  -8  -2   4    1.37    0.95
  -7   1  11    0.06    0.86
  -6   1  10    0.37    0.80
  -5   1   9   -0.23    0.63
  -5   1   9   -0.21    0.78
  -4   1   8   -0.45    0.66
  -4   1   8    0.45    0.76
  -3   1   7   11.94    1.21
  -3   1   7   15.14    1.70
  -2   1   6   13.75    1.12
  -1   1   5    4.88    0.86
  -1   1   5    4.61    0.71
   0   1   4  114.66    4.25
   1   1   3   53.84    2.10
  -2  -1  -2  124.01    4.84
   3   1   1   -0.11    0.25
  -3  -1  -1    0.21    0.65
   4   1   0    8.12    0.58
  -4  -1   0    8.92    1.25
   5   1  -1    5.20    0.53
  -5  -1   1    6.34    1.22
   6   1  -2   11.04    0.75
  -8  -1   4    1.30    0.93
  -7   0  11   -0.45    0.80
  -6   0  10   -0.43    0.84
  -5   0   9    0.36    0.87
  -4   0   8    7.63    1.00
  -4   0   8    3.76    1.13
  -3   0   7    0.37    0.55
  -3   0   7   -1.04    0.79
  -2   0   6   11.11    0.93
  -2   0   6   11.92    1.42
   0   0   4   23.71    1.36
   1   0   3    1.69    0.41
  -2   0  -2    2.51    0.76
   3   0   1    1.59    0.26
  -3   0  -1    1.05    0.74
  -3   0  -1    1.57    0.51
   4   0   0    1.15    0.27
  -4   0   0    0.75    0.67
  -4   0   0    1.21    0.46
   5   0  -1   10.65    0.63
  -5   0   1   11.55    0.94
  -5   0   1   10.82    1.46
  -6   0   2    7.09    1.34
  -6   0   2    8.99    0.86
  -7   0   3   -0.63    0.64
  -8   0   4   -0.06    0.73
  -7  -1  11   -0.14    0.88
  -6  -1  10    0.87    0.85
  -5  -1   9   -0.90    0.69
  -4  -1   8    3.15    0.72
  -4  -1   8    1.35    1.02
  -3  -1   7    8.37    1.44
  -3  -1   7    9.65    0.89
  -2  -1   6   23.29    2.16
  -2  -1   6   25.36    1.25
  -1  -1   5  141.40    5.60
   0  -1   4  233.91    8.43
   1  -1   3    1.93    0.43
  -2   1  -2    0.33    0.57
  -2   1  -2    0.82    0.66
   3  -1   1   39.85    1.31
  -3   1  -1   40.89    2.17
  -4   1   0   -0.29    0.41
  -4   1   0    0.15    0.66
  -5   1   1    0.44    0.44
  -5   1   1    0.57    0.70
  -6   1   2   20.72    1.26
  -6   1   2   15.64    1.70
  -7   1   3    0.48    0.82
  -8   1   4    0.15    0.76
  -7  -2  11   -0.84    0.84
  -6  -2  10    1.67    1.00
  -5  -2   9    0.23    0.87
  -4  -2   8    0.64    0.91
  -3  -2   7    7.10    1.42
  -3  -2   7   10.80    0.90
  -2  -2   6   42.14    2.68
  -1  -2   5    6.55    1.08
   0  -2   4    1.68    0.61
   1  -2   3    1.96    0.45
   2  -2   2    3.88    0.47
  -2   2  -2    4.61    0.71
  -2   2  -2    4.95    0.76
  -3   2  -1  162.16    6.22
  -3   2  -1  161.14    5.38
  -4   2   0   41.61    1.90
  -4   2   0   36.30    2.15
  -5   2   1    0.55    0.48
  -5   2   1    0.20    0.65
  -6   2   2    9.55    1.43
  -6   2   2   10.12    1.01
  -7   2   3    0.32    0.73
  -7   2   3    0.01    0.45
  -8   2   4    0.96    0.92
  -7  -3  11    0.53    0.93
  -6  -3  10   -0.54    0.74
  -5  -3   9    0.00    0.83
  -4  -3   8    4.52    1.28
  -3  -3   7    2.38    1.03
  -3  -3   7    3.98    0.50
  -2  -3   6    8.64    1.47
   1   3  -5    7.04    0.65
   0  -3   4   65.24    2.86
   1  -3   3   27.33    1.37
  -1   3  -3   26.83    1.05
  -1   3  -3   28.50    1.46
  -2   3  -2    3.98    0.70
  -3   3  -1   31.94    1.62
  -3   3  -1   28.03    1.67
  -4   3   0    5.17    0.89
  -5   3   1    0.23    0.64
  -5   3   1   -0.11    0.44
  -6   3   2    2.39    0.85
  -6   3   2    2.34    0.68
  -7   3   3   -0.20    0.56
  -7   3   3    1.21    0.57
  -8   3   4   -0.51    0.66
  -6  -4  10    0.11    0.82
  -5  -4   9    3.38    1.21
  -4  -4   8   -0.49    0.80
  -3  -4   7    4.78    1.28
   3   4  -7    6.30    0.76
  -2  -4   6   31.52    2.53
   2   4  -6   47.32    1.80
  -1  -4   5    1.74    0.85
   0   4  -4   83.39    2.88
   0   4  -4   84.73    2.97
   1  -4   3    1.99    0.51
  -1   4  -3    1.53    0.57
  -1   4  -3    1.40    0.35
   2  -4   2   74.53    2.84
  -2   4  -2   70.47    2.83
  -2   4  -2   73.31    2.37
  -3   4  -1   58.12    2.61
  -3   4  -1   57.73    2.52
  -4   4   0    1.05    0.57
  -4   4   0    0.40    0.52
  -5   4   1    2.93    0.71
  -5   4   1    1.91    0.70
  -6   4   2    2.18    0.78
  -6   4   2    1.17    0.59
  -7   4   3   -0.15    0.57
  -7   4   3    0.30    0.57
  -8   4   4    0.08    0.76
  -6  -5  10   -1.00    0.76
  -5  -5   9    0.22    0.89
  -4  -5   8    1.32    1.06
   4   5  -8    2.18    0.57
  -3  -5   7   10.59    1.69
   3   5  -7   10.86    0.87
  -2  -5   6    7.67    1.45
   2   5  -6    7.42    0.75
  -1  -5   5    0.13    0.64
   1   5  -5   -0.24    0.30
   0  -5   4   20.73    1.60
   0   5  -4   20.26    1.15
   0   5  -4   22.17    1.09
   1  -5   3    4.80    0.72
  -1   5  -3    4.12    0.48
  -1   5  -3    4.30    0.68
   2  -5   2    0.43    0.35
  -2   5  -2    0.22    0.26
  -2   5  -2    0.09    0.56
   3  -5   1    4.79    0.55
  -3   5  -1    3.55    0.75
  -3   5  -1    3.86    0.37
  -4   5   0    0.58    0.48
  -4   5   0    0.12    0.53
  -5   5   1   -0.60    0.43
  -5   5   1   -0.15    0.49
  -6   5   2    6.20    1.04
  -6   5   2    4.65    0.89
  -7   5   3    0.11    0.58
  -7   5   3   -0.46    0.51
  -8   5   4    0.00    0.72
  -8   5   4    0.08    0.56
  -6  -6  10    0.08    0.93
  -5  -6   9    1.05    1.04
  -4  -6   8    2.81    1.20
   4   6  -8    4.03    0.70
  -3  -6   7   10.51    1.75
   3   6  -7   14.52    1.01
  -2  -6   6    7.79    1.47
   2   6  -6   10.41    0.85
  -1  -6   5    0.08    0.86
   1   6  -5    0.25    0.38
   0  -6   4    4.92    1.00
   0   6  -4    5.51    0.66
   0   6  -4    5.38    0.60
   1  -6   3    5.49    0.83
  -1   6  -3    7.40    0.66
  -1   6  -3    6.42    0.82
   2  -6   2    0.35    0.43
  -2   6  -2    0.21    0.56
  -2   6  -2   -0.06    0.24
   3  -6   1   30.97    1.49
  -3   6  -1   32.02    1.81
  -3   6  -1   30.93    1.21
   4  -6   0    3.39    0.53
  -4   6   0    3.15    0.79
  -5   6   1    0.62    0.60
  -5   6   1    0.84    0.52
  -6   6   2    0.55    0.52
  -6   6   2   -0.13    0.55
  -7   6   3    0.27    0.57
  -7   6   3    1.00    0.70
  -8   6   4    0.38    0.69
  -5  -7   9   -0.08    0.93
   5   7  -9   -0.05    0.42
  -4  -7   8   -0.10    0.89
   4   7  -8   -0.45    0.32
  -3  -7   7    3.16    1.19
   3   7  -7    4.27    0.69
  -2  -7   6    0.44    1.02
   2   7  -6    1.65    0.51
  -1  -7   5   -0.08    0.86
   1   7  -5    0.31    0.42
   0  -7   4   17.31    1.66
   0   7  -4   17.11    1.03
   0   7  -4   14.77    1.04
   1  -7   3    0.46    0.66
  -1   7  -3    0.64    0.52
  -1   7  -3    1.73    0.42
   2  -7   2    4.07    0.71
  -2   7  -2    3.67    0.75
  -2   7  -2    3.49    0.48
   3  -7   1   34.58    1.69
  -3   7  -1   33.43    1.95
  -3   7  -1   35.30    1.39
   4  -7   0    7.18    0.76
  -4   7   0    6.28    1.04
  -5   7   1    2.39    0.81
  -5   7   1    1.60    0.57
  -6   7   2   -0.06    0.43
  -6   7   2    0.71    0.62
  -7   7   3    0.02    0.59
  -5  -8   9    1.60    1.08
   5   8  -9    2.12    0.59
  -4  -8   8   -0.25    0.93
   4   8  -8   -0.71    0.39
  -3  -8   7   -0.82    0.77
   3   8  -7   -0.18    0.37
  -2  -8   6   -0.05    0.90
   2   8  -6   -0.11    0.39
   1   8  -5    3.40    0.62
   1   8  -5    3.58    0.52
   0  -8   4    1.79    0.93
   0   8  -4    0.88    0.44
   0   8  -4    0.99    0.46
   1  -8   3    0.45    0.78
  -1   8  -3    0.06    0.37
  -1   8  -3    0.64    0.52
   2  -8   2    1.91    0.72
  -2   8  -2    1.89    0.71
  -2   8  -2    1.33    0.42
   3  -8   1   12.44    1.03
  -3   8  -1   10.80    1.24
  -4   8   0    1.46    0.71
  -5   8   1    0.07    0.58
  -6   8   2    1.29    0.72
  -7   8   3    0.47    0.69
  -4  -9   8    0.80    1.01
   4   9  -8    0.10    0.41
  -3  -9   7   -0.01    0.87
   3   9  -7   -0.06    0.44
  -2  -9   6    0.70    0.92
   2   9  -6    0.39    0.46
  -1  -9   5    0.64    0.87
   1   9  -5    0.08    0.45
   0  -9   4   -0.13    0.81
   0   9  -4    0.16    0.43
   0   9  -4   -0.06    0.38
   1  -9   3    9.52    1.27
  -1   9  -3   10.65    0.87
  -1   9  -3    9.26    1.08
  -2   9  -2    2.94    0.78
  -2   9  -2    2.16    0.52
  -3   9  -1   42.63    2.39
  -4   9   0    0.06    0.53
  -5   9   1    0.89    0.63
  -6   9   2   -0.45    0.60
  -4 -10   8    0.99    1.01
   4  10  -8    1.29    0.58
  -3 -10   7    1.31    0.98
   3  10  -7    2.76    0.67
  -2 -10   6    1.01    0.90
   2  10  -6   -0.01    0.42
  -1 -10   5    0.83    0.92
   1  10  -5    0.23    0.48
   0  10  -4    0.70    0.49
   0  10  -4    0.77    0.49
  -1  10  -3   12.25    1.18
  -1  10  -3   11.92    0.97
  -2  10  -2   -0.55    0.53
  -2  10  -2    0.49    0.45
  -3  10  -1    1.26    0.71
  -4  10   0    0.93    0.63
  -5  10   1    0.33    0.62
   3  11  -7    0.91    0.54
   2  11  -6   -0.55    0.44
   1  11  -5   -0.15    0.42
   0  11  -4    4.44    0.71
  -1  11  -3    0.86    0.48
  -1  11  -3    0.30    0.51
  -2  11  -2    1.62    0.68
  -3  11  -1    0.03    0.59
  -4  11   0    0.36    0.66
  -5  11   1    1.03    0.72
   2  12  -6   -0.05    0.52
   1  12  -5   -0.34    0.49
   0  12  -4   -0.23    0.41
  -1  12  -3    1.04    0.55
  -2  12  -2    0.38    0.59
  -3  12  -1    0.16    0.56
  -4  12   0    0.15    0.68
   0  13  -4    0.05    0.52
  -2  13  -2    0.37    0.65
  -3  13  -1    0.08    0.65
  -1  12   6    0.74    0.86
   0  12   5    0.03    0.75
   0  12   5    0.63    0.55
   1  12   4   -0.26    0.51
   2  12   3    0.77    0.60
  -2  11   7    0.49    0.87
  -1  11   6    0.27    0.79
   0  11   5    1.24    0.83
   1  11   4    0.34    0.53
   2  11   3    1.54    0.59
   3  11   2    0.65    0.50
   4  11   1    0.22    0.47
  -3  10   8   -0.21    0.83
  -2  10   7    0.60    0.83
  -1  10   6    1.12    0.84
   0  10   5    0.02    0.71
   1  10   4    0.85    0.51
   1  10   4    1.61    0.76
   2  10   3    0.14    0.44
   3  10   2    4.10    0.77
   4  10   1    0.26    0.42
   5  10   0    0.42    0.45
  -4   9   9   -0.19    0.81
  -3   9   8    0.56    0.83
  -2   9   7    1.19    0.91
  -1   9   6    0.33    0.79
   0   9   5    4.19    0.96
   1   9   4    0.95    0.74
   2   9   3    3.00    0.65
   2   9   3    1.50    0.73
   3   9   2    1.15    0.52
   4   9   1    0.03    0.38
   5   9   0    0.50    0.47
   6   9  -1    0.27    0.50
  -4   8   9    0.30    0.82
  -3   8   8    0.33    0.89
  -2   8   7   -0.62    0.71
  -1   8   6    1.25    0.84
   0   8   5    4.68    1.04
   1   8   4    2.50    0.82
   2   8   3    0.94    0.48
   2   8   3    1.27    0.69
   3   8   2    9.43    0.91
   4   8   1    1.54    0.51
   5   8   0    0.93    0.48
  -5  -8   0    0.72    0.79
   6   8  -1    0.53    0.48
  -6  -8   1   -0.44    0.75
  -5   7  10    0.54    0.87
  -4   7   9    1.32    0.82
  -3   7   8   -0.93    0.71
  -2   7   7    0.73    0.82
  -1   7   6   -1.08    0.67
   0   7   5    2.13    0.82
   1   7   4    1.56    0.78
   2   7   3    0.93    0.63
   2   7   3    0.92    0.46
   3   7   2    2.38    0.64
   3   7   2    2.53    0.58
  -3  -7  -2    3.47    0.74
   4   7   1    8.28    0.86
  -4  -7  -1    8.51    1.25
   5   7   0   -0.03    0.38
  -5  -7   0    0.87    0.71
   6   7  -1    0.26    0.37
  -6  -7   1    0.12    0.82
   7   7  -2    0.32    0.49
  -7  -7   2    1.62    0.97
  -6   6  11    0.61    0.89
  -5   6  10    0.87    0.88
  -4   6   9    5.19    1.17
  -3   6   8    1.64    0.90
  -2   6   7   -0.47    0.72
  -1   6   6    4.49    0.94
   0   6   5   15.12    1.35
   1   6   4    2.39    0.35
   1   6   4    2.14    0.74
   2   6   3   71.51    2.84
  -2  -6  -3   71.97    3.05
   3   6   2   13.03    1.04
   3   6   2   13.44    1.03
  -3  -6  -2   13.86    1.23
   4   6   1    5.48    0.70
  -4  -6  -1    5.93    1.09
   5   6   0    2.05    0.52
  -5  -6   0    0.24    0.65
   6   6  -1    3.20    0.61
  -6  -6   1    0.82    0.80
   7   6  -2    1.06    0.50
  -7  -6   2    0.19    0.79
  -6   5  11    0.49    0.86
  -5   5  10    2.31    0.98
  -4   5   9   -0.16    0.74
  -3   5   8    2.96    1.00
  -2   5   7   -0.13    0.54
  -2   5   7   -0.31    0.64
  -1   5   6   17.69    1.43
  -1   5   6   16.90    1.26
   0   5   5    2.68    0.79
   0   5   5    3.45    0.47
   1   5   4    2.68    0.72
   1   5   4    3.82    0.41
   2   5   3   12.13    1.08
  -2  -5  -3   13.27    1.02
   3   5   2   23.84    1.30
   3   5   2   25.70    1.33
  -3  -5  -2   24.28    1.63
   4   5   1   -0.53    0.30
   4   5   1   -0.16    0.39
  -4  -5  -1    0.11    0.66
  -5  -5   0    2.13    0.85
   6   5  -1    3.54    0.61
  -6  -5   1    2.89    1.05
  -7  -5   2   -0.44    0.63
  -6   4  11    1.38    0.88
  -5   4  10    3.70    0.99
  -4   4   9    8.10    1.25
  -4   4   9    8.88    1.27
  -3   4   8    0.70    0.82
  -3   4   8    1.59    0.75
  -2   4   7    6.16    0.99
  -2   4   7    5.96    1.01
  -1   4   6    2.06    0.71
  -1   4   6    2.74    0.66
   0   4   5    0.99    0.64
   0   4   5    1.06    0.39
   1   4   4   -0.22    0.25
   1   4   4   -0.20    0.51
   2   4   3    1.84    0.57
  -2  -4  -3    2.72    0.65
   3   4   2    2.89    0.56
   3   4   2    2.42    0.46
  -3  -4  -2    2.36    0.69
   4   4   1    2.67    0.47
  -4  -4  -1    2.75    0.86
   5   4   0    0.85    0.40
  -5  -4   0    1.87    0.86
   6   4  -1    5.94    0.71
  -6  -4   1    4.83    1.22
  -7  -4   2   -0.39    0.72
  -8  -4   3    0.86    0.94
  -6   3  11    0.08    0.82
  -5   3  10    3.38    1.08
  -5   3  10    5.75    1.13
  -4   3   9    1.71    0.85
  -4   3   9    2.32    0.82
  -3   3   8    0.18    0.71
  -3   3   8   -0.25    0.71
  -2   3   7    4.96    0.98
  -1   3   6   30.38    1.74
  -1   3   6   28.88    1.60
   0   3   5   76.93    2.91
   0   3   5   77.21    2.99
   1   3   4  149.63    5.24
   1   3   4  140.38    4.86
  -2  -3  -3   15.22    1.17
   3   3   2    1.81    0.41
  -3  -3  -2    0.94    0.59
   4   3   1    2.36    0.41
  -4  -3  -1    2.06    0.73
   5   3   0    2.71    0.47
  -5  -3   0    1.94    0.86
   6   3  -1    8.25    0.78
  -7  -3   2    1.64    0.92
  -8  -3   3    0.75    0.87
  -6   2  11    0.24    0.83
  -5   2  10    1.95    0.87
  -5   2  10    0.95    0.88
  -4   2   9    0.08    0.67
  -4   2   9    0.52    0.76
  -3   2   8   -0.60    0.65
  -3   2   8   -0.08    0.59
  -1   2   6    1.59    0.61
  -1   2   6   -0.49    0.57
   0   2   5   10.29    1.02
   0   2   5    9.30    0.82
   1   2   4   19.92    1.01
  -2  -2  -3    2.05    0.62
   3   2   2   31.80    1.32
  -3  -2  -2   32.24    1.89
   5   2   0    2.15    0.41
  -5  -2   0    3.23    0.92
   6   2  -1    3.32    0.50
  -6  -2   1    2.68    0.97
  -7  -2   2    2.23    1.02
  -8  -2   3    0.39    0.77
  -6   1  11   -0.20    0.80
  -5   1  10    1.71    0.78
  -5   1  10    0.55    0.89
  -4   1   9   -0.58    0.61
  -4   1   9    0.66    0.86
  -3   1   8    0.22    0.80
  -3   1   8    0.89    0.65
  -2   1   7    9.44    1.35
  -2   1   7    9.50    0.92
  -1   1   6   -0.37    0.47
  -1   1   6   -0.75    0.63
   0   1   5   43.40    1.94
   1   1   4   18.16    0.99
  -2  -1  -3   -0.02    0.55
   3   1   2   16.03    0.80
  -3  -1  -2   15.98    1.44
   4   1   1   12.78    0.69
  -4  -1  -1   10.42    1.27
   5   1   0    0.77    0.29
  -5  -1   0    0.11    0.59
  -6  -1   1   18.41    1.81
  -7  -1   2    0.61    0.76
  -8  -1   3    1.22    0.82
  -6   0  11    0.38    0.76
  -5   0  10    1.51    0.90
  -4   0   9    1.75    0.74
  -4   0   9    0.10    0.79
  -3   0   8   -0.83    0.77
  -3   0   8   -0.15    0.52
  -2   0   7    2.44    0.95
  -2   0   7    3.15    0.59
  -1   0   6   19.12    1.10
  -1   0   6   20.38    1.53
   0   0   5    5.20    0.71
   1   0   4   84.07    3.20
  -2   0  -3    6.31    0.86
   3   0   2    0.36    0.22
  -3   0  -2   -0.33    0.59
   4   0   1   15.85    0.73
  -4   0  -1   17.93    1.56
   5   0   0    6.14    0.51
  -5   0   0    6.41    1.16
  -5   0   0    5.47    0.74
  -6   0   1   21.22    1.92
  -6   0   1   21.50    1.30
  -7   0   2    2.12    0.98
  -8   0   3    2.30    1.07
  -6  -1  11    0.73    0.87
  -5  -1  10    1.10    0.88
  -4  -1   9    0.14    0.94
  -4  -1   9   -0.59    0.55
  -3  -1   8    1.59    1.04
  -3  -1   8    1.39    0.56
  -2  -1   7    2.87    0.56
  -2  -1   7    2.63    1.07
  -1  -1   6    5.19    1.03
   0  -1   5   18.79    1.25
   1  -1   4   10.12    0.87
   2  -1   3   28.57    1.37
   3  -1   2    6.18    0.34
  -3   1  -2    6.49    0.95
   4  -1   1    0.42    0.15
  -4   1  -1    0.14    0.47
  -4   1  -1    0.40    0.66
  -5   1   0   17.03    1.19
  -5   1   0   18.03    1.60
  -6   1   1    0.75    0.72
  -6   1   1    0.44    0.45
  -7   1   2    3.36    1.04
  -8   1   3    0.50    0.79
  -6  -2  11    0.63    0.96
  -5  -2  10   -0.41    0.76
  -4  -2   9   -0.48    0.81
  -3  -2   8   -0.11    0.82
  -3  -2   8   -0.05    0.41
  -2  -2   7    4.09    0.58
  -2  -2   7    1.53    1.11
  -1  -2   6  119.76    4.99
   0  -2   5    0.71    0.63
   1  -2   4    8.70    0.79
   2  -2   3    0.57    0.41
   2  -2   3    0.92    0.21
  -2   2  -3    0.39    0.53
  -3   2  -2    1.96    0.61
  -3   2  -2    1.48    0.66
  -4   2  -1    0.09    0.45
  -4   2  -1    2.66    0.77
  -5   2   0   62.64    2.68
  -5   2   0   65.80    3.28
  -6   2   1   -0.04    0.53
  -6   2   1    0.20    0.46
  -7   2   2    3.36    1.05
  -7   2   2    3.29    0.73
  -8   2   3   -0.54    0.69
  -6  -3  11    0.45    0.92
  -5  -3  10    0.04    0.90
  -4  -3   9    1.14    0.97
  -3  -3   8    1.78    0.48
  -3  -3   8    1.41    1.03
  -2  -3   7    3.47    1.20
  -1  -3   6   57.98    2.98
   0  -3   5    0.24    0.63
   1  -3   4    5.19    0.67
   2  -3   3    2.44    0.49
  -2   3  -3    1.89    0.60
  -3   3  -2    1.08    0.56
  -3   3  -2    1.70    0.61
  -4   3  -1    9.00    1.09
  -5   3   0   10.73    1.05
  -5   3   0    9.86    1.22
  -6   3   1    2.66    0.72
  -6   3   1    2.95    0.94
  -7   3   2    0.99    0.55
  -7   3   2    1.89    0.83
  -8   3   3    0.40    0.78
  -6  -4  11   -0.14    0.89
  -5  -4  10    0.99    0.90
  -4  -4   9   -0.36    0.81
  -3  -4   8    0.63    1.02
  -2  -4   7   -1.19    0.91
  -1  -4   6    5.83    1.20
   1  -4   4    0.43    0.38
  -1   4  -4   -0.07    0.24
  -1   4  -4    2.00    0.57
   2  -4   3   16.27    1.04
  -2   4  -3   16.18    1.15
   3  -4   2   31.32    1.48
  -3   4  -2   30.69    1.66
  -4   4  -1    0.71    0.52
  -4   4  -1    0.34    0.52
  -5   4   0    6.89    1.05
  -5   4   0    6.52    0.93
  -6   4   1    5.80    1.07
  -6   4   1    7.50    1.05
  -7   4   2   -0.20    0.56
  -7   4   2    0.42    0.54
  -8   4   3    0.03    0.68
  -8   4   3    1.73    0.73
  -6  -5  11    0.05    0.89
  -5  -5  10   -0.30    0.93
  -4  -5   9   -0.23    0.90
  -3  -5   8    2.47    1.22
  -2  -5   7    6.08    1.45
   2   5  -7    8.69    0.78
  -1  -5   6   -0.82    0.64
   1   5  -6    1.06    0.40
   0  -5   5    0.77    0.51
   0   5  -5    1.00    0.39
   1  -5   4   26.49    1.57
  -1   5  -4   26.76    1.17
  -1   5  -4   25.88    1.40
   2  -5   3    0.60    0.45
  -2   5  -3    0.91    0.27
  -2   5  -3    0.90    0.52
   3  -5   2   -0.01    0.36
  -3   5  -2    0.17    0.15
  -3   5  -2    0.16    0.50
   4  -5   1    0.56    0.37
  -4   5  -1    0.94    0.56
  -4   5  -1    0.79    0.49
  -5   5   0    1.36    0.62
  -5   5   0    0.07    0.51
  -6   5   1    3.71    0.86
  -6   5   1    3.45    0.80
  -7   5   2    0.80    0.59
  -7   5   2    0.47    0.64
  -8   5   3    0.89    0.65
  -8   5   3    0.43    0.72
  -5  -6  10   -0.32    0.89
  -4  -6   9    0.07    0.95
  -3  -6   8    0.94    1.01
   3   6  -8    0.67    0.41
  -2  -6   7    0.21    1.05
   2   6  -7    1.01    0.46
  -1  -6   6    0.79    0.91
   1   6  -6   -0.24    0.34
   0  -6   5    0.62    0.86
   0   6  -5    1.74    0.46
   0   6  -5    1.83    0.51
   1  -6   4    0.91    0.66
  -1   6  -4    0.80    0.48
  -1   6  -4   -0.21    0.32
  -2   6  -3    7.20    0.90
  -2   6  -3    4.11    0.45
   3  -6   2    6.80    0.78
  -3   6  -2    6.01    0.94
   4  -6   1    1.97    0.48
  -4   6  -1    1.92    0.67
  -5   6   0    0.92    0.65
  -5   6   0    0.45    0.50
  -6   6   1    1.91    0.70
  -6   6   1    1.47    0.70
  -7   6   2   -0.14    0.58
  -7   6   2   -0.15    0.54
  -8   6   3   -0.15    0.62
  -8   6   3   -0.04    0.60
  -5  -7  10   -0.75    0.81
  -4  -7   9   -0.29    0.94
   4   7  -9    0.56    0.48
  -3  -7   8    0.84    1.04
   3   7  -8    1.81    0.53
  -2  -7   7    0.30    0.92
   2   7  -7    0.26    0.41
  -1  -7   6    7.14    1.40
   1   7  -6    7.80    0.80
   0  -7   5   -0.09    0.88
   0   7  -5    0.53    0.42
   0   7  -5    0.51    0.42
   1  -7   4    1.66    0.79
  -1   7  -4    1.63    0.45
  -1   7  -4    1.27    0.54
   2  -7   3    0.99    0.62
  -2   7  -3    0.42    0.32
  -2   7  -3    0.64    0.55
   3  -7   2   25.06    1.44
  -3   7  -2   25.26    1.70
   4  -7   1   21.16    1.26
  -4   7  -1   21.28    1.63
   5  -7   0    0.53    0.39
  -5   7   0    0.74    0.63
  -6   7   1    0.88    0.56
  -6   7   1    0.50    0.64
  -7   7   2    0.10    0.56
  -5  -8  10   -0.26    0.94
  -4  -8   9    0.43    0.94
   4   8  -9   -0.57    0.37
  -3  -8   8   -0.39    0.97
   3   8  -8   -0.27    0.40
  -2  -8   7    1.45    0.99
   2   8  -7    1.17    0.49
  -1  -8   6    0.26    0.90
   1   8  -6    0.27    0.41
   0  -8   5   -0.74    0.89
   0   8  -5   -0.06    0.40
   0   8  -5    0.41    0.40
   1  -8   4    0.16    0.76
  -1   8  -4   -0.10    0.42
  -1   8  -4    0.75    0.44
   2  -8   3    1.70    0.75
  -2   8  -3    1.30    0.40
  -2   8  -3    1.44    0.59
   3  -8   2    0.47    0.57
  -3   8  -2    0.80    0.62
   4  -8   1   14.66    1.08
  -4   8  -1   14.10    1.40
  -5   8   0   -0.22    0.61
  -6   8   1    0.07    0.57
  -7   8   2    0.20    0.69
  -4  -9   9   -0.64    0.90
   4   9  -9    0.28    0.45
  -3  -9   8    0.23    0.89
   3   9  -8   -0.37    0.41
  -2  -9   7   -0.70    0.82
   2   9  -7    0.25    0.46
  -1  -9   6   -0.16    0.82
   1   9  -6    0.22    0.42
   0  -9   5    1.98    1.02
   0   9  -5    1.48    0.53
   0   9  -5    2.39    0.59
   1  -9   4   10.95    1.40
  -1   9  -4   10.42    0.89
  -1   9  -4    9.62    1.06
   2  -9   3   31.43    1.94
  -2   9  -3   31.46    1.90
  -3   9  -2    0.16    0.57
  -4   9  -1    0.11    0.54
  -5   9   0    0.74    0.59
  -6   9   1    0.11    0.65
  -3 -10   8    0.90    1.01
   3  10  -8    0.08    0.46
  -2 -10   7    0.55    0.96
   2  10  -7    0.54    0.48
  -1 -10   6   -1.12    0.76
   1  10  -6   -0.30    0.37
   0 -10   5    1.30    0.99
   0  10  -5    1.73    0.56
  -1  10  -4   -0.07    0.49
  -1  10  -4   -0.74    0.37
  -2  10  -3    1.96    0.69
  -3  10  -2   -0.15    0.56
  -4  10  -1    0.47    0.62
  -5  10   0   -0.13    0.55
   2  11  -7   -0.12    0.47
   1  11  -6    0.59    0.51
   0  11  -5    0.24    0.48
  -1  11  -4    1.06    0.54
  -1  11  -4    0.32    0.50
  -2  11  -3    0.08    0.52
  -3  11  -2    0.23    0.61
  -4  11  -1    0.77    0.66
   1  12  -6    0.28    0.54
   0  12  -5    0.63    0.55
  -2  12  -3   -0.18    0.55
  -3  12  -2    1.29    0.77
  -4  12  -1   -0.48    0.53
   0  12   6   -1.01    0.70
  -1  11   7    0.08    0.74
   0  11   6    2.25    0.97
   1  11   5    0.33    0.50
   1  11   5   -0.06    0.71
   2  11   4   -0.10    0.42
   3  11   3    0.23    0.48
  -2  10   8   -0.27    0.77
  -1  10   7    0.70    0.78
   0  10   6    2.47    0.93
   1  10   5    1.34    0.77
   2  10   4    0.09    0.47
   3  10   3    1.54    0.57
   4  10   2    0.45    0.48
   5  10   1   -0.52    0.39
  -3   9   9    0.36    0.79
  -2   9   8    0.63    0.83
  -1   9   7    0.89    0.80
   0   9   6    0.24    0.78
   1   9   5    1.54    0.83
   2   9   4    0.55    0.66
   2   9   4    0.88    0.48
   3   9   3   -0.29    0.37
   4   9   2    0.47    0.45
   5   9   1    0.39    0.43
  -4   8  10    1.38    0.89
  -3   8   9    0.06    0.78
  -2   8   8    1.50    0.89
  -1   8   7    0.74    0.82
   0   8   6   -0.06    0.66
   1   8   5    2.96    0.88
   2   8   4    2.00    0.76
   2   8   4    2.19    0.57
   3   8   3   -0.20    0.34
   4   8   2    2.16    0.57
   5   8   1    1.85    0.55
   6   8   0    1.13    0.53
  -5   7  11    0.15    0.84
  -4   7  10    1.89    0.95
  -3   7   9    0.76    0.89
  -2   7   8    1.62    0.85
  -1   7   7    0.62    0.74
   0   7   6   -0.07    0.69
   1   7   5    5.21    0.97
   2   7   4    0.09    0.64
   3   7   3    2.43    0.65
   3   7   3    2.56    0.58
   4   7   2    1.16    0.48
  -4  -7  -2    0.99    0.69
   5   7   1    1.23    0.47
  -5  -7  -1    2.56    0.92
   6   7   0    0.72    0.44
  -6  -7   0    0.34    0.72
  -5   6  11    0.52    0.89
  -4   6  10    0.19    0.81
  -3   6   9    0.81    0.84
  -2   6   8    1.27    0.85
  -1   6   7    2.38    0.83
   0   6   6    3.36    0.93
   1   6   5   -0.02    0.29
   1   6   5    0.69    0.66
   2   6   4    1.05    0.64
  -2  -6  -4    3.42    0.60
   3   6   3   17.84    1.23
   3   6   3   16.91    1.15
  -3  -6  -3   18.00    1.32
   4   6   2    3.07    0.59
  -4  -6  -2    3.29    0.86
   5   6   1    5.45    0.71
  -5  -6  -1    6.60    1.21
   6   6   0   -0.29    0.36
  -6  -6   0    0.23    0.73
  -7  -6   1   -0.45    0.75
  -6   5  12    0.40    0.84
  -5   5  11   10.75    1.55
  -4   5  10    0.48    0.70
  -3   5   9    0.28    0.78
  -2   5   8    0.28    0.71
  -1   5   7    6.09    0.89
  -1   5   7    6.46    1.04
   0   5   6    0.10    0.43
   0   5   6    0.24    0.59
   1   5   5    8.88    0.98
   1   5   5    7.63    0.67
   2   5   4    0.61    0.52
  -2  -5  -4    0.15    0.42
   3   5   3   -0.29    0.38
   3   5   3   -0.14    0.48
  -3  -5  -3    0.22    0.46
   4   5   2    4.89    0.70
   4   5   2    4.98    0.66
  -4  -5  -2    4.57    0.98
   5   5   1    1.03    0.42
  -5  -5  -1    0.95    0.74
   6   5   0    0.94    0.44
  -6  -5   0    1.57    0.83
  -7  -5   1   -0.22    0.76
  -6   4  12    0.01    0.84
  -5   4  11    0.60    0.82
  -4   4  10    0.81    0.75
  -4   4  10    0.28    0.76
  -3   4   9    0.11    0.63
  -3   4   9    0.09    0.74
  -2   4   8    2.73    0.81
  -2   4   8    2.22    0.82
  -1   4   7    1.80    0.69
  -1   4   7    1.20    0.67
   0   4   6    6.22    0.91
   0   4   6    6.09    0.69
   1   4   5    0.45    0.31
   1   4   5    0.59    0.56
   2   4   4    4.55    0.75
  -2  -4  -4    4.31    0.71
   3   4   3    0.29    0.36
  -3  -4  -3    0.39    0.50
   4   4   2    1.48    0.40
  -4  -4  -2    1.29    0.69
   5   4   1    0.86    0.38
  -5  -4  -1    0.33    0.60
   6   4   0    0.65    0.39
  -6  -4   0    0.07    0.73
  -7  -4   1    0.60    0.83
  -8  -4   2   -0.13    0.87
  -5   3  11    2.63    1.00
  -5   3  11    3.55    1.00
  -4   3  10    0.13    0.79
  -4   3  10    1.03    0.79
  -3   3   9   -0.19    0.66
  -3   3   9    0.02    0.67
  -2   3   8    0.77    0.66
  -2   3   8    1.73    0.82
  -1   3   7   29.49    1.77
  -1   3   7   28.85    1.62
   0   3   6   61.25    2.53
   0   3   6   60.03    2.51
   1   3   5   26.36    1.29
   1   3   5   30.49    1.51
  -2  -3  -4    0.41    0.49
  -3  -3  -3    4.48    0.84
   4   3   2    0.52    0.35
  -4  -3  -2    0.06    0.61
   5   3   1   11.98    0.87
  -5  -3  -1   14.67    1.56
  -6  -3   0    6.21    1.25
  -7  -3   1    0.73    0.80
  -8  -3   2    0.48    0.92
  -6   2  12   -0.05    0.81
  -5   2  11   -0.03    0.77
  -5   2  11    1.82    0.84
  -4   2  10    0.99    0.76
  -4   2  10    0.34    0.76
  -3   2   9    4.70    0.89
  -3   2   9    5.64    1.19
  -2   2   8    1.98    0.85
  -2   2   8    2.09    0.66
  -1   2   7    1.67    0.72
  -1   2   7    2.26    0.64
   0   2   6   38.63    1.82
   0   2   6   38.44    1.86
   1   2   5   12.36    0.80
   2   2   4    1.62    0.38
  -2  -2  -4    2.26    0.61
  -3  -2  -3   -0.06    0.50
   4   2   2    3.00    0.43
  -4  -2  -2    2.39    0.82
   5   2   1    3.86    0.48
  -5  -2  -1    4.15    1.01
  -6  -2   0    7.69    1.40
  -7  -2   1    0.72    0.83
  -8  -2   2    0.37    0.81
  -6   1  12    0.81    0.91
  -5   1  11    0.76    0.84
  -4   1  10   -0.03    0.76
  -4   1  10   -0.71    0.59
  -3   1   9    5.65    0.92
  -3   1   9    6.11    1.25
  -2   1   8   17.94    1.83
  -2   1   8   19.94    1.29
  -1   1   7    0.15    0.39
  -1   1   7    0.05    0.61
   0   1   6    3.14    0.63
   1   1   5    2.48    0.46
   2   1   4  121.54    4.52
  -3  -1  -3    0.01    0.53
   4   1   2   13.98    0.74
  -4  -1  -2   11.66    1.26
   5   1   1    4.75    0.47
  -5  -1  -1    3.71    1.01
  -6  -1   0   -0.14    0.67
  -7  -1   1   -0.53    0.61
  -8  -1   2    0.28    0.83
  -6   0  12   -0.02    0.78
  -5   0  11    3.68    1.15
  -4   0  10    1.99    0.99
  -4   0  10    1.60    0.72
  -3   0   9    0.71    0.98
  -3   0   9    0.52    0.59
  -2   0   8    8.19    1.31
  -2   0   8    7.70    0.84
  -1   0   7    1.87    0.56
  -1   0   7    2.15    0.78
   0   0   6    2.67    0.61
   1   0   5    4.64    0.60
   2   0   4    8.66    0.74
  -3   0  -3   25.61    1.66
   4   0   2   41.91    1.50
  -4   0  -2   43.37    2.38
  -5   0  -1   14.42    1.49
  -6   0   0    0.27    0.68
  -7   0   1   -0.17    0.64
  -8   0   2    1.03    0.84
  -6  -1  12    0.66    0.97
  -5  -1  11    0.21    0.78
  -4  -1  10    0.78    0.93
  -3  -1   9    1.16    0.57
  -3  -1   9    1.02    1.00
  -2  -1   8    9.62    1.48
  -2  -1   8   12.57    1.07
  -1  -1   7    3.12    0.89
   0  -1   6   17.00    1.27
   1  -1   5   17.82    1.16
   2  -1   4   11.29    0.85
  -3   1  -3   10.57    1.14
   4  -1   2    0.42    0.16
  -4   1  -2    0.43    0.58
  -5   1  -1    1.67    0.56
  -5   1  -1    1.66    0.79
  -6   1   0   17.78    1.75
  -6   1   0   24.02    1.43
  -7   1   1    1.27    0.56
  -7   1   1    0.94    0.80
  -8   1   2    2.25    0.98
  -6  -2  12    0.42    0.89
  -5  -2  11    0.70    0.99
  -4  -2  10   -0.08    0.86
  -3  -2   9    0.04    0.48
  -3  -2   9   -0.29    0.99
  -2  -2   8   10.21    1.56
  -2  -2   8   11.47    0.93
  -1  -2   7   24.76    1.85
   0  -2   6    5.92    0.87
   1  -2   5    0.63    0.49
   2  -2   4    8.54    0.76
   3  -2   3   39.68    1.79
  -3   2  -3   37.83    1.87
  -3   2  -3   38.52    2.15
  -4   2  -2    7.61    1.07
  -5   2  -1    4.37    0.93
  -5   2  -1    6.26    0.86
  -6   2   0   22.55    1.87
  -6   2   0   21.64    1.45
  -7   2   1    0.75    0.52
  -7   2   1    0.81    0.75
  -8   2   2   -0.10    0.68
  -6  -3  12    0.30    0.86
  -5  -3  11   -0.25    0.79
  -4  -3  10   -0.40    0.82
  -3  -3   9    7.95    0.81
  -3  -3   9    7.80    1.56
  -2  -3   8    1.36    0.46
  -2  -3   8    0.47    0.90
  -1  -3   7    2.24    0.96
   0  -3   6   26.90    1.70
   1  -3   5   16.22    1.14
   2  -3   4   33.17    1.61
   3  -3   3   -0.25    0.24
  -3   3  -3    0.77    0.53
  -4   3  -2   19.18    1.46
  -4   3  -2   17.84    1.27
  -5   3  -1    0.77    0.50
  -5   3  -1    0.65    0.61
  -6   3   0   10.93    1.44
  -6   3   0   11.27    1.06
  -7   3   1   -0.33    0.45
  -7   3   1   -0.13    0.62
  -8   3   2   -0.36    0.68
  -6  -4  12    0.42    0.90
  -5  -4  11    1.25    1.03
  -4  -4  10    1.40    0.95
  -3  -4   9    4.92    1.37
  -2  -4   8    5.02    1.36
  -1  -4   7    3.47    1.06
   0  -4   6   -0.65    0.50
   1  -4   5   -0.18    0.34
  -2   4  -4    7.17    0.85
   3  -4   3    0.11    0.29
  -3   4  -3    2.54    0.68
   4  -4   2    1.92    0.48
  -4   4  -2    1.70    0.62
  -4   4  -2    1.19    0.55
  -5   4  -1    5.83    1.00
  -5   4  -1    6.88    0.96
  -6   4   0    1.25    0.64
  -6   4   0    0.51    0.52
  -7   4   1   -0.29    0.58
  -7   4   1   -0.43    0.43
  -8   4   2    0.47    0.56
  -8   4   2    0.98    0.79
  -5  -5  11    0.36    0.99
  -4  -5  10    1.39    1.07
  -3  -5   9   -0.35    0.98
  -2  -5   8    4.98    1.35
  -1  -5   7   -1.01    0.75
   0  -5   6   -0.12    0.68
   0   5  -6    3.23    0.51
  -1   5  -5    5.69    0.55
  -1   5  -5    5.65    0.74
   2  -5   4   30.24    1.62
  -2   5  -4   32.32    1.71
   3  -5   3    9.28    0.83
  -3   5  -3    7.91    0.98
   4  -5   2   12.50    0.93
  -4   5  -2   11.94    1.13
  -5   5  -1    3.76    0.82
  -5   5  -1    3.16    0.75
  -6   5   0   -0.19    0.53
  -6   5   0    1.50    0.64
  -7   5   1    0.43    0.59
  -7   5   1    1.08    0.58
  -8   5   2    0.86    0.62
  -8   5   2    0.92    0.75
  -5  -6  11    0.25    1.01
  -4  -6  10    0.65    0.97
  -3  -6   9    0.86    0.99
  -2  -6   8   -0.01    1.04
   2   6  -8    0.29    0.42
  -1  -6   7   -0.44    0.83
   1   6  -7    0.46    0.41
   0  -6   6    1.54    0.89
   0   6  -6    1.74    0.45
   1  -6   5    4.05    0.90
  -1   6  -5    3.05    0.64
  -1   6  -5    4.18    0.49
   2  -6   4    0.62    0.58
  -2   6  -4   -0.10    0.44
  -2   6  -4   -0.13    0.24
   3  -6   3    1.93    0.58
  -3   6  -3    1.30    0.61
   4  -6   2   -0.54    0.41
  -4   6  -2   -0.12    0.46
   5  -6   1    1.50    0.48
  -5   6  -1    0.28    0.52
  -6   6   0    1.04    0.62
  -6   6   0    0.15    0.52
  -7   6   1    1.02    0.67
  -7   6   1   -0.12    0.58
  -8   6   2   -0.70    0.52
  -8   6   2    0.16    0.67
  -5  -7  11    0.69    1.13
  -4  -7  10    0.35    1.02
  -3  -7   9    1.01    1.03
   3   7  -9   -0.19    0.41
  -2  -7   8   -0.12    1.00
   2   7  -8    0.11    0.41
  -1  -7   7   -0.96    0.87
   1   7  -7    0.78    0.40
   0  -7   6   -0.03    0.89
   0   7  -6    0.23    0.38
   1  -7   5    1.13    0.81
  -1   7  -5    1.64    0.42
  -1   7  -5    1.60    0.55
   2  -7   4    0.28    0.64
  -2   7  -4    0.09    0.30
  -2   7  -4    0.30    0.50
   3  -7   3   20.48    1.38
  -3   7  -3   20.91    1.48
   4  -7   2    2.54    0.58
  -4   7  -2    2.33    0.73
   5  -7   1    6.18    0.79
  -5   7  -1    5.02    0.96
   6  -7   0   -0.20    0.36
  -6   7   0    0.05    0.55
  -7   7   1   -0.24    0.53
  -7   7   1   -0.38    0.50
  -4  -8  10    1.00    1.00
  -3  -8   9   -0.47    0.86
   3   8  -9   -0.24    0.42
  -2  -8   8   -0.52    0.95
   2   8  -8    0.07    0.37
  -1  -8   7    2.31    1.10
   1   8  -7    1.78    0.51
   0  -8   6   -0.31    0.89
   0   8  -6    0.70    0.44
   1  -8   5    1.16    0.84
  -1   8  -5    0.01    0.40
  -1   8  -5   -0.13    0.43
   2  -8   4    8.06    1.12
  -2   8  -4    8.33    1.02
   3  -8   3    5.02    0.85
  -3   8  -3    4.57    0.93
   4  -8   2   -0.27    0.48
  -4   8  -2   -0.22    0.48
   5  -8   1    2.15    0.58
  -5   8  -1    1.54    0.78
  -6   8   0    0.38    0.67
  -4  -9  10    0.50    1.07
  -3  -9   9    0.57    0.98
   3   9  -9   -0.75    0.33
  -2  -9   8   -0.11    0.88
   2   9  -8   -0.42    0.38
  -1  -9   7   -0.64    0.90
   1   9  -7    0.58    0.45
   0  -9   6    1.11    1.00
   0   9  -6    1.15    0.51
   1  -9   5   -0.12    0.81
  -1   9  -5    0.48    0.50
  -1   9  -5    0.03    0.39
   2  -9   4    1.69    0.86
  -2   9  -4    1.64    0.64
   3  -9   3    5.31    0.96
  -3   9  -3    6.62    1.08
  -4   9  -2    0.55    0.61
  -5   9  -1    3.15    0.91
  -6   9   0    1.00    0.74
  -3 -10   9   -0.17    1.03
   3  10  -9    0.67    0.53
  -2 -10   8   -0.12    0.93
   2  10  -8   -0.01    0.41
  -1 -10   7   -0.24    0.89
   1  10  -7   -0.31    0.38
   0 -10   6   -0.76    0.80
   0  10  -6    0.07    0.43
  -1  10  -5    3.29    0.65
  -1  10  -5    2.31    0.66
  -2  10  -4    4.40    0.89
  -3  10  -3    0.32    0.59
  -4  10  -2    0.53    0.64
  -5  10  -1    0.67    0.68
   2  11  -8    0.81    0.58
   1  11  -7   -0.19    0.45
   0  11  -6    0.54    0.52
  -2  11  -4    3.54    0.85
  -3  11  -3    0.21    0.57
  -4  11  -2    0.52    0.63
   1  12  -7    0.45    0.53
  -2  12  -4    0.28    0.58
  -3  12  -3    1.16    0.73
  -1  11   8   -0.34    0.78
   0  11   7   -0.54    0.72
   1  11   6    0.14    0.45
   1  11   6    0.80    0.77
   2  11   5    1.04    0.57
   3  11   4    0.66    0.54
  -2  10   9    0.40    0.85
  -1  10   8    3.59    1.10
   0  10   7    1.15    0.88
   1  10   6    1.30    0.83
   2  10   5    0.89    0.52
   3  10   4    0.11    0.42
   4  10   3    0.79    0.51
  -2   9   9    2.23    0.96
  -1   9   8    0.82    0.89
   0   9   7    1.10    0.88
   1   9   6    0.26    0.73
   2   9   5    0.37    0.68
   2   9   5   -0.07    0.41
   3   9   4    2.31    0.60
   4   9   3    0.18    0.45
   5   9   2    0.22    0.41
  -3   8  10   -0.33    0.74
  -2   8   9    2.40    0.98
  -1   8   8   -0.62    0.69
   0   8   7   -0.41    0.63
   1   8   6   -0.17    0.70
   2   8   5    0.05    0.65
   3   8   4    0.64    0.48
   4   8   3    0.11    0.39
   5   8   2    0.97    0.47
   6   8   1    0.28    0.47
  -4   7  11   -1.06    0.63
  -3   7  10    4.86    1.12
  -2   7   9    0.21    0.80
  -1   7   8    0.19    0.70
   0   7   7    0.69    0.78
   1   7   6    1.13    0.70
   2   7   5    5.61    0.94
   3   7   4    0.20    0.41
   3   7   4    1.28    0.63
   4   7   3    0.40    0.44
   5   7   2    1.04    0.43
  -5  -7  -2    2.07    0.87
   6   7   1    1.96    0.59
  -6  -7  -1    1.69    0.92
  -5   6  12   -0.17    0.81
  -4   6  11    0.46    0.77
  -3   6  10    0.46    0.78
  -2   6   9   -0.43    0.62
  -1   6   8   -0.10    0.64
   0   6   7    1.61    0.81
   1   6   6    1.44    0.73
   2   6   5    8.50    0.72
   2   6   5    8.10    1.02
   3   6   4    9.28    1.00
   3   6   4    9.31    0.85
  -3  -6  -4    9.18    0.98
   4   6   3    0.66    0.51
   4   6   3    0.38    0.42
  -4  -6  -3    1.40    0.69
   5   6   2    0.34    0.38
  -5  -6  -2    0.58    0.70
   6   6   1    0.59    0.42
  -6  -6  -1    0.92    0.86
  -7  -6   0    0.35    0.87
  -5   5  12    2.08    1.01
  -4   5  11    0.23    0.76
  -3   5  10    0.73    0.78
  -2   5   9   -0.06    0.72
  -1   5   8    1.49    0.79
   0   5   7    8.58    0.89
   0   5   7    8.35    1.08
   1   5   6   79.14    3.26
   1   5   6   83.79    3.21
   2   5   5   16.36    0.95
   2   5   5   15.64    1.28
   3   5   4   24.72    1.55
  -3  -5  -4   25.21    1.59
   4   5   3    3.05    0.57
   4   5   3    2.25    0.63
  -4  -5  -3    3.20    0.83
   5   5   2    4.18    0.60
  -5  -5  -2    3.69    0.96
   6   5   1    0.47    0.38
  -6  -5  -1   -0.01    0.68
  -7  -5   0   -0.07    0.76
  -5   4  12    1.31    0.88
  -4   4  11    1.52    0.86
  -3   4  10   -0.47    0.68
  -3   4  10   -0.04    0.71
  -2   4   9    1.55    0.78
  -2   4   9    0.86    0.73
  -1   4   8    1.48    0.74
  -1   4   8    1.01    0.65
   0   4   7    0.61    0.61
   0   4   7   -0.28    0.49
   1   4   6   31.01    1.76
   1   4   6   29.85    1.47
   2   4   5   16.76    1.29
   2   4   5   16.59    0.98
  -3  -4  -4    3.73    0.77
   4   4   3    0.52    0.38
  -4  -4  -3   -0.10    0.50
   5   4   2    2.94    0.52
  -5  -4  -2    4.13    0.99
  -6  -4  -1    0.12    0.62
  -7  -4   0    0.14    0.66
  -5   3  12    3.59    1.03
  -4   3  11   -0.16    0.76
  -4   3  11   -0.73    0.60
  -3   3  10    0.41    0.70
  -3   3  10    0.80    0.79
  -2   3   9   12.23    1.21
  -2   3   9   11.39    1.44
  -1   3   8    8.83    1.12
  -1   3   8    7.11    0.97
   0   3   7   57.55    2.51
   0   3   7   55.75    2.51
   1   3   6    5.74    0.80
   1   3   6    5.16    0.62
   2   3   5    2.40    0.47
  -3  -3  -4    1.94    0.65
   4   3   3    0.16    0.31
  -4  -3  -3   -0.09    0.51
   5   3   2    0.22    0.32
  -5  -3  -2   -0.01    0.64
  -6  -3  -1    0.50    0.74
  -7  -3   0    1.66    0.94
  -8  -3   1   -0.06    0.79
  -6   2  13    1.10    0.98
  -5   2  12    0.99    0.75
  -5   2  12   -0.28    0.75
  -4   2  11    1.25    0.91
  -4   2  11   -0.07    0.68
  -3   2  10    1.81    0.94
  -3   2  10    1.92    0.79
  -2   2   9   31.41    1.77
  -2   2   9   29.08    2.19
  -1   2   8   -0.20    0.67
  -1   2   8   -0.63    0.47
   0   2   7    5.36    0.79
   0   2   7    5.31    0.77
   1   2   6    8.54    0.82
   2   2   5    2.23    0.47
  -3  -2  -4   -0.08    0.49
   4   2   3    0.07    0.29
  -4  -2  -3   -0.31    0.46
   5   2   2    0.42    0.29
  -5  -2  -2   -0.09    0.56
  -6  -2  -1    5.47    1.19
  -7  -2   0    1.98    0.93
  -8  -2   1    0.11    0.76
  -6   1  13    0.30    0.78
  -5   1  12    0.27    0.84
  -4   1  11   -0.50    0.62
  -4   1  11    0.10    0.89
  -3   1  10    0.61    0.87
  -3   1  10    0.11    0.62
  -2   1   9    0.61    0.58
  -2   1   9    0.75    0.90
  -1   1   8    2.18    0.81
  -1   1   8    0.02    0.45
   0   1   7    4.33    0.72
   1   1   6   11.58    0.88
   2   1   5    2.18    0.47
  -3  -1  -4    0.06    0.51
   4   1   3    0.49    0.27
  -4  -1  -3    0.43    0.61
  -5  -1  -2    6.48    1.15
  -6  -1  -1    1.35    0.82
  -7  -1   0   -0.43    0.72
  -8  -1   1    0.31    0.78
  -6   0  13    1.23    0.94
  -5   0  12   -0.06    0.77
  -4   0  11    0.01    0.86
  -4   0  11   -0.05    0.65
  -3   0  10    2.85    0.72
  -3   0  10    0.69    0.93
  -2   0   9    1.59    0.59
  -2   0   9    1.58    0.93
  -1   0   8    0.35    0.49
  -1   0   8    1.01    0.75
   0   0   7    0.60    0.56
   1   0   6    4.97    0.67
   2   0   5   13.05    0.97
   3   0   4   15.72    1.00
  -3   0  -4   15.14    1.38
   4   0   3   -0.17    0.22
  -4   0  -3   -0.06    0.55
  -5   0  -2    0.39    0.64
  -6   0  -1    8.48    1.37
  -7   0   0   -0.27    0.60
  -8   0   1   -0.49    0.65
  -6  -1  13   -0.17    0.90
  -5  -1  12    0.23    0.89
  -4  -1  11    0.19    0.83
  -3  -1  10   -0.01    0.88
  -3  -1  10   -0.20    0.50
  -2  -1   9    0.09    0.94
  -2  -1   9    0.48    0.50
  -1  -1   8    1.35    0.83
   0  -1   7    7.32    0.94
   1  -1   6    0.90    0.50
   2  -1   5    7.17    0.76
   3  -1   4    7.03    0.80
  -4   1  -3   19.22    1.49
  -5   1  -2    0.03    0.62
  -6   1  -1    0.90    0.75
  -7   1   0    0.99    0.71
  -8   1   1    0.28    0.73
  -5  -2  12    0.16    0.90
  -4  -2  11    0.50    0.95
  -3  -2  10    0.88    0.51
  -3  -2  10    0.07    0.83
  -2  -2   9    3.66    0.66
  -2  -2   9    3.12    1.15
  -1  -2   8    7.67    1.22
   0  -2   7   31.66    1.88
   1  -2   6   29.06    1.66
   2  -2   5   10.98    0.92
   3  -2   4    0.30    0.41
  -4   2  -3    0.18    0.54
  -5   2  -2   33.16    1.82
  -5   2  -2   33.47    2.15
  -6   2  -1    1.30    0.53
  -6   2  -1    1.75    0.75
  -7   2   0    0.17    0.66
  -7   2   0    0.24    0.50
  -8   2   1    1.42    0.93
  -5  -3  12   -0.20    0.78
  -4  -3  11   -0.47    0.81
  -3  -3  10    1.16    1.02
  -2  -3   9   40.73    1.82
  -2  -3   9   42.52    2.94
  -1  -3   8    0.98    0.86
   0  -3   7    3.32    0.82
   1  -3   6    4.50    0.81
   2  -3   5    7.58    0.84
   3  -3   4    0.53    0.44
   4  -3   3   18.23    1.18
  -4   3  -3   19.13    1.48
  -4   3  -3   16.73    1.26
  -5   3  -2   11.56    1.09
  -5   3  -2   12.83    1.30
  -6   3  -1    1.40    0.68
  -6   3  -1    1.01    0.53
  -7   3   0    0.60    0.53
  -7   3   0    0.15    0.63
  -8   3   1    0.18    0.69
  -5  -4  12    0.55    0.89
  -4  -4  11    0.16    0.85
  -3  -4  10    3.87    1.21
  -2  -4   9    8.75    1.57
  -1  -4   8    0.49    0.92
   0  -4   7    1.34    0.77
   1  -4   6    0.87    0.62
   2  -4   5    0.90    0.49
   3  -4   4    7.58    0.82
  -3   4  -4    6.92    0.89
   4  -4   3    1.49    0.52
  -4   4  -3    1.56    0.62
  -5   4  -2    6.98    0.97
  -5   4  -2    7.72    1.13
  -6   4  -1    1.02    0.56
  -6   4  -1    0.18    0.50
  -7   4   0    0.06    0.45
  -7   4   0    0.01    0.66
  -8   4   1    0.43    0.72
  -8   4   1    0.32    0.58
  -5  -5  12    0.33    1.01
  -4  -5  11    0.37    0.92
  -3  -5  10    4.32    1.26
  -2  -5   9   10.58    1.73
  -1  -5   8    0.91    0.98
   0  -5   7    0.78    0.77
   1  -5   6   11.50    1.21
   2  -5   5   10.06    1.10
  -2   5  -5   12.30    1.09
   3  -5   4    8.45    0.94
  -3   5  -4    7.25    0.97
   4  -5   3    9.36    0.90
  -4   5  -3   10.64    1.19
   5  -5   2    1.88    0.51
  -5   5  -2    1.99    0.69
  -6   5  -1    0.27    0.54
  -6   5  -1    0.21    0.48
  -7   5   0    0.16    0.61
  -7   5   0    0.08    0.51
  -8   5   1    0.18    0.71
  -8   5   1    0.20    0.59
  -5  -6  12   -0.20    1.01
  -4  -6  11   -0.37    0.89
  -3  -6  10   -0.32    0.91
  -2  -6   9    2.16    1.12
  -1  -6   8   -0.79    0.86
   0  -6   7    7.70    1.28
   1  -6   6    9.08    1.17
   2  -6   5   -0.64    0.56
  -2   6  -5   -0.04    0.48
   3  -6   4    1.83    0.62
  -3   6  -4    2.31    0.68
   4  -6   3    7.50    0.88
  -4   6  -3    7.55    1.02
   5  -6   2    0.69    0.46
  -5   6  -2    1.18    0.59
   6  -6   1    1.03    0.45
  -6   6  -1    1.26    0.60
  -7   6   0   -0.11    0.50
  -7   6   0   -0.06    0.53
  -4  -7  11    0.87    1.06
  -3  -7  10   -0.72    0.89
  -2  -7   9   -0.06    0.93
  -1  -7   8   -0.13    0.88
   1   7  -8   -0.02    0.42
   0  -7   7    0.24    0.84
   0   7  -7    0.85    0.43
   1  -7   6   12.54    1.35
  -1   7  -6   12.80    0.89
   2  -7   5    1.64    0.73
  -2   7  -5    1.73    0.60
   3  -7   4    9.51    1.08
  -3   7  -4   10.58    1.20
   4  -7   3    0.83    0.54
  -4   7  -3    0.19    0.54
   5  -7   2    2.54    0.64
  -5   7  -2    2.19    0.75
   6  -7   1    0.47    0.46
  -6   7  -1    1.40    0.66
   7  -7   0    0.50    0.46
  -7   7   0    0.32    0.57
  -4  -8  11    0.36    1.07
  -3  -8  10   -0.16    0.88
  -2  -8   9    0.00    0.98
   2   8  -9    1.26    0.51
  -1  -8   8    0.11    0.99
   1   8  -8    0.79    0.45
   0  -8   7   -0.04    0.82
   0   8  -7    0.34    0.38
   1  -8   6    2.48    0.90
  -1   8  -6    3.55    0.55
  -1   8  -6    3.14    0.68
   2  -8   5   -0.10    0.70
  -2   8  -5    0.85    0.53
   3  -8   4    4.47    0.86
  -3   8  -4    4.22    0.84
   4  -8   3    0.33    0.55
  -4   8  -3    0.46    0.52
   5  -8   2    0.74    0.54
  -5   8  -2    0.51    0.55
  -6   8  -1    0.25    0.58
  -3  -9  10   -0.95    0.92
  -2  -9   9   -0.54    0.92
   2   9  -9    0.25    0.44
  -1  -9   8   -0.92    0.91
   1   9  -8    0.61    0.44
   0  -9   7    0.62    0.95
   0   9  -7   -0.25    0.37
   1  -9   6    4.45    1.18
  -1   9  -6    4.44    0.78
   2  -9   5    2.30    0.91
  -2   9  -5    1.36    0.61
   3  -9   4    2.27    0.84
  -3   9  -4    1.82    0.76
  -4   9  -3    2.83    0.81
  -5   9  -2    0.01    0.58
  -2 -10   9    2.18    1.17
   2  10  -9    1.29    0.58
  -1 -10   8   -1.71    0.73
   1  10  -8   -0.13    0.42
   0 -10   7   -0.15    0.83
   0  10  -7    0.45    0.44
   1 -10   6    3.28    1.19
  -1  10  -6    4.47    0.82
  -2  10  -5   -0.03    0.46
  -3  10  -4   -0.28    0.55
  -4  10  -3    1.15    0.65
  -5  10  -2   -0.38    0.49
   1  11  -8   -0.29    0.46
  -2  11  -5   -0.17    0.53
  -3  11  -4    1.49    0.73
  -4  11  -3    0.42    0.64
  -2  12  -5   -0.01    0.59
  -3  12  -4   -0.22    0.58
   1  11   7    1.04    0.86
  -1  10   9    0.87    0.86
   0  10   8   -0.27    0.80
   1  10   7    1.01    0.90
   2  10   6    0.72    0.52
   3  10   5    1.93    0.62
   4  10   4    0.27    0.45
  -2   9  10   -0.56    0.69
  -1   9   9   -0.50    0.70
   0   9   8    0.90    0.89
   1   9   7   -0.18    0.73
   2   9   6    0.36    0.72
   3   9   5    1.30    0.52
   4   9   4    1.61    0.57
   5   9   3    0.50    0.45
  -2   8  10    0.12    0.71
  -1   8   9   -0.06    0.70
   0   8   8   -0.14    0.77
   1   8   7    0.81    0.76
   2   8   6   -0.04    0.65
   3   8   5   -0.47    0.35
   3   8   5   -0.16    0.57
   4   8   4    0.11    0.44
   5   8   3    0.92    0.49
  -3   7  11    0.02    0.76
  -2   7  10    0.99    0.80
  -1   7   9    0.21    0.76
   0   7   8    2.26    0.84
   1   7   7    2.31    0.85
   2   7   6    2.96    0.80
   3   7   5    8.28    0.84
   3   7   5    7.27    1.01
   4   7   4    2.50    0.57
   5   7   3    0.48    0.40
  -6  -7  -2    0.45    0.77
  -4   6  12    1.51    0.95
  -3   6  11    1.24    0.85
  -2   6  10    0.24    0.81
  -1   6   9    0.06    0.68
   0   6   8    0.41    0.68
   1   6   7    1.12    0.71
   2   6   6    1.01    0.65
   3   6   5    2.35    0.68
   3   6   5    1.81    0.43
   4   6   4    5.99    0.78
   4   6   4    6.53    0.89
  -4  -6  -4    6.34    1.03
   5   6   3    1.04    0.45
  -5  -6  -3    1.26    0.73
  -6  -6  -2    2.75    0.92
  -7  -6  -1    0.73    0.82
  -4   5  12    2.89    1.03
  -3   5  11    1.36    0.82
  -2   5  10   -0.02    0.66
  -1   5   9   -0.03    0.62
   0   5   8   13.24    1.27
   0   5   8   13.00    1.22
   1   5   7   30.51    1.60
   1   5   7   31.77    1.86
   2   5   6   44.94    1.96
   2   5   6   42.55    2.14
   3   5   5    0.08    0.55
   3   5   5    0.01    0.34
  -3  -5  -5    0.50    0.49
   4   5   4   10.37    0.90
   4   5   4    9.29    1.04
  -4  -5  -4   10.25    1.19
   5   5   3    0.13    0.34
  -5  -5  -3   -0.31    0.51
  -6  -5  -2    4.24    1.12
  -7  -5  -1   -0.49    0.77
  -5   4  13    0.69    0.85
  -4   4  12    0.14    0.72
  -3   4  11    0.73    0.73
  -2   4  10    1.03    0.73
  -2   4  10    0.10    0.70
  -1   4   9    0.51    0.66
  -1   4   9   -0.12    0.66
   0   4   8   59.76    2.73
   0   4   8   60.82    2.69
   1   4   7   34.85    1.90
   1   4   7   35.63    1.77
   2   4   6    3.62    0.76
   2   4   6    3.77    0.56
   3   4   5    3.35    0.74
   3   4   5    2.71    0.53
  -3  -4  -5    2.53    0.69
   4   4   4    3.65    0.57
  -4  -4  -4    4.53    0.90
   5   4   3    0.01    0.31
  -5  -4  -3    0.14    0.64
  -6  -4  -2    4.22    1.07
  -7  -4  -1    1.14    0.84
  -5   3  13    0.46    0.82
  -4   3  12    0.45    0.78
  -4   3  12   -0.07    0.75
  -3   3  11   -0.38    0.66
  -3   3  11    0.10    0.77
  -2   3  10    1.31    0.90
  -2   3  10    1.30    0.72
  -1   3   9    4.60    0.88
  -1   3   9    4.00    0.95
   0   3   8    5.79    0.92
   0   3   8    4.37    0.81
   1   3   7   20.35    1.38
   1   3   7   20.88    1.28
   2   3   6    0.57    0.41
   3   3   5    0.58    0.40
   4   3   4    5.11    0.62
  -4  -3  -4    5.59    1.01
   5   3   3   -0.07    0.30
  -5  -3  -3    0.05    0.55
  -6  -3  -2    2.27    0.91
  -7  -3  -1    2.29    0.98
  -5   2  13    0.84    0.83
  -4   2  12    0.22    0.84
  -4   2  12    0.35    0.72
  -3   2  11    2.92    0.84
  -3   2  11    2.24    1.00
  -2   2  10    0.09    0.81
  -2   2  10    0.25    0.55
  -1   2   9    1.20    0.63
  -1   2   9    0.94    0.79
   0   2   8    1.66    0.67
   0   2   8    1.28    0.63
   1   2   7    1.71    0.53
   2   2   6    4.30    0.63
   3   2   5   -0.01    0.39
   4   2   4   20.73    1.07
  -4  -2  -4   20.79    1.59
  -5  -2  -3    1.24    0.71
  -6  -2  -2   15.57    1.63
  -7  -2  -1    0.54    0.73
  -8  -2   0    1.62    0.98
  -5   1  13    0.26    0.86
  -4   1  12    1.01    0.86
  -4   1  12    1.98    0.83
  -3   1  11   -0.50    0.79
  -3   1  11    0.46    0.61
  -2   1  10    0.40    0.58
  -2   1  10    0.64    0.88
  -1   1   9   -0.37    0.55
  -1   1   9   -0.30    0.76
   0   1   8    0.22    0.55
   0   1   8   -0.49    0.45
   1   1   7    9.14    0.91
   2   1   6    0.11    0.43
   3   1   5   -0.14    0.37
   4   1   4    6.54    0.57
  -4  -1  -4    7.76    1.08
  -5  -1  -3    5.31    1.06
  -6  -1  -2    8.00    1.34
  -7  -1  -1    2.54    0.99
  -8  -1   0    0.75    0.81
  -5   0  13    0.22    0.88
  -4   0  12   -1.31    0.73
  -3   0  11   -0.32    0.52
  -3   0  11   -0.85    0.81
  -2   0  10    0.59    0.53
  -2   0  10    0.20    0.85
  -1   0   9    0.17    0.53
  -1   0   9    0.02    0.75
   0   0   8    0.27    0.61
   1   0   7   27.74    1.62
   2   0   6    1.83    0.51
   3   0   5    9.25    0.87
  -4   0  -4    1.60    0.70
  -5   0  -3    7.21    1.19
  -6   0  -2    0.69    0.74
  -7   0  -1   -0.04    0.70
  -8   0   0    0.36    0.69
  -5  -1  13    0.87    1.01
  -4  -1  12   -0.13    0.75
  -3  -1  11    0.11    0.89
  -3  -1  11    0.07    0.50
  -2  -1  10   -0.42    0.48
  -2  -1  10   -0.39    0.90
  -1  -1   9    0.41    0.50
  -1  -1   9   -0.24    0.77
   0  -1   8    3.27    0.82
   1  -1   7   10.13    1.02
   2  -1   6   -0.24    0.44
   3  -1   5    0.42    0.47
   4  -1   4   13.48    1.00
  -4   1  -4   12.85    1.29
  -5   1  -3   21.40    1.77
  -6   1  -2    0.41    0.60
  -7   1  -1    0.11    0.63
  -8   1   0   -0.02    0.64
  -5  -2  13    0.97    1.00
  -4  -2  12    1.35    1.00
  -3  -2  11   -0.15    0.45
  -3  -2  11    0.78    0.96
  -2  -2  10   12.66    1.06
  -2  -2  10   11.23    1.64
  -1  -2   9   13.94    1.60
   0  -2   8    7.90    1.09
   1  -2   7    1.06    0.65
   2  -2   6    2.17    0.59
   3  -2   5    2.86    0.61
   4  -2   4    2.62    0.60
  -5   2  -3    4.43    0.95
  -6   2  -2    0.40    0.59
  -7   2  -1    1.06    0.71
  -8   2   0    1.26    0.87
  -5  -3  13   -0.33    0.85
  -4  -3  12    1.56    1.02
  -3  -3  11    5.33    1.45
  -2  -3  10    4.47    1.29
  -2  -3  10    5.55    0.75
  -1  -3   9    0.80    0.90
   0  -3   8   11.90    1.35
   1  -3   7    1.29    0.71
   2  -3   6    1.73    0.61
   3  -3   5    0.51    0.50
   4  -3   4    0.23    0.51
  -5   3  -3    5.92    0.91
  -5   3  -3    6.14    1.08
  -6   3  -2    4.53    0.82
  -6   3  -2    4.55    1.00
  -7   3  -1    3.31    0.81
  -7   3  -1    1.92    0.81
  -8   3   0    0.11    0.65
  -8   3   0    0.23    0.55
  -5  -4  13    0.17    0.87
  -4  -4  12   -0.15    0.79
  -3  -4  11    0.34    0.92
  -2  -4  10    1.20    0.93
  -2  -4  10    1.14    0.49
  -1  -4   9    4.18    1.15
   0  -4   8    2.10    0.88
   1  -4   7    4.13    0.87
   2  -4   6    4.15    0.78
   3  -4   5   16.27    1.19
   4  -4   4    3.92    0.71
  -4   4  -4    4.30    0.79
   5  -4   3    1.60    0.54
  -5   4  -3    2.12    0.67
  -6   4  -2    1.25    0.69
  -6   4  -2   -0.10    0.46
  -7   4  -1    0.14    0.51
  -7   4  -1   -0.13    0.60
  -8   4   0   -0.08    0.52
  -8   4   0    0.04    0.71
  -4  -5  12   -0.79    0.80
  -3  -5  11    0.67    0.99
  -2  -5  10    0.16    0.94
  -1  -5   9   -1.10    0.80
   0  -5   8    2.84    0.98
   1  -5   7    4.87    0.98
   2  -5   6    5.05    0.89
   3  -5   5   38.08    1.99
  -3   5  -5   36.87    1.99
   4  -5   4   26.00    1.54
  -4   5  -4   24.41    1.63
   5  -5   3   -0.12    0.46
  -5   5  -3    0.71    0.57
   6  -5   2    1.61    0.53
  -6   5  -2    1.12    0.61
  -7   5  -1   -0.29    0.56
  -7   5  -1    0.14    0.52
  -8   5   0    0.20    0.54
  -8   5   0   -0.01    0.66
  -4  -6  12    0.99    1.01
  -3  -6  11   -0.02    0.96
  -2  -6  10   -0.25    0.90
  -1  -6   9    0.59    0.92
   0  -6   8    2.06    0.96
   1  -6   7   10.51    1.35
   2  -6   6    4.95    0.96
   3  -6   5    2.95    0.72
  -3   6  -5    3.55    0.76
   4  -6   4   19.97    1.36
  -4   6  -4   20.96    1.56
   5  -6   3    0.16    0.48
  -5   6  -3    0.88    0.59
   6  -6   2    0.20    0.42
  -6   6  -2   -0.16    0.47
   7  -6   1    0.79    0.49
  -7   6  -1    1.56    0.69
  -4  -7  12   -0.52    0.99
  -3  -7  11   -0.65    0.91
  -2  -7  10   -0.89    0.82
  -1  -7   9   -0.18    0.87
   0  -7   8    2.33    0.99
   1  -7   7    0.26    0.72
   2  -7   6    4.59    0.97
   3  -7   5    0.46    0.63
  -3   7  -5   -0.20    0.49
   4  -7   4    0.19    0.49
  -4   7  -4    0.09    0.49
   5  -7   3    0.85    0.53
  -5   7  -3    0.59    0.57
   6  -7   2   -0.05    0.47
  -6   7  -2    0.28    0.55
   7  -7   1    0.61    0.52
  -3  -8  11   -0.67    0.84
  -2  -8  10   -0.38    0.94
  -1  -8   9    0.36    0.92
   0  -8   8    2.51    1.11
   1  -8   7    2.12    0.99
   2  -8   6    0.46    0.77
  -2   8  -6    0.42    0.52
   3  -8   5    0.31    0.69
  -3   8  -5    0.78    0.56
   4  -8   4    1.54    0.68
  -4   8  -4    1.00    0.61
   5  -8   3    1.02    0.59
  -5   8  -3    0.93    0.59
   6  -8   2    0.59    0.54
  -6   8  -2    0.26    0.59
  -3  -9  11    0.09    0.99
  -2  -9  10    0.99    1.12
  -1  -9   9    0.11    1.01
   0  -9   8   -0.67    0.87
   0   9  -8   -0.14    0.41
   1  -9   7    0.05    0.89
   2  -9   6    0.39    0.83
  -2   9  -6    0.68    0.50
   3  -9   5   -0.15    0.70
  -3   9  -5    0.41    0.56
   4  -9   4   -0.25    0.66
  -4   9  -4    0.16    0.58
  -5   9  -3    1.17    0.67
  -2 -10  10    0.03    1.11
  -1 -10   9   -0.40    1.02
   1  10  -9   -0.01    0.47
   0 -10   8    0.84    1.03
   1 -10   7    1.10    1.03
   2 -10   6    2.65    1.05
  -2  10  -6    2.04    0.70
  -3  10  -5    0.56    0.60
  -4  10  -4    0.23    0.57
  -1 -11   9    0.16    1.08
  -2  11  -6    0.20    0.56
  -3  11  -5   -0.49    0.54
   1  10   8    0.91    0.92
   3  10   6   -0.53    0.39
  -1   9  10    0.32    0.90
   0   9   9    0.24    0.80
   1   9   8    0.28    0.83
   2   9   7    2.29    0.89
   3   9   6    0.45    0.49
   4   9   5    0.57    0.50
  -1   8  10   -0.26    0.79
   0   8   9    0.15    0.73
   1   8   8    1.16    0.84
   2   8   7    2.19    0.82
   3   8   6    0.74    0.71
   3   8   6    0.69    0.48
   4   8   5    1.21    0.53
   5   8   4    0.66    0.47
  -2   7  11   -0.07    0.72
  -1   7  10   -0.27    0.64
   0   7   9    0.42    0.77
   1   7   8    2.66    0.88
   2   7   7    0.48    0.61
   3   7   6   -0.22    0.57
   4   7   5    0.10    0.41
   5   7   4   -0.24    0.33
  -3   6  12    0.48    0.80
  -2   6  11    0.46    0.78
  -1   6  10    0.58    0.70
   0   6   9    1.45    0.73
   1   6   8    0.72    0.68
   2   6   7    0.41    0.67
   3   6   6    3.64    0.81
   4   6   5   -0.18    0.37
   4   6   5    0.18    0.55
  -4  -6  -5    0.18    0.54
   5   6   4   -0.19    0.34
  -5  -6  -4   -0.02    0.60
  -6  -6  -3   -0.28    0.61
  -4   5  13    0.54    0.87
  -3   5  12    0.43    0.78
  -2   5  11    2.60    0.92
  -1   5  10    0.04    0.62
   0   5   9   15.83    1.37
   1   5   8    6.94    0.85
   1   5   8    6.57    0.98
   2   5   7    1.13    0.65
   2   5   7    1.41    0.47
   3   5   6    7.50    1.04
   3   5   6    9.11    0.86
   4   5   5    0.09    0.37
   4   5   5   -0.17    0.52
  -4  -5  -5    0.04    0.54
   5   5   4    0.76    0.42
  -5  -5  -4   -0.15    0.59
  -6  -5  -3    1.21    0.74
  -7  -5  -2    0.38    0.78
  -4   4  13    0.26    0.87
  -3   4  12    0.11    0.72
  -2   4  11    2.83    0.90
  -1   4  10   -0.31    0.69
  -1   4  10    0.73    0.65
   0   4   9    2.14    0.73
   0   4   9    2.48    0.74
   1   4   8    3.06    0.81
   1   4   8    2.79    0.64
   2   4   7    1.61    0.51
   2   4   7    0.90    0.61
   3   4   6    3.58    0.62
   3   4   6    5.10    0.85
   4   4   5    1.35    0.44
  -4  -4  -5    1.05    0.60
  -5  -4  -4    6.32    1.15
  -6  -4  -3    7.66    1.32
  -7  -4  -2    2.59    1.00
  -4   3  13    0.47    0.77
  -3   3  12    1.41    0.75
  -3   3  12    1.26    0.90
  -2   3  11   -0.53    0.61
  -2   3  11    0.31    0.80
  -1   3  10    1.97    0.88
  -1   3  10    2.65    0.78
   0   3   9    3.02    0.82
   0   3   9    2.16    0.71
   1   3   8    2.05    0.72
   1   3   8    1.98    0.63
   2   3   7    6.23    0.78
   3   3   6   -0.08    0.40
   4   3   5   -0.17    0.31
  -4  -3  -5   -0.30    0.48
  -5  -3  -4    0.13    0.53
  -6  -3  -3    1.27    0.76
  -7  -3  -2    2.91    1.02
  -4   2  13   -0.18    0.73
  -4   2  13    0.17    0.75
  -3   2  12    0.42    0.71
  -3   2  12   -0.23    0.76
  -2   2  11    1.05    0.91
  -2   2  11    1.32    0.68
  -1   2  10    9.98    1.12
  -1   2  10   11.84    1.43
   0   2   9    4.43    0.93
   0   2   9    4.70    0.87
   1   2   8    0.02    0.51
   1   2   8    0.38    0.57
   2   2   7    8.92    0.95
   3   2   6    5.21    0.75
   4   2   5    4.72    0.71
  -4  -2  -5    4.56    0.91
  -5  -2  -4   10.07    1.34
  -6  -2  -3    1.38    0.78
  -7  -2  -2   -0.11    0.70
  -5   1  14    0.05    0.92
  -4   1  13    0.49    0.86
  -4   1  13    0.21    0.72
  -3   1  12    1.84    1.01
  -3   1  12    2.14    0.72
  -2   1  11   -0.37    0.52
  -2   1  11   -0.45    0.77
  -1   1  10   -0.06    0.51
  -1   1  10   -0.12    0.76
   0   1   9    2.21    0.66
   0   1   9    2.65    0.84
   1   1   8    0.31    0.60
   2   1   7    0.08    0.46
   3   1   6    6.30    0.83
   4   1   5   17.75    1.19
  -5  -1  -4    4.70    0.99
  -6  -1  -3    6.09    1.18
  -7  -1  -2    0.39    0.69
  -8  -1  -1    0.09    0.78
  -5   0  14   -0.04    0.84
  -4   0  13    0.12    0.81
  -3   0  12    0.78    0.62
  -3   0  12    0.69    0.94
  -2   0  11   -0.22    0.78
  -2   0  11   -0.13    0.50
  -1   0  10   -1.03    0.69
  -1   0  10   -0.10    0.48
   0   0   9    4.50    0.96
   1   0   8   -0.37    0.58
   2   0   7    0.45    0.52
   3   0   6    2.83    0.63
   4   0   5    0.75    0.49
  -5   0  -4    0.38    0.59
  -6   0  -3    7.26    1.26
  -7   0  -2   -0.01    0.65
  -8   0  -1    0.20    0.77
  -5  -1  14    0.31    0.90
  -4  -1  13    0.03    0.92
  -3  -1  12   -0.53    0.90
  -3  -1  12    0.00    0.55
  -2  -1  11    1.79    0.63
  -2  -1  11    0.65    0.99
  -1  -1  10    1.02    0.53
  -1  -1  10    0.36    0.89
   0  -1   9    9.65    1.24
   1  -1   8    0.48    0.67
   2  -1   7    5.02    0.83
   3  -1   6   10.82    0.99
   4  -1   5    4.08    0.71
  -5   1  -4    1.68    0.73
  -6   1  -3    9.25    1.39
  -7   1  -2    0.87    0.78
  -8   1  -1   -0.02    0.70
  -4  -2  13    0.54    0.88
  -3  -2  12    1.00    0.99
  -2  -2  11    0.65    0.90
  -2  -2  11    1.31    0.56
  -1  -2  10    0.27    0.83
   0  -2   9    2.34    0.91
   1  -2   8    8.52    1.10
   2  -2   7    0.68    0.61
   3  -2   6   -0.03    0.48
   4  -2   5    2.76    0.65
   5  -2   4   -0.32    0.40
  -6   2  -3    0.13    0.55
  -7   2  -2    1.02    0.71
  -8   2  -1   -0.06    0.67
  -4  -3  13    0.64    0.90
  -3  -3  12    5.09    1.31
  -2  -3  11    0.47    0.97
  -2  -3  11    0.29    0.52
  -1  -3  10    2.76    1.03
   0  -3   9   -0.69    0.74
   1  -3   8    2.15    0.77
   2  -3   7    0.40    0.60
   3  -3   6    1.47    0.59
   4  -3   5   44.43    2.22
   5  -3   4   10.41    1.01
  -6   3  -3    3.28    0.93
  -7   3  -2   -0.17    0.61
  -8   3  -1    0.25    0.70
  -4  -4  13   -0.02    0.88
  -3  -4  12    0.07    0.90
  -2  -4  11    2.88    1.12
  -1  -4  10    1.02    0.89
   0  -4   9    0.48    0.77
   1  -4   8    5.03    1.00
   2  -4   7    1.00    0.67
   3  -4   6    6.88    0.95
   4  -4   5   30.50    1.74
   5  -4   4    0.24    0.48
   6  -4   3    4.09    0.75
  -7   4  -2    1.20    0.73
  -7   4  -2    1.07    0.61
  -4  -5  13   -0.45    0.78
  -3  -5  12    0.69    0.95
  -2  -5  11    0.59    0.99
  -1  -5  10    2.35    1.04
   0  -5   9   -0.27    0.70
   1  -5   8   15.79    1.57
   2  -5   7   13.86    1.32
   3  -5   6   14.01    1.28
   4  -5   5    1.53    0.61
   5  -5   4    1.70    0.58
  -5   5  -4    1.75    0.65
   6  -5   3   -0.25    0.42
  -6   5  -3    0.10    0.49
   7  -5   2    0.01    0.47
  -7   5  -2    0.28    0.53
  -3  -6  12    1.18    1.02
  -2  -6  11    0.00    0.95
  -1  -6  10    0.10    0.90
   0  -6   9    3.64    1.11
   1  -6   8    1.86    0.86
   2  -6   7    1.71    0.81
   3  -6   6   20.43    1.51
   4  -6   5    2.41    0.69
  -4   6  -5    2.35    0.71
   5  -6   4    2.75    0.68
  -5   6  -4    2.78    0.76
   6  -6   3   -0.56    0.45
  -6   6  -3    0.08    0.57
   7  -6   2    0.51    0.51
  -7   6  -2    0.57    0.59
  -3  -7  12   -0.22    0.90
  -2  -7  11   -0.50    0.90
  -1  -7  10   -0.95    0.85
   0  -7   9   -0.17    0.79
   1  -7   8    4.24    1.04
   2  -7   7    1.68    0.85
   3  -7   6    1.88    0.79
   4  -7   5   -0.08    0.55
  -4   7  -5    0.16    0.59
   5  -7   4    0.12    0.54
  -5   7  -4    0.10    0.57
   6  -7   3   -0.21    0.48
  -6   7  -3   -0.32    0.48
   7  -7   2    0.41    0.53
  -2  -8  11    0.14    1.03
  -1  -8  10    0.00    1.01
   0  -8   9   -0.19    0.92
   1  -8   8    0.04    0.79
   2  -8   7   -0.50    0.70
   3  -8   6   -0.13    0.72
  -3   8  -6    0.00    0.49
   4  -8   5    1.24    0.76
  -4   8  -5    1.23    0.63
   5  -8   4    1.23    0.64
  -5   8  -4    0.60    0.58
   6  -8   3    0.41    0.58
  -2  -9  11    0.11    1.00
  -1  -9  10    0.61    1.05
   0  -9   9   -0.17    0.96
   1  -9   8    0.34    0.89
   2  -9   7    1.37    0.87
   3  -9   6   -0.12    0.78
  -3   9  -6    0.02    0.52
   4  -9   5    1.62    0.85
  -4   9  -5    1.20    0.69
   5  -9   4    1.14    0.74
  -5   9  -4    0.36    0.59
  -1 -10  10    0.55    1.15
   0 -10   9    0.39    1.07
   1 -10   8    1.77    1.12
   2 -10   7    1.91    1.04
   3 -10   6    1.34    0.99
  -3  10  -6    0.42    0.57
  -4  10  -5   -0.64    0.52
  -3  11  -6    0.26    0.61
   1   9   9    2.79    1.07
   2   9   8    0.42    0.83
   3   9   7    0.33    0.48
   0   8  10    0.72    0.84
   1   8   9    0.67    0.76
   2   8   8    1.00    0.79
   3   8   7    0.55    0.76
   4   8   6    1.29    0.55
  -1   7  11    0.86    0.84
   0   7  10    0.46    0.73
   1   7   9    2.42    0.89
   2   7   8    0.53    0.66
   3   7   7    0.70    0.68
   4   7   6    0.60    0.44
   5   7   5    0.07    0.43
  -2   6  12    0.04    0.79
  -1   6  11    0.08    0.66
   0   6  10    0.95    0.74
   1   6   9   14.19    1.38
   2   6   8    4.26    0.96
   3   6   7   -0.02    0.57
   4   6   6    1.01    0.63
   4   6   6    0.33    0.41
  -6  -6  -4    1.19    0.80
  -3   5  13   -0.11    0.82
  -2   5  12    0.02    0.73
  -1   5  11    2.04    0.83
   0   5  10   -0.27    0.64
   1   5   9    3.62    0.86
   2   5   8    0.70    0.64
   2   5   8    0.64    0.50
   3   5   7    1.07    0.68
   3   5   7    1.09    0.49
   4   5   6    0.51    0.41
   4   5   6    1.52    0.51
   4   5   6    0.90    0.64
  -5  -5  -5    0.55    0.61
  -6  -5  -4    0.16    0.61
  -3   4  13    0.45    0.75
  -2   4  12    0.20    0.64
  -1   4  11    0.23    0.63
   0   4  10    0.74    0.68
   0   4  10    1.37    0.65
   1   4   9   22.84    1.54
   1   4   9   21.29    1.60
   2   4   8    0.60    0.58
   2   4   8    0.60    0.48
   3   4   7    4.92    0.85
   3   4   7    3.28    0.61
   4   4   6    0.26    0.44
  -5  -4  -5    0.29    0.60
  -6  -4  -4    0.78    0.72
  -7  -4  -3   -0.32    0.64
  -4   3  14    0.52    0.85
  -3   3  13    0.17    0.74
  -2   3  12    0.64    0.85
  -2   3  12    0.29    0.67
  -1   3  11    2.86    0.78
  -1   3  11    3.74    1.01
   0   3  10    2.50    0.78
   0   3  10    2.22    0.78
   1   3   9    0.49    0.55
   1   3   9    0.15    0.53
   2   3   8   -0.09    0.48
   2   3   8    0.30    0.50
   3   3   7    0.68    0.48
   4   3   6    1.41    0.52
  -5  -3  -5    0.09    0.56
  -6  -3  -4    3.05    0.95
  -7  -3  -3   -0.06    0.71
  -4   2  14    0.33    0.78
  -4   2  14    0.56    0.88
  -3   2  13    0.42    0.81
  -3   2  13   -0.26    0.67
  -2   2  12    3.53    0.80
  -2   2  12    2.83    1.05
  -1   2  11    0.61    0.78
  -1   2  11    1.41    0.68
   0   2  10    4.33    0.92
   0   2  10    2.65    0.73
   1   2   9    1.13    0.59
   1   2   9    0.61    0.59
   2   2   8    0.46    0.52
   3   2   7    2.22    0.60
   4   2   6    0.39    0.44
  -5  -2  -5   -0.45    0.49
  -6  -2  -4   -0.10    0.58
  -7  -2  -3    0.39    0.74
  -4   1  14    0.33    0.92
  -3   1  13   -0.30    0.79
  -3   1  13    1.31    0.71
  -2   1  12    2.58    1.01
  -2   1  12    4.61    0.86
  -1   1  11    0.55    0.57
  -1   1  11   -0.41    0.74
   0   1  10   -0.17    0.61
   0   1  10    0.17    0.51
   1   1   9    0.67    0.66
   2   1   8    1.67    0.62
   3   1   7    0.57    0.50
   4   1   6    0.27    0.46
   5   1   5   -0.06    0.41
  -5  -1  -5    0.05    0.55
  -6  -1  -4    0.44    0.69
  -7  -1  -3    0.09    0.65
  -4   0  14    0.17    0.92
  -3   0  13   -0.61    0.84
  -3   0  13   -0.73    0.55
  -2   0  12    0.93    0.64
  -2   0  12    1.12    0.91
  -1   0  11   -0.18    0.53
  -1   0  11   -0.39    0.77
   0   0  10    4.59    1.02
   1   0   9    0.26    0.63
   2   0   8    0.47    0.62
   3   0   7   -0.17    0.45
   4   0   6    1.42    0.56
   5   0   5   -0.11    0.41
  -6   0  -4    0.58    0.69
  -7   0  -3    0.23    0.65
  -4  -1  14    1.21    1.01
  -3  -1  13    0.24    0.92
  -3  -1  13    0.17    0.58
  -2  -1  12    2.17    0.68
  -2  -1  12    1.33    1.05
  -1  -1  11   -0.78    0.67
  -1  -1  11    0.32    0.52
   0  -1  10    0.31    0.70
   1  -1   9    8.68    1.18
   2  -1   8    0.78    0.65
   3  -1   7    0.89    0.58
   4  -1   6    0.15    0.48
   5  -1   5   12.37    1.06
  -6   1  -4    1.72    0.80
  -7   1  -3    1.74    0.80
  -4  -2  14    0.96    1.02
  -3  -2  13    0.52    0.91
  -2  -2  12    1.72    1.04
  -2  -2  12    1.62    0.68
  -1  -2  11   -0.13    0.80
  -1  -2  11    0.63    0.53
   0  -2  10    1.30    0.80
   1  -2   9    2.71    0.88
   2  -2   8    0.40    0.62
   3  -2   7    1.84    0.64
   4  -2   6    9.54    1.02
   5  -2   5    0.38    0.53
   6  -2   4    6.92    0.95
  -7   2  -3    0.31    0.64
  -4  -3  14    1.56    1.09
  -3  -3  13   -0.99    0.73
  -2  -3  12    3.79    0.76
  -2  -3  12    2.20    1.08
  -1  -3  11    0.09    0.80
   0  -3  10    2.49    0.92
   1  -3   9    0.61    0.71
   2  -3   8    1.15    0.66
   3  -3   7   11.66    1.20
   4  -3   6    0.12    0.48
   5  -3   5    0.23    0.53
   6  -3   4    4.07    0.78
   7  -3   3    0.52    0.51
  -7   3  -3    0.59    0.63
  -3  -4  13   -0.53    0.80
  -2  -4  12    2.90    1.14
  -1  -4  11    0.08    0.84
   0  -4  10    2.51    0.94
   1  -4   9    0.20    0.70
   2  -4   8    1.35    0.77
   3  -4   7   14.62    1.28
   4  -4   6    1.20    0.60
   5  -4   5    0.60    0.53
   6  -4   4   -0.39    0.45
   7  -4   3    0.60    0.54
  -3  -5  13   -0.02    0.93
  -2  -5  12    1.19    1.05
  -1  -5  11    0.53    0.97
   0  -5  10    3.96    1.08
   1  -5   9    0.28    0.75
   2  -5   8    0.19    0.68
   3  -5   7    3.68    0.85
   4  -5   6    1.39    0.68
   5  -5   5    1.28    0.62
   6  -5   4   -0.33    0.46
   7  -5   3    0.55    0.53
  -3  -6  13   -1.33    0.79
  -2  -6  12   -0.13    0.88
  -1  -6  11    0.10    0.92
   0  -6  10    1.78    0.98
   1  -6   9   -0.07    0.75
   2  -6   8    0.38    0.72
   3  -6   7    0.81    0.73
   4  -6   6    0.03    0.59
   5  -6   5   -0.02    0.57
   6  -6   4    0.24    0.51
  -6   6  -4    0.36    0.55
   7  -6   3    1.26    0.65
  -2  -7  12   -0.62    0.90
  -1  -7  11    0.35    0.96
   0  -7  10    0.00    0.90
   1  -7   9    0.19    0.87
   2  -7   8    0.39    0.78
   3  -7   7   -0.30    0.70
   4  -7   6    0.13    0.66
   5  -7   5   -0.05    0.59
  -5   7  -5    0.23    0.56
   6  -7   4    0.21    0.57
  -2  -8  12   -0.04    0.97
  -1  -8  11   -0.21    0.97
   0  -8  10   -0.36    0.91
   1  -8   9   -0.44    0.85
   2  -8   8    0.02    0.78
   3  -8   7    0.21    0.78
   4  -8   6    0.67    0.75
   5  -8   5    0.73    0.72
  -5   8  -5    0.35    0.59
   6  -8   4    1.55    0.75
  -1  -9  11   -0.56    1.03
   0  -9  10   -0.07    0.95
   1  -9   9    1.16    0.99
   2  -9   8    0.60    0.87
   3  -9   7    1.52    0.95
   4  -9   6   -0.15    0.79
  -4   9  -6   -0.40    0.52
   5  -9   5    1.09    0.83
   0 -10  10    0.32    1.09
   1 -10   9   -0.58    0.95
   2 -10   8   -0.07    1.00
   3 -10   7    0.86    0.99
   1   8  10    0.79    0.84
   2   8   9    0.77    0.80
   3   8   8    0.00    0.74
   0   7  11    3.04    1.02
   1   7  10    0.43    0.72
   2   7   9    2.80    0.91
   3   7   8    1.33    0.77
   4   7   7    0.18    0.44
  -1   6  12   -0.86    0.77
   0   6  11    2.52    0.90
   1   6  10    9.42    1.29
   2   6   9    0.68    0.70
   3   6   8    0.39    0.63
   4   6   7   -0.34    0.60
   4   6   7    0.12    0.41
  -1   5  12   -0.61    0.61
   0   5  11    6.54    1.10
   1   5  10    1.98    0.74
   2   5   9    0.07    0.59
   3   5   8   -0.16    0.47
   3   5   8    0.44    0.62
   4   5   7    0.24    0.45
   4   5   7    0.22    0.60
   5   5   6   -0.31    0.40
  -6  -5  -5   -0.19    0.63
  -2   4  13   -0.39    0.68
  -1   4  12    1.15    0.76
   0   4  11    1.03    0.72
   1   4  10    0.34    0.61
   1   4  10    0.37    0.60
   2   4   9    4.09    0.84
   2   4   9    5.02    0.84
   3   4   8    0.16    0.43
   3   4   8   -0.40    0.55
   4   4   7    1.32    0.55
   4   4   7    0.40    0.59
   5   4   6    0.22    0.47
  -6  -4  -5    1.70    0.84
  -3   3  14   -0.56    0.76
  -2   3  13   -0.22    0.63
  -1   3  12   -0.31    0.61
  -1   3  12    0.39    0.78
   0   3  11    5.22    0.96
   0   3  11    4.66    1.02
   1   3  10    0.16    0.55
   1   3  10    0.11    0.62
   2   3   9    1.27    0.65
   2   3   9    1.76    0.63
   3   3   8   -0.43    0.41
   4   3   7    9.52    1.03
   5   3   6    2.59    0.63
  -6  -3  -5    0.50    0.72
  -3   2  14    0.15    0.74
  -3   2  14    0.71    0.92
  -2   2  13    0.97    0.71
  -2   2  13    1.58    0.96
  -1   2  12    0.44    0.81
  -1   2  12    1.55    0.70
   0   2  11    0.86    0.71
   0   2  11    1.17    0.69
   1   2  10    1.11    0.66
   1   2  10    0.47    0.62
   2   2   9    0.78    0.59
   3   2   8    0.96    0.53
   4   2   7   -0.53    0.46
   5   2   6    0.86    0.54
  -6  -2  -5   -0.19    0.53
  -7  -2  -4    0.81    0.82
  -3   1  14   -0.55    0.59
  -3   1  14   -0.61    0.69
  -2   1  13    2.61    1.10
  -2   1  13    2.42    0.77
  -1   1  12    2.00    1.00
  -1   1  12    2.92    0.77
   0   1  11    0.38    0.62
   0   1  11   -0.51    0.67
   1   1  10    5.06    0.93
   2   1   9    1.31    0.67
   3   1   8    1.35    0.61
   4   1   7    9.13    1.03
   5   1   6    0.22    0.50
   6   1   5    0.49    0.51
  -6  -1  -5    0.24    0.66
  -7  -1  -4    0.28    0.72
  -3   0  14    0.15    0.70
  -3   0  14    0.90    0.92
  -2   0  13    0.84    0.63
  -2   0  13    1.03    1.01
  -1   0  12    2.60    0.74
  -1   0  12    1.56    0.92
   0   0  11    0.11    0.51
   0   0  11    0.00    0.74
   1   0  10    1.27    0.76
   2   0   9    0.10    0.58
   3   0   8    2.00    0.66
   4   0   7    2.46    0.66
   5   0   6    0.11    0.48
   6   0   5    1.11    0.54
  -7   0  -4    1.14    0.79
  -3  -1  14    1.01    1.00
  -2  -1  13    4.98    0.89
  -2  -1  13    4.07    1.19
  -1  -1  12    0.27    0.58
  -1  -1  12   -0.41    0.79
   0  -1  11    0.22    0.73
   1  -1  10    0.44    0.68
   2  -1   9   -0.12    0.56
   3  -1   8    0.78    0.59
   4  -1   7    0.40    0.50
   5  -1   6    0.95    0.61
   6  -1   5    2.12    0.66
   7  -1   4    0.59    0.53
  -7   1  -4    0.64    0.67
  -3  -2  14   -0.21    0.86
  -2  -2  13    0.42    0.88
  -2  -2  13    3.01    0.75
  -1  -2  12    0.37    0.87
  -1  -2  12    0.33    0.56
   0  -2  11    3.07    1.01
   1  -2  10    1.28    0.77
   2  -2   9    1.43    0.72
   3  -2   8    0.21    0.61
   4  -2   7    1.13    0.59
   5  -2   6    1.22    0.66
   6  -2   5    1.80    0.69
   7  -2   4   -0.02    0.49
  -3  -3  14   -0.13    0.87
  -2  -3  13    0.22    0.88
  -1  -3  12   -0.49    0.80
   0  -3  11    0.11    0.79
   1  -3  10    0.86    0.76
   2  -3   9    0.18    0.64
   3  -3   8    9.10    1.17
   4  -3   7   -0.17    0.53
   5  -3   6    3.24    0.76
   6  -3   5   -0.08    0.52
   7  -3   4    0.81    0.56
  -3  -4  14    0.48    0.94
  -2  -4  13    1.10    0.98
  -1  -4  12    0.24    0.87
   0  -4  11   -0.10    0.78
   1  -4  10    2.22    0.96
   2  -4   9   -0.14    0.68
   3  -4   8    1.03    0.67
   4  -4   7   20.35    1.54
   5  -4   6    1.61    0.66
   6  -4   5    0.98    0.59
   7  -4   4    0.32    0.57
  -2  -5  13    0.42    0.94
  -1  -5  12   -0.46    0.87
   0  -5  11    0.00    0.87
   1  -5  10    2.12    0.92
   2  -5   9    0.21    0.73
   3  -5   8    1.63    0.78
   4  -5   7    1.01    0.71
   5  -5   6    0.06    0.56
   6  -5   5    1.79    0.70
  -2  -6  13    1.26    1.15
  -1  -6  12    0.65    0.96
   0  -6  11    0.52    0.97
   1  -6  10    3.38    1.05
   2  -6   9   -0.36    0.71
   3  -6   8    1.32    0.81
   4  -6   7    1.06    0.73
   5  -6   6    0.11    0.57
   6  -6   5    0.14    0.57
  -1  -7  12   -0.34    0.92
   0  -7  11   -0.15    0.83
   1  -7  10    0.52    0.88
   2  -7   9    1.06    0.89
   3  -7   8   -0.27    0.72
   4  -7   7   -0.53    0.65
   5  -7   6    0.59    0.68
   6  -7   5   -0.42    0.62
  -1  -8  12    0.26    1.04
   0  -8  11   -0.04    1.00
   1  -8  10    0.43    0.88
   2  -8   9   -0.36    0.79
   3  -8   8   -0.22    0.76
   4  -8   7    0.16    0.79
   5  -8   6    0.28    0.76
   0  -9  11    1.04    1.11
   1  -9  10    0.86    1.02
   2  -9   9   -0.70    0.91
   3  -9   8    0.12    0.86
   4  -9   7    0.95    0.86
   3   7   9   -0.32    0.66
   1   6  11    0.75    0.71
   2   6  10    0.33    0.65
   3   6   9    0.43    0.66
   4   6   8    0.27    0.69
   0   5  12    0.31    0.70
   1   5  11    0.12    0.67
   2   5  10   -0.54    0.59
   3   5   9   -0.01    0.58
   4   5   8   -0.22    0.62
   5   5   7    0.41    0.56
  -1   4  13    0.04    0.62
   0   4  12   -0.67    0.55
   1   4  11    2.31    0.79
   2   4  10    2.50    0.84
   2   4  10    1.84    0.75
   3   4   9    0.38    0.58
   3   4   9    0.25    0.53
   4   4   8   -0.04    0.50
   4   4   8   -0.66    0.46
   5   4   7    1.40    0.59
  -1   3  13    0.33    0.68
   0   3  12    3.72    0.89
   0   3  12    2.64    0.98
   1   3  11    2.37    0.84
   1   3  11    0.31    0.59
   2   3  10    0.71    0.66
   2   3  10    1.07    0.70
   3   3   9    1.06    0.66
   3   3   9    0.76    0.60
   4   3   8    3.43    0.78
   5   3   7    2.38    0.70
   6   3   6    2.49    0.70
  -2   2  14   -0.07    0.87
  -2   2  14   -0.08    0.62
  -1   2  13   -0.10    0.64
  -1   2  13    0.90    0.88
   0   2  12   -0.35    0.59
   0   2  12    0.97    0.75
   1   2  11    0.83    0.74
   1   2  11    0.64    0.61
   2   2  10    0.21    0.66
   2   2  10    0.15    0.51
   3   2   9    1.41    0.65
   4   2   8    1.10    0.61
   5   2   7    0.95    0.60
   6   2   6    2.94    0.76
  -2   1  14    0.93    0.92
  -2   1  14    0.34    0.68
  -1   1  13   -0.48    0.79
  -1   1  13   -0.08    0.56
   0   1  12    2.45    0.94
   0   1  12    3.94    0.85
   1   1  11    1.46    0.63
   1   1  11    1.37    0.83
   2   1  10   -0.01    0.58
   3   1   9    3.74    0.85
   4   1   8    0.14    0.51
   5   1   7    0.60    0.56
   6   1   6    2.66    0.72
  -2   0  14    1.27    0.73
  -2   0  14    0.28    0.92
  -1   0  13    0.99    0.90
  -1   0  13    1.28    0.72
   0   0  12    4.08    1.06
   0   0  12    3.03    0.80
   1   0  11    0.93    0.76
   2   0  10    0.40    0.71
   3   0   9    6.56    1.00
   4   0   8    0.38    0.55
   5   0   7    0.57    0.59
   6   0   6    2.55    0.76
  -2  -1  14   -0.20    0.86
  -2  -1  14    0.37    0.61
  -1  -1  13   -0.89    0.55
  -1  -1  13   -1.08    0.68
   0  -1  12    0.09    0.56
   0  -1  12    0.12    0.75
   1  -1  11    1.15    0.79
   2  -1  10    0.58    0.68
   3  -1   9    3.89    0.87
   4  -1   8    1.72    0.68
   5  -1   7    0.80    0.60
   6  -1   6    0.02    0.59
  -2  -2  14    1.61    1.06
  -1  -2  13   -0.88    0.76
  -1  -2  13    0.29    0.61
   0  -2  12    0.61    0.87
   1  -2  11   -0.12    0.71
   2  -2  10    1.11    0.81
   3  -2   9    1.28    0.71
   4  -2   8   22.42    1.68
   5  -2   7    0.37    0.55
   6  -2   6    0.02    0.54
  -2  -3  14    0.61    0.96
  -1  -3  13   -0.24    0.87
  -1  -3  13   -0.14    0.52
   0  -3  12    0.31    0.90
   1  -3  11    0.48    0.84
   2  -3  10    0.90    0.74
   3  -3   9    3.58    0.92
   4  -3   8    0.36    0.67
   5  -3   7    1.26    0.67
   6  -3   6    0.36    0.60
  -2  -4  14    0.15    0.93
  -1  -4  13   -0.80    0.86
   0  -4  12    0.06    0.82
   1  -4  11    1.56    0.90
   2  -4  10    0.12    0.78
   3  -4   9    4.76    1.06
   4  -4   8    6.69    1.09
   5  -4   7    2.92    0.81
   6  -4   6    0.88    0.63
  -1  -5  13    0.41    0.96
   0  -5  12    0.17    0.91
   1  -5  11   -0.60    0.75
   2  -5  10    2.09    0.92
   3  -5   9    5.97    1.17
   4  -5   8    1.61    0.79
   5  -5   7    0.93    0.71
   6  -5   6    0.01    0.60
  -1  -6  13    0.10    0.99
   0  -6  12   -0.49    0.90
   1  -6  11    0.17    0.90
   2  -6  10    4.33    1.20
   3  -6   9   -0.29    0.74
   4  -6   8    0.14    0.76
   5  -6   7    0.17    0.64
   0  -7  12   -0.81    0.89
   1  -7  11    0.95    0.97
   2  -7  10    0.11    0.87
   3  -7   9   -0.02    0.77
   4  -7   8    0.09    0.83
   5  -7   7   -0.55    0.65
   1  -8  11   -0.04    1.06
   2  -8  10   -0.02    0.94
   3  -8   9    1.10    0.94
   4  -8   8   -0.39    0.77
   4   5   9   -0.10    0.68
   2   4  11   -0.35    0.62
   3   4  10    0.45    0.64
   3   4  10    0.03    0.63
   4   4   9    0.28    0.66
   4   4   9    0.37    0.55
   1   3  12    0.89    0.81
   1   3  12    1.52    0.73
   2   3  11    0.52    0.63
   2   3  11    0.05    0.67
   3   3  10    1.19    0.72
   3   3  10    1.97    0.77
   4   3   9    0.39    0.57
   5   3   8    0.49    0.58
  -1   2  14    0.25    0.93
   0   2  13    0.75    0.86
   0   2  13   -0.23    0.59
   1   2  12    0.63    0.68
   1   2  12    1.03    0.82
   2   2  11   -0.48    0.60
   2   2  11   -0.04    0.51
   3   2  10    0.91    0.64
   4   2   9    0.16    0.59
   5   2   8    0.51    0.57
  -1   1  14    0.04    0.86
  -1   1  14    0.47    0.71
   0   1  13    0.43    0.61
   0   1  13   -0.37    0.79
   1   1  12    0.10    0.80
   1   1  12    0.21    0.62
   2   1  11    0.37    0.72
   3   1  10    0.26    0.65
   4   1   9    1.02    0.63
   5   1   8    1.91    0.74
   6   1   7    2.39    0.77
  -1   0  14    0.35    0.65
  -1   0  14   -0.59    0.88
   0   0  13    0.38    0.66
   0   0  13    0.75    0.90
   1   0  12    0.02    0.79
   2   0  11   -0.18    0.71
   3   0  10    1.78    0.78
   4   0   9    2.32    0.76
   5   0   8    0.32    0.61
   6   0   7    4.51    0.96
  -1  -1  14    0.11    0.97
  -1  -1  14    0.22    0.66
   0  -1  13    0.41    0.63
   0  -1  13   -0.68    0.75
   1  -1  12   -0.39    0.73
   2  -1  11    1.05    0.78
   3  -1  10    0.64    0.72
   4  -1   9   -0.21    0.57
   5  -1   8    0.47    0.60
   6  -1   7    1.04    0.67
  -1  -2  14    1.66    0.74
  -1  -2  14   -0.02    0.92
   0  -2  13   -0.51    0.86
   1  -2  12    0.63    0.84
   2  -2  11    0.54    0.80
   3  -2  10    5.95    1.12
   4  -2   9    0.96    0.69
   5  -2   8    1.18    0.69
   6  -2   7    0.89    0.65
  -1  -3  14    1.36    1.04
  -1  -3  14    0.61    0.65
   0  -3  13   -0.09    0.80
   1  -3  12    0.33    0.81
   2  -3  11   -0.97    0.71
   3  -3  10    1.69    0.88
   4  -3   9    0.20    0.66
   5  -3   8    2.48    0.85
   6  -3   7   -0.01    0.63
  -1  -4  14    0.19    0.96
   0  -4  13    0.10    0.95
   1  -4  12   -0.26    0.79
   2  -4  11    0.82    0.86
   3  -4  10    5.31    1.15
   4  -4   9    3.24    0.98
   5  -4   8    0.41    0.68
   0  -5  13    0.53    1.03
   1  -5  12    1.48    0.97
   2  -5  11   -0.78    0.75
   3  -5  10   -0.04    0.87
   4  -5   9   -0.81    0.72
   5  -5   8    0.43    0.75
   1  -6  12   -0.36    0.89
   2  -6  11    1.28    1.00
   3  -6  10    0.54    0.92
   4  -6   9    0.98    0.92
   2  -7  11    0.74    1.03
   3  -7  10    2.70    1.14
   2   3  12    1.79    0.90
   3   3  11    0.26    0.73
   1   2  13    1.93    0.97
   2   2  12    0.90    0.85
   3   2  11   -0.17    0.66
   4   2  10    1.59    0.81
   0   1  14   -0.85    0.85
   1   1  13    0.56    0.85
   2   1  12    0.55    0.86
   3   1  11   -0.05    0.74
   4   1  10   -0.38    0.65
   0   0  14    0.94    1.04
   1   0  13    1.17    0.95
   2   0  12   -0.03    0.76
   3   0  11    0.70    0.77
   4   0  10   -0.69    0.60
   5   0   9    0.08    0.64
   0  -1  14   -0.79    0.95
   1  -1  13   -0.16    0.82
   2  -1  12    0.76    0.90
   3  -1  11    0.49    0.81
   4  -1  10   -0.03    0.69
   5  -1   9    0.20    0.66
   0  -2  14    1.23    1.14
   1  -2  13    0.25    0.83
   2  -2  12    0.24    0.85
   3  -2  11    0.99    0.87
   4  -2  10    0.54    0.82
   5  -2   9   -0.81    0.61
   1  -3  13   -0.04    0.82
   2  -3  12   -1.13    0.72
   3  -3  11   -0.52    0.72
   4  -3  10    8.40    1.37
   1  -4  13   -0.13    0.92
   2  -4  12    2.03    1.04
   3  -4  11    0.23    0.80
   4  -4  10    1.71    1.00
   2  -5  12   -0.02    1.03
   3  -5  11    1.26    1.02
   0   0   0    0.00    0.00
;
_shelx_hkl_checksum              82188
loop_
_space_group_symop_operation_xyz
'x, y, z'
'-x, -y, -z'
loop_
_atom_site_label
_atom_site_type_symbol
_atom_site_fract_x
_atom_site_fract_y
_atom_site_fract_z
_atom_site_U_iso_or_equiv
_atom_site_adp_type
_atom_site_occupancy
_atom_site_site_symmetry_order
_atom_site_calc_flag
_atom_site_refinement_flags_posn
_atom_site_refinement_flags_adp
C1 C 0.0897(4) 0.5207(3) 0.3126(3) 0.0444(8) Uani 1 1 d . .
H1 H 0.085063 0.595711 0.362046 0.053 Uiso 1 1 calc R U
C2 C 0.3058(5) 0.5208(3) 0.2964(3) 0.0563(10) Uani 1 1 d . .
H2A H 0.299207 0.514279 0.210222 0.068 Uiso 1 1 calc R U
H2B H 0.390951 0.596504 0.333139 0.068 Uiso 1 1 calc R U
C3 C 0.3877(5) 0.4057(3) 0.3630(3) 0.0446(8) Uani 1 1 d . .
C4 C 0.5706(5) 0.3526(4) 0.3796(3) 0.0601(10) Uani 1 1 d . .
H4 H 0.672416 0.389408 0.347932 0.072 Uiso 1 1 calc R U
C5 C 0.6014(6) 0.2425(4) 0.4448(4) 0.0680(11) Uani 1 1 d . U
H5 H 0.725892 0.205856 0.457522 0.082 Uiso 1 1 calc R U
C6 C 0.4517(5) 0.1873(3) 0.4904(4) 0.0606(10) Uani 1 1 d . U
H6 H 0.476033 0.113824 0.534136 0.073 Uiso 1 1 calc R U
C7 C 0.2640(5) 0.2391(3) 0.4724(3) 0.0529(9) Uani 1 1 d . .
H7 H 0.161100 0.202363 0.503167 0.064 Uiso 1 1 calc R U
C8 C 0.2373(4) 0.3475(3) 0.4068(3) 0.0394(8) Uani 1 1 d . .
C9 C -0.0860(5) 0.5179(3) 0.1961(3) 0.0469(9) Uani 1 1 d . .
C10 C -0.2044(5) 0.6125(3) 0.1554(3) 0.0530(9) Uani 1 1 d . .
H10 H -0.315410 0.593772 0.085517 0.064 Uiso 1 1 calc R U
C11 C -0.1829(5) 0.7432(3) 0.2065(3) 0.0532(9) Uani 1 1 d . .
C12 C -0.3630(6) 0.8058(3) 0.1854(4) 0.0602(10) Uani 1 1 d . .
H12 H -0.490968 0.764990 0.144068 0.072 Uiso 1 1 calc R U
C13 C -0.3479(7) 0.9300(4) 0.2270(4) 0.0782(13) Uani 1 1 d . .
H13 H -0.467642 0.971966 0.213416 0.094 Uiso 1 1 calc R U
C14 C -0.1636(7) 0.9917(4) 0.2868(4) 0.0734(12) Uani 1 1 d . .
H14 H -0.157906 1.074367 0.315575 0.088 Uiso 1 1 calc R U
C15 C 0.0163(7) 0.9316(3) 0.3050(4) 0.0707(12) Uani 1 1 d . .
H15 H 0.143656 0.974300 0.344261 0.085 Uiso 1 1 calc R U
C16 C 0.0061(6) 0.8076(3) 0.2646(3) 0.0579(10) Uani 1 1 d . .
H16 H 0.127132 0.767245 0.276505 0.069 Uiso 1 1 calc R U
C17 C -0.1401(5) 0.4001(3) 0.1178(3) 0.0541(10) Uani 1 1 d . .
C18 C -0.0099(6) 0.2139(3) 0.0665(4) 0.0661(11) Uani 1 1 d . .
H18A H -0.052486 0.230212 -0.020636 0.079 Uiso 1 1 calc R U
H18B H -0.115149 0.156911 0.084580 0.079 Uiso 1 1 calc R U
C19 C 0.1937(6) 0.1576(4) 0.1015(4) 0.0760(12) Uani 1 1 d . .
H19A H 0.293188 0.211251 0.076065 0.114 Uiso 1 1 calc R U
H19B H 0.178571 0.075950 0.061884 0.114 Uiso 1 1 calc R U
H19C H 0.240277 0.149501 0.189040 0.114 Uiso 1 1 calc R U
O1 O 0.0605(3) 0.40834(18) 0.3817(2) 0.0463(6) Uani 1 1 d . .
O2 O 0.0183(3) 0.3302(2) 0.1379(2) 0.0582(7) Uani 1 1 d . .
O3 O -0.3024(4) 0.3718(3) 0.0436(3) 0.0998(12) Uani 1 1 d . .
loop_
_atom_site_aniso_label
_atom_site_aniso_U_11
_atom_site_aniso_U_22
_atom_site_aniso_U_33
_atom_site_aniso_U_23
_atom_site_aniso_U_13
_atom_site_aniso_U_12
C1 0.0415(18) 0.0407(17) 0.045(2) -0.0012(15) 0.0035(15) 0.0043(13)
C2 0.045(2) 0.056(2) 0.058(2) 0.0010(18) 0.0014(17) -0.0056(15)
C3 0.0327(16) 0.0523(18) 0.044(2) -0.0041(16) 0.0046(15) 0.0028(13)
C4 0.0308(18) 0.094(3) 0.055(2) -0.008(2) 0.0114(16) 0.0062(17)
C5 0.049(2) 0.085(3) 0.066(3) -0.009(2) 0.0036(17) 0.0311(17)
C6 0.057(2) 0.057(2) 0.056(2) -0.0076(17) -0.0059(16) 0.0184(16)
C7 0.051(2) 0.0483(19) 0.055(2) -0.0013(17) 0.0076(17) 0.0049(15)
C8 0.0291(16) 0.0436(17) 0.0416(19) -0.0068(15) 0.0039(14) 0.0057(12)
C9 0.0384(17) 0.0467(18) 0.048(2) -0.0048(16) 0.0014(15) 0.0015(14)
C10 0.053(2) 0.0502(19) 0.047(2) 0.0002(16) -0.0016(17) 0.0097(15)
C11 0.057(2) 0.0476(19) 0.047(2) 0.0034(17) 0.0010(17) 0.0112(15)
C12 0.058(2) 0.064(2) 0.056(2) 0.0068(19) 0.0087(19) 0.0183(17)
C13 0.097(3) 0.065(3) 0.078(3) 0.005(2) 0.027(3) 0.039(2)
C14 0.103(4) 0.051(2) 0.065(3) -0.003(2) 0.023(3) 0.013(2)
C15 0.077(3) 0.052(2) 0.070(3) -0.003(2) 0.002(2) 0.0015(19)
C16 0.064(2) 0.046(2) 0.057(2) 0.0021(17) 0.0073(19) 0.0078(16)
C17 0.047(2) 0.053(2) 0.051(2) -0.0033(17) -0.0035(17) 0.0051(16)
C18 0.082(3) 0.052(2) 0.055(3) -0.0117(19) 0.005(2) 0.0092(18)
C19 0.085(3) 0.069(3) 0.075(3) -0.005(2) 0.022(2) 0.026(2)
O1 0.0316(11) 0.0524(13) 0.0538(15) 0.0059(11) 0.0094(10) 0.0081(9)
O2 0.0550(14) 0.0508(13) 0.0593(17) -0.0151(12) 0.0005(12) 0.0109(11)
O3 0.0724(19) 0.0773(18) 0.111(3) -0.0355(18) -0.0354(19) 0.0181(14)
loop_
_atom_type_symbol
_atom_type_description
_atom_type_scat_dispersion_real
_atom_type_scat_dispersion_imag
_atom_type_scat_source
C C 0.0033 0.0016 'International Tables Vol C Tables 4.2.6.8 and 6.1.1.4'
H H 0.0000 0.0000 'International Tables Vol C Tables 4.2.6.8 and 6.1.1.4'
O O 0.0106 0.0060 'International Tables Vol C Tables 4.2.6.8 and 6.1.1.4'
loop_
_geom_angle_atom_site_label_1
_geom_angle_atom_site_label_2
_geom_angle_atom_site_label_3
_geom_angle
O1 C1 C9 108.4(2)
O1 C1 C2 106.8(2)
C9 C1 C2 115.8(3)
O1 C1 H1 108.5
C9 C1 H1 108.5
C2 C1 H1 108.5
C3 C2 C1 102.9(3)
C3 C2 H2A 111.2
C1 C2 H2A 111.2
C3 C2 H2B 111.2
C1 C2 H2B 111.2
H2A C2 H2B 109.1
C4 C3 C8 119.6(3)
C4 C3 C2 131.7(3)
C8 C3 C2 108.6(3)
C3 C4 C5 118.6(4)
C3 C4 H4 120.7
C5 C4 H4 120.7
C6 C5 C4 121.0(3)
C6 C5 H5 119.5
C4 C5 H5 119.5
C5 C6 C7 120.9(3)
C5 C6 H6 119.6
C7 C6 H6 119.6
C8 C7 C6 116.8(3)
C8 C7 H7 121.6
C6 C7 H7 121.6
O1 C8 C3 113.8(3)
O1 C8 C7 123.2(3)
C3 C8 C7 123.0(3)
C10 C9 C17 115.5(3)
C10 C9 C1 125.7(3)
C17 C9 C1 118.8(3)
C9 C10 C11 128.8(3)
C9 C10 H10 115.6
C11 C10 H10 115.6
C16 C11 C12 119.3(3)
C16 C11 C10 123.3(3)
C12 C11 C10 117.2(3)
C13 C12 C11 118.9(4)
C13 C12 H12 120.6
C11 C12 H12 120.6
C14 C13 C12 121.7(4)
C14 C13 H13 119.1
C12 C13 H13 119.1
C13 C14 C15 119.8(4)
C13 C14 H14 120.1
C15 C14 H14 120.1
C14 C15 C16 119.7(4)
C14 C15 H15 120.1
C16 C15 H15 120.1
C15 C16 C11 120.5(4)
C15 C16 H16 119.8
C11 C16 H16 119.8
O3 C17 O2 123.0(3)
O3 C17 C9 125.6(3)
O2 C17 C9 111.3(3)
O2 C18 C19 106.7(3)
O2 C18 H18A 110.4
C19 C18 H18A 110.4
O2 C18 H18B 110.4
C19 C18 H18B 110.4
H18A C18 H18B 108.6
C18 C19 H19A 109.5
C18 C19 H19B 109.5
H19A C19 H19B 109.5
C18 C19 H19C 109.5
H19A C19 H19C 109.5
H19B C19 H19C 109.5
C8 O1 C1 107.8(2)
C17 O2 C18 117.6(3)
loop_
_geom_bond_atom_site_label_1
_geom_bond_atom_site_label_2
_geom_bond_distance
C1 O1 1.469(4)
C1 C9 1.502(4)
C1 C2 1.527(4)
C1 H1 0.9800
C2 C3 1.503(4)
C2 H2A 0.9700
C2 H2B 0.9700
C3 C4 1.364(4)
C3 C8 1.370(4)
C4 C5 1.389(5)
C4 H4 0.9300
C5 C6 1.365(6)
C5 H5 0.9300
C6 C7 1.386(5)
C6 H6 0.9300
C7 C8 1.373(4)
C7 H7 0.9300
C8 O1 1.363(3)
C9 C10 1.336(4)
C9 C17 1.490(5)
C10 C11 1.483(5)
C10 H10 0.9300
C11 C16 1.384(5)
C11 C12 1.395(5)
C12 C13 1.385(5)
C12 H12 0.9300
C13 C14 1.353(6)
C13 H13 0.9300
C14 C15 1.383(5)
C14 H14 0.9300
C15 C16 1.383(5)
C15 H15 0.9300
C16 H16 0.9300
C17 O3 1.192(4)
C17 O2 1.319(4)
C18 O2 1.443(4)
C18 C19 1.494(5)
C18 H18A 0.9700
C18 H18B 0.9700
C19 H19A 0.9600
C19 H19B 0.9600
C19 H19C 0.9600
