#------------------------------------------------------------------------------
#$Date: 2019-11-04 10:26:03 +0200 (Mon, 04 Nov 2019) $
#$Revision: 222478 $
#$URL: file:///home/coder/svn-repositories/cod/cif/4/03/39/4033902.cif $
#------------------------------------------------------------------------------
#
# This file is available in the Crystallography Open Database (COD),
# http://www.crystallography.net/
#
# All data on this site have been placed in the public domain by the
# contributors.
#
data_4033902
loop_
_publ_author_name
'Lu, Bin'
'Wu, Xiaoyu'
'Li, Chengyang'
'Ding, Guangni'
'Li, Wanfang'
'Xie, Xiaomin'
'Zhang, Zhaoguo'
_publ_section_title
;
 Highly Diastereo- and Enantioselective Access to syn-\a-Amido \b-Hydroxy
 Esters via Ruthenium-Catalyzed Dynamic Kinetic Resolution-Asymmetric
 Hydrogenation.
;
_journal_issue                   6
_journal_name_full               'The Journal of organic chemistry'
_journal_page_first              3201
_journal_page_last               3213
_journal_paper_doi               10.1021/acs.joc.8b03106
_journal_volume                  84
_journal_year                    2019
_chemical_absolute_configuration ad
_chemical_formula_moiety         'C13 H17 N O4 S'
_chemical_formula_sum            'C13 H17 N O4 S'
_chemical_formula_weight         283.34
_space_group_crystal_system      monoclinic
_space_group_IT_number           4
_space_group_name_Hall           'P 2yb'
_space_group_name_H-M_alt        'P 1 21 1'
_atom_sites_solution_hydrogens   mixed
_audit_creation_method           SHELXL-2016/6
_cell_angle_alpha                90
_cell_angle_beta                 96.1950(10)
_cell_angle_gamma                90
_cell_formula_units_Z            2
_cell_length_a                   7.3786(2)
_cell_length_b                   11.8974(3)
_cell_length_c                   8.0186(2)
_cell_measurement_reflns_used    6230
_cell_measurement_temperature    173(2)
_cell_measurement_theta_max      66.60
_cell_measurement_theta_min      5.55
_cell_volume                     699.81(3)
_computing_cell_refinement       'Bruker SAINT'
_computing_data_collection       'Bruker APEX2'
_computing_data_reduction        'Bruker SAINT'
_computing_molecular_graphics    'Bruker SHELXTL'
_computing_publication_material  'Bruker SHELXTL'
_computing_structure_refinement  'SHELXL-2014 (Sheldrick, 2014)'
_computing_structure_solution    'SHELXS-97 (Sheldrick 2008)'
_diffrn_ambient_temperature      173(2)
_diffrn_measured_fraction_theta_full 0.982
_diffrn_measured_fraction_theta_max 0.982
_diffrn_measurement_device_type  'CCD area detector'
_diffrn_measurement_method       'phi and omega scans'
_diffrn_radiation_type           CuK\a
_diffrn_radiation_wavelength     1.54178
_diffrn_reflns_av_R_equivalents  0.0184
_diffrn_reflns_av_unetI/netI     0.0323
_diffrn_reflns_Laue_measured_fraction_full 0.982
_diffrn_reflns_Laue_measured_fraction_max 0.982
_diffrn_reflns_limit_h_max       8
_diffrn_reflns_limit_h_min       -8
_diffrn_reflns_limit_k_max       14
_diffrn_reflns_limit_k_min       -14
_diffrn_reflns_limit_l_max       9
_diffrn_reflns_limit_l_min       -9
_diffrn_reflns_number            6345
_diffrn_reflns_point_group_measured_fraction_full 0.949
_diffrn_reflns_point_group_measured_fraction_max 0.949
_diffrn_reflns_theta_full        66.594
_diffrn_reflns_theta_max         66.594
_diffrn_reflns_theta_min         5.549
_diffrn_source                   'sealed tube'
_exptl_absorpt_coefficient_mu    2.155
_exptl_absorpt_correction_type   none
_exptl_crystal_colour            colorless
_exptl_crystal_density_diffrn    1.345
_exptl_crystal_description       block
_exptl_crystal_F_000             300
_exptl_crystal_size_max          0.05
_exptl_crystal_size_mid          0.04
_exptl_crystal_size_min          0.03
_refine_diff_density_max         0.184
_refine_diff_density_min         -0.228
_refine_diff_density_rms         0.033
_refine_ls_abs_structure_details
;
 Flack x determined using 1039 quotients [(I+)-(I-)]/[(I+)+(I-)]
 (Parsons, Flack and Wagner, Acta Cryst. B69 (2013) 249-259).
;
_refine_ls_abs_structure_Flack   0.058(5)
_refine_ls_extinction_method     none
_refine_ls_goodness_of_fit_ref   1.044
_refine_ls_hydrogen_treatment    mixed
_refine_ls_matrix_type           full
_refine_ls_number_parameters     181
_refine_ls_number_reflns         2344
_refine_ls_number_restraints     1
_refine_ls_restrained_S_all      1.044
_refine_ls_R_factor_all          0.0226
_refine_ls_R_factor_gt           0.0225
_refine_ls_shift/su_max          0.001
_refine_ls_shift/su_mean         0.000
_refine_ls_structure_factor_coef Fsqd
_refine_ls_weighting_details
'w=1/[\s^2^(Fo^2^)+(0.0379P)^2^+0.0623P] where P=(Fo^2^+2Fc^2^)/3'
_refine_ls_weighting_scheme      calc
_refine_ls_wR_factor_gt          0.0617
_refine_ls_wR_factor_ref         0.0618
_reflns_Friedel_coverage         0.837
_reflns_Friedel_fraction_full    0.912
_reflns_Friedel_fraction_max     0.912
_reflns_number_gt                2321
_reflns_number_total             2344
_reflns_threshold_expression     'I > 2\s(I)'
_cod_data_source_file            jo8b03106_si_002.cif
_cod_data_source_block           a
_cod_original_sg_symbol_H-M      'P 21'
_cod_database_code               4033902
_shelx_shelxl_version_number     2016/6
_shelx_space_group_comment
;
The symmetry employed for this shelxl refinement is uniquely defined
by the following loop, which should always be used as a source of
symmetry information in preference to the above space-group names.
They are only intended as comments.
;
_shelx_res_file
;
TITL 180411HG_ZZG1_0m_a.res in P2(1)
    a.res
    created by SHELXL-2016/6 at 15:22:04 on 11-Apr-2018
REM Old TITL 180411HG_ZZG1_0m in P2(1)
REM SHELXT solution in P2(1)
REM R1 0.069,  Rweak 0.028,  Alpha 0.003,  Orientation as input
REM Flack x =  0.156 ( 0.004 ) from Parsons' quotients
REM Formula found by SHELXT:  C13 N O4 Cl
CELL  1.54178   7.3786  11.8974   8.0186   90.000   96.195   90.000
ZERR   14.000   0.0002   0.0003   0.0002    0.000    0.001    0.000
LATT -1
SYMM -X, 1/2+Y, -Z
SFAC C H N O S
UNIT 26 34 2 8 2
TEMP -100.150
L.S. 10
BOND $H
ACTA
LIST 4
FMAP 2
PLAN 20
WGHT    0.037900    0.062300
FVAR       2.23224
S1    5    0.845139    0.270482   -0.093858    11.00000    0.03067    0.02522 =
         0.02276   -0.00488    0.00679    0.00027
H1    2    0.637047    0.432804    0.700921    11.00000    0.03235
N1    3    0.565499    0.474323    0.654810    11.00000    0.01459    0.02106 =
         0.02780    0.00180    0.00428    0.00072
O1    4    0.612380    0.664540    0.855156    11.00000    0.03791    0.02906 =
         0.02323    0.00019    0.01000    0.00214
O2    4    0.665003    0.769928    0.633514    11.00000    0.03843    0.01987 =
         0.02272   -0.00287    0.00695   -0.00273
O3    4    0.926173    0.514685    0.677442    11.00000    0.01339    0.03646 =
         0.02109   -0.00046    0.00304    0.00095
AFIX 148
H3    2    1.018900    0.514612    0.665580    11.00000   -1.50000
AFIX   0
O4    4    0.273766    0.529326    0.617097    11.00000    0.01510    0.03439 =
         0.03942   -0.00065    0.00598    0.00170
C1    1    0.389798    0.460299    0.675345    11.00000    0.01966    0.02643 =
         0.02310   -0.00635    0.00721   -0.00296
C2    1    0.340614    0.356917    0.767579    11.00000    0.02880    0.03401 =
         0.03671    0.00045    0.01203   -0.00710
AFIX 137
H2A   2    0.230268    0.371338    0.822110    11.00000   -1.50000
H2B   2    0.441078    0.337329    0.852691    11.00000   -1.50000
H2C   2    0.318359    0.294532    0.688203    11.00000   -1.50000
AFIX   0
C3    1    0.678972    0.868528    0.739776    11.00000    0.04198    0.02047 =
         0.02992   -0.00586    0.00618   -0.00116
AFIX 137
H3A   2    0.716589    0.933073    0.675827    11.00000   -1.50000
H3B   2    0.769528    0.855174    0.836412    11.00000   -1.50000
H3C   2    0.560261    0.884116    0.779057    11.00000   -1.50000
AFIX   0
C4    1    0.633424    0.673400    0.709109    11.00000    0.01412    0.02441 =
         0.02477   -0.00051    0.00389    0.00268
C5    1    0.630319    0.576276    0.583491    11.00000    0.01543    0.02051 =
         0.02130    0.00094    0.00289   -0.00054
AFIX  13
H5    2    0.546726    0.596310    0.481270    11.00000   -1.20000
AFIX   0
C6    1    0.823556    0.557337    0.532424    11.00000    0.01637    0.02161 =
         0.02001   -0.00081    0.00427   -0.00172
AFIX  13
H6    2    0.875502    0.631834    0.504765    11.00000   -1.20000
AFIX   0
C7    1    0.824332    0.481152    0.380725    11.00000    0.01369    0.02160 =
         0.02185   -0.00047    0.00482   -0.00077
C8    1    0.816792    0.528969    0.221853    11.00000    0.03009    0.01813 =
         0.02432    0.00176    0.00553    0.00040
AFIX  43
H8    2    0.810241    0.608385    0.210431    11.00000   -1.20000
AFIX   0
C9    1    0.818683    0.462495    0.079531    11.00000    0.03176    0.02389 =
         0.01912    0.00115    0.00416    0.00053
AFIX  43
H9    2    0.812960    0.496606   -0.028029    11.00000   -1.20000
AFIX   0
C10   1    0.828933    0.346184    0.094253    11.00000    0.01741    0.02348 =
         0.02126   -0.00257    0.00266    0.00049
C11   1    0.835432    0.297169    0.252606    11.00000    0.02792    0.01816 =
         0.02602    0.00135    0.00475    0.00331
AFIX  43
H11   2    0.841331    0.217746    0.264169    11.00000   -1.20000
AFIX   0
C12   1    0.833250    0.364992    0.393725    11.00000    0.02692    0.02323 =
         0.02037    0.00288    0.00464   -0.00018
AFIX  43
H12   2    0.837971    0.331003    0.501312    11.00000   -1.20000
AFIX   0
C13   1    0.770298    0.131415   -0.045521    11.00000    0.05205    0.02743 =
         0.04086   -0.01234    0.01728   -0.00653
AFIX 137
H13A  2    0.651231    0.135931   -0.002324    11.00000   -1.50000
H13B  2    0.858917    0.097294    0.039447    11.00000   -1.50000
H13C  2    0.759994    0.085292   -0.147364    11.00000   -1.50000
REM #####
AFIX   0
HKLF 4




REM  180411HG_ZZG1_0m_a.res in P2(1)
REM R1 =  0.0225 for    2321 Fo > 4sig(Fo)  and  0.0226 for all    2344 data
REM    181 parameters refined using      1 restraints

END

WGHT      0.0347      0.0701

REM Highest difference peak  0.184,  deepest hole -0.228,  1-sigma level  0.033
Q1    1   0.2180  0.3271  0.7345  11.00000  0.05    0.18
Q2    1   0.4288  0.2940  0.7605  11.00000  0.05    0.15
Q3    1   0.7230  0.5601  0.5588  11.00000  0.05    0.13
Q4    1   0.7627  0.4041  0.0766  11.00000  0.05    0.12
Q5    1   0.7693  0.4215  0.3816  11.00000  0.05    0.12
Q6    1   0.7798  0.2050 -0.0757  11.00000  0.05    0.12
Q7    1   0.6358  0.6256  0.6338  11.00000  0.05    0.12
Q8    1   0.8335  0.5160  0.4758  11.00000  0.05    0.11
Q9    1   0.9652  0.3326  0.5065  11.00000  0.05    0.11
Q10   1   0.4946  0.4571  0.5361  11.00000  0.05    0.11
Q11   1   0.2192  0.2172  0.7461  11.00000  0.05    0.11
Q12   1   0.3750  0.4061  0.7177  11.00000  0.05    0.11
Q13   1   0.7625  0.3307 -0.0817  11.00000  0.05    0.10
Q14   1   0.6068  0.5253  0.6230  11.00000  0.05    0.10
Q15   1   0.8929  0.4249  0.3990  11.00000  0.05    0.10
Q16   1   0.7382  0.7793  0.9091  11.00000  0.05    0.10
Q17   1   0.7179  0.4080  0.8099  11.00000  0.05    0.10
Q18   1   0.4921  0.8028  0.5685  11.00000  0.05    0.10
Q19   1   0.7712  0.7244  0.4749  11.00000  0.05    0.09
Q20   1   0.3851  0.5131  0.8675  11.00000  0.05    0.09
;
_shelx_res_checksum              58051
_shelx_hkl_file
;
   1   0   0    2.50    0.90
   3   0   0 3340.37  141.19
  -4   0   0 9517.85  397.36
  -5   0   0 2721.23  114.79
   5   0   0 2537.15  113.89
   5   0   0 2694.53  115.99
  -5   0   0 2693.33  116.09
  -6   0   0 2741.13  119.29
   6   0   0 2745.43  117.99
   6   0   0 2761.42  124.99
   7   0   0   70.79    8.70
  -7   0   0   71.79    7.50
  -7   0   0   69.39    9.40
  -8   0   0  276.97   17.20
  -8   0   0  277.07   15.10
   0  -1   0    1.40    0.70
   0  -1   0    1.50    0.50
   0   1   0    1.30    0.50
  -3   1   0 5608.24  235.28
   4  -1   0 9899.41  408.46
   4  -1   0 9830.72  409.96
  -4  -1   0 9499.35  408.16
   4   1   0 9999.00  408.86
  -4   1   0 9689.63  408.36
   5  -1   0  964.60   46.70
  -5  -1   0  981.60   46.70
   5  -1   0  895.31   45.90
   5  -1   0  950.10   48.00
  -5  -1   0  962.10   47.70
   5   1   0 1107.79   47.80
  -5   1   0 1099.19   48.50
   5   1   0 1095.19   46.70
  -5   1   0 1131.89   47.30
  -6  -1   0 1268.57   54.49
   6  -1   0 1208.98   53.19
   6  -1   0 1069.69   61.59
   6   1   0 1143.99   58.19
  -6   1   0 1181.18   54.09
   7  -1   0 1106.69   49.60
  -7  -1   0 1056.49   50.79
  -7   1   0 1121.99   51.69
  -7   1   0 1095.59   52.59
  -7   1   0 1120.59   49.90
   7   1   0 1065.19   53.49
  -8  -1   0  916.41   42.50
  -8  -1   0  926.91   44.10
  -8   1   0  989.50   42.80
  -1  -2   0  504.35   22.50
   1  -2   0  514.15   23.90
  -1  -2   0  530.35   23.40
  -1   2   0  600.64   24.40
   2  -2   0  604.54   28.50
  -2  -2   0  609.84   27.30
  -2   2   0  646.44   28.50
   2   2   0  645.24   26.90
   3  -2   0  962.20   48.20
  -3  -2   0  988.60   46.50
  -3   2   0 1171.08   48.50
   3   2   0 1207.28   46.90
   4  -2   0 1693.43   73.09
  -4  -2   0 1699.13   72.69
   4  -2   0 1687.13   74.39
  -4   2   0 1651.63   73.89
  -4   2   0 1604.24   72.89
   4   2   0 1683.13   72.19
   5  -2   0  134.09   11.80
  -5  -2   0  124.09    9.50
   5  -2   0  135.89   10.50
   5  -2   0  124.79   10.10
  -5   2   0  138.99   11.90
  -5   2   0  117.59   11.20
  -6  -2   0 2682.43  118.49
   6  -2   0 2590.04  121.29
   6  -2   0 2677.63  117.49
  -6   2   0 2767.62  118.39
  -6   2   0 2831.12  117.79
  -6   2   0 2803.52  119.49
   6   2   0 2775.92  122.89
  -7  -2   0  395.36   22.90
   7  -2   0  398.76   22.00
  -7   2   0  454.35   22.30
   7   2   0  441.16   26.50
  -7   2   0  448.36   24.20
   8  -2   0  588.44   27.50
  -8  -2   0  601.24   29.20
  -8  -2   0  591.44   29.70
  -8  -2   0  594.14   28.10
   8   2   0  598.34   31.20
  -8   2   0  590.94   27.90
  -1  -3   0 1559.24   64.49
  -1  -3   0 1569.74   63.19
   1  -3   0 1566.44   64.89
  -1  -3   0 1524.95   63.19
  -1   3   0 1456.05   65.49
   1   3   0 1409.76   65.39
  -2  -3   0 2089.79   83.29
   2  -3   0 2029.10   84.59
  -2   3   0 1773.82   84.49
   3  -3   0 1273.87   57.59
  -3  -3   0 1320.27   56.09
   3  -3   0 1339.07   58.49
  -3   3   0 1289.47   58.39
   4  -3   0  805.12   38.90
   4  -3   0  817.82   37.70
  -4  -3   0  804.12   36.80
  -4   3   0  771.52   38.20
  -4   3   0  821.12   39.00
   5  -3   0 2200.58   94.19
  -5  -3   0 2124.29   93.39
   5  -3   0 2215.08   96.79
   5  -3   0 2078.99   93.19
  -5   3   0 2150.28   94.69
  -5   3   0 2118.59   96.49
  -5   3   0 2164.58   93.09
  -6  -3   0   23.50    5.90
   6  -3   0   30.30   11.10
   6  -3   0   23.10    8.10
   6  -3   0   31.50    6.20
  -6   3   0   33.10    9.20
   6   3   0   40.10   11.40
  -7  -3   0  461.15   23.70
   7  -3   0  462.35   22.70
  -7   3   0  412.36   22.10
   7   3   0  392.06   25.80
  -8  -3   0  774.42   36.60
  -8  -3   0  752.12   37.50
   8  -3   0  777.22   36.20
  -8   3   0  859.51   36.50
   8   3   0  875.71   39.50
   1  -4   0 6236.68  260.87
  -2  -4   0 2743.33  117.99
   2  -4   0 2720.83  119.29
  -2   4   0 2914.31  120.49
   3  -4   0 3217.38  135.89
   3  -4   0 3128.59  134.49
  -3  -4   0 3133.59  133.09
  -3   4   0 3147.79  136.39
  -4  -4   0  147.89    9.40
   4  -4   0  138.29   11.20
   4  -4   0  129.29   11.80
  -4   4   0  115.59   11.10
  -4   4   0  119.19   12.40
   5  -4   0  264.17   15.80
   5  -4   0  246.08   17.80
  -5   4   0  227.48   16.90
  -5   4   0  243.78   18.90
   6  -4   0  880.41   43.80
  -6  -4   0  895.81   43.90
   6  -4   0  873.91   48.30
   6  -4   0  903.81   43.20
  -6   4   0 1003.70   43.40
   6   4   0 1040.60   49.70
   7  -4   0  460.55   23.10
  -7  -4   0  459.95   24.10
   7   4   0  447.96   27.20
  -7   4   0  437.46   22.70
  -8  -4   0  263.17   14.00
   8  -4   0  261.87   13.80
  -8   4   0  254.07   15.00
   8   4   0  273.77   16.80
   0  -5   0    3.70    1.60
   0   5   0    0.50    1.60
  -1  -5   0 4086.99  176.38
   1  -5   0 4231.98  178.68
  -1  -5   0 4163.48  178.68
   1   5   0 4307.17  180.68
  -1   5   0 4388.26  180.78
  -2  -5   0 3346.47  149.59
   2  -5   0 3454.85  150.88
  -2   5   0 3818.82  152.98
  -3  -5   0  739.03   34.20
   3  -5   0  760.82   36.90
   3  -5   0  760.62   35.70
  -3   5   0  762.12   38.00
  -4  -5   0 1077.39   51.49
   4  -5   0 1127.39   53.69
   4  -5   0 1073.59   50.69
   4  -5   0 1085.09   51.39
  -4   5   0 1261.97   55.59
   5  -5   0  271.47   17.20
  -5  -5   0  246.38   15.90
   5  -5   0  295.07   20.40
   5  -5   0  276.47   16.30
  -5   5   0  301.07   22.20
  -5   5   0  296.57   17.00
   5   5   0  285.97   21.90
   6  -5   0  427.56   29.10
   6  -5   0  444.76   22.90
  -6  -5   0  447.86   23.40
   6  -5   0  441.96   23.70
   6   5   0  419.66   27.70
  -6   5   0  425.86   22.60
  -7  -5   0  268.67   16.90
  -7   5   0  292.27   16.10
   7   5   0  320.77   21.70
   8  -5   0  129.89    8.20
  -8  -5   0  133.69    9.90
  -8  -5   0  137.19    8.50
   8   5   0  142.29   11.20
   0  -6   0 2915.01  130.29
   0   6   0 3250.47  134.39
  -1   6   0   81.79    8.60
   1   6   0   80.49    8.40
   2  -6   0   77.89    8.80
   2  -6   0   93.19    8.10
  -2   6   0   69.89    8.80
   3  -6   0 1187.28   56.29
   3  -6   0 1146.29   54.39
  -3   6   0 1262.57   58.09
   3   6   0 1235.28   59.39
   4  -6   0  436.36   23.40
  -4  -6   0  402.66   22.20
   4  -6   0  412.26   22.60
   4  -6   0  423.06   25.70
  -4   6   0  451.35   27.10
  -4   6   0  461.45   22.90
   4   6   0  471.05   28.40
   5  -6   0  657.63   30.90
  -5  -6   0  598.74   30.60
   5  -6   0  627.74   35.60
   5  -6   0  639.14   31.90
   5   6   0  629.44   36.20
  -5   6   0  594.14   37.60
  -6  -6   0  316.07   17.80
   6  -6   0  299.77   18.20
   6  -6   0  325.07   17.50
   6   6   0  252.27   20.70
   7  -6   0  227.58   13.50
  -7  -6   0  234.28   14.50
   7   6   0  238.38   17.30
   0  -7   0   -0.50    2.40
   0  -7   0    0.30    2.40
   0   7   0    4.60    3.10
   1  -7   0  365.46   20.40
  -1  -7   0  370.86   21.00
   1   7   0  404.46   23.50
  -1   7   0  415.66   24.00
   2  -7   0  301.87   17.10
  -2  -7   0  313.07   17.40
   2  -7   0  326.57   18.10
  -2   7   0  278.47   19.80
  -2   7   0  250.87   16.00
   3  -7   0 1149.89   53.69
   3  -7   0 1159.18   50.99
   3  -7   0 1143.69   51.49
   3   7   0 1066.19   55.29
  -3   7   0 1087.19   55.59
  -3   7   0 1095.59   49.90
  -4  -7   0  115.39   10.00
   4  -7   0  121.19   10.30
   4  -7   0  125.29   13.50
  -5  -7   0  721.93   34.10
   5  -7   0  707.23   34.00
   5  -7   0  682.73   39.50
   5  -7   0  695.73   35.00
   5   7   0  719.73   39.40
  -5   7   0  676.93   43.70
  -6  -7   0  432.86   23.20
   6  -7   0  423.06   23.50
   6  -7   0  432.06   22.70
   6   7   0  484.45   28.20
  -7  -7   0  103.19    8.70
   7  -7   0  101.89    8.00
  -7  -7   0  102.09    8.30
   7   7   0  124.99   11.40
   0  -8   0 2300.87  100.49
   0   8   0 2295.67  103.29
   0   8   0 2260.67   98.19
   0   8   0 2175.88   96.99
   1  -8   0  794.72   37.40
  -1  -8   0  808.12   38.60
  -1   8   0  760.22   35.70
   1   8   0  741.93   35.70
  -1   8   0  733.43   36.70
  -1   8   0  785.42   41.70
   2  -8   0  508.55   27.60
   2  -8   0  503.35   25.90
  -2  -8   0  528.05   27.60
   2   8   0  499.25   25.20
   2   8   0  491.65   31.00
   2   8   0  491.85   25.90
  -2   8   0  520.65   25.00
  -2   8   0  509.05   30.90
  -2   8   0  494.35   26.30
  -3   8   0   91.09   11.90
  -3   8   0   88.89    8.60
  -3   8   0   91.09   16.80
   3   8   0   88.89   13.50
  -4  -8   0   58.89    8.00
   4  -8   0   55.99    7.90
   4  -8   0   57.29   12.80
   4  -8   0   48.80    7.60
   5  -8   0  407.36   23.20
   5  -8   0  401.56   21.60
  -5  -8   0  418.46   22.00
   5   8   0  413.56   26.60
  -6  -8   0   72.99    7.70
   6  -8   0   70.79    7.10
   6  -8   0   67.49    7.90
   6   8   0   56.19   10.20
  -7  -8   0   80.89    7.40
   7   8   0   76.19    8.90
   0  -9   0   -0.40    4.30
   0   9   0    0.40    4.90
   0   9   0    3.70    3.80
   0   9   0    3.60    3.60
   1  -9   0  478.05   26.30
   1   9   0  377.66   20.80
   1   9   0  386.36   21.80
  -1   9   0  391.56   20.80
  -1   9   0  388.96   27.60
  -1   9   0  394.76   22.10
   2  -9   0 1952.10   89.79
   2  -9   0 1965.50   87.29
  -2   9   0 2063.99   95.39
   2   9   0 1887.11   90.59
   2   9   0 2077.39   87.49
  -2   9   0 1923.71   86.89
   2   9   0 1951.70   86.29
  -2   9   0 2051.69   86.29
   3  -9   0   99.59   10.90
   3  -9   0  101.79   10.10
   3  -9   0   94.29   14.70
  -3   9   0  107.99   11.50
   3   9   0  109.99   14.30
  -3   9   0  116.19   17.30
  -3   9   0  115.59    9.10
  -4  -9   0 1038.20   47.80
   4  -9   0 1003.80   53.29
   4  -9   0 1081.49   46.60
  -4   9   0  987.40   45.40
   4   9   0  929.51   50.49
  -4   9   0  995.90   59.39
  -5  -9   0   11.70    4.30
   5  -9   0    5.60    3.40
   5  -9   0    7.90    4.20
  -5   9   0    1.90    6.30
   5   9   0    0.60    5.10
  -6  -9   0  290.17   16.00
   6  -9   0  274.07   16.20
   6  -9   0  283.07   15.30
   6   9   0  296.97   19.10
   0 -10   0 5032.30  214.08
   0  10   0 4846.92  209.08
   0  10   0 4904.81  208.18
   1 -10   0  429.76   24.20
  -1 -10   0  434.46   28.70
   1 -10   0  425.76   28.60
  -1  10   0  444.56   31.70
  -1  10   0  435.06   23.50
  -1  10   0  450.25   22.90
   1  10   0  472.75   24.00
   1  10   0  444.66   22.90
   2 -10   0  424.36   22.40
   2 -10   0  405.76   28.10
  -2  10   0  395.46   22.00
   2  10   0  382.36   20.90
  -2  10   0  385.06   30.10
   2  10   0  417.06   22.20
  -2  10   0  403.06   21.10
   3 -10   0   77.39   27.40
   3 -10   0   51.79   16.00
   3 -10   0   56.69   10.20
  -3  10   0   45.50    9.50
   3  10   0   52.69   12.60
  -3  10   0   56.69    6.90
  -3  10   0   40.70   13.50
   3  10   0   56.09   11.40
   4 -10   0 2242.28   99.59
   4 -10   0 2338.27  101.59
  -4 -10   0 2317.87  100.19
   4  10   0 2302.07  104.19
  -4  10   0 2357.86   99.19
   5 -10   0  525.25   26.80
  -5 -10   0  524.65   26.20
  -5  10   0  540.45   25.80
   5  10   0  529.65   29.50
  -6 -10   0 1166.48   51.99
   6 -10   0 1140.19   51.99
   6  10   0 1219.98   54.19
   0 -11   0    3.80    9.80
   0  11   0   -0.20    3.10
   0  11   0    3.10    3.70
   1 -11   0  411.56   26.00
  -1  11   0  526.45   25.90
   1  11   0  519.05   26.10
  -1  11   0  533.95   25.30
   1  11   0  504.75   24.90
  -1  11   0  482.05   36.10
   2 -11   0 3371.46  143.09
  -2  11   0 3345.07  141.89
  -2  11   0 3351.76  142.19
   2  11   0 3236.38  141.39
   3 -11   0   10.60    4.30
   3  11   0   14.30    8.10
  -3  11   0   10.50    3.70
  -4 -11   0 1485.35   65.49
   4 -11   0 1473.35   66.39
   4  11   0 1420.56   67.59
  -4  11   0 1553.84   64.59
   5 -11   0  141.69   11.10
  -5 -11   0  144.89   10.90
   5  11   0  169.18   12.50
   0  12   0 1272.47   56.89
   0  12   0 1243.58   56.19
   1 -12   0  217.98   15.30
  -1  12   0  243.58   13.70
  -1  12   0  218.48   14.80
   1  12   0  220.18   13.40
   2 -12   0  427.56   23.70
   2  12   0  457.15   22.70
  -2  12   0  464.55   26.90
  -2  12   0  464.65   22.90
   3 -12   0  181.18   12.40
  -4  12   0  240.68   12.60
   0  13   0   -1.90    2.70
   1 -13   0  222.48   15.20
   1  13   0  210.58   12.80
  -1  13   0  226.08   12.60
   2 -13   0  129.09   11.10
   2  13   0  165.08   10.20
  -2  13   0  164.98    9.50
   3 -13   0   92.89    8.20
  -3  13   0   94.19    6.60
   0  14   0  152.28    9.40
   1  14   0  134.79    9.20
  -1  14   0  152.48    8.90
  -8   0   1   56.19    6.10
   7   0  -1    2.00    3.90
   7   0  -1    4.40    9.40
  -7   0   1    4.60    5.50
  -6   0   1  259.77   16.10
   6   0  -1  257.57   15.30
   5   0  -1  462.55   24.10
   5   0  -1  416.36   22.50
  -5   0   1  434.06   22.50
  -5   0   1  435.86   24.50
   4   0  -1 1267.97   56.09
   4   0  -1 1260.57   55.59
  -4   0   1 1216.08   55.09
  -3   0   1  121.19    7.70
   3   0  -1  128.89    8.00
   0   0  -1  740.83   31.60
   1   0   1 1877.91   79.09
   2   0   1 2996.80  126.19
  -4   0  -1 1770.52   74.79
   4   0   1 1694.33   75.39
  -4   0  -1 1679.93   74.29
   5   0   1  103.49   10.10
  -5   0  -1  102.19    8.90
   5   0   1  107.99   10.50
  -6   0  -1  193.48   13.60
   6   0   1  203.88   13.30
  -6   0  -1  196.88   12.80
  -7   0  -1  386.56   21.60
  -7   0  -1  378.86   22.00
  -7   0  -1  367.76   20.00
  -8   0  -1  268.37   14.30
  -8   0  -1  255.27   15.90
  -8  -1   1   65.19    6.30
   8  -1  -1   53.49    6.80
  -8   1   1   46.40    5.90
  -7  -1   1   19.30    5.30
   7  -1  -1   15.20    4.40
   7   1  -1    9.10    7.80
  -7   1   1   19.20    7.70
   7   1  -1   15.30    5.50
   6  -1  -1  828.42   37.10
  -6  -1   1  735.43   50.59
   6  -1  -1  839.52   45.60
  -6  -1   1  856.91   38.10
  -6   1   1  709.03   37.20
   6   1  -1  718.83   36.80
   5  -1  -1  982.90   44.70
  -5  -1   1 1028.40   45.00
   5  -1  -1 1007.40   45.30
   5  -1  -1 1030.50   47.10
   5   1  -1  928.11   44.60
  -5   1   1  954.80   47.30
   5   1  -1  907.01   45.30
   4  -1  -1 2446.36  105.09
  -4  -1   1 2560.24  103.89
   4  -1  -1 2461.75  104.39
  -4   1   1 2296.67  103.69
  -4   1   1 2359.26  105.39
   4   1  -1 2411.46  103.79
   2  -1   1 4172.28  175.18
   3  -1   1 2255.57   93.99
  -3   1  -1 2173.68   92.79
   3   1   1 2118.39   93.19
  -4  -1  -1   37.00    5.30
   4  -1   1   25.70    7.30
  -5  -1  -1 1531.05   66.29
   5  -1   1 1457.65   67.79
   5  -1   1 1491.55   65.39
   5   1   1 1449.95   66.89
  -5   1  -1 1541.55   66.49
   5   1   1 1432.06   70.29
   5   1   1 1476.35   67.19
   6  -1   1 1935.31   81.79
  -6  -1  -1 1883.51   83.19
   6  -1   1 1880.11   86.39
  -6   1  -1 1884.71   83.29
  -6   1  -1 1869.51   83.99
   6   1   1 1790.32   85.89
  -6   1  -1 1851.11   81.99
   7  -1   1  708.33   32.10
  -7  -1  -1  711.63   32.70
  -7  -1  -1  711.03   34.10
  -7   1  -1  657.13   32.50
  -7   1  -1  629.74   33.50
  -7   1  -1  658.93   34.40
  -8  -1  -1  338.77   20.20
  -8  -1  -1  344.67   18.50
  -8  -1  -1  338.47   20.10
  -8   1  -1  417.56   18.90
  -8   1  -1  408.26   26.90
  -8  -2   1  182.08   13.50
   8  -2  -1  189.18   11.20
  -8  -2   1  189.68   11.20
  -8   2   1  178.08   11.00
   8   2  -1  171.58   15.20
   7  -2  -1  584.54   28.90
  -7  -2   1  586.64   29.90
   7   2  -1  590.14   33.70
  -7   2   1  590.04   28.80
  -6  -2   1  260.97   15.60
   6  -2  -1  246.28   19.40
   6  -2  -1  244.08   16.10
   6  -2  -1  243.38   14.70
  -6  -2   1  244.98   20.00
  -6   2   1  216.18   19.50
  -5  -2   1 1203.98   51.79
   5  -2  -1 1202.48   52.39
   5  -2  -1 1183.98   51.69
   5  -2  -1 1197.68   54.39
   5   2  -1 1056.49   51.19
  -5   2   1 1035.30   51.49
  -5   2   1 1098.59   54.19
   4  -2  -1 1411.56   59.59
   4  -2  -1 1414.06   60.69
  -4  -2   1 1413.06   58.89
  -4   2   1 1310.97   60.79
   4   2  -1 1248.98   57.59
  -4   2   1 1195.98   58.69
  -3  -2   1 6102.69  258.57
   3  -2  -1 6133.19  259.77
   3   2  -1 6210.38  257.37
  -3   2   1 6270.07  260.37
   2  -2  -1  907.91   40.60
  -2  -2   1  885.01   39.90
   2   2  -1  893.01   38.50
  -2   2   1  961.20   41.10
   2   2   1  362.86   17.00
  -2   2  -1  371.56   17.60
  -3   2  -1  249.08   13.30
   3   2   1  244.78   12.80
  -4  -2  -1  579.54   28.80
   4  -2   1  655.13   30.70
   4  -2   1  607.64   29.30
  -4   2  -1  591.54   29.40
  -4   2  -1  648.34   29.70
   4   2   1  574.34   28.90
   5  -2   1 2682.73  116.19
  -5  -2  -1 2819.02  114.39
   5  -2   1 2715.33  113.49
  -5   2  -1 2569.14  115.09
   5   2   1 2534.55  117.89
  -5   2  -1 2538.15  114.29
  -5   2  -1 2633.64  113.49
  -6  -2  -1 1266.57   61.69
   6  -2   1 1315.07   60.79
   6  -2   1 1209.78   64.59
  -6   2  -1 1441.36   61.09
  -6   2  -1 1411.06   62.09
   6   2   1 1442.46   65.69
  -6   2  -1 1446.86   63.29
   7  -2   1  242.68   14.10
  -7  -2  -1  253.57   15.70
  -7  -2  -1  238.98   14.20
  -7   2  -1  233.78   16.10
   7   2   1  217.68   17.80
  -7   2  -1  234.08   14.20
  -8  -2  -1  215.78   12.10
  -8  -2  -1  213.78   13.70
  -8   2  -1  207.48   11.90
  -8   2  -1  195.98   14.70
   8  -3  -1  194.88   11.20
  -8  -3   1  197.58   11.10
  -8  -3   1  198.68   13.30
   8   3  -1  167.18   14.40
  -8   3   1  167.78   10.90
  -7  -3   1  470.35   24.40
   7  -3  -1  435.46   23.20
  -7   3   1  447.56   22.90
   7   3  -1  456.85   28.10
   6  -3  -1 1216.08   60.69
   6  -3  -1 1205.18   55.79
   6  -3  -1 1232.68   56.69
  -6  -3   1 1245.98   56.49
  -6   3   1 1267.37   62.69
  -6   3   1 1240.18   55.59
   5  -3  -1 1499.35   70.79
   5  -3  -1 1473.25   68.49
  -5  -3   1 1529.85   67.89
   5  -3  -1 1485.35   67.69
  -5   3   1 1658.93   72.09
   4  -3  -1   77.69    8.20
   4  -3  -1   75.09    7.50
  -4  -3   1   72.39    6.80
  -4  -3   1   82.69    6.80
  -4   3   1   67.09    8.00
  -3  -3   1 2311.87   99.29
   3  -3  -1 2290.87  100.09
   3  -3  -1 2312.47  100.89
  -3   3   1 2394.16  101.49
  -2  -3   1  951.10   41.50
   2  -3  -1  893.41   42.00
  -2   3   1  968.60   42.80
  -1  -3   1  771.22   35.90
  -1   3   1  853.01   36.90
   0  -3   1 1135.49   46.30
   0  -3   1 1126.59   47.30
   0   3   1 1046.10   47.50
   0   3  -1 1026.70   47.50
   1  -3   1 3089.09  124.69
   1   3   1 2938.61  125.09
  -1   3  -1 2836.52  124.99
  -2  -3  -1   36.90    2.80
   2  -3   1   39.30    4.20
   3  -3   1 2174.28   87.59
   3  -3   1 2112.89   86.49
  -3   3  -1 1798.82   86.89
  -3   3  -1 1912.71   86.69
   4  -3   1  923.11   47.30
   4  -3   1  913.71   45.80
  -4  -3  -1  927.81   45.30
  -4   3  -1 1112.49   47.60
  -4   3  -1 1087.79   46.80
  -4   3  -1 1121.39   47.80
  -5  -3  -1  473.45   23.00
   5  -3   1  458.25   23.10
   5  -3   1  449.36   22.60
   5  -3   1  479.55   26.00
  -5   3  -1  401.16   23.80
   5   3   1  441.96   27.40
  -5   3  -1  399.16   22.20
  -5   3  -1  402.96   23.90
   6  -3   1  608.74   35.80
   6  -3   1  647.04   31.20
  -6  -3  -1  631.94   31.90
   6   3   1  650.13   35.60
  -6   3  -1  654.93   31.30
  -6   3  -1  642.64   33.00
   7  -3   1  316.47   16.70
  -7  -3  -1  292.57   16.60
  -7  -3  -1  307.47   17.90
   7   3   1  276.67   19.80
  -7   3  -1  308.37   18.90
  -7   3  -1  297.07   16.60
  -8  -3  -1  335.97   17.30
  -8  -3  -1  295.97   21.00
  -8  -3  -1  351.56   20.20
  -8   3  -1  381.86   17.20
   8  -4  -1    8.70    2.80
  -8  -4   1    7.10    5.60
   8   4  -1    2.70    4.90
  -7  -4   1  601.44   29.90
   7  -4  -1  588.34   28.90
   7   4  -1  633.34   34.50
  -7   4   1  549.35   29.00
   6  -4  -1  181.28   12.20
  -6  -4   1  174.98   12.50
   6  -4  -1  171.28   18.00
   6  -4  -1  178.38   13.20
  -6   4   1  171.58   12.20
  -6   4   1  176.78   22.00
   5  -4  -1   12.70    4.50
   5  -4  -1    9.30    4.20
   5  -4  -1   10.70    5.50
  -5  -4   1    8.10    3.40
  -5   4   1   13.00    5.20
  -5   4   1   10.00    5.60
  -5   4   1   13.00    5.60
   4  -4  -1  293.47   18.00
  -4  -4   1  305.57   15.90
   4  -4  -1  274.97   16.70
  -4  -4   1  287.57   15.80
   4  -4  -1  256.57   18.40
   3  -4  -1  621.84   30.90
  -3  -4   1  612.14   30.20
   3  -4  -1  634.54   31.80
  -3  -4   1  633.24   30.10
  -3   4   1  725.73   33.20
   2  -4  -1 2788.02  120.09
  -2  -4   1 2777.02  119.29
  -2   4   1 2851.31  121.39
  -1  -4   1 1129.99   47.30
   1  -4  -1 1139.89   47.40
  -1   4   1  925.41   47.90
   0  -4   1 2068.99   87.19
   0  -4   1 2042.20   88.49
   0   4   1 2060.19   89.29
   0   4  -1 2087.29   89.39
   1  -4   1 2605.14  113.69
   1   4   1 2792.22  115.09
  -1   4  -1 2645.54  114.79
  -2  -4  -1  508.85   21.70
  -2   4  -1  467.65   24.20
   3  -4   1 5218.98  216.38
   3  -4   1 5268.27  217.98
  -3   4  -1 4597.14  219.08
  -3   4  -1 5457.65  217.78
   4  -4   1  930.31   44.30
   4  -4   1  896.71   41.80
   4  -4   1  927.11   42.40
  -4  -4  -1  910.61   41.60
  -4   4  -1  908.31   44.10
  -4   4  -1  879.41   41.90
   4   4   1  907.21   46.60
  -4   4  -1  942.41   43.60
  -5  -4  -1   69.59    7.40
   5  -4   1   71.69    8.20
   5   4   1   57.49   11.70
  -5   4  -1   64.19    9.40
  -5   4  -1   69.59    8.00
   6  -4   1 1058.09   48.80
  -6  -4  -1 1130.89   49.50
   6  -4   1 1105.19   48.60
   6  -4   1 1053.19   53.79
  -6   4  -1 1015.00   50.19
  -6   4  -1 1008.80   48.10
   6   4   1 1028.80   52.99
  -7  -4  -1   91.99    8.90
   7  -4   1   90.79    9.90
  -7  -4  -1   91.79   10.30
  -7   4  -1  112.39    9.20
   7   4   1  112.59   13.90
  -7   4  -1   95.29   11.30
  -8  -4  -1   71.09    7.90
  -8  -4  -1   67.19    6.10
  -8  -4  -1   72.49    7.60
   8   4   1   78.19   12.30
  -8  -5   1   65.49    5.70
  -8  -5   1   63.59    7.30
   8  -5  -1   63.89    5.80
   8   5  -1   67.59    8.70
   7  -5  -1   20.40    6.20
   7  -5  -1   11.00    3.80
  -7  -5   1   16.20    5.30
  -6  -5   1  472.85   23.90
   6  -5  -1  467.85   23.40
   6  -5  -1  443.06   30.20
   6  -5  -1  458.45   24.40
  -6   5   1  389.86   34.10
   6   5  -1  406.26   28.20
   5  -5  -1 4612.94  194.38
   5  -5  -1 4649.13  198.98
  -5  -5   1 4501.05  194.38
   5  -5  -1 4617.74  195.68
  -5   5   1 4519.45  193.88
  -4  -5   1  249.88   14.50
   4  -5  -1  243.88   17.10
  -4  -5   1  254.47   15.40
   4  -5  -1  247.68   15.70
   4  -5  -1  243.68   15.20
  -4   5   1  260.27   18.50
  -4   5   1  253.77   16.50
  -4   5   1  226.18   15.50
  -3  -5   1 3683.73  153.38
   3  -5  -1 3585.44  155.28
  -3  -5   1 3563.84  152.68
   3  -5  -1 3803.92  153.68
  -3   5   1 3362.16  156.28
  -2  -5   1  307.37   17.90
   2  -5  -1  320.07   17.40
   1  -5  -1 6850.01  287.37
   0  -5   1 2645.54  114.19
   0  -5   1 2576.34  115.79
   0  -5  -1 2786.82  115.09
   0   5   1 2709.13  117.09
   0   5  -1 2813.82  117.29
  -1  -5  -1 2688.73  118.29
   1  -5   1 2683.73  118.59
   1   5   1 2939.81  120.89
  -1   5  -1 2840.32  120.69
   2  -5   1  952.20   44.40
   2  -5   1 1001.60   45.20
  -2  -5  -1 1002.80   43.10
  -2   5  -1 1012.90   46.40
  -2   5  -1  957.60   45.30
   3  -5   1   17.70    5.20
   3  -5   1   13.70    4.10
  -3   5  -1   19.10    5.80
   4  -5   1 2069.59   90.39
   4  -5   1 2085.49   87.29
   4  -5   1 2061.39   87.99
  -4   5  -1 1958.70   90.29
   4   5   1 2001.10   91.99
  -4   5  -1 1937.61   88.59
  -4   5  -1 1912.31   87.09
   5  -5   1 1011.30   46.60
  -5  -5  -1  983.80   46.40
   5  -5   1  970.60   47.10
   5  -5   1  994.80   50.69
   5   5   1 1038.70   51.39
  -5   5  -1 1044.70   46.40
  -5   5  -1 1021.70   48.10
   6  -5   1  562.94   27.80
  -6  -5  -1  540.85   27.90
   6  -5   1  552.84   40.70
   6  -5   1  545.85   27.10
  -6   5  -1  498.85   28.50
   6   5   1  558.24   32.00
  -6   5  -1  524.45   26.60
  -7  -5  -1  451.75   21.90
   7  -5   1  448.66   22.00
  -7  -5  -1  464.25   23.40
   7  -5   1  440.96   20.80
   7   5   1  421.86   25.50
  -7   5  -1  404.16   21.50
  -8  -5  -1  191.98   12.20
  -8  -5  -1  190.08   11.90
   8   5   1  189.68   12.70
   7  -6  -1 1144.19   53.89
   7  -6  -1 1262.27   54.19
  -7  -6   1 1210.18   54.59
   7   6  -1 1197.38   58.29
   6  -6  -1   50.89    7.70
  -6  -6   1   41.60    6.80
   6  -6  -1   40.60    6.60
   6   6  -1   47.70   10.70
   5  -6  -1 1340.97   60.99
  -5  -6   1 1349.66   59.79
   5  -6  -1 1348.86   59.59
   5  -6  -1 1340.37   64.89
  -5   6   1 1273.87   66.69
  -5   6   1 1273.97   59.59
   4  -6  -1  283.17   19.20
   4  -6  -1  278.37   16.60
   4  -6  -1  281.57   16.40
  -4  -6   1  270.17   15.50
  -4   6   1  248.48   15.50
  -4   6   1  232.78   16.20
  -4   6   1  253.47   20.20
   3  -6  -1 4762.12  203.48
  -3  -6   1 4754.22  202.58
  -3  -6   1 4825.62  203.68
   3  -6  -1 4923.01  205.98
  -3   6   1 4654.53  201.88
  -3   6   1 4876.61  208.28
  -2  -6   1 2044.00   90.49
   2  -6  -1 2136.79   91.69
  -2   6   1 2041.70   93.69
   1  -6  -1 6699.73  284.07
  -1  -6   1 6861.01  284.67
  -1   6   1 6699.13  286.87
   0  -6   1 1910.01   86.79
   0  -6  -1 1914.91   85.39
   0  -6   1 1856.71   84.49
   0   6   1 2094.69   88.99
   0   6  -1 2140.39   88.89
  -1  -6  -1  268.87   14.80
  -1  -6  -1  282.47   13.90
  -1   6  -1  245.48   16.50
   1   6   1  274.47   16.90
   2  -6   1 1755.22   75.89
   2  -6   1 1661.73   74.59
  -2  -6  -1 1672.93   73.79
  -2   6  -1 1719.03   75.69
  -2   6  -1 1727.33   77.69
   3  -6   1  301.57   19.00
   3  -6   1  312.67   18.90
   3  -6   1  320.77   20.40
  -3   6  -1  390.86   20.80
   3   6   1  371.66   19.80
  -3   6  -1  388.56   22.40
   3   6   1  386.96   23.80
   4  -6   1  351.36   19.60
  -4  -6  -1  333.97   18.60
   4  -6   1  347.07   21.80
   4  -6   1  345.57   19.00
   4   6   1  360.86   23.60
  -4   6  -1  334.47   20.30
  -4   6  -1  329.77   22.90
   5  -6   1  319.77   17.40
   5  -6   1  316.27   18.20
  -5  -6  -1  321.27   17.40
   5  -6   1  304.97   22.30
  -5   6  -1  267.77   17.40
   5   6   1  294.07   21.80
  -5   6  -1  266.47   18.70
  -6  -6  -1  520.85   27.50
   6  -6   1  535.65   27.00
   6  -6   1  506.05   27.20
   6   6   1  580.94   31.90
  -6   6  -1  568.84   30.80
   7  -6   1    5.70    2.90
  -7  -6  -1    6.90    3.50
  -7  -6  -1    7.90    3.60
   7  -6   1    8.30    3.30
   7   6   1   13.50    5.40
   7  -7  -1   12.00    3.30
  -7  -7   1   14.80    5.20
   7  -7  -1   14.70    6.30
   7   7  -1   24.80    7.40
  -6  -7   1  968.30   45.40
   6  -7  -1  959.20   46.00
   6  -7  -1  970.60   44.90
   6   7  -1  996.80   50.59
   5  -7  -1  259.17   22.90
  -5  -7   1  282.27   17.00
   5  -7  -1  268.07   16.60
   5  -7  -1  269.27   17.80
   5   7  -1  338.27   23.30
  -5   7   1  318.87   17.00
  -5   7   1  307.97   26.30
   4  -7  -1   33.10    9.70
  -4  -7   1   24.80    6.30
   4  -7  -1   26.10    6.80
   4  -7  -1   30.90    6.80
  -4   7   1   24.20    5.90
  -4   7   1   34.10    8.90
  -4   7   1   29.60   10.80
   3  -7  -1 1254.07   58.99
  -3  -7   1 1266.77   57.19
   3  -7  -1 1230.88   56.39
   3  -7  -1 1169.48   58.19
  -3  -7   1 1171.28   60.99
  -3   7   1 1255.67   55.09
   3   7  -1 1254.77   55.39
  -3   7   1 1268.37   56.29
  -3   7   1 1277.57   61.79
  -2  -7   1 1775.82   84.19
   2  -7  -1 1887.71   85.29
  -2   7   1 1892.21   83.59
  -2   7   1 1922.61   82.39
  -2   7   1 2010.90   88.89
   2   7  -1 1862.71   82.99
   2   7  -1 1982.10   83.39
  -1  -7   1   60.19    7.50
   1  -7  -1   61.69    7.40
  -1   7   1   69.69    9.40
   0  -7   1  632.24   31.00
   0  -7   1  625.24   28.10
   0   7   1  557.44   32.00
   0   7  -1  587.84   32.20
   1  -7   1 4270.87  177.88
  -1  -7  -1 4182.48  178.88
   1  -7   1 4363.66  178.68
   1  -7   1 4091.39  180.38
   1   7   1 4105.89  181.98
   1   7   1 4152.08  179.38
  -1   7  -1 4244.38  182.48
  -2  -7  -1  523.75   28.10
   2  -7   1  516.25   27.50
   2  -7   1  525.25   28.60
  -2   7  -1  607.24   31.70
   2   7   1  591.44   32.50
  -2   7  -1  571.24   27.00
   2   7   1  576.44   28.30
   3  -7   1  887.51   41.30
   3  -7   1  879.11   43.30
   3  -7   1  830.72   40.30
  -3   7  -1  862.21   41.90
   3   7   1  903.71   45.30
  -3   7  -1  843.72   44.90
  -3   7  -1  857.71   39.70
   3   7   1  895.21   41.00
   4  -7   1  156.28   14.60
  -4  -7  -1  151.18   11.50
   4  -7   1  166.08   12.20
   4  -7   1  152.18   11.20
  -4   7  -1  135.29   22.80
   4   7   1  150.58   15.40
  -4   7  -1  148.69   13.30
   5  -7   1   26.60    8.70
  -5  -7  -1   24.70    6.50
   5  -7   1   27.20    5.90
   5  -7   1   20.00    6.00
   6  -7   1   73.59    8.50
  -6  -7  -1   70.19    8.00
   6  -7   1   71.49    7.30
   6   7   1   77.69   10.50
   7  -7   1  249.97   13.10
  -7  -7  -1  255.27   15.10
   7   7   1  304.37   17.80
   7  -8  -1  105.99   10.30
  -7  -8   1  118.29    9.00
   7  -8  -1  118.99    8.00
   7   8  -1  128.49   11.00
  -6  -8   1  325.97   18.40
   6  -8  -1  330.97   18.00
   6  -8  -1  312.27   18.90
   6   8  -1  358.76   22.90
   5  -8  -1  362.66   20.00
  -5  -8   1  366.26   20.40
   5  -8  -1  361.36   21.50
  -5   8   1  381.46   19.50
   5   8  -1  389.36   25.70
   4  -8  -1  436.36   24.60
  -4  -8   1  434.36   23.60
   4  -8  -1  417.86   23.30
   4  -8  -1  424.46   28.70
  -4   8   1  472.15   32.40
   4   8  -1  486.25   29.20
  -4   8   1  488.65   23.10
  -4   8   1  454.65   24.00
  -3   8   1   42.70   12.50
   3   8  -1   34.70    9.80
  -3   8   1   33.60    8.50
   3   8  -1   30.70    6.30
  -3   8   1   39.50    8.10
   2  -8  -1  141.59   12.70
  -2  -8   1  145.19   12.70
  -2   8   1  157.58   12.20
   2   8  -1  153.48   11.10
  -2   8   1  162.88   10.70
  -2   8   1  154.48   15.90
   2   8  -1  149.88   20.20
  -1  -8   1  768.42   37.80
   1  -8  -1  722.43   36.40
   1   8  -1  727.33   34.30
  -1   8   1  718.63   35.60
  -1   8   1  749.33   34.50
   1   8  -1  727.43   35.10
  -1   8   1  745.53   40.70
   0  -8  -1  491.55   24.10
   0  -8   1  489.55   25.90
   0  -8   1  409.76   23.30
   0  -8  -1  483.75   25.40
   0   8  -1  445.26   27.30
   0   8   1  408.36   22.40
   0   8  -1  414.16   23.20
   0   8  -1  441.16   22.50
   0   8   1  457.05   28.00
   0   8   1  434.36   23.60
   1  -8   1 1049.09   52.59
   1  -8   1 1096.59   53.09
  -1  -8  -1 1124.99   51.69
   1  -8   1 1114.89   50.79
  -1   8  -1 1079.59   49.20
  -1   8  -1 1122.99   55.19
   1   8   1 1109.39   50.59
   1   8   1 1069.89   49.30
  -1   8  -1 1074.89   50.39
   1   8   1 1141.29   55.19
   2  -8   1  673.33   31.20
   2  -8   1  544.35   28.70
   2  -8   1  641.94   32.80
   2   8   1  562.04   29.00
   2   8   1  538.05   28.30
  -2   8  -1  564.34   27.80
   2   8   1  522.35   32.20
  -2   8  -1  563.14   33.70
   3  -8   1 1615.84   78.79
   3  -8   1 1787.62   76.89
   3   8   1 1737.73   80.89
   4  -8   1  422.06   29.20
   4  -8   1  459.35   24.50
   4  -8   1  442.56   23.20
   4  -8   1  436.66   28.40
   4   8   1  473.15   28.20
  -4   8  -1  438.16   22.60
  -4   8  -1  451.95   33.40
  -5  -8  -1 1550.74   71.09
   5  -8   1 1538.25   72.19
   5  -8   1 1646.54   71.39
   5   8   1 1709.53   76.59
   6  -8   1  347.67   17.50
   6  -8   1  337.97   18.20
  -6  -8  -1  337.97   18.20
   6   8   1  275.27   20.30
  -7  -8  -1   42.70    6.40
   7  -8   1   42.90    5.50
   7   8   1   47.40    6.80
   6  -9  -1   34.30    6.20
   6  -9  -1   34.50    5.50
  -6  -9   1   36.60    6.20
   5  -9  -1  608.54   29.40
   5  -9  -1  548.05   29.60
  -5  -9   1  593.94   28.20
   5   9  -1  515.55   31.80
  -5   9   1  523.75   26.80
   4  -9  -1  279.37   24.80
   4  -9  -1  264.87   16.90
  -4  -9   1  286.87   19.90
  -4   9   1  295.47   17.40
  -4   9   1  284.57   28.80
   4   9  -1  291.97   21.40
  -4   9   1  306.17   16.30
  -3  -9   1  867.51   41.20
   3  -9  -1  872.21   42.00
   3  -9  -1  852.31   45.70
  -3   9   1  886.81   40.30
  -3   9   1  897.21   41.50
   3   9  -1  828.62   45.20
  -3   9   1  898.01   50.69
   3   9  -1  863.81   40.20
  -2   9   1  145.59   11.90
  -2   9   1  146.79   17.70
  -2   9   1  144.29   10.40
   2   9  -1  132.89   12.70
   1  -9  -1  575.24   30.30
  -1  -9   1  582.44   31.10
  -1  -9   1  587.04   31.60
   1   9  -1  521.35   27.40
   1   9  -1  536.75   26.70
  -1   9   1  523.45   26.70
  -1   9   1  529.65   28.00
  -1   9   1  506.95   35.40
   0  -9  -1  264.47   18.50
   0  -9   1  256.67   15.70
   0  -9   1  265.47   18.50
   0   9  -1  234.48   15.20
   0   9   1  230.88   19.90
   0   9   1  222.48   15.40
   0   9  -1  244.08   14.50
   0   9   1  228.88   14.50
   1  -9   1 2064.09   93.49
  -1  -9  -1 2072.19   96.29
  -1   9  -1 2137.59   93.29
  -1   9  -1 2237.78   95.49
  -1   9  -1 2191.68  107.99
   1   9   1 2168.48   92.69
   1   9   1 2121.79   96.99
   2  -9   1  718.63   39.80
   2  -9   1  782.52   36.10
  -2   9  -1  737.93   34.30
  -2   9  -1  686.13   41.20
   2   9   1  725.73   35.70
   3  -9   1  738.93   41.40
   3  -9   1  774.92   36.90
   3  -9   1  811.12   38.30
   3  -9   1  758.52   43.10
  -3   9  -1  810.22   36.40
   3   9   1  789.32   41.40
  -3   9  -1  782.62   45.70
   4  -9   1  241.08   14.90
   4  -9   1  246.38   13.80
  -4   9  -1  177.58   12.90
   4   9   1  184.78   16.70
  -5  -9  -1  819.32   39.30
   5  -9   1  802.92   40.00
   5   9   1  915.91   47.10
  -6  -9  -1   69.39    7.50
   6   9   1   58.89    8.60
  -6 -10   1   15.50    5.30
   6 -10  -1   11.60    3.90
   5 -10  -1  569.34   27.30
  -5 -10   1  571.04   27.90
   5 -10  -1  571.54   29.00
   5  10  -1  569.34   31.20
  -5  10   1  567.94   26.60
   4 -10  -1  147.99   11.60
   4  10  -1  134.39   14.20
  -4  10   1  112.59    9.20
   3 -10  -1  170.38   12.70
  -3  10   1  131.09   24.50
   3  10  -1  140.59   11.20
  -3  10   1  141.99   10.50
   3  10  -1  135.99   16.50
  -3  10   1  146.79   11.60
  -2 -10   1  313.67   18.90
   2 -10  -1  321.37   19.50
  -2 -10   1  326.57   29.10
  -2  10   1  341.07   18.10
  -2  10   1  320.97   28.70
  -2  10   1  335.97   19.10
   2  10  -1  319.17   18.00
  -1 -10   1 2351.56  109.19
  -1 -10   1 2358.26  104.49
   1 -10  -1 2296.37  109.79
  -1  10   1 2440.96  114.59
  -1  10   1 2525.15  105.39
   1  10  -1 2398.36  103.59
   1  10  -1 2387.26  104.39
  -1  10   1 2464.15  103.99
   0  10  -1   66.49    7.50
   0  10   1   65.79    8.80
   0  10   1   67.99    8.00
   0  10   1   67.89   15.10
   0  10  -1   66.99    8.20
   1 -10   1  129.99   10.90
   1 -10   1  129.99   15.80
  -1  10  -1  126.69   11.20
  -1  10  -1  138.59   10.10
   1  10   1  134.29   10.50
   1  10   1  139.19   11.20
   2 -10   1  269.37   22.50
   2 -10   1  282.27   16.30
   2  10   1  252.47   16.10
  -2  10  -1  247.48   24.70
   2  10   1  247.28   15.30
  -2  10  -1  260.77   15.10
   2  10   1  243.78   19.90
   3 -10   1  308.97   18.30
  -3  10  -1  308.47   16.90
   3  10   1  299.27   20.90
   4 -10   1   14.10    4.60
  -4  10  -1   18.10    6.90
   4  10   1   14.10    6.20
   5 -10   1   65.29    7.20
   5  10   1   55.69    8.80
  -6 -10  -1   55.69    7.90
   6 -10   1   58.99    7.70
   6 -10   1   60.19    4.60
   5 -11  -1  335.57   20.00
  -5 -11   1  352.46   18.50
   5  11  -1  369.36   20.90
  -5  11   1  383.06   17.60
   4 -11  -1  278.47   16.60
  -4 -11   1  271.37   15.70
   4  11  -1  252.77   19.20
  -4  11   1  275.57   14.70
   3 -11  -1  516.15   27.20
  -3 -11   1  533.55   27.10
  -3  11   1  533.15   25.90
  -2  11   1   92.99    9.40
   2  11  -1   96.79    9.10
  -2  11   1   88.49    8.20
  -1 -11   1  194.58   14.40
  -1  11   1  191.58   13.40
  -1  11   1  195.08   12.60
   1  11  -1  189.08   12.40
  -1  11   1  177.28   37.90
   0 -11   1   44.10    9.20
   0 -11   1   31.90   11.00
   0  11   1   42.70    6.80
   0  11  -1   41.20    6.70
   0  11  -1   46.10    6.50
   1 -11   1 1681.83   71.29
   1  11   1 1506.65   69.69
  -1  11  -1 1591.34   69.89
   1  11   1 1592.04   71.29
  -1  11  -1 1556.84   69.89
   2 -11   1   80.89    8.80
   2  11   1   95.99    8.80
  -2  11  -1   84.99    7.80
   2  11   1   80.09    8.70
   3 -11   1   93.89    8.70
   3  11   1   77.69   11.70
  -3  11  -1   73.29    8.80
  -4  11  -1   13.40    3.70
   4  11   1   14.00    6.00
   5 -11   1  610.74   27.90
   5  11   1  534.25   28.40
   4 -12  -1  142.99   10.40
  -4 -12   1  150.18   10.50
  -4  12   1  125.29    8.50
  -3 -12   1  459.25   24.20
   3 -12  -1  446.66   24.20
  -3  12   1  486.95   23.40
  -3  12   1  512.45   23.30
   3  12  -1  468.75   22.90
  -2 -12   1   56.39    9.30
   2 -12  -1   48.20    9.00
   2  12  -1   41.50    7.00
  -2  12   1   48.80    6.20
  -2  12   1   55.59    7.30
  -1 -12   1  545.15   25.70
  -1  12   1  464.65   24.10
  -1  12   1  472.25   25.20
   1  12  -1  445.66   23.80
   0 -12   1  305.27   18.10
   0  12  -1  290.27   16.30
   0  12   1  296.07   17.40
   0  12   1  283.57   16.40
   1 -12   1  375.16   20.50
  -1  12  -1  352.56   18.70
   1  12   1  347.87   19.80
   2 -12   1  204.68   13.90
  -2  12  -1  221.78   12.70
   2  12   1  221.18   13.30
   3 -12   1 1027.10   46.90
  -3  12  -1 1010.30   45.10
   4 -12   1  392.76   19.90
   4  12   1  369.06   20.90
  -3 -13   1  496.55   23.80
   3 -13  -1  473.35   23.50
  -3  13   1  448.36   22.00
   2 -13  -1  300.57   17.70
  -2 -13   1  313.77   17.50
  -2  13   1  293.77   15.60
   2  13  -1  289.07   15.60
  -2  13   1  297.87   15.80
  -1 -13   1  141.99   12.30
  -1  13   1  172.38   10.40
   1  13  -1  162.48   10.50
  -1  13   1  167.48   10.80
   0 -13   1  146.09   11.70
   0  13   1  150.38   10.40
   0  13  -1  149.19   10.00
   0  13   1  142.09    9.60
   1 -13   1  527.85   27.20
   1  13   1  561.24   26.10
  -1  13  -1  562.84   26.20
  -2  13  -1   63.89    6.00
   3 -13   1  127.19    9.10
   3 -13   1  122.39    7.10
  -3  13  -1  120.79    7.70
   1  14  -1  372.46   17.90
  -1  14   1  368.36   17.80
   0 -14   1  102.99   10.70
   0  14   1   92.39    7.10
   0  14  -1   98.79    7.30
   8   0  -2 1457.25   63.89
  -8   0   2 1492.65   64.59
   7   0  -2   26.30    6.20
   6   0  -2   46.30    7.30
  -6   0   2   48.60    7.80
  -6   0   2   42.90   10.90
   5   0  -2   45.80    8.40
   5   0  -2   41.80    7.30
  -5   0   2   39.50    7.80
   5   0  -2   38.30    8.60
  -5   0   2   39.40    6.70
  -4   0   2  267.17   15.10
   4   0  -2  280.27   16.00
   4   0  -2  272.37   16.00
   3   0  -2 9055.79  378.36
  -2   0   2  664.23   30.20
   0   0   2 2808.82  117.79
   1   0   2  247.28   11.40
   1   0   2  248.98   12.40
   2   0   2 3583.94  152.18
   2   0   2 3625.44  150.18
  -3   0  -2  746.13   34.80
   3   0   2  767.82   35.30
   4   0   2 2429.36  105.19
  -4   0  -2 2391.06  103.99
   5   0   2  409.76   21.90
  -5   0  -2  410.46   21.60
  -5   0  -2  420.96   22.50
   5   0   2  425.86   24.30
  -6   0  -2  508.35   27.70
  -6   0  -2  513.35   27.10
  -6   0  -2  513.45   25.80
  -7   0  -2  485.85   26.30
  -7   0  -2  477.15   25.50
  -7   0  -2  487.25   24.40
  -8   0  -2  691.53   31.90
  -8   0  -2  704.93   33.60
   8  -1  -2   13.90    3.80
  -8   1   2   17.30    4.80
   8   1  -2   19.20    8.00
  -7  -1   2   63.59    8.90
   7  -1  -2   66.59    7.50
   7   1  -2   46.70    7.80
   6  -1  -2 1246.58   67.09
  -6  -1   2 1369.96   61.39
   6  -1  -2 1312.97   60.99
  -6  -1   2 1329.27   65.79
   6   1  -2 1479.95   61.19
  -6   1   2 1406.36   66.49
   5  -1  -2  611.54   32.20
  -5  -1   2  659.63   32.40
   5  -1  -2  685.53   33.40
   5  -1  -2  648.34   34.60
  -5   1   2  706.03   32.90
  -5   1   2  721.63   36.00
   5   1  -2  707.73   32.70
   4  -1  -2  875.41   39.60
  -4  -1   2  873.61   38.60
   4  -1  -2  863.11   40.10
  -4  -1   2  850.61   39.30
   4   1  -2  814.32   38.60
  -4   1   2  754.92   38.20
  -4   1   2  878.21   41.10
   4   1  -2  810.22   39.10
  -3  -1   2  403.36   20.10
   3  -1  -2  380.16   21.50
   3  -1  -2  394.16   20.60
   3   1  -2  417.86   19.70
  -3   1   2  435.36   23.50
  -2  -1   2 1203.18   49.60
  -2   1   2 1050.49   49.30
  -1  -1   2 1582.54   68.29
  -1   1   2 1612.44   68.19
   2  -1   2 4527.55  187.68
   2  -1   2 4405.26  186.38
   2   1   2 4435.66  187.38
   3  -1   2  426.56   22.20
   3  -1   2  423.66   20.60
  -3  -1  -2  419.76   21.60
  -3   1  -2  498.85   22.40
  -4  -1  -2  395.16   21.30
   4  -1   2  389.26   22.40
  -4   1  -2  427.56   21.70
  -4   1  -2  435.76   21.90
   4   1   2  452.85   22.60
   5  -1   2 1127.69   53.79
  -5  -1  -2 1091.99   51.39
  -5  -1  -2 1089.79   50.49
   5  -1   2 1140.79   50.49
  -5   1  -2 1124.49   50.59
   5   1   2 1160.38   53.59
   5   1   2 1084.59   54.69
  -5   1  -2 1118.89   52.39
  -5   1  -2 1130.19   51.79
   6  -1   2 1516.05   74.39
  -6  -1  -2 1565.24   69.49
   6  -1   2 1535.95   68.89
  -6  -1  -2 1535.25   70.79
  -6   1  -2 1614.44   69.89
  -6   1  -2 1587.24   71.89
  -6   1  -2 1591.34   71.09
   6   1   2 1625.94   73.49
  -7  -1  -2  168.78   11.90
  -7  -1  -2  171.28   13.20
  -7  -1  -2  170.68   13.50
  -7   1  -2  206.78   12.40
  -7   1  -2  215.48   14.90
  -7   1  -2  220.98   14.50
  -8  -1  -2   32.60    4.70
  -8  -1  -2   29.50    9.90
  -8  -1  -2   32.30    6.50
  -8   1  -2   41.70    4.80
  -8   1  -2   40.40    7.30
   8  -2  -2   33.70    5.40
   8   2  -2   43.80   10.20
  -8   2   2   49.80    5.90
   7  -2  -2  172.18   11.80
  -7  -2   2  168.48   12.50
  -7   2   2  172.78   11.50
  -6  -2   2  189.58   17.40
  -6  -2   2  185.38   13.00
   6  -2  -2  192.98   18.60
   6  -2  -2  186.48   12.90
   6  -2  -2  185.98   13.60
  -6   2   2  176.18   18.00
   6   2  -2  195.58   13.20
   5  -2  -2  332.77   19.50
   5  -2  -2  317.07   18.70
  -5  -2   2  327.17   18.50
   5  -2  -2  335.37   21.20
   5   2  -2  360.86   19.40
  -5   2   2  375.46   22.40
  -4  -2   2 1842.42   82.79
   4  -2  -2 1907.31   84.09
   4  -2  -2 1930.11   85.19
  -4  -2   2 1963.10   83.99
  -4   2   2 1930.91   86.09
  -3  -2   2 1853.71   80.59
   3  -2  -2 1851.41   81.29
   3  -2  -2 1854.11   81.89
   3   2  -2 1917.31   79.69
  -3   2   2 1873.81   82.49
  -1  -2   2 1526.35   66.69
  -1   2   2 1573.04   67.29
   0  -2   2 2787.62  116.49
   0  -2   2 2914.41  117.19
   0   2   2 2611.94  116.79
   1  -2   2 1442.16   59.99
   1  -2   2 1387.46   59.79
  -1  -2  -2 1410.46   58.09
   1   2   2 1307.57   58.99
   2  -2   2 1594.24   67.79
   2  -2   2 1578.44   68.49
  -2   2  -2 1547.45   66.99
   3  -2   2 3592.44  157.28
   3  -2   2 3667.33  155.98
  -3  -2  -2 3735.83  156.48
   3   2   2 3714.23  156.68
  -3   2  -2 3821.62  157.38
  -3   2  -2 3700.03  156.78
  -3   2  -2 3608.24  155.08
   4  -2   2 1288.77   57.29
   4  -2   2 1234.48   54.99
   4  -2   2 1257.77   55.19
  -4  -2  -2 1264.87   55.19
   4  -2   2 1189.58   54.99
   4   2   2 1298.47   56.39
  -4   2  -2 1101.59   57.59
  -4   2  -2 1261.67   56.09
  -4   2  -2 1222.18   54.99
  -5  -2  -2  396.06   23.60
   5  -2   2  405.86   26.10
   5  -2   2  411.06   23.10
   5   2   2  487.75   28.30
  -5   2  -2  536.95   25.30
  -5   2  -2  506.25   25.70
  -5   2  -2  504.05   24.00
  -6  -2  -2  130.99   10.10
   6  -2   2  139.39   10.20
  -6  -2  -2  142.29   11.10
   6  -2   2  143.89   16.90
   6   2   2  119.29   14.40
  -6   2  -2  121.19   11.80
  -6   2  -2  141.79   10.50
  -6   2  -2  119.29   11.40
  -7  -2  -2   17.70    5.00
  -7  -2  -2   12.60    4.40
  -7  -2  -2   13.60    3.70
  -7   2  -2   19.60    5.00
   7   2   2   10.20    7.30
  -7   2  -2   13.80    5.00
  -8  -2  -2   94.99    8.60
  -8  -2  -2   94.99    6.90
  -8  -2  -2   99.09    9.30
  -8   2  -2   77.59    9.00
  -8   2  -2   83.99    6.50
   8  -3  -2   67.59    6.30
  -8  -3   2   65.49   12.00
   8   3  -2   58.29    9.60
  -8   3   2   54.99    7.20
  -7  -3   2  261.77   15.70
   7  -3  -2  262.57   14.90
  -7   3   2  228.58   14.40
  -7   3   2  235.78   14.30
  -6  -3   2  663.93   32.60
   6  -3  -2  662.13   33.20
   6  -3  -2  663.33   38.00
   6  -3  -2  710.33   32.60
  -6   3   2  597.34   38.20
  -5  -3   2  164.08   13.10
   5  -3  -2  182.38   12.20
   5  -3  -2  186.88   15.00
   5  -3  -2  168.98   12.30
  -5  -3   2  176.18   11.60
  -5   3   2  144.09   14.40
   5   3  -2  145.59   13.20
   4  -3  -2 2333.07  101.99
   4  -3  -2 2350.36  103.59
  -4  -3   2 2279.27  101.49
  -4  -3   2 2319.47  100.79
  -4   3   2 2422.86  104.49
   3  -3  -2 1300.47   57.09
  -3  -3   2 1249.77   55.19
   3  -3  -2 1292.47   56.19
  -3  -3   2 1247.08   55.79
  -3   3   2 1183.78   57.39
  -2  -3   2   40.10    4.50
  -1  -3   2 1381.56   59.09
  -1   3   2 1323.17   59.69
   1  -3   2  583.74   28.10
   1  -3   2  624.24   28.00
   1   3   2  642.74   28.20
  -1   3  -2  592.74   28.00
   2  -3   2  286.27   15.50
  -2   3  -2  294.37   15.00
  -3   3  -2  357.36   19.40
  -3   3  -2  335.37   19.20
  -3   3  -2  352.66   18.00
   4  -3   2 1148.49   50.89
   4  -3   2 1172.38   53.19
   4  -3   2 1134.69   50.69
  -4  -3  -2 1190.38   51.29
  -4   3  -2 1106.39   52.19
  -4   3  -2 1081.79   50.59
   4   3   2 1079.99   54.69
  -4   3  -2 1107.69   51.59
   5  -3   2   20.40    6.80
   5   3   2   21.00    7.80
  -5   3  -2   18.80    6.00
  -5   3  -2   21.30    5.20
  -5   3  -2   24.80    6.70
  -6  -3  -2  694.13   32.70
   6  -3   2  708.53   32.70
  -6  -3  -2  694.13   34.00
   6  -3   2  714.73   39.70
   6  -3   2  717.83   31.70
   6   3   2  635.54   36.30
  -6   3  -2  652.23   32.90
  -6   3  -2  651.13   34.90
  -7  -3  -2  475.05   26.00
  -7  -3  -2  482.05   24.70
  -7   3  -2  534.05   27.00
  -7   3  -2  503.35   27.00
   7   3   2  522.75   27.50
  -8  -3  -2   49.00    6.80
  -8  -3  -2   39.50    6.90
  -8  -3  -2   51.99    5.10
  -8   3  -2   34.00    4.80
  -8   3  -2   32.30    9.80
   8  -4  -2  873.31   38.60
  -8  -4   2  825.12   39.20
   8   4  -2  868.31   41.60
   7  -4  -2  119.79    9.40
  -7  -4   2  115.29    9.80
   7  -4  -2  116.49   11.90
  -7   4   2  122.69   10.50
  -7   4   2  110.79   11.30
   7   4  -2  119.39   13.80
   6  -4  -2  773.82   36.80
  -6  -4   2  758.22   37.00
   6  -4  -2  770.22   37.90
   6  -4  -2  726.03   42.60
  -6   4   2  817.62   36.60
  -6   4   2  759.62   44.70
  -6   4   2  759.72   36.00
  -5  -4   2 1903.21   83.29
  -5  -4   2 1971.00   81.89
   5  -4  -2 1910.31   82.99
   5  -4  -2 1910.71   85.79
   5  -4  -2 1950.80   81.69
  -5   4   2 1684.13   86.29
  -5   4   2 1642.34   80.49
  -4  -4   2 1302.87   60.79
   4  -4  -2 1358.06   60.39
  -4  -4   2 1274.37   59.69
   4  -4  -2 1311.17   62.89
   4  -4  -2 1302.17   60.89
  -4   4   2 1489.55   62.29
  -4   4   2 1390.16   64.29
   3  -4  -2  259.27   16.30
  -3  -4   2  266.67   15.00
  -3  -4   2  269.57   15.50
   3  -4  -2  252.27   15.70
  -3   4   2  306.77   18.00
  -2  -4   2 1712.93   78.29
   2  -4  -2 1781.22   79.19
  -2   4   2 1906.91   80.79
  -1  -4   2 1144.69   47.20
  -1   4   2  939.91   47.60
   0  -4   2  392.56   20.50
   0  -4   2  391.06   19.30
   0   4   2  458.45   21.40
   1  -4   2 1358.46   61.89
   1  -4   2 1404.56   61.19
  -1   4  -2 1406.46   62.09
   1   4   2 1458.55   62.29
   2  -4   2 2495.75  105.99
   2  -4   2 2457.55  106.69
   2  -4   2 2355.16  106.69
  -2   4  -2 2573.64  107.39
  -2   4  -2 2500.65  106.79
   3  -4   2 2240.18   97.49
   3  -4   2 2254.27   99.09
  -3   4  -2 2188.08   98.09
  -3   4  -2 2357.06   99.19
   4  -4   2  162.38   12.60
  -4  -4  -2  153.18   10.50
   4  -4   2  167.08   10.90
  -4   4  -2  136.49   11.10
  -4   4  -2  133.09   11.80
   4   4   2  128.09   14.50
  -5  -4  -2  330.97   18.00
   5  -4   2  322.37   18.10
   5  -4   2  342.17   17.80
   5  -4   2  327.67   21.50
  -5   4  -2  290.07   17.50
   5   4   2  272.27   20.90
  -5   4  -2  294.17   19.30
   6  -4   2 1066.69   47.20
  -6  -4  -2 1049.30   49.80
  -6  -4  -2 1042.30   48.40
   6  -4   2 1057.69   48.50
   6   4   2 1106.89   53.19
  -6   4  -2 1096.79   50.99
  -6   4  -2 1062.09   48.60
  -7  -4  -2   19.90    5.80
  -7  -4  -2   18.30    4.00
  -7   4  -2   27.00    7.80
   7   4   2   21.80    6.00
  -7   4  -2   22.40    5.10
  -8  -5   2   97.39    9.00
   8  -5  -2   94.89    6.70
   8   5  -2   82.49    9.50
   7  -5  -2  197.68   13.70
   7  -5  -2  197.88   14.10
  -7  -5   2  215.28   13.60
   7   5  -2  215.28   18.10
  -6  -5   2 1535.45   79.59
   6  -5  -2 1616.64   72.29
   6  -5  -2 1589.64   79.09
  -6   5   2 1674.53   82.79
  -6   5   2 1724.23   72.19
   5  -5  -2  198.78   14.50
   5  -5  -2  195.68   18.00
  -5  -5   2  203.68   13.60
   5  -5  -2  196.78   13.90
  -5   5   2  235.58   14.20
  -5   5   2  228.98   16.40
  -5   5   2  242.78   20.30
  -4  -5   2  475.55   24.30
   4  -5  -2  467.95   25.20
   4  -5  -2  477.45   27.60
  -4  -5   2  470.85   25.50
   4  -5  -2  467.75   24.90
  -4   5   2  480.05   24.70
  -4   5   2  470.15   23.70
  -4   5   2  504.85   29.30
   3  -5  -2  141.09   10.90
  -3  -5   2  143.99   10.20
  -3  -5   2  137.39   10.60
   3  -5  -2  142.49   11.60
   2  -5  -2 5235.68  219.28
  -2  -5   2 5025.90  216.68
  -2  -5   2 5154.48  218.28
  -2   5   2 5211.48  221.28
  -1  -5   2 2586.04  112.19
  -1   5   2 2614.94  114.09
   0  -5   2 4302.97  172.88
   0  -5   2 4264.17  174.88
   0   5   2 3759.02  176.98
   1  -5   2  694.73   30.80
   1  -5   2  634.04   29.40
   1   5   2  592.34   30.70
  -1   5  -2  570.34   30.10
   2  -5   2   80.79    7.40
   2  -5   2   82.99    7.60
   2  -5   2   84.49    7.80
  -2   5  -2   84.99    8.80
  -2   5  -2   88.39    8.50
   3  -5   2  582.94   31.80
   3  -5   2  583.64   30.40
  -3   5  -2  679.73   32.20
   3   5   2  660.63   34.70
  -3   5  -2  668.53   32.50
  -4  -5  -2 1207.58   55.19
   4  -5   2 1184.38   58.19
   4  -5   2 1204.08   58.19
   4  -5   2 1239.18   55.49
   4  -5   2 1259.37   56.09
  -4   5  -2 1266.37   55.59
  -4   5  -2 1240.28   57.39
   4   5   2 1282.37   60.19
   5  -5   2  196.68   13.30
   5  -5   2  194.38   16.70
  -5  -5  -2  201.38   13.10
   5  -5   2  188.28   12.60
   5   5   2  175.98   16.10
  -5   5  -2  188.58   12.60
  -5   5  -2  182.78   14.10
   6  -5   2  463.45   23.80
  -6  -5  -2  481.05   25.00
  -6  -5  -2  460.95   23.70
   6   5   2  478.45   28.00
  -6   5  -2  460.45   23.60
  -6   5  -2  483.45   26.00
   7  -5   2   24.10    4.30
  -7  -5  -2   22.00    5.60
  -7  -5  -2   24.90    5.70
  -7  -6   2   73.09    7.60
   7  -6  -2   74.49    7.00
   7  -6  -2   70.69    8.40
   7   6  -2   52.59   10.20
   6  -6  -2  328.87   19.70
  -6  -6   2  331.37   18.90
   6  -6  -2  330.57   18.40
  -6   6   2  328.07   18.60
   5  -6  -2  947.91   47.40
   5  -6  -2  930.21   45.80
  -5  -6   2  944.31   46.00
   5  -6  -2  925.81   51.19
  -5   6   2 1068.89   46.20
  -5   6   2 1039.80   45.20
  -5   6   2 1092.69   55.49
   4  -6  -2 1703.53   73.69
  -4  -6   2 1719.13   73.79
   4  -6  -2 1679.63   74.89
  -4  -6   2 1678.33   75.49
   4  -6  -2 1718.23   78.19
  -4   6   2 1547.25   72.39
  -4   6   2 1619.54   80.19
  -4   6   2 1631.04   73.59
  -3  -6   2  825.12   38.80
  -3  -6   2  755.62   42.40
   3  -6  -2  771.12   38.10
   3  -6  -2  836.02   40.50
  -3   6   2  768.72   36.40
  -3   6   2  783.32   37.70
   3   6  -2  754.12   36.60
  -3   6   2  822.22   42.90
  -2  -6   2 2897.91  124.89
  -2  -6   2 2887.81  123.09
   2  -6  -2 2906.31  125.59
  -2   6   2 2829.02  128.29
  -1  -6   2  418.66   21.60
   1  -6  -2  427.56   22.70
  -1  -6   2  431.96   22.90
   0  -6   2 2992.90  123.09
   0  -6   2 2873.51  125.49
   0  -6   2 2809.82  123.29
   0   6   2 2910.41  126.99
   1  -6   2   29.90    4.90
   1  -6   2   28.50    5.70
  -1  -6  -2   34.50    5.40
   1  -6   2   28.30    5.40
   2  -6   2 4015.40  168.58
   2  -6   2 3934.51  169.68
   2  -6   2 3945.41  170.88
  -2   6  -2 3952.30  171.28
  -2   6  -2 4074.99  170.08
   2   6   2 3895.71  171.68
   3  -6   2  161.38   11.20
   3  -6   2  155.18   11.10
   3  -6   2  157.18   13.00
   3  -6   2  161.08   12.60
  -3   6  -2  151.88   13.80
  -3   6  -2  137.79   13.90
   3   6   2  150.28   12.80
  -3   6  -2  149.09   12.30
   3   6   2  156.68   14.80
   4  -6   2  240.28   20.40
  -4  -6  -2  256.27   15.70
   4  -6   2  250.17   15.40
   4  -6   2  252.77   15.80
   4  -6   2  249.38   18.40
   4   6   2  291.47   20.20
  -4   6  -2  293.97   17.80
  -4   6  -2  272.17   16.40
   5  -6   2  150.68   11.90
   5  -6   2  155.48   11.30
  -5  -6  -2  165.08   12.00
   5  -6   2  141.29   16.60
  -5   6  -2  170.08   13.40
  -5   6  -2  179.48   12.10
   5   6   2  185.48   15.70
  -6  -6  -2  310.37   17.20
  -6  -6  -2  334.67   17.80
  -6   6  -2  269.17   18.20
   6   6   2  290.97   20.20
  -6   6  -2  273.67   16.70
  -7  -6  -2  248.38   14.70
  -7  -6  -2  261.77   14.20
   7  -6   2  245.38   12.70
   7   6   2  256.87   16.20
   7  -7  -2  316.37   16.70
  -7  -7   2  306.17   17.30
   7   7  -2  330.87   20.60
   6  -7  -2  821.62   38.00
   6  -7  -2  830.52   36.60
  -6  -7   2  814.02   37.20
   6   7  -2  682.73   41.00
  -6   7   2  686.03   36.00
   5  -7  -2  833.12   39.50
   5  -7  -2  837.22   37.80
   5  -7  -2  790.02   44.50
  -5  -7   2  820.52   37.90
  -5   7   2  757.72   37.40
  -5   7   2  730.63   47.00
  -5   7   2  753.72   36.40
   4  -7  -2  787.42   36.20
   4  -7  -2  758.62   37.00
   4  -7  -2  776.52   41.00
  -4  -7   2  775.12   35.90
  -4   7   2  700.63   34.70
  -4   7   2  712.33   43.20
  -4   7   2  697.23   35.80
  -3  -7   2  472.75   27.30
   3  -7  -2  479.75   26.40
   3  -7  -2  473.45   28.90
  -3  -7   2  462.25   25.30
  -3   7   2  555.54   32.80
  -3   7   2  532.15   25.10
  -3   7   2  537.45   26.40
   3   7  -2  509.95   25.10
  -2  -7   2  403.96   21.70
   2  -7  -2  405.26   23.50
  -2  -7   2  402.86   23.00
  -2   7   2  410.86   22.10
   2   7  -2  380.86   20.60
  -2   7   2  403.16   20.80
  -2   7   2  416.36   26.20
  -1  -7   2  357.26   21.00
   1  -7  -2  348.47   20.50
  -1  -7   2  358.86   19.30
  -1   7   2  389.06   23.90
   1   7  -2  344.97   18.70
  -1   7   2  355.46   19.20
  -1   7   2  358.76   20.30
   0  -7   2 2612.84  107.29
   0  -7   2 2561.54  110.59
   0  -7  -2 2605.34  109.19
   0  -7   2 2592.84  107.89
   0   7   2 2486.05  112.29
   0   7   2 2355.66  108.19
   0   7  -2 2448.66  106.99
   0   7   2 2373.16  108.49
   1  -7   2  966.00   49.90
  -1  -7  -2  992.00   48.20
  -1  -7  -2 1012.90   48.20
   1  -7   2  979.70   47.60
   1  -7   2  970.40   47.90
   1   7   2 1132.09   52.09
  -1   7  -2 1147.79   47.50
   1   7   2 1091.59   48.50
  -1   7  -2 1178.18   52.19
   2  -7   2  140.09   12.30
   2  -7   2  128.49   10.90
   2  -7   2  127.19    9.80
  -2   7  -2  137.49   12.90
  -2   7  -2  137.79   11.60
   2   7   2  129.59   11.00
  -2   7  -2  127.99   10.50
   3  -7   2  493.75   23.20
   3  -7   2  474.75   23.60
   3  -7   2  485.55   25.90
   3  -7   2  466.45   26.80
  -3   7  -2  393.66   22.60
  -3   7  -2  412.26   27.30
  -3   7  -2  412.56   24.50
   3   7   2  416.86   23.50
   3   7   2  430.26   26.90
   4  -7   2 1003.40   46.00
   4  -7   2  976.90   50.09
   4  -7   2  990.40   49.50
   4  -7   2 1005.40   45.00
  -4   7  -2  908.61   46.70
   4   7   2  961.10   49.60
   5  -7   2  299.87   18.00
   5  -7   2  302.07   17.20
  -5  -7  -2  299.07   17.90
  -5   7  -2  307.87   19.30
   5   7   2  324.97   21.60
   6  -7   2   74.79   10.10
  -6  -7  -2   80.69    8.50
  -6   7  -2  102.79   13.70
  -7  -7  -2  217.88   12.60
   7   7   2  186.98   13.10
  -7  -8   2  229.38   13.10
   7  -8  -2  228.58   12.20
   7  -8  -2  210.18   13.20
   7   8  -2  224.58   15.40
   6  -8  -2  269.77   15.30
   6  -8  -2  266.17   16.40
  -6  -8   2  265.07   15.70
   6   8  -2  267.77   19.90
   5  -8  -2  258.37   15.40
  -5  -8   2  260.97   15.70
   5  -8  -2  250.07   16.70
  -5   8   2  269.67   15.90
  -5   8   2  256.37   14.70
   5   8  -2  249.08   20.50
   4  -8  -2 1197.98   59.39
   4  -8  -2 1184.58   52.79
  -4  -8   2 1152.88   53.09
   4  -8  -2 1233.08   54.79
  -4   8   2 1117.29   51.89
   4   8  -2 1103.29   51.79
  -4   8   2 1148.09   53.29
  -4   8   2 1132.19   62.59
  -3  -8   2  657.03   31.90
   3  -8  -2  658.83   32.80
   3  -8  -2  666.93   36.40
  -3   8   2  621.34   39.40
  -3   8   2  629.94   30.90
  -3   8   2  632.84   32.30
   3   8  -2  636.94   36.60
  -2  -8   2  665.63   31.40
  -2  -8   2  667.53   34.30
   2  -8  -2  718.53   35.50
   2   8  -2  603.04   30.40
  -2   8   2  599.34   30.60
  -2   8   2  609.54   32.00
  -2   8   2  621.44   38.10
  -1  -8   2  873.71   39.60
  -1  -8   2  902.01   42.90
   1  -8  -2  874.91   42.00
   1   8  -2  810.92   38.50
  -1   8   2  807.12   45.50
  -1   8   2  813.62   40.10
  -1   8   2  800.62   38.80
   0  -8   2   65.39    9.50
   0  -8   2   62.99    7.50
   0  -8  -2   74.29    9.80
   0   8  -2   50.89    9.40
   0   8   2   52.29    7.60
   0   8   2   77.69    8.80
   0   8   2   54.09   10.50
   0   8  -2   64.19    7.20
   1  -8   2 1479.55   70.09
   1  -8   2 1505.25   67.49
   1  -8   2 1492.55   66.49
   1   8   2 1434.16   69.29
  -1   8  -2 1540.45   65.69
   1   8   2 1512.95   71.99
   1   8   2 1463.35   65.79
   1   8   2 1518.25   67.19
   2  -8   2  891.91   39.00
   2  -8   2  874.61   44.30
   2  -8   2  848.12   40.40
   2   8   2  763.12   41.40
  -2   8  -2  739.53   42.60
  -2   8  -2  781.82   37.10
   2   8   2  738.33   38.30
   3  -8   2   46.10    6.60
   3  -8   2   46.50   10.70
   3  -8   2   43.30   11.40
   3   8   2   31.40    9.80
  -3   8  -2   41.80    7.40
   4  -8   2  985.30   45.30
   4  -8   2  914.51   50.89
   4  -8   2  949.40   49.60
   4   8   2  998.40   49.00
  -4   8  -2  905.41   45.70
  -5  -8  -2  692.13   32.70
   5  -8   2  705.33   33.30
   5   8   2  615.04   35.70
   6  -8   2   72.99    5.60
   6  -8   2   66.49   10.70
  -6  -8  -2   63.79    7.80
  -6  -9   2 1258.77   57.89
   6  -9  -2 1304.67   57.29
   6  -9  -2 1289.87   58.69
   6   9  -2 1361.66   61.79
   5  -9  -2  200.28   14.10
  -5  -9   2  200.08   13.20
   5  -9  -2  216.88   13.40
  -5   9   2  217.28   12.60
  -5   9   2  203.88   13.60
   4  -9  -2  768.32   37.70
   4  -9  -2  816.72   39.60
  -4  -9   2  783.52   38.30
  -4   9   2  837.52   38.40
  -4   9   2  839.12   37.50
   4   9  -2  774.92   36.90
   4   9  -2  778.12   43.00
   3  -9  -2  770.52   37.70
  -3  -9   2  753.72   42.30
  -3  -9   2  764.92   36.90
   3  -9  -2  725.13   41.90
  -3   9   2  760.52   46.80
   3   9  -2  782.92   35.90
   3   9  -2  710.33   41.30
  -3   9   2  791.62   37.30
  -3   9   2  789.42   36.00
   2  -9  -2 1258.57   60.39
  -2  -9   2 1288.67   59.99
  -2  -9   2 1279.97   56.09
   2   9  -2 1171.58   54.89
  -2   9   2 1186.18   55.19
  -2   9   2 1220.68   56.79
  -2   9   2 1197.78   65.19
   1  -9  -2  462.45   28.30
  -1  -9   2  445.26   27.80
  -1  -9   2  456.75   24.60
   1   9  -2  473.55   23.50
  -1   9   2  463.35   31.70
  -1   9   2  472.75   25.20
  -1   9   2  488.05   24.00
   0  -9  -2 1920.01   87.99
   0  -9   2 1957.80   84.59
   0  -9   2 1968.60   89.09
   0   9   2 1909.71   84.99
   0   9   2 1804.42  100.39
   0   9  -2 1932.41   83.29
   1  -9   2 4093.59  169.08
   1  -9   2 4140.49  173.88
   1   9   2 3742.23  170.78
  -1   9  -2 3887.21  167.48
   1   9   2 3903.81  169.18
   2  -9   2 1213.98   61.09
   2  -9   2 1234.38   56.39
   2  -9   2 1237.18   59.49
   2   9   2 1205.98   58.79
   2   9   2 1234.88   56.49
  -2   9  -2 1240.08   54.79
   3  -9   2  487.75   24.90
   3  -9   2  445.96   30.10
   3  -9   2  470.85   30.50
   3   9   2  438.56   27.00
  -3   9  -2  448.86   22.80
   4  -9   2  182.88   13.00
  -4   9  -2  191.48   12.50
   4   9   2  187.48   15.60
   5  -9   2  793.12   37.10
  -5  -9  -2  797.12   36.80
   5   9   2  735.73   39.10
   6  -9   2  698.43   30.70
  -6  -9  -2  684.03   32.40
   6   9   2  701.83   34.20
   6 -10  -2   87.19    7.80
   6 -10  -2   78.39    9.60
  -6 -10   2   92.39    7.60
   6  10  -2   90.89    9.70
   5 -10  -2  290.17   16.80
  -5 -10   2  295.67   17.10
   5 -10  -2  301.57   18.00
  -5  10   2  339.57   17.60
  -5  10   2  346.67   16.40
   5  10  -2  329.47   20.90
   4 -10  -2  607.94   31.50
  -4 -10   2  615.84   30.60
  -4  10   2  668.33   29.80
   4  10  -2  588.04   36.50
   3 -10  -2  339.87   20.30
  -3 -10   2  339.67   19.20
  -3  10   2  338.47   19.50
  -3  10   2  352.06   18.60
   3  10  -2  323.47   18.40
  -2 -10   2 1810.22   81.69
  -2 -10   2 1756.52   86.99
  -2  10   2 1835.82   93.29
   2  10  -2 1814.22   80.69
  -2  10   2 1914.31   82.69
  -2  10   2 1964.80   81.39
  -1 -10   2 1236.28   62.49
   1 -10  -2 1259.47   63.59
  -1 -10   2 1321.77   57.89
   1  10  -2 1233.28   56.59
  -1  10   2 1277.77   58.49
  -1  10   2 1283.67   57.09
  -1  10   2 1236.78   68.09
   0 -10   2  118.79   15.50
   0 -10   2  126.49   10.30
   0  10  -2   97.09    9.00
   0  10   2   99.49   10.20
   0  10   2   93.79   18.00
   0  10   2  109.49    9.60
   1 -10   2  431.96   23.80
   1 -10   2  427.96   29.50
   1  10   2  446.66   23.00
   1  10   2  466.05   24.40
  -1  10  -2  450.45   22.60
   2 -10   2 1522.55   80.49
   2 -10   2 1543.65   75.59
   2  10   2 1853.61   76.49
  -2  10  -2 1736.73   73.59
   2  10   2 1660.93   76.99
   2  10   2 1770.02   75.49
   3 -10   2 2021.50   87.99
  -3  10  -2 2014.70   85.79
   3  10   2 1921.51   89.69
   4 -10   2  262.57   16.40
   4  10   2  290.27   18.70
  -4  10  -2  267.67   15.00
   5 -10   2  438.66   22.80
   5 -10   2  444.16   21.10
   5  10   2  476.15   24.90
   5 -11  -2  162.98   10.90
  -5 -11   2  162.48   10.30
   5  11  -2  131.59   16.80
  -5  11   2  157.18    9.20
  -4 -11   2  381.96   20.00
   4 -11  -2  375.06   20.70
  -4  11   2  373.36   19.00
  -4  11   2  382.66   19.80
   3 -11  -2  194.18   13.70
  -3 -11   2  178.78   12.60
  -3  11   2  186.78   12.00
   3  11  -2  190.18   12.10
  -3  11   2  201.48   15.00
  -2 -11   2  187.68   14.00
   2  11  -2  232.38   14.00
  -2  11   2  248.48   15.00
  -1 -11   2  171.18   12.80
  -1  11   2  184.18   12.30
   1  11  -2  171.78   12.10
  -1  11   2  187.38   13.40
   0 -11   2  399.86   22.80
   0  11  -2  425.76   21.60
   0  11   2  420.46   21.80
   0  11   2  411.46   23.00
   1 -11   2 1124.79   53.19
   1 -11   2 1068.59   50.29
   1  11   2 1162.38   51.89
  -1  11  -2 1193.18   51.89
   1  11   2 1210.18   53.69
   2 -11   2   18.80    5.90
   2  11   2   13.60    4.20
   3  11   2  101.29   11.50
  -3  11  -2   93.69    7.70
   4 -11   2  341.47   16.20
   4 -11   2  330.47   18.20
  -4  11  -2  330.87   17.10
   4  11   2  325.07   19.60
   4 -12  -2  376.56   18.90
  -4 -12   2  340.17   17.80
  -4  12   2  346.87   17.10
  -4  12   2  332.67   17.60
  -3 -12   2   73.19    7.40
  -3  12   2   81.09    7.70
  -3  12   2   78.49    6.80
   3  12  -2   81.69    7.30
  -2 -12   2  366.66   19.40
  -2  12   2  349.77   18.60
  -2  12   2  346.77   19.30
   2  12  -2  348.97   18.50
  -1  12   2  196.38   15.10
  -1  12   2  198.38   14.60
   1  12  -2  195.58   14.50
   0 -12   2  111.69    9.70
   0  12   2   93.69   13.40
   0  12   2   96.29    9.60
   0  12  -2  101.89   12.00
   1 -12   2   37.80    6.90
  -1  12  -2   49.40    6.40
   1  12   2   55.99    7.20
   1  12   2   50.59    6.70
   2 -12   2   57.29    6.90
   2 -12   2   57.19    5.40
  -2  12  -2   49.70    6.00
   3 -12   2  144.79   10.40
   3 -12   2  147.09    8.40
   3  12   2  156.08   20.00
  -3  12  -2  156.38    9.20
   4 -12   2  209.88   12.30
   4 -12   2  209.88   10.40
   4  12   2  201.68   13.60
  -3 -13   2   75.29    7.60
   3 -13  -2   74.39    9.70
  -3  13   2   75.69    5.90
  -3  13   2   69.39    6.60
  -2 -13   2  477.65   23.10
  -2  13   2  465.35   22.60
  -2  13   2  465.25   22.20
   2  13  -2  435.66   21.80
  -1 -13   2  141.29   14.30
  -1  13   2  152.48    9.90
  -1  13   2  164.38   10.60
   1  13  -2  149.29   10.00
   0 -13   2  882.41   41.20
   0  13   2  924.21   41.40
   0  13  -2  902.51   40.20
   0  13   2  867.81   40.10
   1 -13   2  278.07   15.30
  -1  13  -2  222.18   13.00
   1  13   2  230.98   13.30
   2 -13   2   98.49    8.00
  -2  13  -2  103.49    7.10
  -8   0   3    2.60    2.60
   8   0  -3    3.10    3.40
   7   0  -3   23.70    6.00
  -6   0   3  179.68   17.60
   6   0  -3  184.98   12.70
   5   0  -3 2533.55  107.09
   5   0  -3 2453.45  107.59
  -5   0   3 2572.74  111.79
  -5   0   3 2406.66  106.39
   5   0  -3 2389.46  108.99
   4   0  -3  564.44   29.10
  -4   0   3  594.34   30.10
  -4   0   3  592.34   28.40
   4   0  -3  593.94   29.80
   4   0  -3  613.34   29.70
   3   0  -3 4227.68  176.08
  -3   0   3 4067.29  176.38
  -2   0   3   37.20    4.50
  -1   0   3  805.22   36.30
   0   0   3 4437.06  185.98
   1   0   3 2304.27   97.39
   3   0   3   79.49    7.60
   4   0   3  440.36   24.50
  -4   0  -3  437.66   22.90
  -4   0  -3  431.96   22.60
  -5   0  -3  332.27   18.30
  -5   0  -3  322.17   19.60
   5   0   3  320.77   21.80
  -5   0  -3  326.07   19.30
  -6   0  -3  367.16   26.30
  -6   0  -3  354.26   27.00
  -6   0  -3  358.26   19.50
  -7   0  -3   54.39    7.70
  -7   0  -3   60.49    8.40
  -7   0  -3   56.59    6.50
   8  -1  -3  296.67   16.10
   8   1  -3  323.47   20.30
  -8   1   3  317.77   16.10
  -8   1   3  328.67   16.30
   7  -1  -3  520.45   25.90
   7   1  -3  508.65   25.40
  -6  -1   3   63.29    8.50
   6  -1  -3   64.19    9.80
   6  -1  -3   72.29    8.00
  -6  -1   3   63.99   13.00
  -6   1   3   54.99   12.90
   5  -1  -3  815.92   40.40
  -5  -1   3  825.62   39.30
   5  -1  -3  852.81   42.80
   5  -1  -3  851.21   39.80
  -5   1   3  867.71   43.80
   5   1  -3  849.61   39.70
  -4  -1   3  158.28   11.10
   4  -1  -3  155.48   11.90
   4  -1  -3  196.98   13.20
  -4  -1   3  163.58   12.20
   4  -1  -3  157.88   12.40
  -4   1   3  194.08   13.90
   4   1  -3  174.08   12.70
   4   1  -3  194.48   13.10
   4   1  -3  186.38   12.50
  -3  -1   3 1810.92   80.99
  -3  -1   3 1725.43   79.49
   3  -1  -3 1827.12   80.89
   3   1  -3 1874.91   80.89
  -3   1   3 1922.21   81.49
  -3   1   3 1935.91   82.49
  -2   1   3  579.04   28.20
  -1  -1   3  938.01   41.20
  -1   1   3  940.11   41.40
  -1   1   3  877.21   40.80
   0  -1   3  252.47   14.20
   0   1   3  302.27   14.00
   0   1   3  297.67   14.00
   1  -1   3 2993.70  126.39
   1  -1   3 3031.50  125.49
   1   1   3 2884.91  124.49
   2  -1   3  181.08   11.20
   3  -1   3 3251.57  132.19
  -3  -1  -3 3229.58  130.59
  -3   1  -3 2909.81  130.79
   3   1   3 2995.60  131.59
  -3   1  -3 2897.71  131.09
   4  -1   3  774.12   37.50
  -4  -1  -3  747.23   35.10
   4  -1   3  769.52   34.30
  -4  -1  -3  779.62   35.70
   4   1   3  672.33   38.90
   4   1   3  761.32   37.30
  -4   1  -3  715.23   34.90
  -4   1  -3  756.12   36.50
  -4   1  -3  712.53   35.80
   5  -1   3   97.39   12.30
  -5  -1  -3   97.39    9.20
  -5  -1  -3   95.29    9.40
  -5   1  -3  109.09    9.10
   5   1   3   89.79   21.30
  -5   1  -3  114.09   10.00
  -5   1  -3  107.39   10.30
  -6  -1  -3  213.88   15.50
  -6  -1  -3  219.38   13.00
  -6  -1  -3  212.98   15.20
  -6   1  -3  165.48   14.00
  -6   1  -3  169.58   12.40
  -7  -1  -3  265.37   16.90
  -7  -1  -3  277.37   17.30
  -7  -1  -3  266.77   15.50
  -7   1  -3  293.27   15.70
  -7   1  -3  299.57   18.00
  -7   1  -3  305.67   17.90
   8  -2  -3  596.54   26.60
  -8   2   3  536.85   25.80
   8   2  -3  567.14   29.90
  -8   2   3  548.15   26.20
   7  -2  -3   33.90    5.90
  -7  -2   3   34.40    8.60
   7   2  -3   29.10    7.10
  -7   2   3   32.20    6.20
  -6  -2   3  134.49   11.00
   6  -2  -3  121.69   11.50
   6  -2  -3  115.19   19.80
  -6  -2   3  125.59   15.70
   6  -2  -3  133.19   10.90
  -6   2   3  154.58   17.40
   6   2  -3  155.68   11.30
   5  -2  -3 1321.37   61.29
  -5  -2   3 1271.67   59.59
  -5  -2   3 1318.17   57.39
   5  -2  -3 1331.77   58.89
   5  -2  -3 1321.47   57.69
   5   2  -3 1162.88   56.99
  -5   2   3 1162.78   61.49
   4  -2  -3   68.09    9.30
   4  -2  -3   80.59    9.00
  -4  -2   3   81.39    8.30
   4  -2  -3   75.59    8.70
   4   2  -3   55.29    9.20
   3  -2  -3    2.90    3.40
  -3  -2   3    5.90    2.90
  -2  -2   3  634.54   29.00
  -2  -2   3  567.54   28.00
  -1   2   3 6826.82  285.87
   0  -2   3 3814.62  158.88
   0   2   3 3706.43  158.48
   1  -2   3 4905.21  207.88
   1  -2   3 5070.49  207.68
   1   2   3 4838.02  205.98
   2  -2   3 4505.75  192.48
   2  -2   3 4670.73  191.48
  -2   2  -3 4478.35  192.08
  -2   2  -3 4517.25  192.28
   3  -2   3  298.27   16.80
  -3  -2  -3  290.57   16.30
   3  -2   3  299.87   17.50
   3  -2   3  286.67   15.90
  -3   2  -3  303.87   17.30
  -3   2  -3  295.57   17.00
  -4  -2  -3 1360.76   59.49
   4  -2   3 1477.65   62.89
  -4  -2  -3 1426.66   60.19
   4  -2   3 1432.96   58.49
  -4   2  -3 1247.48   60.79
  -4   2  -3 1248.48   59.19
  -4   2  -3 1244.18   60.29
   4   2   3 1234.48   62.89
  -5  -2  -3  377.06   21.10
  -5  -2  -3  374.26   20.20
   5  -2   3  367.16   23.90
   5  -2   3  366.16   19.40
  -5   2  -3  391.46   20.60
  -5   2  -3  380.16   21.90
   5   2   3  374.76   23.90
  -5   2  -3  386.86   21.60
  -6  -2  -3 1451.15   65.79
  -6  -2  -3 1465.75   67.49
   6   2   3 1452.05   68.49
  -6   2  -3 1540.55   68.59
  -6   2  -3 1481.75   67.19
  -6   2  -3 1510.75   66.19
  -7  -2  -3  462.55   24.00
  -7  -2  -3  473.35   24.60
  -7  -2  -3  488.95   22.80
  -7   2  -3  425.16   22.40
  -7   2  -3  429.26   24.30
   8  -3  -3   77.49    6.40
   8   3  -3   60.29    9.80
   7  -3  -3 1042.20   47.00
  -7  -3   3 1034.60   47.30
  -7   3   3 1006.10   45.90
   6  -3  -3  838.12   46.50
   6  -3  -3  854.21   40.90
  -6  -3   3  855.21   39.80
   6  -3  -3  835.62   39.60
  -6   3   3  790.32   46.60
   6   3  -3  829.22   39.30
  -5  -3   3  254.27   14.90
   5  -3  -3  232.98   15.90
  -5  -3   3  245.68   17.30
   5  -3  -3  238.08   18.00
   5  -3  -3  238.78   18.90
  -5   3   3  233.08   14.70
   5   3  -3  252.07   15.60
  -4  -3   3 2998.60  127.19
   4  -3  -3 3009.80  128.49
  -4  -3   3 2985.40  129.09
   4  -3  -3 2929.81  127.39
   4  -3  -3 2977.80  130.39
   4   3  -3 2921.61  127.29
  -4   3   3 2978.70  131.59
  -3  -3   3 4899.91  214.68
   3  -3  -3 5274.67  214.38
   3  -3  -3 5152.58  216.08
  -3  -3   3 5006.90  213.08
  -3   3   3 4999.10  216.78
  -2  -3   3 2072.39   87.99
  -2  -3   3 2054.39   88.99
  -2   3   3 2004.40   90.09
   1  -3   3   61.89    5.90
   1  -3   3   69.19    6.20
  -1   3  -3   77.89    7.70
   1   3   3   72.89    5.90
   2  -3   3 1626.54   69.09
   2  -3   3 1578.04   70.09
  -2   3  -3 1593.44   70.29
  -2   3  -3 1518.45   69.79
   3  -3   3 3756.42  166.28
   3  -3   3 3828.12  167.88
  -3  -3  -3 3761.82  165.38
   3  -3   3 4045.50  165.98
  -3   3  -3 4075.69  167.08
  -3   3  -3 3895.61  165.68
   3   3   3 3818.02  168.98
  -3   3  -3 4105.39  167.78
  -4  -3  -3  443.56   22.80
   4  -3   3  484.95   23.10
  -4  -3  -3  385.76   22.60
   4  -3   3  436.26   25.20
  -4   3  -3  414.36   23.30
   4   3   3  430.16   26.20
  -4   3  -3  442.06   24.10
   5  -3   3 1114.39   48.00
   5  -3   3 1106.59   54.09
  -5  -3  -3 1090.89   50.29
  -5  -3  -3 1088.89   49.20
   5   3   3 1080.99   53.09
  -5   3  -3 1065.29   51.59
  -5   3  -3 1066.29   50.59
  -5   3  -3 1039.20   49.30
  -6  -3  -3 1096.39   48.30
  -6  -3  -3 1072.59   49.70
   6  -3   3 1054.79   46.70
  -6   3  -3 1043.50   48.30
  -6   3  -3 1071.99   50.79
   6   3   3 1018.20   50.89
  -7  -3  -3    3.30    3.00
  -7  -3  -3    4.80    3.40
  -7  -3  -3    1.10    3.40
   7   3   3    8.60    6.40
  -7   3  -3    8.00    4.20
  -7   3  -3    6.30    2.90
   8  -4  -3   99.29    7.20
   8   4  -3  102.69   10.50
  -7  -4   3  499.55   25.50
   7  -4  -3  490.05   25.80
  -7   4   3  507.95   24.70
   6  -4  -3  735.23   37.20
   6  -4  -3  767.92   36.00
   6  -4  -3  730.33   43.50
  -6  -4   3  757.72   36.80
  -6   4   3  702.83   44.40
  -6   4   3  754.12   35.60
   5  -4  -3 5330.47  234.38
  -5  -4   3 5209.78  229.38
  -5  -4   3 5655.13  234.28
   5  -4  -3 5470.05  229.48
   5  -4  -3 5316.37  230.98
  -5   4   3 5566.04  236.88
  -4  -4   3 1634.74   71.49
   4  -4  -3 1603.64   74.89
   4  -4  -3 1606.94   71.59
  -4  -4   3 1659.53   73.59
   4  -4  -3 1643.54   72.79
   4   4  -3 1544.75   71.29
  -4   4   3 1620.04   70.69
  -4   4   3 1624.54   76.49
  -3  -4   3 2858.51  121.99
   3  -4  -3 2755.22  123.09
  -3  -4   3 2787.52  120.19
   3  -4  -3 2892.61  121.29
  -3   4   3 2748.72  124.29
  -2  -4   3 3214.58  136.59
  -2  -4   3 3254.87  138.29
  -2   4   3 3174.98  140.19
  -1  -4   3 2507.65  110.49
  -1  -4   3 2571.94  111.79
  -1   4   3 2691.23  113.39
   0  -4   3 4061.39  169.78
   0  -4   3 4087.69  169.78
   0  -4   3 3866.51  170.78
   0   4  -3 4149.38  170.68
   0   4   3 3937.51  171.28
   1  -4   3 3824.82  164.58
   1  -4   3 3898.01  165.98
   1  -4   3 3691.03  164.98
  -1   4  -3 4039.50  165.78
   1   4   3 4015.10  165.58
   2  -4   3  553.44   28.30
   2  -4   3  576.24   27.50
   2  -4   3  574.84   28.50
  -2   4  -3  545.85   29.20
  -2   4  -3  598.04   28.80
   3  -4   3  243.68   15.40
   3  -4   3  241.08   15.80
   3  -4   3  238.78   14.30
  -3   4  -3  246.18   14.80
   3   4   3  225.78   17.90
  -3   4  -3  220.58   15.90
  -3   4  -3  254.67   15.80
   4  -4   3 1001.80   46.90
   4  -4   3  953.90   49.70
  -4  -4  -3  960.60   46.60
  -4   4  -3 1073.49   49.10
  -4   4  -3 1063.99   46.90
  -4   4  -3 1025.30   53.99
   4   4   3 1057.09   50.79
  -5  -4  -3 1162.78   52.69
   5  -4   3 1142.69   50.39
   5  -4   3 1150.28   56.79
  -5  -4  -3 1137.19   51.59
   5   4   3 1162.08   55.89
  -5   4  -3 1107.59   51.69
  -5   4  -3 1114.59   53.89
   6  -4   3  396.06   18.80
  -6  -4  -3  378.06   20.00
  -6  -4  -3  379.76   21.20
  -6   4  -3  379.56   22.00
  -6   4  -3  382.06   20.00
   6   4   3  373.36   23.00
  -7  -4  -3  609.44   29.70
  -7  -4  -3  609.94   30.10
  -7  -4  -3  613.14   28.30
  -7   4  -3  598.94   28.00
  -7   4  -3  592.54   29.80
   7   4   3  599.54   30.30
   7  -5  -3  327.27   18.30
   7  -5  -3  327.87   19.20
  -7  -5   3  348.47   19.00
  -7   5   3  385.66   18.50
   6  -5  -3  561.04   27.90
  -6  -5   3  593.34   28.50
   6  -5  -3  566.64   29.30
  -6   5   3  532.05   27.50
  -6   5   3  505.85   26.60
   5  -5  -3  217.98   19.80
  -5  -5   3  224.98   14.10
  -5  -5   3  226.08   19.40
   5  -5  -3  221.28   14.40
   5  -5  -3  212.18   15.20
  -5   5   3  224.88   14.20
  -5   5   3  212.78   20.50
  -5   5   3  214.58   13.60
   4  -5  -3   84.09    9.20
  -4  -5   3   86.29    8.10
  -4  -5   3   86.59   10.20
   4  -5  -3   71.59   11.10
   4  -5  -3   82.69   10.70
  -3  -5   3 2767.02  124.29
   3  -5  -3 2863.21  125.49
  -3  -5   3 2845.02  126.39
   3  -5  -3 2831.32  127.79
  -3   5   3 2995.90  124.99
   3   5  -3 2871.51  123.59
  -3   5   3 3019.00  130.29
  -3   5   3 3030.30  123.89
   2  -5  -3  888.01   43.60
  -2  -5   3  924.01   43.70
  -2  -5   3  917.41   41.90
  -2   5   3  929.71   46.20
  -1  -5   3 2036.30   87.69
  -1  -5   3 1967.40   89.19
  -1   5   3 2091.29   91.69
   0   5  -3  392.56   20.80
   0   5   3  382.36   21.70
   1  -5   3  467.95   24.10
   1  -5   3  466.75   23.80
   1  -5   3  476.75   25.20
  -1   5  -3  505.95   25.30
   1   5   3  496.15   25.70
   2  -5   3 1111.69   51.69
   2  -5   3 1110.29   52.09
   2   5   3 1126.09   53.59
   3  -5   3 2642.04  112.19
   3  -5   3 2623.14  114.69
   3  -5   3 2708.73  114.49
   3   5   3 2588.94  115.69
  -3   5  -3 2450.35  111.49
  -3   5  -3 2574.64  113.79
   4  -5   3  966.20   48.10
  -4  -5  -3  957.30   44.20
   4  -5   3  992.70   44.80
  -4   5  -3  894.21   45.80
  -4   5  -3  960.40   44.20
   4   5   3  958.90   48.40
   5  -5   3  192.48   17.70
   5  -5   3  208.98   12.10
  -5  -5  -3  203.58   13.90
   5  -5   3  196.68   18.80
   5   5   3  222.48   17.10
  -5   5  -3  213.98   15.30
  -5   5  -3  226.08   13.70
  -6  -5  -3   37.80    6.80
  -6  -5  -3   34.60    6.00
   6  -5   3   42.30    5.70
  -7  -5  -3  932.01   41.70
  -7  -5  -3  951.50   43.80
  -7  -5  -3  953.60   43.40
  -7   5  -3  937.91   41.50
  -7   5  -3  914.41   43.40
   7   5   3  974.20   44.10
  -7  -6   3  126.69    9.60
   7  -6  -3  122.89   10.10
   7  -6  -3  124.39    8.80
   7   6  -3  116.19   12.50
  -7   6   3  114.49    9.40
   6  -6  -3  135.19   10.30
   6  -6  -3  142.09   11.70
  -6  -6   3  140.59   10.80
   5  -6  -3 1013.20   45.80
   5  -6  -3 1006.30   44.20
   5  -6  -3  932.01   50.49
  -5  -6   3 1010.40   44.40
  -5   6   3  848.62   52.29
  -5   6   3  868.51   43.60
  -5   6   3  878.01   42.70
   4  -6  -3  383.16   23.00
  -4  -6   3  408.86   21.50
   4  -6  -3  401.86   26.50
   4  -6  -3  405.96   22.90
  -4   6   3  398.96   28.00
  -4   6   3  376.46   20.50
  -4   6   3  384.86   21.70
   3  -6  -3  501.65   28.70
  -3  -6   3  530.15   27.80
   3  -6  -3  514.95   26.40
  -3  -6   3  535.45   25.60
   3   6  -3  459.65   24.50
  -3   6   3  447.16   24.30
  -3   6   3  498.25   31.20
  -3   6   3  489.35   25.90
  -2  -6   3  340.07   18.90
   2  -6  -3  343.27   19.90
  -2   6   3  264.97   17.20
  -2   6   3  252.87   15.70
  -2   6   3  266.57   20.40
   2   6  -3  255.77   15.70
  -1  -6   3  962.50   44.20
  -1  -6   3  962.00   42.10
  -1   6   3  906.21   46.10
  -1   6   3  884.11   41.70
  -1   6   3  882.31   42.80
   1   6  -3  885.71   41.20
   0  -6   3  819.92   37.70
   0  -6   3  860.71   38.10
   0  -6   3  831.92   40.00
   0   6  -3  745.23   37.10
   0   6   3  782.32   40.90
   0   6   3  852.81   42.50
   1  -6   3 6235.28  288.67
   1  -6   3 7104.39  289.77
   1  -6   3 6871.31  287.57
  -1   6  -3 6115.99  289.77
   1   6   3 6996.30  289.37
  -1   6  -3 7088.89  285.77
   1   6   3 6843.22  287.07
   1   6   3 7351.46  290.37
   2  -6   3  837.22   38.20
   2  -6   3  846.42   39.70
   2  -6   3  840.72   40.60
   2   6   3  763.62   38.60
  -2   6  -3  865.01   40.10
  -2   6  -3  749.13   38.30
  -2   6  -3  785.62   37.10
   2   6   3  773.32   40.70
   3  -6   3  107.29   12.00
   3  -6   3  108.79   11.40
   3  -6   3  116.59    9.40
  -3   6  -3  120.19   10.80
   3   6   3  108.79   12.80
   3   6   3   91.89   12.10
  -3   6  -3  104.39   10.60
  -4  -6  -3  140.29   11.30
   4  -6   3  147.59   19.40
   4  -6   3  132.59   14.70
   4  -6   3  136.69   10.90
   5  -6   3 1490.35   64.59
  -5  -6  -3 1489.95   66.59
   5  -6   3 1498.05   66.39
  -5   6  -3 1450.45   67.99
   5   6   3 1492.75   69.79
  -5   6  -3 1488.15   65.59
  -6  -6  -3  311.87   18.50
   6  -6   3  326.07   16.40
  -6   6  -3  340.67   17.40
   6   6   3  342.47   20.70
  -6   6  -3  347.17   19.80
  -7  -6  -3  109.49    8.90
   7  -6   3  103.99    7.00
  -7  -6  -3  106.49    8.70
   7   6   3   94.69    8.90
   7  -7  -3  898.81   40.50
  -7  -7   3  830.42   42.00
   7  -7  -3  915.61   39.70
   7   7  -3  880.31   43.60
   6  -7  -3  741.33   36.20
   6  -7  -3  740.73   37.60
  -6  -7   3  765.12   36.90
  -6   7   3  814.12   35.60
  -6   7   3  807.42   36.40
  -5  -7   3  183.08   12.60
   5  -7  -3  183.58   12.80
   5  -7  -3  181.38   14.00
  -5   7   3  174.08   11.70
  -5   7   3  185.28   12.80
  -4  -7   3  994.10   46.20
   4  -7  -3  967.10   45.90
  -4  -7   3  926.91   49.50
   4  -7  -3  978.00   52.09
   4  -7  -3  972.30   47.40
  -4   7   3 1027.20   45.40
  -4   7   3 1002.70   55.39
  -4   7   3 1019.50   46.70
   3  -7  -3 2642.84  113.39
  -3  -7   3 2604.64  115.99
   3  -7  -3 2668.23  126.09
  -3  -7   3 2666.73  112.79
   3   7  -3 2498.45  111.19
  -3   7   3 2496.55  124.99
  -2  -7   3 1373.96   63.19
  -2  -7   3 1327.77   60.09
   2  -7  -3 1343.07   63.79
   2   7  -3 1329.77   59.19
  -2   7   3 1357.46   60.99
  -2   7   3 1301.07   66.59
  -2   7   3 1339.07   59.49
   1  -7  -3 3528.25  151.18
  -1  -7   3 3405.56  150.68
  -1  -7   3 3473.25  147.99
  -1   7   3 3469.75  154.08
   1   7  -3 3574.84  147.09
  -1   7   3 3350.56  147.29
  -1   7   3 3456.55  148.79
   0  -7   3 4158.78  172.88
   0  -7   3 4047.59  170.78
   0  -7   3 4082.99  175.78
   0   7  -3 4145.49  171.68
   0   7   3 4058.89  173.18
   0   7   3 3935.21  171.98
   0   7   3 4127.49  177.88
   0   7   3 3939.71  174.88
   1  -7   3   60.49    8.40
   1  -7   3   64.59    9.40
  -1   7  -3   77.49    8.00
   1   7   3   78.59    9.20
   1   7   3   81.99   11.50
   1   7   3   77.19   11.30
   1   7   3   85.29   10.80
   2  -7   3 1227.18   56.89
   2  -7   3 1213.48   58.19
   2  -7   3 1220.08   55.09
  -2   7  -3 1208.38   53.59
   2   7   3 1163.08   57.59
  -2   7  -3 1217.38   56.79
   2   7   3 1194.78   55.09
   3  -7   3 3123.99  140.09
   3  -7   3 3241.78  137.49
   3  -7   3 3075.79  140.69
  -3   7  -3 3208.68  139.19
   3   7   3 3199.58  136.79
   3   7   3 3265.87  140.39
   4  -7   3  552.04   34.60
   4  -7   3  606.74   30.60
   4  -7   3  573.14   41.20
  -4   7  -3  634.74   32.30
  -4   7  -3  596.24   32.50
   4   7   3  663.23   34.10
  -5  -7  -3  634.34   32.00
   5  -7   3  663.93   32.00
   5  -7   3  662.43   30.20
  -5   7  -3  651.73   33.40
   5   7   3  654.83   35.00
   6  -7   3 1028.20   43.90
  -6  -7  -3  979.20   45.80
   6   7   3 1013.60   47.90
  -6   7  -3  996.20   50.79
  -6  -8   3   20.30    5.20
   6  -8  -3   18.80    4.10
   6  -8  -3   17.50    5.70
  -6   8   3   20.00    4.50
  -6   8   3   21.10    4.60
   6   8  -3   17.90    6.70
   5  -8  -3 3169.58  138.19
   5  -8  -3 3237.18  140.39
  -5  -8   3 3082.99  138.79
  -5   8   3 3358.16  137.79
  -5   8   3 3341.27  138.99
   4  -8  -3  685.63   35.40
  -4  -8   3  697.13   42.20
   4  -8  -3  680.33   33.90
   4  -8  -3  662.03   40.90
  -4  -8   3  686.43   34.30
  -4   8   3  751.02   34.90
  -4   8   3  729.33   33.40
  -4   8   3  698.73   44.60
   3  -8  -3  507.85   32.50
  -3  -8   3  510.15   30.80
  -3  -8   3  495.15   26.90
   3  -8  -3  508.65   28.10
  -3   8   3  560.24   28.10
  -3   8   3  535.65   36.20
   3   8  -3  528.65   26.10
  -3   8   3  560.04   26.50
   2  -8  -3 1834.62   88.69
  -2  -8   3 1901.81   88.09
  -2  -8   3 1786.72   84.29
  -2   8   3 2002.70   85.69
  -2   8   3 2004.40   84.09
  -2   8   3 1945.21   93.29
   2   8  -3 1950.90   83.49
   1  -8  -3 2325.07  106.19
  -1  -8   3 2241.28  106.29
  -1  -8   3 2339.77  102.99
  -1   8   3 2329.57  103.79
   1   8  -3 2440.56  102.09
  -1   8   3 2448.46  102.59
  -1   8   3 2456.15  111.09
   0  -8   3  626.04   34.50
   0  -8  -3  652.73   34.40
   0  -8   3  615.44   29.30
   0  -8   3  600.14   31.00
   0   8   3  660.03   37.50
   0   8   3  653.63   30.90
   0   8   3  636.64   31.90
   0   8   3  612.84   33.90
   0   8  -3  621.64   30.00
   1  -8   3  926.61   46.40
   1  -8   3  920.61   52.39
   1   8   3 1047.20   49.50
   1   8   3 1044.80   50.79
  -1   8  -3 1044.20   48.00
   1   8   3 1033.70   52.29
   1   8   3  982.60   45.80
   2  -8   3 3057.79  128.99
   2  -8   3 2911.81  132.69
   2  -8   3 2859.01  130.69
   2   8   3 2935.21  130.99
  -2   8  -3 3039.00  126.89
   2   8   3 3044.00  128.59
   3  -8   3  422.86   27.90
   3  -8   3  446.76   23.90
   3  -8   3  436.56   29.20
  -3   8  -3  438.16   25.10
  -3   8  -3  427.96   22.20
   3   8   3  445.56   23.40
   3   8   3  432.76   26.40
   4  -8   3 2174.48   95.89
  -4   8  -3 2082.29   96.69
   4   8   3 2284.27   99.09
   5  -8   3   78.59    6.50
   5  -8   3   85.09    9.00
  -5  -8  -3   86.89    9.60
  -6  -8  -3   20.10    6.30
   6  -8   3   18.40    3.40
   6   8   3   12.70    4.60
   6  -9  -3  139.99   10.90
  -6  -9   3  146.59   10.20
   6  -9  -3  155.08    9.90
  -6   9   3  181.68   11.20
   5  -9  -3  135.69   10.30
  -5  -9   3  141.09   10.20
   5  -9  -3  139.39   11.30
   5   9  -3  127.89   14.40
  -5   9   3  127.49    9.30
  -5   9   3  126.99   10.10
   4  -9  -3  253.47   17.80
  -4  -9   3  253.07   16.80
  -4   9   3  315.67   16.40
   4   9  -3  311.47   22.50
  -4   9   3  319.57   17.60
  -3  -9   3 1606.54   80.19
   3  -9  -3 1597.24   76.79
   3  -9  -3 1563.54   81.39
  -3  -9   3 1615.14   75.09
  -3   9   3 1796.62   76.09
   3   9  -3 1819.02   74.29
  -3   9   3 1735.23   87.29
  -3   9   3 1832.62   74.69
   3   9  -3 1624.54   79.59
  -2  -9   3  414.86   22.50
  -2  -9   3  401.96   27.20
  -2  -9   3  386.76   23.80
   2  -9  -3  399.26   28.50
  -2   9   3  435.16   23.50
  -2   9   3  411.06   32.30
  -2   9   3  421.56   21.90
   2   9  -3  411.06   21.50
  -1  -9   3  525.45   33.90
   1  -9  -3  561.94   35.20
  -1  -9   3  559.84   30.10
   1   9  -3  648.84   29.50
  -1   9   3  662.43   31.70
  -1   9   3  632.14   29.90
  -1   9   3  637.94   39.50
   0  -9   3  634.54   38.80
   0  -9   3  678.63   35.20
   0  -9   3  628.44   32.70
   0   9   3  761.22   43.60
   0   9  -3  776.82   34.20
   0   9   3  766.42   36.10
   0   9   3  771.32   34.80
   0   9   3  743.03   38.10
   1  -9   3  242.48   20.30
   1  -9   3  239.78   15.60
   1  -9   3  248.38   13.80
   1   9   3  255.37   16.30
   1   9   3  247.48   15.60
  -1   9  -3  275.07   14.80
   1   9   3  239.58   18.30
   2  -9   3  208.38   14.90
   2  -9   3  196.38   20.20
   2   9   3  254.87   18.00
   2   9   3  265.57   15.90
  -2   9  -3  255.47   14.00
   3  -9   3  172.68   13.40
  -3   9  -3  216.38   12.70
   3   9   3  221.68   16.40
   4  -9   3  583.84   27.60
   4  -9   3  605.54   29.80
   4   9   3  596.54   32.10
  -5  -9  -3   88.99   10.90
   5  -9   3   97.59    6.60
   5  -9   3   87.39   10.60
   5   9   3  110.59   10.30
   5 -10  -3   10.40    4.70
  -5 -10   3    7.70    3.40
   5 -10  -3    7.50    3.90
   5  10  -3   14.70    6.70
  -5  10   3    8.40    3.60
  -5  10   3    7.50    3.10
  -4 -10   3   78.79    8.00
   4 -10  -3   73.09    9.10
   4  10  -3   80.79   13.60
   3 -10  -3  261.97   16.90
  -3 -10   3  257.27   15.60
  -3  10   3  241.48   15.60
  -3  10   3  231.68   14.40
   3  10  -3  226.78   14.10
  -2  10   3   88.19    8.50
  -2  10   3   99.79    9.80
   2  10  -3   92.09    8.60
  -1  10   3   91.89    9.80
  -1  10   3   86.39   22.50
   1  10  -3   89.09    8.50
  -1  10   3   93.99    8.90
   0 -10   3   58.59    7.60
   0 -10   3   59.19   14.70
   0  10   3   50.69    7.60
   0  10   3   53.89   21.90
   0  10   3   43.70    7.90
   0  10  -3   51.89    6.90
   1 -10   3  652.53   29.90
   1 -10   3  638.54   39.30
   1 -10   3  659.73   35.90
   1  10   3  638.44   31.20
   1  10   3  645.64   34.30
  -1  10  -3  670.13   31.20
  -2  10  -3   61.99    6.70
   2  10   3   57.79    7.80
   2  10   3   52.59    9.90
   3 -10   3   67.09    7.80
   3 -10   3   68.99    6.10
   3  10   3   76.09   10.40
  -3  10  -3   86.29    7.50
   4 -10   3   84.59    8.20
   4 -10   3   83.39    6.20
   4  10   3   83.19    9.80
   5 -10   3  198.08   13.30
   5 -10   3  202.58   10.70
   5  10   3  234.48   14.10
  -5 -11   3  105.29    8.00
   5 -11  -3  102.29    8.70
  -5  11   3  102.89    8.00
  -5  11   3  109.09    7.50
  -4 -11   3   29.10    5.40
   4 -11  -3   38.90    7.20
  -4  11   3   36.90    5.90
  -4  11   3   36.90    5.10
  -3 -11   3  353.06   18.60
   3 -11  -3  363.46   19.90
   3  11  -3  330.37   17.50
  -3  11   3  328.77   17.90
  -3  11   3  320.37   18.80
  -2 -11   3   15.80    4.70
  -2  11   3   14.80    3.80
   2  11  -3   14.40    4.20
  -2  11   3   15.20    4.60
  -1 -11   3  928.71   42.60
  -1  11   3  906.71   43.30
   1  11  -3  879.41   41.30
  -1  11   3  879.01   41.60
   0 -11   3   91.49    9.50
   0  11   3  117.69    9.50
   0  11  -3  113.99    8.90
   0  11   3  120.99   10.40
   1 -11   3   66.19    6.70
   1 -11   3   69.19    7.70
  -1  11  -3   56.09    6.50
   1  11   3   53.99    7.70
   2 -11   3   30.80    6.00
   2 -11   3   26.00    4.50
   2  11   3   24.20    7.20
  -2  11  -3   20.40    4.80
   3 -11   3  189.48   10.70
   3 -11   3  195.28   12.80
   3  11   3  201.58   14.30
  -3  11  -3  209.48   11.40
   4 -11   3  277.87   15.70
   4 -11   3  281.67   14.10
   4  11   3  320.67   17.40
   4 -12  -3  106.69    9.80
  -4 -12   3  107.19    8.10
  -4  12   3  133.39    7.70
  -4  12   3  130.79    8.70
   3 -12  -3  230.68   15.10
  -3 -12   3  216.68   13.90
  -3  12   3  232.38   12.70
  -3  12   3  234.28   13.40
  -2 -12   3  188.48   13.00
   2  12  -3  235.08   12.80
  -2  12   3  229.08   13.00
  -2  12   3  233.08   13.90
  -1 -12   3  236.48   14.80
  -1 -12   3  250.37   14.40
  -1  12   3  213.68   13.30
  -1  12   3  220.58   14.20
   1  12  -3  202.78   13.00
   0 -12   3   68.19    7.20
   0  12  -3   61.09    6.70
   0  12   3   60.09    7.40
   0  12   3   60.29    7.10
  -1  12  -3  119.59    8.50
   1  12   3  112.59    9.10
   1  12   3  118.49    9.60
   2 -12   3  269.37   15.80
   2 -12   3  263.47   13.70
  -2  12  -3  320.87   14.90
   3 -12   3   69.09    6.80
   3 -12   3   73.09    5.10
   3  12   3   68.49   10.00
  -3  12  -3   63.99    6.50
  -2 -13   3  220.88   13.20
  -2  13   3  247.68   13.30
   2  13  -3  244.98   12.50
  -2  13   3  252.77   12.90
  -1 -13   3   57.99    6.80
  -1  13   3   62.29    5.90
  -1  13   3   70.59    6.60
   1  13  -3   60.19    5.90
   0 -13   3   75.29    7.50
   0  13   3   99.39    7.90
   0  13  -3  104.79    7.10
   0  13   3  102.19    7.30
   1 -13   3   21.50    5.00
  -1  13  -3   30.40    4.20
   8   0  -4   18.90    8.10
   8   0  -4   16.60    3.60
  -8   0   4   16.40    3.30
   7   0  -4  121.19   11.50
   6   0  -4  269.57   16.10
  -6   0   4  263.47   22.90
   5   0  -4   56.59    7.60
  -5   0   4   53.59   10.10
   5   0  -4   57.49    8.80
   4   0  -4  979.30   45.50
   4   0  -4  934.21   44.40
   4   0  -4  950.00   46.60
  -4   0   4  987.30   46.90
   3   0  -4  326.67   18.90
  -3   0   4  359.66   19.90
  -2   0   4 1851.41   82.09
   2   0  -4 1891.01   82.39
  -1   0   4 1619.34   69.89
   1   0  -4 1557.34   70.09
   0   0   4 5481.15  231.38
   0   0  -4 5468.55  232.48
   0   0   4 5623.54  232.28
   1   0   4  788.72   34.90
  -1   0  -4  774.92   36.30
  -1   0  -4  757.42   36.40
  -2   0  -4  337.87   18.40
  -2   0  -4  331.17   18.50
  -3   0  -4   26.30    5.90
   3   0   4   42.30    7.80
  -3   0  -4   36.90    6.30
  -4   0  -4   88.59    9.10
  -4   0  -4   95.79    9.40
  -4   0  -4   98.89    9.40
  -5   0  -4  110.99   10.60
  -5   0  -4  101.29   10.10
  -5   0  -4  109.89    9.30
  -6   0  -4  111.99    9.10
  -6   0  -4  118.69   10.80
  -6   0  -4  121.29   10.90
  -7   0  -4  506.75   24.50
  -7   0  -4  515.75   26.10
  -7   0  -4  517.45   26.30
   8  -1  -4  368.86   17.30
   8   1  -4  333.47   20.50
  -8   1   4  342.67   17.10
   7  -1  -4  953.50   45.40
   7   1  -4 1014.60   46.10
   6  -1  -4  191.38   14.30
   6  -1  -4  198.08   13.00
  -6  -1   4  191.68   19.10
  -6   1   4  178.08   19.50
  -6   1   4  170.48   12.50
   6   1  -4  178.68   12.60
   5  -1  -4  329.07   19.30
  -5  -1   4  322.27   19.20
   5  -1  -4  331.07   20.40
   5  -1  -4  320.97   23.90
  -5   1   4  402.16   24.80
   5   1  -4  386.36   19.80
   5   1  -4  338.07   23.30
   4  -1  -4 1446.46   67.79
  -4  -1   4 1460.95   68.89
   4  -1  -4 1437.36   69.19
   4   1  -4 1478.95   68.09
   4   1  -4 1524.55   67.49
   4   1  -4 1531.45   66.79
  -4   1   4 1623.64   70.89
  -3  -1   4 2020.30   88.89
   3  -1  -4 2063.69   88.39
  -3  -1   4 1983.70   86.59
  -3   1   4 1954.40   88.99
   3   1  -4 1919.41   87.99
  -3   1   4 1987.80   89.99
   3   1  -4 2151.48   93.09
  -2  -1   4 2223.08   95.39
  -2  -1   4 2099.39   93.39
   2  -1  -4 2085.29   94.89
  -2   1   4 2300.47   95.49
  -2   1   4 2188.58   95.79
   2   1  -4 2196.48   95.29
   1  -1  -4 1333.37   62.39
  -1  -1   4 1296.77   62.09
  -1   1   4 1465.65   62.59
  -1   1   4 1481.05   62.69
   1   1  -4 1471.35   62.99
   0  -1  -4  941.01   44.90
   0  -1   4  975.20   44.40
   0   1   4  995.00   43.70
   0   1   4 1019.30   44.10
   0   1  -4  996.10   45.10
   1  -1   4  179.38   10.90
  -1  -1  -4  175.18   12.30
  -1   1  -4  195.38   12.70
  -1   1  -4  196.88   12.50
   1   1   4  190.58   10.40
  -2  -1  -4 3269.47  138.99
   2  -1   4 3243.98  140.29
   2  -1   4 3334.97  137.59
  -2  -1  -4 3392.96  139.09
  -2   1  -4 3163.78  139.19
  -2   1  -4 3101.29  139.09
  -3  -1  -4  814.82   40.40
   3  -1   4  824.52   41.90
  -3  -1  -4  832.12   40.30
   3  -1   4  781.52   38.20
  -3  -1  -4  808.72   39.90
   3   1   4  855.31   43.30
  -3   1  -4  899.81   39.90
  -3   1  -4  941.31   41.30
  -3   1  -4  945.71   41.20
  -4  -1  -4   70.09    8.20
   4  -1   4   69.49   15.20
  -4  -1  -4   67.29    8.10
   4  -1   4   66.69    7.60
  -4   1  -4   58.99    7.90
   4   1   4   65.09   13.70
  -4   1  -4   61.09    8.00
  -4   1  -4   54.09    9.00
  -5  -1  -4  519.85   28.60
  -5  -1  -4  544.85   27.10
  -5  -1  -4  530.95   28.30
   5   1   4  531.15   30.70
  -5   1  -4  546.35   28.90
  -5   1  -4  535.55   28.40
  -5   1  -4  544.05   27.00
  -6  -1  -4  534.25   26.90
  -6  -1  -4  536.95   26.60
  -6  -1  -4  510.05   24.50
  -6   1  -4  446.06   25.80
  -6   1  -4  442.26   26.10
  -6   1  -4  446.36   24.20
  -7  -1  -4   75.39    6.40
  -7  -1  -4   79.39    8.00
  -7  -1  -4   78.79    8.50
  -7   1  -4   63.79    7.70
  -7   1  -4   75.09    6.50
   8  -2  -4  220.28   12.30
  -8   2   4  226.48   12.20
   8   2  -4  240.68   15.80
   7   2  -4   12.50    4.40
  -7   2   4   10.40    4.20
   6  -2  -4  617.84   38.80
   6  -2  -4  726.13   35.00
  -6  -2   4  658.33   41.10
  -6   2   4  749.42   43.10
   6   2  -4  792.22   35.00
  -6   2   4  773.52   33.80
   5  -2  -4 2680.63  115.39
   5  -2  -4 2626.34  113.59
   5  -2  -4 2606.24  118.09
  -5  -2   4 2578.54  116.79
  -5  -2   4 2579.94  112.99
   5   2  -4 2665.93  113.39
  -5   2   4 2622.44  119.29
  -4  -2   4    5.40    6.50
  -4  -2   4    9.00    4.20
  -4  -2   4    8.20    3.70
   4  -2  -4   14.00    5.60
   4  -2  -4    8.10    4.30
   4  -2  -4   10.30    4.20
   4   2  -4    6.90    6.40
   4   2  -4   11.20    4.60
  -4   2   4   12.40    5.10
   3  -2  -4 3642.14  164.58
  -3  -2   4 3747.92  165.78
  -3  -2   4 3750.42  163.38
   3   2  -4 3953.40  164.08
  -3   2   4 4009.20  167.58
   3   2  -4 4050.99  164.78
  -2  -2   4  131.39    8.60
  -2   2   4   96.59    9.40
  -1  -2   4 1249.28   54.59
  -1  -2   4 1213.78   53.19
   1  -2  -4 1226.88   54.49
  -1   2   4 1215.48   54.19
   1   2  -4 1163.08   54.49
  -1   2   4 1169.88   54.49
   0   2  -4  129.99   10.40
   0   2   4  136.79    9.10
   0   2  -4  127.69   10.10
   1  -2   4 1769.92   78.69
  -1  -2  -4 1841.12   79.49
   1  -2   4 1669.33   84.19
  -1   2  -4 1915.81   79.99
  -1   2  -4 1917.91   80.19
   2  -2   4  311.27   16.70
  -2  -2  -4  325.47   17.70
   2  -2   4  326.17   18.20
  -2  -2  -4  318.47   17.40
  -2   2  -4  292.47   17.60
  -2   2  -4  271.27   18.60
  -2   2  -4  297.77   17.70
   3  -2   4 1275.17   60.39
  -3  -2  -4 1251.77   58.19
   3  -2   4 1202.08   56.29
  -3  -2  -4 1208.38   57.89
  -3   2  -4 1391.96   59.79
  -3   2  -4 1367.46   59.29
   3   2   4 1268.47   60.69
  -3   2  -4 1383.86   58.09
  -4  -2  -4 1239.98   55.19
   4  -2   4 1246.68   58.09
  -4  -2  -4 1242.88   54.19
   4  -2   4 1213.88   52.59
  -4   2  -4 1157.88   55.19
   4   2   4 1137.49   56.79
  -4   2  -4 1152.48   53.79
  -4   2  -4 1150.88   55.69
   5  -2   4 1021.70   53.19
   5  -2   4 1031.20   45.80
  -5  -2  -4 1053.49   49.00
  -5  -2  -4 1086.99   47.60
  -5  -2  -4 1063.89   49.50
  -5   2  -4 1007.90   48.90
  -5   2  -4 1013.70   49.60
  -5   2  -4 1016.80   47.40
   5   2   4  995.80   50.09
  -6  -2  -4  506.75   25.50
  -6  -2  -4  524.25   27.10
  -6  -2  -4  548.65   27.90
   6   2   4  513.45   28.50
  -6   2  -4  500.35   25.50
  -6   2  -4  490.75   26.70
  -6   2  -4  531.35   27.90
  -7  -2  -4   60.69    5.90
  -7  -2  -4   64.39    7.30
  -7  -2  -4   60.89    7.50
  -7   2  -4   83.89    7.80
   8  -3  -4  327.77   17.50
   8   3  -4  396.96   21.00
  -8   3   4  363.06   17.60
   7  -3  -4   61.09    6.80
   6  -3  -4  617.44   31.70
   6  -3  -4  601.34   30.30
  -6  -3   4  596.44   30.00
  -6   3   4  604.04   28.90
   6   3  -4  622.44   29.80
   5  -3  -4  296.07   17.90
   5  -3  -4  295.07   19.00
  -5  -3   4  290.37   17.20
  -5  -3   4  291.87   21.30
   5  -3  -4  283.47   22.80
   5   3  -4  331.97   18.10
  -5   3   4  330.27   23.90
  -5   3   4  331.47   17.20
  -4  -3   4  110.49   10.90
   4  -3  -4  104.79   10.10
   4  -3  -4  108.09   12.50
   4  -3  -4  112.89   10.30
  -4  -3   4  108.89    8.70
  -4  -3   4  103.09   12.30
  -3  -3   4  741.53   35.40
  -3  -3   4  728.63   38.00
  -3  -3   4  769.02   37.50
   3  -3  -4  732.23   36.40
   3  -3  -4  695.33   37.50
   3   3  -4  811.72   36.30
  -3   3   4  770.12   40.30
  -3   3   4  799.02   39.30
  -2  -3   4  656.23   29.00
  -2  -3   4  652.73   30.70
   2  -3  -4  624.04   30.30
   2   3  -4  533.35   29.60
  -2   3   4  552.74   31.00
  -1  -3   4 1691.13   78.09
  -1  -3   4 1719.53   79.59
   1  -3  -4 1718.23   79.29
   1   3  -4 1854.61   79.79
  -1   3   4 2052.49   81.39
   0  -3   4 1074.59   44.60
   0  -3   4 1107.59   46.00
   0   3  -4  908.81   45.00
   0   3   4  956.10   45.30
   0   3  -4  893.61   45.30
   1  -3   4 4665.13  202.48
   1  -3   4 4658.33  202.78
   1  -3   4 4651.73  201.18
  -1   3  -4 4937.11  202.58
  -1   3  -4 4976.70  202.78
   2  -3   4  398.26   22.10
  -2  -3  -4  392.06   21.00
   2  -3   4  389.66   19.40
   2  -3   4  398.06   21.00
   2  -3   4  391.26   20.30
   2   3   4  383.86   23.90
  -2   3  -4  398.06   21.50
  -2   3  -4  406.76   21.00
   3  -3   4 1497.65   62.79
   3  -3   4 1517.15   67.39
  -3  -3  -4 1451.85   64.39
   3   3   4 1330.77   66.59
  -3   3  -4 1374.76   65.09
  -3   3  -4 1484.25   64.39
  -3   3  -4 1452.25   65.89
   4  -3   4    3.60    5.20
  -4  -3  -4    2.70    3.50
   4  -3   4    0.30    3.10
  -4   3  -4    1.10    3.40
  -4   3  -4    4.10    3.50
   4   3   4    2.40    5.50
  -4   3  -4    1.20    4.40
  -5  -3  -4   95.99   10.30
   5  -3   4  101.09    8.30
  -5  -3  -4  131.09   10.60
  -5   3  -4  138.89   10.20
  -5   3  -4  128.39   13.30
   5   3   4  141.79   13.20
  -6  -3  -4  352.86   20.80
  -6  -3  -4  341.97   20.40
  -6  -3  -4  356.66   19.00
   6  -3   4  359.46   18.00
  -6   3  -4  370.56   20.10
   6   3   4  383.46   21.80
  -6   3  -4  391.76   21.30
  -7  -3  -4  422.86   25.80
  -7  -3  -4  443.46   20.50
  -7   3  -4  406.26   22.10
  -7   3  -4  431.46   20.50
  -7  -4   4    3.50    5.40
   7  -4  -4    3.70    2.80
   7  -4  -4    3.70    5.40
  -7   4   4    5.40    3.20
  -6  -4   4  399.96   21.30
   6  -4  -4  408.06   21.30
   6  -4  -4  410.36   22.80
  -6   4   4  371.86   20.80
  -6   4   4  363.26   19.90
  -5  -4   4  398.96   21.20
   5  -4  -4  420.66   23.20
   5  -4  -4  412.66   21.80
  -5  -4   4  389.56   25.60
   5  -4  -4  407.56   27.90
  -5   4   4  348.47   27.50
   5   4  -4  357.56   21.20
  -5   4   4  368.36   20.10
   4  -4  -4   36.90    8.00
   4  -4  -4   48.00    7.70
  -4  -4   4   50.69    8.90
  -4  -4   4   47.70    6.40
   4  -4  -4   49.80   10.20
  -4  -4   4   45.20   10.70
  -4   4   4   40.90    6.70
   4   4  -4   40.00    8.80
  -4   4   4   47.50   10.00
   3  -4  -4  231.28   16.20
  -3  -4   4  244.98   15.90
   3  -4  -4  229.98   17.00
   3  -4  -4  235.38   15.40
  -3  -4   4  254.77   14.10
  -3  -4   4  228.88   16.90
  -2  -4   4 2749.32  120.89
  -2  -4   4 2838.22  119.29
  -2  -4   4 2649.63  120.69
   2  -4  -4 2779.52  119.89
  -2   4   4 2767.32  119.29
  -2   4   4 2862.21  123.29
   2   4  -4 2752.52  118.09
  -1  -4   4  843.22   39.30
  -1  -4   4  868.41   41.20
  -1   4   4  855.11   42.30
   0  -4   4 3622.34  149.19
   0  -4   4 3632.74  147.29
   0   4  -4 3498.35  148.19
   0   4  -4 3444.46  148.39
   0   4   4 3123.79  150.38
   1  -4   4  236.98   13.80
   1  -4   4  234.28   14.80
   1  -4   4  229.48   14.70
   1  -4   4  218.28   13.00
  -1   4  -4  242.68   16.30
   1   4   4  237.18   17.90
  -1   4  -4  266.77   15.30
  -1   4  -4  254.27   15.50
   2  -4   4  106.89   10.00
   2  -4   4  105.79    8.80
   2  -4   4  107.79   10.10
   2  -4   4  107.29    8.20
  -2   4  -4  120.89   11.70
  -2   4  -4  117.89   10.10
   2   4   4  124.39   12.70
  -2   4  -4  119.39   10.20
   3  -4   4 1262.97   66.89
   3  -4   4 1282.37   57.69
  -3  -4  -4 1301.87   58.09
   3  -4   4 1295.27   56.39
   3  -4   4 1309.87   60.89
  -3   4  -4 1258.57   58.99
  -3   4  -4 1255.67   59.39
   3   4   4 1288.27   61.09
  -3   4  -4 1342.07   57.99
   4  -4   4  160.58   15.10
   4  -4   4  176.08   10.10
  -4  -4  -4  167.58   11.90
  -4   4  -4  143.29   18.00
  -4   4  -4  130.69   11.90
   4   4   4  133.29   13.80
  -4   4  -4  137.59   10.80
  -5  -4  -4  420.96   23.30
  -5  -4  -4  425.36   22.40
   5  -4   4  409.96   20.60
   5   4   4  423.16   25.00
  -5   4  -4  441.66   24.30
  -5   4  -4  428.56   22.10
  -6  -4  -4   11.70    4.30
   6  -4   4   18.20    3.80
  -6  -4  -4   12.90    4.20
  -6  -4  -4   15.30    4.60
   6   4   4   15.60    5.40
  -6   4  -4    9.80    4.30
  -6   4  -4    9.30    3.50
  -7  -4  -4  122.79    9.20
  -7  -4  -4  112.09    8.50
  -7  -4  -4  123.29    9.20
  -7   4  -4  107.89    9.10
  -7   4  -4  107.59    7.40
   7  -5  -4  102.99    7.80
   7  -5  -4  109.19   12.10
  -7  -5   4   90.79   14.70
  -7   5   4   77.59    7.40
   6  -5  -4   77.59    9.20
   6  -5  -4   82.09    8.20
  -6  -5   4   83.29    8.10
  -6   5   4   56.69    9.20
  -6   5   4   70.99    7.70
  -5  -5   4  326.87   25.20
   5  -5  -4  318.47   26.10
  -5  -5   4  338.57   19.10
   5  -5  -4  325.77   19.30
   5  -5  -4  331.97   20.70
  -5   5   4  364.96   19.30
  -5   5   4  364.66   18.50
  -5   5   4  346.07   27.80
  -4  -5   4 4942.51  213.48
   4  -5  -4 5066.09  213.68
   4  -5  -4 4980.30  218.58
   4  -5  -4 5045.20  214.98
  -4  -5   4 5122.49  217.08
  -4  -5   4 4932.51  214.98
  -4   5   4 4997.20  213.48
  -4   5   4 5201.78  212.68
  -4   5   4 5041.00  221.18
   3  -5  -4  241.48   17.70
   3  -5  -4  239.08   14.90
   3  -5  -4  223.28   16.20
  -3  -5   4  235.78   15.90
  -3  -5   4  229.78   13.40
  -3  -5   4  227.48   16.50
   3   5  -4  176.88   15.00
  -3   5   4  192.48   13.70
  -3   5   4  193.88   17.60
  -3   5   4  175.58   19.40
   3   5  -4  182.48   12.60
  -3   5   4  198.68   13.00
  -2  -5   4 1288.97   56.99
  -2  -5   4 1229.68   58.69
  -2  -5   4 1317.67   59.39
   2  -5  -4 1292.27   58.39
  -2   5   4 1190.78   59.99
   2   5  -4 1241.88   57.09
  -2   5   4 1276.97   56.39
  -2   5   4 1316.47   62.39
  -2   5   4 1293.47   57.69
   2   5  -4 1216.08   55.89
   1   5  -4   11.70    4.00
  -1   5   4   10.20    7.20
  -1   5   4   20.70    7.50
  -1   5   4   18.90    5.60
  -1   5   4   33.60    7.50
   0  -5   4 2345.57  103.09
   0  -5   4 2324.17  104.89
   0  -5   4 2336.67  101.39
   0   5  -4 2392.66  103.09
   0   5   4 2468.05  105.99
   0   5  -4 2450.65  102.29
   0   5   4 2390.36  105.59
   1  -5   4  935.51   42.60
   1  -5   4  930.21   43.40
   1  -5   4  925.61   41.30
   1  -5   4  889.51   39.70
  -1   5  -4  905.21   42.70
  -1   5  -4  827.62   41.00
  -1   5  -4  848.02   40.50
   1   5   4  855.51   43.80
   2  -5   4 1212.78   54.19
   2  -5   4 1193.28   52.29
   2  -5   4 1179.38   56.09
   2  -5   4 1181.58   55.99
   2   5   4 1171.08   56.69
  -2   5  -4 1197.78   53.89
  -2   5  -4 1215.68   55.79
   3  -5   4  236.38   13.20
   3  -5   4  237.78   14.70
   3  -5   4  228.68   17.80
  -3  -5  -4  237.88   15.50
   3  -5   4  234.18   17.10
   4  -5   4   49.70    5.80
   4  -5   4   50.69    9.20
  -4  -5  -4   54.59    8.20
   4  -5   4   61.09   11.80
   4   5   4   49.30    9.70
  -4   5  -4   50.79    7.40
  -4   5  -4   53.69    8.10
  -5  -5  -4    1.60    3.80
   5  -5   4    1.80    2.60
  -5   5  -4    2.60    3.20
  -5   5  -4    4.90    4.10
   5   5   4    3.10    4.80
   6  -5   4  313.87   14.90
  -6  -5  -4  317.17   17.60
  -6  -5  -4  315.87   16.60
  -6  -5  -4  306.27   17.60
   6   5   4  290.57   18.30
  -6   5  -4  275.07   17.50
  -6   5  -4  290.17   15.80
   7  -6  -4  117.19    9.80
  -7  -6   4  116.19    9.80
   7  -6  -4  126.99    8.50
  -7   6   4  129.59    8.60
   7   6  -4  128.09   12.00
  -6  -6   4 1711.83   75.59
   6  -6  -4 1710.63   75.39
   6  -6  -4 1686.03   76.79
  -6   6   4 1708.73   73.99
  -6   6   4 1749.62   75.49
  -5  -6   4   96.79    9.00
   5  -6  -4  122.69   11.10
   5  -6  -4   90.69    9.60
  -5   6   4  118.39    8.90
  -4  -6   4   62.79    7.40
   4  -6  -4   61.29    8.80
   4  -6  -4   57.99   10.00
   4  -6  -4   59.59   13.00
  -4  -6   4   62.69   12.20
  -4   6   4   61.89    7.20
  -4   6   4   60.09   14.30
   3  -6  -4  324.77   19.80
  -3  -6   4  320.07   20.80
  -3  -6   4  310.97   21.60
   3  -6  -4  309.87   22.80
  -3  -6   4  321.87   18.50
  -3   6   4  343.77   18.60
  -3   6   4  370.36   29.30
  -2  -6   4  777.32   38.40
  -2  -6   4  744.73   35.50
  -2  -6   4  761.82   37.60
  -2   6   4  758.62   41.90
  -2   6   4  717.73   34.90
   2   6  -4  729.73   34.60
  -2   6   4  696.03   38.90
  -2   6   4  744.53   36.30
  -1  -6   4  171.58   12.50
  -1  -6   4  171.98   13.60
  -1  -6   4  169.98   11.60
  -1   6   4  186.48   16.20
  -1   6   4  178.08   16.40
  -1   6   4  179.48   13.20
  -1   6   4  187.78   12.40
   0  -6   4  893.71   41.70
   0  -6   4  907.41   43.30
   0  -6   4  909.01   45.60
   0   6   4  901.91   43.20
   0   6  -4  967.50   43.90
   0   6   4  982.00   47.80
   0   6   4  951.10   44.20
   0   6  -4  981.50   42.70
   0   6   4  950.50   46.10
  -1   6  -4   35.20    7.00
   1   6   4   22.50    6.40
  -1   6  -4   32.30    6.70
  -1   6  -4   36.40    7.00
   1   6   4   28.70    6.30
   2  -6   4   67.69    7.70
   2  -6   4   63.89    9.70
   2  -6   4   73.79   10.50
   2  -6   4   78.19    8.50
  -2   6  -4   72.79    8.80
   2   6   4   64.19   11.20
  -2   6  -4   68.49    9.00
   2   6   4   73.89   11.40
  -2   6  -4   64.99    9.20
   3  -6   4   17.30    6.70
   3  -6   4   20.30    4.10
   3  -6   4   17.30    4.60
   3  -6   4   14.20    7.30
   4  -6   4 1358.06   57.69
   4  -6   4 1252.27   64.29
  -4   6  -4 1376.56   58.89
   4   6   4 1386.46   62.89
  -4   6  -4 1184.18   64.59
   5  -6   4  337.87   16.30
  -5  -6  -4  336.47   18.60
  -5   6  -4  296.37   19.10
   5   6   4  305.97   20.10
   6  -6   4   40.00    4.50
  -6  -6  -4   38.20    6.70
  -6  -6  -4   35.20    9.30
   6   6   4   55.99    7.50
  -6   6  -4   47.40    7.30
  -6   6  -4   52.19    6.10
  -7  -7   4  131.29   10.10
   7  -7  -4  132.49    8.60
   7  -7  -4  127.79   10.40
   7   7  -4  164.98   12.30
  -7   7   4  157.28    9.00
   6  -7  -4  187.78   12.90
  -6  -7   4  186.58   11.90
   6  -7  -4  185.78   11.70
  -6   7   4  168.78   10.80
  -6   7   4  173.48   11.50
   5  -7  -4  156.68   12.50
   5  -7  -4  170.08   11.70
  -5  -7   4  159.78   11.20
  -5   7   4  123.29   10.70
  -5   7   4  125.99   10.00
   4  -7  -4   43.40   16.60
  -4  -7   4   56.09   14.70
   4  -7  -4   60.69    9.00
  -4  -7   4   56.09    7.20
   4  -7  -4   61.89    9.80
  -4   7   4   39.50    7.50
  -3  -7   4  167.18   12.10
  -3  -7   4  167.68   15.90
  -3  -7   4  165.98   14.70
   3  -7  -4  158.58   17.00
   3  -7  -4  164.68   13.70
  -3   7   4  188.88   13.30
  -3   7   4  177.28   20.80
  -3   7   4  182.58   12.10
   3   7  -4  178.38   11.60
   2  -7  -4   10.90    7.00
  -2  -7   4    6.60    4.80
   2  -7  -4   13.00    6.90
  -2  -7   4    8.40    3.40
  -2   7   4   22.70    9.60
   2   7  -4   15.60    3.90
  -1   7   4  613.44   36.40
  -1   7   4  608.44   31.00
  -1   7   4  605.84   33.00
   1   7  -4  579.14   28.80
  -1   7   4  602.94   29.70
   0  -7   4  300.67   15.10
   0  -7   4  320.67   16.80
   0   7   4  262.57   17.10
   0   7   4  255.97   16.60
   0   7   4  258.17   19.10
   0   7  -4  266.27   15.40
   0   7   4  248.98   21.20
   1  -7   4 2165.98   92.89
   1  -7   4 2127.49   94.49
   1  -7   4 2177.38   99.39
  -1   7  -4 2008.20   92.29
   1   7   4 2083.39   92.69
   2  -7   4  777.42   35.10
   2  -7   4  797.72   37.60
   2  -7   4  747.73   40.70
   2  -7   4  762.02   40.10
  -2   7  -4  758.12   36.90
   2   7   4  749.23   37.30
  -2   7  -4  780.72   39.20
  -2   7  -4  773.52   35.80
   2   7   4  795.12   40.30
   3  -7   4 1100.09   46.00
   3  -7   4 1041.60   52.39
   3  -7   4 1072.19   48.10
   3  -7   4 1041.30   53.19
  -3   7  -4  966.60   49.50
  -3   7  -4  951.70   46.60
   3   7   4 1009.10   50.69
   4  -7   4   78.69    6.60
  -4  -7  -4   76.89   10.40
   4  -7   4   79.89    8.80
  -4   7  -4   71.59    8.80
  -4   7  -4   80.69    9.40
   4   7   4   78.89   10.30
  -5  -7  -4  124.99   10.60
  -5  -7  -4  118.99   10.90
   5  -7   4  122.49    7.90
  -6  -7  -4  321.87   18.10
   6  -7   4  332.17   15.20
  -6  -7  -4  323.77   17.50
   6   7   4  310.37   18.00
  -6  -8   4  214.78   11.90
   6  -8  -4  208.78   12.60
   6   8  -4  152.38   14.30
  -6   8   4  152.38   10.90
   5  -8  -4  294.87   17.60
   5  -8  -4  305.87   16.00
  -5  -8   4  281.17   16.00
  -5   8   4  240.58   15.80
  -5   8   4  245.08   14.90
  -4  -8   4   17.30    5.70
   4  -8  -4   19.20    5.80
   4  -8  -4   20.00    6.10
  -4   8   4   15.70    4.50
  -4   8   4   27.90    5.70
   3  -8  -4 1470.85   73.19
  -3  -8   4 1552.34   67.59
   3  -8  -4 1557.24   67.39
  -3  -8   4 1589.24   66.69
  -3  -8   4 1542.55   71.39
  -3   8   4 1408.56   65.19
  -3   8   4 1310.17   75.69
  -3   8   4 1367.16   66.49
   3   8  -4 1388.56   64.59
  -2  -8   4 1242.98   57.39
   2  -8  -4 1161.08   60.79
  -2  -8   4 1226.78   59.89
  -2  -8   4 1217.78   55.79
  -2   8   4 1200.08   56.49
  -2   8   4 1191.38   64.99
  -2   8   4 1266.07   55.29
   2   8  -4 1209.78   54.49
  -1  -8   4 1522.95   74.19
  -1  -8   4 1564.64   70.59
   1  -8  -4 1559.24   75.59
  -1   8   4 1631.64   79.69
   1   8  -4 1625.54   69.59
  -1   8   4 1587.44   71.49
  -1   8   4 1592.64   70.09
  -1   8   4 1536.95   72.89
   0  -8  -4  486.65   30.00
   0  -8   4  501.35   28.80
   0  -8   4  493.75   24.70
   0  -8   4  504.25   22.50
   0   8   4  447.86   32.10
   0   8  -4  431.66   23.10
   0   8   4  425.96   24.80
   0   8   4  434.76   23.90
   0   8   4  424.66   26.50
   1  -8   4 2751.62  118.59
   1  -8   4 2863.11  123.19
   1  -8   4 2827.32  116.19
  -1   8  -4 2779.22  116.99
   1   8   4 2529.35  116.99
   1   8   4 2667.83  120.59
   1   8   4 2700.03  118.59
   2  -8   4  237.78   13.20
   2  -8   4  234.78   20.90
   2  -8   4  238.98   15.30
   2   8   4  231.38   17.30
  -2   8  -4  241.18   14.00
   2   8   4  237.28   15.60
   3  -8   4  901.81   39.70
   3  -8   4  891.51   41.90
   3   8   4  847.72   44.40
   4  -8   4  391.46   18.70
   4  -8   4  384.36   20.40
   4   8   4  348.57   22.60
  -5  -8  -4 1090.69   50.19
   5  -8   4 1067.49   47.90
   5   8   4 1150.08   51.99
   6  -9  -4  153.78   10.60
   6  -9  -4  155.38    9.70
  -6  -9   4  155.88   10.10
  -6   9   4  161.38   10.80
   6   9  -4  157.48   12.20
  -6   9   4  166.28    9.20
   5  -9  -4  173.58   12.00
   5  -9  -4  164.08   11.40
  -5  -9   4  167.88   10.70
  -5   9   4  138.79   10.30
  -5   9   4  142.49    9.60
   5   9  -4  127.59   14.10
   4  -9  -4  845.62   39.70
  -4  -9   4  860.91   38.80
  -4   9   4  821.32   37.60
   4   9  -4  713.43   42.20
  -4   9   4  803.22   38.70
   3  -9  -4  881.21   42.00
  -3  -9   4  822.92   41.50
  -3  -9   4  867.11   40.90
  -3   9   4  835.82   41.00
  -3   9   4  856.91   39.90
   3   9  -4  856.31   39.40
  -2  -9   4  575.64   35.70
   2  -9  -4  609.74   39.30
  -2  -9   4  627.44   31.60
  -2   9   4  585.74   30.90
   2   9  -4  599.54   29.00
  -2   9   4  607.54   29.50
  -2   9   4  563.74   42.90
  -1  -9   4 1672.63   71.69
   1  -9  -4 1629.74   78.29
  -1  -9   4 1620.04   76.69
  -1   9   4 1522.75   71.89
  -1   9   4 1530.85   70.49
  -1   9   4 1573.24   82.39
   1   9  -4 1574.74   69.99
   0  -9   4  676.03   39.50
   0  -9   4  705.93   34.80
   0  -9   4  688.63   32.00
   0   9   4  713.03   36.80
   0   9  -4  726.83   33.30
   0   9   4  698.93   33.80
   0   9   4  713.43   35.30
   1  -9   4 1682.23   83.19
   1  -9   4 1847.42   75.69
   1  -9   4 1772.92   78.49
   1   9   4 1747.43   80.19
  -1   9  -4 1798.52   76.69
   1   9   4 1666.63   76.69
   1   9   4 1768.02   78.39
   2  -9   4  968.70   46.00
   2  -9   4  980.90   43.60
  -2   9  -4  972.70   44.10
   2   9   4  989.20   45.80
   2   9   4  984.80   48.30
   3  -9   4  443.86   21.90
   3  -9   4  443.66   23.90
   3   9   4  457.55   26.20
  -3   9  -4  491.35   23.00
   4  -9   4  269.07   14.10
   4  -9   4  281.57   16.00
   4   9   4  285.47   18.00
   5  -9   4  340.67   15.50
   5   9   4  311.77   18.40
   5 -10  -4  935.91   42.70
  -5 -10   4  946.31   41.90
   5  10  -4  859.11   43.50
  -5  10   4  933.81   41.60
  -5  10   4  967.70   41.00
  -4 -10   4  324.57   17.60
   4 -10  -4  322.87   18.50
  -4  10   4  309.77   17.60
  -4  10   4  314.27   16.80
   3 -10  -4  761.32   37.20
  -3 -10   4  760.02   36.30
  -3  10   4  770.92   37.30
   3  10  -4  753.62   36.20
  -2 -10   4  118.09   11.40
  -2 -10   4  118.29   10.30
   2  10  -4  138.09    9.50
  -2  10   4  139.09   10.00
  -2  10   4  128.19   10.90
  -1 -10   4   44.30    6.80
  -1 -10   4   41.70    7.90
  -1  10   4   39.20    6.70
   1  10  -4   47.60    6.10
  -1  10   4   47.40    7.50
   0 -10   4 1142.69   53.19
   0  10   4 1205.08   54.09
   0  10  -4 1199.18   51.99
   0  10   4 1109.99   52.09
   0  10   4 1127.09   54.79
   1 -10   4   18.60    5.80
   1 -10   4   18.80    3.90
   1  10   4   25.80    6.30
   1  10   4   33.70    9.30
   1  10   4   30.90    6.70
   2 -10   4   28.40    5.90
   2 -10   4   18.40    4.80
   2  10   4   25.20    7.40
   2  10   4   25.90    6.90
  -2  10  -4   36.00    5.70
   3 -10   4  587.44   28.00
   3 -10   4  572.64   25.90
   3  10   4  543.55   29.50
  -3  10  -4  554.64   26.30
   4 -10   4  466.95   23.90
   4 -10   4  492.95   22.60
   4  10   4  528.35   26.00
  -4 -11   4  452.45   22.70
   4 -11  -4  470.05   23.70
  -4  11   4  479.35   22.30
  -4  11   4  471.15   22.80
   3 -11  -4   74.89   10.40
  -3 -11   4   80.39    7.50
  -3  11   4   76.29    6.80
  -3  11   4   77.79    7.70
  -2 -11   4  464.55   23.60
  -2 -11   4  468.65   24.40
  -2  11   4  439.16   23.70
  -2  11   4  444.86   22.70
   2  11  -4  450.45   22.30
  -1 -11   4  176.48   11.80
  -1 -11   4  175.88   12.80
   1  11  -4  178.58   11.10
  -1  11   4  161.58   11.40
  -1  11   4  177.98   12.70
   0  11  -4   75.29    6.80
   0  11   4   67.79    7.80
   0  11   4   74.19    8.30
   1 -11   4  336.87   16.30
   1 -11   4  314.47   18.10
  -1  11  -4  326.77   17.00
   1  11   4  346.07   18.70
   1  11   4  322.07   20.40
   2 -11   4  332.57   15.20
   2 -11   4  334.97   17.30
  -2  11  -4  292.07   15.70
   2  11   4  280.77   18.40
   3 -11   4   98.29    8.20
   3 -11   4  102.09    6.30
   3  11   4  104.19    9.50
  -3 -12   4  348.77   17.60
  -3  12   4  331.97   17.40
  -3  12   4  347.07   16.90
  -2 -12   4  527.25   25.90
  -2  12   4  538.75   25.10
  -2  12   4  532.45   26.00
   2  12  -4  524.45   24.70
  -1 -12   4   36.30    5.60
  -1 -12   4   35.10    6.90
   1  12  -4   43.90    5.00
  -1  12   4   39.20    5.50
  -1  12   4   34.70    5.90
   0 -12   4  274.07   15.50
   0 -12   4  279.87   15.00
   0  12  -4  244.88   13.50
   0  12   4  240.18   13.90
   0  12   4  243.08   14.70
   1 -12   4  964.20   44.80
  -1  12  -4 1012.50   43.60
   1  12   4  988.80   44.60
   2 -12   4   16.30    3.20
   2 -12   4   10.20    3.40
   7   0  -5  221.48   13.00
   6   0  -5  139.49   10.90
   5   0  -5  100.39    9.50
   5   0  -5   95.89   10.80
  -5   0   5   99.49   14.00
   4   0  -5  948.61   48.90
   4   0  -5 1009.00   46.90
  -3   0   5    8.80    4.10
  -3   0   5   12.30    5.80
  -3   0   5    3.00    7.10
   3   0  -5    8.50    4.30
   2   0  -5   -0.20    4.30
  -2   0   5    2.40    2.90
  -2   0   5    3.90    3.10
  -2   0   5    4.50    5.60
   2   0  -5    4.90    3.90
  -2   0   5    1.60    6.70
  -1   0   5 1131.09   50.89
  -1   0   5 1121.59   55.39
   1   0  -5 1120.29   51.19
  -1   0   5 1056.09   53.39
  -1   0   5 1102.09   50.69
   0   0   5 1346.97   58.79
   0   0   5 1256.87   56.89
   0   0  -5 1327.17   59.39
  -1   0  -5  341.87   19.20
   1   0   5  333.67   17.50
   1   0   5  338.97   24.50
   1   0   5  357.86   18.90
  -1   0  -5  334.07   19.10
  -1   0  -5  351.66   20.10
  -2   0  -5  416.46   22.20
   2   0   5  380.66   25.00
  -2   0  -5  401.36   22.00
   2   0   5  399.66   19.80
  -2   0  -5  393.56   21.30
  -3   0  -5 2666.73  115.89
  -3   0  -5 2699.03  114.49
   3   0   5 2682.73  112.79
   3   0   5 2499.75  116.49
  -3   0  -5 2705.33  115.89
  -4   0  -5  715.83   36.10
  -4   0  -5  694.43   34.30
  -4   0  -5  739.63   36.30
   4   0   5  718.13   33.10
  -5   0  -5    9.80    4.50
  -5   0  -5   15.00    4.90
  -5   0  -5   12.90    3.90
  -6   0  -5   42.60    7.60
  -6   0  -5   52.99    7.40
  -6   0  -5   55.69    6.00
   7  -1  -5  105.09    8.20
   7   1  -5   90.49    8.00
   6  -1  -5  269.97   15.90
   6  -1  -5  249.48   17.10
   6   1  -5  261.67   15.60
   5  -1  -5  805.22   38.90
   5  -1  -5  807.62   37.60
  -5  -1   5  792.62   43.30
   5   1  -5  733.03   37.10
  -5   1   5  740.73   43.20
   4  -1  -5  715.53   38.20
  -4  -1   5  763.82   38.00
   4  -1  -5  737.83   35.80
   4   1  -5  647.44   34.60
   4   1  -5  652.43   37.00
   3  -1  -5  376.16   21.40
  -3  -1   5  385.66   22.30
  -3  -1   5  376.56   22.50
   3  -1  -5  362.16   20.50
   3   1  -5  384.36   20.50
  -3   1   5  362.26   24.70
   3   1  -5  368.56   21.00
  -3   1   5  400.06   22.80
  -3   1   5  372.86   22.80
   2  -1  -5  633.34   31.10
  -2  -1   5  636.14   35.10
  -2  -1   5  650.03   32.20
   2  -1  -5  607.94   31.60
  -2  -1   5  628.14   32.80
  -2   1   5  636.04   33.10
  -2   1   5  607.94   34.10
   2   1  -5  608.64   31.80
   2   1  -5  626.74   30.80
  -2   1   5  640.04   32.40
  -2   1   5  659.43   32.20
   1  -1  -5  812.32   41.90
  -1  -1   5  765.92   42.90
  -1  -1   5  860.61   42.20
  -1   1   5  978.70   42.60
   1   1  -5  911.81   41.40
  -1   1   5  919.21   42.30
   1   1  -5  983.50   43.00
  -1   1   5  889.41   44.60
  -1   1   5  928.11   45.50
   0  -1  -5 2077.19   86.69
   0  -1   5 2047.80   86.59
   0  -1   5 1961.40   84.29
   0   1  -5 1834.02   85.39
   0   1  -5 1926.11   85.99
   0   1   5 1901.31   88.49
   0   1  -5 1994.50   86.89
   0   1   5 2015.70   86.09
   1  -1   5 1404.56   62.09
   1  -1   5 1354.36   60.39
  -1  -1  -5 1395.76   62.69
  -1   1  -5 1415.76   63.09
  -1   1  -5 1402.16   62.59
  -1   1  -5 1384.46   61.89
   1   1   5 1402.46   64.89
   2  -1   5 1360.56   61.99
  -2  -1  -5 1402.46   64.29
  -2  -1  -5 1313.77   63.19
  -2  -1  -5 1451.55   64.69
   2   1   5 1438.16   62.19
  -2   1  -5 1481.15   63.69
  -2   1  -5 1476.45   64.79
  -2   1  -5 1501.95   65.29
   2   1   5 1443.76   66.49
   3  -1   5  102.79    8.30
  -3  -1  -5  104.49   10.00
  -3  -1  -5   97.49    9.70
  -3  -1  -5   92.69    9.50
   3   1   5  112.49   13.70
  -3   1  -5  107.29   10.20
   3   1   5  104.69    9.00
  -3   1  -5  112.69   10.30
   4  -1   5  286.37   14.70
  -4  -1  -5  286.87   17.40
  -4  -1  -5  273.97   17.10
  -4  -1  -5  283.57   16.00
   4   1   5  232.68   19.10
  -4   1  -5  262.27   15.90
  -4   1  -5  251.37   17.20
  -4   1  -5  244.98   16.90
  -5  -1  -5  516.15   25.10
  -5  -1  -5  521.15   27.00
  -5  -1  -5  530.05   27.00
   5  -1   5  525.45   23.90
  -5   1  -5  449.16   24.80
  -5   1  -5  467.95   26.80
  -5   1  -5  455.55   26.40
  -6  -1  -5  466.75   23.60
  -6  -1  -5  458.05   25.20
  -6  -1  -5  465.65   25.30
  -6   1  -5  526.65   25.80
  -6   1  -5  507.05   23.90
  -6   1  -5  488.95   25.10
   7  -2  -5  566.94   28.00
   7   2  -5  568.04   27.10
  -7   2   5  610.64   27.90
   6  -2  -5  982.60   46.80
   6  -2  -5 1009.80   46.10
   6   2  -5  985.60   45.50
  -6   2   5  989.90   44.60
  -5  -2   5  118.99   15.30
   5  -2  -5  127.39   11.80
   5  -2  -5  124.69   10.40
   5  -2  -5  115.09   19.70
  -5   2   5  129.59   16.30
   5   2  -5  136.29   10.80
   4  -2  -5   57.69    8.00
   4  -2  -5   69.59    8.80
  -4  -2   5   56.59   10.10
  -4  -2   5   62.89    8.50
  -4   2   5   76.29   11.40
   4   2  -5   65.59   11.60
   4   2  -5   70.09    8.40
  -3  -2   5 2363.86  103.29
  -3  -2   5 2394.96  106.29
   3  -2  -5 2415.46  105.79
  -3  -2   5 2390.26  106.89
   3  -2  -5 2420.46  104.39
  -3   2   5 2411.26  108.19
  -3   2   5 2397.56  108.19
   3   2  -5 2456.75  104.39
   3   2  -5 2417.26  105.29
  -2  -2   5 2836.42  123.69
  -2  -2   5 2856.61  126.69
   2  -2  -5 2842.82  124.59
  -2  -2   5 3004.70  129.59
   2  -2  -5 3012.10  126.19
  -2  -2   5 3003.50  126.99
  -2   2   5 2815.82  127.19
   2   2  -5 2950.40  124.69
   2   2  -5 2880.01  125.59
  -2   2   5 2836.82  127.89
  -1  -2   5 1301.47   57.89
  -1  -2   5 1311.97   60.59
  -1  -2   5 1315.37   61.49
   1  -2  -5 1356.46   60.49
  -1  -2   5 1334.87   66.49
  -1  -2   5 1368.36   58.79
   1   2  -5 1323.97   59.39
  -1   2   5 1355.96   62.79
   1   2  -5 1327.57   60.79
  -1   2   5 1331.77   61.09
   0  -2  -5 1239.78   56.49
   0  -2   5 1247.28   58.29
   0  -2   5 1258.87   56.99
   0  -2   5 1221.58   54.39
   0   2  -5 1286.97   56.59
   0   2  -5 1246.98   55.89
   0   2   5 1229.58   58.69
   1  -2   5   83.29   11.30
   1  -2   5   92.29    7.50
   1  -2   5   89.79    8.80
  -1   2  -5   82.39    9.00
  -1   2  -5   72.89    8.60
   1   2   5   65.29   11.40
   2  -2   5  354.56   22.90
  -2  -2  -5  376.86   20.90
   2  -2   5  365.06   18.50
  -2  -2  -5  366.26   20.70
  -2  -2  -5  371.26   20.60
  -2   2  -5  380.06   19.90
   2   2   5  351.46   22.70
  -2   2  -5  371.56   20.70
  -2   2  -5  373.46   20.90
  -3  -2  -5  404.36   21.50
   3  -2   5  371.86   19.40
  -3  -2  -5  399.06   21.60
  -3  -2  -5  405.16   21.70
  -3   2  -5  361.86   21.70
  -3   2  -5  351.96   21.40
  -3   2  -5  364.86   20.30
  -4  -2  -5  287.07   17.20
   4  -2   5  274.67   14.40
  -4  -2  -5  285.17   17.20
  -4  -2  -5  286.37   16.00
  -4   2  -5  238.18   15.30
  -4   2  -5  247.18   17.00
   4   2   5  226.98   18.10
  -4   2  -5  245.78   16.80
  -5  -2  -5  522.75   27.30
  -5  -2  -5  520.45   25.60
  -5  -2  -5  504.45   27.00
   5  -2   5  504.05   24.00
   5   2   5  517.75   28.20
  -5   2  -5  486.65   26.70
  -5   2  -5  509.45   25.60
  -5   2  -5  518.05   27.60
  -6  -2  -5  195.58   11.30
  -6  -2  -5  190.78   12.90
  -6  -2  -5  191.08   12.90
  -6   2  -5  173.58   11.20
  -6   2  -5  176.48   12.60
   7  -3  -5  144.89    9.70
  -7   3   5  148.29    9.50
   6  -3  -5   40.60    7.90
   6  -3  -5   46.00    6.50
  -6   3   5   32.30    6.00
   6   3  -5   32.90    6.90
   5  -3  -5 1730.93   87.29
   5  -3  -5 1809.12   80.89
   5  -3  -5 1851.81   82.89
  -5  -3   5 1775.62   80.09
  -5  -3   5 1775.62   85.49
  -5   3   5 1906.61   89.19
   5   3  -5 1961.60   80.79
  -4  -3   5 1159.98   57.69
   4  -3  -5 1225.28   56.29
  -4  -3   5 1176.78   53.79
   4  -3  -5 1156.68   59.49
  -4  -3   5 1173.98   56.39
   4  -3  -5 1201.38   54.49
  -4   3   5 1220.98   60.49
   4   3  -5 1230.68   54.39
   3  -3  -5  429.46   24.00
  -3  -3   5  448.46   25.40
  -3  -3   5  418.16   22.00
   3  -3  -5  413.16   23.20
  -3  -3   5  442.16   24.90
  -3   3   5  409.46   26.60
   3   3  -5  435.66   23.00
  -3   3   5  457.75   27.10
  -2  -3   5  909.01   43.30
  -2  -3   5  888.71   43.10
  -2  -3   5  913.71   40.60
   2  -3  -5  856.51   41.60
   2  -3  -5  927.81   42.60
  -2   3   5  865.61   41.20
  -2   3   5  849.22   44.50
  -2   3   5  864.21   44.30
   2   3  -5  856.01   41.10
   1  -3  -5  705.33   35.90
  -1  -3   5  725.33   36.60
  -1  -3   5  690.93   40.70
  -1  -3   5  690.23   33.50
  -1  -3   5  726.53   37.20
  -1  -3   5  730.23   34.50
  -1   3   5  768.12   38.30
   1   3  -5  776.22   36.70
  -1   3   5  783.02   37.90
  -1   3   5  757.82   36.00
   1   3  -5  776.22   35.20
   0  -3   5  545.45   27.20
   0  -3   5  491.85   24.00
   0  -3   5  474.95   27.30
   0  -3   5  527.45   25.40
   0  -3  -5  508.75   26.30
   0   3   5  517.75   28.60
   0   3  -5  504.85   25.60
   1  -3   5 2499.35  106.29
   1  -3   5 2449.85  109.89
   1  -3   5 2487.05  107.29
   1  -3   5 2495.15  109.19
  -1   3  -5 2510.35  107.69
   1   3   5 2527.55  110.79
  -1   3  -5 2517.85  109.29
  -1   3  -5 2517.05  108.99
  -2  -3  -5 1058.39   46.00
   2  -3   5 1062.99   43.60
  -2  -3  -5 1028.30   45.80
   2  -3   5 1037.20   47.50
  -2   3  -5  888.31   45.90
  -2   3  -5  892.91   45.80
  -2   3  -5  924.21   44.70
   2   3   5  901.21   47.30
  -3  -3  -5   11.80    5.00
   3  -3   5    7.60    3.30
  -3  -3  -5   10.70    4.50
  -3   3  -5   13.50    4.90
   3   3   5   12.00    6.00
  -3   3  -5   14.80    4.60
  -3   3  -5   12.10    4.20
  -4  -3  -5  291.07   18.70
   4  -3   5  303.27   16.40
  -4  -3  -5  305.77   18.30
  -4  -3  -5  306.07   19.20
  -4   3  -5  343.67   19.90
   4   3   5  340.87   21.20
  -4   3  -5  323.97   19.30
  -4   3  -5  355.76   18.50
  -5  -3  -5  604.14   31.30
  -5  -3  -5  615.14   32.50
  -5  -3  -5  661.83   33.00
   5  -3   5  625.84   29.70
  -5   3  -5  695.63   31.60
  -5   3  -5  683.33   33.50
   5   3   5  675.43   33.80
  -6  -3  -5  591.04   26.80
  -6  -3  -5  602.64   28.70
  -6  -3  -5  590.84   28.50
  -6   3  -5  549.45   26.80
   6   3   5  564.34   28.90
  -6   3  -5  516.55   28.20
   7  -4  -5  380.96   19.60
  -7   4   5  409.86   19.80
  -6  -4   5  178.58   14.70
   6  -4  -5  168.58   12.30
   6  -4  -5  172.28   13.40
  -6   4   5  224.08   12.00
  -5  -4   5  318.67   27.30
  -5  -4   5  288.37   17.90
   5  -4  -5  310.07   29.90
   5  -4  -5  299.37   17.30
   5  -4  -5  266.77   21.60
  -5   4   5  275.97   28.30
   5   4  -5  269.97   16.80
  -5   4   5  285.27   16.90
  -5   4   5  274.97   16.10
  -4  -4   5  413.16   21.20
  -4  -4   5  423.06   25.40
   4  -4  -5  411.36   23.30
   4  -4  -5  416.66   22.00
   4  -4  -5  395.26   27.40
  -4  -4   5  410.86   23.40
   4   4  -5  364.56   21.10
  -4   4   5  356.16   27.30
  -4   4   5  372.56   21.30
   3  -4  -5 1895.21   85.09
   3  -4  -5 1809.22   83.59
  -3  -4   5 1722.53   88.59
  -3  -4   5 1845.42   83.19
  -3  -4   5 1934.91   86.09
   3   4  -5 1956.00   83.69
  -3   4   5 1970.50   87.29
  -3   4   5 2017.20   90.29
  -3   4   5 1987.60   87.89
   2  -4  -5  257.57   16.20
  -2  -4   5  249.28   16.50
  -2  -4   5  244.48   16.30
   2  -4  -5  249.97   17.20
  -2  -4   5  240.98   14.00
  -2   4   5  219.28   18.20
  -2   4   5  219.98   18.00
  -2   4   5  215.88   14.70
   2   4  -5  211.18   14.60
  -1  -4   5 1875.81   85.89
   1  -4  -5 2015.20   86.29
  -1  -4   5 1923.51   86.49
  -1  -4   5 1855.61   82.19
  -1  -4   5 1886.91   83.59
  -1   4   5 1947.51   87.09
   1   4  -5 1945.11   83.99
  -1   4   5 1960.70   87.99
  -1   4   5 1870.41   84.29
   0  -4   5  809.72   36.60
   0  -4   5  761.82   36.40
   0  -4   5  794.52   34.00
   0  -4  -5  780.52   35.30
   0  -4   5  781.62   32.60
   0   4  -5  645.14   33.00
   0   4   5  614.84   34.80
   0   4  -5  663.93   33.80
   0   4   5  632.34   36.30
   0   4  -5  606.14   35.00
   1  -4   5 1038.00   51.09
   1  -4   5 1043.10   48.70
  -1  -4  -5  996.70   49.50
   1  -4   5  981.70   47.20
  -1   4  -5 1157.78   50.79
   1   4   5 1118.49   52.09
  -1   4  -5 1137.59   48.60
  -1   4  -5 1128.89   49.20
   2  -4   5   61.79    9.10
  -2  -4  -5   67.19    9.10
   2  -4   5   63.29   11.60
  -2   4  -5   73.19    8.60
  -2   4  -5   69.29   10.40
   3  -4   5 1213.78   53.99
  -3  -4  -5 1181.58   56.19
  -3  -4  -5 1206.78   56.39
   3  -4   5 1222.08   59.89
   3   4   5 1252.77   58.79
  -3   4  -5 1283.07   55.79
  -3   4  -5 1286.77   57.69
  -3   4  -5 1172.08   56.59
  -4  -4  -5  530.45   27.70
   4  -4   5  533.75   24.30
  -4  -4  -5  501.05   27.30
  -4  -4  -5  515.75   26.20
   4   4   5  495.05   28.40
  -4   4  -5  504.55   33.50
  -4   4  -5  477.75   25.50
  -5  -4  -5   20.10    6.50
   5  -4   5   22.30    5.20
  -5  -4  -5   21.00    5.40
  -5  -4  -5   21.50    5.30
   5   4   5   29.70    9.40
  -5   4  -5   20.70    5.10
  -5   4  -5   20.00    6.30
  -6  -4  -5   38.80    6.40
  -6  -4  -5   37.30    6.80
  -6  -4  -5   41.60    6.60
   6  -4   5   40.60    5.30
  -6   4  -5   47.70    6.60
  -6   4  -5   50.29    5.40
   6   4   5   50.49    8.20
   7  -5  -5  124.39    8.00
   7  -5  -5  117.59   11.10
  -7   5   5  108.59    7.90
  -6  -5   5  113.39   10.00
   6  -5  -5  109.09   10.10
   6  -5  -5  106.49    9.00
  -6   5   5  108.99    8.40
  -6   5   5  115.09    9.00
  -5  -5   5 3054.79  131.59
   5  -5  -5 3029.60  133.89
   5  -5  -5 3141.79  131.99
  -5   5   5 3102.89  132.09
  -5   5   5 3003.70  130.79
  -4  -5   5  218.08   15.80
   4  -5  -5  220.38   20.60
   4  -5  -5  237.18   14.60
   4  -5  -5  234.18   15.70
  -4  -5   5  225.88   13.60
  -4  -5   5  217.38   18.30
  -4   5   5  178.28   13.00
  -4   5   5  174.38   13.60
  -3  -5   5  567.04   31.50
   3  -5  -5  564.94   29.40
  -3  -5   5  565.34   28.00
   3  -5  -5  543.25   33.30
   3  -5  -5  506.65   29.50
  -3  -5   5  554.34   30.10
  -3   5   5  558.84   34.90
  -3   5   5  556.34   27.50
   3   5  -5  561.04   28.70
  -3   5   5  565.54   28.50
  -3   5   5  558.44   32.20
  -2  -5   5   55.99    6.70
  -2  -5   5   60.89    8.90
   2  -5  -5   56.89    9.80
  -1  -5   5 2073.89   91.49
  -1  -5   5 2014.90   89.59
   1  -5  -5 2098.89   92.69
  -1  -5   5 2176.18   94.69
  -1  -5   5 2047.10   93.49
  -1   5   5 2124.89   91.19
   1   5  -5 2133.29   91.59
  -1   5   5 2087.59   94.49
   1   5  -5 2105.89   90.69
  -1   5   5 2109.69   92.09
  -1   5   5 2108.99   96.59
   0  -5   5  516.05   24.20
   0  -5   5  527.45   28.80
   0  -5   5  529.55   25.80
   0   5   5  496.65   26.70
   0   5  -5  502.45   25.70
   0   5   5  471.15   25.60
   0   5   5  502.35   28.60
   0   5  -5  512.25   25.00
   1  -5   5  794.52   39.80
   1  -5   5  794.62   38.40
   1  -5   5  817.22   42.70
   1   5   5  894.51   43.90
  -1   5  -5  870.71   40.20
  -1   5  -5  932.71   42.40
  -1   5  -5  910.31   39.60
   2  -5   5  419.16   22.10
   2  -5   5  360.36   29.60
   2  -5   5  433.36   20.80
  -2  -5  -5  436.76   23.50
  -2   5  -5  430.06   22.30
   2   5   5  428.96   25.30
  -2   5  -5  444.06   24.40
   3  -5   5   33.70    5.00
  -3  -5  -5   24.10    8.00
   3  -5   5   30.30   11.60
   3   5   5   40.00    9.00
  -3   5  -5   40.80    7.40
  -3   5  -5   35.10    6.70
  -4  -5  -5  329.57   19.10
   4  -5   5  320.37   16.10
   4  -5   5  310.47   19.90
  -4  -5  -5  327.57   18.90
  -4   5  -5  284.17   18.90
   4   5   5  296.87   20.00
  -4   5  -5  306.57   17.30
  -5  -5  -5   38.50    7.90
   5  -5   5   34.60    4.60
  -5  -5  -5   39.90    7.10
  -5   5  -5   48.50    7.10
   5   5   5   41.00    8.00
  -5   5  -5   37.60    5.80
  -6  -5  -5   86.29    8.10
  -6  -5  -5   82.19    9.20
   6  -5   5   80.59    6.20
   6   5   5   94.39    8.70
  -6   5  -5   87.99    8.20
  -6   5  -5   86.09    6.50
   6  -6  -5   72.69    8.10
   6  -6  -5   77.29    7.10
  -6  -6   5   69.49    8.00
   5  -6  -5   26.90    7.20
  -5  -6   5   29.70    6.30
   5  -6  -5   30.60    6.70
  -5   6   5   31.00    5.90
  -5   6   5   33.90    5.90
  -4  -6   5  346.97   26.10
  -4  -6   5  344.47   21.80
   4  -6  -5  362.26   21.00
   4  -6  -5  313.37   28.40
  -4   6   5  415.46   21.40
  -4   6   5  412.16   32.30
  -4   6   5  437.76   20.50
   3  -6  -5 3130.59  129.29
  -3  -6   5 2980.10  132.39
   3  -6  -5 3029.70  135.39
  -3  -6   5 3071.49  130.49
  -3  -6   5 2943.11  128.29
   3  -6  -5 3048.29  129.99
  -3   6   5 2943.61  128.89
  -3   6   5 3009.40  127.79
  -3   6   5 2875.81  137.19
  -3   6   5 2740.03  131.09
  -2  -6   5  841.22   41.10
  -2  -6   5  798.22   42.30
  -2  -6   5  823.62   38.90
  -2   6   5  816.92   42.10
  -2   6   5  827.52   38.40
   2   6  -5  784.72   39.90
   2   6  -5  819.02   37.90
  -2   6   5  801.52   46.30
  -2   6   5  810.62   39.50
   1  -6  -5  328.67   22.20
  -1  -6   5  329.57   21.30
  -1  -6   5  328.57   18.40
  -1  -6   5  323.77   17.00
  -1  -6   5  310.37   19.90
   1   6  -5  336.97   19.10
   1   6  -5  332.77   17.70
  -1   6   5  318.07   20.40
  -1   6   5  330.97   19.70
  -1   6   5  335.17   25.50
  -1   6   5  312.87   22.80
   0  -6   5  837.22   41.00
   0  -6   5  838.52   45.30
   0  -6   5  858.21   42.20
   0   6  -5  911.51   43.80
   0   6  -5  956.80   41.50
   0   6   5  940.61   44.90
   0   6   5  976.40   45.70
   0   6   5  903.81   42.10
   1  -6   5  651.33   27.40
   1  -6   5  602.14   29.00
   1  -6   5  603.04   32.40
   1   6   5  538.55   31.30
  -1   6  -5  526.95   28.50
  -1   6  -5  547.25   27.80
   2  -6   5  136.39    8.90
   2  -6   5  124.89   16.00
   2  -6   5  130.49   10.30
  -2   6  -5  127.49   11.10
   2   6   5  127.79   13.00
  -2   6  -5  131.79   10.70
  -2   6  -5  139.39   12.00
  -3  -6  -5  384.96   23.30
   3  -6   5  406.86   20.10
  -3   6  -5  427.06   21.50
   3   6   5  414.06   24.80
  -4  -6  -5   86.99   10.00
   4  -6   5   79.49    6.50
  -4   6  -5   82.69    7.80
   4   6   5   88.09   10.40
  -4   6  -5   86.69    9.40
   5  -6   5  108.09    7.00
  -5  -6  -5  110.49    9.90
  -5  -6  -5   98.99   10.90
  -5   6  -5  104.29    9.40
   5   6   5  106.49   10.10
  -5   6  -5  102.29    8.00
  -6  -7   5  260.77   15.10
   6  -7  -5  273.27   14.70
   6  -7  -5  264.57   15.90
  -6   7   5  297.27   15.10
  -6   7   5  273.97   14.00
   5  -7  -5  330.87   18.60
   5  -7  -5  326.27   20.00
  -5  -7   5  327.87   18.50
  -5   7   5  374.56   18.30
  -5   7   5  369.06   19.20
  -4  -7   5  568.54   28.40
  -4  -7   5  532.35   29.40
   4  -7  -5  540.15   29.70
   4  -7  -5  527.65   28.10
  -4   7   5  602.74   27.80
  -4   7   5  611.14   29.10
  -3  -7   5   13.80    5.70
  -3  -7   5   11.40    3.70
   3  -7  -5   12.20    9.40
  -3  -7   5    6.70    7.30
   3  -7  -5   11.20    5.70
  -3   7   5   12.80    4.20
  -3   7   5   15.30    4.20
  -3   7   5   14.40   11.20
  -3   7   5    6.00    9.00
   2  -7  -5  491.65   28.10
  -2  -7   5  480.25   30.80
  -2  -7   5  482.45   26.60
   2  -7  -5  454.95   32.70
  -2  -7   5  497.45   28.60
  -2   7   5  559.84   30.50
  -2   7   5  558.14   38.00
  -2   7   5  576.14   26.90
  -2   7   5  571.44   28.20
   2   7  -5  586.34   26.40
  -1  -7   5  321.97   19.40
  -1  -7   5  316.57   17.40
  -1  -7   5  303.37   21.30
  -1  -7   5  318.27   15.90
  -1   7   5  259.47   16.80
  -1   7   5  268.57   17.80
   1   7  -5  270.37   16.10
  -1   7   5  265.67   19.70
   0  -7   5  853.81   40.50
   0  -7   5  858.21   44.80
   0  -7   5  856.51   38.20
   0   7  -5  885.01   39.30
   0   7   5  810.42   39.80
   0   7   5  844.72   40.80
   0   7  -5  843.42   41.50
   0   7   5  836.62   42.80
   1  -7   5  974.00   41.60
   1  -7   5  898.41   47.60
   1  -7   5  929.11   43.50
  -1   7  -5  936.91   42.30
   1   7   5  939.01   46.50
  -1   7  -5  915.61   43.20
   1   7   5  897.81   43.70
   2  -7   5  659.93   41.30
   2  -7   5  710.53   33.90
   2  -7   5  676.53   35.40
   2   7   5  816.52   39.40
  -2   7  -5  797.72   35.80
  -2   7  -5  819.62   34.90
   3  -7   5  517.15   25.70
   3  -7   5  541.35   24.20
   3   7   5  501.05   28.50
  -3   7  -5  477.85   27.30
  -3   7  -5  485.85   25.10
   4  -7   5  268.87   17.40
   4  -7   5  279.37   14.90
  -4  -7  -5  283.77   18.10
  -4   7  -5  301.77   16.10
   4   7   5  321.57   19.40
  -4   7  -5  314.77   18.20
   5  -7   5  452.65   20.60
  -5  -7  -5  447.96   22.90
   5   7   5  431.26   23.50
  -6  -8   5  440.16   22.70
   6  -8  -5  439.86   23.30
   6  -8  -5  461.35   22.20
  -6   8   5  494.35   22.20
  -6   8   5  510.35   22.60
   6   8  -5  508.35   25.60
  -5  -8   5  168.58   11.00
   5  -8  -5  162.98   10.90
   5  -8  -5  169.98   12.30
  -5   8   5  166.38   10.30
  -5   8   5  162.58   11.10
   4  -8  -5  238.08   16.60
  -4  -8   5  237.58   14.90
  -4   8   5  274.97   15.00
  -4   8   5  264.07   15.70
  -3  -8   5   32.50    5.90
   3  -8  -5   30.10    8.50
  -3  -8   5   33.80    8.00
   2  -8  -5   14.40    7.20
  -2  -8   5    9.70    5.20
  -2  -8   5    6.00    3.80
  -2  -8   5    2.30   10.70
   2   8  -5    6.90    3.50
  -2   8   5   14.30    4.50
  -2   8   5    6.30    7.60
  -2   8   5   11.40    4.50
  -1  -8   5  356.96   20.50
  -1  -8   5  343.17   25.30
  -1  -8   5  357.06   22.00
   1  -8  -5  376.16   29.80
  -1   8   5  367.86   23.20
  -1   8   5  392.66   21.60
   1   8  -5  385.56   19.70
  -1   8   5  382.86   20.40
   0  -8   5  146.19   18.30
   0   8   5  197.08   13.30
   0   8  -5  198.38   12.00
   0   8   5  189.88   15.40
   0   8   5  197.18   13.60
   1  -8   5  167.98   12.50
   1  -8   5  194.88   27.10
   1  -8   5  180.68   10.30
   1   8   5  149.29   13.90
   1   8   5  161.38   12.60
  -1   8  -5  151.08   10.80
   2  -8   5  274.57   14.60
   2  -8   5  273.17   16.30
   2   8   5  289.77   19.10
  -2   8  -5  275.57   15.30
   2   8   5  282.67   16.90
   3  -8   5  322.47   16.30
   3  -8   5  327.17   18.10
   3   8   5  322.97   20.30
   4  -8   5  431.36   23.10
   4  -8   5  431.86   20.80
   4   8   5  472.85   24.70
  -5  -8  -5  169.68   15.60
   5  -8   5  169.58    8.90
   5   8   5  173.68   11.50
  -5   9   5   58.09    5.40
   5   9  -5   52.39   14.50
  -5   9   5   58.49    6.10
  -4  -9   5  236.38   13.60
   4  -9  -5  259.47   15.50
  -4   9   5  204.88   13.70
  -4   9   5  215.18   13.00
  -3  -9   5  226.18   15.40
   3  -9  -5  225.88   16.00
  -3  -9   5  225.48   14.10
  -3   9   5  227.38   16.10
  -3   9   5  230.48   14.80
   2  -9  -5  142.49   15.00
  -2  -9   5  129.89   10.90
  -2  -9   5  129.69   11.80
   2   9  -5  173.08   10.80
  -2   9   5  177.48   12.40
  -2   9   5  182.68   11.40
  -1   9   5  186.98   12.20
   1   9  -5  179.78   11.40
  -1   9   5  171.18   12.70
  -1   9   5  159.08   15.30
   0  -9   5  395.96   21.00
   0  -9   5  373.66   18.40
   0  -9   5  382.26   22.30
   0   9   5  371.16   22.80
   0   9  -5  368.06   19.30
   0   9   5  360.06   19.90
   0   9   5  368.86   20.90
   1  -9   5  301.87   16.50
   1  -9   5  298.17   18.40
   1   9   5  358.36   21.20
   1   9   5  344.97   19.00
  -1   9  -5  359.66   17.60
   2  -9   5  494.75   26.30
   2  -9   5  581.84   26.90
   2   9   5  523.65   26.30
  -2   9  -5  522.15   25.20
   3  -9   5   22.90    7.00
   3  -9   5   25.50    3.90
   3   9   5   28.00    7.10
   4  -9   5   71.39    7.20
   4  -9   5   78.69    5.30
   4   9   5   59.49    7.40
   4 -10  -5   49.80    7.60
  -4  10   5   43.80    5.50
  -4  10   5   45.20    5.00
  -3 -10   5  490.45   23.90
  -3 -10   5  493.85   25.80
   3 -10  -5  459.45   25.90
  -3  10   5  461.65   23.00
  -3  10   5  447.46   23.80
  -2 -10   5  883.91   41.30
  -2 -10   5  896.81   40.50
  -2  10   5  822.92   40.60
  -2  10   5  843.92   39.50
  -1 -10   5   29.70    5.80
  -1 -10   5   31.40    6.90
  -1  10   5   35.70    6.30
   1  10  -5   38.70    5.70
  -1  10   5   41.80    6.90
   0 -10   5  444.66   23.00
   0 -10   5  452.95   24.60
   0  10   5  445.36   23.50
   0  10   5  429.86   25.00
   0  10  -5  451.35   22.00
   0  10   5  433.56   22.30
   1 -10   5   91.79    6.50
   1 -10   5   91.59    8.20
   1  10   5   70.99   10.10
  -1  10  -5   74.09    6.80
   1  10   5   73.09    8.30
   2 -10   5   26.50    4.00
   2 -10   5   26.10    5.90
  -2  10  -5   34.30    5.50
   3 -10   5  268.77   12.90
   3 -10   5  258.37   15.20
   3 -10   5  266.17   15.30
   3  10   5  249.48   15.80
   3 -11  -5    8.50    6.20
  -3 -11   5   14.00    3.60
  -3  11   5   13.80    3.00
  -3  11   5    9.40    3.00
  -2 -11   5  405.96   20.40
  -2 -11   5  380.36   19.60
  -2  11   5  381.56   19.20
  -2  11   5  375.66   20.00
  -1 -11   5  390.36   20.30
  -1 -11   5  384.46   21.00
  -1  11   5  388.26   19.60
  -1  11   5  403.26   20.80
   1  11  -5  403.06   19.40
   0 -11   5   38.10    5.60
   0 -11   5   40.70    6.20
   0  11   5   38.40    6.20
   0  11  -5   30.90    4.60
   0  11   5   28.50    6.60
   1 -11   5  537.25   25.00
   1 -11   5  531.65   26.00
   1 -11   5  542.05   23.00
   1  11   5  467.65   26.00
  -1  11  -5  479.95   23.50
   1  11   5  486.25   24.40
   2 -11   5  104.49    8.40
   2 -11   5  107.79    8.60
   2 -11   5  107.19    6.50
   2  11   5  122.79    9.90
  -1 -12   5  336.47   16.80
  -1 -12   5  330.97   16.40
  -1  12   5  277.47   16.40
  -1  12   5  334.57   16.50
   0 -12   5  148.79    9.60
   0 -12   5  155.68    9.90
   0  12   5  140.39    9.20
   7   0  -6  660.13   30.30
   6   0  -6 3201.28  137.19
   5   0  -6  251.07   17.30
   5   0  -6  273.37   16.10
  -4   0   6  936.41   50.09
   4   0  -6  968.00   44.90
   4   0  -6  958.20   46.00
   3   0  -6 1515.55   67.59
  -3   0   6 1491.55   70.89
   3   0  -6 1518.15   68.99
  -3   0   6 1557.94   72.79
  -3   0   6 1467.75   71.39
   2   0  -6  554.54   30.10
  -2   0   6  565.84   30.80
  -2   0   6  548.85   31.20
  -2   0   6  565.14   30.70
  -2   0   6  597.24   32.90
   2   0  -6  573.04   28.60
  -1   0   6 4563.24  200.18
  -1   0   6 4671.53  200.18
   1   0  -6 4676.03  197.88
  -1   0   6 4777.42  201.78
   0   0   6 1280.77   60.59
   0   0  -6 1313.17   58.89
   0   0   6 1247.08   58.29
   0   0   6 1243.18   59.19
   0   0  -6 1240.28   56.89
   1   0   6  130.79   14.30
  -1   0  -6  150.48   11.80
   1   0   6  132.79   14.70
  -1   0  -6  136.59   12.00
  -1   0  -6  140.39   10.80
  -2   0  -6 3639.74  159.48
   2   0   6 3748.12  156.38
   2   0   6 3754.62  160.78
  -2   0  -6 3714.43  158.78
  -2   0  -6 3657.33  157.78
   3   0   6 1373.66   65.19
  -3   0  -6 1400.26   64.59
  -3   0  -6 1420.26   62.69
  -3   0  -6 1402.26   63.79
  -4   0  -6   16.60    5.40
  -4   0  -6   18.70    5.20
  -4   0  -6   15.30    4.20
  -5   0  -6  553.54   26.60
  -5   0  -6  545.25   28.00
  -5   0  -6  548.25   27.90
  -6   0  -6 1027.10   44.10
  -6   0  -6 1013.30   45.30
  -6   0  -6  959.00   45.00
   7  -1  -6  153.78    9.70
   7   1  -6  161.38    9.70
  -7   1   6  163.98    9.70
   6  -1  -6  194.08   12.50
   6   1  -6  196.48   12.50
  -6   1   6  194.28   11.50
   5  -1  -6 2299.87  106.59
   5  -1  -6 2316.87  105.49
   5   1  -6 2679.43  106.19
   4  -1  -6  995.40   53.99
   4  -1  -6 1052.99   49.70
   4  -1  -6 1052.99   48.10
  -4  -1   6 1009.10   53.19
  -4  -1   6 1044.70   52.49
  -4   1   6 1005.00   53.49
   4   1  -6 1022.30   48.90
   4   1  -6 1089.89   48.40
  -3  -1   6  403.96   24.60
  -3  -1   6  418.86   25.80
   3  -1  -6  412.36   23.90
   3  -1  -6  406.06   22.60
  -3  -1   6  407.96   26.30
   3   1  -6  428.46   23.90
   3   1  -6  449.16   22.90
  -3   1   6  432.06   26.80
  -3   1   6  462.95   27.90
   2  -1  -6 2354.56  101.59
  -2  -1   6 2205.48  101.89
  -2  -1   6 2352.16  104.19
  -2  -1   6 2235.08  101.89
  -2  -1   6 2195.48  101.39
   2  -1  -6 2202.58   99.09
  -2   1   6 2219.28  102.29
   2   1  -6 2405.76   99.79
  -2   1   6 2284.27  103.49
  -2   1   6 2367.36  102.39
  -1  -1   6  807.62   40.80
  -1  -1   6  847.02   43.50
   1  -1  -6  847.82   39.30
  -1  -1   6  847.12   41.70
   1  -1  -6  862.91   41.10
   1   1  -6  797.62   40.60
  -1   1   6  843.52   41.80
  -1   1   6  814.72   41.00
   1   1  -6  804.62   39.00
  -1   1   6  842.52   43.00
   0  -1  -6  709.13   35.70
   0  -1   6  658.53   35.50
   0  -1   6  673.93   36.40
   0  -1  -6  678.03   34.20
   0  -1   6  691.83   38.20
   0   1  -6  750.82   36.30
   0   1  -6  776.02   34.80
   0   1  -6  725.53   35.20
   0   1   6  752.12   38.20
   0   1   6  754.62   37.30
   1  -1   6 2495.55  112.49
  -1  -1  -6 2518.45  111.39
   1  -1   6 2514.65  112.19
   1  -1   6 2528.75  113.19
  -1  -1  -6 2350.16  109.29
  -1   1  -6 2644.14  111.99
   1   1   6 2632.74  113.19
  -1   1  -6 2583.54  110.69
  -1   1  -6 2625.44  111.69
  -2  -1  -6 1044.50   50.59
   2  -1   6 1075.29   56.99
  -2  -1  -6 1146.99   52.19
  -2  -1  -6 1076.49   50.09
   2  -1   6 1148.79   49.00
  -2   1  -6 1076.99   51.79
  -2   1  -6 1088.19   51.29
   2   1   6 1123.49   53.39
  -2   1  -6 1119.79   50.39
  -3  -1  -6  648.74   32.90
  -3  -1  -6  679.43   33.80
   3  -1   6  639.64   30.20
  -3  -1  -6  629.44   31.50
  -3   1  -6  640.44   33.30
   3   1   6  659.43   34.60
  -3   1  -6  643.14   32.90
  -3   1  -6  659.73   31.70
  -4  -1  -6 1716.03   77.59
   4  -1   6 1718.43   76.19
  -4  -1  -6 1707.13   79.09
  -4  -1  -6 1776.72   79.99
  -4   1  -6 1789.62   79.59
   4   1   6 1854.91   80.39
  -4   1  -6 1802.82   79.49
  -4   1  -6 1820.02   77.99
  -5  -1  -6  777.82   35.30
  -5  -1  -6  777.52   37.00
  -5  -1  -6  743.33   36.60
  -5   1  -6  733.53   36.40
  -5   1  -6  767.92   36.90
  -5   1  -6  768.42   35.40
  -6  -1  -6  383.46   18.30
  -6  -1  -6  370.46   19.60
  -6  -1  -6  378.96   19.70
  -6   1  -6  380.06   19.70
  -6   1  -6  385.66   18.40
   7   2  -6  123.39    9.50
  -7   2   6  134.69    8.20
   6  -2  -6  209.28   15.40
   6  -2  -6  221.88   14.10
  -6   2   6  270.17   13.60
   6   2  -6  263.07   14.20
   5  -2  -6   13.20    4.10
   5   2  -6   10.00    4.00
   4  -2  -6  886.11   41.80
   4  -2  -6  831.62   48.20
  -4  -2   6  886.31   47.60
   4  -2  -6  891.71   43.60
  -4  -2   6  890.01   46.30
   4   2  -6  953.00   42.20
  -4   2   6  861.01   48.20
  -3  -2   6  737.33   40.20
   3  -2  -6  737.53   38.10
  -3  -2   6  758.42   41.50
   3  -2  -6  775.22   39.90
   3   2  -6  886.41   38.90
  -3   2   6  830.52   43.80
   3   2  -6  841.52   39.70
  -3   2   6  891.91   43.90
   2  -2  -6   11.90    5.10
  -2  -2   6    7.80    6.80
   2  -2  -6   10.80    4.60
  -2  -2   6    9.50   13.10
  -2   2   6    8.50    8.20
   2   2  -6   16.50    7.80
   2   2  -6   20.20    7.10
  -2   2   6   18.40    6.90
  -2   2   6   12.20    5.00
  -1  -2   6   46.10   12.70
  -1  -2   6   38.40    8.60
   1  -2  -6   40.10    8.40
   1  -2  -6   45.80    7.80
  -1  -2   6   35.00    8.20
   0  -2   6 2341.17  104.49
   0  -2   6 2291.17  100.59
   0  -2   6 2306.67  106.19
   0  -2  -6 2224.58  102.09
   0  -2  -6 2327.57  103.79
   0  -2   6 2362.36  104.79
   0   2   6 2449.35  105.99
   0   2  -6 2390.16  104.39
   0   2  -6 2552.44  102.79
   1  -2   6 1723.33   73.49
  -1  -2  -6 1669.23   76.19
   1  -2   6 1722.23   87.49
   1  -2   6 1668.53   77.39
  -1  -2  -6 1594.24   74.49
  -1   2  -6 1703.63   76.89
   1   2   6 1765.22   80.79
  -1   2  -6 1706.33   75.99
  -1   2  -6 1736.73   75.09
   2  -2   6  775.72   41.90
   2  -2   6  791.32   38.30
  -2  -2  -6  790.72   39.70
  -2  -2  -6  845.82   41.60
  -2   2  -6  906.71   42.10
  -2   2  -6  906.61   41.60
   2   2   6  896.71   43.10
  -2   2  -6  899.71   40.30
   3  -2   6 1486.25   64.69
  -3  -2  -6 1549.45   68.49
  -3  -2  -6 1497.65   65.99
  -3  -2  -6 1445.66   66.99
  -3   2  -6 1473.65   66.29
  -3   2  -6 1472.05   67.99
   3   2   6 1502.75   69.09
  -3   2  -6 1460.25   67.79
   4  -2   6  229.58   12.80
  -4  -2  -6  233.48   16.00
  -4  -2  -6  232.78   15.70
  -4  -2  -6  226.58   14.10
  -4   2  -6  244.78   15.80
  -4   2  -6  247.48   14.50
   4   2   6  240.28   16.70
  -4   2  -6  230.08   15.80
  -5  -2  -6    4.80    3.80
  -5  -2  -6    6.60    4.40
  -5  -2  -6    6.60    3.30
  -5   2  -6    6.80    5.90
  -5   2  -6    8.90    3.10
  -5   2  -6    6.20    3.70
  -6  -2  -6  386.26   19.00
  -6  -2  -6  372.46   20.30
  -6  -2  -6  367.76   20.30
  -6   2  -6  445.26   19.30
  -6   2  -6  436.76   20.80
   7  -3  -6  101.89    7.20
  -7   3   6  113.79    7.50
   6  -3  -6  472.05   22.90
   6  -3  -6  464.45   24.00
  -6   3   6  442.06   22.50
   6   3  -6  435.76   22.10
  -6   3   6  440.46   21.70
   5  -3  -6  721.43   34.50
   5  -3  -6  783.22   36.80
   5   3  -6  664.43   33.70
  -5   3   6  706.03   33.50
  -5   3   6  703.43   34.30
   4  -3  -6   43.80    7.30
   4  -3  -6   47.80   16.90
  -4  -3   6   39.40   12.90
   4  -3  -6   40.80    7.90
  -4   3   6   52.89   16.50
  -4   3   6   53.79    7.10
   4   3  -6   62.09    7.70
  -3  -3   6  248.98   16.60
  -3  -3   6  250.07   18.60
   3  -3  -6  250.57   15.50
   3  -3  -6  274.27   16.90
  -3   3   6  223.38   14.50
   3   3  -6  214.78   14.70
  -3   3   6  205.48   20.90
  -3   3   6  207.98   18.30
   2  -3  -6 1613.14   80.49
   2  -3  -6 1637.54   76.29
  -2  -3   6 1604.04   76.49
  -2  -3   6 1598.54   77.39
   2   3  -6 1708.43   75.29
  -2   3   6 1769.52   78.59
  -2   3   6 1727.33   79.79
   2   3  -6 1747.43   74.39
  -1  -3   6  947.91   48.60
  -1  -3   6  828.62   49.10
   1  -3  -6  906.31   44.60
  -1  -3   6  909.21   46.50
   1  -3  -6  913.71   43.40
  -1   3   6  962.30   43.70
   1   3  -6 1012.20   45.20
   0  -3  -6  762.72   36.70
   0  -3  -6  693.43   35.30
   0  -3   6  769.42   41.40
   0  -3   6  713.63   37.20
   0  -3   6  717.23   35.70
   0   3  -6  747.03   35.80
   0   3  -6  710.53   36.50
   1  -3   6  800.72   34.30
   1  -3   6  822.92   38.60
  -1  -3  -6  802.52   37.10
  -1  -3  -6  792.32   39.90
   1   3   6  677.53   38.20
  -1   3  -6  676.53   36.90
  -1   3  -6  703.43   35.50
  -1   3  -6  690.23   36.50
   2  -3   6  674.93   33.50
   2  -3   6  674.83   36.90
  -2  -3  -6  707.33   36.60
  -2  -3  -6  678.73   34.90
   2   3   6  790.02   38.60
  -2   3  -6  792.32   35.50
  -2   3  -6  798.62   37.10
  -2   3  -6  764.82   37.10
   3  -3   6  352.96   17.10
  -3  -3  -6  326.17   18.70
  -3   3  -6  324.07   18.50
   3   3   6  319.57   20.90
  -4  -3  -6  199.88   14.90
  -4  -3  -6  200.68   16.20
   4  -3   6  206.68   11.80
  -4  -3  -6  212.68   14.90
  -4   3  -6  220.38   14.80
   4   3   6  225.18   15.80
  -4   3  -6  216.38   15.80
  -4   3  -6  241.88   13.70
  -5  -3  -6  261.67   14.10
   5  -3   6  267.67   13.00
  -5  -3  -6  270.07   15.90
  -5  -3  -6  267.37   15.80
  -5   3  -6  234.58   15.30
  -5   3  -6  234.98   13.90
   5   3   6  232.98   16.10
   6  -4  -6  133.49   10.60
   6  -4  -6  132.79    9.30
  -6   4   6  118.89    8.90
  -6   4   6  121.29    8.40
   5  -4  -6  597.14   29.80
   5  -4  -6  611.14   31.60
  -5   4   6  597.54   29.70
  -5   4   6  623.04   29.10
  -4  -4   6 1375.76   65.79
   4  -4  -6 1312.97   65.59
   4  -4  -6 1382.26   63.89
  -4   4   6 1469.95   63.99
  -4   4   6 1535.45   63.49
   4   4  -6 1464.45   63.69
  -3  -4   6 2264.07   99.59
  -3  -4   6 2212.38  101.49
  -3  -4   6 2163.48   96.19
   3  -4  -6 2274.07   97.29
   3  -4  -6 2281.87   99.19
  -3   4   6 2183.58  101.09
  -3   4   6 2275.67   97.49
   3   4  -6 2219.38   97.09
  -3   4   6 2170.08  104.79
  -2  -4   6  720.23   37.50
   2  -4  -6  707.03   35.60
  -2  -4   6  683.33   32.80
   2  -4  -6  669.13   33.60
  -2  -4   6  690.03   35.70
   2   4  -6  681.63   33.40
  -2   4   6  683.03   37.20
  -2   4   6  664.43   33.50
   1  -4  -6  683.03   33.20
  -1  -4   6  661.43   29.60
  -1  -4   6  663.03   33.80
  -1  -4   6  635.04   34.20
  -1  -4   6  640.74   30.80
  -1   4   6  588.14   34.20
   1   4  -6  583.44   31.10
   0  -4   6 1070.69   50.09
   0  -4   6 1067.79   54.19
   0  -4  -6 1072.49   52.99
   0  -4   6 1067.29   54.69
   0   4  -6 1273.37   52.49
   0   4   6 1181.18   52.99
   0   4   6 1254.57   55.99
  -1  -4  -6  373.16   20.90
   1  -4   6  358.86   24.80
   1  -4   6  383.66   18.30
   1  -4   6  390.26   22.30
  -1   4  -6  329.57   21.50
  -1   4  -6  337.97   19.60
  -1   4  -6  354.06   20.90
   1   4   6  341.77   22.30
   2  -4   6 2239.38   94.79
  -2  -4  -6 2318.57   98.09
   2  -4   6 2249.18   98.69
  -2   4  -6 2162.28   96.19
   2   4   6 2230.58   99.49
  -2   4  -6 2045.20   97.19
  -2   4  -6 2236.98   98.29
  -3  -4  -6  334.37   18.90
   3  -4   6  311.97   19.30
   3  -4   6  332.27   15.80
  -3   4  -6  258.77   16.30
   3   4   6  275.47   19.20
  -3   4  -6  263.27   18.20
  -4  -4  -6  174.18   13.20
  -4  -4  -6  176.38   15.60
   4  -4   6  178.38   12.80
  -4  -4  -6  181.48   13.10
   4   4   6  191.78   19.80
  -4   4  -6  196.68   12.00
  -4   4  -6  207.88   13.80
   5  -4   6   33.20    4.20
  -5  -4  -6   27.60    6.50
  -5  -4  -6   29.60    6.90
  -5  -4  -6   26.10    6.60
  -5   4  -6   39.40    6.30
   5   4   6   38.10    7.60
  -5   4  -6   36.30    5.00
   6  -5  -6  437.06   22.10
   6  -5  -6  423.36   23.20
  -6   5   6  485.15   22.50
  -6   5   6  465.15   21.50
   5  -5  -6  915.51   45.10
   5  -5  -6  919.71   43.40
  -5   5   6  967.20   43.00
  -5   5   6  980.70   45.70
   4  -5  -6  246.78   17.00
  -4  -5   6  258.57   15.50
  -4  -5   6  261.07   17.00
   4  -5  -6  246.58   15.50
  -4   5   6  259.77   15.60
  -4   5   6  262.27   15.00
   4   5  -6  257.77   15.70
  -3  -5   6  505.25   31.40
   3  -5  -6  476.75   33.90
  -3  -5   6  519.45   28.40
   3  -5  -6  510.95   26.60
  -3  -5   6  478.05   25.40
   3  -5  -6  511.55   27.80
  -3   5   6  554.54   26.10
  -3   5   6  530.45   38.20
   3   5  -6  530.35   26.30
  -3   5   6  517.65   30.10
  -3   5   6  523.85   26.60
  -2  -5   6 1288.17   58.29
  -2  -5   6 1246.98   62.69
  -2  -5   6 1312.27   61.19
   2  -5  -6 1324.17   59.29
   2  -5  -6 1345.57   61.09
  -2   5   6 1311.17   59.39
  -2   5   6 1273.77   62.39
   2   5  -6 1272.27   58.49
  -2   5   6 1327.27   58.39
   1  -5  -6 1327.47   61.99
  -1  -5   6 1309.27   59.79
  -1  -5   6 1350.66   58.49
  -1  -5   6 1328.97   64.09
  -1  -5   6 1375.96   62.99
  -1   5   6 1340.77   59.99
   1   5  -6 1359.26   60.49
  -1   5   6 1324.17   60.79
  -1   5   6 1350.96   64.09
   0  -5   6 1179.18   52.89
   0  -5   6 1205.18   55.99
   0  -5   6 1166.18   57.29
   0  -5   6 1194.78   51.59
   0  -5  -6 1171.78   54.59
   0   5   6 1141.69   52.69
   0   5  -6 1190.28   53.29
   0   5   6 1086.09   58.69
   0   5   6 1183.88   56.79
   1  -5   6  214.98   15.90
  -1  -5  -6  220.78   15.60
   1  -5   6  213.48   12.70
   1  -5   6  208.98   20.40
   1   5   6  245.78   17.50
  -1   5  -6  260.27   14.90
   2  -5   6  182.18   14.60
   2  -5   6  183.48   11.80
   2   5   6  234.88   16.70
  -2   5  -6  228.88   13.70
  -2   5  -6  217.38   21.40
   3  -5   6  262.97   17.60
   3  -5   6  263.87   14.40
  -3  -5  -6  276.27   17.50
   3   5   6  284.47   18.60
  -3   5  -6  278.67   17.60
  -3   5  -6  274.87   15.70
  -4  -5  -6  718.03   35.90
   4  -5   6  706.93   33.10
  -4   5  -6  745.33   34.30
   4   5   6  780.42   37.30
  -4   5  -6  745.73   36.40
   5  -5   6  363.66   17.40
  -5  -5  -6  366.26   20.40
  -5   5  -6  384.36   18.20
   5   5   6  377.16   20.20
  -5   5  -6  381.76   20.70
   6  -6  -6  262.47   16.00
   6  -6  -6  272.17   15.00
  -6   6   6  324.37   15.60
  -6   6   6  318.17   14.70
   5  -6  -6   73.59    7.80
   5  -6  -6   84.29    9.20
  -5   6   6   98.79    8.20
  -5   6   6   95.99    7.30
  -4  -6   6  855.11   38.90
   4  -6  -6  872.21   41.20
  -4   6   6  817.82   38.70
  -4   6   6  802.12   39.50
   3  -6  -6  549.54   29.00
   3  -6  -6  560.84   30.50
  -3  -6   6  594.04   30.90
  -3  -6   6  559.74   28.50
   3   6  -6  567.64   28.60
  -3   6   6  596.54   29.40
  -3   6   6  576.44   32.50
  -3   6   6  619.24   28.60
  -2  -6   6  968.80   44.40
  -2  -6   6  996.80   47.10
   2  -6  -6  993.20   47.00
  -2  -6   6  928.71   49.30
  -2   6   6  935.91   47.90
   2   6  -6  945.81   44.30
  -2   6   6  957.80   44.20
  -2   6   6  928.21   44.90
  -1  -6   6  120.29    8.70
  -1  -6   6  112.79   14.80
   1  -6  -6  128.69   12.60
  -1  -6   6  126.39   11.50
  -1  -6   6  115.79    9.80
   0  -6  -6  454.15   24.60
   0  -6   6  458.95   20.80
   0  -6   6  455.35   22.50
   0  -6   6  455.05   24.90
   0  -6   6  453.75   28.10
   0   6  -6  390.46   22.20
   0   6   6  372.26   22.80
   0   6   6  368.16   22.10
   0   6   6  386.56   25.00
   1  -6   6 2313.07  110.79
   1  -6   6 2462.15  103.89
   1  -6   6 2421.46  107.99
  -1   6  -6 2504.35  105.39
   1   6   6 2474.85  108.99
   2  -6   6  239.38   16.80
   2  -6   6  261.37   13.90
  -2  -6  -6  265.17   18.00
  -2   6  -6  260.37   15.30
   2   6   6  270.37   18.30
   3  -6   6  726.23   34.30
   3  -6   6  670.33   37.20
  -3  -6  -6  752.82   37.20
   3   6   6  836.12   39.10
  -3   6  -6  815.62   38.00
   4  -6   6   27.40    3.90
  -4  -6  -6   33.00    7.60
  -4   6  -6   22.90    5.90
   4   6   6   20.90    6.60
  -4   6  -6   23.20    5.20
  -5  -6  -6    6.60    4.10
   5  -6   6    5.60    2.10
   5   6   6   11.30    3.90
   5  -7  -6  196.38   12.90
  -5  -7   6  201.58   14.30
   5  -7  -6  197.48   12.00
  -5   7   6  192.98   11.20
  -5   7   6  182.08   11.70
  -4  -7   6  202.98   13.00
  -4  -7   6  216.68   14.60
   4  -7  -6  217.38   14.00
   4  -7  -6  215.18   14.90
  -4   7   6  224.98   12.90
  -4   7   6  214.78   13.60
   3  -7  -6  136.59   12.00
  -3  -7   6  130.59   11.40
  -3  -7   6  131.89   10.20
  -3   7   6  142.69   10.80
  -3   7   6  144.59   10.20
  -3   7   6  123.69   15.90
  -2   7   6   39.20    7.00
  -2   7   6   30.20    7.50
  -2   7   6   35.80    6.40
   1  -7  -6  860.11   43.30
  -1  -7   6  824.12   40.50
  -1  -7   6  841.52   42.90
  -1   7   6  896.01   44.10
  -1   7   6  890.31   40.40
  -1   7   6  899.31   41.50
   0  -7  -6  388.36   23.10
   0  -7   6  375.36   19.60
   0  -7   6  370.86   17.80
   0  -7   6  367.76   21.60
   0   7   6  327.47   19.30
   0   7   6  340.57   19.90
   0   7  -6  328.97   19.50
   0   7   6  336.47   22.10
   1  -7   6  500.15   26.70
   1  -7   6  484.75   28.60
   1  -7   6  502.65   25.20
  -1   7  -6  599.34   27.30
   1   7   6  615.84   30.80
   2  -7   6  225.88   15.10
   2  -7   6  220.98   12.00
  -2  -7  -6  225.38   16.60
   2   7   6  179.88   15.30
  -3  -7  -6  252.57   16.80
   3  -7   6  251.97   13.00
   3  -7   6  249.88   15.60
   3   7   6  250.57   16.70
  -3   7  -6  237.78   14.00
  -4  -7  -6  420.36   21.80
   4  -7   6  431.86   19.20
   4   7   6  380.06   22.10
   5  -8  -6   17.70    4.40
   5  -8  -6   12.80    4.10
  -5   8   6   13.90    2.90
  -5   8   6   18.70    4.10
   5   8  -6   12.80    9.00
   4  -8  -6  139.49   11.20
  -4  -8   6  131.09    9.70
  -4   8   6  140.09    9.20
  -4   8   6  141.59    9.90
  -3  -8   6  202.38   12.50
  -3  -8   6  191.58   13.60
   3  -8  -6  185.58   13.90
  -3   8   6  201.18   12.20
  -3   8   6  194.78   12.80
   2  -8  -6    8.40    5.60
  -2  -8   6    6.00    3.80
  -2  -8   6    9.80    4.70
  -2   8   6    9.90    4.00
  -2   8   6    7.70    3.30
  -2   8   6   10.20    6.70
  -1  -8   6  184.18   12.80
   1  -8  -6  200.48   16.80
  -1  -8   6  188.98   14.20
  -1   8   6  213.18   13.70
  -1   8   6  215.28   15.80
  -1   8   6  211.68   12.90
   0  -8   6  128.99   11.20
   0  -8   6  129.19    8.60
   0  -8   6  132.99   10.00
   0   8   6  108.59   11.80
   0   8   6  113.29   10.40
   1  -8   6   94.39    9.00
   1  -8   6   95.89    9.40
   1   8   6   84.59   10.50
   1   8   6   93.09   10.00
   2  -8   6  351.86   20.10
   2  -8   6  367.96   17.20
   2   8   6  320.67   20.70
   3  -8   6  482.75   22.80
   3  -8   6  490.75   25.20
   3   8   6  518.85   26.50
   4  -8   6   50.19    4.00
   4   8   6   42.20    6.40
  -4  -9   6  155.98   10.30
   4  -9  -6  151.38   11.10
  -4   9   6  152.68   10.00
  -4   9   6  162.78    9.30
   3  -9  -6   88.99   10.50
  -3  -9   6   87.99    8.50
  -3  -9   6   91.29    7.70
  -3   9   6   77.69    7.60
  -3   9   6   83.29    7.00
  -2  -9   6  647.44   31.40
   2  -9  -6  636.34   31.70
  -2  -9   6  620.74   29.80
  -2   9   6  604.74   29.30
  -2   9   6  596.44   30.10
  -1  -9   6  158.08   11.70
  -1  -9   6  157.18   10.30
  -1   9   6  125.09   12.70
  -1   9   6  137.19   10.50
  -1   9   6  133.59    9.80
   0  -9   6   42.30    6.50
   0  -9   6   44.00    5.20
   0  -9   6   38.40    6.90
   0   9   6   36.70    8.40
   0   9   6   40.90    7.00
   0   9   6   34.50    7.60
   1  -9   6  561.04   25.30
   1  -9   6  569.24   26.90
   1  -9   6  563.14   28.70
   1   9   6  530.85   26.70
   1   9   6  550.74   29.10
   2  -9   6   85.79    5.90
   2  -9   6   85.39    8.10
   2   9   6   78.69    9.20
   3  -9   6   56.49    6.50
   3  -9   6   54.69    4.40
   3   9   6   63.89    7.20
   3 -10  -6  147.19   11.80
  -3 -10   6  151.58    9.70
  -3 -10   6  159.88   11.70
  -3  10   6  146.09    9.00
  -3  10   6  141.09    9.40
  -2 -10   6   32.90    5.80
  -2 -10   6   36.50    6.20
  -2  10   6   42.90    5.60
  -2  10   6   43.40    5.30
  -1 -10   6  998.20   45.60
  -1 -10   6  949.21   44.20
  -1  10   6 1000.90   44.60
  -1  10   6  985.80   43.60
   0 -10   6  423.66   25.60
   0 -10   6  505.05   24.80
   0  10   6  482.95   25.10
   0  10   6  485.15   23.30
   1 -10   6   52.29    6.50
   1 -10   6   51.19    7.80
   1 -10   6   50.09    4.70
   1  10   6   57.19    8.00
   2 -10   6  351.06   18.10
   2 -10   6  325.67   15.50
   2  10   6  332.57   18.40
  -6   0   7  134.09    8.30
   6   0  -7  135.19    9.00
   5   0  -7  137.09   10.20
   4   0  -7  123.09   11.50
   4   0  -7  128.29   10.20
   3   0  -7  554.54   34.60
   3   0  -7  629.14   30.00
   2   0  -7 1684.23   76.49
   2   0  -7 1657.43   74.59
  -2   0   7 1735.73   79.79
  -2   0   7 1648.83   78.99
  -1   0   7    4.90    6.00
   1   0  -7    4.50    3.70
  -1   0   7    3.30    4.60
   1   0  -7    4.90    4.20
   0   0   7 1143.99   55.29
   0   0  -7 1128.29   53.89
   0   0   7 1131.59   53.99
   0   0  -7 1105.09   51.29
  -1   0  -7 1285.37   60.19
  -1   0  -7 1269.07   57.99
   1   0   7 1315.77   61.49
   1   0   7 1273.27   60.29
   2   0   7   14.40    7.20
  -2   0  -7    9.80    3.80
  -2   0  -7   12.20    5.20
  -2   0  -7    7.30    6.30
  -3   0  -7 1256.07   58.39
  -3   0  -7 1325.37   59.79
  -3   0  -7 1275.07   57.39
  -4   0  -7   46.50    7.80
  -4   0  -7   55.59    7.70
  -4   0  -7   53.59    6.00
  -5   0  -7  130.59   10.50
  -5   0  -7  137.19    8.30
  -5   0  -7  130.69   10.30
   6  -1  -7   11.90    3.00
   6   1  -7    7.10    2.90
   5  -1  -7  333.27   17.50
   5  -1  -7  320.77   18.70
   5   1  -7  272.37   16.80
   4  -1  -7 1533.65   68.09
   4  -1  -7 1519.15   66.59
   4   1  -7 1453.45   66.39
   4   1  -7 1453.05   67.19
   3  -1  -7  957.70   41.00
  -3  -1   7  896.41   46.30
  -3   1   7  820.12   45.10
  -3   1   7  783.02   39.50
   3   1  -7  818.02   40.40
  -2  -1   7  817.22   44.70
  -2  -1   7  761.52   43.90
   2  -1  -7  774.82   39.90
  -2  -1   7  799.92   42.40
   2   1  -7  923.51   40.70
   2   1  -7  915.41   42.10
  -2   1   7  961.50   45.40
  -1  -1   7  371.96   22.40
  -1  -1   7  363.56   25.10
   1  -1  -7  366.06   22.10
  -1  -1   7  365.36   24.40
   1  -1  -7  375.66   20.50
   1   1  -7  371.26   22.30
  -1   1   7  369.46   23.90
   1   1  -7  373.86   20.50
   0  -1   7  960.40   46.10
   0  -1   7  930.21   44.10
   0  -1  -7  900.01   41.50
   0  -1  -7  939.51   44.10
   0   1   7  792.82   44.60
   0   1  -7  812.42   43.40
  -1  -1  -7  654.73   31.50
   1  -1   7  665.23   35.30
   1  -1   7  672.53   33.80
  -1   1  -7  630.34   33.40
  -1   1  -7  607.14   32.30
   1   1   7  640.54   34.70
  -1   1  -7  649.24   31.60
  -2  -1  -7  447.76   23.90
  -2  -1  -7  467.65   26.20
  -2   1  -7  480.45   26.20
   2   1   7  482.65   27.20
  -2   1  -7  461.85   25.30
  -2   1  -7  490.85   24.30
  -3  -1  -7  148.49   11.40
  -3  -1  -7  142.29    9.80
   3   1   7  118.89   17.30
  -3   1  -7  111.99   10.70
  -3   1  -7  104.79   10.60
  -3   1  -7  114.69    9.20
  -4  -1  -7  338.47   19.20
  -4  -1  -7  330.67   17.30
  -4  -1  -7  317.97   18.90
  -4   1  -7  338.27   18.80
  -4   1  -7  337.57   17.50
  -4   1  -7  344.07   19.10
  -5  -1  -7  187.08   12.20
  -5  -1  -7  184.48   10.40
  -5  -1  -7  182.08   13.10
  -5   1  -7  205.08   10.70
  -5   1  -7  188.28   12.10
   6  -2  -7   32.00    4.70
  -6   2   7   32.10    4.60
  -6   2   7   33.60    4.60
   6   2  -7   38.50    5.30
   5  -2  -7  737.23   34.30
   5  -2  -7  728.63   33.00
   5   2  -7  636.84   32.40
  -5   2   7  666.53   32.40
   4  -2  -7  378.76   23.00
   4  -2  -7  385.96   21.70
   4   2  -7  445.36   22.00
  -4   2   7  440.96   21.60
   3  -2  -7   41.80    7.20
   3  -2  -7   49.99    8.10
  -3  -2   7   42.70    7.60
   3   2  -7   34.30    6.60
  -3   2   7   37.10    6.50
  -3   2   7   34.40   10.30
   3   2  -7   51.69   10.40
  -2  -2   7  797.52   38.70
  -2  -2   7  754.72   41.00
   2  -2  -7  777.32   36.00
   2   2  -7  692.43   36.60
  -2   2   7  701.33   35.40
   2   2  -7  764.02   36.10
  -2   2   7  743.33   40.20
  -1  -2   7 1426.76   66.69
  -1  -2   7 1491.95   69.19
  -1  -2   7 1440.16   68.49
   1  -2  -7 1468.35   64.29
   1  -2  -7 1440.66   66.49
  -1   2   7 1386.96   67.99
   1   2  -7 1374.86   64.29
   0  -2   7  521.85   31.70
   0  -2   7  516.35   29.70
   0  -2  -7  501.05   27.20
   0   2  -7  595.04   28.00
   0   2  -7  582.64   29.90
   0   2   7  600.94   31.90
   1  -2   7  680.23   39.90
  -1  -2  -7  691.13   33.80
  -1  -2  -7  697.03   35.70
   1  -2   7  680.63   35.80
  -1   2  -7  722.63   34.10
   1   2   7  732.53   37.50
  -2  -2  -7  885.61   42.10
  -2  -2  -7  920.91   40.20
   2  -2   7  889.51   42.10
  -2   2  -7  824.22   40.10
  -2   2  -7  822.72   41.20
  -2   2  -7  821.22   41.70
   2   2   7  848.32   43.10
  -3   2  -7   45.20    8.20
  -3   2  -7   51.79    6.30
  -3   2  -7   45.90    7.60
   3   2   7   47.20   14.20
  -4  -2  -7  467.25   22.40
  -4  -2  -7  469.45   24.20
  -4   2  -7  479.25   22.70
  -4   2  -7  397.06   26.40
  -4   2  -7  461.85   23.90
   4   2   7  477.75   25.20
  -5  -2  -7   38.00    6.50
  -5  -2  -7   36.60    4.80
  -5   2  -7   47.10    6.60
   6  -3  -7  169.08   10.30
  -6   3   7  185.68   10.40
  -6   3   7  182.18    9.80
   6   3  -7  159.28   13.30
   5  -3  -7  156.98   10.50
   5  -3  -7  161.58   12.10
  -5   3   7  158.58   10.40
   5   3  -7  148.89   10.20
  -5   3   7  155.68    9.90
   4  -3  -7  269.97   16.10
   4  -3  -7  270.47   17.60
  -4   3   7  281.17   15.90
   4   3  -7  287.17   16.10
   3  -3  -7  220.48   13.70
  -3  -3   7  222.88   15.30
   3  -3  -7  216.38   14.90
   3   3  -7  179.18   13.00
  -3   3   7  189.18   16.90
  -3   3   7  173.38   12.60
   2  -3  -7 1073.99   48.50
  -2  -3   7 1016.60   53.19
  -2  -3   7 1070.59   50.99
   2   3  -7 1075.79   48.70
  -2   3   7 1018.10   48.20
  -2   3   7 1065.99   52.89
   1  -3  -7  592.24   30.00
  -1  -3   7  576.34   34.90
   1  -3  -7  612.74   32.20
  -1  -3   7  610.04   32.50
   1   3  -7  613.34   31.50
   1   3  -7  632.14   30.50
  -1   3   7  615.14   34.00
   0  -3   7  881.01   43.30
   0  -3  -7  849.12   42.60
   0  -3  -7  837.02   40.40
   0   3   7  867.81   40.00
   0   3   7  896.71   44.60
   0   3  -7  866.11   40.80
   1  -3   7   85.79   10.00
   1  -3   7   84.29    6.90
  -1  -3  -7   81.29   10.10
  -1  -3  -7   80.49    9.30
   2  -3   7  529.65   24.80
  -2  -3  -7  489.35   25.90
  -2  -3  -7  509.15   27.60
   2  -3   7  510.45   27.90
  -2   3  -7  561.54   26.50
  -2   3  -7  509.85   27.80
   2   3   7  536.25   29.10
  -2   3  -7  524.05   27.40
  -3  -3  -7  287.37   18.20
  -3  -3  -7  296.27   16.80
  -3   3  -7  300.77   19.90
  -3   3  -7  312.37   18.30
   3   3   7  339.87   19.90
  -3   3  -7  326.07   18.50
  -4  -3  -7  295.87   14.80
  -4  -3  -7  285.97   16.30
  -4   3  -7  264.37   14.50
  -4   3  -7  249.68   15.70
   4   3   7  256.77   16.50
   6  -4  -7  115.09    7.50
   6  -4  -7  101.99   10.10
  -6   4   7  114.39    7.00
  -6   4   7  118.19    7.60
   5  -4  -7  202.38   11.80
   5  -4  -7  195.68   13.00
   5   4  -7  182.18   11.60
  -5   4   7  174.38   11.30
  -5   4   7  178.68   10.90
   4  -4  -7 1245.08   53.79
   4  -4  -7 1207.88   55.49
  -4   4   7 1126.89   54.09
  -4   4   7 1186.18   57.69
   4   4  -7 1185.08   53.39
   3  -4  -7  112.99    9.80
  -3  -4   7  112.49   10.40
   3  -4  -7  116.69   10.80
  -3   4   7  113.09    8.70
  -3   4   7   99.29   12.50
  -3   4   7   99.29    9.10
   3   4  -7   98.79    9.10
  -2   4   7   57.79   10.40
   2   4  -7   70.09    7.90
  -2   4   7   70.79    8.30
  -2   4   7   65.99    7.20
   1  -4  -7  107.39   12.20
  -1  -4   7  119.29   23.70
  -1  -4   7  109.19   10.80
   1  -4  -7  101.69   10.50
  -1   4   7   75.39    8.50
   0  -4   7 1562.74   70.59
   0  -4  -7 1512.25   67.69
   0  -4  -7 1514.15   69.69
   0   4   7 1523.75   71.49
   0   4   7 1484.15   66.89
   0   4  -7 1541.05   67.99
   1  -4   7  174.18   13.40
  -1  -4  -7  178.58   13.70
   1  -4   7  176.68   10.30
  -1  -4  -7  168.28   13.00
   1   4   7  155.58   14.10
  -1   4  -7  157.58   11.40
   2  -4   7  269.37   17.00
   2  -4   7  262.67   13.90
  -2  -4  -7  260.57   16.70
  -2  -4  -7  290.57   16.50
   2   4   7  251.37   17.70
  -2   4  -7  233.38   15.00
   3  -4   7   29.00    4.20
  -3  -4  -7   31.20    6.90
  -3  -4  -7   29.70    5.90
   3   4   7   18.60    5.50
  -3   4  -7   21.70    6.10
  -3   4  -7   24.00    5.10
  -4  -4  -7   68.49    7.60
  -4   4  -7   61.59    7.20
   4   4   7   59.59    8.10
  -4   4  -7   64.29    5.90
  -5   5   7   13.40    3.40
  -5   5   7   16.10    4.00
   4  -5  -7  294.97   17.70
   4  -5  -7  298.47   16.20
  -4   5   7  285.87   16.30
   4   5  -7  283.07   15.90
  -4   5   7  284.87   15.60
   3  -5  -7 1062.19   48.70
  -3  -5   7 1038.30   48.70
   3  -5  -7 1047.10   47.50
  -3   5   7 1016.30   46.00
  -3   5   7  997.60   50.39
  -3   5   7  927.01   46.20
   2  -5  -7 1202.28   55.09
   2  -5  -7 1225.98   56.99
  -2  -5   7 1267.87   57.79
  -2   5   7 1198.68   58.89
  -2   5   7 1200.48   55.19
  -2   5   7 1207.68   54.59
   2   5  -7 1242.58   55.09
  -1  -5   7  650.23   33.10
   1  -5  -7  631.34   32.60
   1   5  -7  616.74   30.40
  -1   5   7  647.94   34.30
  -1   5   7  614.44   29.90
  -1   5   7  584.34   30.50
   0  -5   7  307.17   18.40
   0  -5  -7  321.57   18.60
   0   5  -7  252.87   16.00
   0   5   7  233.78   15.80
   0   5   7  258.47   18.80
   1  -5   7  662.73   33.60
  -1  -5  -7  682.03   33.40
   1  -5   7  667.53   30.10
  -1   5  -7  622.94   31.30
   1   5   7  629.94   34.50
   2  -5   7   74.89    9.00
  -2  -5  -7   74.99    9.50
   2  -5   7   79.89    6.40
   2   5   7   85.89   11.30
  -3  -5  -7  622.74   30.90
   3  -5   7  647.14   28.40
   3  -5   7  630.74   30.80
   3   5   7  616.54   31.90
  -3   5  -7  606.44   29.20
   4  -5   7  238.68   11.80
  -4  -5  -7  228.38   14.00
   4   5   7  248.78   14.60
  -4   5  -7  235.38   12.60
   5  -6  -7  275.17   15.70
   5  -6  -7  284.77   14.40
  -5   6   7  269.17   14.60
  -5   6   7  281.57   14.20
   4  -6  -7  547.15   25.70
   4  -6  -7  514.55   27.00
  -4   6   7  540.75   25.30
  -4   6   7  517.15   25.80
   3  -6  -7  175.28   13.10
  -3  -6   7  173.88   12.80
   3  -6  -7  169.48   12.60
   3   6  -7  186.38   12.40
  -3   6   7  175.68   15.10
  -3   6   7  179.08   11.20
  -3   6   7  171.38   11.80
   2  -6  -7  275.47   17.20
  -2  -6   7  278.47   17.40
  -2   6   7  253.57   14.80
  -2   6   7  245.88   18.20
   2   6  -7  260.77   15.40
   1  -6  -7  861.31   41.10
  -1  -6   7  875.51   41.40
   1   6  -7  809.12   38.40
  -1   6   7  790.62   38.10
  -1   6   7  811.52   42.10
   0  -6  -7  341.07   21.10
   0  -6   7  323.57   20.40
   0   6   7  365.96   19.10
   0   6  -7  359.66   18.90
   0   6   7  359.26   22.00
   1  -6   7 1117.89   49.90
   1  -6   7 1079.29   56.59
  -1  -6  -7 1082.99   50.79
  -1   6  -7 1067.89   49.40
   1   6   7 1075.89   52.29
   2  -6   7  314.77   16.00
  -2  -6  -7  321.27   19.00
   2  -6   7  323.47   18.70
   2   6   7  337.77   20.10
  -2   6  -7  322.67   17.00
   3  -6   7   90.89    6.30
   3  -6   7   92.69    9.20
  -3   6  -7   97.79    7.40
   3   6   7  106.39    9.70
   4  -7  -7  124.29   11.60
   4  -7  -7  131.39   11.50
  -4   7   7  123.99    8.20
  -4   7   7  114.19    8.50
  -3  -7   7  244.28   15.30
   3  -7  -7  248.48   15.70
  -3   7   7  261.37   13.90
  -3   7   7  250.07   14.30
   2  -7  -7  595.54   29.50
  -2  -7   7  623.04   30.10
  -2   7   7  555.14   27.30
  -2   7   7  550.34   30.40
  -2   7   7  549.54   27.90
   1  -7  -7  182.38   13.70
  -1  -7   7  178.68   13.20
  -1   7   7  175.58   14.30
  -1   7   7  171.68   12.10
  -1   7   7  173.58   11.30
   0  -7   7  500.85   26.60
   0  -7  -7  489.95   26.70
   0   7   7  518.95   27.80
   0   7  -7  480.85   24.20
   1  -7   7  147.59    9.00
   1  -7   7  139.89   11.50
  -1  -7  -7  152.58   13.70
  -1   7  -7  187.38   11.10
   2  -7   7  164.48    9.00
   2  -7   7  158.28   11.30
  -2  -7  -7  160.08   13.10
   2   7   7  161.98   12.40
  -2   7  -7  149.79   10.40
   3  -7   7  346.27   15.80
  -3  -7  -7  327.77   18.80
   3  -7   7  334.97   17.80
   3   7   7  331.97   18.70
   4  -8  -7  446.36   22.50
  -3  -8   7    4.20    3.60
   3  -8  -7    5.20    4.10
  -3   8   7    2.40    2.70
  -3   8   7    3.70    2.40
  -2  -8   7   61.09    7.30
  -2   8   7   72.49    6.40
  -2   8   7   74.79   10.10
  -2   8   7   70.59    7.00
  -1  -8   7  306.77   19.10
  -1   8   7  353.16   20.50
  -1   8   7  356.26   18.20
  -1   8   7  364.06   17.70
   0  -8   7  425.46   22.40
   0   8   7  397.96   23.00
   1  -8   7   46.80    6.30
   1   8   7   37.60    7.10
   2  -8   7  468.95   21.80
   2  -8   7  468.25   23.90
   2   8   7  510.95   25.30
  -2  -9   7   27.30    4.90
   2  -9  -7   32.20    8.50
  -2   9   7   25.80    4.40
  -2   9   7   24.50    4.90
  -1  -9   7    5.20    3.40
  -1   9   7    5.00    5.50
  -1   9   7    4.30    3.40
  -1   9   7    4.00    4.80
   0  -9   7  201.38   13.50
   0   9   7  260.87   14.90
   1  -9   7  297.17   16.20
   1   9   7  295.67   17.00
  -5   0   8    7.20    2.80
   5   0  -8    6.90    2.50
   4   0  -8   74.69    7.20
  -4   0   8   76.59    7.30
   3   0  -8   12.50    5.10
   2   0  -8 2609.34  113.09
   2   0  -8 2633.94  114.59
  -1   0   8   74.29   11.20
   1   0  -8   82.19    7.90
   0   0   8  171.48   15.00
   0   0  -8  178.78   13.70
   0   0  -8  184.88   12.10
  -1   0  -8    2.00    3.00
  -1   0  -8    3.40    4.30
   1   0   8    4.70    5.80
  -2   0  -8  240.68   15.60
  -2   0  -8  237.88   13.80
   2   0   8  230.48   17.50
  -3   0  -8   -1.30    2.40
  -3   0  -8    4.80    4.10
   5  -1  -8  120.69    8.10
  -5  -1   8  116.39    7.60
  -5   1   8  119.49    7.50
   5   1  -8  112.19    7.90
  -5   1   8  119.69    7.90
   4  -1  -8 1585.14   70.89
   4  -1  -8 1587.04   69.99
  -4  -1   8 1482.75   68.59
  -4   1   8 1625.24   69.29
   4   1  -8 1708.33   70.29
   3  -1  -8   75.59    8.70
   3  -1  -8   70.89    8.90
   3   1  -8   75.09   11.70
   3   1  -8   78.89   10.50
   2  -1  -8  177.68   13.10
   2  -1  -8  167.58   11.30
   2   1  -8  158.38   12.90
   2   1  -8  159.78   11.30
  -2   1   8  148.69   14.70
   1  -1  -8    3.70    3.30
  -1  -1   8    8.90    5.90
   1  -1  -8    4.50    4.50
   1   1  -8    4.40    4.50
   1   1  -8    4.90    3.30
  -1   1   8   11.20    5.90
   0  -1  -8  905.71   44.80
   0  -1  -8  943.41   42.80
   0  -1   8  934.51   46.30
   0   1   8  943.01   46.40
   0   1  -8  888.71   44.60
   0   1  -8  938.51   42.90
   1  -1   8   45.20   12.20
  -1  -1  -8   43.40    7.90
   1   1   8   58.19   11.10
  -1   1  -8   55.29    8.30
  -1   1  -8   61.89    6.70
  -2  -1  -8  243.08   13.90
  -2  -1  -8  248.38   15.70
  -2   1  -8  225.88   13.80
  -2   1  -8  246.18   15.70
   2   1   8  241.48   16.50
  -3  -1  -8   82.39    8.40
  -3  -1  -8   80.89    6.90
  -3   1  -8   81.69   10.20
  -3   1  -8   96.39    7.20
   5  -2  -8  628.44   28.60
  -5   2   8  606.44   28.10
  -5   2   8  608.24   27.90
   5   2  -8  622.24   28.30
   4  -2  -8    1.10    2.70
   4  -2  -8    4.80    4.10
   3  -2  -8  136.19   11.60
   3  -2  -8  137.49   10.10
   3   2  -8  147.39   10.30
  -3   2   8  143.29   10.60
   2  -2  -8  233.28   15.20
   2  -2  -8  240.68   15.90
   2   2  -8  238.38   14.30
  -2   2   8  240.98   18.10
   2   2  -8  235.58   16.60
   1  -2  -8  269.67   15.90
   1  -2  -8  283.07   18.20
  -1  -2   8  276.37   17.90
   1   2  -8  283.57   16.20
   1   2  -8  273.17   17.60
  -1   2   8  292.77   19.70
   0  -2   8  383.56   22.10
   0  -2  -8  376.76   22.20
   0  -2  -8  386.66   20.80
   0   2  -8  400.66   20.70
   0   2  -8  382.46   21.90
   0   2   8  380.26   23.40
  -1  -2  -8  292.67   16.50
  -1  -2  -8  299.87   18.60
   1  -2   8  294.67   18.20
   1   2   8  319.87   19.80
  -1   2  -8  293.37   18.40
  -2  -2  -8  580.64   28.00
  -2  -2  -8  561.44   25.60
  -2   2  -8  486.45   27.10
   2   2   8  529.15   28.20
  -2   2  -8  498.75   25.60
  -3  -2  -8   69.69    6.40
  -3  -2  -8   63.59    7.80
   3   2   8   75.69    9.60
  -3   2  -8   69.09    6.20
   5  -3  -8   30.00    7.60
  -5  -3   8   27.00    5.40
   5  -3  -8   27.00    4.40
  -5   3   8   30.90    4.00
   5   3  -8   30.30    5.40
  -5   3   8   34.20    4.50
   4  -3  -8  129.89   10.00
   4  -3  -8  126.49    8.60
   4   3  -8  109.99    8.50
  -4   3   8  113.89    7.90
  -4   3   8  104.49    8.30
   3  -3  -8 1300.27   57.99
   3  -3  -8 1246.38   55.99
  -3   3   8 1265.77   55.49
  -3   3   8 1180.98   55.29
   3   3  -8 1305.17   56.29
   2  -3  -8    0.20    3.80
   2  -3  -8    1.20    3.40
  -2   3   8   -1.20    2.70
  -1  -3   8  556.24   30.30
   1  -3  -8  570.24   28.30
   1  -3  -8  578.74   30.50
  -1   3   8  600.64   32.20
  -1   3   8  593.64   27.70
   1   3  -8  592.24   28.50
   0  -3  -8  131.99    9.90
   0  -3  -8  129.29   11.10
   0   3  -8  103.09    9.40
   0   3   8  108.59   11.90
  -1  -3  -8  683.13   34.90
   1  -3   8  699.53   34.40
  -1  -3  -8  703.73   32.80
   1   3   8  699.03   36.00
  -1   3  -8  708.53   33.10
  -2  -3  -8  865.81   39.40
  -2  -3  -8  854.21   41.50
  -2   3  -8  869.71   39.70
   2   3   8  904.91   42.40
  -3  -3  -8  469.25   22.30
  -3   3  -8  457.35   22.20
   3   3   8  482.75   24.30
   4  -4  -8  135.89   10.10
   4  -4  -8  129.79    8.70
  -4   4   8  126.39    8.60
  -4   4   8  121.19    8.10
   4   4  -8  123.59    8.70
   3  -4  -8  182.48   12.80
   3  -4  -8  183.08   11.40
  -3   4   8  175.58   11.40
   3   4  -8  173.48   11.10
  -3   4   8  182.08   10.80
  -2  -4   8  438.06   24.50
   2  -4  -8  430.56   22.60
   2  -4  -8  429.46   24.10
   2   4  -8  478.65   22.90
  -2   4   8  479.05   22.30
  -2   4   8  456.75   26.40
  -1  -4   8 1038.50   50.29
   1  -4  -8 1084.29   48.30
   1  -4  -8 1070.89   50.69
   1   4  -8 1101.79   48.60
  -1   4   8 1073.19   51.99
  -1   4   8 1058.09   47.50
   0  -4  -8  163.38   11.70
   0  -4  -8  153.18   12.40
   0  -4   8  153.88   11.90
   0   4   8  160.48   13.50
   0   4  -8  159.68   10.80
   1  -4   8  559.34   29.30
  -1  -4  -8  583.94   30.10
  -1  -4  -8  590.64   28.40
   1   4   8  607.54   31.30
  -1   4  -8  612.84   28.40
  -2  -4  -8   30.20    6.80
  -2  -4  -8   18.90    6.20
   2  -4   8   21.90    7.30
   2   4   8   21.30    5.50
  -2   4  -8   27.40    4.70
  -3  -4  -8   36.30    6.50
  -3   4  -8   40.00    4.60
   3   4   8   41.90    6.80
   4  -5  -8  339.17   18.00
   4  -5  -8  333.97   19.30
  -4   5   8  394.56   18.20
  -4   5   8  410.86   18.00
   3  -5  -8  408.86   19.90
   3  -5  -8  404.56   21.40
  -3   5   8  397.96   19.40
   3   5  -8  392.56   19.50
  -3   5   8  376.66   19.50
   2  -5  -8  226.78   13.50
   2  -5  -8  220.68   14.10
  -2  -5   8  220.58   14.10
  -2   5   8  200.08   11.90
  -2   5   8  191.38   15.20
   2   5  -8  206.68   12.40
   1  -5  -8  295.97   21.30
  -1  -5   8  306.17   17.70
  -1   5   8  291.17   15.60
   1   5  -8  285.67   15.80
  -1   5   8  290.27   18.80
   0  -5   8  121.69   10.10
   0  -5  -8  122.29   10.70
   0   5   8  113.89   11.30
   0   5  -8  113.19    8.60
   1  -5   8    4.90    3.90
  -1  -5  -8    5.20    4.20
  -1   5  -8   10.30    3.40
   1   5   8   10.10    4.70
   2  -5   8   46.90    7.10
  -2  -5  -8   41.70    7.20
  -2   5  -8   46.60    5.40
   2   5   8   42.20    7.20
   3  -6  -8  131.89   10.20
  -3   6   8  141.99    8.50
  -3   6   8  142.09    9.20
  -2   6   8   27.30    4.80
   2   6  -8   24.10    4.70
  -2   6   8   21.50    5.70
  -1  -6   8  341.67   18.50
   1  -6  -8  349.87   18.80
  -1   6   8  317.47   19.50
   1   6  -8  307.97   16.70
  -1   6   8  316.97   16.50
   0  -6  -8   27.10    7.30
   0  -6   8   22.60    5.40
   0   6  -8   26.50    5.40
   0   6   8   27.40    6.60
   1  -6   8  655.93   30.90
  -1  -6  -8  649.43   31.40
  -1   6  -8  612.74   29.00
   1   6   8  645.04   32.10
   2  -6   8  215.18   12.40
  -2  -6  -8  226.48   13.90
  -2   6  -8  195.48   11.20
   2   6   8  216.98   13.60
   2  -7  -8   15.20    4.40
  -2  -7   8   18.00    4.40
  -2   7   8   14.70    3.10
  -2   7   8   19.50    5.20
  -1  -7   8  136.59    9.70
   1  -7  -8  141.79   10.60
  -1   7   8  137.49    9.60
  -1   7   8  143.99   11.10
   0  -7  -8   40.40    7.90
   0  -7   8   41.10    5.70
  -1  -7  -8  942.21   43.20
   1  -7   8  942.81   42.60
   1   7   8  939.81   43.70
   3   0  -9  226.18   12.40
   2   0  -9   51.99    8.60
   2   0  -9   56.99    6.00
   1   0  -9   33.90    7.80
   1   0  -9   35.40    5.20
   0   0  -9   58.39    5.80
   0   0  -9   56.89   11.00
  -1   0  -9   43.80    5.30
  -2   0  -9  440.16   20.80
   3  -1  -9  103.49    7.10
   3  -1  -9   92.89    9.50
  -3   1   9   77.29    6.00
   3   1  -9   77.19    6.50
   2  -1  -9  136.79    9.20
   2   1  -9  146.79    9.40
   1  -1  -9  128.69   10.30
   1  -1  -9  127.69    8.80
   1   1  -9  129.09   12.30
   1   1  -9  141.49    9.20
  -1   1   9  140.59    8.70
   0  -1  -9  404.76   21.00
   0  -1  -9  405.96   19.60
   0   1   9  399.86   22.30
   0   1  -9  363.36   20.80
   0   1  -9  385.76   19.40
  -1  -1  -9   25.90    4.50
  -1  -1  -9   22.30    6.20
   1   1   9   21.70    5.90
  -1   1  -9   24.80    6.40
  -1   1  -9   25.50    4.50
   3  -2  -9  198.68   10.70
   3  -2  -9  200.58   12.30
   3   2  -9  176.48   10.50
  -3   2   9  174.88   10.00
   2  -2  -9 1106.49   48.40
   2   2  -9 1105.99   48.60
  -2   2   9 1071.49   47.60
   1  -2  -9   43.50    6.80
   1  -2  -9   38.10    5.50
   1   2  -9   46.20    5.10
  -1   2   9   46.90    7.90
  -1   2   9   44.00    6.10
   0  -2  -9   31.50    5.20
   0   2  -9   48.10    5.20
   0   2   9   43.40    7.70
  -1  -2  -9  411.56   18.90
  -1  -2  -9  414.66   20.80
  -1   2  -9  356.06   18.80
   1   2   9  368.76   20.90
   3  -3  -9  253.07   15.10
   3  -3  -9  259.37   13.90
  -3   3   9  286.57   13.60
   3   3  -9  296.47   14.00
   2  -3  -9   25.60    4.90
   2  -3  -9   22.60    6.10
  -2   3   9   20.30    4.20
   2   3  -9   23.70    4.50
   1  -3  -9  552.34   32.20
   1  -3  -9  609.24   26.70
   1   3  -9  550.94   26.50
  -1   3   9  568.04   29.50
   0  -3  -9  589.74   27.20
   0  -3  -9  551.94   29.90
   0   3   9  618.74   30.20
   0   3  -9  609.54   27.50
  -1  -3  -9  136.39    9.10
  -1  -3  -9  143.29   10.50
   1   3   9  142.39   10.60
  -1   3  -9  149.29    8.80
   2  -4  -9  462.75   21.20
   2  -4  -9  444.46   22.50
   2   4  -9  435.66   20.90
   1  -4  -9   82.39    8.00
   1  -4  -9   82.59    8.90
   1   4  -9   76.89    6.30
  -1   4   9   85.39    8.80
   0  -4  -9  396.26   19.60
   0  -4  -9  407.96   20.70
   0   4  -9  406.16   19.10
   0   4   9  386.16   21.40
   0   0   0    0.00    0.00

_computing_structure_solution     'SHELXT 2014/5 (Sheldrick, 2014)'
;
_shelx_hkl_checksum              99701
loop_
_space_group_symop_operation_xyz
'x, y, z'
'-x, y+1/2, -z'
loop_
_atom_site_label
_atom_site_type_symbol
_atom_site_fract_x
_atom_site_fract_y
_atom_site_fract_z
_atom_site_U_iso_or_equiv
_atom_site_adp_type
_atom_site_occupancy
_atom_site_site_symmetry_order
_atom_site_calc_flag
_atom_site_refinement_flags_posn
_atom_site_refinement_flags_adp
S1 S 0.84514(7) 0.27048(4) -0.09386(6) 0.02593(16) Uani 1 1 d . .
H1 H 0.637(4) 0.433(3) 0.701(4) 0.032(8) Uiso 1 1 d . .
N1 N 0.5655(2) 0.47432(16) 0.6548(2) 0.0210(4) Uani 1 1 d . .
O1 O 0.6124(2) 0.66454(13) 0.8552(2) 0.0296(4) Uani 1 1 d . .
O2 O 0.6650(2) 0.76993(14) 0.63351(17) 0.0267(3) Uani 1 1 d . .
O3 O 0.9262(2) 0.51468(14) 0.67744(18) 0.0236(3) Uani 1 1 d . .
H3 H 1.019(5) 0.515(3) 0.6656(17) 0.035 Uiso 1 1 calc R U
O4 O 0.27377(19) 0.52933(14) 0.6171(2) 0.0294(4) Uani 1 1 d . .
C1 C 0.3898(3) 0.46030(19) 0.6753(3) 0.0227(4) Uani 1 1 d . .
C2 C 0.3406(3) 0.3569(2) 0.7676(3) 0.0326(5) Uani 1 1 d . .
H2A H 0.230268 0.371338 0.822110 0.049 Uiso 1 1 calc R U
H2B H 0.441078 0.337329 0.852691 0.049 Uiso 1 1 calc R U
H2C H 0.318359 0.294532 0.688203 0.049 Uiso 1 1 calc R U
C3 C 0.6790(3) 0.86853(19) 0.7398(3) 0.0306(5) Uani 1 1 d . .
H3A H 0.716589 0.933073 0.675827 0.046 Uiso 1 1 calc R U
H3B H 0.769528 0.855174 0.836412 0.046 Uiso 1 1 calc R U
H3C H 0.560261 0.884116 0.779057 0.046 Uiso 1 1 calc R U
C4 C 0.6334(3) 0.67340(19) 0.7091(3) 0.0210(4) Uani 1 1 d . .
C5 C 0.6303(3) 0.57628(18) 0.5835(2) 0.0190(4) Uani 1 1 d . .
H5 H 0.546726 0.596310 0.481270 0.023 Uiso 1 1 calc R U
C6 C 0.8236(3) 0.55734(17) 0.5324(2) 0.0192(4) Uani 1 1 d . .
H6 H 0.875502 0.631834 0.504765 0.023 Uiso 1 1 calc R U
C7 C 0.8243(2) 0.48115(18) 0.3807(2) 0.0188(4) Uani 1 1 d . .
C8 C 0.8168(3) 0.52897(18) 0.2219(3) 0.0240(4) Uani 1 1 d . .
H8 H 0.810241 0.608385 0.210431 0.029 Uiso 1 1 calc R U
C9 C 0.8187(3) 0.46250(19) 0.0795(3) 0.0248(5) Uani 1 1 d . .
H9 H 0.812960 0.496606 -0.028029 0.030 Uiso 1 1 calc R U
C10 C 0.8289(3) 0.34618(18) 0.0943(3) 0.0207(4) Uani 1 1 d . .
C11 C 0.8354(3) 0.29717(17) 0.2526(3) 0.0239(5) Uani 1 1 d . .
H11 H 0.841331 0.217746 0.264169 0.029 Uiso 1 1 calc R U
C12 C 0.8333(3) 0.36499(19) 0.3937(2) 0.0234(5) Uani 1 1 d . .
H12 H 0.837971 0.331003 0.501312 0.028 Uiso 1 1 calc R U
C13 C 0.7703(4) 0.1314(2) -0.0455(3) 0.0392(6) Uani 1 1 d . .
H13A H 0.651231 0.135931 -0.002324 0.059 Uiso 1 1 calc R U
H13B H 0.858917 0.097294 0.039447 0.059 Uiso 1 1 calc R U
H13C H 0.759994 0.085292 -0.147364 0.059 Uiso 1 1 calc R U
loop_
_atom_site_aniso_label
_atom_site_aniso_U_11
_atom_site_aniso_U_22
_atom_site_aniso_U_33
_atom_site_aniso_U_23
_atom_site_aniso_U_13
_atom_site_aniso_U_12
S1 0.0307(3) 0.0252(3) 0.0228(2) -0.0049(2) 0.00679(18) 0.0003(2)
N1 0.0146(8) 0.0211(9) 0.0278(9) 0.0018(7) 0.0043(6) 0.0007(7)
O1 0.0379(9) 0.0291(9) 0.0232(8) 0.0002(6) 0.0100(6) 0.0021(7)
O2 0.0384(8) 0.0199(7) 0.0227(7) -0.0029(7) 0.0069(6) -0.0027(7)
O3 0.0134(6) 0.0365(9) 0.0211(7) -0.0005(6) 0.0030(5) 0.0010(6)
O4 0.0151(7) 0.0344(9) 0.0394(9) -0.0007(7) 0.0060(6) 0.0017(7)
C1 0.0197(10) 0.0264(11) 0.0231(10) -0.0063(8) 0.0072(8) -0.0030(8)
C2 0.0288(12) 0.0340(12) 0.0367(12) 0.0004(10) 0.0120(9) -0.0071(10)
C3 0.0420(13) 0.0205(11) 0.0299(11) -0.0059(9) 0.0062(9) -0.0012(10)
C4 0.0141(9) 0.0244(10) 0.0248(11) -0.0005(8) 0.0039(7) 0.0027(8)
C5 0.0154(9) 0.0205(10) 0.0213(10) 0.0009(8) 0.0029(7) -0.0005(8)
C6 0.0164(9) 0.0216(10) 0.0200(9) -0.0008(8) 0.0043(7) -0.0017(7)
C7 0.0137(9) 0.0216(10) 0.0219(10) -0.0005(8) 0.0048(7) -0.0008(7)
C8 0.0301(11) 0.0181(10) 0.0243(11) 0.0018(8) 0.0055(8) 0.0004(8)
C9 0.0318(11) 0.0239(11) 0.0191(10) 0.0011(8) 0.0042(8) 0.0005(9)
C10 0.0174(10) 0.0235(11) 0.0213(10) -0.0026(8) 0.0027(7) 0.0005(8)
C11 0.0279(11) 0.0182(11) 0.0260(10) 0.0014(7) 0.0047(8) 0.0033(8)
C12 0.0269(11) 0.0232(11) 0.0204(10) 0.0029(8) 0.0046(8) -0.0002(8)
C13 0.0521(16) 0.0274(12) 0.0409(14) -0.0123(10) 0.0173(12) -0.0065(11)
loop_
_atom_type_symbol
_atom_type_description
_atom_type_scat_dispersion_real
_atom_type_scat_dispersion_imag
_atom_type_scat_source
C C 0.0181 0.0091 'International Tables Vol C Tables 4.2.6.8 and 6.1.1.4'
H H 0.0000 0.0000 'International Tables Vol C Tables 4.2.6.8 and 6.1.1.4'
N N 0.0311 0.0180 'International Tables Vol C Tables 4.2.6.8 and 6.1.1.4'
O O 0.0492 0.0322 'International Tables Vol C Tables 4.2.6.8 and 6.1.1.4'
S S 0.3331 0.5567 'International Tables Vol C Tables 4.2.6.8 and 6.1.1.4'
loop_
_geom_angle_atom_site_label_1
_geom_angle_atom_site_label_2
_geom_angle_atom_site_label_3
_geom_angle
C10 S1 C13 103.50(11)
C1 N1 C5 121.42(19)
C1 N1 H1 118(2)
C5 N1 H1 119(2)
C4 O2 C3 115.86(16)
C6 O3 H3 109.5
O4 C1 N1 120.7(2)
O4 C1 C2 122.32(19)
N1 C1 C2 117.0(2)
C1 C2 H2A 109.5
C1 C2 H2B 109.5
H2A C2 H2B 109.5
C1 C2 H2C 109.5
H2A C2 H2C 109.5
H2B C2 H2C 109.5
O2 C3 H3A 109.5
O2 C3 H3B 109.5
H3A C3 H3B 109.5
O2 C3 H3C 109.5
H3A C3 H3C 109.5
H3B C3 H3C 109.5
O1 C4 O2 124.5(2)
O1 C4 C5 125.5(2)
O2 C4 C5 110.03(17)
N1 C5 C4 110.81(16)
N1 C5 C6 109.73(17)
C4 C5 C6 109.65(16)
N1 C5 H5 108.9
C4 C5 H5 108.9
C6 C5 H5 108.9
O3 C6 C7 113.42(17)
O3 C6 C5 105.24(16)
C7 C6 C5 112.57(16)
O3 C6 H6 108.5
C7 C6 H6 108.5
C5 C6 H6 108.5
C12 C7 C8 118.25(19)
C12 C7 C6 122.63(18)
C8 C7 C6 119.12(18)
C9 C8 C7 121.1(2)
C9 C8 H8 119.5
C7 C8 H8 119.5
C8 C9 C10 120.1(2)
C8 C9 H9 119.9
C10 C9 H9 119.9
C9 C10 C11 119.35(19)
C9 C10 S1 116.21(16)
C11 C10 S1 124.35(16)
C12 C11 C10 119.75(19)
C12 C11 H11 120.1
C10 C11 H11 120.1
C7 C12 C11 121.43(19)
C7 C12 H12 119.3
C11 C12 H12 119.3
S1 C13 H13A 109.5
S1 C13 H13B 109.5
H13A C13 H13B 109.5
S1 C13 H13C 109.5
H13A C13 H13C 109.5
H13B C13 H13C 109.5
loop_
_geom_bond_atom_site_label_1
_geom_bond_atom_site_label_2
_geom_bond_distance
S1 C10 1.772(2)
S1 C13 1.800(3)
N1 C1 1.335(3)
N1 C5 1.444(3)
N1 H1 0.79(3)
O1 C4 1.202(3)
O2 C4 1.331(3)
O2 C3 1.447(3)
O3 C6 1.412(2)
O3 H3 0.70(4)
O4 C1 1.241(3)
C1 C2 1.500(3)
C2 H2A 0.9800
C2 H2B 0.9800
C2 H2C 0.9800
C3 H3A 0.9800
C3 H3B 0.9800
C3 H3C 0.9800
C4 C5 1.531(3)
C5 C6 1.542(3)
C5 H5 1.0000
C6 C7 1.517(3)
C6 H6 1.0000
C7 C12 1.387(3)
C7 C8 1.391(3)
C8 C9 1.390(3)
C8 H8 0.9500
C9 C10 1.390(3)
C9 H9 0.9500
C10 C11 1.393(3)
C11 C12 1.391(3)
C11 H11 0.9500
C12 H12 0.9500
C13 H13A 0.9800
C13 H13B 0.9800
C13 H13C 0.9800
