#------------------------------------------------------------------------------
#$Date: 2019-11-12 04:41:38 +0200 (Tue, 12 Nov 2019) $
#$Revision: 227591 $
#$URL: file:///home/coder/svn-repositories/cod/cif/4/03/35/4033556.cif $
#------------------------------------------------------------------------------
#
# This file is available in the Crystallography Open Database (COD),
# http://www.crystallography.net/
#
# All data on this site have been placed in the public domain by the
# contributors.
#
data_4033556
loop_
_publ_author_name
'Jin, Yushu'
'Makida, Yusuke'
'Uchida, Tatsuya'
'Kuwano, Ryoichi'
_publ_section_title
;
 Ruthenium-Catalyzed Chemo- and Enantioselective Hydrogenation of
 Isoquinoline Carbocycles.
;
_journal_issue                   7
_journal_name_full               'The Journal of organic chemistry'
_journal_page_first              3829
_journal_page_last               3839
_journal_paper_doi               10.1021/acs.joc.8b00190
_journal_volume                  83
_journal_year                    2018
_chemical_absolute_configuration ad
_chemical_formula_moiety         'C16 H17 N O'
_chemical_formula_sum            'C16 H17 N O'
_chemical_formula_weight         239.32
_space_group_crystal_system      monoclinic
_space_group_IT_number           4
_space_group_name_Hall           'P 2yb'
_space_group_name_H-M_alt        'P 1 21 1'
_symmetry_space_group_name_Hall  'P 2yb'
_symmetry_space_group_name_H-M   'P 1 21 1'
_atom_sites_solution_hydrogens   geom
_atom_sites_solution_primary     direct
_atom_sites_solution_secondary   difmap
_cell_angle_alpha                90.0000
_cell_angle_beta                 101.298(2)
_cell_angle_gamma                90.0000
_cell_formula_units_Z            2
_cell_length_a                   7.4860(2)
_cell_length_b                   5.6312(2)
_cell_length_c                   15.5148(4)
_cell_measurement_reflns_used    6124
_cell_measurement_temperature    296
_cell_measurement_theta_max      68.20
_cell_measurement_theta_min      5.82
_cell_volume                     641.35(3)
_computing_cell_refinement       'RAPID AUTO'
_computing_data_collection       'RAPID AUTO (Rigaku, ????)'
_computing_data_reduction        'RAPID AUTO'
_computing_molecular_graphics    'CrystalStructure 4.2.5'
_computing_publication_material  'CrystalStructure 4.2.5 (Rigaku, 2017)'
_computing_structure_refinement  'SHELXL Version 2017/1 (Sheldrick, 2008)'
_computing_structure_solution    'SHELXD97 (Sheldrick, 2008)'
_diffrn_ambient_temperature      296
_diffrn_detector_area_resol_mean 10.000
_diffrn_measured_fraction_theta_full 0.997
_diffrn_measured_fraction_theta_max 0.996
_diffrn_measurement_device_type  'Rigaku R-AXIS RAPID'
_diffrn_measurement_method       \w
_diffrn_radiation_type           'Cu K\a'
_diffrn_radiation_wavelength     1.54187
_diffrn_reflns_av_R_equivalents  0.0349
_diffrn_reflns_Laue_measured_fraction_full 0.997
_diffrn_reflns_Laue_measured_fraction_max 0.996
_diffrn_reflns_limit_h_max       8
_diffrn_reflns_limit_h_min       -9
_diffrn_reflns_limit_k_max       6
_diffrn_reflns_limit_k_min       -6
_diffrn_reflns_limit_l_max       18
_diffrn_reflns_limit_l_min       -18
_diffrn_reflns_number            6746
_diffrn_reflns_point_group_measured_fraction_full 0.941
_diffrn_reflns_point_group_measured_fraction_max 0.939
_diffrn_reflns_theta_full        67.687
_diffrn_reflns_theta_max         68.200
_diffrn_reflns_theta_min         5.817
_diffrn_standards_number         0
_exptl_absorpt_coefficient_mu    0.601
_exptl_absorpt_correction_T_max  0.942
_exptl_absorpt_correction_T_min  0.942
_exptl_absorpt_correction_type   empirical
_exptl_crystal_colour            colorless
_exptl_crystal_density_diffrn    1.239
_exptl_crystal_density_method    'not measured'
_exptl_crystal_description       block
_exptl_crystal_F_000             256.00
_exptl_crystal_size_max          0.400
_exptl_crystal_size_mid          0.300
_exptl_crystal_size_min          0.100
_refine_diff_density_max         0.10
_refine_diff_density_min         -0.11
_refine_ls_abs_structure_details
;
 Flack x determined using 648 quotients [(I+)-(I-)]/[(I+)+(I-)]
 (Parsons, Flack and Wagner, Acta Cryst. B69 (2013) 249-259).
;
_refine_ls_abs_structure_Flack   0.2(2)
_refine_ls_extinction_method     none
_refine_ls_goodness_of_fit_ref   1.093
_refine_ls_hydrogen_treatment    constr
_refine_ls_number_parameters     163
_refine_ls_number_reflns         2198
_refine_ls_number_restraints     1
_refine_ls_R_factor_all          0.0422
_refine_ls_R_factor_gt           0.0337
_refine_ls_shift/su_max          0.000
_refine_ls_structure_factor_coef Fsqd
_refine_ls_weighting_details
'w = 1/[\s^2^(Fo^2^)+(0.0356P)^2^+0.0692P] where P=(Fo^2^+2Fc^2^)/3'
_refine_ls_weighting_scheme      calc
_refine_ls_wR_factor_gt          0.0779
_refine_ls_wR_factor_ref         0.0919
_reflns_Friedel_coverage         0.697
_reflns_Friedel_fraction_full    0.871
_reflns_Friedel_fraction_max     0.867
_reflns_number_gt                1856
_reflns_number_total             2198
_reflns_threshold_expression     F^2^>2.0\s(F^2^)
_cod_data_source_file            jo8b00190_si_001.cif
_cod_data_source_block           sample2
_cod_depositor_comments          'Adding full bibliography for 4033556.cif.'
_cod_database_code               4033556
_shelx_res_file
;
TITL sample2
    shelxl.res
    created by SHELXL-2017/1 at 12:42:56 on 20-Nov-2017
CELL  1.54187 7.48600 5.63120 15.51480 90.00000 101.29800 90.00000
ZERR  2 0.00020 0.00020 0.00040 0.00000 0.00200 0.00000
LATT -1
SYMM    -X, .50+Y,    -Z
SFAC C H N O
UNIT 32 34 2 2
L.S. 5
FMAP 2
PLAN 23
WPDB -2
HTAB
BOND $H
CONF
LIST 4
TEMP 23.0
ACTA
SIZE 0.100 0.300 0.400
WGHT    0.035600    0.069200
FVAR       4.36562
O1    4    0.804647    0.426777    0.594252    11.00000    0.05716    0.06353 =
         0.05281    0.00341    0.00299    0.00409
N1    3   -0.007567    0.369369    0.133669    11.00000    0.05617    0.11295 =
         0.07995   -0.00235   -0.00149   -0.01084
C1    1    0.265413    0.588707    0.122769    11.00000    0.05948    0.06588 =
         0.05064   -0.00698   -0.00074    0.00124
C2    1    0.080988    0.533213    0.097579    11.00000    0.06152    0.10665 =
         0.06453    0.00197   -0.00693    0.00145
AFIX  43
H2    2    0.014067    0.619388    0.051101    11.00000   -1.20000
AFIX   0
C3    1    0.092228    0.252522    0.200362    11.00000    0.06015    0.07918 =
         0.07871   -0.00728    0.00847   -0.01174
AFIX  43
H3    2    0.034750    0.136300    0.227701    11.00000   -1.20000
AFIX   0
C4    1    0.274042    0.290962    0.231825    11.00000    0.05565    0.06409 =
         0.05968   -0.00480    0.00685   -0.00242
AFIX  43
H4    2    0.335732    0.202436    0.278993    11.00000   -1.20000
AFIX   0
C5    1    0.366200    0.462808    0.193031    11.00000    0.05137    0.05345 =
         0.04688   -0.00976    0.00455    0.00101
C6    1    0.570151    0.503363    0.223595    11.00000    0.04887    0.05784 =
         0.05262   -0.00667    0.00459    0.00024
AFIX  13
H6    2    0.632010    0.379037    0.196322    11.00000   -1.20000
AFIX   0
C7    1    0.628061    0.740423    0.190050    11.00000    0.06337    0.07514 =
         0.05914    0.00317   -0.00005   -0.01438
AFIX  23
H7A   2    0.583678    0.869125    0.221712    11.00000   -1.20000
H7B   2    0.759985    0.749375    0.201115    11.00000   -1.20000
AFIX   0
C8    1    0.553738    0.768791    0.092288    11.00000    0.07868    0.08474 =
         0.05846    0.00627    0.00448   -0.01133
AFIX  23
H8A   2    0.601487    0.913113    0.071218    11.00000   -1.20000
H8B   2    0.591974    0.635582    0.060633    11.00000   -1.20000
AFIX   0
C9    1    0.347642    0.780045    0.075641    11.00000    0.08099    0.07377 =
         0.05336    0.00242   -0.00250   -0.00058
AFIX  23
H9A   2    0.310833    0.933653    0.094458    11.00000   -1.20000
H9B   2    0.300499    0.765914    0.013003    11.00000   -1.20000
AFIX   0
C10   1    0.632318    0.476775    0.322358    11.00000    0.03965    0.05304 =
         0.05485   -0.00386    0.00267   -0.00327
C11   1    0.743212    0.291229    0.358278    11.00000    0.04804    0.04965 =
         0.06079   -0.00967    0.00497    0.00340
AFIX  43
H11   2    0.778363    0.179160    0.320834    11.00000   -1.20000
AFIX   0
C12   1    0.804001    0.266198    0.448279    11.00000    0.04575    0.04847 =
         0.06186    0.00051    0.00216    0.00556
AFIX  43
H12   2    0.877956    0.138813    0.470468    11.00000   -1.20000
AFIX   0
C13   1    0.753661    0.432107    0.504507    11.00000    0.03723    0.05125 =
         0.05098    0.00138    0.00367   -0.00237
C14   1    0.643798    0.622127    0.469954    11.00000    0.04427    0.05057 =
         0.05774   -0.00588    0.00698    0.00264
AFIX  43
H14   2    0.610844    0.735758    0.507447    11.00000   -1.20000
AFIX   0
C15   1    0.583712    0.642791    0.380700    11.00000    0.04402    0.04762 =
         0.06088    0.00021    0.00278    0.00803
AFIX  43
H15   2    0.509198    0.769810    0.358667    11.00000   -1.20000
AFIX   0
C16   1    0.904661    0.224032    0.631937    11.00000    0.06885    0.07293 =
         0.06195    0.01485   -0.00011    0.00854
AFIX  33
H16A  2    0.932599    0.240055    0.694746    11.00000   -1.20000
H16B  2    0.832930    0.083577    0.616330    11.00000   -1.20000
H16C  2    1.015769    0.212002    0.610101    11.00000   -1.20000
AFIX   0
HKLF 4




REM  sample2
REM R1 =  0.0337 for    1856 Fo > 4sig(Fo)  and  0.0422 for all    2198 data
REM    163 parameters refined using      1 restraints

END

WGHT      0.0356      0.0692

REM No hydrogen bonds found for HTAB generation

REM Highest difference peak  0.104,  deepest hole -0.106,  1-sigma level  0.026
Q1    1  -0.1001  0.2596  0.1809  11.00000  0.05    0.10
Q2    1   0.7443  0.5659  0.4803  11.00000  0.05    0.10
Q3    1   0.7688  0.4897  0.3365  11.00000  0.05    0.10
Q4    1   0.6339  0.3081  0.3576  11.00000  0.05    0.10
Q5    1   0.5440  0.8404  0.3380  11.00000  0.05    0.09
Q6    1   0.7603  1.0346  0.1267  11.00000  0.05    0.09
Q7    1   0.5999  0.2623  0.3405  11.00000  0.05    0.08
Q8    1   0.9368  0.1961  0.4383  11.00000  0.05    0.08
Q9    1   0.4611  0.4719  0.2201  11.00000  0.05    0.08
Q10   1   0.6717  0.4171  0.6067  11.00000  0.05    0.08
Q11   1   0.2981  0.5845  0.1741  11.00000  0.05    0.08
Q12   1   0.6649  0.9041  0.0536  11.00000  0.05    0.08
Q13   1   0.3286  0.3344  0.2006  11.00000  0.05    0.08
Q14   1   0.4104  0.9347  0.2203  11.00000  0.05    0.08
Q15   1   0.7184  0.3160  0.4774  11.00000  0.05    0.07
Q16   1   0.4455  0.8433  0.3780  11.00000  0.05    0.07
Q17   1   0.5426  0.7507  0.5012  11.00000  0.05    0.07
Q18   1   0.1958  0.4776  0.0807  11.00000  0.05    0.07
Q19   1   0.4701  0.6993  0.3824  11.00000  0.05    0.07
Q20   1   0.9681  0.4440  0.6143  11.00000  0.05    0.07
Q21   1   0.8617  0.3964  0.4653  11.00000  0.05    0.07
Q22   1   0.0386  0.6617  0.0164  11.00000  0.05    0.07
Q23   1   0.2214 -0.0387  0.2996  11.00000  0.05    0.07
;
_shelx_res_checksum              77308
_shelx_hkl_file
;
   0   0   2  850.82   32.24
   0   0   2  857.57   31.46
   0   0   2  887.33   31.32
   0   0   2  848.87   29.24
   0   0  -2  811.68   28.13
   0   0  -2  864.06   30.59
   0   0  -2  785.82   31.04
   0   0  -2  768.31   30.25
   0   0  -2  872.07   32.38
   0   0   328534.80 1495.07
   0   0   327539.70 1464.47
   0   0   328357.10 1451.41
   0   0  -328795.70 1457.36
   0   0  -327582.10 1416.22
   0   0  -328304.00 1455.91
   0   0  -326076.90 1346.63
   0   0   419492.80  955.57
   0   0   418420.40  928.13
   0   0  -419020.50  897.06
   0   0  -417614.00  836.98
   0   0  -418796.00  841.99
   0   0  -418887.40  889.98
   0   0  -419117.30  886.93
   0   0   5  982.16   46.19
   0   0   5 1028.84   42.44
   0   0  -5  901.31   44.43
   0   0  -5  953.56   43.43
   0   0  -5  937.61   42.08
   0   0  -5  905.68   54.46
   0   0  -5  882.00   63.71
   0   0  -5  895.88   25.62
   0   0   6  780.37   38.58
   0   0   6  867.39   36.18
   0   0  -6  731.36   20.15
   0   0  -6  812.52   37.83
   0   0  -6  773.62   32.32
   0   0  -6  807.72   36.08
   0   0  -6  729.66   52.08
   0   0   723912.50 1251.55
   0   0   724377.50 1263.36
   0   0   726798.90 1403.37
   0   0  -725316.10 1318.75
   0   0  -723130.00 1206.68
   0   0  -723317.80 1211.19
   0   0  -726762.40 1369.84
   0   0  -725894.50 1343.38
   0   0   8  539.31   27.67
   0   0   8  559.20   34.02
   0   0   8  550.54   37.59
   0   0  -8  628.38   36.65
   0   0  -8  528.37   33.04
   0   0  -8  517.11   26.04
   0   0  -8  506.52   28.69
   0   0  -8  500.36   27.30
   0   0   9 1301.16   57.88
   0   0   9 1327.46   51.89
   0   0   9 1387.52   65.99
   0   0  -9 1301.77   52.87
   0   0  -9 1223.38   48.77
   0   0  -9 1359.15   57.95
   0   0  -9 1335.19   57.81
   0   0  -9 1323.08   49.81
   0   0  10 3810.73  164.06
   0   0  10 3618.37  140.89
   0   0  10 3629.71  149.96
   0   0 -10 3832.78  151.99
   0   0 -10 3785.00  148.40
   0   0 -10 3763.45  141.54
   0   0 -10 3817.47  152.21
   0   0 -10 3651.62  141.55
   0   0  11   25.70   14.63
   0   0 -11   30.17   11.37
   0   0 -11   18.82    7.79
   0   0 -11   17.53    9.67
   0   0  12  300.38   34.05
   0   0 -12  348.83   28.96
   0   0 -12  283.50   22.96
   0   0 -12  277.87   29.30
   0   0  13   14.89   15.25
   0   0 -13   27.08   19.41
   0   0 -13   16.57   12.95
   0   0 -13   14.93   11.06
   0   0  14   -0.78    9.29
   0   0 -14   -1.09    4.34
   0   0 -14   -1.38    6.57
   0   0  15   39.55   30.78
   0   0 -15   61.82   14.49
   0   0  16   62.03   18.33
   0   0 -16   71.29   13.71
   0   0  17   13.51   10.59
   0   0 -17    9.94    7.42
   0   0  18   41.16   12.51
   0   1   0    4.64    5.99
   0   1   0    5.28    5.82
   0  -1   0    0.15    3.90
   0  -1   0    3.71    5.89
   0  -1   0    4.23    6.08
   0   1  -143826.40 2538.57
   0   1  -142746.40 2482.77
   0  -1   138765.90 2257.16
   0  -1   139587.10 2241.57
   0  -1   141844.80 2480.12
   0  -1  -143126.60 2475.80
   0  -1  -141582.10 2386.14
   0  -1   141815.50 2380.76
   0  -1  -143273.40 2492.20
   0  -1   144861.30 2595.22
   0  -1  -143421.60 2504.78
   0   1   210136.60  410.65
   0   1  -2 9766.04  400.20
   0   1  -2 9937.53  408.27
   0  -1   2 9677.14  392.84
   0  -1   2 9751.85  397.80
   0  -1   2 9737.60  385.82
   0  -1  -210154.70  376.41
   0  -1   2 9179.86  363.74
   0  -1  -210207.90  388.08
   0  -1  -2 9762.77  360.12
   0  -1  -2 9900.00  399.59
   0  -1  -210007.80  425.45
   0  -1  -2 9928.57  396.05
   0   1  -332876.00 1815.79
   0   1   334423.70 1898.05
   0   1  -334550.70 1963.02
   0  -1   334223.80 1881.19
   0  -1   333497.90 1829.77
   0  -1   332410.20 1822.79
   0  -1   330238.80 1599.03
   0  -1  -332176.20 1722.91
   0  -1   334288.70 1875.65
   0  -1  -333317.80 1816.21
   0  -1  -334028.30 1808.35
   0  -1  -334816.80 1908.00
   0  -1  -334326.30 1877.46
   0  -1  -333607.40 1811.43
   0   1   4 6297.85  248.67
   0   1  -4 6247.52  246.96
   0   1  -4 6565.38  248.44
   0  -1   4 5869.80  226.11
   0  -1   4 6018.36  227.97
   0  -1   4 6096.45  208.83
   0  -1   4 5911.13  235.13
   0  -1  -4 6221.34  243.14
   0  -1  -4 6330.78  220.54
   0  -1   4 5971.28  224.63
   0  -1  -4 6484.69  245.63
   0  -1  -4 5890.64  219.89
   0  -1  -4 6309.24  280.48
   0   1  -5 3158.73  151.75
   0   1   5 3064.11  115.99
   0   1   5 2917.61  108.09
   0   1  -5 3202.20  123.78
   0   1  -5 3237.01  112.31
   0  -1   5 2941.34  110.29
   0  -1   5 3038.13   94.37
   0  -1  -5 2969.53   96.52
   0  -1  -5 3009.21  114.54
   0  -1  -5 2954.46  113.87
   0  -1   5 3028.13  124.73
   0  -1  -5 3140.49  101.86
   0  -1  -5 2808.23   99.82
   0  -1   5 3083.46  111.03
   0   1  -6 1401.05   48.29
   0   1  -6 1296.62   78.15
   0   1   6 1316.66   54.41
   0   1   6 1367.34   56.98
   0   1  -6 1346.29   57.24
   0   1  -6 1385.12   60.48
   0  -1   6 1306.01   53.86
   0  -1   6 1315.50   51.18
   0  -1  -6 1395.26   46.08
   0  -1  -6 1315.82   43.79
   0  -1   6 1309.62   39.43
   0  -1   6 1384.37   61.23
   0  -1  -6 1303.07   56.87
   0  -1  -6 1203.49   44.50
   0  -1  -6 1291.13   54.58
   0   1   7 2697.50  107.48
   0   1  -7 2763.63  109.04
   0   1   7 2907.56  139.78
   0   1  -7 2693.49  133.10
   0   1  -7 2706.73  108.20
   0   1  -7 2783.50  104.49
   0  -1   7 2583.54  100.91
   0  -1   7 2806.92   93.19
   0  -1  -7 2702.95  106.42
   0  -1  -7 2803.17   96.33
   0  -1  -7 2844.03   96.03
   0  -1   7 2715.96   86.58
   0  -1  -7 2683.55  103.26
   0  -1  -7 2559.25   90.07
   0  -1   7 2720.10  123.34
   0   1  -8 4532.80  176.41
   0   1  -8 4675.15  186.80
   0   1  -8 4622.49  164.87
   0   1  -8 4961.74  199.42
   0   1   8 4890.60  193.27
   0   1   8 4516.63  210.42
   0   1  -8 4338.64  152.76
   0   1  -8 4708.15  189.45
   0  -1   8 4554.44  176.37
   0  -1   8 4661.06  164.96
   0  -1   8 4733.00  189.88
   0  -1  -8 4401.28  165.03
   0  -1  -8 4733.39  185.69
   0  -1  -8 4811.93  193.42
   0  -1  -8 4888.51  178.61
   0  -1  -8 4824.78  177.19
   0  -1   8 4449.03  157.67
   0   1  -9 1764.66   75.84
   0   1   9 1691.39   98.13
   0   1   9 1791.53   74.63
   0   1  -9 1582.23   51.34
   0   1  -9 1727.13   76.14
   0   1  -9 1614.24   51.91
   0   1  -9 1702.44   68.99
   0   1  -9 1804.50   79.50
   0  -1   9 1759.50   75.47
   0  -1   9 1710.28   68.13
   0  -1  -9 1756.36   70.73
   0  -1  -9 1640.56   60.39
   0  -1  -9 1661.38   60.83
   0  -1   9 1621.47   53.10
   0  -1  -9 1846.77   65.29
   0  -1  -9 1744.95   62.41
   0   1  10 3328.92  144.82
   0   1 -10 3145.42  159.71
   0   1 -10 3022.78  121.98
   0   1 -10 3263.73  138.10
   0  -1  10 3254.43  136.73
   0  -1 -10 3201.80  119.18
   0  -1 -10 3054.68  114.99
   0  -1 -10 3118.31  116.89
   0  -1 -10 3362.66  123.91
   0  -1 -10 3178.23  128.06
   0   1  11 1065.91   61.74
   0   1 -11 1030.91   50.98
   0  -1 -11 1157.75   61.84
   0  -1 -11 1029.47   49.86
   0  -1  11 1035.77   80.45
   0  -1 -11  945.69   39.43
   0   1  12   56.88   22.38
   0   1 -12  198.43   22.71
   0   1 -12   88.92   15.83
   0  -1  12   49.94   30.86
   0  -1 -12   41.34   24.98
   0  -1 -12   50.22   11.33
   0   1  13  706.23   54.12
   0   1 -13  668.44   40.12
   0   1 -13  690.82   48.59
   0  -1 -13  642.47   31.40
   0  -1  13  680.97   44.34
   0  -1 -13  683.59   39.39
   0   1  14   13.22   14.82
   0   1 -14   15.40   22.80
   0   1 -14   12.92    9.66
   0  -1  14   13.36   11.19
   0  -1 -14   18.52    9.34
   0  -1 -14    9.39    6.91
   0   1  15  231.62   31.35
   0   1 -15  228.09   26.24
   0   1 -15  207.35   30.34
   0  -1  15  212.00   24.36
   0  -1 -15  214.69   19.40
   0   1 -16    5.39    5.67
   0   1  16    9.67   21.57
   0   1 -16   12.33   10.65
   0  -1  16   10.86    9.22
   0  -1 -16   13.07    6.63
   0   1  17   58.27   17.22
   0   1 -17   78.62   14.98
   0  -1  17   62.62   13.31
   0   1  18   13.04    9.72
   0   1 -18   13.29    7.93
   0  -1  18    9.22   10.63
   0  -2   0 8471.43  343.84
   0  -2   0 8422.29  320.87
   0  -2   0 8393.27  319.68
   0  -2   0 8776.04  354.11
   0   2  -1  174.95   20.19
   0  -2   1  159.17   18.82
   0  -2   1  151.97   18.90
   0  -2  -1  149.90   15.39
   0  -2  -1  150.47   13.08
   0  -2  -1  149.28   12.26
   0  -2   1  151.63    8.58
   0  -2  -1  155.02   16.66
   0   2  -2  825.80   35.90
   0   2  -2  559.56   34.83
   0  -2   2  520.09   20.69
   0  -2  -2  810.74   30.24
   0  -2   2  536.73   35.73
   0  -2  -2  552.33   38.27
   0  -2   2  537.56   53.72
   0  -2  -2  556.94   24.40
   0  -2  -2  517.84   26.51
   0   2  -3  786.37   60.86
   0   2  -3  776.58   28.26
   0  -2   3 1025.07   45.76
   0  -2  -3  764.07   54.25
   0  -2  -3  786.33   32.13
   0  -2  -3  802.77   27.76
   0  -2   3  728.13   37.56
   0  -2  -3  789.44   31.97
   0   2  -4  316.40   25.25
   0   2  -4  338.16   27.25
   0   2  -4  322.73   17.97
   0  -2   4  305.40   16.08
   0  -2  -4  335.86   20.18
   0  -2  -4  329.09   17.75
   0  -2  -4  323.48   11.91
   0  -2   4  337.31   26.77
   0  -2  -4  329.81   24.09
   0   2  -5 1365.92   50.43
   0   2  -5 1405.25   59.96
   0   2  -5 1463.92   59.63
   0  -2   5 1340.26   46.93
   0  -2  -5 1339.56   31.96
   0  -2   5 1431.06   56.78
   0  -2   5 1383.32   61.39
   0  -2  -5 1195.19   31.01
   0  -2  -5 1290.85   34.97
   0  -2   5 1391.76   48.10
   0  -2  -5 1415.15   59.56
   0  -2  -5 1339.69   70.29
   0  -2  -5 1376.78   47.42
   0   2   6  141.48   18.22
   0   2  -6  132.95   14.68
   0   2  -6  145.37   16.24
   0   2  -6  141.09   18.42
   0   2  -6   -1.34   21.40
   0  -2   6  130.92   15.41
   0  -2  -6  132.24   16.27
   0  -2   6  132.65   12.19
   0  -2   6  139.30   12.29
   0  -2  -6  140.00   18.86
   0  -2  -6  137.29    4.62
   0  -2  -6  124.18    6.90
   0  -2  -6  135.88   18.26
   0   2   7 1593.86   95.57
   0   2  -7 1540.34   67.12
   0   2  -7 1591.93   63.77
   0   2  -7 1574.62   60.70
   0   2  -7 1697.69   77.37
   0  -2  -7 1604.05   69.48
   0  -2   7 1512.21   57.17
   0  -2   7 1538.68   58.49
   0  -2   7 1521.77   57.11
   0  -2  -7 1585.32   66.23
   0  -2  -7 1504.74   64.93
   0   2  -8  447.29   27.49
   0   2   8  314.34   47.36
   0   2  -8  291.08   30.07
   0   2  -8  324.67   20.29
   0   2  -8  273.56   25.79
   0  -2  -8  288.16   24.99
   0  -2   8  300.82   19.87
   0  -2  -8  277.76   23.52
   0  -2   8  286.31   19.91
   0  -2   8  277.21   29.79
   0  -2  -8  298.68   26.86
   0   2  -9    2.99    9.17
   0   2  -9    0.67    9.32
   0  -2   9    3.02    5.89
   0  -2  -9    2.77    6.65
   0  -2   9   -0.05    4.79
   0  -2   9    6.59    5.44
   0  -2  -9    2.46    7.98
   0  -2  -9    6.59   14.56
   0   2 -10 1125.63   62.84
   0  -2  10 1034.47   38.95
   0  -2 -10 1165.03   86.01
   0  -2  10 1163.83   52.37
   0   2  11 3454.46  159.20
   0   2 -11 3546.07  163.95
   0  -2  11 3620.20  152.77
   0  -2 -11 3583.24  161.77
   0   2 -12 1076.08   59.73
   0   2  12 1119.12   66.93
   0   2 -12 1353.47   76.52
   0  -2  12 1058.12   54.55
   0  -2 -12 1123.99   64.40
   0   2  13  266.98   31.98
   0   2 -13  264.95   26.76
   0   2 -13  261.11   51.28
   0  -2 -13  265.18   28.47
   0  -2  13  258.16   23.40
   0   2  14  375.29   36.55
   0   2 -14  398.09   31.52
   0   2 -14  398.23   35.24
   0  -2 -14  361.27   30.59
   0  -2  14  348.77   26.17
   0   2  15   66.32   18.53
   0   2 -15   54.52   13.76
   0   2 -15   76.44   17.56
   0  -2  15   46.46   11.96
   0  -2 -15   60.65   14.49
   0   2  16   34.85   25.12
   0   2 -16   23.93   15.68
   0   2 -16   37.17   13.92
   0  -2 -16   39.13   11.15
   0  -2  16   18.32   13.53
   0   2  17    5.46    8.15
   0   2 -17    3.50    7.88
   0  -3   0    0.10    5.56
   0  -3   0    0.79    2.88
   0  -3   0    1.13    5.74
   0  -3   0    1.67    2.77
   0  -3   1  326.44   14.02
   0  -3   1  305.88   10.92
   0  -3   1  329.10   25.75
   0  -3   1  352.29   40.23
   0  -3  -1  340.95   22.36
   0  -3  -1  338.35   14.97
   0  -3  -1  335.33   35.79
   0  -3  -1  316.78   24.30
   0   3  -2 5142.59  244.34
   0  -3   2 5055.22  204.55
   0  -3   2 5099.90  203.94
   0  -3  -2 5130.37  195.41
   0  -3  -2 4846.87  180.72
   0  -3   2 4627.33  164.03
   0  -3  -2 4912.81  178.60
   0  -3  -2 5097.41  193.42
   0   3  -3 3226.51  131.51
   0  -3   3 3099.99  126.78
   0  -3   3 2941.17  107.82
   0  -3   3 3149.92  127.44
   0  -3  -3 3033.14  111.52
   0  -3  -3 3195.78  117.77
   0  -3  -3 3109.75  109.95
   0  -3  -3 3063.52  107.42
   0   3  -4 2932.74  103.26
   0   3  -4 3262.38  131.88
   0   3  -4 3586.17  145.86
   0  -3   4 3174.04  107.43
   0  -3  -4 3506.36  144.19
   0  -3   4 3529.64  143.87
   0  -3  -4 3469.51  123.38
   0  -3  -4 3404.25  128.35
   0  -3  -4 3178.58  111.63
   0   3  -5 1437.17   66.09
   0   3  -5 1573.03   71.38
   0  -3   5 1387.88   46.59
   0  -3   5 1492.87   69.88
   0  -3  -5 1560.41   64.15
   0  -3  -5 1541.08   68.52
   0  -3   5 1643.26   70.54
   0  -3   5 1442.84   47.58
   0  -3  -5 1573.46   73.08
   0   3  -6  369.75   29.93
   0  -3   6  354.80   31.57
   0  -3   6  337.38   15.29
   0  -3   6  364.79   27.88
   0  -3   6  317.66   15.18
   0  -3  -6  355.98   26.52
   0  -3  -6  339.89   17.70
   0  -3  -6  366.09   22.19
   0   3  -7  692.24   46.90
   0  -3   7  613.41   24.22
   0  -3   7  557.81   34.92
   0  -3   7  573.63   23.57
   0  -3  -7  612.63   25.32
   0  -3  -7  661.36   38.46
   0  -3  -7  694.08   34.40
   0   3  -8  261.82   32.15
   0  -3   8  234.57   22.51
   0  -3   8  205.79   13.13
   0  -3  -8  266.28   22.65
   0  -3  -8  253.54   26.02
   0   3  -9 2401.79  107.04
   0   3  -9 2402.83  122.85
   0  -3  -9 2349.53  110.93
   0  -3   9 2430.04  104.47
   0  -3  -9 2572.86  109.37
   0   3 -10  473.25   48.63
   0   3 -10  666.00   42.12
   0  -3 -10  490.11   44.51
   0  -3  10  472.89   46.75
   0   3 -11  231.85   33.43
   0   3  11  249.65   28.85
   0   3 -11  402.29   46.16
   0  -3 -11  239.17   30.93
   0  -3  11  193.17   26.78
   0   3  12  186.70   24.50
   0   3 -12  172.34   37.58
   0   3 -12  166.48   47.49
   0  -3 -12  197.83   28.44
   0   3  13   86.45   18.65
   0   3 -13   97.38   17.72
   0   3 -13  104.50   20.74
   0  -3 -13  107.34   21.67
   0   3  14   16.47   11.46
   0   3 -14   19.89   10.82
   0   3 -14   20.37   11.93
   0  -3 -14   21.47   12.73
   0   3  15   10.09    9.36
   0   3 -15    9.27    9.19
   0   3 -15   12.02    9.19
   0  -3 -15   12.12   10.10
   0   3  16   57.20   22.73
   0   3 -16   95.24   12.48
   0   3 -16   89.78   13.92
   0  -3 -16   82.36   25.98
   0  -4   0 2539.42  107.20
   0  -4   0 2543.27  130.07
   0  -4   1 1765.28   79.83
   0  -4   1 1730.08  107.03
   0  -4  -1 1831.06   78.22
   0  -4  -1 1833.87   99.87
   0  -4   2 1573.60  102.49
   0  -4   2 1404.03   67.66
   0  -4  -2 1483.43   62.15
   0  -4  -2 1424.15   59.29
   0  -4   3    4.37   10.08
   0  -4  -3    3.69    9.26
   0  -4  -3    8.58    6.60
   0  -4   4  149.36   22.87
   0  -4   4  140.33   22.82
   0  -4  -4  139.39   13.70
   0  -4  -4  128.68   13.82
   0  -4   5  658.72   44.48
   0  -4   5  649.31   46.05
   0  -4  -5  648.23   33.77
   0  -4  -5  619.94   29.12
   0   4  -6    3.31   29.99
   0  -4   6  281.09   45.48
   0  -4  -6  259.22   15.33
   0  -4  -6  170.75   20.80
   0   4  -7 1122.65   70.34
   0  -4  -7  985.92   50.74
   0  -4  -7  953.80   41.20
   0  -4   7 1007.48   85.55
   0   4  -8 1015.97   68.50
   0  -4   8  894.74   78.17
   0  -4  -8  946.43   51.72
   0  -4  -8  896.92   40.49
   0   4  -9 1109.99   71.23
   0  -4   9 1012.62   56.42
   0  -4  -9 1032.90   57.06
   0   4  10  471.95   30.07
   0   4 -10  527.47   45.92
   0  -4  10  548.94   36.69
   0  -4 -10  526.71   37.98
   0   4 -11  346.11   36.89
   0   4  11  316.67   23.67
   0  -4 -11  353.54   31.54
   0  -4  11  335.91   25.23
   0   4  12   54.78   11.02
   0   4 -12   39.00    9.44
   0   4 -12   64.19   30.86
   0  -4  12   35.18    8.41
   0  -4 -12   63.02   15.34
   0   4  13   29.33    9.57
   0   4 -13   41.11   14.79
   0  -4 -13   39.77   24.21
   0   4 -14   55.41   14.60
   0  -4 -14   56.72   15.59
   0  -5   0   -1.72    7.16
   0  -5   0    7.11    8.42
   0  -5   1  646.65   40.68
   0  -5   1  560.42   43.39
   0  -5  -1  620.89   38.97
   0  -5  -1  611.02   36.52
   0  -5   2  839.25   54.95
   0  -5   2  889.61   50.15
   0  -5  -2  781.39   39.59
   0  -5  -2  802.78   42.20
   0  -5   3  287.40   29.68
   0  -5  -3  269.45   20.81
   0  -5   4  266.79   29.47
   0   5  -5   37.69   17.40
   0   5  -6  497.39   44.92
   0  -5   6  622.77   47.67
   0   5  -7  241.30   30.18
   0  -5   7  232.16   29.37
   0  -5  -7  195.62   18.18
   0   5  -8   98.64   22.19
   0  -5   8   80.93   19.20
   0  -5  -8   63.85   13.03
   0   5  -9   32.39   16.38
   0  -5   9   30.23   13.36
   0  -5  -9   25.09   10.20
   0   5 -10   57.58   17.25
   0  -5  10   38.85   12.31
   0  -5 -10   29.95   11.39
   0   5 -11   22.24   24.22
   0  -5  11   26.12    9.87
   0  -5 -11   23.03    9.28
   0   5 -12    1.79    6.41
   0  -5 -12    0.01    4.56
   0  -6   0 1027.43   64.15
   0   6  -1  157.59   18.35
   0  -6   1  194.77   20.21
   0  -6  -1  169.34   14.92
   0  -6  -1  160.71   14.60
   0   6  -2  178.08   20.09
   0  -6   2  162.23   20.35
   0   6  -3  150.38   22.30
   0  -6   3  258.91   25.20
   0   6  -4    7.06    9.52
   0   6  -5    1.57    7.29
   0  -6   5    2.94    8.56
   0   6  -6    7.98    8.40
   0  -6   6    1.12    9.79
   0   6  -7  125.00   18.99
   0  -6   7  132.92   20.01
   0   6  -8    1.13    6.25
   0  -6   8    0.99    6.32
   1   0 -18   58.83   10.29
  -1   0  18   60.36   12.82
  -1   0  17   86.67   16.68
   1   0 -16   25.77   10.81
  -1   0  16   16.73   21.84
   1   0 -15    0.21   10.16
  -1   0  15   22.65   11.79
   1   0 -14   80.04   12.49
  -1   0  14   91.18   20.10
   1   0 -13   43.72   10.53
  -1   0  13   28.45   16.90
   1   0 -12  649.07   39.32
   1   0 -12  574.92   31.39
  -1   0  12  562.87   42.16
   1   0 -11    8.68    7.14
   1   0 -11    5.16    4.26
   1   0 -11   10.12    8.61
   1   0 -11    5.92    4.86
  -1   0  11    6.90   10.32
   1   0 -10   -1.71   12.24
   1   0 -10    0.67    3.45
   1   0 -10    3.09    3.94
   1   0 -10   -0.35    7.10
   1   0 -10    8.74    5.66
  -1   0  10   -0.43   11.71
  -1   0  10   -0.64   10.53
  -1   0  10    1.03    7.91
   1   0  -9 1640.62   81.84
   1   0  -9 1690.98   69.65
   1   0  -9 1558.49   54.28
   1   0  -9 1650.02   54.70
  -1   0   9 1661.04   86.73
  -1   0   9 1642.46   88.80
   1   0  -8 7358.47  299.51
   1   0  -8 6799.51  277.29
   1   0  -8 7090.94  284.69
   1   0  -8 6739.19  261.31
   1   0  -8 7082.75  283.46
  -1   0   8 7039.65  286.05
  -1   0   8 7009.75  285.08
  -1   0   8 7224.59  320.09
   1   0  -7  659.23   36.32
   1   0  -7  695.53   32.81
   1   0  -7  645.95   33.12
   1   0  -7  726.42   34.83
  -1   0   7  680.32   33.81
  -1   0   7  694.00   34.87
  -1   0   7  679.28   33.78
   1   0  -6  943.43   40.85
   1   0  -6  882.43   31.72
   1   0  -6  996.81   43.22
   1   0  -6  911.06   40.11
  -1   0   6  976.22   41.05
  -1   0   6 1012.14   43.99
  -1   0   6  943.28   41.47
   1   0  -5  251.27   20.73
   1   0  -5  267.34   23.07
   1   0  -5  239.11   14.47
   1   0  -5  280.04   22.20
  -1   0   5  262.13   21.96
  -1   0   5  276.36   24.74
  -1   0   5  280.85   21.84
   1   0  -4 6815.42  302.65
   1   0  -4 6777.46  258.11
   1   0  -4 6721.58  238.51
   1   0  -4 6833.22  306.46
   1   0  -4 6355.66  273.20
  -1   0   4 6397.98  249.60
  -1   0   4 6748.96  265.45
  -1   0   4 6566.60  250.85
   1   0  -3  784.86   37.49
   1   0  -3  747.95   37.30
   1   0  -3  751.60   22.87
  -1   0   3  763.54   50.42
  -1   0   3  855.35   65.22
  -1   0   3  731.68   35.65
   1   0  -231477.90 1607.30
   1   0  -231802.80 1678.21
   1   0  -232935.30 1741.33
  -1   0   230313.80 1606.60
  -1   0   231613.40 1654.74
  -1   0   232592.10 1765.13
  -1   0   232880.80 1745.50
  -1   0   229102.40 1548.90
   1   0  -1 1029.78   39.12
   1   0  -1 1053.89   35.74
   1   0  -1 1079.59   40.36
  -1   0   1  969.87   39.60
  -1   0   1 1024.51   32.05
  -1   0   1  916.50   38.25
  -1   0   1 1057.97   41.21
  -1   0   1  986.76   37.74
   1   0   0 6590.91  237.86
   1   0   0 7633.20  275.72
   1   0   0 7062.80  250.60
   1   0   0 7401.41  263.00
  -1   0   0 6983.11  248.42
  -1   0   0 7244.78  263.79
  -1   0   0 6941.15  253.44
  -1   0   0 7317.01  258.32
   1   0   1 3099.91   97.68
   1   0   1 2861.32  100.45
   1   0   1 2849.68  114.96
   1   0   1 3101.60  106.21
  -1   0  -1 2960.33   91.11
  -1   0  -1 2815.42   96.45
  -1   0  -1 3050.86  104.11
  -1   0  -1 3051.14  101.38
   1   0   2 7425.75  284.24
   1   0   2 6978.26  279.81
   1   0   2 7548.38  276.44
   1   0   2 7729.54  297.08
  -1   0  -2 7063.61  278.06
  -1   0  -2 7844.67  298.36
  -1   0  -2 7739.52  283.09
  -1   0  -2 7594.55  292.63
   1   0   3 1002.98   37.28
   1   0   3  941.24   47.22
   1   0   3  936.85   45.67
   1   0   3 1027.84   47.51
   1   0   3  969.93   54.01
  -1   0  -3  998.76   34.08
  -1   0  -3  890.32   48.45
  -1   0  -3 1049.65   71.80
   1   0   4 4282.09  168.49
   1   0   4 4522.41  182.70
   1   0   4 4475.63  156.53
   1   0   4 4344.19  166.38
  -1   0  -4 4693.80  145.51
  -1   0  -4 4460.04  168.06
  -1   0  -4 4144.67  167.07
  -1   0  -4 4540.80  172.76
   1   0   5  370.12   28.45
   1   0   5  365.82   28.81
   1   0   5  332.21   24.90
   1   0   5  390.41   19.28
  -1   0  -5  339.46   27.45
  -1   0  -5  361.15   28.70
  -1   0  -5  371.87   25.46
  -1   0  -5  385.69   25.61
  -1   0  -5  333.10    7.65
   1   0   6  966.66   48.66
   1   0   6  979.19   35.74
   1   0   6  892.74   43.27
  -1   0  -6  911.53   46.57
  -1   0  -6  980.35   47.21
  -1   0  -6  930.69   47.15
  -1   0  -6  977.08   44.21
   1   0   729403.00 1713.32
   1   0   732728.30 1838.54
   1   0   730333.30 1724.52
  -1   0  -729018.10 1637.35
  -1   0  -735558.80 1978.66
  -1   0  -732015.00 1800.43
  -1   0  -734776.60 1931.31
  -1   0  -731384.30 1753.89
   1   0   8    1.93    4.42
   1   0   8   12.11    7.32
   1   0   8    0.17    8.43
  -1   0  -8    1.51    6.92
  -1   0  -8    0.49    7.44
  -1   0  -8    0.97   11.98
  -1   0  -8   -0.45    7.39
  -1   0  -8    0.52    6.93
   1   0   9  839.82   44.78
   1   0   9  887.90   51.09
   1   0   9  861.71   34.75
  -1   0  -9  864.89   44.07
  -1   0  -9  842.78   44.23
  -1   0  -9  862.87   62.06
  -1   0  -9  897.70   64.18
  -1   0  -9  841.21   42.62
   1   0  10  910.19   37.60
   1   0  10  913.91   56.38
  -1   0 -10 1001.59   69.39
  -1   0 -10  957.65   36.51
  -1   0 -10  950.41   49.97
   1   0  11  480.82   41.44
  -1   0 -11  482.29   33.80
  -1   0 -11  440.27   21.34
  -1   0 -11  486.35   32.51
   1   0  12    6.74   13.38
  -1   0 -12    9.44   17.12
  -1   0 -12    6.94    9.45
   1   0  13  494.63   67.92
  -1   0 -13  458.71   31.52
  -1   0 -13  497.05   33.57
   1   0  14  435.18   40.42
  -1   0 -14  413.65   28.38
  -1   0 -14  448.47   31.40
   1   0  15  102.58   21.74
  -1   0 -15   96.01   15.38
  -1   0 -15   90.95   13.48
   1   0  16   17.37   12.70
  -1   0 -16   28.82    9.42
  -1   0 -16   10.04    6.67
   1   0  17    5.95    9.56
  -1   0 -17    8.54   10.51
  -1   1  18    9.59    9.28
  -1   1  17   15.23   19.47
   1  -1 -17   12.95    6.85
  -1  -1  17    5.37    7.06
  -1   1  16  371.16   35.41
   1  -1 -16  364.05   25.05
  -1  -1  16  304.95   24.86
  -1   1  15   27.94   17.21
   1  -1 -15   35.93   12.36
  -1  -1  15   33.97   11.92
  -1   1  14  220.61   31.52
   1  -1 -14  211.79   36.25
  -1  -1  14  190.93   36.75
   1   1 -13   41.34   11.99
  -1   1  13   55.76   22.73
   1  -1 -13   58.23   16.63
   1  -1 -13  140.02   12.70
  -1  -1  13   59.87   29.09
   1   1 -12 1758.10   84.38
   1   1 -12 1453.83   61.66
  -1   1  12 1574.38   84.32
   1  -1 -12 1415.99   67.75
   1  -1 -12 1515.38   62.20
  -1  -1  12 1559.77   74.98
   1   1 -11 1767.61   82.36
   1   1 -11 1701.92   86.99
   1   1 -11 1641.76   59.59
   1  -1 -11 1714.85   77.54
   1  -1 -11 1794.10   68.38
  -1  -1  11 1801.82   79.99
  -1  -1  11 1523.47   58.87
  -1   1  10 1091.84   54.31
   1   1 -10 1038.71   46.32
   1   1 -10 1023.28   48.55
   1   1 -10  952.91   35.15
   1   1 -10 1097.95   57.28
   1   1 -10 1032.54   42.25
   1  -1 -10 1097.43   42.69
   1  -1 -10 1022.29   54.13
   1  -1 -10 1019.43   40.23
  -1  -1  10 1072.63   50.17
  -1  -1  10 1031.50   45.12
  -1  -1  10  960.37   38.59
  -1  -1  10  965.81   40.84
   1  -1 -10 1058.32   51.05
  -1   1   9  629.69   36.26
   1   1  -9  643.75   32.10
   1   1  -9  634.65   28.85
   1   1  -9  627.13   25.48
   1   1  -9  598.36   24.96
   1   1  -9  689.53   41.44
  -1   1   9  657.07   38.69
   1  -1  -9  632.02   37.61
   1  -1  -9  610.79   26.40
   1  -1  -9  648.15   36.18
   1  -1  -9  544.50   19.12
   1  -1  -9  594.84   19.70
  -1  -1   9  626.63   32.15
   1  -1  -9  653.93   27.54
  -1  -1   9  568.91   26.99
  -1  -1   9  577.80   25.32
  -1  -1   9  610.81   24.85
  -1   1   8  545.42   33.33
   1   1  -8  544.13   25.75
   1   1  -8  574.21   29.56
   1   1  -8  551.68   23.38
   1   1  -8  554.58   25.72
  -1   1   8  589.23   36.13
   1  -1  -8  577.19   25.94
   1  -1  -8  575.79   33.15
   1  -1  -8  558.14   35.01
   1  -1  -8  553.75   36.53
   1  -1  -8  540.73   17.82
  -1  -1   8  519.33   23.99
  -1  -1   8  554.54   34.46
   1  -1  -8  512.67   17.62
  -1  -1   8  559.53   24.23
  -1  -1   8  552.99   28.09
  -1  -1   8  528.29   24.60
   1   1  -7 3935.51  141.60
   1   1  -7 3830.25  143.10
   1   1  -7 3839.92  134.41
  -1   1   7 3703.89  129.69
   1   1  -7 3739.65  135.80
  -1   1   7 3777.01  145.08
  -1   1   7 4041.82  157.40
   1  -1  -7 3780.32  173.54
   1  -1  -7 3692.87  120.42
  -1  -1   7 3676.62  131.94
   1  -1  -7 3529.15  116.24
   1  -1  -7 3738.42  146.16
   1  -1  -7 3931.05  152.63
  -1  -1   7 3841.27  150.10
  -1  -1   7 3644.20  134.31
  -1  -1   7 3696.45  131.06
  -1  -1   7 3661.99  131.31
  -1   1   6 1795.24   71.42
  -1   1   6 1910.12   77.37
   1   1  -6 1842.63   66.49
   1   1  -6 1781.97   75.36
   1   1  -6 1912.40   70.59
  -1   1   6 1821.56   59.89
   1  -1  -6 1779.25   99.56
  -1  -1   6 1832.22   74.42
  -1  -1   6 1790.29   65.23
   1  -1  -6 1755.14   51.60
  -1  -1   6 1781.56   62.81
  -1  -1   6 1730.66   61.77
  -1  -1   6 1858.51   62.24
   1  -1  -6 2354.21   85.15
   1  -1  -6 1807.14   73.36
   1   1  -5 1503.25   87.22
   1   1  -5 1447.88   56.39
  -1   1   5 1316.57   56.54
  -1   1   5 1404.48   61.12
   1   1  -5 1385.97   50.16
   1  -1  -5 1383.00   60.22
   1  -1  -5 1381.73   38.66
  -1  -1   5 2041.33   73.10
   1  -1  -5 1393.40   45.50
  -1  -1   5 1356.76   45.20
  -1  -1   5 1279.32   51.73
  -1  -1   5 1324.26   49.56
   1  -1  -5 1335.96   58.73
  -1  -1   5 1266.35   45.57
  -1  -1   5 1363.04   54.16
   1   1  -434504.90 1936.27
   1   1  -430961.60 1655.26
   1   1  -431220.40 1689.54
   1   1  -431076.60 1762.75
  -1   1   430303.10 1649.55
  -1   1   433093.70 1808.64
   1  -1  -431037.40 1632.84
   1  -1  -432150.40 1743.84
   1  -1  -432314.90 1751.08
   1  -1  -428651.60 1540.06
  -1  -1   430222.30 1631.65
   1  -1  -430873.30 1641.41
  -1  -1   429840.00 1586.32
  -1  -1   433957.60 1905.43
  -1  -1   428231.60 1522.55
  -1  -1   431799.60 1775.05
  -1  -1   429712.50 1582.63
   1   1  -335177.10 1978.75
   1   1  -335185.40 2015.19
  -1   1   334541.10 1928.23
   1  -1  -333053.30 1843.93
   1  -1  -335209.80 2019.15
   1  -1  -334598.10 1846.31
   1  -1  -335913.30 1995.34
  -1  -1   337034.70 2056.80
  -1  -1   335195.00 1952.60
   1  -1  -334713.50 1892.28
  -1  -1   335609.20 2054.53
  -1  -1   334132.90 1842.49
  -1  -1   333318.50 1798.74
   1   1  -287727.30 6338.22
  -1   1   286293.10 6232.37
   1   1  -283476.40 6065.31
   1  -1  -283124.70 6102.25
   1  -1  -287606.20 6323.20
   1  -1  -280259.10 5741.81
   1  -1  -288389.70 6235.32
   1  -1  -284926.00 6107.93
  -1  -1   283291.00 5848.67
  -1  -1   275928.50 5346.59
  -1  -1   283347.20 6125.81
  -1  -1   291178.20 6557.16
  -1  -1   286806.60 6253.93
  -1   1   151312.40 3195.24
   1   1  -152317.70 3258.13
   1   1  -153249.50 3308.42
  -1   1   150513.40 3142.43
   1  -1  -148269.00 2934.70
   1  -1  -155327.90 3497.07
   1  -1  -152702.50 3228.46
  -1  -1   153901.70 3372.97
  -1  -1   151933.70 3216.64
  -1  -1   150853.70 3157.43
  -1  -1   151981.30 3298.28
   1  -1  -153094.60 3301.45
   1  -1  -150547.30 3095.46
  -1   1   013029.00  569.15
   1   1   013860.60  602.94
   1   1   013041.20  567.70
  -1   1   013191.30  577.84
   1  -1   012989.30  567.70
   1  -1   012673.80  525.31
   1  -1   013492.90  564.25
   1  -1   013073.10  522.09
  -1  -1   013050.20  566.67
  -1  -1   013685.90  614.65
  -1  -1   013499.50  561.22
  -1  -1   013358.30  581.68
   1  -1   013273.10  575.28
  -1   1  -134776.70 1933.13
   1   1   135787.70 1991.22
  -1   1  -133172.00 1851.79
   1   1   134822.00 1995.50
   1  -1   132898.20 1888.15
   1  -1   136001.80 1986.24
   1  -1   135666.70 1961.29
  -1  -1  -135340.60 1916.52
  -1  -1  -136096.40 1994.85
  -1  -1  -135045.10 1941.48
  -1  -1  -134430.80 1854.33
   1  -1   134654.80 1902.42
  -1  -1  -133619.20 1825.90
   1   1   2  829.92   42.49
   1   1   2  899.78   48.71
  -1   1  -2  732.04   66.67
  -1   1  -2  843.64   44.15
  -1   1  -2  836.30   46.80
  -1   1  -2  754.02   54.61
   1  -1   2  797.42   59.92
  -1  -1  -2  805.25   22.77
  -1  -1  -2  804.50   42.67
   1  -1   2  787.55   41.98
   1  -1   2  837.80   37.78
  -1  -1  -2  787.39   41.60
  -1  -1  -2  759.16   42.47
  -1  -1  -2  808.79   30.69
  -1   1  -3 1936.14   69.93
   1   1   3 1962.25   82.14
   1   1   3 1924.08   76.22
  -1   1  -3 1838.20   71.45
  -1   1  -3 1969.67   81.82
  -1   1  -3 1770.45   75.43
  -1   1  -3 1884.11   79.77
   1  -1   3 1819.91   74.67
  -1  -1  -3 1806.79   74.26
   1  -1   3 1856.28   65.71
  -1  -1  -3 1832.31   64.78
  -1  -1  -3 1854.61   75.01
  -1  -1  -3 1739.91   57.79
  -1   1  -4 4619.04  176.95
  -1   1  -4 4347.99  171.22
  -1   1  -4 4242.30  160.13
  -1   1  -4 4058.86  159.79
  -1   1  -4 4459.18  155.62
   1  -1   4 4331.61  149.88
  -1  -1  -4 4104.43  158.48
   1  -1   4 4093.55  159.57
   1  -1   4 4163.77  122.38
  -1  -1  -4 4289.88  163.65
  -1  -1  -4 4331.66  157.03
  -1  -1  -4 4249.60  146.57
  -1   1  -5 4848.09  181.84
   1   1   5 4858.38  182.65
  -1   1  -5 4638.43  184.68
  -1   1  -5 4173.02  165.52
  -1   1  -5 4696.59  178.65
  -1   1  -5 4609.80  176.16
   1  -1   5 4914.88  169.38
  -1  -1  -5 4745.78  167.18
   1  -1   5 4555.67  142.49
   1  -1   5 4485.83  209.30
   1  -1   5 4577.45  174.99
  -1  -1  -5 4188.64  162.86
  -1  -1  -5 4506.16  159.09
  -1  -1  -5 4562.67  205.26
   1   1   6 3958.80  149.12
   1   1   6 3910.76  149.67
  -1   1  -6 3987.66  160.95
  -1   1  -6 3577.70  143.80
  -1   1  -6 4080.69  135.90
  -1   1  -6 3926.99  151.35
  -1   1  -6 3988.26  152.69
   1  -1   6 3840.23  147.78
  -1  -1  -6 3946.64  175.54
   1  -1   6 3877.38  121.01
   1  -1   6 3920.24  188.37
  -1  -1  -6 3408.04  132.78
  -1  -1  -6 3812.13  133.65
  -1  -1  -6 3929.57  137.11
   1   1   7  359.32   27.93
   1   1   7  351.24   23.89
  -1   1  -7  330.26   28.12
  -1   1  -7  361.09   13.61
  -1   1  -7  364.31   27.94
  -1   1  -7  355.90   27.06
  -1   1  -7  357.60   30.79
   1  -1   7  328.90   14.47
  -1  -1  -7  367.02   19.40
   1  -1   7  351.44   46.74
   1  -1   7  341.70   26.27
  -1  -1  -7  352.43   18.94
  -1  -1  -7  317.21   23.46
  -1  -1  -7  351.42   39.79
   1   1   8 1838.45   73.16
   1   1   8 1864.00   80.08
  -1   1  -8 1883.97   80.31
  -1   1  -8 1731.50   76.91
  -1   1  -8 1870.11  116.57
  -1   1  -8 1900.41  109.12
  -1  -1  -8 1812.11   82.67
  -1  -1  -8 1928.96   69.24
   1  -1   8 1812.56   76.80
   1  -1   8 1835.51  109.22
  -1  -1  -8 1811.94   72.96
  -1  -1  -8 1825.25   73.41
   1   1   9 1357.64   65.89
   1   1   9 1354.87   79.23
  -1   1  -9 1236.24   84.73
  -1   1  -9 1304.38   64.06
  -1   1  -9 1329.53   63.69
  -1   1  -9 1357.18   64.52
  -1  -1  -9 1306.31   50.94
  -1  -1  -9 1208.31   52.86
   1  -1   9 1287.65   85.83
   1  -1   9 1319.40   91.76
  -1  -1  -9 1420.43   53.61
  -1  -1  -9 1271.77   54.91
   1   1  10  269.56   30.95
  -1   1 -10  279.61   28.73
  -1   1 -10  287.56   47.40
  -1  -1 -10  265.61   22.51
   1  -1  10  279.21   28.20
  -1  -1 -10  287.79   22.48
  -1  -1 -10  290.84   19.53
   1   1  11  252.04   32.03
  -1   1 -11  257.87   28.44
  -1   1 -11  245.68   48.87
  -1  -1 -11  230.68   21.38
   1  -1  11  240.72   29.15
  -1  -1 -11  256.29   22.34
  -1  -1 -11  252.65   18.78
   1   1  12   44.70   19.94
  -1   1 -12   59.31   17.78
  -1   1 -12   44.32   16.92
   1  -1  12   45.95   19.16
  -1  -1 -12   51.80   12.61
  -1  -1 -12   39.91   11.98
  -1  -1 -12   53.10   10.42
   1   1  13  153.86   27.28
  -1   1 -13  155.54   24.36
  -1   1 -13  137.87   22.06
  -1  -1 -13  140.87   16.52
   1  -1  13  136.57   23.78
  -1  -1 -13  130.55   15.84
  -1  -1 -13  135.74   14.54
   1   1  14  225.30   50.67
  -1   1 -14  192.37   23.00
  -1   1 -14  192.51   26.01
   1  -1  14  209.15   26.25
  -1  -1 -14  175.66   16.79
  -1  -1 -14  190.62   16.06
  -1  -1 -14  201.97   17.35
   1   1  15    3.40   10.68
  -1   1 -15    8.28    9.85
  -1   1 -15    6.89    7.72
  -1  -1 -15    6.67    8.49
   1  -1  15    0.04    9.89
   1   1  16   80.11   18.41
  -1   1 -16   76.14   16.76
  -1   1 -16   73.73   12.07
   1  -1  16   88.24   17.49
   1   1  17   11.62    9.84
  -1   1 -17    6.66    5.12
  -1   1 -17   16.88    8.75
   1  -1  17   16.29   15.21
  -1   2  17    5.38    9.81
   1  -2 -17    6.21    6.93
   1   2 -16   44.26   14.95
  -1   2  16   33.94   16.85
   1  -2 -16   35.92   12.69
   1   2 -15  209.44   18.05
  -1   2  15  259.01   31.33
   1  -2 -15  241.20   25.45
   1   2 -14  318.25   24.88
  -1   2  14  335.59   37.41
   1  -2 -14  344.05   32.16
   1   2 -13  875.81   49.55
   1   2 -13  431.51   32.07
  -1   2  13  455.34   44.57
   1  -2 -13  450.54   66.07
   1   2 -12 3599.17  184.11
   1   2 -12 3903.30  178.58
   1  -2 -12 3585.32  162.74
  -1  -2  12 2947.00  123.57
   1   2 -11  909.17   57.67
   1   2 -11  945.70   52.22
   1  -2 -11  927.22   53.43
   1  -2 -11  905.15   56.49
  -1  -2  11  792.58   36.63
  -1  -2  11  811.61   34.51
   1   2 -10  594.95   39.43
   1   2 -10  584.88   38.31
   1  -2 -10  584.35   38.25
   1  -2 -10  564.18   40.27
  -1  -2  10  517.46   23.72
  -1  -2  10  505.86   24.92
  -1  -2  10  566.97   28.91
   1   2  -9 1404.64   60.39
   1   2  -9 1456.05   84.55
   1   2  -9 1471.13   67.96
   1   2  -9 1393.56   64.08
   1  -2  -9 1431.89   68.86
   1  -2  -9 1399.95   66.25
  -1  -2   9 1466.99   59.34
  -1  -2   9 1331.55   47.80
  -1  -2   9 1266.00   48.01
  -1   2   8 1576.18   71.48
   1   2  -8 1424.76   82.39
   1   2  -8 1499.07   62.66
   1   2  -8 1543.43   69.64
   1  -2  -8 1498.36   68.08
  -1  -2   8 1458.09   75.91
   1  -2  -8 1490.03   65.97
  -1  -2   8 1444.03   48.61
  -1  -2   8 1300.55   46.72
   1   2  -7 1328.22   76.93
   1   2  -7 1375.13   81.28
   1  -2  -7 1157.87   34.41
   1  -2  -7 1338.54   84.21
   1  -2  -7 1322.38   58.21
  -1  -2   7 1307.52   53.93
  -1  -2   7 1278.35   57.13
  -1  -2   7 1277.79   40.66
  -1  -2   7 1336.46   57.62
  -1  -2   7 1157.48   39.08
   1   2  -6 4668.49  210.49
   1   2  -6 4827.09  186.32
   1  -2  -6 3847.43  124.51
   1  -2  -6 4113.61  135.98
   1  -2  -6 4763.21  186.26
   1  -2  -6 4817.86  185.32
   1  -2  -6 4314.12  147.69
  -1  -2   6 4679.37  182.28
  -1  -2   6 4108.91  144.09
  -1  -2   6 4599.08  181.04
  -1  -2   6 4610.24  165.92
  -1  -2   6 4732.46  180.99
   1   2  -5 8472.92  351.93
   1   2  -5 8138.74  336.68
   1  -2  -5 7509.99  263.74
   1  -2  -5 8367.63  342.94
   1  -2  -5 7827.04  319.36
   1  -2  -5 7777.09  293.95
   1  -2  -5 7879.62  308.38
   1  -2  -5 7607.56  266.52
  -1  -2   5 7262.41  276.30
  -1  -2   5 8082.25  333.03
  -1  -2   5 7858.25  327.09
  -1  -2   5 7942.72  308.93
  -1  -2   5 7704.03  312.76
   1   2  -416805.90  800.77
   1   2  -416365.10  774.26
   1  -2  -414972.80  701.11
   1  -2  -416970.10  794.84
   1  -2  -417211.10  786.43
   1  -2  -415940.70  760.63
  -1  -2   416280.00  726.44
  -1  -2   416928.80  840.76
  -1  -2   415838.70  715.00
  -1  -2   416066.40  743.84
  -1  -2   416769.10  793.87
   1   2  -3 6935.10  281.35
   1   2  -3 6844.40  274.90
   1  -2  -3 6452.49  286.92
   1  -2  -3 6513.55  252.18
   1  -2  -3 6478.66  248.01
   1  -2  -3 6821.89  247.06
  -1  -2   3 6718.80  270.71
  -1  -2   3 6677.91  271.40
  -1  -2   3 6883.38  236.03
  -1  -2   3 6977.33  237.52
  -1  -2   3 6401.75  241.84
   1   2  -2 3602.72  137.06
   1   2  -2 3539.27  135.48
   1  -2  -2 3411.89  126.87
   1  -2  -2 3472.95  113.85
   1  -2  -2 3291.46  111.35
   1  -2  -2 3480.20  127.72
  -1  -2   2 3417.61  130.37
  -1  -2   2 3359.85  110.08
  -1  -2   2 3414.74   96.38
  -1  -2   2 3448.99  132.80
   1   2  -1 4915.33  221.57
   1  -2  -1 5103.49  195.03
   1  -2  -1 4569.39  154.26
   1  -2  -1 4768.88  178.96
   1  -2  -1 4870.34  189.42
  -1  -2   1 4656.81  170.49
  -1  -2   1 4941.73  186.31
  -1  -2   1 4844.64  171.98
  -1  -2   1 5060.31  158.76
  -1  -2   1 5056.54  195.95
   1   2   0 1149.82   52.05
  -1   2   0 1066.90   71.81
   1  -2   0 1275.03   69.93
   1  -2   0 1173.24   52.08
   1  -2   0 1055.55   28.09
  -1  -2   0 1081.39   42.96
   1  -2   0 1156.68   43.13
  -1  -2   0 1105.57   29.50
  -1  -2   0 1110.10   27.54
  -1  -2   0 1115.57   75.24
  -1  -2   0 1073.59   44.08
  -1   2  -1 3301.79  126.43
   1   2   1 3398.44  128.85
   1  -2   1 3202.47  117.01
   1  -2   1 3377.29  159.87
   1  -2   1 3329.77  119.76
  -1  -2  -1 3298.71  129.65
  -1  -2  -1 3276.81   94.54
  -1  -2  -1 3310.34  108.26
  -1  -2  -1 3253.90  118.83
  -1  -2  -1 3314.11  125.41
   1  -2   211163.90  475.23
   1  -2   2 9991.11  425.15
  -1  -2  -211166.60  452.68
  -1  -2  -211094.70  427.89
  -1  -2  -210872.70  468.92
  -1  -2  -210992.30  441.93
  -1  -2  -211141.30  474.92
  -1   2  -3 7527.97  303.74
  -1   2  -3 7012.61  286.59
   1  -2   3 6253.81  276.96
   1  -2   3 7601.45  306.65
  -1  -2  -3 7759.29  278.28
  -1  -2  -3 7746.52  269.76
  -1  -2  -3 7495.19  282.35
  -1  -2  -3 6994.30  283.49
  -1  -2  -3 7244.80  259.72
  -1  -2  -3 7650.30  307.42
   1   2   4 1235.01   71.93
  -1   2  -4  968.02   36.91
  -1   2  -4 1013.45   43.59
   1  -2   4  902.16   38.76
   1  -2   4 1139.45   47.34
  -1  -2  -4 1012.07   35.93
  -1  -2  -4  962.25   46.07
  -1  -2  -4  957.33   23.33
  -1  -2  -4  942.03   40.78
  -1  -2  -4  896.89   23.54
  -1  -2  -4  983.16   24.95
  -1   2  -5 2216.14  101.94
   1   2   5 2272.43   89.29
  -1   2  -5 2180.59   78.43
  -1   2  -5 2045.21   83.68
  -1   2  -5 2352.81   97.53
  -1  -2  -5 1890.08   55.96
   1  -2   5 2205.81   82.37
  -1  -2  -5 2269.51   78.01
  -1  -2  -5 2361.53   94.76
   1  -2   5 2260.74   81.82
  -1  -2  -5 2148.58   66.18
  -1  -2  -5 2197.31  104.31
  -1   2  -6  949.57   51.66
   1   2   6  919.89   45.34
  -1   2  -6  816.59   42.87
  -1   2  -6  912.51   39.63
  -1   2  -6  914.36   38.02
   1  -2   6  871.73   39.20
   1  -2   6  940.63   39.04
  -1  -2  -6  870.94   45.10
   1  -2   6  925.83   41.72
  -1  -2  -6  904.31   57.62
  -1  -2  -6  870.48   28.89
  -1  -2  -6  935.57   37.79
  -1  -2  -6  782.79   27.77
  -1   2  -7  497.17   33.81
   1   2   7  563.58   35.34
  -1   2  -7  536.72   26.25
  -1   2  -7  543.50   39.44
  -1   2  -7  542.43   31.31
   1  -2   7  522.93   29.50
  -1  -2  -7  544.73   35.31
   1  -2   7  530.15   31.26
   1  -2   7  560.93   38.51
  -1  -2  -7  536.37   28.59
   1   2   8  317.27   25.04
  -1   2  -8  310.86   25.72
  -1   2  -8  331.67   18.96
  -1   2  -8  311.99   32.35
   1  -2   8  307.61   24.80
   1  -2   8  297.72   23.57
  -1  -2  -8  300.19   21.96
   1  -2   8  288.09   27.99
  -1  -2  -8  325.64   28.26
   1   2   9   86.26   16.94
  -1   2  -9  101.40   22.67
  -1   2  -9   84.80    9.11
  -1   2  -9  107.11   29.48
  -1  -2  -9   96.77   18.74
   1  -2   9   84.31   16.69
  -1  -2  -9   90.08   13.64
   1   2  10  784.92   47.21
  -1   2 -10  823.12   87.64
  -1   2 -10  807.98   74.34
  -1  -2 -10  777.44   54.60
   1  -2  10  834.71   46.97
  -1  -2 -10  816.84   49.42
  -1   2 -11  304.63   33.63
   1   2  11  293.79   30.40
  -1   2 -11  305.86   34.10
  -1  -2 -11  298.11   31.65
   1  -2  11  299.14   28.55
  -1  -2 -11  262.62   32.57
   1   2  12  102.81   20.97
  -1   2 -12  125.36   22.79
  -1   2 -12  113.21   23.67
   1  -2  12  116.75   19.28
  -1  -2 -12  101.54   20.00
  -1  -2 -12  101.90   20.88
  -1   2 -13  121.06   23.14
   1   2  13  105.48   21.77
  -1   2 -13  119.67   23.22
  -1  -2 -13  124.54   19.12
   1  -2  13  113.45   18.57
   1   2  14   62.04   17.34
  -1   2 -14   71.18   18.35
  -1   2 -14   62.26   17.47
  -1  -2 -14   67.36   14.06
   1  -2  14   55.44   14.33
  -1   2 -15    9.53    9.93
   1   2  15    8.10   17.20
  -1   2 -15   13.79   11.01
   1  -2  15    8.41   14.73
  -1  -2 -15    3.25   14.78
  -1   2 -16   24.01   12.49
   1   2  16   23.76   11.34
  -1   2 -16   27.82    9.03
   1  -2  16   24.25    9.04
  -1  -2 -16   29.78    9.27
   1   3 -16   45.96    8.11
  -1   3  16   41.63   14.34
   1  -3 -16   49.69   13.48
   1   3 -15   52.08   13.32
   1   3 -15   33.50   10.98
  -1   3  15   51.02   15.71
   1  -3 -15   57.11   15.65
   1   3 -14    5.53    8.55
  -1   3  14    9.32   10.72
   1  -3 -14    6.34   10.70
   1   3 -13  681.87   65.29
   1   3 -13  644.98   39.94
  -1   3  13  679.06   47.53
   1  -3 -13  689.94   47.75
   1   3 -12  144.95   20.04
   1   3 -12  163.38   22.38
  -1   3  12    4.14   22.03
   1  -3 -12  172.66   24.32
   1   3 -11 1842.38   92.72
   1   3 -11 1722.30   80.11
   1  -3 -11 1927.95   95.66
   1  -3 -11 1817.20   87.97
  -1  -3  11 1842.64   80.69
   1   3 -10 1385.07   68.17
   1   3 -10 1516.76   82.24
   1  -3 -10 1472.18   74.90
   1  -3 -10 1462.33  106.72
  -1  -3  10 1442.53   69.29
   1   3  -9 2063.79  106.23
   1   3  -9 2213.66   94.53
   1  -3  -9 2012.52   93.65
   1  -3  -9 1958.98  121.70
  -1  -3   9 1999.92   90.37
   1   3  -8 1029.21   46.41
   1  -3  -8  998.98   51.64
   1  -3  -8  960.20   72.25
  -1  -3   8  950.49   51.55
   1  -3  -7    9.97   15.50
   1  -3  -7   10.02   14.98
  -1  -3   7    8.80    9.80
  -1  -3   7    6.69   10.99
   1   3  -6  482.75   33.86
   1   3  -6  512.62   36.62
   1  -3  -6  475.55   42.75
   1  -3  -6  494.23   28.96
  -1  -3   6  499.01   34.72
  -1  -3   6  469.62   36.29
   1   3  -5  254.89   26.47
   1   3  -5  241.21   23.83
   1  -3  -5  196.91    9.64
   1  -3  -5  237.34   19.62
   1  -3  -5  238.88   28.42
   1  -3  -5  215.86   13.57
  -1  -3   5  218.49   24.06
  -1  -3   5  220.31   25.13
   1   3  -4  489.93   33.39
   1   3  -4  460.67   19.53
   1   3  -4  535.40   36.89
   1  -3  -4  532.68   28.13
   1  -3  -4  507.68   36.51
   1  -3  -4  498.35   19.02
   1  -3  -4  531.81   35.52
  -1  -3   4  509.31   35.60
  -1  -3   4  525.43   35.37
   1   3  -3 2444.46  102.35
   1   3  -3 2285.56   95.69
   1  -3  -3 2226.05   78.06
   1  -3  -3 2398.07   89.66
   1  -3  -3 2296.52   77.81
   1  -3  -3 2336.52   87.04
  -1  -3   3 2338.96  130.48
  -1  -3   3 2312.49   97.54
   1   3  -2 4301.62  155.46
   1   3  -2 4816.55  224.19
   1  -3  -2 4653.85  196.16
   1  -3  -2 4956.16  191.91
   1  -3  -2 4402.78  158.16
   1  -3  -2 4854.03  192.29
  -1  -3   2 4822.83  191.73
  -1  -3   2 4894.30  198.88
   1   3  -1 1610.81   69.93
   1  -3  -1 1387.91   42.44
   1  -3  -1 1608.61   71.84
   1  -3  -1 1531.01   58.62
   1  -3  -1 1631.49   66.69
  -1  -3   1 1514.59   52.22
  -1  -3   1 1552.47   69.52
  -1  -3   1 1556.50   62.99
   1  -3   0 1726.78   63.98
   1  -3   0 1682.15   65.37
   1  -3   0 1699.73   72.64
  -1  -3   0 1680.44   60.61
  -1  -3   0 1694.40   64.98
  -1  -3   0 1699.12   72.61
  -1   3  -1 2334.76   95.91
   1  -3   1 2383.51   88.28
   1  -3   1 2434.01   91.52
  -1  -3  -1 2345.80   94.87
  -1  -3  -1 2386.17   86.13
  -1  -3  -1 2339.32   86.56
   1  -3   1 2492.45  102.25
  -1   3  -2  293.07   25.54
   1  -3   2  285.23   28.26
  -1  -3  -2  289.87   15.07
  -1  -3  -2  271.87   32.99
  -1  -3  -2  302.03   37.85
  -1  -3  -2  255.49    9.67
   1  -3   2  314.51   22.71
  -1   3  -3 1288.39   59.96
   1  -3   3 1326.41   58.10
   1  -3   3 1266.51   46.84
  -1  -3  -3 1177.95   37.18
  -1  -3  -3 1295.29   54.44
  -1  -3  -3 1196.01   49.43
  -1  -3  -3 1287.45   53.91
  -1   3  -4  895.23   59.44
   1  -3   4  390.77   21.80
   1  -3   4  420.36   31.66
  -1  -3  -4  409.79   28.74
  -1  -3  -4  394.91   25.81
   1  -3   4  880.93   57.27
  -1   3  -5  333.48   29.81
  -1   3  -5  316.06   16.46
  -1   3  -5  361.23   31.82
  -1  -3  -5  336.76   21.88
  -1  -3  -5  332.50   16.25
  -1  -3  -5  353.36   26.79
   1  -3   5  377.64   45.38
   1  -3   5  331.03   19.65
  -1   3  -6   43.96   16.41
  -1   3  -6   55.42    8.17
   1  -3   6   19.34   21.15
  -1  -3  -6   25.82    7.43
  -1  -3  -6   30.04   13.69
  -1  -3  -6   37.25   10.24
   1  -3   6   32.69    8.84
   1  -3   6   24.77    8.98
  -1   3  -7  357.30   21.74
  -1   3  -7  409.96   37.83
   1  -3   7  377.29   22.27
   1  -3   7  389.97   42.74
  -1  -3  -7  381.44   31.71
  -1  -3  -7  383.02   23.93
   1   3   8   69.42   12.96
  -1   3  -8   77.54   22.47
  -1   3  -8   73.22   12.83
   1  -3   8   79.27   14.51
  -1  -3  -8   84.00   19.49
   1  -3   8   65.42   11.91
  -1  -3  -8   62.56   11.81
   1   3   9 2080.74   89.70
  -1   3  -9 2067.57   88.54
  -1   3  -9 2111.71  111.46
   1  -3   9 2181.97   91.17
  -1  -3  -9 2142.76  104.76
   1  -3   9 2065.61   84.35
  -1  -3  -9 1988.91   81.48
   1   3  10 1574.71   71.58
  -1   3 -10 1582.91   91.96
  -1   3 -10 1640.82   76.11
   1  -3  10 1392.72   55.69
  -1  -3 -10 1653.74   85.63
   1  -3  10 1538.68   65.42
  -1  -3 -10 1364.63   57.94
  -1   3 -11 2546.84  113.37
   1   3  11 2401.35  105.87
  -1   3 -11 2409.26  163.52
  -1  -3 -11 2503.64  120.27
   1  -3  11 2351.53   99.56
   1   3  12  697.28   41.18
  -1   3 -12  673.99   49.39
  -1   3 -12  723.08   41.58
  -1  -3 -12  759.70   49.63
   1  -3  12  659.14   34.94
  -1   3 -13   22.85   11.07
   1   3  13   23.71   10.84
  -1   3 -13   21.79   14.49
  -1  -3 -13   18.56   13.38
   1  -3  13   17.25    7.96
   1   3  14   82.84   25.02
  -1   3 -14  110.73   19.73
  -1   3 -14   95.65   15.63
   1  -3  14   78.50   10.28
   1   3  15   10.46    6.37
  -1   3 -15    6.54    7.33
  -1   3 -15   11.67    8.42
   1  -3  15    1.18    2.75
  -1  -3 -15   15.65    8.03
   1  -4 -15   20.34   17.91
   1   4 -14   11.73    9.21
  -1   4  14   14.97    9.01
   1  -4 -14   13.09    9.81
   1   4 -13   24.50   18.66
   1   4 -13   -4.19    7.04
  -1   4  13   28.37    9.75
   1  -4 -13   24.32   10.49
   1   4 -12  369.66   34.55
   1   4 -12  317.03   20.60
  -1   4  12  380.12   29.97
   1  -4 -12  382.27   30.73
  -1  -4  12  361.73   26.01
   1   4 -11  194.88   25.47
   1   4 -11  238.46   30.82
   1  -4 -11  233.37   25.20
  -1  -4  11  236.03   37.99
   1   4 -10  572.83   46.25
   1  -4 -10  557.33   38.38
   1  -4 -10  580.31   35.22
  -1  -4  10  587.67   38.84
   1   4  -9   39.17   17.96
   1  -4  -9   20.48   11.59
   1  -4  -9   22.32   11.06
  -1  -4   9   24.85   13.69
   1   4  -8  252.31   35.29
   1  -4  -8  216.18   21.55
   1  -4  -8  208.10   22.39
  -1  -4   8  228.44   28.37
   1  -4  -7   26.38    9.51
   1  -4  -7    7.09    8.78
  -1  -4   7    9.31   12.78
  -1  -4   7    9.16   13.90
   1  -4  -6  139.08   15.32
   1  -4  -6  150.79   27.66
  -1  -4   6  141.52   24.19
  -1  -4   6  151.58   26.03
   1  -4  -5  208.91   15.96
   1  -4  -5  261.74   19.10
  -1  -4   5  234.12   30.85
  -1  -4   5  231.92   27.90
   1  -4  -4  473.43   37.24
   1  -4  -4  491.47   25.99
  -1  -4   4  483.72   36.76
  -1  -4   4  489.85   40.15
   1  -4  -3  428.16   26.72
   1  -4  -3  413.98   22.95
  -1  -4   3  428.84   32.94
  -1  -4   3  416.46   35.77
   1  -4  -2 1318.41   51.25
   1  -4  -2 1285.96   50.39
   1  -4  -2 1428.16   64.66
  -1  -4   2 1305.85   62.99
  -1  -4   2 1325.91   92.42
   1  -4  -1  968.61   38.77
   1  -4  -1 1012.71   53.00
   1  -4  -1 1018.29   42.97
  -1  -4   1 1000.15   49.41
  -1  -4   1  990.93   53.06
   1  -4   0  123.87   14.98
   1  -4   0  109.09   20.64
   1  -4   0   99.75   17.86
  -1  -4   0  115.58   15.48
  -1  -4   0  114.14   19.24
   1  -4   1  529.52   37.77
   1  -4   1  569.64   32.51
   1  -4   1  494.38   23.00
  -1  -4  -1  470.71   24.11
  -1  -4  -1  584.95   41.91
  -1  -4  -1  537.34   34.79
   1  -4   2 1751.40   82.97
   1  -4   2 1760.86   75.06
   1  -4   2 1569.19   57.26
  -1  -4  -2 1705.14   67.50
  -1  -4  -2 1651.50   62.31
  -1  -4  -2 1703.85   74.49
   1  -4   3  257.23   15.34
   1  -4   3  315.26   27.06
   1  -4   3  324.15   31.23
  -1  -4  -3  306.57   24.87
  -1  -4  -3  308.95   22.43
   1  -4   4  285.63   31.42
  -1  -4  -4  303.68   24.99
  -1   4  -5   14.79   10.26
  -1  -4  -5  -15.20   14.76
  -1  -4  -5    3.17    7.25
   1  -4   5    7.41   10.39
  -1   4  -6  574.11   45.36
  -1  -4  -6  970.16   66.22
  -1  -4  -6  546.53   32.41
   1  -4   6  557.59   41.84
  -1   4  -7   43.33   18.42
  -1  -4  -7   31.12   24.97
  -1  -4  -7   29.82    9.60
   1  -4   7   28.11   14.36
  -1   4  -8  177.01   28.79
  -1  -4  -8  172.36   38.93
  -1  -4  -8  134.20   14.48
   1  -4   8  149.38   21.39
  -1   4  -9  160.89   29.64
   1  -4   9  156.01   22.07
  -1  -4  -9  163.09   39.61
  -1   4 -10  211.50   33.24
   1  -4  10  260.00   22.67
  -1  -4 -10  198.25   46.58
  -1   4 -11  115.27   38.50
   1  -4  11   78.12   10.10
  -1  -4 -11  123.64   34.66
  -1   4 -12   35.33   16.54
  -1  -4 -12   37.03   15.73
  -1   4 -13    6.89   10.80
  -1  -4 -13    9.08   10.58
  -1   4 -14  105.76   17.95
  -1  -4 -14  116.24   17.74
   1   5 -12   24.84   18.25
   1  -5 -12   11.80    6.81
   1   5 -11  125.53   21.54
   1  -5 -11  100.67   12.82
  -1  -5  11  116.74   16.14
   1   5 -10  387.97   35.48
   1  -5 -10  303.88   21.85
  -1  -5  10  358.81   29.34
   1   5  -9  262.14   31.80
   1  -5  -9  198.89   17.25
  -1  -5   9  264.85   27.42
   1   5  -8  111.01   25.00
  -1  -5   8  104.00   22.46
   1   5  -7   61.50   21.96
  -1  -5   7   58.76   32.99
   1   5  -6    7.78   14.39
  -1  -5   6   16.87   21.72
  -1  -5   5   26.43   15.95
  -1  -5   5   28.31   25.96
  -1  -5   4  208.24   45.69
  -1  -5   4  251.73   30.77
   1  -5  -3  857.37   42.56
  -1  -5   3  935.19   79.94
  -1  -5   3  987.67   57.82
   1  -5  -2 1696.39   99.45
  -1  -5   2 1708.05   86.19
  -1  -5   2 1716.69   83.75
   1  -5  -1 1437.08   73.29
  -1  -5   1 1414.40   73.03
  -1  -5   1 1358.79   69.32
   1  -5   0  604.03   46.52
   1  -5   0  599.39   33.49
  -1  -5   0  649.79   42.74
  -1  -5   0  639.63   38.60
   1  -5   1  537.78   43.16
   1  -5   1  475.93   31.78
  -1  -5  -1  471.92   28.62
  -1  -5  -1  536.72   53.95
  -1   5  -2   -0.30   10.97
  -1  -5  -2   82.36   19.82
  -1   5  -3  289.21   26.50
  -1  -5  -3  189.46   36.20
  -1   5  -4  302.50   29.94
  -1  -5  -4  274.21   22.75
  -1   5  -5  532.84   38.51
  -1  -5  -5  488.11   28.57
  -1  -5  -5  447.05   29.84
   1  -5   5  653.06   46.38
  -1   5  -6   65.86   16.76
  -1  -5  -6   34.20    9.58
  -1  -5  -6   54.89   12.16
   1  -5   6   66.00   19.02
  -1   5  -7   48.17   16.73
   1  -5   7   42.76   16.82
  -1  -5  -7   43.02   12.35
  -1   5  -8  143.45   23.63
   1  -5   8  119.76   21.12
  -1  -5  -8  136.23   18.31
  -1   5  -9   90.89   20.09
   1  -5   9   82.33   15.50
  -1  -5  -9   74.10   14.79
  -1   5 -10   36.73   24.53
   1  -5  10   29.38   18.31
  -1  -5 -10   32.41   11.57
  -1   5 -11    3.50    8.29
  -1  -5 -11    3.12    6.71
   1   6  -8    8.16    9.69
  -1  -6   8    7.15    8.94
   1   6  -7   90.98   18.72
  -1  -6   7   93.55   17.57
   1   6  -6   19.58   10.85
  -1  -6   6   -0.30   10.02
   1   6  -5   60.81   14.37
  -1  -6   5    0.57   13.27
   1   6  -4   10.29   10.76
  -1  -6   4    9.54    9.73
   1   6  -3   -0.79   15.86
  -1  -6   3  125.69   15.11
   1  -6  -2  239.45   18.52
  -1  -6   2  329.78   26.41
  -1  -6   2  291.00   23.69
   1  -6  -1   -0.10    4.58
  -1  -6   1    1.18    5.17
  -1  -6   1   -0.16    4.30
   1  -6   0  361.31   27.22
  -1  -6   0  344.39   26.27
  -1  -6   0  262.28   18.18
   1  -6   1  222.95   38.80
  -1  -6  -1  208.09   19.87
   1  -6   2  281.39   41.76
  -1  -6  -2  205.20   18.59
  -1   6  -3   68.82   11.73
  -1  -6  -3   47.89    9.76
  -1   6  -4  116.23   14.60
   1  -6   4  146.00   32.77
  -1  -6  -4   75.25    9.31
  -1   6  -5  124.32   15.66
   1  -6   5    1.93   34.19
  -1   6  -6   38.69   11.04
   1  -6   6   -0.99   24.18
  -1   6  -7  113.27   24.75
   1  -6   7  137.53   31.71
   2   0 -18  125.80   12.92
  -2   0  18  119.61   13.67
  -2   0  17  276.99   36.08
   2   0 -16   76.09   15.14
   2   0 -16   69.53   18.70
  -2   0  16   86.86   16.94
   2   0 -15    2.97    6.98
  -2   0  15    8.10    9.32
   2   0 -14    8.80    7.62
  -2   0  14   -2.34    9.49
   2   0 -13 1018.37   50.61
   2   0 -13 1085.27   54.36
  -2   0  13 1013.77   57.67
   2   0 -12  648.43   36.40
   2   0 -12  689.58   42.29
  -2   0  12  678.40   43.14
   2   0 -11 2954.60  146.59
  -2   0  11 3105.53  131.32
   2   0 -10   14.22    9.66
   2   0 -10   15.30    8.78
   2   0 -10   18.68    9.75
  -2   0  10   12.90    9.64
  -2   0  10   12.42    7.97
  -2   0  10   17.04   10.76
   2   0  -9   76.57   13.63
   2   0  -9   62.10   12.00
   2   0  -9   63.53   13.85
  -2   0   9   65.46   13.53
  -2   0   9   64.33    8.66
  -2   0   9   60.95   15.45
  -2   0   9   65.17   11.28
   2   0  -8 1368.69   40.43
   2   0  -8 1572.76   63.97
   2   0  -8 1637.10   64.33
   2   0  -8 1536.55   47.91
   2   0  -8 1464.17   56.68
  -2   0   8 1537.42   62.83
  -2   0   8 1596.96   67.63
  -2   0   8 1583.54   55.92
  -2   0   8 1486.43   55.66
   2   0  -7  490.88   19.29
   2   0  -7  544.61   30.79
   2   0  -7  558.85   19.43
   2   0  -7  519.92   25.76
   2   0  -7  580.40   31.01
  -2   0   7  574.09   30.93
  -2   0   7  577.48   34.22
  -2   0   7  535.48   24.95
  -2   0   7  532.52   25.19
   2   0  -6 2537.18  125.01
   2   0  -6 2318.91   67.14
   2   0  -6 2581.22   72.83
   2   0  -6 2373.04  101.79
   2   0  -6 2634.85   97.54
  -2   0   6 2486.03   94.13
  -2   0   6 2654.19  103.63
  -2   0   6 2443.67   88.92
  -2   0   6 2471.81   85.13
   2   0  -5 2085.02   83.00
   2   0  -5 2153.10   82.06
   2   0  -5 1976.14   53.56
   2   0  -5 2083.27   55.72
   2   0  -5 1953.23   68.33
  -2   0   5 2138.20   73.41
  -2   0   5 2115.47   85.15
  -2   0   5 2047.41   80.59
  -2   0   5 2072.39   80.41
   2   0  -4 4788.55  172.11
   2   0  -4 4957.87  196.12
   2   0  -4 5347.67  204.90
   2   0  -4 5597.04  179.33
  -2   0   4 5005.62  179.11
  -2   0   4 4869.86  188.89
  -2   0   4 4853.29  193.71
  -2   0   4 5170.11  206.90
   2   0  -3 3130.24  124.17
   2   0  -3 3421.83  166.87
   2   0  -3 3412.01   96.86
  -2   0   3 3212.53  110.03
  -2   0   3 3119.60  126.98
  -2   0   3 3396.06  136.66
  -2   0   3 2995.03  124.28
  -2   0   3 3132.91  121.36
   2   0  -222016.10 1085.79
   2   0  -221696.50 1005.34
   2   0  -221980.90 1077.94
  -2   0   219680.30  982.55
  -2   0   221584.30 1056.79
  -2   0   220928.50 1002.09
  -2   0   219760.50  985.00
   2   0  -190306.10 6656.71
   2   0  -192870.20 6826.84
   2   0  -185192.90 6238.74
   2   0  -195007.20 6993.64
  -2   0   184068.90 6225.78
  -2   0   183544.00 6190.44
  -2   0   192185.50 6749.03
  -2   0   194566.60 7030.70
   2   0   0 6078.31  235.23
   2   0   0 6130.88  241.57
   2   0   0 5758.14  246.14
   2   0   0 5935.36  227.75
  -2   0   0 6008.32  244.61
  -2   0   0 6159.21  262.05
  -2   0   0 5830.04  264.72
   2   0   1  643.87   35.82
   2   0   1  668.21   30.53
   2   0   1  636.33   30.41
   2   0   1  707.81   39.92
  -2   0  -1  623.00   29.25
  -2   0  -1  615.41   33.08
  -2   0  -1  593.75   29.14
  -2   0  -1  610.61   36.76
  -2   0  -1  651.19   33.03
   2   0   2  330.74   31.64
   2   0   2  304.55   21.88
   2   0   2  369.40   28.65
   2   0   2  326.52   27.37
  -2   0  -2  340.68   24.63
  -2   0  -2  290.57   18.62
  -2   0  -2  320.25   25.84
  -2   0  -2  324.43   16.47
  -2   0  -2  316.75   25.94
   2   0   3  937.62   41.85
   2   0   3  976.80   35.14
   2   0   3 1022.81   51.39
   2   0   3 1028.70   47.21
  -2   0  -3  961.89   28.55
  -2   0  -3  964.05   47.72
  -2   0  -3  944.63   48.85
  -2   0  -3  979.41   45.36
   2   0   4  743.20   56.46
   2   0   4  781.99   43.15
   2   0   4  798.07   28.85
   2   0   4  772.53   37.91
  -2   0  -4  764.82   38.07
  -2   0  -4  780.89   25.17
  -2   0  -4  761.08   42.39
  -2   0  -4  758.14   27.97
   2   0   5  911.85   33.24
   2   0   5  925.86   66.79
   2   0   5  945.78   49.93
  -2   0  -5  916.08   21.73
  -2   0  -5  939.97   43.98
  -2   0  -5  936.58   33.46
  -2   0  -5  907.47   47.59
   2   0   6 4069.99  144.64
   2   0   6 4325.49  175.32
   2   0   6 4118.45  195.29
  -2   0  -6 4183.08  147.82
  -2   0  -6 4178.95  171.55
  -2   0  -6 4132.93  164.54
  -2   0  -6 4303.14  167.51
   2   0   7  272.83   14.36
   2   0   7  298.10   44.39
  -2   0  -7  276.13   14.51
  -2   0  -7  291.21   23.70
  -2   0  -7  289.63   23.96
  -2   0  -7  268.94   26.57
  -2   0  -7  300.65   28.83
   2   0   8  472.82   28.25
   2   0   8  527.39   58.86
  -2   0  -8  488.32   20.43
  -2   0  -8  510.75   31.99
  -2   0  -8  509.46   36.51
  -2   0  -8  493.00   31.79
  -2   0  -8  485.93   34.63
   2   0   9  162.82   11.65
   2   0   9  170.55   43.40
  -2   0  -9  183.89   11.68
  -2   0  -9  185.85   21.10
  -2   0  -9  177.74   24.97
   2   0  10   39.86   28.55
  -2   0 -10   41.61   13.96
  -2   0 -10   37.09   16.46
   2   0  11  239.24   31.42
  -2   0 -11  249.31   46.11
  -2   0 -11  259.14   25.92
   2   0  12   37.85   15.17
  -2   0 -12   13.58   12.46
  -2   0 -12   13.34   11.87
   2   0  13   18.71   15.09
  -2   0 -13   17.20   11.54
  -2   0 -13   17.88   11.92
   2   0  14   20.31   13.80
  -2   0 -14   12.97   10.52
  -2   0 -14   13.09   10.20
   2   0  15   23.13   13.65
  -2   0 -15   12.57   16.51
  -2   0 -15   21.93   10.63
   2   0  16    7.80   10.20
  -2   0 -16    6.40    6.63
  -2   0 -16   10.52    7.40
   2   0  17   18.49   17.89
  -2   1  18   30.00   19.05
  -2   1  17   17.28   11.67
   2  -1 -17   27.42    8.82
  -2  -1  17    9.32    5.28
  -2   1  16   68.27   17.86
   2  -1 -16   60.78   22.82
  -2  -1  16   49.92    9.76
  -2   1  15  274.88   30.61
   2  -1 -15  277.34   25.77
  -2  -1  15  221.26   18.76
  -2   1  14 1736.79   89.57
   2  -1 -14 1577.98   64.51
  -2  -1  14 1556.24   88.70
   2  -1 -14 1686.68   79.83
   2   1 -13  346.70   34.89
   2   1 -13  285.12   16.80
  -2   1  13  320.98   34.28
   2  -1 -13  298.56   20.09
  -2  -1  13  277.78   23.01
   2  -1 -13  315.44   30.52
   2   1 -12  999.66   56.50
   2   1 -12 1153.65   66.34
   2  -1 -12 1006.11   56.56
   2  -1 -12 1025.39   45.11
   2  -1 -12  973.70   55.70
  -2  -1  12  971.75   47.17
   2   1 -11 1073.06   44.94
   2  -1 -11 1189.38   50.59
   2  -1 -11 1072.93   57.08
   2  -1 -11 1112.59   57.35
  -2  -1  11 1052.35   47.16
  -2  -1  11  985.21   37.84
   2   1 -10  439.84   24.65
   2   1 -10  420.50   21.09
   2   1 -10  432.80   18.10
   2  -1 -10  443.61   50.71
   2  -1 -10  456.98   26.93
   2  -1 -10  458.56   32.94
   2  -1 -10  453.80   23.03
  -2  -1  10  462.99   33.55
  -2  -1  10  406.78   25.88
  -2  -1  10  438.24   23.29
  -2  -1  10  434.15   24.47
  -2  -1  10  430.80   21.69
   2   1  -9 1934.00   73.12
   2   1  -9 1844.92   65.80
   2   1  -9 1987.94   85.62
   2   1  -9 1875.88   63.01
  -2   1   9 1989.24  118.33
  -2   1   9 1857.43   77.04
  -2   1   9 1805.11   67.50
   2  -1  -9 1831.95   66.93
  -2  -1   9 1906.85   71.97
  -2  -1   9 1782.54   63.64
  -2  -1   9 1877.53   82.55
   2  -1  -9 1888.21   80.67
   2  -1  -9 1829.40   78.81
  -2  -1   9 1832.05   68.61
  -2  -1   9 1793.51   72.03
   2   1  -8 4057.99  141.58
   2   1  -8 3723.75  145.32
   2   1  -8 3828.72  164.47
   2   1  -8 4095.24  146.95
   2   1  -8 4119.92  165.08
  -2   1   8 3828.33  140.53
  -2   1   8 3712.39  144.23
  -2   1   8 3925.68  152.76
  -2   1   8 4115.49  199.61
   2  -1  -8 3811.91  153.91
   2  -1  -8 3921.24  155.51
  -2  -1   8 3897.53  137.87
   2  -1  -8 3988.31  144.47
  -2  -1   8 3891.67  141.70
  -2  -1   8 3743.30  143.26
  -2  -1   8 3839.76  143.51
  -2  -1   8 3778.18  154.49
   2   1  -7   57.62   13.83
   2   1  -7   61.90    8.05
  -2   1   7   56.64   28.08
   2   1  -7   68.95   15.17
  -2   1   7   58.75    9.45
   2   1  -7   71.26   12.08
  -2   1   7   52.25   13.30
  -2   1   7   55.92    8.93
   2  -1  -7   68.05   14.79
  -2  -1   7   57.97    7.96
   2  -1  -7   61.67    9.30
   2  -1  -7   62.60   13.90
  -2  -1   7   65.87   21.76
  -2  -1   7   63.78    6.43
  -2  -1   7   92.26   12.66
  -2  -1   7   57.00   15.17
   2   1  -6 1665.12   56.08
   2   1  -6 1662.02   69.25
   2   1  -6 1693.27   70.77
   2   1  -6 1622.03   62.93
  -2   1   6 1646.11   64.73
  -2   1   6 1595.86   59.83
  -2   1   6 1638.77   70.41
  -2   1   6 1704.18   98.69
   2  -1  -6 1600.75   64.58
   2  -1  -6 1606.22   54.19
  -2  -1   6 1634.82   66.17
   2  -1  -6 1597.73   66.31
  -2  -1   6 1704.73   97.77
  -2  -1   6 1619.99   49.27
  -2  -1   6 1612.28   55.24
  -2  -1   6 1582.53   50.23
   2   1  -5 5374.97  207.09
   2   1  -5 5601.16  218.71
   2   1  -5 5785.62  207.69
   2   1  -5 5734.13  228.75
  -2   1   5 5323.07  192.77
  -2   1   5 4892.98  190.09
  -2   1   5 5534.41  241.58
   2  -1  -5 5453.23  211.92
  -2  -1   5 5332.95  181.97
   2  -1  -5 5271.58  205.61
  -2  -1   5 5383.86  212.74
   2  -1  -5 5697.80  224.37
  -2  -1   5 5463.17  215.08
  -2  -1   5 5216.18  189.30
   2   1  -4 3464.54  131.83
   2   1  -4 3342.41  157.29
  -2   1   4 3464.41  130.08
   2   1  -4 3502.22  139.00
  -2   1   4 3267.09  111.20
   2   1  -4 3640.04  125.07
   2  -1  -4 3350.29  127.80
   2  -1  -4 3336.86  154.92
  -2  -1   4 3417.55  130.75
  -2  -1   4 3418.13  133.28
   2  -1  -4 3548.89  119.80
   2  -1  -4 3366.74  126.82
  -2  -1   4 3326.17  114.88
  -2  -1   4 3409.76  100.91
  -2   1   3  613.69   35.73
   2   1  -3  606.90   40.07
   2   1  -3  538.49   34.14
   2   1  -3  597.73   42.61
  -2   1   3  525.16   23.54
   2  -1  -3  546.43   45.81
   2  -1  -3  540.72   34.36
  -2  -1   3  520.26   25.30
  -2  -1   3  546.09   12.26
  -2  -1   3  560.14   33.26
  -2  -1   3  565.58   36.14
   2  -1  -3  576.07   25.20
   2  -1  -3  529.52   31.77
   2   1  -216142.10  750.46
   2   1  -215342.00  704.57
   2   1  -216244.20  731.36
   2   1  -214696.60  680.63
  -2   1   215126.60  668.80
  -2   1   215797.40  724.34
  -2   1   213745.70  645.21
   2  -1  -215370.40  718.11
   2  -1  -215529.90  690.39
   2  -1  -215130.00  688.10
   2  -1  -215030.30  696.38
  -2  -1   215297.50  703.95
  -2  -1   215098.60  675.91
  -2  -1   215666.30  712.70
   2   1  -121553.30 1095.80
   2   1  -124006.90 1206.19
  -2   1   121617.40 1103.24
  -2   1   125037.90 1264.48
  -2   1   122547.00 1113.51
   2  -1  -122350.60 1093.79
  -2  -1   122501.50 1123.77
  -2  -1   123472.30 1185.56
  -2  -1   123212.80 1164.30
   2  -1  -122338.30 1114.67
   2  -1  -124117.70 1212.47
   2  -1  -123562.90 1190.22
  -2  -1   123493.20 1174.06
   2   1   025819.50 1385.99
   2   1   024014.30 1245.30
  -2   1   023977.40 1305.88
  -2   1   024138.60 1228.53
  -2   1   026103.20 1355.67
   2  -1   024807.00 1226.11
   2  -1   025928.20 1390.38
   2  -1   028833.60 1467.40
  -2  -1   025076.00 1331.46
  -2  -1   024798.80 1261.86
  -2  -1   025790.20 1329.74
   2  -1   024178.70 1241.94
   2  -1   024476.30 1217.61
  -2  -1   024735.10 1305.64
   2   1   1 2677.15  104.48
   2   1   1 2901.16  112.29
  -2   1  -1 2649.47  100.50
  -2   1  -1 2451.62   87.61
  -2   1  -1 2470.79  114.90
  -2   1  -1 2631.82  108.07
   2  -1   1 2491.59   78.21
   2  -1   1 2479.57   97.94
   2  -1   1 2581.65   97.58
  -2  -1  -1 2536.23  101.37
  -2  -1  -1 2494.02   89.89
   2  -1   1 2697.06   97.00
   2  -1   1 2613.09   73.81
  -2  -1  -1 2520.87   82.61
  -2  -1  -1 2534.55   99.64
   2   1   2 3995.14  155.57
  -2   1  -2 3986.26  144.49
  -2   1  -2 3669.13  137.50
  -2   1  -2 3768.82  139.72
  -2   1  -2 3827.92  149.29
   2  -1   2 3862.68  112.94
   2  -1   2 3871.89  118.94
   2  -1   2 3816.45  137.91
  -2  -1  -2 4033.60  128.16
  -2  -1  -2 3654.16  143.66
   2  -1   2 4064.68  149.48
   2  -1   2 3716.43  143.57
  -2  -1  -2 3604.01  129.88
  -2  -1  -2 3741.31  118.63
   2   1   3 4984.53  177.09
   2   1   3 4975.71  198.53
   2   1   3 4960.31  188.73
  -2   1  -3 4792.74  186.82
  -2   1  -3 5208.11  188.69
  -2   1  -3 4976.97  196.11
  -2   1  -3 4886.90  186.82
   2  -1   3 5111.82  192.86
   2  -1   3 5091.63  183.62
   2  -1   3 4819.61  189.20
  -2  -1  -3 5230.60  169.52
  -2  -1  -3 5020.17  164.10
  -2  -1  -3 4593.08  183.62
   2  -1   3 5200.32  164.70
  -2  -1  -3 4854.87  178.60
  -2  -1  -3 4881.92  189.14
   2  -1   3 5077.70  156.77
   2   1   4  209.91   16.15
   2   1   4  218.38   19.29
   2   1   4  216.38   42.03
  -2   1  -4  219.51   20.67
  -2   1  -4  223.64   22.71
  -2   1  -4  228.78   13.78
  -2   1  -4  230.51   24.15
  -2  -1  -4  216.74   26.52
  -2  -1  -4  211.97   22.71
   2  -1   4  222.45   14.05
   2  -1   4  219.17    6.04
   2  -1   4  227.69   22.70
  -2  -1  -4  225.81   19.93
   2   1   5 3182.82  141.63
   2   1   5 3192.81  131.17
   2   1   5 3223.90  116.36
  -2   1  -5 3287.71  125.62
  -2   1  -5 3201.30  104.77
  -2   1  -5 3147.39  159.05
  -2   1  -5 3225.30  124.35
   2  -1   5 2977.14   92.49
  -2  -1  -5 3169.84  119.18
  -2  -1  -5 3044.82  121.17
   2  -1   5 3073.10  127.54
   2  -1   5 3185.65  124.50
   2  -1   5 3268.93  108.44
  -2  -1  -5 3096.47  110.97
   2   1   6 1663.72   64.79
   2   1   6 1705.47   66.00
   2   1   6 1719.44   76.66
  -2   1  -6 1665.66   50.27
  -2   1  -6 1667.66   69.65
  -2   1  -6 1640.15  102.83
  -2   1  -6 1420.53   65.53
  -2   1  -6 1716.69   70.74
  -2  -1  -6 1609.96   58.45
   2  -1   6 1664.83   71.47
   2  -1   6 1629.67   70.06
  -2  -1  -6 1690.88   65.83
  -2  -1  -6 1702.01   62.33
  -2  -1  -6 1609.64   71.06
   2   1   7 2770.08  105.64
   2   1   7 2788.58  109.14
  -2   1  -7 2899.17  121.69
  -2   1  -7 2454.78  107.54
  -2   1  -7 2781.66  113.39
  -2   1  -7 2703.01  111.54
  -2  -1  -7 2931.63  107.35
  -2  -1  -7 2767.73  105.63
   2  -1   7 2855.89  118.85
   2  -1   7 2710.80  111.02
  -2  -1  -7 2698.60  112.46
  -2  -1  -7 2722.26  100.93
   2   1   8  843.52   38.89
   2   1   8  900.27   46.14
  -2   1  -8  901.78   48.05
  -2   1  -8  905.25   52.28
  -2   1  -8  929.81   48.82
  -2   1  -8  825.77   47.94
  -2  -1  -8  857.13   46.40
  -2  -1  -8  899.69   40.93
   2  -1   8  903.57   50.30
   2  -1   8  869.40   48.18
  -2  -1  -8  880.76   38.12
  -2  -1  -8  949.70   40.42
   2   1   9  127.69   20.80
  -2   1  -9  126.39   23.67
  -2   1  -9  123.85   21.37
   2  -1   9  148.90   22.78
  -2  -1  -9  121.81   19.23
  -2  -1  -9  130.65   16.21
  -2  -1  -9  135.87   15.11
   2   1  10  132.72   24.07
  -2   1 -10  152.83   24.42
  -2   1 -10  157.26   26.98
   2  -1  10  153.85   25.28
  -2  -1 -10  136.88   21.31
  -2  -1 -10  164.78   17.18
  -2  -1 -10  158.20   16.33
   2   1  11   76.36   34.68
  -2   1 -11   87.38   20.95
  -2   1 -11   82.45   22.80
   2  -1  11   79.18   22.15
  -2  -1 -11   60.22   17.82
  -2  -1 -11   97.89   13.20
  -2  -1 -11   74.81   13.08
   2   1  12  208.84   44.28
  -2   1 -12  194.79   29.14
  -2   1 -12  205.61   27.31
   2  -1  12  205.85   28.71
  -2  -1 -12  182.83   27.90
  -2  -1 -12  195.97   22.31
  -2  -1 -12  196.24   18.12
   2   1  13  735.46   48.78
  -2   1 -13  751.53   75.56
  -2   1 -13  744.56   48.06
  -2  -1 -13  663.76   44.00
   2  -1  13  723.31   50.35
  -2  -1 -13  737.71   50.36
  -2  -1 -13  701.42   41.34
   2   1  14  174.12   24.23
  -2   1 -14  178.21   23.39
  -2   1 -14  186.22   24.52
  -2  -1 -14  158.08   14.74
   2  -1  14  179.98   25.99
  -2  -1 -14  171.91   18.95
   2   1  15   39.93   14.47
  -2   1 -15   35.22   13.06
  -2   1 -15   42.62   14.12
  -2  -1 -15   22.67   15.80
   2  -1  15   41.69   15.15
   2   1  16   26.99   10.99
  -2   1 -16   28.70   18.62
  -2   1 -16   27.78    9.10
  -2  -1 -16   11.79    5.91
   2  -1  16   13.99   20.21
  -2   2  17   28.32   14.33
   2  -2 -17   35.64   11.58
   2   2 -16    1.11    8.39
  -2   2  16    3.96    9.41
  -2   2  15  137.24   25.95
   2  -2 -15  131.94   37.60
  -2   2  14  381.26   39.36
   2  -2 -14  396.81   35.80
   2   2 -13  779.50   53.83
   2  -2 -13  663.74   48.47
   2  -2 -13  647.62   48.84
   2   2 -12 2430.64  119.07
   2   2 -12 1823.78   76.59
   2  -2 -12 1947.57   95.68
   2  -2 -12 1879.25   95.25
  -2  -2  12 1690.84   69.00
   2   2 -11  298.09   23.53
   2  -2 -11  299.89   31.74
   2  -2 -11  297.72   33.00
  -2  -2  11  264.74   34.38
   2   2 -10  240.85   21.64
   2  -2 -10  228.21   26.11
   2  -2 -10  214.68   28.08
  -2  -2  10  227.90   21.13
   2   2  -9 1485.10   62.46
   2   2  -9 1291.44   52.78
   2   2  -9 1289.66   44.80
   2  -2  -9 1351.35   64.29
   2  -2  -9 1294.52   65.84
  -2  -2   9 1325.55   63.46
  -2  -2   9 1285.11   56.40
   2   2  -8  875.55   38.94
   2   2  -8  896.04   48.25
  -2   2   8  872.41   69.43
   2   2  -8  851.62   44.31
   2  -2  -8  885.83   72.12
  -2  -2   8  881.06   40.61
  -2  -2   8  857.39   44.78
  -2  -2   8  883.45   43.74
   2  -2  -8  872.72   45.31
   2   2  -7 1914.10   68.59
   2   2  -7 1929.42   73.39
   2   2  -7 2036.78   88.30
  -2   2   7 1966.06   83.62
  -2   2   7 1735.45   62.62
   2  -2  -7 1947.72   79.60
  -2  -2   7 1979.58   81.05
  -2  -2   7 1870.83   73.78
  -2  -2   7 1932.06   80.20
   2  -2  -7 1981.54   85.67
   2   2  -6 4125.66  152.37
   2   2  -6 4106.28  157.60
   2   2  -6 4388.35  182.58
  -2   2   6 4144.13  167.16
   2  -2  -6 4151.58  186.27
   2  -2  -6 4285.40  173.47
  -2  -2   6 4028.20  157.49
  -2  -2   6 4129.09  163.18
  -2  -2   6 4203.75  168.38
   2   2  -5 8183.48  337.69
   2   2  -5 7920.41  346.02
   2   2  -5 8981.82  386.45
  -2   2   5 8247.96  347.08
   2  -2  -5 7860.11  349.26
   2  -2  -5 7344.21  283.41
   2  -2  -5 8183.17  347.66
  -2  -2   5 7975.27  361.53
  -2  -2   5 7970.15  332.59
  -2  -2   5 8136.29  345.11
   2  -2  -5 7932.05  329.40
   2   2  -4 8171.38  343.78
   2   2  -4 7231.39  290.62
   2   2  -4 7685.41  311.39
  -2   2   4 7506.84  309.48
   2  -2  -4 6999.94  288.66
   2  -2  -4 6848.32  249.85
   2  -2  -4 7476.47  342.88
  -2  -2   4 7376.93  294.20
  -2  -2   4 7505.27  314.31
  -2  -2   4 7278.62  297.34
   2  -2  -4 7210.25  308.09
   2   2  -3 5131.37  198.44
   2   2  -3 5654.15  253.83
   2   2  -3 5885.27  234.77
  -2   2   3 5397.45  213.27
   2  -2  -3 5159.13  204.01
   2  -2  -3 5030.33  168.22
   2  -2  -3 5203.28  207.30
  -2  -2   3 5260.52  196.41
  -2  -2   3 5257.48  207.32
  -2  -2   3 5368.10  214.55
   2  -2  -3 5085.64  201.30
   2   2  -2 4879.23  187.92
   2   2  -2 5658.03  217.66
  -2   2   2 5180.62  238.59
   2  -2  -2 5035.08  188.19
   2  -2  -2 5024.39  166.60
   2  -2  -2 4944.66  199.51
  -2  -2   2 5054.59  184.04
  -2  -2   2 4960.69  194.54
  -2  -2   2 5040.02  199.27
   2  -2  -2 5407.96  244.78
   2   2  -1 2585.76  102.64
  -2   2   1 2837.36  110.38
  -2   2   1 2315.96   91.66
   2  -2  -1 2555.86  102.29
   2  -2  -1 2493.80   99.21
  -2  -2   1 2392.82  123.51
  -2  -2   1 2160.02   81.00
  -2  -2   1 2417.97   80.43
  -2  -2   1 2279.29   88.70
   2  -2  -1 2309.95   69.38
   2  -2  -1 2775.39   85.49
   2   2   0 1244.17   56.23
  -2   2   0 1156.35   52.45
  -2   2   0 1503.77   64.50
  -2   2   0 1274.11   43.08
   2  -2   0 1199.82   54.19
   2  -2   0 1084.11   26.68
  -2  -2   0 1168.45   42.87
  -2  -2   0 1171.53   52.61
  -2  -2   0 1139.91   52.85
   2  -2   0 1210.01   55.20
   2  -2   0 1113.82   34.34
  -2  -2   0 1170.93   38.85
   2   2   1 9427.93  435.81
  -2   2  -1 9862.43  398.83
  -2   2  -1 8792.27  373.11
  -2   2  -1 8934.72  370.94
   2  -2   1 9190.10  362.11
  -2  -2  -1 8763.93  350.62
  -2  -2  -1 9404.11  397.44
  -2  -2  -1 8768.87  347.48
   2  -2   1 9296.66  392.60
   2  -2   1 8936.23  376.09
  -2  -2  -1 8670.89  371.13
   2   2   2  282.73   26.52
   2   2   2  253.19   22.26
  -2   2  -2  255.01   15.10
  -2   2  -2  281.17   37.76
  -2   2  -2  270.29   19.78
   2  -2   2  267.11   22.81
   2  -2   2  253.79   23.20
  -2  -2  -2  261.11   24.29
   2   2   3  552.52   35.45
   2   2   3  519.20   31.16
  -2   2  -3  528.71   30.10
  -2   2  -3  514.17   24.07
  -2   2  -3  509.08   29.07
  -2  -2  -3  473.35   23.22
  -2  -2  -3  480.80   13.36
  -2  -2  -3  482.74   31.59
   2  -2   3  530.75   29.70
   2  -2   3  512.10   30.77
  -2  -2  -3  828.90   58.65
   2   2   4 1588.02   67.22
   2   2   4 1625.47   52.87
  -2   2  -4 1564.92   58.88
  -2   2  -4 1599.05   61.42
  -2   2  -4 1659.42   70.14
  -2  -2  -4 1557.35   68.37
  -2  -2  -4 2572.37  115.05
  -2  -2  -4 1494.69   47.12
   2  -2   4 1582.92   89.26
   2  -2   4 1650.90   63.34
   2   2   5 1807.15  101.02
   2   2   5 1806.17   62.65
  -2   2  -5 1735.27   64.16
  -2   2  -5 1760.82   67.48
  -2   2  -5 1812.93   79.02
  -2  -2  -5 1639.34   52.68
  -2  -2  -5 1847.38   76.34
  -2  -2  -5 1698.22  100.04
   2  -2   5 1918.71   71.35
   2  -2   5 1820.49  101.96
  -2  -2  -5 1739.24   53.48
   2   2   6 1269.30   48.80
   2   2   6 1257.60   58.24
  -2   2  -6 1228.80   46.30
  -2   2  -6 1264.38   63.21
  -2   2  -6 1258.93   53.30
   2  -2   6 1329.84   51.38
  -2  -2  -6 1137.31   37.69
  -2  -2  -6 1182.89   56.50
  -2  -2  -6 1173.67   37.11
   2  -2   6 1262.67   57.35
   2  -2   6 1288.48   59.07
  -2  -2  -6 1241.01   58.40
   2   2   7 1812.59   70.63
  -2   2  -7 1688.90   62.30
  -2   2  -7 1743.65   73.39
  -2   2  -7 1706.45   83.82
  -2  -2  -7 1624.63   73.02
   2  -2   7 1766.46   78.83
  -2  -2  -7 1762.14   78.76
   2  -2   7 1724.01   64.85
   2   2   8  409.84   26.74
  -2   2  -8  385.91   62.58
  -2   2  -8  408.63   29.98
  -2  -2  -8  371.04   28.64
   2  -2   8  404.49   32.76
  -2  -2  -8  404.98   32.16
   2   2   9 1842.25   79.79
  -2   2  -9 1770.68   81.62
  -2   2  -9 1720.16   91.44
  -2  -2  -9 1752.59   82.30
   2  -2   9 1850.40   88.08
  -2  -2  -9 1662.05   76.67
   2   2  10 4145.54  177.54
  -2   2 -10 3978.65  187.88
  -2   2 -10 3976.21  174.67
  -2  -2 -10 3870.53  195.36
   2  -2  10 4077.77  182.55
  -2  -2 -10 3370.63  151.49
   2   2  11 1096.77   59.40
  -2   2 -11 1097.25   61.17
  -2   2 -11 1135.33   69.64
  -2  -2 -11 1061.08   54.77
   2  -2  11 1122.87   62.06
  -2  -2 -11 1055.73   76.25
   2   2  12  719.50   66.27
  -2   2 -12  751.39   47.74
  -2   2 -12  698.06   51.84
  -2  -2 -12  700.67   61.50
   2  -2  12  731.56   47.05
  -2  -2 -12  640.04   37.28
   2   2  13   76.97   17.14
  -2   2 -13   94.97   21.69
  -2   2 -13  102.09   19.92
  -2  -2 -13   79.08   13.28
   2  -2  13   42.11   31.74
  -2  -2 -13  102.01   27.53
   2   2  14   76.42   15.32
  -2   2 -14   79.71   17.63
  -2   2 -14   66.55   18.57
  -2  -2 -14   56.43   10.38
   2  -2  14   65.70   15.72
  -2  -2 -14   68.36   13.84
   2   2  15  194.79   20.10
  -2   2 -15  196.82   22.43
  -2   2 -15  219.39   38.61
   2  -2  15  196.08   20.47
  -2   2 -16   61.05   12.41
  -2   2 -16   74.92   14.08
   2  -2  16   60.06   11.32
  -2   3  16  152.66   21.76
   2  -3 -16  157.64   20.52
   2   3 -15  395.05   45.03
  -2   3  15  393.32   34.83
   2  -3 -15  416.56   33.40
   2   3 -14    2.43    5.96
  -2   3  14    6.71   10.46
   2  -3 -14    4.22    9.39
   2   3 -13    4.96   12.67
   2  -3 -13    5.33    9.93
   2  -3 -13    0.83    9.80
  -2  -3  13    4.75    5.70
   2   3 -12   71.53   16.97
   2   3 -12   78.66   16.34
   2  -3 -12   77.50   19.93
   2  -3 -12   83.92   31.87
  -2  -3  12   67.43   13.96
   2   3 -11  407.59   33.15
   2   3 -11  408.46   33.24
   2  -3 -11  405.39   37.55
   2  -3 -11  421.18   55.99
  -2  -3  11  399.21   32.79
   2   3 -10  673.51   46.70
   2   3 -10  780.23   46.42
   2  -3 -10  686.95   50.50
  -2  -3  10  656.39   43.61
   2   3  -9  794.45   45.67
   2   3  -9  768.56   50.84
   2  -3  -9  842.84   53.85
   2  -3  -9  835.54   45.16
  -2  -3   9  770.67   46.76
   2  -3  -8  660.42   67.64
   2  -3  -8  687.14   37.51
  -2  -3   8  668.04   41.46
  -2  -3   8  680.32   65.60
   2  -3  -7 1264.45   61.17
   2  -3  -7 1224.37   52.49
  -2  -3   7 1243.62   61.49
  -2  -3   7 1187.70   87.42
  -2  -3   7 1282.66   54.04
   2  -3  -6 1541.41   60.54
   2  -3  -6 1490.74   57.71
   2  -3  -6 1549.76   69.31
  -2  -3   6 1433.06   68.95
  -2  -3   6 1504.81   58.44
  -2  -3   6 1431.27   95.65
   2   3  -5 1951.45   79.12
   2   3  -5 2120.34  117.51
   2   3  -5 2244.61  101.94
   2  -3  -5 2084.37   87.52
   2  -3  -5 2148.03   83.36
   2  -3  -5 2012.37   73.98
  -2  -3   5 2033.05   73.75
  -2  -3   5 2108.65   92.48
  -2  -3   5 2065.05   90.77
   2   3  -4  749.52   64.31
   2   3  -4  696.85   28.95
   2  -3  -4  680.34   37.20
   2  -3  -4  712.36   26.77
   2  -3  -4  723.45   36.23
  -2  -3   4  723.86   40.93
  -2  -3   4  735.49   65.22
  -2  -3   4  662.08   26.18
   2   3  -3 1509.17   67.67
   2   3  -3 1335.98   50.42
   2  -3  -3 1499.43   84.78
   2  -3  -3 1444.60   82.20
   2  -3  -3 1285.19   42.47
  -2  -3   3 1377.06   63.50
  -2  -3   3 1309.74   43.21
  -2  -3   3 1451.30   63.59
   2   3  -2  298.49   19.46
   2   3  -2  340.20   28.02
   2  -3  -2  299.24   25.40
   2  -3  -2  319.88   25.72
   2  -3  -2  282.26   11.90
  -2  -3   2  314.32   27.24
  -2  -3   2  258.05   10.85
  -2  -3   2  309.52   38.04
   2   3  -1 2275.82   96.62
   2  -3  -1 2206.20   89.45
   2  -3  -1 2244.41   94.72
   2  -3  -1 2144.34   71.94
  -2  -3   1 2153.55   82.32
  -2  -3   1 2121.72   92.43
  -2  -3   1 2220.83  104.71
  -2   3   0  633.01   39.29
   2   3   0  692.06   42.81
   2  -3   0  685.95   42.44
  -2  -3   0  666.76   31.41
   2  -3   0 1013.00   46.17
  -2  -3   0  656.48   35.34
  -2  -3   0  658.14   42.34
   2   3   1 3598.93  145.95
  -2   3  -1 3372.63  138.04
  -2   3  -1 2900.86  112.46
   2  -3   1 3329.04  154.21
  -2  -3  -1 3505.32  138.25
  -2  -3  -1 3398.29  172.39
  -2  -3  -1 3468.79  123.29
   2  -3   1 3601.96  146.64
  -2   3  -2 1879.32   82.00
  -2   3  -2 2058.64   78.64
   2  -3   2 1871.26   74.17
  -2  -3  -2 1780.56   59.65
  -2  -3  -2 1933.34   82.00
  -2  -3  -2 1942.10   81.98
   2  -3   2 1949.55   84.57
  -2   3  -3 3335.38  132.15
  -2   3  -3 3049.62  127.00
   2  -3   3 2966.40  116.44
   2  -3   3 3269.69  134.94
  -2  -3  -3 3170.27  129.95
  -2  -3  -3 2997.95  124.53
  -2   3  -4  279.36   25.06
  -2   3  -4  261.99   14.13
   2  -3   4  284.72   25.69
   2  -3   4  287.72   21.92
  -2  -3  -4  276.33   45.20
  -2  -3  -4  279.94   24.86
  -2   3  -5  282.20   27.28
  -2   3  -5  281.39   16.50
   2  -3   5  288.67   24.77
   2  -3   5  306.16   23.01
  -2  -3  -5  302.86   46.74
  -2  -3  -5  279.16   24.79
  -2   3  -6    4.11   11.08
  -2   3  -6    9.55    6.23
   2  -3   6    4.36    8.15
  -2  -3  -6    8.82    8.74
   2  -3   6    9.12    8.97
  -2   3  -7  113.62   23.78
  -2   3  -7  117.61   14.09
  -2  -3  -7  113.11   17.51
   2  -3   7  118.71   16.79
   2  -3   7  113.17   16.67
  -2   3  -8  736.79   54.80
  -2   3  -8  756.53   40.82
   2  -3   8 1005.40   48.13
  -2  -3  -8  741.71   42.74
   2  -3   8  782.38   42.59
  -2  -3  -8  741.16   81.41
  -2   3  -9 1860.30   83.23
  -2   3  -9 1932.27  145.31
  -2  -3  -9 1926.13  133.40
   2  -3   9 1822.69   81.67
  -2  -3  -9 1755.98   81.20
  -2   3 -10   66.70   15.59
  -2   3 -10   52.05   19.92
   2  -3  10   59.92   13.96
  -2  -3 -10  -14.07   31.86
  -2  -3 -10   22.30   12.23
  -2   3 -11  425.56   41.25
  -2   3 -11  435.98   32.56
   2  -3  11  420.23   30.50
  -2  -3 -11  372.33   26.00
  -2  -3 -11  460.15   61.05
   2   3  12   86.88   20.04
  -2   3 -12  124.59   24.53
  -2   3 -12  111.83   16.99
   2  -3  12  116.72   16.79
  -2  -3 -12  130.01   22.11
  -2  -3 -12  102.92   12.83
  -2   3 -13   21.08    9.84
  -2   3 -13   23.22   14.05
  -2  -3 -13   21.93   11.93
   2  -3  13   21.51    8.87
  -2  -3 -13    9.87    6.01
  -2   3 -14   23.78   17.46
  -2   3 -14   35.93   13.60
  -2  -3 -14   30.39   11.02
   2  -3  14   18.81    8.08
  -2   3 -15   61.02   25.31
  -2   3 -15   81.60   12.06
  -2  -3 -15   81.52   11.88
  -2   4  15   13.73    8.51
   2  -4 -15   15.42    8.48
   2   4 -14   20.95    8.34
  -2   4  14   19.53   11.04
   2  -4 -14   32.45   10.57
  -2   4  13   60.53   13.68
   2   4 -13   -0.25    9.10
   2   4 -13   49.46   20.76
   2  -4 -13   73.15   12.72
  -2  -4  13   47.12   17.36
   2   4 -12  511.52   36.42
   2   4 -12  459.71   38.83
   2  -4 -12  591.62   37.39
   2  -4 -12  563.64   35.93
  -2  -4  12  591.30   37.61
   2   4 -11   30.17   13.28
   2   4 -11   14.52    7.30
   2  -4 -11   22.29   11.77
   2  -4 -11   20.20   10.36
  -2  -4  11   13.36   12.31
   2   4 -10 1289.61   71.07
   2  -4 -10 1312.76   64.87
   2  -4 -10 1147.70   58.04
  -2  -4  10 1257.06   66.16
   2   4  -9  346.50   35.38
   2  -4  -9  324.41   29.05
   2  -4  -9  309.18   24.45
  -2  -4   9  330.21   32.43
   2  -4  -8  213.56   24.26
   2  -4  -8  196.26   18.58
  -2  -4   8  213.94   27.68
  -2  -4   8  208.68   26.49
   2  -4  -7  171.11   34.74
  -2  -4   7  157.67   25.62
  -2  -4   7  158.57   25.53
   2  -4  -6   32.29   12.81
  -2  -4   6   44.41   16.51
  -2  -4   6   37.38   16.98
   2  -4  -5  660.64   34.32
   2  -4  -5  694.79   38.31
  -2  -4   5  682.96   45.39
  -2  -4   5  686.00   48.78
   2  -4  -4  269.71   23.77
   2  -4  -4  255.91   22.75
  -2  -4   4  241.23   26.71
  -2  -4   4  241.97   30.57
   2  -4  -3 1619.95   74.62
   2  -4  -3 1570.85   68.51
  -2  -4   3 1476.51   72.01
  -2  -4   3 1485.23  110.10
   2  -4  -2 1855.05   98.46
   2  -4  -2 1878.48  112.54
  -2  -4   2 1848.35   89.22
  -2  -4   2 1839.21   81.59
   2   4  -1  904.35   39.77
   2  -4  -1 1006.13   54.42
   2  -4  -1  987.21   44.15
  -2  -4   1 1011.08   47.91
  -2  -4   1  985.62   56.26
   2   4   0   -0.17    6.16
   2  -4   0    1.00    7.08
   2  -4   0    1.93    9.52
  -2  -4   0    4.59    9.50
  -2  -4   0    8.22    5.74
  -2   4  -1   71.61   11.87
   2  -4   1   76.49   12.51
   2  -4   1   87.81   19.53
  -2  -4  -1   68.05    9.43
  -2  -4  -1   76.08   18.34
  -2  -4  -1   72.59   13.52
  -2   4  -2  271.00   21.58
   2  -4   2  252.08   19.88
   2  -4   2  283.69   30.87
  -2  -4  -2  256.49   27.51
  -2   4  -3  258.89   22.89
   2  -4   3  258.40   30.34
   2  -4   3  242.25   19.03
  -2  -4  -3  245.98   26.15
  -2  -4  -3  246.26   24.30
  -2   4  -4  210.42   23.11
   2  -4   4  197.22   17.52
   2  -4   4  208.44   27.16
  -2  -4  -4  205.79   24.05
  -2  -4  -4  217.11   24.46
  -2   4  -5  171.91   23.94
   2  -4   5  149.93   26.07
   2  -4   5  169.75   25.10
  -2  -4  -5  158.71   21.34
  -2  -4  -5  170.72   24.19
  -2   4  -6  185.57   27.45
   2  -4   6  539.19   35.48
   2  -4   6  219.28   28.89
  -2  -4  -6  193.05   39.35
  -2   4  -7   31.53   14.90
   2  -4   7   29.29   16.20
   2  -4   7   24.63   13.71
  -2  -4  -7   20.82   20.14
  -2   4  -8   92.07   22.58
   2  -4   8   82.42   19.26
   2  -4   8   78.78   22.30
  -2  -4  -8  168.80   23.63
  -2  -4  -8  119.96   27.16
  -2   4  -9  324.78   54.09
   2  -4   9  273.75   30.64
  -2  -4  -9  371.96   33.58
   2  -4   9  309.16   24.33
  -2  -4  -9  260.78   21.80
  -2   4 -10  367.36   34.95
   2  -4  10  307.28   29.58
   2  -4  10  318.34   28.24
  -2  -4 -10  398.48   34.92
  -2  -4 -10  295.93   20.56
  -2   4 -11  148.97   21.18
   2  -4  11   90.97   17.12
  -2  -4 -11   73.85   10.08
  -2  -4 -11  146.48   21.96
  -2   4 -12    3.81    7.85
   2  -4  12    0.34    2.34
  -2  -4 -12    9.25    7.73
  -2   4 -13   23.97   12.76
  -2  -4 -13   33.65   12.35
   2   5 -12   34.62   19.36
  -2  -5  12   29.58    9.86
   2   5 -11  243.81   24.06
   2  -5 -11  159.25   12.88
  -2  -5  11  233.48   22.13
   2   5 -10   25.60   13.38
   2  -5 -10    9.70    9.19
   2  -5 -10   16.87    7.49
  -2  -5  10   27.47   12.07
   2   5  -9   15.21   12.84
   2  -5  -9   10.40    7.27
  -2  -5   9   10.71   20.10
   2   5  -8   18.06   13.72
   2  -5  -8    8.55    7.44
  -2  -5   8   16.07   20.94
   2   5  -7    2.31   16.61
   2  -5  -7   22.82    8.79
  -2  -5   7   37.95   14.07
   2  -5  -6   10.56    7.15
  -2  -5   6   13.16   10.70
  -2  -5   6   -6.58   14.16
   2  -5  -5   14.66   15.83
  -2  -5   5   34.30   17.56
  -2  -5   5   45.65   14.21
   2  -5  -4  136.23   16.40
   2  -5  -4  142.13   14.62
  -2  -5   4  151.46   25.64
  -2  -5   4  140.27   21.30
   2  -5  -3  427.90   30.89
   2  -5  -3  399.99   23.72
  -2  -5   3  432.70   49.76
  -2  -5   3  441.87   38.96
   2  -5  -2  523.59   38.07
   2  -5  -2  487.85   26.28
  -2  -5   2  530.62   51.67
  -2  -5   2  551.04   42.76
   2  -5  -1  170.83   40.67
  -2  -5   1  157.89   30.87
  -2  -5   1  220.87   29.20
   2  -5   0  147.10   37.10
  -2  -5   0  112.43   13.78
  -2  -5   0  101.52   37.53
   2  -5   1   84.64   33.34
  -2  -5  -1   65.04   17.69
   2  -5   2   54.98   18.07
  -2  -5  -2   43.70   14.82
  -2   5  -3  125.61   15.94
   2  -5   3  129.59   24.88
  -2  -5  -3  136.03   19.23
  -2   5  -4   25.89   11.02
   2  -5   4   26.53   16.33
  -2  -5  -4   24.29   11.27
  -2  -5  -4   29.49   10.63
  -2   5  -5  118.09   18.03
   2  -5   5  113.15   23.42
  -2  -5  -5  107.91   16.54
  -2  -5  -5  113.00   16.88
  -2   5  -6  183.46   22.42
   2  -5   6  186.32   24.96
  -2  -5  -6  160.62   17.99
  -2  -5  -6  154.53   20.29
  -2   5  -7   45.26   23.08
   2  -5   7   31.15   22.70
  -2  -5  -7   23.23    8.96
  -2   5  -8  149.05   32.70
   2  -5   8  188.56   31.91
  -2  -5  -8  163.47   19.63
  -2  -5  -8  128.46   13.09
  -2   5  -9   20.25    9.05
  -2  -5  -9    0.43    3.22
  -2  -5  -9   26.31    8.92
   2  -5   9   27.30    7.99
  -2   5 -10   40.77   13.74
  -2  -5 -10   64.42   13.12
   2   6  -8   19.63    9.86
  -2  -6   8    0.02    8.72
   2   6  -7   34.45   11.98
  -2  -6   7    1.14   10.41
   2   6  -6  116.86   20.84
  -2  -6   6  101.55   17.27
   2   6  -5    8.13    9.12
  -2  -6   5   -0.69    7.04
  -2  -6   4   37.68   11.69
  -2  -6   4    0.93    9.17
   2  -6  -3   68.30   10.11
  -2  -6   3   62.77   17.09
  -2  -6   3   76.06   12.65
   2  -6  -2  140.24   15.71
  -2  -6   2  133.54   14.00
  -2  -6   2  173.07   21.75
   2  -6  -1   67.81   11.43
  -2  -6   1    3.18    6.67
  -2  -6   1   53.12   13.02
   2  -6   0  440.84   32.51
  -2  -6   0  449.25   32.37
   2  -6   1  156.16   22.01
  -2  -6  -1  146.65   19.24
   2  -6   2  200.50   24.25
  -2  -6  -2  174.24   18.61
   2  -6   3   -0.01   13.08
  -2  -6  -3   32.00    9.20
   2  -6   4    0.68   11.74
  -2  -6  -4   17.54    6.95
   2  -6   5   16.43   10.37
  -2  -6  -5    7.55    5.16
   2  -6   6   16.58   10.78
   3   0 -18  104.93   10.32
   3   0 -17   47.29   16.23
   3   0 -17   47.08   17.15
  -3   0  17   31.36   15.05
   3   0 -16  208.79   20.55
   3   0 -16  217.83   19.51
  -3   0  16  173.59   18.80
   3   0 -15  241.04   22.85
   3   0 -15  255.74   24.69
  -3   0  15  197.31   21.70
   3   0 -14    5.05    8.13
   3   0 -14    1.08    7.87
  -3   0  14    5.39    7.92
   3   0 -13  475.47   53.20
   3   0 -13  554.52   35.64
  -3   0  13  518.82   35.30
   3   0 -12 1275.85   62.17
  -3   0  12 1237.91   60.50
  -3   0  12 1423.54   66.21
   3   0 -11  144.83   16.19
   3   0 -11  175.17   21.71
  -3   0  11  165.68   20.22
  -3   0  11  140.41   19.25
   3   0 -10 1114.56   46.73
   3   0 -10 1149.07   55.60
  -3   0  10 1026.22   51.66
  -3   0  10 1075.72   44.81
  -3   0  10 1166.51   47.95
   3   0  -9   -1.26    5.07
   3   0  -9    0.35    7.51
   3   0  -9    1.84    6.73
  -3   0   9    3.70    8.46
  -3   0   9    9.54    6.68
  -3   0   9    1.09    7.88
  -3   0   9    1.15    5.59
   3   0  -8  333.41   19.22
   3   0  -8  335.95   27.75
   3   0  -8  353.51   25.42
  -3   0   8  344.89   39.85
  -3   0   8  338.63   28.57
  -3   0   8  333.36   22.50
  -3   0   8  344.19   30.85
   3   0  -7  199.31   22.88
   3   0  -7  212.18   39.03
   3   0  -7  214.76   34.21
  -3   0   7  231.89   24.93
  -3   0   7  204.31   20.57
  -3   0   7  225.58   23.22
  -3   0   7  207.38   19.54
   3   0  -6 5233.48  212.69
   3   0  -6 5551.93  245.73
   3   0  -6 5046.52  188.27
  -3   0   6 5335.31  219.60
  -3   0   6 5407.58  200.26
  -3   0   6 5289.43  210.01
  -3   0   6 5413.69  252.22
   3   0  -5 6641.46  263.27
   3   0  -5 6530.41  265.13
   3   0  -5 6222.94  234.70
  -3   0   5 6353.20  260.88
  -3   0   5 6436.25  241.68
  -3   0   5 6065.05  245.81
   3   0  -4 1143.48   51.53
   3   0  -4 1153.35   51.26
   3   0  -4 1086.69   25.93
   3   0  -4 1112.57   38.02
  -3   0   4 1032.07   51.12
  -3   0   4 1084.50   70.68
  -3   0   4 1112.07   37.55
  -3   0   4 1057.05   54.07
   3   0  -3 3095.43  117.63
   3   0  -3 3046.53  115.88
   3   0  -3 2920.12  141.88
   3   0  -3 2780.54   94.37
   3   0  -3 2821.84   87.96
  -3   0   3 3045.84  116.41
  -3   0   3 2850.77  111.60
  -3   0   3 2735.54  115.69
  -3   0   3 2782.51  113.00
   3   0  -2 4638.85  179.37
   3   0  -2 4844.52  185.13
   3   0  -2 4312.14  150.48
   3   0  -2 4482.95  158.79
   3   0  -2 4702.82  179.57
  -3   0   2 4535.90  180.57
  -3   0   2 4833.63  168.94
  -3   0   2 4291.69  176.02
  -3   0   2 4590.74  178.81
   3   0  -1 1689.28   65.86
   3   0  -1 1674.60   71.47
   3   0  -1 1592.24   54.15
   3   0  -1 1631.19   65.56
   3   0  -1 1589.46   64.91
  -3   0   1 1597.06   92.61
  -3   0   1 1534.55   95.15
  -3   0   1 1546.88   68.52
  -3   0   1 1715.61   59.69
   3   0   0 7873.42  318.39
   3   0   0 8674.25  332.88
   3   0   0 8709.99  345.95
   3   0   0 8342.64  344.45
   3   0   0 8306.28  326.51
  -3   0   0 7578.85  314.90
  -3   0   0 7996.22  324.13
  -3   0   0 8191.89  318.37
  -3   0   0 8359.81  328.27
  -3   0   0 7975.14  331.76
   3   0   116534.70  762.01
   3   0   116125.20  760.00
   3   0   116484.40  758.03
   3   0   116925.80  792.16
   3   0   116124.30  751.48
  -3   0  -115499.60  720.99
  -3   0  -116057.50  742.46
  -3   0  -116366.10  751.59
  -3   0  -116048.40  742.34
  -3   0  -116908.80  792.45
   3   0   2  638.01   26.93
   3   0   2  654.27   34.53
   3   0   2  648.10   28.78
   3   0   2  646.65   33.47
  -3   0  -2  578.49   47.22
  -3   0  -2  621.47   30.31
  -3   0  -2  594.02   25.79
  -3   0  -2  637.80   37.22
  -3   0  -2  597.85   26.17
  -3   0  -2  631.36   25.00
   3   0   3 1825.04   61.14
   3   0   3 1845.94   73.95
   3   0   3 1819.44   66.72
   3   0   3 1898.68   75.79
  -3   0  -3 1828.69   65.20
  -3   0  -3 1832.94   97.68
  -3   0  -3 1806.05   61.60
  -3   0  -3 1831.18   75.63
  -3   0  -3 1728.82   56.38
   3   0   4  158.86   10.67
   3   0   4  151.07   15.81
   3   0   4  155.89   20.26
   3   0   4  154.61   18.55
  -3   0  -4  142.05    6.59
  -3   0  -4  150.57   19.30
  -3   0  -4  121.51   32.84
  -3   0  -4  134.38    7.22
  -3   0  -4  152.65   11.56
   3   0   5  160.78   15.77
   3   0   5  118.92   16.13
   3   0   5  127.40   20.82
  -3   0  -5  125.29   20.04
  -3   0  -5  118.45   10.28
  -3   0  -5  126.73   18.45
   3   0   6 1144.18   39.22
   3   0   6 1161.92   52.42
  -3   0  -6 1175.43   59.75
  -3   0  -6 1100.13   38.61
  -3   0  -6 1157.52   53.91
  -3   0  -6 1161.65   54.39
   3   0   7 2317.19   79.82
   3   0   7 2428.12  100.45
  -3   0  -7 2571.89  146.42
  -3   0  -7 2380.74   82.22
  -3   0  -7 2515.95  103.62
   3   0   8    8.08    8.98
  -3   0  -8    2.56   17.91
  -3   0  -8    0.32    8.55
   3   0   9  144.93   23.51
  -3   0  -9  168.02   42.92
  -3   0  -9  148.17   21.80
   3   0  10  610.06   44.59
  -3   0 -10  639.32   41.30
  -3   0 -10  626.01   47.58
   3   0  11  142.59   24.68
  -3   0 -11  153.07   36.36
  -3   0 -11  155.59   25.92
   3   0  12 1888.21   93.75
  -3   0 -12 1803.16   90.96
  -3   0 -12 1887.41  114.10
   3   0  13  159.46   24.39
  -3   0 -13  153.63   23.79
  -3   0 -13  153.51   21.20
   3   0  14   24.47   13.29
  -3   0 -14   19.99   12.38
  -3   0 -14   22.25   10.76
   3   0  15   81.79   31.57
  -3   0 -15  119.45   14.17
  -3   0 -15  114.92   16.88
   3   0  16   99.43   14.65
  -3   0 -16   96.85   20.20
   3   1 -18   55.84   10.98
  -3   1  18   16.67   15.42
   3   1 -17   29.94   12.33
  -3   1  17   28.75   11.38
   3  -1 -17   37.87   18.51
   3   1 -16   89.54   18.30
  -3   1  16   83.16   17.16
   3  -1 -16   82.69   16.26
   3   1 -15    5.99    5.27
   3   1 -15    0.97    9.52
  -3   1  15    3.36    9.06
   3  -1 -15    0.24    9.44
   3   1 -14  445.61   26.05
   3   1 -14  479.33   37.91
  -3   1  14  447.73   36.20
   3  -1 -14  403.57   23.83
   3  -1 -14  474.98   37.74
   3   1 -13 1505.98   77.96
   3  -1 -13 1476.99   78.38
   3  -1 -13 1391.36   58.23
   3   1 -12  916.28   44.91
   3  -1 -12  801.69   46.18
   3  -1 -12  861.01   56.13
   3  -1 -12  916.01   39.88
  -3  -1  12  799.22   37.70
  -3  -1  12  876.75   52.51
   3   1 -11  233.54   21.46
  -3   1  11  219.76   17.27
   3  -1 -11  222.20   23.87
  -3  -1  11  227.14   27.12
  -3  -1  11  220.71   18.43
   3  -1 -11  218.08   45.35
   3   1 -10  243.21   21.11
  -3   1  10  221.46   16.92
   3  -1 -10  226.58   25.81
  -3  -1  10  215.19   26.33
  -3  -1  10  245.97   20.76
   3  -1 -10  238.38   23.63
  -3   1   9  511.94   25.89
  -3   1   9  542.21   31.18
  -3   1   9  518.99   25.52
   3   1  -9  531.92   47.20
  -3  -1   9  515.18   35.79
  -3  -1   9  513.83   45.73
   3  -1  -9  524.27   32.69
   3  -1  -9  535.80   35.82
   3  -1  -9  515.80   25.38
   3   1  -8  824.60   47.33
   3   1  -8  811.27   41.04
  -3   1   8  807.95   47.02
  -3   1   8  780.53   36.64
  -3   1   8  766.86   33.30
  -3   1   8  790.72   38.80
  -3  -1   8  656.62   27.31
  -3  -1   8  793.90   41.11
   3  -1  -8  771.06   42.20
   3  -1  -8  788.55   32.98
   3  -1  -8  771.06   38.71
  -3  -1   8  821.68   45.72
   3   1  -7 1632.54   72.80
  -3   1   7 1509.12   61.91
   3   1  -7 1612.96   67.97
   3   1  -7 1627.30   56.76
  -3   1   7 1512.71   56.05
  -3   1   7 1572.79   63.95
   3  -1  -7 1606.94   58.90
  -3  -1   7 1475.12   50.45
  -3  -1   7 1613.85   68.90
  -3  -1   7 1667.34   72.83
   3  -1  -7 1634.19   70.20
   3  -1  -7 1586.46   63.65
   3   1  -6  258.51   11.36
   3   1  -6  262.21   22.98
   3   1  -6  273.68   40.67
  -3   1   6  228.73   21.78
  -3   1   6  251.91   16.76
  -3   1   6  257.63   20.39
  -3  -1   6  236.68    8.66
  -3  -1   6  274.67   25.12
  -3  -1   6  265.32   24.68
   3  -1  -6  242.89   22.12
   3  -1  -6  270.66   16.12
   3  -1  -6  266.33   20.31
   3   1  -5 3415.48  133.59
   3   1  -5 3570.29  138.01
   3   1  -5 3525.81  116.21
  -3   1   5 3480.16  129.17
  -3   1   5 3406.10  138.97
  -3   1   5 3251.51  116.29
   3  -1  -5 3180.91  148.55
  -3  -1   5 3264.77  130.75
  -3  -1   5 3333.67  133.35
  -3  -1   5 3228.59   99.76
   3  -1  -5 3352.28  118.61
   3  -1  -5 3311.15  124.28
  -3  -1   5 3240.15  120.19
   3   1  -4 2563.30  104.21
   3   1  -4 2491.46  101.15
   3   1  -4 2666.13   87.12
   3   1  -4 2690.41  104.97
  -3   1   4 2600.73   96.46
  -3   1   4 2670.70  109.10
   3  -1  -4 2353.09  110.93
  -3  -1   4 2517.64   83.37
  -3  -1   4 2599.24  103.61
  -3  -1   4 2495.50   69.01
  -3  -1   4 2552.02  105.17
   3  -1  -4 2506.34   88.79
   3  -1  -4 2448.45   91.94
  -3   1   3 3020.48  138.49
   3   1  -3 2863.65  113.65
   3   1  -3 2941.18  117.29
   3   1  -3 3088.38  103.36
  -3   1   3 2549.36  104.96
  -3   1   3 2872.49  103.56
   3  -1  -3 2897.29  122.62
  -3  -1   3 2890.77  113.14
  -3  -1   3 2808.56   78.87
  -3  -1   3 2955.78  115.43
  -3  -1   3 2861.03  114.80
   3  -1  -3 3008.21  120.14
   3  -1  -3 2723.88  104.34
   3  -1  -3 2834.00  102.19
  -3   1   2 4615.39  187.24
   3   1  -2 5062.10  203.27
   3   1  -2 4933.84  229.77
   3   1  -2 5283.30  214.63
  -3   1   2 4847.34  182.80
  -3   1   2 5948.58  231.33
   3  -1  -2 5327.53  194.82
   3  -1  -2 4901.01  179.01
   3  -1  -2 5056.66  188.94
   3  -1  -2 4753.66  184.32
  -3  -1   2 4797.11  176.61
  -3  -1   2 5113.24  203.51
  -3  -1   2 4671.16  186.22
   3  -1  -2 5036.60  202.65
  -3  -1   2 5202.32  202.96
  -3  -1   2 5030.49  153.93
  -3   1   1 8714.01  365.50
   3   1  -1 8553.32  355.02
   3   1  -1 8578.16  343.18
  -3   1   1 7658.03  322.19
   3   1  -1 7948.61  330.11
  -3   1   1 7861.05  317.71
   3  -1  -1 8014.90  335.19
   3  -1  -1 8610.60  332.40
   3  -1  -1 8141.01  329.16
  -3  -1   1 7678.67  309.12
  -3  -1   1 6889.31  286.97
  -3  -1   1 7896.76  328.25
   3  -1  -1 8034.68  329.88
   3  -1  -1 7963.31  308.42
  -3  -1   1 8302.91  337.20
  -3   1   0 9783.13  427.61
   3   1   0 9976.97  428.02
   3   1   010403.40  440.39
  -3   1   0 9681.41  451.67
  -3   1   0 9980.70  422.19
   3  -1   010318.80  441.29
   3  -1   010359.80  412.22
  -3  -1   0 9717.49  406.60
  -3  -1   010433.10  446.04
  -3  -1   0 9864.31  446.48
  -3  -1   0 9571.64  400.16
   3  -1   010693.40  438.80
   3  -1   010235.30  438.49
   3  -1   010053.00  423.79
  -3  -1   0 9539.44  440.36
  -3   1  -1 2562.62   87.72
   3   1   1 2478.34   95.89
   3   1   1 2569.39   98.63
  -3   1  -1 2386.74   92.11
  -3   1  -1 2507.03   97.82
  -3   1  -1 2384.77   90.05
   3  -1   1 2520.22   75.61
  -3  -1  -1 2586.70   86.38
   3  -1   1 2498.21   92.44
   3  -1   1 2393.20   80.05
  -3  -1  -1 2260.00   86.22
  -3  -1  -1 2349.39   79.71
   3  -1   1 2458.30   93.72
   3  -1   1 2478.94   93.54
  -3  -1  -1 2417.60   92.93
  -3  -1  -1 2391.35   94.83
   3   1   2 2355.92  111.91
   3   1   2 2405.90   95.02
  -3   1  -2 2283.90   88.65
  -3   1  -2 2265.83   81.29
  -3   1  -2 2252.01   81.28
  -3   1  -2 2385.21   94.33
   3  -1   2 2229.43   65.13
   3  -1   2 2393.96   89.52
   3  -1   2 2324.09   83.93
  -3  -1  -2 2306.87   90.44
  -3  -1  -2 2163.57   81.07
  -3  -1  -2 2201.23   69.45
   3  -1   2 2265.10   86.84
  -3  -1  -2 2257.42   89.34
  -3  -1  -2 2364.68   82.99
   3  -1   2 2296.21   72.06
   3   1   3 2580.63   84.40
   3   1   3 2509.98   93.07
   3   1   3 2658.42  137.32
  -3   1  -3 2615.52  103.60
  -3   1  -3 2479.80  121.18
  -3   1  -3 2515.47   94.03
  -3   1  -3 2331.70   81.67
   3  -1   3 2382.47   70.03
   3  -1   3 2319.79   68.38
   3  -1   3 2574.62   90.26
  -3  -1  -3 2525.33   93.72
  -3  -1  -3 2251.72   68.38
   3  -1   3 2576.12   97.95
   3  -1   3 2662.60  128.48
  -3  -1  -3 2511.56   99.52
  -3  -1  -3 2552.05   97.87
  -3  -1  -3 2388.82   72.83
   3   1   4  906.93   39.67
   3   1   4  918.69   34.62
   3   1   4  937.57   50.78
  -3   1  -4  906.11   43.42
  -3   1  -4  924.58   48.57
  -3   1  -4  928.16   45.24
  -3   1  -4  897.62   42.16
  -3  -1  -4  910.86   42.52
  -3  -1  -4  940.29   40.59
   3  -1   4  931.04   44.43
   3  -1   4  929.23   34.08
   3  -1   4  962.91   47.49
  -3  -1  -4  906.81   46.35
   3   1   5 1369.30   54.43
   3   1   5 1406.05   52.81
   3   1   5 1469.31   71.46
  -3   1  -5 1473.92   64.97
  -3   1  -5 1398.74   63.52
  -3   1  -5 1370.76   44.24
  -3  -1  -5 1347.55   63.36
  -3  -1  -5 1409.99   57.87
  -3  -1  -5 1448.94   57.38
   3  -1   5 1369.45   61.85
   3  -1   5 1374.16   46.24
   3  -1   5 1458.90   65.74
   3   1   6  514.63   41.55
   3   1   6  597.27   42.21
  -3   1  -6  576.80   36.11
  -3   1  -6  561.15   36.24
   3   1   6  572.23   29.28
  -3   1  -6  564.91   38.19
  -3  -1  -6  565.78   29.62
  -3  -1  -6  572.90   30.94
   3  -1   6  554.45   35.50
   3  -1   6  544.94   37.37
  -3  -1  -6  547.58   37.04
   3   1   7 2392.76   94.16
   3   1   7 2484.72   99.23
  -3   1  -7 2430.72  104.39
  -3   1  -7 2368.10  108.52
   3  -1   7 2228.01  100.98
  -3  -1  -7 2168.59   84.54
  -3  -1  -7 2384.13  106.31
  -3  -1  -7 2565.93   99.86
  -3  -1  -7 2480.91   95.28
   3   1   8  118.74   17.94
  -3   1  -8  117.04   23.69
  -3   1  -8  108.43   21.06
  -3  -1  -8  113.12   16.34
   3  -1   8  130.83   22.69
  -3  -1  -8  109.47   21.63
   3   1   9  950.00   52.75
  -3   1  -9  940.29   55.93
  -3   1  -9  978.64   63.12
   3  -1   9  982.11   58.74
  -3  -1  -9 1007.47   48.03
  -3  -1  -9  914.80   56.00
   3   1  10 2362.12  109.03
  -3   1 -10 2353.41  122.75
  -3   1 -10 2362.53  109.79
   3  -1  10 2363.95  114.93
  -3  -1 -10 2382.51   99.61
  -3  -1 -10 2319.15  111.93
  -3  -1 -10 2251.00   94.02
   3   1  11 1005.11   56.07
  -3   1 -11  993.81   64.48
  -3   1 -11  989.03   57.95
  -3  -1 -11  867.00   40.52
   3  -1  11 1024.28   61.95
  -3  -1 -11  934.78   56.14
  -3  -1 -11  987.84   47.89
   3   1  12  302.45   28.67
  -3   1 -12  300.59   54.70
  -3   1 -12  284.49   51.70
  -3  -1 -12  302.51   22.82
   3  -1  12  318.04   34.35
  -3  -1 -12  294.51   30.44
   3   1  13  130.53   18.89
  -3   1 -13  153.12   38.06
  -3   1 -13  141.33   23.42
  -3  -1 -13  119.05   14.18
   3  -1  13  147.09   23.96
  -3  -1 -13  124.73   20.52
   3   1  14  165.92   19.64
  -3   1 -14  181.13   23.08
  -3   1 -14  183.93   22.63
  -3  -1 -14  140.26   12.96
   3  -1  14  175.79   38.58
  -3  -1 -14  166.47   32.23
   3   1  15  190.64   18.80
  -3   1 -15  205.14   21.41
  -3   1 -15  206.11   21.57
  -3  -1 -15  144.66   15.60
   3  -1  15  201.80   22.00
   3   2 -17   75.76   29.01
  -3   2  17   91.63   17.62
   3  -2 -17  107.96   16.30
   3   2 -16  154.86   22.18
  -3   2  16  146.20   23.36
   3  -2 -16  174.07   37.41
   3   2 -15  135.60   23.00
  -3   2  15  140.03   24.52
   3  -2 -15  140.26   22.98
   3   2 -14   60.68   17.09
  -3   2  14    2.31   17.61
   3  -2 -14   65.87   16.99
   3   2 -13  380.76   35.03
   3  -2 -13  359.95   33.14
   3  -2 -13  374.99   34.14
  -3  -2  13  311.31   21.63
   3   2 -12    3.38   16.50
   3  -2 -12   39.79   15.15
   3  -2 -12   34.57   15.21
   3   2 -11  159.95   14.16
   3  -2 -11  171.40   25.03
   3  -2 -11  167.22   25.72
  -3  -2  11  166.84   25.06
   3   2 -10  586.86   29.25
   3   2 -10  558.78   27.64
   3  -2 -10  582.87   42.75
   3  -2 -10  601.39   41.06
  -3  -2  10  574.59   40.33
   3   2  -9  420.28   25.23
   3  -2  -9  605.61   36.88
   3  -2  -9  589.35   60.92
  -3  -2   9  607.14   37.58
  -3  -2   9  581.26   35.66
   3   2  -8   60.11   11.83
   3   2  -8   57.40   15.44
  -3   2   8   56.54   10.45
   3  -2  -8   51.36   15.47
   3  -2  -8   56.83   24.00
  -3  -2   8   65.88    9.85
  -3  -2   8   53.87   15.56
  -3  -2   8   50.12   15.88
   3   2  -7   63.85   12.26
   3   2  -7   60.10   16.34
   3   2  -7   56.02   18.39
  -3   2   7   53.59   15.16
  -3   2   7   58.01   11.90
   3  -2  -7   46.24   14.77
  -3  -2   7   46.75   14.09
  -3  -2   7   53.04   15.63
  -3  -2   7   56.16   10.00
   3  -2  -7   52.25   21.48
   3   2  -6  427.36   26.15
   3   2  -6  448.08   24.08
   3   2  -6  464.45   37.88
  -3   2   6  404.76   27.93
  -3   2   6  541.66   32.54
   3  -2  -6  434.40   25.91
  -3  -2   6  431.06   46.48
  -3  -2   6  430.96   32.20
  -3  -2   6  444.16   24.26
   3  -2  -6  436.90   30.91
   3   2  -5  989.52   60.46
   3   2  -5  798.21   34.51
   3   2  -5  824.92   49.49
  -3   2   5  831.17   43.57
   3  -2  -5  784.40   34.08
   3  -2  -5  849.87   42.50
   3  -2  -5  755.39   63.14
  -3  -2   5  806.42   35.43
  -3  -2   5  840.69   40.34
  -3  -2   5  809.31   45.25
   3  -2  -5  740.54   23.18
   3   2  -4  359.82   25.99
   3   2  -4  359.39   22.44
  -3   2   4  357.05   28.19
   3  -2  -4  398.59   18.99
   3  -2  -4  360.29   27.62
   3  -2  -4  345.21   27.04
  -3  -2   4  350.55   23.40
  -3  -2   4  331.76   46.96
  -3  -2   4  328.03   21.58
   3  -2  -4  321.43   12.26
   3   2  -3  369.99   28.28
   3   2  -3  402.41   24.74
  -3   2   3  406.72   52.52
   3  -2  -3  360.00   16.57
   3  -2  -3  364.52   13.71
   3  -2  -3  373.19   30.01
  -3  -2   3  356.33   23.67
  -3  -2   3  374.74   23.23
  -3  -2   3  394.29   44.15
   3  -2  -3  382.81   30.01
   3   2  -2 5396.37  219.93
   3   2  -2 5693.83  223.08
  -3   2   2 4850.91  200.64
  -3   2   2 6259.44  251.56
  -3   2   2 4926.30  180.99
   3  -2  -2 5089.64  182.27
  -3  -2   2 5524.74  210.86
  -3  -2   2 5262.10  236.06
   3  -2  -2 5711.30  234.83
   3  -2  -2 5781.72  232.49
   3  -2  -2 5174.68  197.23
  -3  -2   2 5316.41  237.25
   3   2  -1 4857.82  189.71
  -3   2   1 4364.03  176.67
  -3   2   1 5894.51  230.97
  -3   2   1 4299.92  166.49
   3  -2  -1 4165.14  140.62
   3  -2  -1 3842.04  140.39
  -3  -2   1 4547.93  178.53
  -3  -2   1 4523.64  192.32
   3  -2  -1 4727.47  191.34
   3  -2  -1 5518.66  210.68
   3  -2  -1 4571.23  153.61
  -3  -2   1 4707.45  173.58
   3   2   0   22.75   12.02
   3   2   0   44.01   12.87
  -3   2   0   21.65    6.80
  -3   2   0   21.14   12.20
   3  -2   0   38.64   12.44
  -3  -2   0   21.54   13.40
  -3  -2   0   50.04    8.13
  -3  -2   0   32.24   11.51
  -3  -2   0   28.44    7.65
   3  -2   0   36.35   13.51
   3  -2   0   20.05    6.72
   3   2   1 2090.82   85.19
   3   2   1 2357.38   97.56
  -3   2  -1 2116.23   85.55
  -3   2  -1 2088.18   85.04
  -3   2  -1 2122.57   74.51
  -3   2  -1 2176.62  123.56
  -3  -2  -1 2237.94   94.72
  -3  -2  -1 2100.52   70.07
   3  -2   1 2259.57  122.28
   3  -2   1 2195.15   88.85
   3  -2   1 2176.67   75.87
  -3  -2  -1 2125.57   88.32
  -3  -2  -1 2174.27   76.05
   3   2   2 4324.69  172.63
   3   2   2 4854.93  197.60
  -3   2  -2 4471.47  185.60
  -3   2  -2 4451.99  177.62
  -3   2  -2 4358.80  162.81
  -3   2  -2 4561.66  186.65
   3  -2   2 4267.60  159.97
  -3  -2  -2 4310.04  157.12
  -3  -2  -2 4116.37  143.44
   3  -2   2 4534.04  181.66
   3  -2   2 4620.99  212.45
  -3  -2  -2 4382.89  179.64
  -3  -2  -2 4480.34  154.31
  -3  -2  -2 4278.02  175.27
   3   2   3  297.98   28.19
  -3   2  -3  242.01   29.81
  -3   2  -3  243.47   32.15
   3   2   3  245.63   23.77
  -3   2  -3  245.75   27.62
  -3   2  -3  246.63   32.10
  -3  -2  -3  259.61   25.88
  -3  -2  -3  232.52   21.49
   3  -2   3  249.86   25.12
   3  -2   3  248.36   34.06
  -3  -2  -3  225.41   24.15
   3   2   4  163.34   19.97
   3   2   4  168.10   24.24
  -3   2  -4  166.12   24.10
  -3   2  -4  177.11   26.81
  -3   2  -4  160.26   14.89
  -3   2  -4  162.83   30.65
  -3  -2  -4  142.08   36.27
  -3  -2  -4  152.60   17.89
   3  -2   4  178.44   28.25
   3  -2   4  155.90   20.93
  -3  -2  -4  161.29   22.47
  -3   2  -5 1241.17   79.41
  -3   2  -5 1217.45   52.90
  -3   2  -5 1159.43   46.23
  -3  -2  -5 1153.37   83.71
  -3  -2  -5 1284.32   63.18
  -3  -2  -5 1157.48   42.37
   3  -2   5 1340.88   68.47
   3  -2   5 1238.85   59.38
  -3   2  -6 1320.03   58.57
  -3   2  -6 1271.00   48.09
  -3   2  -6 1314.45   63.72
  -3  -2  -6 1378.20   65.92
  -3  -2  -6 1207.93   44.13
  -3  -2  -6 1257.77   90.82
   3  -2   6 1360.88   65.50
   3  -2   6 1299.10   62.73
  -3  -2  -6 1241.02   43.28
  -3   2  -7  490.09   38.67
  -3   2  -7  447.55   32.12
  -3  -2  -7  502.39   37.23
   3  -2   7  488.72   57.89
  -3  -2  -7  453.34   57.18
   3   2   8  291.27   19.70
  -3   2  -8  326.48   29.53
  -3   2  -8  323.41   34.17
  -3  -2  -8  314.75   50.29
   3   2   9 1346.70   58.66
  -3   2  -9 1505.44   84.33
  -3   2  -9 1443.55   74.82
   3  -2   9 1500.45  107.11
   3   2  10   17.98    9.12
  -3   2 -10   24.77   13.79
  -3   2 -10   27.57   16.93
  -3  -2 -10   16.51   22.48
   3  -2  10   21.53   25.65
  -3  -2 -10   20.49   13.15
   3   2  11  151.58   17.16
  -3   2 -11  190.22   29.21
  -3   2 -11  175.61   24.94
  -3  -2 -11  181.19   22.29
   3  -2  11  176.86   24.78
  -3  -2 -11  160.16   22.69
   3   2  12  285.43   22.43
  -3   2 -12  337.45   35.35
  -3   2 -12  335.90   49.33
   3  -2  12  328.70   31.14
  -3  -2 -12  295.91   26.70
  -3  -2 -12  317.40   25.54
   3   2  13  464.26   28.34
  -3   2 -13  522.91   57.19
  -3   2 -13  536.59   64.05
  -3  -2 -13  455.85   29.58
   3  -2  13  509.21   36.68
  -3  -2 -13  485.76   28.24
  -3   2 -14  232.54   23.80
  -3   2 -14  240.64   25.26
  -3  -2 -14  183.17   17.58
   3  -2  14  231.97   23.19
  -3   2 -15   20.81   11.03
  -3   2 -15   28.89   11.27
   3  -2  15   28.66   10.37
   3   3 -16   10.82   15.70
  -3   3  16   18.74   11.69
   3  -3 -16   17.74   10.29
   3   3 -15   39.41   13.43
  -3   3  15   49.06   17.61
   3  -3 -15   74.84   15.31
   3   3 -14  108.38   16.24
  -3   3  14   -1.24   21.05
   3  -3 -14  121.57   18.25
  -3  -3  14   81.72   11.59
   3   3 -13    7.31    9.10
   3  -3 -13    7.58   11.09
   3  -3 -13    8.95   17.41
  -3  -3  13    5.80    7.63
   3   3 -12   11.98   10.67
   3   3 -12   11.86    7.88
   3  -3 -12   16.96   13.25
   3  -3 -12   18.71   11.35
  -3  -3  12   17.81   10.75
   3   3 -11  516.26   31.06
   3   3 -11  491.59   33.95
   3  -3 -11  509.11   35.31
   3  -3 -11  529.70   42.02
  -3  -3  11  484.38   35.99
   3   3 -10  171.07   20.51
   3  -3 -10  172.02   27.54
   3  -3 -10  157.53   20.90
  -3  -3  10  179.07   39.64
   3  -3  -9   83.61   15.28
   3  -3  -9   70.46   37.77
  -3  -3   9   73.36   14.49
  -3  -3   9   91.09   16.10
  -3  -3   9   96.00   33.55
   3  -3  -8  289.41   30.58
   3  -3  -8  291.36   22.73
  -3  -3   8  291.67   23.85
  -3  -3   8  279.28   30.32
  -3  -3   8  279.53   24.63
   3   3  -7  128.43   12.98
  -3   3   7  127.91   15.29
   3  -3  -7  145.28   14.97
   3  -3  -7  142.84   22.25
  -3  -3   7  139.65   16.06
  -3  -3   7  136.53   23.16
  -3  -3   7  140.73   19.59
   3   3  -6  513.75   26.42
   3  -3  -6  485.87   24.09
   3  -3  -6  550.29   31.65
   3  -3  -6  507.63   36.70
  -3  -3   6  502.28   27.48
  -3  -3   6  503.89   37.00
  -3  -3   6  487.68   32.61
   3   3  -5    5.81   10.47
   3  -3  -5    2.56    4.20
   3  -3  -5    5.14    7.55
   3  -3  -5    1.36    8.93
  -3  -3   5   12.79   13.80
  -3  -3   5    4.86    5.25
  -3  -3   5    3.52    8.91
   3   3  -4 1037.49   46.90
   3  -3  -4 1074.16   52.82
   3  -3  -4  998.97   75.60
  -3  -3   4  989.67   50.18
  -3  -3   4 1002.47   51.59
  -3  -3   4  957.32   38.50
   3   3  -3  776.27   39.68
   3  -3  -3  704.34   43.34
   3  -3  -3  782.65   44.57
  -3  -3   3  719.03   38.34
  -3  -3   3  728.05   41.97
  -3  -3   3  720.57   39.50
   3   3  -2 1113.40   52.57
   3  -3  -2 1219.48   62.47
   3  -3  -2 1329.07   63.69
  -3  -3   2 1059.73   37.96
  -3  -3   2 1119.82   50.12
  -3  -3   2 1140.36   58.34
   3   3  -1 2618.36  110.00
   3  -3  -1 2902.30  128.52
   3  -3  -1 3018.35  125.41
  -3  -3   1 2688.90  116.66
  -3  -3   1 2772.54  106.89
   3  -3   0  393.17   56.09
  -3  -3   0  373.17   49.82
  -3  -3   0  392.34   30.45
  -3  -3   0  387.90   30.67
  -3   3  -1   62.29    8.45
   3  -3   1   64.85   29.79
   3  -3   1   63.62   25.77
  -3  -3  -1   55.34   15.61
  -3  -3  -1   65.13   16.43
  -3  -3  -1   44.24   12.28
  -3   3  -2   84.13   11.14
   3  -3   2   77.43   28.33
  -3  -3  -2   75.87   18.73
  -3  -3  -2   67.15   17.23
   3  -3   2   68.46   31.43
  -3   3  -3  450.63   26.84
   3  -3   3  457.21   32.35
  -3  -3  -3  429.67   33.81
   3  -3   3  483.58   33.71
  -3  -3  -3  450.65   36.51
  -3   3  -4  372.40   18.44
  -3   3  -4  408.38   28.42
   3  -3   4  402.45   30.73
   3  -3   4  430.78   30.62
  -3  -3  -4  382.29   32.25
  -3   3  -5   15.38   13.46
  -3   3  -5   34.36   21.47
   3  -3   5   29.24   12.92
   3  -3   5   53.62   20.92
  -3  -3  -5   19.62   13.45
  -3   3  -6   80.36   20.75
  -3   3  -6   97.90   30.81
   3  -3   6   91.76   25.40
   3  -3   6   78.85   18.27
  -3  -3  -6   84.60   21.94
  -3  -3  -6   80.95   18.40
  -3   3  -7   75.80   21.68
  -3   3  -7   70.50   19.00
   3  -3   7   67.14   22.07
   3  -3   7   69.32   18.12
  -3  -3  -7   78.17   21.66
  -3   3  -8 1410.95   75.43
  -3   3  -8 1420.83   84.28
   3  -3   8 1472.10   72.09
  -3  -3  -8 1347.41   69.29
  -3   3  -9 2079.09  102.63
  -3   3  -9 2223.38  118.61
   3  -3   9 2043.37   94.62
  -3  -3  -9 1941.04   91.07
  -3   3 -10  170.77   27.24
  -3   3 -10  138.70   32.57
   3  -3  10  145.21   21.48
  -3  -3 -10  159.18   24.99
  -3  -3 -10  142.96   19.95
  -3   3 -11  452.85   31.02
  -3   3 -11  418.04   38.72
   3  -3  11  439.40   32.75
  -3  -3 -11  424.58   34.37
  -3  -3 -11  380.43   27.82
  -3   3 -12   11.51    8.27
  -3   3 -12   13.81   11.29
   3  -3  12    9.65    9.08
  -3  -3 -12    9.67    9.74
  -3  -3 -12    5.23    7.84
  -3   3 -13    8.47    7.14
  -3   3 -13    3.62   17.28
   3  -3  13    5.14    7.47
  -3  -3 -13   11.23    7.67
  -3  -3 -13    4.50    5.63
  -3   3 -14   22.99   10.18
  -3   3 -14   19.07    7.82
   3  -3  14   17.45    7.49
  -3   4  14   18.79   11.25
   3  -4 -14   17.38    8.37
   3   4 -13  197.45   25.65
   3  -4 -13  208.27   19.02
  -3  -4  13  226.88   20.37
   3   4 -12  303.36   23.59
   3   4 -12  277.22   18.84
   3  -4 -12  297.47   23.81
   3  -4 -12  333.06   29.09
  -3  -4  12  290.10   25.67
   3   4 -11  180.62   20.71
   3   4 -11  142.45   13.81
   3  -4 -11  155.37   17.54
   3  -4 -11  187.66   23.72
  -3  -4  11  168.85   22.50
   3   4 -10  104.95   18.60
   3  -4 -10   90.38   19.18
   3  -4 -10   74.52   13.35
  -3  -4  10   95.12   19.59
   3   4  -9    3.37   16.17
   3  -4  -9   65.91   16.78
   3  -4  -9   55.15   10.35
  -3  -4   9   70.11   17.72
   3  -4  -8  226.37   44.12
  -3  -4   8  245.99   28.95
  -3  -4   8  222.86   24.98
   3  -4  -7   90.15   21.23
  -3  -4   7   96.24   23.67
  -3  -4   7  246.83   24.35
   3  -4  -6  169.92   17.91
   3  -4  -6  183.41   23.54
  -3  -4   6  176.97   26.04
  -3  -4   6  193.40   25.33
   3  -4  -5    3.78    7.75
   3  -4  -5    2.71    8.83
  -3  -4   5    4.44    9.40
  -3  -4   5    4.08    9.90
   3  -4  -4  180.12   22.30
   3  -4  -4  166.73   23.04
  -3  -4   4  156.90   22.67
  -3  -4   4  156.30   43.17
   3   4  -3 2391.22   96.35
   3  -4  -3 2618.67  119.18
   3  -4  -3 2554.90  110.37
  -3  -4   3 2474.64  116.68
  -3  -4   3 2553.41  110.73
   3   4  -2 1131.28   52.04
   3  -4  -2 1114.07   81.17
   3  -4  -2 1210.81   66.91
  -3  -4   2 1154.09   66.51
  -3  -4   2 1106.20   53.70
   3   4  -1  314.16   26.12
   3  -4  -1  467.02   31.68
   3  -4  -1  369.79   36.87
  -3  -4   1  334.52   35.40
  -3  -4   1  346.82   23.71
   3   4   0   28.95   11.76
   3  -4   0   33.63   17.37
   3  -4   0   16.17   12.27
  -3  -4   0   16.69   15.06
  -3  -4   0   22.20    7.29
   3   4   1    0.04   11.45
   3  -4   1    4.66   26.16
   3  -4   1   11.31   10.20
  -3  -4  -1   40.88   13.68
   3  -4   2  720.34   41.04
   3  -4   2  822.31   83.93
  -3  -4  -2  733.73   50.65
  -3  -4  -2  933.40   50.48
  -3   4  -3  362.25   23.36
   3  -4   3  390.27   28.24
   3  -4   3  431.67   61.93
  -3  -4  -3  394.62   36.05
  -3  -4  -3  417.64   34.19
  -3   4  -4  189.12   18.68
   3  -4   4  180.83   19.97
   3  -4   4  210.27   43.06
  -3  -4  -4  179.70   25.47
  -3   4  -5  351.38   42.51
   3  -4   5  383.90   50.97
   3  -4   5  365.62   27.77
  -3  -4  -5  350.82   52.26
  -3   4  -6  130.79   32.11
   3  -4   6  170.90   37.33
   3  -4   6  124.41   30.47
  -3  -4  -6  128.48   35.81
  -3  -4  -6  140.49   24.57
  -3   4  -7   37.57   13.87
   3  -4   7   33.84   13.01
  -3  -4  -7   27.53   23.06
  -3  -4  -7   37.47   16.47
  -3   4  -8  170.99   22.44
   3  -4   8  142.02   17.44
   3  -4   8  154.50   29.16
  -3  -4  -8  161.21   33.34
  -3   4  -9  327.37   28.40
   3  -4   9  291.03   34.96
  -3  -4  -9  283.11   23.15
  -3   4 -10  593.66   37.97
   3  -4  10  531.61   42.39
  -3  -4 -10  533.70   31.38
  -3  -4 -10  639.85   44.08
  -3   4 -11  134.37   18.86
   3  -4  11  104.90   12.29
  -3  -4 -11  103.82   12.22
  -3  -4 -11  156.54   20.02
  -3   4 -12   12.07    9.74
  -3  -4 -12   20.57   10.18
   3   5 -11  270.72   21.81
   3  -5 -11  273.63   18.98
  -3  -5  11  305.27   41.20
   3   5 -10  131.28   18.77
   3  -5 -10  110.94   14.33
  -3  -5  10   84.24   33.10
   3   5  -9   11.12   11.58
   3  -5  -9   12.26    8.29
  -3  -5   9   12.54   11.15
   3   5  -8   46.92   16.83
   3  -5  -8   42.70   12.80
  -3  -5   8   44.90   15.67
   3  -5  -7    3.25   10.70
  -3  -5   7    3.32   13.15
  -3  -5   7   87.06   14.80
   3  -5  -6    3.31    9.74
  -3  -5   6   -3.03    7.15
  -3  -5   6   -0.75    7.59
   3  -5  -5   56.51   11.70
   3  -5  -5   49.12   12.93
  -3  -5   5   56.42   15.67
  -3  -5   5   51.79   18.22
   3  -5  -4  767.56   40.83
   3  -5  -4  804.36   44.86
  -3  -5   4  848.04   47.77
  -3  -5   4  802.57   53.45
   3  -5  -3  671.97   37.54
   3  -5  -3  698.01   44.86
  -3  -5   3  716.96   41.14
  -3  -5   3  690.73   50.10
   3  -5  -2  173.59   19.00
   3  -5  -2  190.90   24.86
  -3  -5   2  202.42   19.19
  -3  -5   2  178.71   28.58
   3  -5  -1   20.01   12.74
   3  -5  -1   18.96    8.86
  -3  -5   1   -0.28   11.94
  -3  -5   1   14.79   23.15
   3  -5   0   94.94   14.26
   3  -5   0   96.37   21.17
  -3  -5   0   91.14   20.80
   3   5   1   25.77    9.63
   3  -5   1   34.77   16.75
   3  -5   1   47.17   16.30
  -3  -5  -1   31.06   14.93
   3   5   2  118.59   16.00
   3  -5   2  105.88   22.70
   3  -5   2  144.30   24.91
  -3  -5  -2  111.71   21.35
   3   5   3  497.68   32.36
   3  -5   3  568.03   44.09
   3  -5   3  465.40   26.56
  -3  -5  -3  514.58   37.08
   3   5   4  304.62   26.60
   3  -5   4  249.65   18.84
   3  -5   4  350.14   32.93
  -3  -5  -4  299.32   27.89
   3   5   5   65.61   18.60
   3  -5   5  141.27   21.58
   3  -5   5  108.56   11.94
  -3  -5  -5  130.80   18.34
  -3   5  -6  161.69   16.18
   3  -5   6  159.72   13.62
   3  -5   6  178.39   22.06
  -3  -5  -6  174.98   19.64
  -3   5  -7   27.64    8.68
   3   5   7    2.21   11.11
   3  -5   7   14.19    5.63
   3  -5   7   23.38   10.02
  -3  -5  -7   24.08    9.70
   3   5   8    0.45   13.56
   3  -5   8   73.96   11.77
  -3  -5  -8   56.99   10.03
   3   6  -7   10.36    8.24
  -3  -6   7   -0.10    6.52
   3   6  -6  108.61   19.07
  -3  -6   6   98.12   14.09
   3   6  -5    1.34    7.04
  -3  -6   5    0.23    4.36
  -3  -6   4   -0.10    5.04
  -3  -6   4    9.69    7.99
  -3  -6   3    3.17    6.14
  -3  -6   3   47.62   11.38
   3  -6  -2  120.89   16.27
  -3  -6   2  123.89   19.97
   3  -6  -1  157.06   19.33
  -3  -6   1  155.83   21.32
   3  -6   0   83.40   16.78
  -3  -6   0   87.29   16.91
   3  -6   1   -0.46    9.54
  -3  -6  -1   13.18    8.74
   3  -6   2   -0.79   11.80
  -3  -6  -2   28.95    9.85
   3  -6   3    0.53    9.22
  -3  -6  -3    8.94    7.08
   3  -6   4   28.35   11.52
  -3  -6  -4   19.35    8.04
   4   0 -17   33.81    9.58
   4   0 -17   23.63    8.49
   4   0 -16    4.95    6.57
   4   0 -16    1.37    6.77
   4   0 -15  410.40   31.04
   4   0 -15  443.41   31.45
   4   0 -14 2038.72   95.33
   4   0 -14 2086.65   91.36
   4   0 -13  730.64   45.90
  -4   0  13  675.15   40.78
  -4   0  12  352.97   28.15
  -4   0  12  312.67   31.46
  -4   0  12  297.12   21.49
   4   0 -11  627.90   29.28
   4   0 -11  711.92   45.06
  -4   0  11  648.36   39.53
  -4   0  11  685.02   36.49
   4   0 -10  688.96   30.59
   4   0 -10  744.75   45.75
  -4   0  10  779.49   41.08
  -4   0  10  744.01   42.34
   4   0  -9   11.04    5.67
   4   0  -9   13.72   10.86
  -4   0   9    8.79    5.35
  -4   0   9   10.82   17.03
  -4   0   9   10.71    9.36
   4   0  -8  174.35   12.69
   4   0  -8  192.27   39.75
  -4   0   8  191.67   12.26
  -4   0   8  178.18   21.62
  -4   0   8  196.99   21.26
   4   0  -7  255.28   26.27
   4   0  -7  237.92   26.76
   4   0  -7  246.37   23.27
   4   0  -7  227.55   20.12
  -4   0   7  242.70   22.78
  -4   0   7  222.82   24.26
  -4   0   7  232.56   12.79
   4   0  -6   89.51   17.86
   4   0  -6   92.47   18.20
   4   0  -6  103.80   16.04
   4   0  -6   76.94    8.27
  -4   0   6   80.14   12.92
  -4   0   6   81.52   15.98
   4   0  -5  100.55   17.34
   4   0  -5   81.33   15.86
   4   0  -5   72.74    7.86
   4   0  -5  143.77   17.55
  -4   0   5   76.11   15.82
  -4   0   5   83.01   13.09
   4   0  -4   42.58   13.61
   4   0  -4   44.26   13.71
   4   0  -4   60.31   11.25
   4   0  -4   59.75   13.57
  -4   0   4   39.64   27.19
  -4   0   4   39.82    6.78
  -4   0   4   43.46   17.14
  -4   0   4   50.91   14.26
   4   0  -3    2.74   14.25
   4   0  -3    7.35   15.26
   4   0  -3   -5.60    4.94
   4   0  -3    5.44    1.97
   4   0  -3   12.12    8.18
  -4   0   3    6.53   15.44
  -4   0   3    4.60    9.78
  -4   0   3    6.97    9.19
   4   0  -2 7535.27  307.20
   4   0  -2 7628.05  313.83
   4   0  -2 7800.12  323.06
   4   0  -2 6828.04  269.42
   4   0  -2 7198.06  270.79
  -4   0   2 7241.86  306.62
  -4   0   2 7178.96  301.83
  -4   0   2 6799.02  281.81
  -4   0   2 7085.71  305.17
   4   0  -1 6295.59  256.60
   4   0  -1 6114.42  243.11
   4   0  -1 5886.19  229.79
   4   0  -1 5658.36  229.61
   4   0  -1 5881.42  217.55
  -4   0   1 5601.67  219.18
  -4   0   1 5854.19  236.60
  -4   0   1 5835.05  220.61
  -4   0   1 5859.26  244.22
  -4   0   1 5931.90  246.98
   4   0   0  639.68   32.63
   4   0   0  615.87   29.49
   4   0   0  620.92   40.08
   4   0   0  616.78   25.56
   4   0   0  618.44   26.09
  -4   0   0  603.15   27.54
  -4   0   0  587.47   30.81
  -4   0   0  593.41   59.17
  -4   0   0  611.67   34.46
  -4   0   0  585.96   24.82
   4   0   1 5729.18  220.78
   4   0   1 5370.76  205.59
   4   0   1 5625.09  259.96
   4   0   1 5351.27  201.85
   4   0   1 5564.72  214.04
  -4   0  -1 5264.53  201.56
  -4   0  -1 5399.22  207.60
  -4   0  -1 5192.02  200.29
  -4   0  -1 5247.61  215.86
  -4   0  -1 5502.39  215.94
   4   0   2  731.58   31.86
   4   0   2  727.31   39.48
   4   0   2  676.43   29.71
   4   0   2  699.66   33.64
   4   0   2  683.47   39.80
  -4   0  -2  704.10   32.73
  -4   0  -2  826.58   30.66
  -4   0  -2  706.55   32.58
  -4   0  -2  724.94   41.28
  -4   0  -2  702.54   29.96
   4   0   3  216.63   15.06
   4   0   3  229.82   22.66
   4   0   3  200.91   13.14
   4   0   3  223.54   26.32
   4   0   3  224.73   20.51
  -4   0  -3  252.20   22.86
  -4   0  -3  201.44   10.38
  -4   0  -3  211.29   18.31
  -4   0  -3  200.55   12.33
   4   0   4  441.79   19.59
   4   0   4  477.67   31.91
   4   0   4  491.87   40.96
   4   0   4  488.91   32.34
   4   0   4  467.34   22.17
  -4   0  -4  470.22   32.91
  -4   0  -4  443.14   29.33
   4   0   5 2218.43   85.63
   4   0   5 2466.80   99.01
  -4   0  -5 2257.39   96.50
  -4   0  -5 2343.29  101.04
   4   0   6  617.57   36.71
  -4   0  -6  560.91   38.74
  -4   0  -6  563.44   38.83
   4   0   7 2001.97   87.13
  -4   0  -7 2039.54   94.65
  -4   0  -7 1991.26   96.14
   4   0   810369.90  487.77
  -4   0  -810462.80  509.23
  -4   0  -810896.40  519.04
   4   0   9   68.22   18.11
  -4   0  -9   86.32   22.95
  -4   0  -9   88.17   20.28
   4   0  10  200.57   24.56
  -4   0 -10  211.23   29.61
  -4   0 -10  200.11   25.93
   4   0  11 1145.24   59.90
  -4   0 -11 1159.08   61.24
  -4   0 -11 1148.92   67.56
   4   0  12   60.26   27.71
  -4   0 -12   75.34   19.66
  -4   0 -12   77.70   16.51
   4   0  13   17.69   18.18
  -4   0 -13   23.68   13.38
  -4   0 -13   21.28   10.82
   4   0  14   62.52   12.72
  -4   0 -14   63.50   11.85
  -4   0 -14   56.52   15.62
   4   1 -17   11.99    8.64
  -4   1  17    5.84    6.26
   4  -1 -17   11.50    8.58
   4   1 -16    2.77    5.13
   4   1 -16    4.49    8.49
  -4   1  16    4.56    6.49
   4  -1 -16    4.19    8.41
   4   1 -15   70.34   18.01
   4   1 -15   76.00   12.21
  -4   1  15   62.45   14.62
   4  -1 -15   66.73   17.92
  -4   1  14  230.08   24.27
   4   1 -14  221.94   27.32
   4   1 -14  232.59   34.71
   4  -1 -14  238.58   29.04
   4   1 -13  448.89   31.21
   4  -1 -13  415.62   29.63
   4  -1 -13  410.21   36.86
   4  -1 -13  381.51   24.35
  -4  -1  13  405.87   35.15
  -4  -1  13  342.67   23.89
  -4   1  12   16.82    8.19
   4   1 -12   25.53   11.65
   4  -1 -12   26.05   11.08
  -4  -1  12   23.14   14.26
   4  -1 -12   36.55   25.45
   4   1 -11   31.82   12.40
  -4   1  11   22.87    9.02
  -4   1  11   24.14    8.58
  -4  -1  11   33.15   15.19
   4  -1 -11   31.47   11.62
   4  -1 -11   36.76   14.99
   4   1 -10  137.05   20.37
  -4   1  10  138.56   15.05
  -4   1  10  143.39   16.20
  -4  -1  10  144.52   23.49
   4  -1 -10  152.66   18.78
   4  -1 -10  156.63   23.07
   4   1  -9  593.50   59.09
  -4   1   9  544.44   28.56
  -4   1   9  550.18   49.67
   4  -1  -9  554.35   37.38
  -4  -1   9  540.93   36.78
   4  -1  -9  550.53   48.40
  -4  -1   9  551.26   39.41
   4   1  -8   49.66   16.23
  -4   1   8   57.86   10.99
  -4   1   8   51.72   14.32
   4  -1  -8   54.72   10.80
  -4  -1   8   46.92   16.34
  -4  -1   8   46.29   16.15
   4  -1  -8   61.27   12.53
   4  -1  -8   56.76   14.84
  -4   1   7 1242.96   51.39
   4   1  -7 1389.53   66.37
  -4   1   7 1355.41   54.66
  -4   1   7 1277.53   62.31
   4  -1  -7 1360.10   56.49
  -4  -1   7 1321.46   65.68
   4  -1  -7 1346.05   54.14
  -4  -1   7 1336.90   64.90
   4  -1  -7 1308.63   58.91
  -4  -1   7 1340.88   66.12
   4   1  -6  472.37   33.81
   4   1  -6  488.63   34.96
   4   1  -6  497.11   34.66
  -4   1   6  465.62   25.40
  -4   1   6  489.55   26.78
  -4   1   6  449.14   34.32
  -4  -1   6  484.48   35.64
  -4  -1   6  473.07   33.98
  -4  -1   6  453.84   34.96
   4  -1  -6  451.26   28.24
   4  -1  -6  449.29   24.14
   4  -1  -6  478.07   26.40
   4   1  -5 3335.08  140.76
   4   1  -5 3540.26  148.53
   4   1  -5 3682.88  150.54
   4   1  -5 3464.33  117.32
  -4   1   5 3549.80  158.18
  -4   1   5 3519.53  156.81
   4  -1  -5 3327.63  148.17
  -4  -1   5 3637.44  153.28
  -4  -1   5 3519.99  147.15
  -4  -1   5 3477.01  148.96
   4  -1  -5 3566.72  163.25
   4  -1  -5 3320.64  145.23
  -4   1   4 3280.43  142.23
   4   1  -4 3479.31  145.44
   4   1  -4 3526.10  143.15
   4   1  -4 3550.16  119.85
   4   1  -4 3506.15  144.87
  -4   1   4 3291.92  127.09
  -4   1   4 3141.30  132.88
  -4   1   4 3397.63  131.81
   4  -1  -4 3417.65  130.46
   4  -1  -4 3424.30  130.47
  -4  -1   4 3408.51  173.84
  -4  -1   4 3348.66  141.52
   4  -1  -4 3242.99  125.16
   4  -1  -4 3370.44  127.66
  -4  -1   4 2981.58  103.77
  -4  -1   4 3512.64  146.08
   4   1  -3 3782.34  183.95
   4   1  -3 3823.05  133.77
  -4   1   3 3756.94  149.86
   4   1  -3 4051.38  166.73
  -4   1   3 3650.96  141.25
  -4   1   3 3779.80  154.63
  -4   1   3 3674.43  158.59
   4  -1  -3 3771.44  143.37
   4  -1  -3 3849.58  142.91
   4  -1  -3 3040.36  119.34
  -4  -1   3 3651.43  150.92
   4  -1  -3 3540.61  140.68
  -4  -1   3 3744.08  154.59
  -4  -1   3 3503.98  136.69
  -4  -1   3 3856.70  156.57
   4   1  -2 1715.90   74.57
  -4   1   2 1637.11   74.18
   4   1  -2 1810.09   82.34
   4   1  -2 1641.67   60.81
  -4   1   2 1629.15   70.13
  -4   1   2 2084.33   85.45
   4  -1  -2 1709.74   70.45
   4  -1  -2 1684.67   62.70
  -4  -1   2 1666.92   72.44
  -4  -1   2 1691.14   77.82
  -4  -1   2 1576.05   57.67
  -4  -1   2 1626.89   70.26
   4  -1  -2 1908.16   77.75
   4  -1  -2 1728.51   63.08
   4   1  -1 7163.88  304.35
   4   1  -1 7022.56  292.21
   4   1  -1 7167.20  286.50
  -4   1   1 6760.52  280.00
  -4   1   1 6703.59  284.36
  -4   1   1 6619.63  301.36
   4  -1  -1 7302.97  295.30
   4  -1  -1 6977.96  269.77
  -4  -1   1 6883.72  290.97
  -4  -1   1 6886.00  281.32
   4  -1  -1 7027.53  286.22
  -4  -1   1 6595.96  271.72
   4  -1  -1 6850.60  304.91
  -4  -1   1 6582.92  263.32
   4   1   0 3335.09  135.22
   4   1   0 3209.03  126.86
   4   1   0 3049.49  115.82
  -4   1   0 3100.16  151.13
  -4   1   0 3102.61  120.75
  -4   1   0 3104.08  121.35
   4  -1   0 3067.20  104.29
   4  -1   0 3157.14  105.17
   4  -1   0 3219.85  126.94
  -4  -1   0 3110.59  116.46
  -4  -1   0 3019.03  115.25
  -4  -1   0 3128.54  116.95
   4  -1   0 3197.95  149.79
   4  -1   0 3165.12  119.35
  -4  -1   0 3124.04  128.21
   4   1   1 1145.89   53.95
   4   1   1 1094.22   49.16
   4   1   1 1064.80   67.43
  -4   1  -1 1055.85   48.38
  -4   1  -1 1085.15   50.61
  -4   1  -1 1015.04   43.86
  -4   1  -1 1061.64   49.04
   4  -1   1 1100.40   48.76
   4  -1   1 1024.48   32.62
  -4  -1  -1  997.63   60.02
  -4  -1  -1 1045.54   38.73
   4  -1   1 1058.20   32.72
   4  -1   1 1081.49   46.54
   4  -1   1 1055.09   46.41
  -4  -1  -1 1065.27   71.42
  -4  -1  -1 1235.73   53.04
   4   1   2 1263.11   52.36
   4   1   2 1257.22   56.60
  -4   1  -2 1290.17   48.53
  -4   1  -2 1225.59   49.07
  -4   1  -2 1246.42   56.46
  -4   1  -2 1269.87   57.64
   4  -1   2 1300.91   52.14
  -4  -1  -2 1143.18   39.12
  -4  -1  -2 1244.61   55.01
   4  -1   2 1278.16   56.01
   4  -1   2 1258.13   53.55
  -4  -1  -2 1222.85   53.50
  -4  -1  -2 1252.53   55.12
  -4  -1  -2 1208.44   39.51
   4   1   3  120.03   15.19
   4   1   3  119.17   12.16
   4   1   3  118.95   19.66
  -4   1  -3  119.41   11.68
  -4   1  -3  109.40   14.60
  -4   1  -3  129.61   19.39
  -4   1  -3  122.51   18.90
  -4  -1  -3  105.84   16.85
  -4  -1  -3  114.30   16.45
   4  -1   3  137.71   12.84
   4  -1   3  131.74   18.54
   4  -1   3  117.56   17.01
  -4  -1  -3  122.92   17.48
   4   1   4 1537.84   62.29
   4   1   4 1701.34   59.37
  -4   1  -4 1705.13   76.25
  -4   1  -4 1755.48   77.00
  -4   1  -4 1842.30   74.77
  -4   1  -4 1609.74   66.01
  -4  -1  -4 1682.41   70.25
  -4  -1  -4 1678.64   69.10
   4  -1   4 1706.69   71.47
  -4  -1  -4 1672.16   76.06
   4   1   5  611.04   27.69
  -4   1  -5  633.04   37.06
  -4   1  -5  587.11   38.71
   4  -1   5  630.39   37.32
  -4  -1  -5  640.38   35.57
  -4  -1  -5  619.09   41.31
  -4  -1  -5  645.22   35.92
   4   1   6 1962.81   76.31
  -4   1  -6 2131.40   94.57
  -4   1  -6 2004.32   92.64
   4  -1   6 2015.17  118.18
  -4  -1  -6 2092.67   85.11
  -4  -1  -6 1997.68   95.33
  -4  -1  -6 2097.65   87.92
   4   1   7 1205.78   52.51
  -4   1  -7 1179.12   63.42
  -4   1  -7 1229.63   65.90
  -4  -1  -7 1257.00   58.56
  -4  -1  -7 1212.22   69.79
   4   1   8 1565.57   68.83
  -4   1  -8 1634.32  121.60
  -4   1  -8 1600.34   83.68
   4  -1   8 1752.22  116.64
  -4  -1  -8 1729.19   77.80
  -4  -1  -8 1584.35   87.75
  -4  -1  -8 1529.27   67.12
   4   1   9 1257.99   57.62
  -4   1  -9 1262.10  101.77
  -4   1  -9 1278.27   70.52
   4  -1   9 1239.25   96.98
  -4  -1  -9 1265.64   60.37
  -4  -1  -9 1260.86   72.09
  -4  -1  -9 1141.23   49.56
   4   1  10 1208.13   57.16
  -4   1 -10 1263.88   70.61
  -4   1 -10 1255.82   68.86
  -4  -1 -10 1205.42   57.89
   4  -1  10 1212.59   96.34
  -4  -1 -10 1230.91   71.05
   4   1  11  458.95   30.77
  -4   1 -11  484.97   41.31
  -4   1 -11  490.22   39.88
  -4  -1 -11  462.04   29.01
   4  -1  11  464.29   36.48
  -4  -1 -11  465.06   39.30
   4   1  12   12.62    9.17
  -4   1 -12   15.93   12.75
  -4   1 -12   18.03   13.23
  -4  -1 -12   17.21    7.93
   4  -1  12   16.75   11.87
  -4  -1 -12   14.09   21.22
   4   1  13  261.23   32.26
  -4   1 -13  301.36   28.89
  -4   1 -13  308.94   27.72
  -4  -1 -13  285.10   42.58
   4  -1  13  297.38   26.53
  -4  -1 -13  249.24   17.02
  -4   1 -14    9.56    9.46
  -4   1 -14   14.31    9.93
  -4  -1 -14    9.21    8.60
   4  -1  14   10.19    9.15
   4   2 -17   10.40    8.64
  -4   2  17    5.44    7.48
   4  -2 -17   13.87    8.45
   4   2 -16   18.75   11.89
  -4   2  16   20.03   11.02
   4  -2 -16   29.19   20.68
   4   2 -15   34.49   14.76
  -4   2  15   30.41   14.50
   4  -2 -15   41.53   14.87
   4   2 -14   43.35   15.72
   4  -2 -14   32.12   13.12
   4  -2 -14   40.68   15.05
  -4  -2  14   26.19    8.89
   4   2 -13   93.35   11.91
   4   2 -13   91.56   21.04
   4  -2 -13   89.22   18.42
   4  -2 -13   93.73   19.24
  -4  -2  13   92.52   25.12
   4   2 -12   28.18    9.61
   4  -2 -12   26.17   13.84
   4  -2 -12   31.49   14.26
  -4  -2  12   29.61   15.42
  -4  -2  12   31.41   12.63
   4  -2 -11   67.33   18.75
   4  -2 -11  187.19   20.32
  -4  -2  11   53.60   19.95
  -4  -2  11   53.94   16.48
   4   2 -10  486.23   47.64
   4  -2 -10  479.60   57.25
  -4  -2  10  503.24   38.01
  -4  -2  10  446.47   34.83
   4   2  -9  361.13   27.66
  -4   2   9  331.07   24.54
   4  -2  -9  324.78   29.66
  -4  -2   9  314.93   30.63
  -4  -2   9  338.91   30.99
   4   2  -8   74.86   15.58
  -4   2   8   68.69   15.34
   4  -2  -8   77.65   14.77
  -4  -2   8   72.69   17.75
  -4  -2   8   75.60   18.61
   4  -2  -8   76.20   17.09
   4   2  -7  191.22   12.33
   4   2  -7  191.61   21.85
  -4   2   7  188.61   21.99
   4  -2  -7  194.34   18.35
   4  -2  -7  198.33   22.77
  -4  -2   7  189.02   38.14
  -4  -2   7  190.58   24.69
   4   2  -6    9.13    5.62
   4   2  -6    1.05   10.11
  -4   2   6   -0.96   10.65
   4  -2  -6   35.46    7.58
  -4  -2   6    8.00   10.09
  -4  -2   6    6.84   19.87
  -4  -2   6    2.34   10.04
   4   2  -5  314.50   45.76
   4   2  -5  313.49   18.10
  -4   2   5  275.96   13.93
  -4   2   5  299.82   29.28
   4  -2  -5  295.24   13.53
  -4  -2   5  310.12   24.98
  -4  -2   5  296.08   45.70
   4  -2  -5  316.94   43.05
   4  -2  -5  295.26   18.30
  -4  -2   5  288.03   18.13
   4   2  -4  163.24   23.52
   4   2  -4  147.80   23.56
  -4   2   4  133.00   24.42
  -4   2   4  136.78   16.94
   4  -2  -4  147.07    9.97
   4  -2  -4  152.56   24.44
  -4  -2   4  143.95   14.56
  -4  -2   4  162.72   21.91
  -4  -2   4  148.62   18.27
  -4  -2   4  171.11   35.43
   4  -2  -4  147.88   11.67
   4  -2  -4  138.31   22.27
   4   2  -3 5539.79  241.68
  -4   2   3 4698.38  179.93
  -4   2   3 4413.72  194.92
   4   2  -3 5440.64  232.98
  -4   2   3 5564.04  236.73
   4  -2  -3 5002.66  201.24
   4  -2  -3 5379.12  232.04
   4  -2  -3 4624.50  173.55
  -4  -2   3 5348.21  220.93
   4  -2  -3 5196.19  222.06
  -4  -2   3 4889.14  232.70
   4  -2  -3 5163.73  191.60
  -4  -2   3 5091.13  205.82
  -4  -2   3 5084.16  203.26
   4   2  -2 4765.18  206.19
   4   2  -2 4508.06  192.31
   4   2  -2 4638.77  187.43
  -4   2   2 4281.28  185.82
  -4   2   2 5606.35  237.89
  -4   2   2 4483.46  171.38
  -4  -2   2 4759.53  215.41
  -4  -2   2 4647.93  215.06
  -4  -2   2 4785.01  217.89
   4  -2  -2 4874.72  208.03
   4  -2  -2 4601.69  173.92
   4  -2  -2 5383.21  225.57
  -4  -2   2 4660.30  189.79
   4   2  -1 3250.43  143.66
   4   2  -1 3096.93  133.27
   4   2  -1 3461.22  139.35
  -4   2   1 3067.11  132.63
  -4   2   1 4036.13  171.41
  -4   2   1 3084.71  116.80
  -4  -2   1 3420.70  133.19
  -4  -2   1 3050.54  122.98
  -4  -2   1 3188.65  143.47
   4  -2  -1 3371.58  142.56
   4  -2  -1 3119.35  117.20
   4  -2  -1 4312.03  173.12
  -4  -2   1 3358.76  130.84
   4   2   0 1956.93   90.84
   4   2   0 1863.38  110.41
   4   2   0 1947.89   84.11
  -4   2   0 1817.72   84.92
  -4   2   0 1810.70   80.34
  -4   2   0 2046.82  128.78
   4  -2   0 1984.99   87.81
  -4  -2   0 1944.40   75.92
  -4  -2   0 1849.33   78.17
  -4  -2   0 1801.43   80.15
   4  -2   0 1833.97   69.31
   4  -2   0 2122.73  117.84
  -4  -2   0 1923.96   71.91
   4   2   1 1019.12   52.44
  -4   2  -1  989.53   41.42
  -4   2  -1  929.47   46.66
  -4   2  -1 1011.80   55.46
   4  -2   1  971.35   41.57
  -4  -2  -1  993.08   42.22
  -4  -2  -1  949.94   47.12
  -4  -2  -1  905.03   33.18
   4  -2   1 1042.36   51.40
   4  -2   1 1002.95   50.11
  -4  -2  -1  967.93   35.20
  -4   2  -2    0.87    6.47
  -4   2  -2    1.01    4.29
  -4   2  -2    2.39    5.94
  -4  -2  -2   27.31    8.70
  -4  -2  -2    0.11    5.17
  -4  -2  -2    3.59    7.49
   4  -2   2    2.57    7.22
   4  -2   2   -0.31    5.56
   4  -2   2   -0.07    7.91
  -4   2  -3  114.21   15.71
  -4   2  -3  107.00   12.88
   4  -2   3  104.23   18.19
  -4  -2  -3  104.25   12.19
  -4  -2  -3   96.10   18.86
  -4  -2  -3  127.94   21.03
   4  -2   3  118.99   16.78
  -4   2  -4   12.23    8.24
  -4   2  -4   15.80    9.19
   4  -2   4   13.86    8.50
  -4  -2  -4    8.82    6.71
   4  -2   4   19.35   11.77
  -4  -2  -4   16.77   11.19
  -4  -2  -4   14.61   12.38
  -4   2  -5  488.50   32.11
  -4   2  -5  520.09   32.57
   4  -2   5  500.40   37.75
  -4  -2  -5  492.17   35.39
  -4  -2  -5  480.56   37.38
  -4  -2  -5  511.67   38.24
   4  -2   5  505.11   27.30
  -4   2  -6  325.81   27.91
  -4   2  -6  302.02   26.34
  -4  -2  -6  304.68   28.16
   4  -2   6  323.38   31.67
  -4  -2  -6  285.16   31.09
  -4   2  -7  957.39   52.39
  -4   2  -7  994.52   55.33
  -4  -2  -7  978.95   57.83
   4  -2   7 1018.44   58.83
  -4   2  -8 1461.87   75.58
  -4   2  -8 1495.90   73.97
   4  -2   8 1560.77   79.26
  -4  -2  -8 1431.25   70.00
  -4   2  -9  874.62   51.96
  -4   2  -9  865.60   55.39
  -4  -2  -9  887.73   49.75
   4  -2   9  881.41   54.73
  -4   2 -10   -6.81   11.99
  -4   2 -10    2.92    6.13
  -4  -2 -10    3.19    6.00
   4  -2  10  -13.21    6.88
  -4  -2 -10    3.58    4.91
  -4   2 -11   45.51   25.97
  -4   2 -11   34.91   14.43
  -4  -2 -11   36.16   14.51
   4  -2  11   41.44   15.68
  -4  -2 -11   29.21   10.63
   4   2  12   -2.75    7.36
  -4   2 -12   31.56   11.61
  -4   2 -12   24.96   12.33
  -4  -2 -12   29.45   11.36
   4  -2  12   33.48   12.35
  -4   2 -13   43.15   14.27
  -4   2 -13   46.55   14.67
  -4  -2 -13   60.99   12.59
   4  -2  13   57.55   14.68
   4   3 -15    4.40    7.08
  -4   3  15    2.12    9.00
   4  -3 -15    4.98    7.47
   4   3 -14    4.82    7.83
   4  -3 -14    3.55    8.67
   4  -3 -14    6.33   14.16
  -4  -3  14    4.05    6.18
   4   3 -13   12.04    7.34
   4  -3 -13   14.01    8.75
   4  -3 -13   12.01    7.50
   4   3 -12  340.64   27.34
   4  -3 -12  357.87   33.24
   4  -3 -12  331.51   27.01
  -4  -3  12  310.93   28.73
   4   3 -11   -0.25   14.15
   4  -3 -11   88.45   18.00
   4  -3 -11   70.27   13.07
   4  -3 -10  448.82   38.56
   4  -3 -10  404.08   28.59
  -4  -3  10  404.11   30.52
  -4  -3  10  404.98   35.47
   4   3  -9  346.19   32.46
   4  -3  -9  350.04   24.53
   4  -3  -9  386.91   34.59
  -4  -3   9  288.62   20.32
  -4  -3   9  350.17   28.52
  -4  -3   9  374.54   33.99
   4   3  -8  205.30   18.56
  -4   3   8  204.50   19.87
   4  -3  -8  192.53   17.16
  -4  -3   8  199.99   21.14
  -4  -3   8  209.15   28.23
   4  -3  -8  226.59   27.95
  -4  -3   8  185.28   17.98
   4   3  -7   21.63    9.92
  -4   3   7   27.15   11.71
   4  -3  -7   18.01    7.38
   4  -3  -7   26.60   13.62
  -4  -3   7   21.78   10.06
  -4  -3   7   19.50   15.63
  -4  -3   7   19.58    9.54
   4   3  -6   99.18   16.18
  -4   3   6   82.40   19.20
  -4  -3   6   80.09   15.52
  -4  -3   6  157.20   22.07
   4  -3  -6   96.04   20.58
  -4  -3   6   84.00   14.05
   4   3  -5  332.27   43.68
   4  -3  -5  335.41   31.35
   4  -3  -5  318.09   30.90
  -4  -3   5  318.03   41.24
  -4  -3   5  284.11   33.41
   4   3  -4  389.43   31.19
   4  -3  -4  427.39   35.86
   4  -3  -4  348.57   55.40
  -4  -3   4  402.83   30.40
  -4  -3   4  372.78   34.05
   4   3  -3  705.47   43.98
   4  -3  -3  731.03   48.53
   4  -3  -3  683.97   47.39
  -4  -3   3  651.97   30.67
  -4  -3   3  675.76   39.87
   4   3  -2  189.69   24.75
   4  -3  -2  189.63   28.25
  -4  -3   2  173.04   22.06
  -4  -3   2  153.69   13.13
   4   3  -1 2073.79   98.40
   4  -3  -1 2126.76  103.53
   4  -3  -1 2103.52   99.14
  -4  -3   1 1975.00   90.93
   4   3   0  122.52   27.65
   4  -3   0  126.66   28.48
   4  -3   0  290.78   29.68
  -4  -3   0  108.81   38.42
  -4  -3   0  180.02   14.79
   4  -3   1 1376.99   72.70
   4  -3   1 1273.49   66.68
  -4  -3  -1 1233.28   93.23
   4  -3   2  544.81   39.93
   4  -3   2  525.08   61.47
  -4  -3  -2  498.46   38.60
  -4  -3  -2  540.02   42.35
   4  -3   3  151.27   21.79
  -4  -3  -3  143.46   24.30
  -4  -3  -3  169.73   26.23
  -4   3  -4   98.93   13.33
  -4   3  -4   97.28   11.89
   4  -3   4  115.63   18.69
  -4  -3  -4  100.39   20.95
   4  -3   4  101.96   21.50
  -4  -3  -4  106.28   23.44
  -4   3  -5   92.14   14.48
  -4   3  -5   83.93   12.51
   4  -3   5   88.69   15.70
  -4  -3  -5   89.26   20.95
   4  -3   5   98.96   21.73
  -4  -3  -5   98.24   23.26
  -4   3  -6  382.09   24.91
  -4   3  -6  392.56   28.25
   4  -3   6  398.29   36.12
   4  -3   6  356.56   25.88
  -4   3  -7  179.09   22.40
  -4   3  -7  167.01   18.54
   4  -3   7  176.10   25.67
  -4   3  -8  107.51   16.25
  -4   3  -8  119.81   19.91
  -4  -3  -8  107.03   20.40
   4  -3   8  112.86   21.08
  -4  -3  -8  125.30   23.08
  -4   3  -9  299.35   27.90
  -4   3  -9  335.26   25.73
  -4  -3  -9  314.64   30.26
   4  -3   9  340.80   31.30
  -4  -3  -9  323.47   31.26
  -4   3 -10   91.14   17.88
  -4   3 -10   94.66   15.56
  -4  -3 -10   76.27   17.51
   4  -3  10   81.75   18.88
  -4  -3 -10   92.52   17.37
  -4   3 -11   16.08   17.02
  -4   3 -11   -0.11    8.75
  -4  -3 -11   15.48    9.66
   4  -3  11   19.59   10.52
  -4  -3 -11   20.14    9.48
   4   3  12   21.21    9.43
  -4   3 -12   30.28   10.92
  -4   3 -12   22.65    8.67
   4  -3  12   33.02   10.97
  -4  -3 -12   30.13    9.65
   4  -4 -13   90.51   16.18
   4  -4 -13   69.03   10.08
  -4  -4  13   73.42   13.11
   4  -4 -12  174.05   21.63
   4  -4 -12  130.82   13.45
  -4  -4  12  149.68   19.63
   4   4 -11   23.55    8.44
   4  -4 -11   42.71   13.93
   4  -4 -11   20.74    7.65
  -4  -4  11   38.12   13.43
   4   4 -10   76.94   14.02
   4  -4 -10   95.12   19.66
  -4  -4  10   86.70   19.61
   4   4  -9    2.47   11.24
   4  -4  -9   53.68   24.08
  -4  -4   9   49.73   14.47
   4  -4  -8   22.62   13.61
  -4  -4   8   27.39   14.22
  -4  -4   8   24.36   11.20
  -4   4   7   68.67   14.16
  -4  -4   7   93.22   18.83
  -4  -4   7   77.67   16.82
   4  -4  -7   82.63   18.87
  -4   4   6  123.11   18.91
  -4  -4   6  118.99   21.00
  -4  -4   6  116.16   19.28
   4  -4  -6  116.01   21.98
   4   4  -5  843.01   40.31
   4  -4  -5  954.17   54.58
  -4  -4   5  876.33   50.82
  -4  -4   5  864.00   49.85
   4   4  -4  496.93   45.08
   4  -4  -4  545.24   39.97
   4  -4  -4  503.05   39.36
  -4  -4   4  483.21   34.13
  -4  -4   4  495.32   59.66
   4   4  -3  521.23   33.29
   4  -4  -3  556.23   42.41
   4  -4  -3  531.35   63.89
  -4  -4   3  499.72   38.81
  -4  -4   3  479.48   32.76
   4   4  -2 1012.65   53.89
   4  -4  -2 1103.94   65.32
   4  -4  -2 1043.33   86.40
  -4  -4   2  985.42   58.70
  -4  -4   2  946.80   46.52
   4   4  -1  293.87   28.41
   4  -4  -1  304.19   34.79
  -4  -4   1  259.00   30.69
  -4  -4   1  218.59   16.89
   4   4   0  631.99   42.83
   4  -4   0  704.15   53.06
   4  -4   0  652.59   46.91
  -4  -4   0  676.06   48.58
   4   4   1 1309.87   70.13
   4  -4   1 1476.63   80.60
   4  -4   1 1342.07   69.03
  -4  -4  -1 1306.05   73.58
   4   4   2  761.26   51.24
   4  -4   2  824.97   54.30
   4  -4   2  748.43   46.72
  -4  -4  -2  776.29   52.05
   4   4   3   25.16   15.49
   4  -4   3   27.87   14.91
   4  -4   3   25.12   12.97
  -4  -4  -3   21.11   15.44
   4  -4   4  467.56   36.11
   4  -4   4  424.60   32.81
  -4  -4  -4  432.91   37.42
   4  -4   5  330.19   30.17
   4  -4   5  294.06   27.61
  -4  -4  -5  260.42   31.32
  -4  -4  -5  448.79   35.77
  -4   4  -6   79.48   12.31
   4  -4   6   79.96   16.74
  -4  -4  -6   89.01   19.57
   4  -4   6   83.93   16.11
  -4   4  -7    3.37    6.86
   4  -4   7    7.08    8.48
  -4  -4  -7    8.09    9.88
   4  -4   7    6.01    6.66
  -4   4  -8  643.36   35.96
  -4  -4  -8  704.79   48.56
  -4  -4  -8  628.31   41.13
   4  -4   8  659.45   37.59
  -4   4  -9  325.28   24.27
   4  -4   9  306.34   23.90
  -4  -4  -9  295.69   25.60
   4   4  10  539.25   30.72
   4  -4  10  214.94   18.83
  -4  -4 -10  212.98   20.00
   4   5 -10    2.86    5.95
   4  -5 -10    4.88    6.76
  -4  -5  10    6.52    7.87
   4   5  -9    7.80    8.14
   4  -5  -9    9.24    7.93
  -4  -5   9    0.26    8.91
   4   5  -8   74.53   13.80
   4  -5  -8   45.31   12.98
  -4  -5   8    1.35   14.08
   4  -5  -7  116.37   28.65
  -4  -5   7  105.00   18.57
  -4  -5   7  104.28   16.72
  -4   5   6   54.61   11.21
  -4  -5   6   62.07   14.30
  -4  -5   6   51.92   14.96
   4  -5  -6   48.36   13.52
  -4   5   5  151.20   19.26
  -4  -5   5  157.72   18.38
  -4  -5   5  169.73   22.44
   4  -5  -5  171.38   19.75
   4  -5  -4  215.50   21.52
  -4  -5   4  184.70   19.60
  -4  -5   4  205.25   25.45
   4  -5  -3   68.46   16.27
   4  -5  -3   51.49   13.83
  -4  -5   3   54.86   11.02
  -4  -5   3   55.03   17.70
   4  -5  -2    2.37    7.88
   4  -5  -2    0.22    6.09
  -4  -5   2    1.26    8.29
   4   5  -1    8.79    7.48
   4  -5  -1   27.73   12.95
   4  -5  -1   12.64    9.31
  -4  -5   1   21.05   22.19
   4   5   0   46.75   11.62
   4  -5   0   72.91   17.97
   4  -5   0   40.16   12.50
  -4  -5   0   48.07   17.19
   4   5   1  306.24   24.84
   4  -5   1  354.26   34.85
   4  -5   1  315.15   39.78
  -4  -5  -1  308.32   31.81
   4   5   2  134.14   18.77
   4  -5   2  150.57   24.66
   4  -5   2  141.88   28.77
  -4  -5  -2  134.47   22.97
   4   5   3   30.74   12.96
   4  -5   3   43.44   15.30
   4  -5   3   26.83   10.51
  -4  -5  -3   29.14   14.34
   4   5   4   44.17   14.23
   4  -5   4   82.27   16.82
   4  -5   4   63.81   12.28
  -4  -5  -4   54.33   16.68
   4   5   5  369.02   28.38
   4  -5   5  394.70   29.26
   4  -5   5  320.61   21.96
  -4  -5  -5  368.77   29.85
   4   5   6   11.57    9.54
   4  -5   6   11.74    8.73
   4  -5   6    7.28    6.17
  -4  -5  -6   12.86    9.21
   4  -5   7    8.49    4.79
  -4  -5  -7    9.48    7.70
  -4  -6   4    4.15    7.33
  -4  -6   3    5.40    7.96
  -4   6   2   29.42    9.88
  -4  -6   2   29.08   11.72
  -4   6   1   33.76   11.82
  -4  -6   1   46.64   12.87
  -4   6   0    0.28   10.61
  -4  -6   0   38.66   10.65
   5   0 -17    3.26    5.55
   5   0 -16    5.70    7.90
   5   0 -16    7.59    6.69
   5   0 -15    7.17    7.80
   5   0 -15    3.83    9.02
   5   0 -14   -0.46    5.66
   5   0 -13  319.23   30.75
  -5   0  13  244.98   19.95
  -5   0  13  293.41   26.09
   5   0 -12   97.93   21.07
  -5   0  12   85.75   17.52
  -5   0  12   84.56   24.84
   5   0 -11   14.49   13.13
  -5   0  11    9.83   10.97
  -5   0  11   18.43   10.65
   5   0 -10  382.87   33.10
  -5   0  10  355.35   30.36
  -5   0  10  292.95   28.25
   5   0  -9   24.39   13.48
  -5   0   9   13.86   20.66
  -5   0   9   18.07   12.69
   5   0  -8  376.36   56.00
  -5   0   8  380.60   31.06
  -5   0   8  364.39   33.43
   5   0  -7 2392.26  108.24
  -5   0   7 2308.89  101.60
  -5   0   7 2219.82  106.14
   5   0  -6 2006.58   92.12
  -5   0   6 1921.46   88.83
  -5   0   6 2298.41  140.98
   5   0  -5  902.02   48.50
  -5   0   5  860.36   48.89
  -5   0   5  916.16   86.81
   5   0  -4  550.62   34.75
  -5   0   4  534.45   42.91
  -5   0   4  516.06   35.99
   5   0  -3  721.06   38.14
   5   0  -3  697.33   55.01
  -5   0   3  675.44   25.27
  -5   0   3  708.61   46.09
  -5   0   3  685.16   41.99
   5   0  -2  275.30   20.24
   5   0  -2  240.00   12.76
   5   0  -2  280.53   35.85
  -5   0   2  267.64   13.98
  -5   0   2  266.17   27.00
  -5   0   2  245.01   27.02
  -5   0   2  263.90   23.66
   5   0  -1 1732.61   89.51
   5   0  -1 1627.78   64.96
   5   0  -1 1493.30   51.12
  -5   0   1 1511.45   64.57
  -5   0   1 1575.34   54.53
  -5   0   1 1584.72   71.08
  -5   0   1 1538.41   73.38
   5   0   0 2182.18   73.93
   5   0   0 2277.65   87.70
   5   0   0 2056.39   78.56
   5   0   0 1982.97   77.70
  -5   0   0 2051.75   72.17
  -5   0   0 2200.03   90.06
  -5   0   0 1832.77   70.80
  -5   0   0 1918.95   87.59
  -5   0   0 2042.68   82.73
   5   0   1  801.57   35.96
   5   0   1  734.40   44.31
   5   0   1  719.77   28.73
  -5   0  -1  721.83   30.20
  -5   0  -1  689.95   32.13
  -5   0  -1  704.85   29.75
  -5   0  -1  764.35   36.53
  -5   0  -1  664.83   66.17
   5   0   2  120.54   11.23
   5   0   2  105.27   11.15
   5   0   2  114.05   12.61
  -5   0  -2  104.33   12.52
  -5   0  -2   98.51    9.54
  -5   0  -2  101.63   11.69
  -5   0  -2  112.38   20.47
   5   0   3    9.28    6.33
   5   0   3   11.12    6.68
  -5   0  -3   19.94    8.27
  -5   0  -3   18.56   12.17
   5   0   4    5.06    6.35
  -5   0  -4   13.21    8.43
  -5   0  -4    3.11   11.16
   5   0   5  135.00   15.29
  -5   0  -5  148.84   20.27
  -5   0  -5  146.68   25.37
   5   0   6 1250.95   55.81
  -5   0  -6 1307.59   73.29
  -5   0  -6 1253.14   64.95
   5   0   7   85.69   13.12
  -5   0  -7    5.00   15.64
  -5   0  -7   26.14   17.40
   5   0   8   50.78   12.84
  -5   0  -8   55.21   17.42
  -5   0  -8   61.02   17.64
   5   0   9  244.77   22.50
  -5   0  -9  259.16   29.18
  -5   0  -9  252.61   28.93
   5   0  10   71.89   14.51
  -5   0 -10   71.54   18.50
  -5   0 -10   76.50   17.79
   5   0  11  474.01   30.37
  -5   0 -11  489.19   36.49
  -5   0 -11  493.44   33.88
   5   0  12   10.43    7.66
  -5   0 -12    9.98    8.70
  -5   0 -12    8.01   17.55
  -5   0 -13   32.05   16.27
  -5   0 -13   37.70   20.31
   5   1 -17   23.42    9.75
   5  -1 -17   38.39   10.47
   5   1 -16   75.97   11.87
   5   1 -16   91.58   15.67
   5  -1 -16   94.42   17.16
   5   1 -15  150.24   16.95
   5   1 -15  147.44   20.00
  -5   1  15   95.50   12.72
   5  -1 -15  147.70   21.09
   5   1 -14  338.24   39.37
  -5   1  14  261.33   20.72
   5  -1 -14  344.23   30.87
  -5  -1  14  254.82   19.97
   5   1 -13  794.51   45.11
   5  -1 -13  742.88   36.72
   5  -1 -13  829.58   75.22
  -5  -1  13  761.71   49.76
  -5  -1  13  734.35   41.48
   5   1 -12   13.92   11.59
  -5   1  12   11.37    7.39
  -5   1  12   11.36    8.39
   5  -1 -12   15.20    7.92
  -5  -1  12   19.47   10.47
   5  -1 -12   14.65   22.09
  -5  -1  12   12.83   12.93
   5   1 -11   27.53   14.24
  -5   1  11   31.92   10.48
  -5   1  11   18.67    9.03
   5  -1 -11   24.64    9.24
  -5  -1  11   22.85   12.21
  -5  -1  11   28.40   14.86
  -5   1  10   27.50   10.15
  -5   1  10   37.66   12.79
   5  -1 -10   32.71   10.24
  -5  -1  10   34.38   25.65
   5  -1 -10   40.37   15.25
  -5  -1  10   35.74   16.19
   5   1  -9  180.52   46.10
  -5   1   9  174.24   28.85
  -5   1   9  176.15   22.41
   5  -1  -9  197.23   28.41
  -5  -1   9  198.17   26.85
   5  -1  -9  194.05   23.89
  -5  -1   9  177.04   43.70
   5   1  -8   60.44   19.39
  -5   1   8   49.95   29.67
  -5   1   8   54.97   12.88
   5  -1  -8   52.10   15.27
  -5  -1   8   51.60   19.04
   5  -1  -8   60.65   11.48
  -5  -1   8   52.00   18.12
   5   1  -7   96.19   22.75
  -5   1   7  103.51   22.97
  -5   1   7  112.17   15.49
   5  -1  -7  103.87   17.13
  -5  -1   7   94.96   22.71
   5  -1  -7   95.69   13.41
  -5  -1   7  114.19   21.21
   5   1  -6   92.38   21.84
  -5   1   6  114.92   24.05
  -5   1   6  109.02   15.84
  -5  -1   6  110.34   22.44
   5  -1  -6  111.21   16.16
   5  -1  -6  119.43   13.71
  -5  -1   6  112.87   20.84
  -5   1   5  494.87   46.82
   5   1  -5  495.04   37.85
  -5   1   5  496.64   42.29
  -5  -1   5  469.46   35.71
  -5  -1   5  446.48   37.38
   5  -1  -5  477.51   25.95
   5  -1  -5  480.54   43.50
   5   1  -4  617.47   66.90
  -5   1   4  662.75   48.64
  -5   1   4  544.13   32.55
  -5   1   4  549.65   31.10
  -5  -1   4  577.85   61.31
  -5  -1   4  582.69   40.08
   5  -1  -4  582.50   30.20
   5  -1  -4  583.23   31.19
   5  -1  -4  652.71   32.84
   5   1  -3 1449.69   73.03
  -5   1   3 1299.24   58.70
  -5   1   3 1356.80   74.42
  -5   1   3 1309.79   55.81
  -5  -1   3 1332.96   65.36
   5  -1  -3 1388.77   55.94
   5  -1  -3 1367.98   56.04
   5  -1  -3 1395.96   54.98
  -5  -1   3 1353.02   65.74
   5   1  -2   39.08   12.85
   5   1  -2   43.42   16.92
  -5   1   2   50.09   22.57
  -5   1   2   57.51   13.39
  -5   1   2   46.85   17.63
   5  -1  -2   48.92    8.88
  -5  -1   2   39.70    7.12
  -5  -1   2   40.54   13.26
  -5  -1   2   41.58   15.77
   5  -1  -2   47.39   14.53
   5  -1  -2   88.25   13.20
   5   1  -1 1655.37   57.88
   5   1  -1 1317.42   65.07
  -5   1   1 1281.37   56.80
  -5   1   1 1246.82   65.28
  -5   1   1 1236.01   58.18
  -5  -1   1 1242.63   54.46
  -5  -1   1 1268.30   61.84
  -5  -1   1 1321.24   57.96
   5  -1  -1 1246.57   45.27
   5  -1  -1 1245.71   44.04
   5  -1  -1 1274.86   53.73
  -5  -1   1 1178.79   45.75
  -5   1   0   38.50   13.92
   5   1   0   43.44   10.69
   5   1   0   42.20   15.47
  -5   1   0   41.38   14.76
  -5  -1   0   71.23   10.37
  -5  -1   0   42.45   14.86
   5  -1   0   47.03   19.25
  -5  -1   0   36.41    9.15
   5   1   1  555.28   35.38
  -5   1  -1  484.71   51.96
  -5   1  -1  520.38   33.78
  -5  -1  -1  484.46   21.98
  -5  -1  -1  482.43   33.90
  -5  -1  -1  454.70   22.46
  -5  -1  -1  479.97   26.69
   5  -1   1  540.56   30.39
   5   1   2  140.02   19.52
  -5   1  -2  133.00   20.73
  -5   1  -2  130.31   16.56
   5  -1   2  130.44   17.72
  -5  -1  -2  120.64   19.37
  -5  -1  -2  123.93   16.54
   5   1   3 1052.88   52.04
  -5   1  -3  915.45   39.02
  -5   1  -3  902.02   41.47
  -5   1  -3  957.09   53.11
   5  -1   3  940.23   45.72
  -5  -1  -3  936.93   68.08
  -5  -1  -3  950.28   72.99
   5   1   4  570.86   35.70
  -5   1  -4  505.67   28.87
  -5   1  -4  536.54   40.30
  -5  -1  -4  732.74   58.52
   5  -1   4  509.26   33.51
  -5  -1  -4  546.19   57.08
   5   1   5  976.31   48.30
  -5   1  -5  898.30   44.53
  -5   1  -5  930.00   55.76
  -5  -1  -5  871.84   74.79
   5  -1   5  869.71   48.00
  -5  -1  -5  924.02   51.97
   5   1   6 3609.30  149.59
  -5   1  -6 3600.28  153.90
  -5   1  -6 3704.32  167.13
  -5  -1  -6 3579.84  163.85
   5  -1   6 3462.65  150.50
  -5  -1  -6 3691.71  158.85
   5   1   7 1097.30   50.22
  -5   1  -7 1243.46   62.22
  -5   1  -7 1221.14   68.26
  -5  -1  -7 1178.70   66.79
   5  -1   7 1180.74   59.25
  -5  -1  -7 1163.33   57.44
  -5   1  -8  315.76   28.61
  -5   1  -8  309.76   33.72
  -5  -1  -8  297.22   54.85
   5  -1   8  318.06   28.22
  -5  -1  -8  310.02   27.33
  -5   1  -9  696.01   43.34
  -5   1  -9  775.42   49.01
  -5  -1  -9  720.52   75.61
   5  -1   9  703.27   42.77
  -5  -1  -9  706.95   40.08
  -5   1 -10   31.85   13.77
  -5   1 -10   30.97   15.40
  -5  -1 -10   32.80   25.52
   5  -1  10   26.04   12.66
  -5  -1 -10   39.72   17.71
  -5   1 -11   85.12   18.22
  -5   1 -11   83.12   16.94
  -5  -1 -11   62.20   19.28
   5  -1  11   67.92   15.29
  -5  -1 -11   78.16   17.75
  -5   1 -12  192.44   21.03
  -5   1 -12  202.29   21.53
  -5  -1 -12  152.87   13.11
   5  -1  12  185.66   19.28
  -5  -1 -12  198.28   21.61
   5   2 -16    1.68    6.06
  -5   2  16    0.90    4.43
   5  -2 -16    0.01   10.52
   5   2 -15   30.93   13.33
  -5   2  15   25.86   11.40
   5  -2 -15   43.10   13.19
   5   2 -14   83.14   17.25
   5   2 -14   94.44   17.43
  -5   2  14    0.28   14.88
   5  -2 -14   92.52   16.42
  -5  -2  14   68.78   20.63
   5   2 -13   91.44   13.30
   5   2 -13    1.97   18.43
   5  -2 -13   94.26   16.30
   5  -2 -13   92.44   17.64
  -5  -2  13   91.95   16.30
   5   2 -12    9.03    8.38
   5  -2 -12   10.68    9.65
   5  -2 -12    8.31    9.78
  -5  -2  12    1.32   10.79
  -5  -2  12    8.37    9.58
   5   2 -11  626.92   37.69
  -5   2  11  482.79   28.96
   5  -2 -11  571.96   37.03
  -5  -2  11  549.25   39.55
   5  -2 -11  590.40   37.02
  -5  -2  11  565.04   40.83
   5   2 -10   89.38   28.52
  -5   2  10   92.35   15.06
   5  -2 -10   89.53   28.83
  -5  -2  10   96.01   20.36
  -5  -2  10   90.54   20.51
   5  -2 -10   86.99   28.47
   5   2  -9   97.88   14.34
  -5   2   9    6.25   12.16
   5  -2  -9    4.95   18.82
  -5  -2   9    7.23   13.41
  -5  -2   9   16.36   14.62
   5  -2  -9    5.54   12.15
   5   2  -8  128.33   21.95
  -5   2   8  127.17   21.79
  -5  -2   8  119.70   37.97
  -5  -2   8  118.63   23.93
   5  -2  -8  138.97   20.07
   5   2  -7  781.19   49.15
  -5   2   7  639.55   45.60
   5  -2  -7  762.97   38.50
  -5  -2   7  762.67   48.43
  -5  -2   7  722.16   48.80
   5  -2  -7  699.98   40.79
   5   2  -6  481.86   37.48
  -5   2   6  430.36   40.03
   5  -2  -6  410.02   31.00
  -5  -2   6  465.03   59.67
   5  -2  -6  419.78   24.86
  -5  -2   6  440.74   35.12
   5   2  -5  158.01   44.61
  -5   2   5  142.31   27.71
   5  -2  -5  150.55   34.42
  -5  -2   5  144.02   22.51
   5  -2  -5  130.00   12.92
   5   2  -4 2679.41  129.27
  -5   2   4 2383.48  105.23
  -5   2   4 2535.24  127.79
  -5  -2   4 2362.15   90.54
   5  -2  -4 2440.76  111.79
  -5  -2   4 2602.62  113.83
   5   2  -3 3611.58  167.45
  -5   2   3 3256.32  127.21
  -5   2   3 3435.49  163.00
  -5  -2   3 3311.26  130.95
   5  -2  -3 3264.78  147.77
  -5  -2   3 3484.45  149.02
   5   2  -2 1532.40   84.34
  -5   2   2 1455.02   60.55
  -5  -2   2 1498.73   92.82
  -5  -2   2 1455.12   63.38
   5  -2  -2 1868.81   84.67
   5   2  -1  163.94   28.05
  -5   2   1    3.28   24.75
  -5   2   1  153.77   16.21
  -5  -2   1  163.38   31.45
   5  -2  -1  328.59   28.27
  -5  -2   1  147.13   28.16
   5   2   0  932.04   57.53
  -5   2   0  902.17   41.69
  -5  -2   0  872.08   43.54
  -5  -2   0  736.59   33.98
   5  -2   0  896.77   51.24
  -5  -2   0  894.99   43.97
   5   2   1  210.91   29.77
  -5   2  -1  202.97   31.89
   5  -2   1  205.20   41.56
  -5  -2  -1  224.81   20.30
   5  -2   1  216.71   23.82
  -5  -2  -1  180.15   20.93
   5   2   2  714.59   48.51
  -5   2  -2  677.35   37.01
  -5  -2  -2  575.93   37.45
  -5  -2  -2  691.29   36.34
   5  -2   2  712.29   40.71
   5   2   3  419.00   37.83
  -5   2  -3  410.26   29.61
  -5  -2  -3  349.45   29.94
  -5  -2  -3  427.39   26.88
   5  -2   3  430.21   35.27
   5   2   4 1881.39   91.08
  -5   2  -4 1730.76   78.34
  -5  -2  -4 1688.85   84.29
  -5  -2  -4 1750.09   72.46
   5  -2   4 1986.52   96.08
   5   2   5 1103.02   59.29
  -5   2  -5 1001.50   52.61
  -5   2  -5  973.57   58.69
  -5  -2  -5  990.25   44.75
   5  -2   5 1061.97   61.71
  -5  -2  -5  998.05   58.02
   5   2   6  421.61   38.37
  -5   2  -6  650.89   40.37
  -5   2  -6  662.86   49.83
  -5  -2  -6  633.75   31.88
   5  -2   6  717.17   45.12
  -5  -2  -6  669.37   44.64
   5   2   7  335.14   29.91
  -5   2  -7  343.26   30.06
  -5   2  -7  339.18   25.96
  -5  -2  -7  339.41   33.93
   5  -2   7  361.29   33.88
   5   2   8  205.34   22.55
  -5   2  -8  211.00   22.91
  -5   2  -8  205.73   24.53
   5  -2   8  227.61   27.23
  -5   2  -9   89.34   16.57
   5   2   9   74.25   13.56
  -5   2  -9   68.33   16.78
  -5  -2  -9   57.22   19.51
   5  -2   9   66.51   17.87
   5   2  10   86.39   12.21
  -5   2 -10  101.68   18.14
  -5   2 -10   87.06   15.22
  -5  -2 -10  102.53   19.24
   5  -2  10   95.45   17.83
  -5   2 -11   32.84   12.47
  -5   2 -11   23.36   10.93
  -5  -2 -11   38.79   13.16
   5  -2  11   32.45   12.76
  -5   2 -12   19.52    9.92
  -5   2 -12   20.75    9.13
  -5  -2 -12   26.33   10.33
   5  -2  12   19.28   10.28
   5   3 -14    2.57    5.70
  -5   3  14   -1.07    6.85
   5  -3 -14    1.91    9.14
   5   3 -13    2.82    7.00
   5  -3 -13    4.86    7.74
   5  -3 -13   -1.48   10.76
  -5  -3  13    4.21    7.09
   5   3 -12   55.08   14.13
   5  -3 -12   66.65   16.23
   5  -3 -12   59.94   12.62
  -5  -3  12  134.98   28.13
   5   3 -11    3.33    5.63
   5  -3 -11    6.04    9.84
   5  -3 -11   10.15    6.87
  -5  -3  11    4.51    8.36
   5   3 -10  369.26   23.97
   5  -3 -10  364.72   33.42
   5  -3 -10  342.48   23.27
  -5  -3  10  350.96   27.85
  -5  -3  10  398.27   35.22
   5   3  -9   11.03    8.58
  -5   3   9    7.42    8.48
   5  -3  -9   12.58    6.67
  -5  -3   9    2.83    9.31
  -5  -3   9    8.68   11.96
   5  -3  -9   10.24   11.13
   5   3  -8  193.67   21.40
  -5   3   8  173.55   22.77
  -5  -3   8  165.19   20.36
  -5  -3   8  164.57   25.92
   5  -3  -8  175.13   24.60
   5   3  -7   17.79   11.24
  -5   3   7   13.45   11.73
  -5  -3   7   14.17    9.42
  -5  -3   7   12.61   12.93
   5  -3  -7   13.88   12.62
   5   3  -6   51.52   12.04
  -5   3   6   23.20   13.89
  -5  -3   6   21.60    9.93
  -5  -3   6   12.33   13.71
   5  -3  -6   17.56   14.26
  -5  -3   6    8.60    8.21
   5   3  -5 1205.56   90.07
  -5   3   5 1155.41   71.40
   5  -3  -5 1281.95   68.13
  -5  -3   5 1165.34   71.76
  -5  -3   5 1143.72   63.21
  -5  -3   5 1093.63   68.58
   5   3  -4  935.63   84.91
  -5   3   4  916.84   65.34
   5  -3  -4 1014.61   93.46
  -5  -3   4  859.85   50.70
  -5  -3   4  867.80   46.42
  -5  -3   4  849.54   44.67
   5   3  -3 6196.10  285.19
   5  -3  -3 6249.47  286.36
  -5  -3   3 4609.72  202.31
  -5  -3   3 5753.37  251.19
  -5  -3   3 5812.79  254.69
   5   3  -2 3303.61  160.30
   5  -3  -2 3371.04  163.13
   5  -3  -2 4393.77  191.30
  -5  -3   2 2757.62  115.69
  -5  -3   2 2983.35  125.40
  -5  -3   2 3097.47  140.81
   5   3  -1  548.83   47.61
   5  -3  -1  545.05   45.36
  -5  -3   1  414.42   23.82
  -5  -3   1  477.25   36.00
   5   3   0  699.52   54.38
   5  -3   0  730.95   51.03
   5  -3   0  706.89   54.86
  -5  -3   0  595.67   41.68
   5   3   1    5.57   12.62
   5  -3   1    4.75   10.38
   5  -3   1    3.13   11.71
  -5  -3  -1    5.31   16.24
   5   3   2  424.13   42.55
   5  -3   2  398.81   34.25
   5  -3   2  416.00   38.60
  -5  -3  -2  811.35   64.75
   5   3   3   70.66   22.40
   5  -3   3   85.30   17.63
   5  -3   3   90.44   20.27
  -5  -3  -3   60.99   19.60
   5   3   4  489.80   43.08
  -5   3  -4  428.36   34.85
   5  -3   4  677.63   65.22
  -5  -3  -4  459.74   38.88
   5  -3   4  489.82   32.93
   5   3   5  177.74   26.45
  -5   3  -5  148.48   15.86
   5  -3   5  173.48   41.06
  -5  -3  -5  167.62   25.78
   5  -3   5  166.46   17.30
   5   3   6  238.57   29.96
  -5   3  -6  226.03   19.34
   5  -3   6  268.40   45.77
   5   3   7  322.60   31.67
  -5   3  -7  306.10   22.35
  -5   3  -7  272.55   30.37
  -5  -3  -7  306.91   31.57
   5  -3   7  326.21   50.79
   5   3   8  198.60   23.98
  -5   3  -8  185.72   17.91
  -5   3  -8  169.19   16.71
  -5  -3  -8  190.56   24.44
   5  -3   8  212.62   41.09
   5   3   9   50.42   15.13
  -5   3  -9   63.91   11.94
  -5   3  -9   60.57   11.55
  -5  -3  -9   65.90   16.36
   5  -3   9   64.08   27.17
   5   3  10    5.82    6.16
  -5   3 -10   -0.33    9.56
   5  -3  10    3.53   13.05
  -5  -3 -10    1.17    7.51
   5  -4 -12   15.60   10.13
  -5  -4  12   12.45    9.66
   5  -4 -11  125.24   19.37
  -5  -4  11  104.68   19.48
   5  -4 -10   15.20   12.16
  -5  -4  10   17.75   11.80
   5  -4  -9   19.50   22.26
  -5  -4   9   14.99   12.24
  -5   4   8   16.48    8.47
  -5  -4   8   16.82   11.72
  -5  -4   8    9.55    7.20
   5  -4  -8   22.69   12.41
   5   4  -7   35.55    9.79
  -5   4   7   56.67   13.97
  -5  -4   7   56.80   15.03
  -5  -4   7   40.15   10.82
   5  -4  -7   55.91   16.73
   5   4  -6   37.53   10.83
  -5   4   6   58.33   15.35
  -5  -4   6   32.21   12.00
  -5  -4   6   41.61   14.44
   5  -4  -6   47.56   16.43
   5   4  -5  241.39   21.71
  -5   4   5  219.67   27.43
   5  -4  -5  250.98   28.51
  -5  -4   5  224.95   22.72
   5   4  -4  258.61   25.48
  -5   4   4  232.67   33.69
  -5  -4   4  416.12   27.86
  -5  -4   4  346.14   44.67
   5  -4  -4  251.87   31.20
   5   4  -3  218.85   38.09
  -5   4   3   -4.45   28.03
  -5  -4   3  218.70   18.78
  -5  -4   3  200.30   36.66
   5  -4  -3  223.85   27.70
   5   4  -2  216.60   25.39
   5  -4  -2  216.71   29.48
   5  -4  -2  212.39   44.19
  -5  -4   2  198.60   23.82
   5   4  -1   14.00   12.45
   5  -4  -1   18.26   14.81
   5  -4  -1   19.91   13.00
  -5  -4   1   13.55   11.86
   5   4   0  280.42   30.17
   5  -4   0  307.48   34.48
   5  -4   0  259.58   28.42
  -5  -4   0  270.21   28.76
   5   4   1    6.25   10.63
   5  -4   1    4.51   10.55
   5  -4   1   -0.23    9.29
  -5  -4  -1    7.55    9.71
   5   4   2   80.44   21.21
   5  -4   2   98.79   20.77
   5  -4   2   94.69   19.02
  -5  -4  -2   91.90   19.80
   5   4   3    9.29   13.39
   5  -4   3   15.57   11.17
   5  -4   3   13.68   11.44
  -5  -4  -3   11.70   12.50
   5   4   4  338.96   34.95
   5  -4   4  354.84   29.77
   5  -4   4  330.72   29.61
  -5  -4  -4  315.07   32.05
   5   4   5   75.80   18.19
  -5   4  -5    0.48   12.49
   5  -4   5   80.27   14.90
  -5  -4  -5   65.76   16.57
   5   4   6   30.91   13.72
  -5   4  -6    0.98    8.04
   5  -4   6   34.20   11.37
  -5  -4  -6   34.25   12.56
   5   4   7   67.17   18.46
   5  -4   7   73.88   14.83
  -5  -4  -7   66.04   16.55
   5   4   8  544.53   37.04
   5  -4   8  487.18   29.79
  -5  -4  -8  473.09   32.10
   5  -5  -9    9.54    7.00
  -5  -5   9   -0.59    7.01
   5   5  -8   20.09    7.14
   5  -5  -8   40.21   10.32
  -5  -5   8   -0.09    9.83
   5   5  -7   -2.76    4.83
   5  -5  -7    5.44    5.80
  -5  -5   7    0.39    5.03
  -5   5   6    7.69    6.70
  -5  -5   6   -0.25    6.25
  -5  -5   6    8.66    7.29
   5  -5  -6    8.22   14.25
  -5   5   5   55.56   13.29
  -5  -5   5    4.82    9.74
  -5  -5   5   62.98   11.76
   5  -5  -5   73.44   13.14
  -5   5   4   19.56   10.00
  -5  -5   4    2.24    6.19
  -5  -5   4   14.79    9.16
   5  -5  -4   19.17    9.51
  -5   5   3    1.81    6.60
   5  -5  -3   -8.10    5.92
  -5  -5   3    5.23    5.75
   5   5  -2   69.48   11.86
  -5   5   2   89.26   20.19
   5  -5  -2   97.12   16.00
  -5  -5   2   85.81   17.12
  -5   5   1   -2.02   10.03
   5  -5  -1   -5.66    7.61
  -5  -5   1   -1.42    8.41
   5   5   0   21.48   14.68
  -5   5   0   -6.01   12.87
   5  -5   0   17.54    9.26
  -5  -5   0    7.73   18.20
   5   5   1   19.06    9.38
  -5   5  -1   -0.43   12.56
   5  -5   1   15.63    9.07
  -5  -5  -1    9.41   18.72
   5   5   2   24.40    9.76
  -5   5  -2    0.13   12.89
   5  -5   2   24.16   16.60
  -5  -5  -2   28.00   11.61
   5   5   3  125.11   15.98
  -5   5  -3   -0.65   17.45
   5  -5   3  146.59   24.00
  -5  -5  -3  137.87   17.87
   5   5   4   14.36    8.24
  -5   5  -4    0.26    8.46
   5  -5   4    8.13   11.95
  -5  -5  -4   10.65    9.15
   5   5   5   26.11    9.88
   5  -5   5   15.93   12.87
  -5  -5  -5   23.26   10.45
   6   0 -15  812.71   44.55
   6   0 -15  777.69   37.26
   6   0 -14    3.18    9.98
   6   0 -14  156.28   23.33
   6   0 -13   84.87   18.96
  -6   0  13   76.05   16.26
  -6   0  13   66.21   13.24
   6   0 -12   78.40   18.66
  -6   0  12   51.03   14.98
  -6   0  12   52.56   24.75
   6   0 -11    1.51    8.97
  -6   0  11    0.78    7.62
  -6   0  11    2.64    7.48
   6   0 -10  337.73   32.82
  -6   0  10  292.24   28.97
  -6   0  10  314.06   31.69
  -6   0   9  398.96   52.84
  -6   0   9  424.21   38.32
   6   0  -8  332.08   52.85
  -6   0   8  312.30   30.84
  -6   0   8  312.48   37.34
   6   0  -7  289.26   31.20
  -6   0   7  262.38   34.43
  -6   0   7  268.27   29.15
   6   0  -6  351.06   32.81
  -6   0   6  325.49   31.22
  -6   0   6  354.76   38.10
   6   0  -5   30.91   14.06
  -6   0   5   32.41   14.95
  -6   0   5   32.64   17.35
   6   0  -4   48.72   15.03
  -6   0   4   55.71   28.44
  -6   0   4   53.36   18.40
   6   0  -3  100.04   16.76
  -6   0   3   37.21   33.02
  -6   0   3   70.93   19.30
   6   0  -2  437.94   29.04
  -6   0   2  366.07   34.61
  -6   0   2  383.82   51.75
   6   0  -1   51.93   12.20
  -6   0   1   49.52   17.59
  -6   0   1   42.97   24.66
   6   0   0 1194.74   51.48
  -6   0   0 1115.42   62.26
  -6   0   0 1104.07   72.38
   6   0   1  332.73   32.00
  -6   0  -1  328.27   32.96
  -6   0  -1  336.33   33.05
  -6   0  -2   68.91   19.37
  -6   0  -3   84.25   17.94
  -6   0  -3  112.34   21.51
  -6   0  -4    3.08   13.33
  -6   0  -4   -1.80    7.94
  -6   0  -5   46.07   29.27
  -6   0  -5   45.55   20.38
  -6   0  -6  296.43   38.73
  -6   0  -6  276.68   48.94
  -6   0  -7 2791.95  159.13
  -6   0  -7 2747.60  143.57
   6   0   8 1120.77   49.52
  -6   0  -8 1398.96   92.95
  -6   0  -8 1322.06   82.00
  -6   0  -9  130.97   33.59
  -6   0  -9  117.47   27.86
  -6   0 -10    9.54    8.38
  -6   0 -10   11.53    9.44
  -6   0 -11    3.48    6.10
  -6   0 -11    3.11    6.37
   6   1 -15  123.39   15.08
   6   1 -15  137.53   17.93
   6  -1 -15  132.78   19.23
   6   1 -14  217.99   34.44
   6  -1 -14  221.30   24.13
  -6  -1  14  175.20   18.33
   6   1 -13   89.50   17.57
  -6   1  13   46.66   18.54
   6  -1 -13   99.19   17.89
  -6  -1  13   78.38   16.18
  -6  -1  13   91.05   18.66
  -6   1  12   74.95   11.64
  -6   1  12   85.09   15.07
  -6  -1  12   95.32   16.69
   6  -1 -12  111.22   33.12
  -6  -1  12  104.30   20.54
   6   1 -11  178.06   25.30
  -6   1  11  155.16   16.61
  -6   1  11  170.30   21.71
  -6  -1  11  174.21   23.38
   6  -1 -11  173.55   24.49
  -6  -1  11  186.36   26.36
   6   1 -10   29.81   14.94
  -6   1  10   22.84    9.91
  -6   1  10   31.23   13.38
  -6  -1  10   22.50   25.45
   6  -1 -10   30.84   13.65
  -6  -1  10   24.08   14.86
   6   1  -9  282.69   54.39
  -6   1   9  254.75   30.00
  -6   1   9  252.21   35.01
   6  -1  -9  294.38   27.27
  -6  -1   9  263.39   34.56
  -6  -1   9  287.06   51.18
   6   1  -8   89.15   24.83
  -6   1   8   74.50   15.00
  -6   1   8   68.51   20.44
  -6  -1   8   70.67   22.77
   6  -1  -8   61.01   16.22
  -6  -1   8   67.14   20.88
   6   1  -7 1505.31   85.57
  -6   1   7 1325.36   64.98
  -6   1   7 1498.72  128.10
  -6  -1   7 1382.11   80.12
   6  -1  -7 1362.20   64.65
  -6  -1   7 1392.34   77.80
   6   1  -6 1699.26   90.05
  -6   1   6 1602.45   97.19
  -6   1   6 1556.42   73.72
  -6  -1   6 1595.46   86.81
   6  -1  -6 1442.27   59.14
  -6  -1   6 1585.00   83.97
   6   1  -5  474.66   40.93
  -6   1   5  448.84   46.99
  -6   1   5  422.76   32.41
   6  -1  -5  449.63   42.20
  -6  -1   5  425.39   38.71
   6  -1  -5  400.24   23.45
  -6  -1   5  426.67   40.26
   6   1  -4  239.60   29.36
  -6   1   4  201.96   33.84
  -6   1   4  205.10   36.51
   6  -1  -4  218.11   30.16
  -6  -1   4  203.13   27.17
   6  -1  -4  207.22   25.85
  -6  -1   4  211.60   29.36
  -6   1   3  250.94   24.34
   6   1  -3  277.24   29.70
  -6   1   3  268.67   33.82
  -6  -1   3  264.30   49.44
  -6  -1   3  280.53   27.15
   6  -1  -3  258.87   18.40
   6  -1  -3  263.51   28.79
   6   1  -2  215.54   44.98
  -6   1   2  206.44   28.93
  -6   1   2  176.45   22.69
  -6  -1   2  254.53   22.41
   6  -1  -2  193.78   16.95
  -6  -1   2  205.64   27.08
   6   1  -1 1134.74   59.73
  -6   1   1 1102.06   60.24
  -6   1   1  890.68   49.09
  -6  -1   1 1004.51   49.54
   6  -1  -1 1019.23   44.61
  -6  -1   1 1073.35   59.05
   6   1   0  636.54   41.72
  -6   1   0  549.05   38.33
  -6   1   0  627.22   40.89
  -6  -1   0  518.40   28.89
   6  -1   0  570.64   30.42
  -6  -1   0  574.70   41.01
   6   1   1   18.13   10.73
  -6   1  -1   14.24    9.39
  -6   1  -1   14.79   10.99
  -6  -1  -1   18.88   11.35
   6  -1   1   12.96    7.45
  -6  -1  -1    0.58    5.50
   6   1   2  126.50   18.56
  -6   1  -2  108.43   14.74
  -6   1  -2  122.82   21.19
  -6  -1  -2   94.29   13.71
   6  -1   2  102.39   24.38
  -6  -1  -2  124.33   20.27
   6   1   3  443.48   31.03
  -6   1  -3  400.24   56.60
  -6  -1  -3  385.08   26.92
  -6  -1  -3  404.45   32.33
   6  -1   3  430.27   41.48
  -6   1  -4   42.70   27.80
   6   1   4   34.61   11.28
  -6  -1  -4   35.55   14.14
   6  -1   4   36.89   11.67
   6   1   5  160.69   16.42
  -6   1  -5  200.19   42.71
  -6   1  -5  141.09   14.94
  -6  -1  -5  186.52   21.92
   6  -1   5  174.16   19.71
  -6  -1  -5  176.55   22.00
  -6   1  -6  187.26   43.88
  -6   1  -6  180.05   17.37
  -6  -1  -6  189.86   21.69
   6  -1   6  185.00   20.62
  -6  -1  -6  179.14   21.73
  -6   1  -7  359.48   25.22
  -6   1  -7  430.36   56.03
  -6  -1  -7  373.10   27.68
   6  -1   7  418.96   29.26
  -6  -1  -7  365.26   29.33
  -6   1  -8  129.52   34.94
  -6   1  -8  104.41   15.78
  -6  -1  -8  118.28   17.04
   6  -1   8  112.21   16.61
  -6  -1  -8   96.72   17.82
  -6   1  -9    6.74   15.65
  -6   1  -9    6.58    6.89
  -6  -1  -9    1.94    6.28
   6  -1   9    4.08    6.72
  -6  -1  -9    1.03    7.82
  -6   1 -10   24.39   20.96
  -6   1 -10   29.90   16.54
  -6  -1 -10   20.04    7.54
   6  -1  10   24.44   15.31
  -6  -1 -10   25.95   10.79
   6  -2 -15   23.33    9.39
   6   2 -14  122.94   17.41
  -6   2  14   78.04   11.08
   6  -2 -14  114.55   15.44
   6   2 -13  109.13   15.38
   6  -2 -13  109.28   13.10
   6  -2 -13  121.81   16.60
  -6  -2  13  120.81   19.58
  -6  -2  13   87.20   16.90
   6   2 -12   48.80   13.27
   6  -2 -12   61.29   11.58
   6  -2 -12   52.00   13.29
  -6  -2  12   42.05   16.31
  -6  -2  12   61.40   15.60
   6   2 -11  229.35   23.59
  -6   2  11  215.94   20.15
   6  -2 -11  216.74   20.51
  -6  -2  11  233.22   26.75
   6  -2 -11  238.05   20.75
   6   2 -10   19.28   23.63
  -6   2  10   26.43   12.55
   6  -2 -10   18.72   11.02
  -6  -2  10   17.89   14.34
  -6  -2  10  116.84   16.80
   6  -2 -10   21.61   11.00
  -6   2   9   39.25   22.60
   6  -2  -9   25.02   17.43
  -6  -2   9   21.38   13.74
  -6  -2   9   29.61   15.29
   6  -2  -9   32.63   18.86
   6   2  -8   14.87   13.29
  -6   2   8   22.25   22.88
   6  -2  -8    7.52   14.16
  -6  -2   8   10.02   20.81
  -6  -2   8   13.68   13.10
   6  -2  -8   18.87   10.01
   6   2  -7  171.12   26.96
  -6   2   7  165.34   27.30
   6  -2  -7  139.02   14.87
  -6  -2   7  146.80   23.60
  -6  -2   7  142.35   23.84
   6  -2  -7  159.59   19.94
   6   2  -6  858.76   57.84
  -6   2   6  838.93   60.89
  -6  -2   6  755.20   48.68
  -6  -2   6  736.23   48.78
   6  -2  -6  824.70   46.65
   6   2  -5 1398.81   80.43
  -6   2   5 1331.70   83.92
   6  -2  -5 1224.04   65.40
  -6  -2   5 1163.67   64.24
  -6  -2   5 1218.44   67.92
   6   2  -4 4864.34  225.61
  -6   2   4 4566.29  225.30
  -6   2   4 4045.38  168.78
  -6  -2   4 4251.43  219.51
   6  -2  -4 4662.35  231.61
  -6  -2   4 4424.76  200.27
  -6   2   3  537.61   48.71
  -6   2   3  457.46   41.59
  -6  -2   3  495.76   35.32
   6  -2  -3  565.09   37.40
  -6  -2   3  515.66   40.56
   6   2  -2  366.98   37.88
  -6   2   2  299.03   22.39
  -6   2   2  341.24   36.83
  -6  -2   2  293.63   24.20
   6  -2  -2  330.52   28.31
  -6  -2   2  306.40   30.40
   6   2  -1  528.75   42.30
  -6   2   1  450.08   27.78
  -6   2   1  472.31   39.60
   6  -2  -1  437.81   32.47
  -6  -2   1  389.20   25.03
  -6  -2   1  479.04   50.43
  -6  -2   1  389.03   23.39
   6   2   0  174.86   26.73
  -6   2   0  140.24   18.02
  -6   2   0  154.57   23.97
  -6  -2   0  172.99   34.40
   6  -2   0  146.62   20.17
  -6  -2   0  137.81   25.95
   6   2   1  694.45   48.24
  -6   2  -1  675.56   43.08
  -6   2  -1  646.10   37.27
  -6  -2  -1  597.95   37.01
   6  -2   1  615.02   38.02
  -6  -2  -1  597.38   34.88
  -6   2  -2  233.72   24.03
   6   2   2  234.25   28.56
  -6   2  -2  227.07   23.64
  -6  -2  -2  233.92   22.03
   6  -2   2  213.08   23.37
   6   2   3  657.94   44.50
  -6   2  -3  640.33   39.22
  -6   2  -3  570.59   34.31
  -6  -2  -3  598.77   34.95
   6  -2   3  597.01   38.05
  -6  -2  -3  614.97   39.43
   6   2   4  942.47   52.47
  -6   2  -4  890.45   67.57
  -6  -2  -4  843.11   47.31
  -6  -2  -4  873.17   43.14
   6  -2   4  839.89   68.89
   6   2   5  108.43   18.37
  -6   2  -5   90.56   28.06
  -6  -2  -5   89.80   17.56
  -6  -2  -5   87.75   13.07
   6   2   6  192.08   20.53
  -6   2  -6  183.78   34.61
  -6  -2  -6  176.79   22.39
  -6  -2  -6  163.06   15.18
   6  -2   6  192.81   36.32
   6   2   7  140.09   16.24
  -6   2  -7  162.88   31.49
   6  -2   7  176.44   32.77
  -6  -2  -7  112.15   11.65
  -6  -2  -7  185.81   21.28
   6   2   8   15.98    7.53
  -6   2  -8   22.72   17.77
   6  -2   8   20.34   17.54
  -6  -2  -8   22.40   11.37
  -6   2  -9   14.12   17.54
   6  -2   9   17.05   16.80
  -6  -2  -9   21.05   10.61
  -6   2 -10   30.16   10.40
   6  -2  10   33.18    9.74
  -6  -2 -10   35.67   11.23
   6   3 -13   74.83   12.04
   6  -3 -13   79.49   11.74
  -6  -3  13   70.41   13.38
   6   3 -12   75.87   12.21
   6  -3 -12   75.50   12.73
   6  -3 -12   39.78   14.48
  -6  -3  12   51.34   15.06
   6   3 -11   67.21   10.47
   6  -3 -11   42.47   12.85
   6  -3 -11   45.99    7.99
  -6  -3  11   31.47   12.62
  -6  -3  11   54.88   26.26
   6   3 -10  144.29   16.65
  -6   3  10  113.99   15.36
  -6  -3  10  117.11   16.94
  -6  -3  10  139.83   22.26
   6  -3 -10  119.33   18.12
   6   3  -9  121.35   28.50
  -6   3   9   57.85   26.66
  -6  -3   9   86.75   16.09
  -6  -3   9  102.52   19.52
   6  -3  -9   48.08   28.69
   6   3  -8    8.56    9.47
  -6   3   8    9.90   10.02
  -6  -3   8    5.46    8.72
  -6  -3   8   13.22   11.05
   6  -3  -8   10.31    9.92
   6   3  -7   17.68   11.96
  -6   3   7   21.30   13.17
  -6  -3   7   12.92    9.75
  -6  -3   7   23.88   12.26
   6  -3  -7   13.76   11.91
   6   3  -6  558.13   39.77
  -6   3   6  549.95   44.72
  -6  -3   6  481.02   31.73
  -6  -3   6  503.48   36.79
   6  -3  -6  551.43   38.03
  -6   3   5  321.92   36.00
  -6  -3   5  253.45   34.75
  -6  -3   5  276.25   25.81
   6  -3  -5  299.82   29.49
   6   3  -4  116.46   22.32
  -6   3   4  134.72   25.94
  -6  -3   4   92.49   15.20
  -6  -3   4  104.19   16.61
   6  -3  -4  113.01   21.63
   6   3  -3  543.60   67.02
  -6   3   3  493.21   44.32
   6  -3  -3  528.69   58.79
  -6  -3   3  452.66   28.55
  -6  -3   3  407.22   24.86
  -6  -3   3  434.53   27.63
   6   3  -2  347.19   35.62
  -6   3   2  326.18   35.64
   6  -3  -2  313.23   30.92
  -6  -3   2  274.05   20.80
  -6  -3   2  273.00   22.21
   6   3  -1   96.73   23.16
  -6   3   1   93.89   22.21
   6  -3  -1  100.59   20.71
  -6  -3   1   69.34   15.22
   6   3   0  182.87   28.52
  -6   3   0  183.59   26.93
   6  -3   0  158.50   24.47
  -6  -3   0  165.01   20.40
   6   3   1  481.55   41.80
  -6   3  -1  439.32   37.50
   6  -3   1  444.04   35.40
  -6  -3  -1  414.94   32.02
   6   3   2  567.89   44.41
  -6   3  -2  536.61   38.57
   6  -3   2  542.46   38.71
  -6  -3  -2  487.57   34.33
   6   3   3  365.39   36.27
  -6   3  -3  311.15   27.54
   6  -3   3  357.28   31.89
  -6  -3  -3  449.08   48.08
   6   3   4  341.74   31.84
  -6   3  -4  257.56   17.76
  -6   3  -4  252.94   21.52
  -6  -3  -4  299.45   43.00
   6  -3   4  318.30   28.50
   6   3   5  245.98   27.14
  -6   3  -5  200.29   16.20
   6  -3   5  246.52   25.14
  -6  -3  -5  257.02   40.29
   6   3   6   34.92   13.70
   6  -3   6   36.49   13.07
  -6  -3  -6   19.46   22.47
   6   3   7   83.47   15.20
   6  -3   7   84.12   15.74
  -6  -3  -7   52.70   27.16
   6   3   8   82.09   13.05
   6  -3   8  107.82   15.19
  -6  -3  -8   73.41   26.87
   6  -4 -10   14.21    8.35
  -6  -4  10   -0.19    8.54
   6  -4  -9   74.23   13.17
  -6  -4   9    0.99   12.87
  -6   4   8   35.84   15.77
   6  -4  -8   35.44   18.87
  -6  -4   8    0.10   10.10
  -6   4   7    1.06    7.44
   6  -4  -7   12.35    8.62
  -6  -4   7    0.34    7.40
   6   4  -6    7.92    7.65
  -6   4   6    5.45    9.38
   6  -4  -6   13.07    9.60
  -6  -4   6    0.46    7.60
   6   4  -5  170.72   19.87
  -6   4   5  169.24   23.93
  -6  -4   5  142.51   16.31
  -6  -4   5  124.33   14.11
   6  -4  -5  167.58   23.40
   6   4  -4  395.78   28.42
  -6   4   4  388.33   36.41
  -6  -4   4  296.90   21.16
  -6  -4   4  333.02   23.31
   6  -4  -4  401.99   34.38
   6   4  -3   84.14   18.32
  -6   4   3  105.45   24.39
   6  -4  -3  194.70   23.75
  -6  -4   3   81.16   15.05
   6   4  -2  405.49   51.64
  -6   4   2  394.49   41.66
   6  -4  -2  416.99   36.16
  -6  -4   2  363.75   42.34
   6   4  -1  126.76   38.05
  -6   4   1  167.41   28.18
   6  -4  -1  152.99   39.23
  -6  -4   1  132.20   18.79
   6   4   0  104.17   20.90
  -6   4   0   99.79   22.03
   6  -4   0  101.60   33.63
  -6  -4   0   95.38   16.05
   6   4   1   22.03   13.69
  -6   4  -1   31.03   14.56
   6  -4   1   34.68   13.22
  -6  -4  -1   19.00   11.05
   6   4   2  151.44   23.23
  -6   4  -2  142.37   20.84
   6  -4   2  139.05   21.09
  -6  -4  -2  131.95   18.63
   6   4   3   17.24   11.56
  -6   4  -3   -0.27    8.62
   6  -4   3   18.12   10.17
  -6  -4  -3   12.29    9.57
   6   4   4   32.60   12.98
  -6   4  -4    1.89    8.30
   6  -4   4   37.23   11.20
  -6  -4  -4   24.11   10.92
   6   4   5    4.04    8.24
   6  -4   5    1.73    6.95
  -6  -4  -5    2.41    6.97
  -6   5   4    6.93    7.83
   6  -5  -4    5.17    7.86
  -6   5   3   95.82   16.84
   6  -5  -3   96.86   15.69
  -6   5   2   98.39   18.24
   6  -5  -2  102.17   16.04
  -6   5   1  124.36   18.74
   6  -5  -1  110.63   15.76
  -6  -5   1   94.97   13.32
   7   0 -14   38.98   11.62
   7   0 -14   23.98    8.22
   7   0 -13  258.88   35.41
  -7   0  13  104.74   15.59
  -7   0  13  115.08   16.07
   7   0 -12   73.04   15.78
  -7   0  12   34.84   12.16
  -7   0  12   38.09   13.34
   7   0 -11  316.50   29.33
  -7   0  11  264.66   24.99
  -7   0  11  318.03   46.88
   7   0 -10  191.38   25.01
  -7   0  10  174.37   22.17
  -7   0  10  164.88   26.16
   7   0  -9    0.77    7.89
  -7   0   9    2.36   12.63
  -7   0   9   -5.70    9.47
   7   0  -8 1868.74   88.10
  -7   0   8 1749.78   86.49
  -7   0   8 1756.76  100.14
   7   0  -7    0.31   11.11
  -7   0   7   -0.68    7.22
   7   0  -6   -3.86   25.90
  -7   0   6    2.89   17.41
  -7   0   6  174.54   21.22
   7   0  -5   59.45   14.72
  -7   0   5   41.06   17.38
  -7   0   5   44.08   17.77
   7   0  -4   18.77   10.20
  -7   0   4   15.31   12.58
  -7   0   4    9.46   13.35
   7   0  -3   52.32   12.87
  -7   0   3   54.96   31.01
  -7   0   3   42.77   15.46
   7   0  -2 1124.60   51.24
  -7   0   2 1061.62   60.90
  -7   0   2 1031.65   54.81
   7   0  -1  193.98   17.28
  -7   0   1  205.93   27.27
  -7   0   1  196.41   20.09
  -7   0   0  275.80   29.56
  -7   0   0  224.52   19.59
  -7   0  -1  293.00   31.86
  -7   0  -2   52.77   17.59
  -7   0  -3   24.03   14.55
  -7   0  -4  179.79   25.55
  -7   0  -5   89.42   19.37
  -7   0  -6  446.47   34.71
  -7   0  -7   13.23   10.69
  -7   0  -8  323.86   25.88
   7   1 -14   26.97   10.57
   7  -1 -14   33.05   10.60
   7   1 -13   98.20   16.39
   7  -1 -13   97.18   15.77
  -7  -1  13   91.88   16.12
  -7  -1  13   82.92   14.31
   7   1 -12  256.79   25.45
  -7   1  12  211.68   34.27
  -7  -1  12  230.54   24.70
  -7  -1  12  214.99   23.62
   7  -1 -12  251.07   36.60
   7   1 -11   29.85   12.29
  -7   1  11   25.78   10.49
  -7   1  11    0.14    7.06
  -7  -1  11   24.94   11.77
   7  -1 -11   27.87   17.71
  -7  -1  11   19.19   11.89
   7   1 -10   68.72   17.47
  -7   1  10   58.04   17.02
  -7   1  10   54.37   11.13
  -7  -1  10   61.70   17.21
   7  -1 -10   50.21   14.28
  -7  -1  10   54.03   17.53
   7   1  -9  267.43   29.06
  -7   1   9  224.51   29.30
  -7   1   9  209.28   31.24
  -7  -1   9  236.96   48.79
   7  -1  -9  230.66   21.80
  -7  -1   9  234.62   46.65
   7   1  -8  331.97   55.17
  -7   1   8  282.39   23.85
  -7   1   8  312.87   35.15
  -7  -1   8  314.06   54.67
   7  -1  -8  310.32   24.61
  -7  -1   8  303.40   32.22
   7   1  -7  184.05   26.14
  -7   1   7  164.47   19.92
  -7  -1   7  170.92   25.76
  -7  -1   7  150.60   25.94
   7  -1  -7  173.66   18.09
   7   1  -6  100.78   21.24
  -7   1   6   91.28   17.43
   7  -1  -6   94.35   14.02
  -7  -1   6   94.29   20.92
  -7  -1   6   90.89   21.89
   7   1  -5  422.43   35.95
  -7   1   5  407.51   32.35
  -7   1   5  405.77   60.75
  -7  -1   5  383.01   33.91
   7  -1  -5  378.04   23.37
  -7  -1   5  384.98   36.62
   7   1  -4  390.55   33.45
  -7   1   4  369.34   56.55
  -7   1   4  375.22   30.60
  -7  -1   4  369.73   30.93
  -7  -1   4  376.31   35.68
   7   1  -3  166.31   23.00
  -7   1   3  167.86   41.56
  -7   1   3  136.47   35.56
  -7  -1   3  152.25   20.38
  -7  -1   3  160.69   25.40
   7   1  -2   27.15   13.09
  -7   1   2   27.31   12.83
  -7   1   2   31.51   24.35
  -7  -1   2   29.39   10.91
  -7  -1   2   29.92   25.42
   7   1  -1  276.69   24.99
  -7   1   1  243.06   25.51
  -7   1   1  215.64   41.96
  -7  -1   1  202.74   18.37
  -7  -1   1  240.66   44.71
   7   1   0   25.99   10.71
  -7   1   0   20.17   18.50
  -7   1   0   18.67   12.62
  -7  -1   0   14.57   13.05
   7   1   1   74.99   14.11
  -7   1  -1   80.59   17.77
  -7   1  -1   55.69   19.67
  -7  -1  -1   71.58   17.94
   7   1   2   57.96   20.87
  -7   1  -2   74.76   17.87
  -7  -1  -2   71.25   17.60
   7   1   3  126.53   21.95
  -7   1  -3  144.31   21.36
   7  -1   3  114.04   12.15
  -7  -1  -3  148.53   20.72
  -7   1  -4  102.41   18.47
   7  -1   4   70.68   10.58
  -7  -1  -4   92.08   17.13
  -7  -1  -4   70.23   11.21
  -7   1  -5  200.31   23.49
  -7  -1  -5  163.44   16.09
  -7  -1  -5  196.00   20.98
   7  -1   5  151.17   13.93
  -7   1  -6  417.60   31.90
  -7  -1  -6  371.37   24.87
  -7  -1  -6  420.08   27.75
  -7   1  -7  763.24   42.21
  -7  -1  -7  694.80   35.59
  -7  -1  -7  698.23   34.11
  -7   1  -8  218.18   21.51
  -7  -1  -8  185.45   15.17
   7   2 -13   12.07    6.74
   7   2 -13    8.67    8.51
  -7  -2  13    9.67   13.33
   7   2 -12  127.80   15.67
   7  -2 -12  124.47   12.67
  -7  -2  12  115.66   18.21
  -7  -2  12  112.17   17.79
   7   2 -11    4.12    7.21
  -7   2  11   -0.94    6.46
  -7  -2  11    3.79    8.00
  -7  -2  11    4.29    7.76
   7  -2 -11    2.72    4.80
   7   2 -10   22.74   11.76
  -7   2  10   17.51   10.28
  -7  -2  10   20.58   11.90
  -7  -2  10   23.00   12.65
   7  -2 -10   15.16    7.05
   7   2  -9  177.68   24.42
  -7   2   9   23.15   12.92
   7  -2  -9   17.00    7.43
  -7  -2   9   19.01   12.24
  -7  -2   9   17.42   13.10
   7  -2  -9   13.55    6.98
   7   2  -8   25.34   14.96
  -7   2   8   22.96   14.08
  -7  -2   8   20.65   12.69
  -7  -2   8   24.44   12.98
   7  -2  -8   19.32   13.28
   7   2  -7    7.69    9.84
  -7   2   7   -0.56   17.13
  -7  -2   7   -1.88    8.35
  -7  -2   7    9.39   14.33
   7  -2  -7    2.16    5.30
   7   2  -6   52.85   18.12
  -7   2   6   63.36   34.65
  -7  -2   6   47.57   14.78
  -7  -2   6   36.18   15.41
   7  -2  -6   42.64   10.55
   7   2  -5  546.22   42.58
  -7   2   5  529.11   45.73
  -7  -2   5  482.64   35.81
  -7  -2   5  448.34   32.17
   7  -2  -5  464.07   28.08
   7   2  -4  221.00   27.44
  -7   2   4  159.50   28.34
  -7  -2   4  149.20   21.88
  -7  -2   4  133.94   18.69
   7  -2  -4  155.56   17.18
   7   2  -3   90.10   20.22
  -7   2   3   73.29   12.04
  -7   2   3  100.42   21.15
  -7  -2   3   60.27   12.88
   7  -2  -3   79.34   13.84
  -7  -2   3   77.26   16.96
   7   2  -2   58.64   17.50
  -7   2   2   46.29   19.14
  -7   2   2   67.81   18.60
  -7  -2   2   40.55   14.64
   7  -2  -2   53.43   19.90
  -7   2   1   62.47   17.39
   7   2  -1   65.17   30.23
  -7   2   1   60.87   12.27
  -7  -2   1   42.41   13.89
   7  -2  -1   60.98   12.27
   7   2   0   28.94   24.38
  -7   2   0   25.69   10.60
  -7   2   0   44.45   13.89
  -7  -2   0   26.10   12.21
   7  -2   0   31.14   10.56
   7   2   1    9.88   16.73
  -7   2  -1    5.74    7.81
  -7   2  -1    3.44    8.14
  -7  -2  -1    4.87    7.87
   7  -2   1    8.11    7.50
   7   2   2   99.28   29.76
  -7   2  -2   87.68   13.41
  -7   2  -2  115.54   16.31
  -7  -2  -2   86.36   11.77
   7  -2   2  112.91   15.29
  -7  -2  -2   91.03   24.57
   7   2   3  270.98   25.11
  -7   2  -3  272.44   23.33
  -7  -2  -3  227.33   30.83
  -7  -2  -3  212.23   29.62
   7  -2   3  260.34   21.52
   7   2   4  118.25   26.29
  -7   2  -4  119.80   16.09
  -7  -2  -4  115.59   21.65
  -7  -2  -4  132.86   24.64
   7  -2   4  131.92   16.07
   7   2   5   12.39   13.59
  -7   2  -5   20.86    9.44
   7  -2   5   25.17    9.21
  -7  -2  -5   16.23   11.28
  -7  -2  -5   26.93   15.70
   7   2   6    0.98    5.80
  -7   2  -6    4.20    5.26
  -7  -2  -6    1.42    7.95
  -7  -2  -6    0.42    2.15
   7  -2   6    0.37    4.93
  -7   2  -7   17.53    8.29
  -7  -3  11   70.70   13.86
   7   3 -10   11.03    6.38
  -7  -3  10    0.37   14.96
  -7  -3  10    3.53    6.34
   7   3  -9    5.42    7.48
  -7   3   9    8.81    7.44
  -7  -3   9    6.73    6.71
  -7  -3   9    0.63   15.47
   7  -3  -9    7.96    7.29
   7   3  -8    8.40   14.46
  -7   3   8    6.34    8.39
  -7  -3   8    8.11    6.79
  -7  -3   8   -0.88    8.57
   7  -3  -8    6.03   12.59
   7   3  -7   12.85   10.02
  -7   3   7    8.70   18.44
  -7  -3   7   -0.20    8.94
  -7  -3   7    9.94    7.06
   7  -3  -7    8.07    8.49
   7   3  -6  402.34   32.55
  -7   3   6  334.52   33.58
  -7  -3   6  300.40   22.88
  -7  -3   6  296.55   25.02
   7  -3  -6  356.57   25.78
   7   3  -5  660.51   43.00
  -7   3   5  642.90   47.04
  -7  -3   5  493.40   29.68
  -7  -3   5  550.01   32.85
   7  -3  -5  568.17   35.81
   7   3  -4  756.82   47.33
  -7   3   4  730.70   51.72
  -7  -3   4  547.72   43.23
  -7  -3   4  506.86   30.31
   7  -3  -4  679.47   40.70
   7   3  -3  750.80   48.70
  -7   3   3  723.76   51.48
   7  -3  -3  679.81   40.75
  -7  -3   3  538.93   42.82
   7   3  -2   28.53   13.91
  -7   3   2   29.32   13.67
   7  -3  -2    7.32   11.82
  -7  -3   2   12.52    6.75
   7   3  -1  119.48   22.36
  -7   3   1  112.89   21.58
   7  -3  -1   93.12   28.84
   7   3   0   38.24   27.32
  -7   3   0   41.19   14.41
   7  -3   0   31.14   20.96
   7   3   1  180.17   38.65
  -7   3  -1  146.16   19.44
   7  -3   1  154.16   17.83
  -7  -3  -1  121.66   14.42
   7   3   2   -0.53   12.56
  -7   3  -2   -1.24    4.73
   7  -3   2    1.19    5.53
  -7  -3  -2    2.24    4.62
   7   3   3   83.83   29.06
  -7   3  -3   71.40    9.72
   7  -3   3   96.05   14.45
  -7  -3  -3   92.25   13.16
   7   3   4   39.83   23.71
   7  -3   4   67.98   12.50
  -7  -3  -4   56.35   11.60
   7   3   5   11.03   13.46
   7  -3   5   11.07    7.77
  -7   4   6   60.50   26.75
   7  -4  -6  107.49   24.09
   7   4  -5   35.31   10.76
  -7   4   5   35.27   13.73
   7  -4  -5   34.19   11.98
   7   4  -4  305.17   24.27
  -7   4   4  324.61   29.55
   7  -4  -4  298.56   25.34
   7   4  -3   43.11   13.03
  -7   4   3    0.90   15.55
   7  -4  -3   78.53   14.39
   7   4  -2   50.08   12.21
  -7   4   2    0.79   13.98
   7  -4  -2   30.19   12.35
   7   4  -1   24.17   10.04
  -7   4   1    0.38   10.54
   7  -4  -1    9.51    9.55
   7   4   0  176.40   20.94
  -7   4   0  168.60   19.84
   7  -4   0  165.90   18.90
  -7   4  -1   -0.32    5.02
   7  -4   1    2.30    5.64
   8   0 -11   31.39   10.28
  -8   0  11   18.12    8.64
  -8   0  11   22.63   10.65
   8   0 -10   40.52   11.41
  -8   0  10   25.07   10.57
  -8   0  10   33.66   22.53
   8   0  -9    9.94    8.00
  -8   0   9   10.70   17.66
  -8   0   9    1.93    8.01
   8   0  -8    2.98    6.47
  -8   0   8   -1.16   12.07
   8   0  -7    5.12    6.91
  -8   0   7   -0.04    8.08
   8   0  -6  112.97   15.35
  -8   0   6  118.23   20.18
  -8   0   6  148.16   22.96
   8   0  -5    8.37    7.08
  -8   0   5    7.57   10.55
  -8   0   5    7.25   10.16
   8   0  -4    9.05    6.82
  -8   0   4   13.71    9.51
  -8   0   4    8.50   11.21
   8   0  -3  200.39   23.87
  -8   0   3  235.14   26.09
  -8   0   3  202.00   21.48
  -8   0   2    7.90    7.43
  -8   0   2   15.67   11.53
  -8   0   1  124.40   20.01
  -8   0   1   82.13   10.88
  -8   0   0  170.19   40.41
  -8   0  -1   73.42   30.68
  -8   0  -2   29.48   13.90
  -8   0  -3   -1.92    7.92
  -8   0  -4    0.77    6.54
  -8   0  -5  361.19   27.19
   8   1 -11   15.39    9.47
  -8   1  11   10.73   14.15
  -8  -1  11   12.17    8.88
  -8  -1  11   16.49    9.22
   8  -1 -11   11.49    5.87
   8   1 -10   35.99   12.14
  -8   1  10   23.41   12.07
  -8  -1  10   21.11   11.94
  -8  -1  10   25.57   12.09
   8  -1 -10   36.35   13.56
   8   1  -9   26.66   11.26
  -8   1   9   22.56   12.18
  -8  -1   9   20.14   11.48
  -8  -1   9    0.95   11.43
   8  -1  -9   18.68   11.68
   8   1  -8   31.71   11.16
  -8   1   8   29.63   12.84
  -8   1   8    0.17    7.98
  -8  -1   8    0.07   11.24
   8  -1  -8   19.11    6.62
  -8  -1   8   24.42   11.41
   8   1  -7   86.85   16.12
  -8   1   7    0.84   21.69
  -8  -1   7   80.92   16.04
  -8  -1   7   79.39   30.00
   8  -1  -7   66.10    9.16
   8   1  -6  338.22   45.35
  -8   1   6  289.52   24.00
  -8  -1   6  320.34   30.68
  -8  -1   6  295.10   26.50
   8   1  -5  203.55   22.06
  -8   1   5  173.39   25.58
  -8   1   5  171.14   20.29
  -8  -1   5  173.84   32.97
  -8  -1   5  170.86   24.81
   8   1  -4  182.36   21.44
  -8   1   4  172.38   23.79
  -8   1   4  169.83   19.72
  -8  -1   4  173.19   25.50
  -8  -1   4  287.01   21.65
   8   1  -3   76.07   15.76
  -8   1   3   80.61   15.21
  -8   1   3   85.38   16.15
  -8  -1   3   81.88   18.85
   8   1  -2   76.75   13.75
  -8   1   2   67.32   14.74
  -8   1   2   67.78   14.20
  -8  -1   2   66.27   17.87
   8   1  -1  318.81   21.94
  -8   1   1  303.49   25.65
  -8   1   1  272.34   21.00
  -8  -1   1  341.45   29.73
   8   1   0   13.76    6.45
  -8   1   0   10.95   15.88
  -8   1   0    0.99    5.59
  -8  -1   0   23.41   10.24
   8   1   1    5.45    4.81
  -8   1  -1    7.79   14.64
  -8  -1  -1    7.75    9.02
  -8   1  -2    1.88    6.84
  -8  -1  -2    1.37   12.04
  -8   1  -3  148.78   19.08
  -8  -1  -3  159.98   30.36
  -8   1  -4   35.13   11.66
  -8  -1  -4   26.39   17.74
   8   2  -9   11.85    8.49
  -8   2   9   10.97    8.50
  -8  -2   9    9.87    8.29
  -8  -2   9    0.23    8.40
   8   2  -8   59.27   13.44
  -8   2   8   41.70   14.11
  -8  -2   8   66.53   12.63
  -8  -2   8    0.04   12.21
   8   2  -7  265.45   41.31
  -8   2   7  213.53   25.70
  -8  -2   7  214.52   21.69
  -8  -2   7  194.87   19.99
   8   2  -6  436.78   33.58
  -8   2   6  412.10   34.67
  -8  -2   6  383.61   43.86
  -8  -2   6  335.93   24.21
   8   2  -5  548.55   37.08
  -8   2   5  506.40   36.70
  -8  -2   5  459.12   47.40
  -8  -2   5  366.52   24.62
   8   2  -4  138.97   19.81
  -8   2   4  126.67   19.95
  -8  -2   4  120.47   17.16
  -8  -2   4   82.55   11.31
   8   2  -3    3.75    9.06
  -8   2   3    0.36    8.67
  -8  -2   3   10.62    7.79
   8   2  -2   75.27   16.06
  -8   2   2   76.22   15.01
  -8  -2   2   78.00   14.06
   8   2  -1   14.28    8.83
  -8   2   1    3.30    7.62
  -8  -2   1   10.41    7.49
   8   2   0   23.46    9.01
  -8   2   0    0.54    6.86
  -8  -2   0   26.63    8.35
   8   2   1   23.71    8.79
  -8  -2  -1   17.24    7.75
   8   2   2  134.76   12.72
  -8  -2  -2  124.94   11.96
  -8   3   5   -0.47    5.93
   8   3  -4  132.99   19.12
  -8   3   4  137.33   19.36
   8   3  -3  103.63   17.13
  -8   3   3   84.10   16.33
   8   3  -2   33.40   10.42
  -8   3   2    0.10    9.15
   8   3  -1   70.46   14.26
  -8   3   1   65.64   11.07
  -9   0   4   20.35    9.66
  -9   0   3   26.25   10.58
;
_shelx_hkl_checksum              72848
loop_
_space_group_symop_id
_space_group_symop_operation_xyz
1 +X,+Y,+Z
2 -X,1/2+Y,-Z
loop_
_atom_site_label
_atom_site_type_symbol
_atom_site_fract_x
_atom_site_fract_y
_atom_site_fract_z
_atom_site_U_iso_or_equiv
_atom_site_adp_type
_atom_site_occupancy
_atom_site_site_symmetry_order
_atom_site_calc_flag
_atom_site_refinement_flags_posn
_atom_site_refinement_flags_adp
O1 O 0.8046(2) 0.4268(4) 0.59425(10) 0.0589(5) Uani 1 1 d . .
N1 N -0.0076(3) 0.3694(7) 0.13367(18) 0.0850(9) Uani 1 1 d . .
C1 C 0.2654(4) 0.5887(6) 0.12277(16) 0.0602(7) Uani 1 1 d . .
C2 C 0.0810(4) 0.5332(7) 0.0976(2) 0.0802(11) Uani 1 1 d . .
H2 H 0.014067 0.619388 0.051101 0.096 Uiso 1 1 calc R U
C3 C 0.0922(4) 0.2525(7) 0.2004(2) 0.0734(9) Uani 1 1 d . .
H3 H 0.034750 0.136300 0.227701 0.088 Uiso 1 1 calc R U
C4 C 0.2740(4) 0.2910(6) 0.23182(17) 0.0604(7) Uani 1 1 d . .
H4 H 0.335732 0.202436 0.278993 0.072 Uiso 1 1 calc R U
C5 C 0.3662(3) 0.4628(5) 0.19303(15) 0.0513(6) Uani 1 1 d . .
C6 C 0.5702(3) 0.5034(5) 0.22360(15) 0.0538(7) Uani 1 1 d . .
H6 H 0.632010 0.379037 0.196322 0.065 Uiso 1 1 calc R U
C7 C 0.6281(4) 0.7404(7) 0.19005(18) 0.0675(8) Uani 1 1 d . .
H7A H 0.583678 0.869125 0.221712 0.081 Uiso 1 1 calc R U
H7B H 0.759985 0.749375 0.201115 0.081 Uiso 1 1 calc R U
C8 C 0.5537(4) 0.7688(8) 0.09229(18) 0.0752(9) Uani 1 1 d . .
H8A H 0.601487 0.913113 0.071218 0.090 Uiso 1 1 calc R U
H8B H 0.591974 0.635582 0.060633 0.090 Uiso 1 1 calc R U
C9 C 0.3476(4) 0.7800(7) 0.07564(18) 0.0715(9) Uani 1 1 d . .
H9A H 0.310833 0.933653 0.094458 0.086 Uiso 1 1 calc R U
H9B H 0.300499 0.765914 0.013003 0.086 Uiso 1 1 calc R U
C10 C 0.6323(3) 0.4768(5) 0.32236(15) 0.0501(6) Uani 1 1 d . .
C11 C 0.7432(3) 0.2912(5) 0.35828(16) 0.0536(7) Uani 1 1 d . .
H11 H 0.778363 0.179160 0.320834 0.064 Uiso 1 1 calc R U
C12 C 0.8040(3) 0.2662(5) 0.44828(16) 0.0532(6) Uani 1 1 d . .
H12 H 0.877956 0.138813 0.470468 0.064 Uiso 1 1 calc R U
C13 C 0.7537(3) 0.4321(5) 0.50451(15) 0.0472(6) Uani 1 1 d . .
C14 C 0.6438(3) 0.6221(5) 0.46995(16) 0.0513(6) Uani 1 1 d . .
H14 H 0.610844 0.735758 0.507447 0.062 Uiso 1 1 calc R U
C15 C 0.5837(3) 0.6428(5) 0.38070(16) 0.0519(7) Uani 1 1 d . .
H15 H 0.509198 0.769810 0.358667 0.062 Uiso 1 1 calc R U
C16 C 0.9047(4) 0.2240(6) 0.63194(18) 0.0697(9) Uani 1 1 d . .
H16A H 0.932599 0.240055 0.694746 0.084 Uiso 1 1 calc R U
H16B H 0.832930 0.083577 0.616330 0.084 Uiso 1 1 calc R U
H16C H 1.015769 0.212002 0.610101 0.084 Uiso 1 1 calc R U
loop_
_atom_site_aniso_label
_atom_site_aniso_U_11
_atom_site_aniso_U_22
_atom_site_aniso_U_33
_atom_site_aniso_U_23
_atom_site_aniso_U_13
_atom_site_aniso_U_12
O1 0.0572(10) 0.0635(14) 0.0528(10) 0.0034(10) 0.0030(7) 0.0041(10)
N1 0.0562(14) 0.113(3) 0.0800(17) -0.0023(17) -0.0015(12) -0.0108(16)
C1 0.0595(15) 0.066(2) 0.0506(14) -0.0070(14) -0.0007(11) 0.0012(15)
C2 0.0615(18) 0.107(3) 0.0645(18) 0.0020(19) -0.0069(14) 0.0015(19)
C3 0.0601(17) 0.079(2) 0.079(2) -0.0073(19) 0.0085(15) -0.0117(17)
C4 0.0557(15) 0.064(2) 0.0597(15) -0.0048(15) 0.0069(11) -0.0024(14)
C5 0.0514(13) 0.0535(16) 0.0469(12) -0.0098(12) 0.0045(10) 0.0010(13)
C6 0.0489(13) 0.0578(18) 0.0526(14) -0.0067(13) 0.0046(11) 0.0002(12)
C7 0.0634(17) 0.075(2) 0.0591(15) 0.0032(16) -0.0001(13) -0.0144(16)
C8 0.0787(19) 0.085(2) 0.0585(16) 0.0063(17) 0.0045(14) -0.0113(19)
C9 0.081(2) 0.074(2) 0.0534(15) 0.0024(16) -0.0025(13) -0.0006(18)
C10 0.0397(12) 0.0530(17) 0.0549(14) -0.0039(13) 0.0027(10) -0.0033(12)
C11 0.0480(13) 0.0496(17) 0.0608(15) -0.0097(13) 0.0050(11) 0.0034(13)
C12 0.0458(14) 0.0485(16) 0.0619(15) 0.0005(14) 0.0022(11) 0.0056(13)
C13 0.0372(11) 0.0512(15) 0.0510(13) 0.0014(13) 0.0037(9) -0.0024(11)
C14 0.0443(13) 0.0506(16) 0.0577(14) -0.0059(13) 0.0070(10) 0.0026(12)
C15 0.0440(13) 0.0476(16) 0.0609(15) 0.0002(13) 0.0028(11) 0.0080(12)
C16 0.0689(18) 0.073(2) 0.0619(16) 0.0149(16) -0.0001(13) 0.0085(16)
loop_
_atom_type_symbol
_atom_type_description
_atom_type_scat_dispersion_real
_atom_type_scat_dispersion_imag
_atom_type_scat_source
C C 0.0181 0.0091
;
International Tables for Crystallography
(Vol. C, Tables 4.2.6.8 and 6.1.1.4)
;
H H 0.0000 0.0000
;
International Tables for Crystallography
(Vol. C, Table 6.1.1.4)
;
N N 0.0311 0.0180
;
International Tables for Crystallography
(Vol. C, Tables 4.2.6.8 and 6.1.1.4)
;
O O 0.0492 0.0322
;
International Tables for Crystallography
(Vol. C, Tables 4.2.6.8 and 6.1.1.4)
;
loop_
_geom_angle_atom_site_label_1
_geom_angle_atom_site_label_2
_geom_angle_atom_site_label_3
_geom_angle
C13 O1 C16 117.0(2)
C2 N1 C3 115.1(3)
C5 C1 C2 117.4(3)
C5 C1 C9 122.4(2)
C2 C1 C9 120.2(3)
N1 C2 C1 126.0(3)
N1 C2 H2 117.0
C1 C2 H2 117.0
N1 C3 C4 124.6(3)
N1 C3 H3 117.7
C4 C3 H3 117.7
C3 C4 C5 119.8(3)
C3 C4 H4 120.1
C5 C4 H4 120.1
C4 C5 C1 117.0(2)
C4 C5 C6 121.4(2)
C1 C5 C6 121.6(3)
C10 C6 C5 112.9(2)
C10 C6 C7 112.3(2)
C5 C6 C7 111.0(2)
C10 C6 H6 106.7
C5 C6 H6 106.7
C7 C6 H6 106.7
C8 C7 C6 111.1(3)
C8 C7 H7A 109.4
C6 C7 H7A 109.4
C8 C7 H7B 109.4
C6 C7 H7B 109.4
H7A C7 H7B 108.0
C9 C8 C7 109.7(2)
C9 C8 H8A 109.7
C7 C8 H8A 109.7
C9 C8 H8B 109.7
C7 C8 H8B 109.7
H8A C8 H8B 108.2
C1 C9 C8 112.8(3)
C1 C9 H9A 109.0
C8 C9 H9A 109.0
C1 C9 H9B 109.0
C8 C9 H9B 109.0
H9A C9 H9B 107.8
C11 C10 C15 117.2(2)
C11 C10 C6 121.5(2)
C15 C10 C6 121.3(2)
C10 C11 C12 122.3(3)
C10 C11 H11 118.8
C12 C11 H11 118.8
C13 C12 C11 119.4(2)
C13 C12 H12 120.3
C11 C12 H12 120.3
O1 C13 C12 124.8(2)
O1 C13 C14 115.7(2)
C12 C13 C14 119.4(2)
C15 C14 C13 120.4(2)
C15 C14 H14 119.8
C13 C14 H14 119.8
C14 C15 C10 121.4(2)
C14 C15 H15 119.3
C10 C15 H15 119.3
O1 C16 H16A 109.5
O1 C16 H16B 109.5
H16A C16 H16B 109.5
O1 C16 H16C 109.5
H16A C16 H16C 109.5
H16B C16 H16C 109.5
loop_
_geom_bond_atom_site_label_1
_geom_bond_atom_site_label_2
_geom_bond_distance
O1 C13 1.370(2)
O1 C16 1.426(3)
N1 C2 1.323(5)
N1 C3 1.326(4)
C1 C5 1.392(4)
C1 C2 1.395(4)
C1 C9 1.500(5)
C2 H2 0.9300
C3 C4 1.370(4)
C3 H3 0.9300
C4 C5 1.392(4)
C4 H4 0.9300
C5 C6 1.525(3)
C6 C10 1.519(3)
C6 C7 1.526(4)
C6 H6 0.9800
C7 C8 1.518(4)
C7 H7A 0.9700
C7 H7B 0.9700
C8 C9 1.515(4)
C8 H8A 0.9700
C8 H8B 0.9700
C9 H9A 0.9700
C9 H9B 0.9700
C10 C11 1.382(4)
C10 C15 1.398(4)
C11 C12 1.388(3)
C11 H11 0.9300
C12 C13 1.380(4)
C12 H12 0.9300
C13 C14 1.391(4)
C14 C15 1.375(3)
C14 H14 0.9300
C15 H15 0.9300
C16 H16A 0.9600
C16 H16B 0.9600
C16 H16C 0.9600
loop_
_geom_torsion_atom_site_label_1
_geom_torsion_atom_site_label_2
_geom_torsion_atom_site_label_3
_geom_torsion_atom_site_label_4
_geom_torsion
C3 N1 C2 C1 0.8(5)
C5 C1 C2 N1 -0.8(5)
C9 C1 C2 N1 -179.9(3)
C2 N1 C3 C4 -0.3(5)
N1 C3 C4 C5 -0.1(5)
C3 C4 C5 C1 0.0(4)
C3 C4 C5 C6 -177.3(3)
C2 C1 C5 C4 0.4(4)
C9 C1 C5 C4 179.4(3)
C2 C1 C5 C6 177.7(3)
C9 C1 C5 C6 -3.2(4)
C4 C5 C6 C10 -37.1(4)
C1 C5 C6 C10 145.7(3)
C4 C5 C6 C7 -164.2(2)
C1 C5 C6 C7 18.6(4)
C10 C6 C7 C8 -176.3(2)
C5 C6 C7 C8 -48.9(3)
C6 C7 C8 C9 64.8(4)
C5 C1 C9 C8 17.8(4)
C2 C1 C9 C8 -163.1(3)
C7 C8 C9 C1 -47.3(4)
C5 C6 C10 C11 112.0(3)
C7 C6 C10 C11 -121.5(3)
C5 C6 C10 C15 -69.7(3)
C7 C6 C10 C15 56.7(3)
C15 C10 C11 C12 0.6(4)
C6 C10 C11 C12 178.9(2)
C10 C11 C12 C13 -0.4(4)
C16 O1 C13 C12 -5.3(3)
C16 O1 C13 C14 175.0(2)
C11 C12 C13 O1 180.0(2)
C11 C12 C13 C14 -0.4(4)
O1 C13 C14 C15 -179.4(2)
C12 C13 C14 C15 0.9(4)
C13 C14 C15 C10 -0.7(4)
C11 C10 C15 C14 0.0(4)
C6 C10 C15 C14 -178.3(2)
