#------------------------------------------------------------------------------
#$Date: 2017-11-06 01:13:53 +0200 (Mon, 06 Nov 2017) $
#$Revision: 202625 $
#$URL: file:///home/coder/svn-repositories/cod/cif/4/03/30/4033077.cif $
#------------------------------------------------------------------------------
#
# This file is available in the Crystallography Open Database (COD),
# http://www.crystallography.net/
#
# All data on this site have been placed in the public domain by the
# contributors.
#
data_4033077
loop_
_publ_author_name
'S\;aczewski, Jaros\/law'
'Fedorowicz, Joanna'
'Gdaniec, Maria'
'Wi\'sniewska, Paulina'
'Sieniawska, Emilia'
'Dra\.zba, Zuzanna'
'Rzewnicka, Justyna'
'Balewski, \/Lukasz'
_publ_section_title
;
 The Elusive Paal-Knorr Intermediates in the Trofimov Synthesis of
 Pyrroles: Experimental and Theoretical Studies.
;
_journal_issue                   18
_journal_name_full               'The Journal of organic chemistry'
_journal_page_first              9737
_journal_page_last               9743
_journal_paper_doi               10.1021/acs.joc.7b01851
_journal_volume                  82
_journal_year                    2017
_chemical_absolute_configuration ad
_chemical_formula_moiety         'C14 H16 N2 O4'
_chemical_formula_sum            'C14 H16 N2 O4'
_chemical_formula_weight         276.29
_chemical_name_systematic
;
(E)-Ethyl 3-(4,6-dimethyl-3-
oxoisoxazolo[3,4-b]pyridin-1(3H)-yl)but-2-enoate (2b)
;
_space_group_crystal_system      monoclinic
_space_group_IT_number           4
_space_group_name_Hall           'P 2yb'
_space_group_name_H-M_alt        'P 1 21 1'
_symmetry_space_group_name_Hall  'P 2yb'
_symmetry_space_group_name_H-M   'P 1 21 1'
_atom_sites_solution_hydrogens   geom
_audit_creation_date             2017-07-21
_audit_creation_method
;
Olex2 1.2
(compiled 2017.03.28 svn.r3405 for OlexSys, GUI svn.r5337)
;
_cell_angle_alpha                90
_cell_angle_beta                 92.115(2)
_cell_angle_gamma                90
_cell_formula_units_Z            2
_cell_length_a                   4.07910(10)
_cell_length_b                   8.7997(2)
_cell_length_c                   19.3763(4)
_cell_measurement_reflns_used    3910
_cell_measurement_temperature    297.40(14)
_cell_measurement_theta_max      75.2510
_cell_measurement_theta_min      4.5590
_cell_volume                     695.04(3)
_computing_cell_refinement       'CrysAlisPro 1.171.38.43 (Rigaku OD, 2015)'
_computing_data_collection       'CrysAlisPro 1.171.38.43 (Rigaku OD, 2015)'
_computing_data_reduction        'CrysAlisPro 1.171.38.43 (Rigaku OD, 2015)'
_computing_molecular_graphics    'Olex2 (Dolomanov et al., 2009)'
_computing_publication_material  'Olex2 (Dolomanov et al., 2009)'
_computing_structure_refinement  'ShelXL (Sheldrick, 2015)'
_computing_structure_solution    'SHELXT 2014/5 (Sheldrick, 2014)'
_diffrn_ambient_environment      air
_diffrn_ambient_temperature      297.40(14)
_diffrn_detector                 'CCD plate'
_diffrn_detector_area_resol_mean 10.5357
_diffrn_detector_type            Atlas
_diffrn_measured_fraction_theta_full 0.999
_diffrn_measured_fraction_theta_max 0.967
_diffrn_measurement_details
;
List of Runs (angles in degrees, time in seconds):

  # Type    Start    End  Width  t~exp~   \w     \q     \k     \f   Frames
--------------------------------------------------------------------------
  1  \w   -115.00 -11.00   1.00    2.39    --  -40.96 -57.00-150.00  104
  2  \w      2.00  98.00   1.00    2.39    --   40.96-125.00-180.00   96
  3  \w     15.00 117.00   1.00    2.39    --   40.96  37.00 -60.00  102
  4  \w     33.00  69.00   1.00    9.54    --  111.05 -30.00   0.00   36
  5  \w     33.00  69.00   1.00    9.54    --  111.05 -30.00  30.00   36
  6  \w     37.00 141.00   1.00    9.54    --  111.05 -61.00  60.00  104
  7  \w     33.00  69.00   1.00    9.54    --  111.05 -30.00 -30.00   36
  8  \w     33.00 116.00   1.00    9.54    --  111.05-111.00 -60.00   83
  9  \w     50.00 158.00   1.00    9.54    --  111.05  15.00 -90.00  108
 10  \w     27.00 109.00   1.00    9.54    --  111.05 -94.00   0.00   82
 11  \w     27.00 109.00   1.00    9.54    --  111.05 -94.00 -30.00   82
 12  \w    -67.00  35.00   1.00    2.39    --  -40.96  37.00   0.00  102
 13  \w   -120.00  -7.00   1.00    2.39    --  -40.96 -77.00  90.00  113
 14  \w     15.00 117.00   1.00    2.39    --   40.96  37.00  30.00  102
 15  \w     81.00 158.00   1.00    9.54    --  111.05  61.00 -60.00   77
 16  \w     83.00 158.00   1.00    9.54    --  111.05  45.00 120.00   75
 17  \w     36.00  63.00   1.00    9.54    --  111.05 -45.00-180.00   27
 18  \w     50.00 158.00   1.00    9.54    --  111.05  15.00  60.00  108
;
_diffrn_measurement_device       'four-circle diffractometer'
_diffrn_measurement_device_type  'SuperNova, Single source at offset, Atlas'
_diffrn_measurement_method       '\w scans'
_diffrn_orient_matrix_type
'CrysAlisPro convention (1999,Acta A55,543-557)'
_diffrn_orient_matrix_UB_11      0.0128796000
_diffrn_orient_matrix_UB_12      0.1733764000
_diffrn_orient_matrix_UB_13      0.0107716000
_diffrn_orient_matrix_UB_21      -0.0610268000
_diffrn_orient_matrix_UB_22      0.0241672000
_diffrn_orient_matrix_UB_23      -0.0781659000
_diffrn_orient_matrix_UB_31      -0.3727429000
_diffrn_orient_matrix_UB_32      0.0020261000
_diffrn_orient_matrix_UB_33      0.0102222000
_diffrn_radiation_monochromator  mirror
_diffrn_radiation_probe          x-ray
_diffrn_radiation_type           CuK\a
_diffrn_radiation_wavelength     1.54184
_diffrn_reflns_av_R_equivalents  0.0224
_diffrn_reflns_av_unetI/netI     0.0253
_diffrn_reflns_Laue_measured_fraction_full 0.999
_diffrn_reflns_Laue_measured_fraction_max 0.967
_diffrn_reflns_limit_h_max       3
_diffrn_reflns_limit_h_min       -4
_diffrn_reflns_limit_k_max       10
_diffrn_reflns_limit_k_min       -10
_diffrn_reflns_limit_l_max       23
_diffrn_reflns_limit_l_min       -24
_diffrn_reflns_number            5642
_diffrn_reflns_point_group_measured_fraction_full 0.951
_diffrn_reflns_point_group_measured_fraction_max 0.900
_diffrn_reflns_theta_full        67.684
_diffrn_reflns_theta_max         75.625
_diffrn_reflns_theta_min         2.282
_diffrn_source                   'micro-focus sealed X-ray tube'
_diffrn_source_type              'SuperNova (Cu) X-ray Source'
_exptl_absorpt_coefficient_mu    0.815
_exptl_absorpt_correction_T_max  1.00000
_exptl_absorpt_correction_T_min  0.76197
_exptl_absorpt_correction_type   multi-scan
_exptl_absorpt_process_details
;
CrysAlisPro 1.171.38.43 (Rigaku Oxford Diffraction, 2015)
Empirical absorption correction using spherical harmonics,
 implemented in SCALE3 ABSPACK scaling algorithm.
;
_exptl_crystal_colour            clear
_exptl_crystal_colour_lustre     clear
_exptl_crystal_density_diffrn    1.320
_exptl_crystal_description       needle
_exptl_crystal_F_000             292
_exptl_crystal_size_max          1.0
_exptl_crystal_size_mid          0.25
_exptl_crystal_size_min          0.05
_refine_diff_density_max         0.092
_refine_diff_density_min         -0.132
_refine_diff_density_rms         0.028
_refine_ls_abs_structure_details
;
 Flack x determined using 1009 quotients [(I+)-(I-)]/[(I+)+(I-)]
 (Parsons, Flack and Wagner, Acta Cryst. B69 (2013) 249-259).
;
_refine_ls_abs_structure_Flack   -0.12(11)
_refine_ls_extinction_method     none
_refine_ls_goodness_of_fit_ref   1.059
_refine_ls_hydrogen_treatment    constr
_refine_ls_matrix_type           full
_refine_ls_number_parameters     187
_refine_ls_number_reflns         2585
_refine_ls_number_restraints     1
_refine_ls_restrained_S_all      1.059
_refine_ls_R_factor_all          0.0327
_refine_ls_R_factor_gt           0.0315
_refine_ls_shift/su_max          0.000
_refine_ls_shift/su_mean         0.000
_refine_ls_structure_factor_coef Fsqd
_refine_ls_weighting_details
'w=1/[\s^2^(Fo^2^)+(0.0488P)^2^+0.0138P] where P=(Fo^2^+2Fc^2^)/3'
_refine_ls_weighting_scheme      calc
_refine_ls_wR_factor_gt          0.0819
_refine_ls_wR_factor_ref         0.0834
_reflns_Friedel_coverage         0.741
_reflns_Friedel_fraction_full    0.896
_reflns_Friedel_fraction_max     0.823
_reflns_number_gt                2483
_reflns_number_total             2585
_reflns_threshold_expression     'I > 2\s(I)'
_iucr_refine_instructions_details
;
TITL exp_5734_a.res in P2(1)
    exp_5734.res
    created by SHELXL-2016/6 at 13:54:57 on 21-Jul-2017
REM Old TITL exp_5734 in P21 #4
REM SHELXT solution in P2(1)
REM R1 0.138, Rweak 0.040, Alpha 0.003, Orientation as input
REM Flack x = -0.246 ( 0.107 ) from Parsons' quotients
REM Formula found by SHELXT: Q5 N2 O4
CELL 1.54184 4.0791 8.7997 19.3763 90 92.115 90
ZERR 2 0.0001 0.0002 0.0004 0 0.002 0
LATT -1
SYMM -X,0.5+Y,-Z
SFAC C H N O
UNIT 28 32 4 8

L.S. 4
PLAN  5
TEMP 24.25(14)
FREE H19c H20a
FREE H18a H18b
FREE H19a H19b
FREE H20b H20c
FREE H11d H11e
FREE H11f H12a
FREE H12d H12e
FREE H5 H11a
FREE H11b H11c
FREE H12b H12c
FREE H12f H14
BOND $H
MORE -1
CONF
fmap 2
acta
REM <olex2.extras>
REM <HklSrc "%.\\exp_5734.hkl">
REM </olex2.extras>

WGHT    0.048800    0.013800
FVAR       1.20673   0.46837   0.30457
N1    3    0.389606    0.476518    0.734020    11.00000    0.08171    0.03915 =
         0.05026    0.00744    0.01062    0.00990
O2    4    0.376819    0.607848    0.691769    11.00000    0.08729    0.04230 =
         0.05520    0.01009    0.01249    0.01079
C3    1    0.540997    0.577625    0.631308    11.00000    0.07047    0.05088 =
         0.05009    0.00497    0.00351   -0.00257
C4    1    0.827285    0.329861    0.592404    11.00000    0.06130    0.05975 =
         0.05176   -0.00944    0.00403   -0.00883
C5    1    0.892895    0.185739    0.617244    11.00000    0.07263    0.05748 =
         0.06563   -0.01576    0.00891    0.00501
AFIX  43
H5    2    1.005856    0.117924    0.590007    11.00000   -1.20000
AFIX   0
C6    1    0.794577    0.138784    0.682094    11.00000    0.06963    0.04427 =
         0.06919   -0.00801    0.00432    0.00335
N7    3    0.624977    0.227449    0.724896    11.00000    0.06698    0.04073 =
         0.05891    0.00082    0.00519    0.00546
C8    1    0.563149    0.366364    0.700162    11.00000    0.05762    0.04045 =
         0.04991   -0.00277    0.00146   -0.00007
C9    1    0.655970    0.423101    0.637041    11.00000    0.05787    0.04654 =
         0.04920   -0.00188    0.00074   -0.00327
O10   4    0.557070    0.675453    0.588377    11.00000    0.10234    0.06262 =
         0.06222    0.01843    0.01434    0.00339
C11   1    0.928193    0.384385    0.523063    11.00000    0.07923    0.08269 =
         0.05455   -0.00752    0.01295   -0.00658
AFIX 127
H11A  2    1.161983    0.397231    0.523615    31.00000   -1.20000
H11B  2    0.823511    0.479807    0.512672    31.00000   -1.20000
H11C  2    0.863727    0.311047    0.488482    31.00000   -1.20000
H11D  2    0.737497    0.394826    0.492897   -31.00000   -1.20000
H11E  2    1.075970    0.312250    0.503841   -31.00000   -1.20000
H11F  2    1.035754    0.481010    0.528030   -31.00000   -1.20000
AFIX   0
C12   1    0.875943   -0.017299    0.708606    11.00000    0.10458    0.04845 =
         0.09466   -0.00100    0.01804    0.01801
AFIX 127
H12A  2    0.809362   -0.091414    0.674539    21.00000   -1.20000
H12B  2    0.762423   -0.035430    0.750345    21.00000   -1.20000
H12C  2    1.108143   -0.024992    0.717909    21.00000   -1.20000
H12D  2    0.977257   -0.009810    0.753990   -21.00000   -1.20000
H12E  2    1.024196   -0.065794    0.678184   -21.00000   -1.20000
H12F  2    0.678476   -0.076232    0.710620   -21.00000   -1.20000
AFIX   0
C13   1    0.252541    0.492611    0.798224    11.00000    0.05654    0.04246 =
         0.04628    0.00077    0.00165    0.00063
C14   1    0.107608    0.624661    0.813460    11.00000    0.06948    0.04388 =
         0.04955    0.00350    0.00561    0.00679
AFIX  43
H14   2    0.103902    0.700510    0.780017    11.00000   -1.20000
AFIX   0
C15   1   -0.045365    0.657945    0.879067    11.00000    0.06410    0.04633 =
         0.05214    0.00110    0.00396    0.00465
O16   4   -0.088253    0.574492    0.926903    11.00000    0.10775    0.05683 =
         0.06400    0.01270    0.02628    0.01815
O17   4   -0.140139    0.804328    0.878730    11.00000    0.08232    0.04488 =
         0.05727   -0.00104    0.01507    0.00960
C18   1   -0.292790    0.859692    0.940597    11.00000    0.07699    0.05798 =
         0.05704   -0.00546    0.01524    0.00750
AFIX  23
H18A  2   -0.135037    0.860390    0.979300    11.00000   -1.20000
H18B  2   -0.475074    0.794798    0.952102    11.00000   -1.20000
AFIX   0
C19   1   -0.410563    1.016629    0.925401    11.00000    0.09263    0.05639 =
         0.08315   -0.00702    0.02246    0.01608
AFIX 137
H19A  2   -0.561985    1.014691    0.886289    11.00000   -1.50000
H19B  2   -0.227234    1.080266    0.915338    11.00000   -1.50000
H19C  2   -0.518451    1.056178    0.964774    11.00000   -1.50000
AFIX   0
C20   1    0.283889    0.355609    0.843785    11.00000    0.07944    0.04545 =
         0.05688    0.00887    0.01008    0.01006
AFIX 137
H20A  2    0.180343    0.270285    0.821102    11.00000   -1.50000
H20B  2    0.179611    0.375146    0.886503    11.00000   -1.50000
H20C  2    0.511817    0.333535    0.852968    11.00000   -1.50000
AFIX   0
HKLF 4




REM  exp_5734_a.res in P2(1)
REM R1 =  0.0315 for    2483 Fo > 4sig(Fo)  and  0.0327 for all    2585 data
REM    187 parameters refined using      1 restraints

END  
     
WGHT      0.0488      0.0138 

REM Highest difference peak  0.092,  deepest hole -0.132,  1-sigma level  0.028
Q1    1   0.5928  0.2167  0.7705  11.00000  0.05    0.09
Q2    1   0.6699  0.1599  0.8167  11.00000  0.05    0.09
Q3    1   0.0857  0.6229  0.9305  11.00000  0.05    0.08
Q4    1   0.6656  0.4601  0.4960  11.00000  0.05    0.08
Q5    1  -0.7777  1.0852  0.9299  11.00000  0.05    0.08

  REM The information below was added by Olex2.
  REM
  REM R1 = 0.0315 for 2483 Fo > 4sig(Fo) and 0.0327 for all 5654 data
  REM n/a parameters refined using n/a restraints
  REM Highest difference peak 0.09, deepest hole -0.13
  REM Mean Shift 0, Max Shift 0.000.

  REM +++ Tabular Listing of Refinement Information +++
  REM R1_all = 0.0327
  REM R1_gt = 0.0315
  REM wR_ref = 0.0834
  REM GOOF = 1.059
  REM Shift_max = 0.000
  REM Shift_mean = 0
  REM Reflections_all = 5654
  REM Reflections_gt = 2483
  REM Parameters = n/a
  REM Hole = -0.13
  REM Peak = 0.09
  REM Flack = -0.12(11)

  
;
_cod_data_source_file            jo7b01851_si_002.cif
_cod_data_source_block           2b
_cod_database_code               4033077
_shelx_shelxl_version_number     2016/6
_chemical_oxdiff_usercomment     '293, COLOURLESS'
_shelx_space_group_comment
;
The symmetry employed for this shelxl refinement is uniquely defined
by the following loop, which should always be used as a source of
symmetry information in preference to the above space-group names.
They are only intended as comments.
;
_reflns_odcompleteness_completeness 99.93
_reflns_odcompleteness_iscentric 1
_reflns_odcompleteness_theta     68.13
_olex2_refinement_description
;
1. Fixed Uiso
 At 1.2 times of:
  All C(H) groups, All C(H,H) groups, All C(H,H,H,H,H,H) groups
 At 1.5 times of:
  All C(H,H,H) groups
2. Others
 Sof(H12D)=Sof(H12E)=Sof(H12F)=1-FVAR(1)
 Sof(H12A)=Sof(H12B)=Sof(H12C)=FVAR(1)
 Sof(H11D)=Sof(H11E)=Sof(H11F)=1-FVAR(2)
 Sof(H11A)=Sof(H11B)=Sof(H11C)=FVAR(2)
3.a Secondary CH2 refined with riding coordinates:
 C18(H18A,H18B)
3.b Aromatic/amide H refined with riding coordinates:
 C5(H5), C14(H14)
3.c Disordered Me refined as rotating group:
 C11(H11A,H11B,H11C,H11D,H11E,H11F), C12(H12A,H12B,H12C,H12D,H12E,H12F)
3.d Idealised Me refined as rotating group:
 C19(H19A,H19B,H19C), C20(H20A,H20B,H20C)
;
_olex2_submission_original_sample_id jf112
_olex2_submission_special_instructions 'No special instructions were received'
_oxdiff_exptl_absorpt_empirical_details
;
Empirical correction (ABSPACK) includes:
- Absorption correction using spherical harmonics
- Frame scaling
;
_oxdiff_exptl_absorpt_empirical_full_max 1.487
_oxdiff_exptl_absorpt_empirical_full_min 0.499
loop_
_space_group_symop_operation_xyz
'x, y, z'
'-x, y+1/2, -z'
loop_
_atom_site_label
_atom_site_type_symbol
_atom_site_fract_x
_atom_site_fract_y
_atom_site_fract_z
_atom_site_U_iso_or_equiv
_atom_site_adp_type
_atom_site_occupancy
_atom_site_site_symmetry_order
_atom_site_calc_flag
_atom_site_refinement_flags_posn
_atom_site_refinement_flags_occupancy
N1 N 0.3896(5) 0.47652(19) 0.73402(9) 0.0568(4) Uani 1 1 d . .
O2 O 0.3768(4) 0.60785(16) 0.69177(7) 0.0614(4) Uani 1 1 d . .
C3 C 0.5410(6) 0.5776(3) 0.63131(10) 0.0571(5) Uani 1 1 d . .
C4 C 0.8273(5) 0.3299(3) 0.59240(10) 0.0576(5) Uani 1 1 d . .
C5 C 0.8929(6) 0.1857(3) 0.61724(12) 0.0651(6) Uani 1 1 d . .
H5 H 1.005856 0.117924 0.590007 0.078 Uiso 1 1 calc R .
C6 C 0.7946(6) 0.1388(3) 0.68209(12) 0.0610(5) Uani 1 1 d . .
N7 N 0.6250(4) 0.2274(2) 0.72490(9) 0.0555(4) Uani 1 1 d . .
C8 C 0.5631(5) 0.3664(2) 0.70016(10) 0.0493(4) Uani 1 1 d . .
C9 C 0.6560(5) 0.4231(2) 0.63704(10) 0.0512(4) Uani 1 1 d . .
O10 O 0.5571(5) 0.6755(2) 0.58838(9) 0.0754(5) Uani 1 1 d . .
C11 C 0.9282(7) 0.3844(3) 0.52306(12) 0.0719(6) Uani 1 1 d . .
H11A H 1.161983 0.397231 0.523615 0.086 Uiso 0.30(3) 1 calc GR P
H11B H 0.823511 0.479807 0.512672 0.086 Uiso 0.30(3) 1 calc GR P
H11C H 0.863727 0.311047 0.488482 0.086 Uiso 0.30(3) 1 calc GR P
H11D H 0.737497 0.394826 0.492897 0.086 Uiso 0.70(3) 1 calc GR P
H11E H 1.075970 0.312250 0.503841 0.086 Uiso 0.70(3) 1 calc GR P
H11F H 1.035754 0.481010 0.528030 0.086 Uiso 0.70(3) 1 calc GR P
C12 C 0.8759(8) -0.0173(3) 0.70861(16) 0.0822(7) Uani 1 1 d . .
H12A H 0.809362 -0.091414 0.674539 0.099 Uiso 0.47(3) 1 calc GR P
H12B H 0.762423 -0.035430 0.750345 0.099 Uiso 0.47(3) 1 calc GR P
H12C H 1.108143 -0.024992 0.717909 0.099 Uiso 0.47(3) 1 calc GR P
H12D H 0.977257 -0.009810 0.753990 0.099 Uiso 0.53(3) 1 calc GR P
H12E H 1.024196 -0.065794 0.678184 0.099 Uiso 0.53(3) 1 calc GR P
H12F H 0.678476 -0.076232 0.710620 0.099 Uiso 0.53(3) 1 calc GR P
C13 C 0.2525(5) 0.4926(2) 0.79822(9) 0.0484(4) Uani 1 1 d . .
C14 C 0.1076(5) 0.6247(2) 0.81346(10) 0.0542(5) Uani 1 1 d . .
H14 H 0.103902 0.700510 0.780017 0.065 Uiso 1 1 calc R .
C15 C -0.0454(5) 0.6579(2) 0.87907(10) 0.0541(4) Uani 1 1 d . .
O16 O -0.0883(5) 0.5745(2) 0.92690(9) 0.0756(5) Uani 1 1 d . .
O17 O -0.1401(4) 0.80433(18) 0.87873(8) 0.0612(4) Uani 1 1 d . .
C18 C -0.2928(6) 0.8597(3) 0.94060(12) 0.0637(5) Uani 1 1 d . .
H18A H -0.135037 0.860390 0.979300 0.076 Uiso 1 1 calc R .
H18B H -0.475074 0.794798 0.952102 0.076 Uiso 1 1 calc R .
C19 C -0.4106(7) 1.0166(3) 0.92540(15) 0.0769(7) Uani 1 1 d . .
H19A H -0.561985 1.014691 0.886289 0.115 Uiso 1 1 calc GR .
H19B H -0.227234 1.080266 0.915338 0.115 Uiso 1 1 calc GR .
H19C H -0.518451 1.056178 0.964774 0.115 Uiso 1 1 calc GR .
C20 C 0.2839(6) 0.3556(2) 0.84378(11) 0.0604(5) Uani 1 1 d . .
H20A H 0.180343 0.270285 0.821102 0.091 Uiso 1 1 calc GR .
H20B H 0.179611 0.375146 0.886503 0.091 Uiso 1 1 calc GR .
H20C H 0.511817 0.333535 0.852968 0.091 Uiso 1 1 calc GR .
loop_
_atom_site_aniso_label
_atom_site_aniso_U_11
_atom_site_aniso_U_22
_atom_site_aniso_U_33
_atom_site_aniso_U_23
_atom_site_aniso_U_13
_atom_site_aniso_U_12
N1 0.0817(11) 0.0392(8) 0.0503(8) 0.0074(6) 0.0106(8) 0.0099(8)
O2 0.0873(10) 0.0423(8) 0.0552(7) 0.0101(6) 0.0125(7) 0.0108(7)
C3 0.0705(12) 0.0509(11) 0.0501(10) 0.0050(8) 0.0035(8) -0.0026(9)
C4 0.0613(11) 0.0598(12) 0.0518(10) -0.0094(9) 0.0040(8) -0.0088(9)
C5 0.0726(13) 0.0575(12) 0.0656(12) -0.0158(9) 0.0089(10) 0.0050(10)
C6 0.0696(12) 0.0443(10) 0.0692(12) -0.0080(8) 0.0043(10) 0.0034(9)
N7 0.0670(9) 0.0407(8) 0.0589(9) 0.0008(7) 0.0052(7) 0.0055(8)
C8 0.0576(10) 0.0404(9) 0.0499(9) -0.0028(7) 0.0015(7) -0.0001(8)
C9 0.0579(10) 0.0465(10) 0.0492(9) -0.0019(7) 0.0007(7) -0.0033(8)
O10 0.1023(12) 0.0626(10) 0.0622(9) 0.0184(7) 0.0143(8) 0.0034(9)
C11 0.0792(14) 0.0827(17) 0.0546(12) -0.0075(11) 0.0129(10) -0.0066(13)
C12 0.1046(19) 0.0485(13) 0.0947(18) -0.0010(12) 0.0180(15) 0.0180(13)
C13 0.0565(10) 0.0425(9) 0.0463(9) 0.0008(7) 0.0016(7) 0.0006(8)
C14 0.0695(12) 0.0439(10) 0.0496(10) 0.0035(7) 0.0056(8) 0.0068(9)
C15 0.0641(11) 0.0463(10) 0.0521(10) 0.0011(8) 0.0040(8) 0.0046(9)
O16 0.1077(13) 0.0568(9) 0.0640(9) 0.0127(7) 0.0263(8) 0.0182(9)
O17 0.0823(10) 0.0449(7) 0.0573(8) -0.0010(6) 0.0151(7) 0.0096(7)
C18 0.0770(14) 0.0580(12) 0.0570(11) -0.0055(9) 0.0152(10) 0.0075(11)
C19 0.0926(17) 0.0564(13) 0.0831(16) -0.0070(12) 0.0225(13) 0.0161(13)
C20 0.0794(14) 0.0455(10) 0.0569(11) 0.0089(8) 0.0101(9) 0.0101(9)
loop_
_atom_type_symbol
_atom_type_description
_atom_type_scat_dispersion_real
_atom_type_scat_dispersion_imag
_atom_type_scat_source
C C 0.0181 0.0091 'International Tables Vol C Tables 4.2.6.8 and 6.1.1.4'
H H 0.0000 0.0000 'International Tables Vol C Tables 4.2.6.8 and 6.1.1.4'
N N 0.0311 0.0180 'International Tables Vol C Tables 4.2.6.8 and 6.1.1.4'
O O 0.0492 0.0322 'International Tables Vol C Tables 4.2.6.8 and 6.1.1.4'
loop_
_geom_angle_atom_site_label_1
_geom_angle_atom_site_label_2
_geom_angle_atom_site_label_3
_geom_angle
C8 N1 O2 107.87(15)
C8 N1 C13 136.66(16)
C13 N1 O2 115.27(15)
C3 O2 N1 108.73(15)
O2 C3 C9 106.25(17)
O10 C3 O2 119.0(2)
O10 C3 C9 134.7(2)
C5 C4 C9 114.8(2)
C5 C4 C11 123.4(2)
C9 C4 C11 121.8(2)
C4 C5 H5 119.1
C4 C5 C6 121.9(2)
C6 C5 H5 119.1
C5 C6 C12 120.8(2)
N7 C6 C5 123.6(2)
N7 C6 C12 115.6(2)
C8 N7 C6 113.82(18)
N1 C8 C9 109.14(18)
N7 C8 N1 124.50(18)
N7 C8 C9 126.36(19)
C4 C9 C3 132.4(2)
C8 C9 C3 108.00(18)
C8 C9 C4 119.6(2)
C4 C11 H11A 109.5
C4 C11 H11B 109.5
C4 C11 H11C 109.5
C4 C11 H11D 109.5
C4 C11 H11E 109.5
C4 C11 H11F 109.5
H11A C11 H11B 109.5
H11A C11 H11C 109.5
H11A C11 H11D 141.1
H11A C11 H11E 56.3
H11A C11 H11F 56.3
H11B C11 H11C 109.5
H11B C11 H11D 56.3
H11B C11 H11E 141.1
H11B C11 H11F 56.3
H11C C11 H11D 56.3
H11C C11 H11E 56.3
H11C C11 H11F 141.1
H11D C11 H11E 109.5
H11D C11 H11F 109.5
H11E C11 H11F 109.5
C6 C12 H12A 109.5
C6 C12 H12B 109.5
C6 C12 H12C 109.5
C6 C12 H12D 109.5
C6 C12 H12E 109.5
C6 C12 H12F 109.5
H12A C12 H12B 109.5
H12A C12 H12C 109.5
H12A C12 H12D 141.1
H12A C12 H12E 56.3
H12A C12 H12F 56.3
H12B C12 H12C 109.5
H12B C12 H12D 56.3
H12B C12 H12E 141.1
H12B C12 H12F 56.3
H12C C12 H12D 56.3
H12C C12 H12E 56.3
H12C C12 H12F 141.1
H12D C12 H12E 109.5
H12D C12 H12F 109.5
H12E C12 H12F 109.5
N1 C13 C20 114.67(17)
C14 C13 N1 118.71(17)
C14 C13 C20 126.62(18)
C13 C14 H14 117.7
C13 C14 C15 124.67(18)
C15 C14 H14 117.7
O16 C15 C14 128.8(2)
O16 C15 O17 122.7(2)
O17 C15 C14 108.58(17)
C15 O17 C18 116.64(17)
O17 C18 H18A 110.3
O17 C18 H18B 110.3
O17 C18 C19 107.01(19)
H18A C18 H18B 108.6
C19 C18 H18A 110.3
C19 C18 H18B 110.3
C18 C19 H19A 109.5
C18 C19 H19B 109.5
C18 C19 H19C 109.5
H19A C19 H19B 109.5
H19A C19 H19C 109.5
H19B C19 H19C 109.5
C13 C20 H20A 109.5
C13 C20 H20B 109.5
C13 C20 H20C 109.5
H20A C20 H20B 109.5
H20A C20 H20C 109.5
H20B C20 H20C 109.5
loop_
_geom_bond_atom_site_label_1
_geom_bond_atom_site_label_2
_geom_bond_distance
N1 O2 1.416(2)
N1 C8 1.380(3)
N1 C13 1.390(2)
O2 C3 1.396(3)
C3 C9 1.441(3)
C3 O10 1.201(3)
C4 C5 1.379(4)
C4 C9 1.398(3)
C4 C11 1.499(3)
C5 H5 0.9300
C5 C6 1.396(3)
C6 N7 1.348(3)
C6 C12 1.499(3)
N7 C8 1.334(3)
C8 C9 1.387(3)
C11 H11A 0.9600
C11 H11B 0.9600
C11 H11C 0.9600
C11 H11D 0.9600
C11 H11E 0.9600
C11 H11F 0.9600
C12 H12A 0.9600
C12 H12B 0.9600
C12 H12C 0.9600
C12 H12D 0.9600
C12 H12E 0.9600
C12 H12F 0.9600
C13 C14 1.342(3)
C13 C20 1.497(3)
C14 H14 0.9300
C14 C15 1.466(3)
C15 O16 1.200(3)
C15 O17 1.345(3)
O17 C18 1.455(2)
C18 H18A 0.9700
C18 H18B 0.9700
C18 C19 1.488(3)
C19 H19A 0.9600
C19 H19B 0.9600
C19 H19C 0.9600
C20 H20A 0.9600
C20 H20B 0.9600
C20 H20C 0.9600
loop_
_geom_torsion_atom_site_label_1
_geom_torsion_atom_site_label_2
_geom_torsion_atom_site_label_3
_geom_torsion_atom_site_label_4
_geom_torsion
N1 O2 C3 C9 0.2(2)
N1 O2 C3 O10 179.9(2)
N1 C8 C9 C3 1.2(2)
N1 C8 C9 C4 -178.12(17)
N1 C13 C14 C15 -179.69(19)
O2 N1 C8 N7 179.75(18)
O2 N1 C8 C9 -1.1(2)
O2 N1 C13 C14 3.4(3)
O2 N1 C13 C20 -176.86(19)
O2 C3 C9 C4 178.3(2)
O2 C3 C9 C8 -0.8(2)
C4 C5 C6 N7 1.2(4)
C4 C5 C6 C12 -178.5(2)
C5 C4 C9 C3 -180.0(2)
C5 C4 C9 C8 -0.9(3)
C5 C6 N7 C8 -1.1(3)
C6 N7 C8 N1 179.00(19)
C6 N7 C8 C9 -0.1(3)
N7 C8 C9 C3 -179.7(2)
N7 C8 C9 C4 1.1(3)
C8 N1 O2 C3 0.5(2)
C8 N1 C13 C14 177.4(2)
C8 N1 C13 C20 -2.8(3)
C9 C4 C5 C6 -0.1(3)
O10 C3 C9 C4 -1.3(4)
O10 C3 C9 C8 179.6(3)
C11 C4 C5 C6 -179.9(2)
C11 C4 C9 C3 -0.2(4)
C11 C4 C9 C8 178.9(2)
C12 C6 N7 C8 178.7(2)
C13 N1 O2 C3 176.27(17)
C13 N1 C8 N7 5.4(4)
C13 N1 C8 C9 -175.4(2)
C13 C14 C15 O16 -5.6(4)
C13 C14 C15 O17 174.7(2)
C14 C15 O17 C18 -178.86(18)
C15 O17 C18 C19 -173.6(2)
O16 C15 O17 C18 1.5(3)
C20 C13 C14 C15 0.6(4)
loop_
_refln_index_h
_refln_index_k
_refln_index_l
_refln_F_squared_meas
_refln_F_squared_sigma
0 -10 0 9.96 1.07
0 -10 1 0.69 0.31
0 -10 -1 0.8 0.36
0 -10 2 2.16 0.52
0 -10 -2 1.68 0.46
0 -10 3 0.39 0.26
0 -10 -3 0.32 0.25
0 -10 4 0.32 0.25
0 -10 -4 0.42 0.3
0 -10 -5 0.96 0.35
0 -10 5 1.27 0.37
0 -10 6 6.19 0.74
0 -10 -6 5.02 0.71
0 -10 -7 4.74 0.66
0 -10 7 4.43 0.61
0 -10 -8 2.08 0.42
0 -10 8 2.49 0.43
0 -10 -9 3.06 0.46
0 -10 9 2.74 0.4
0 -9 0 -0.11 0.36
0 -9 1 49.17 2.85
0 -9 -1 50.58 2.93
0 -9 -2 2.1 0.63
0 -9 2 2.26 0.64
0 -9 -3 33.42 2.38
0 -9 3 32.62 2.29
0 -9 -4 15.12 1.62
0 -9 4 15.52 1.56
0 -9 5 2.7 0.69
0 -9 -5 2.34 0.7
0 -9 -6 36.01 2.4
0 -9 6 33.16 2.16
0 -9 -7 47.75 2.71
0 -9 -7 48.23 2.09
0 -9 7 46.59 2.49
0 -9 -8 12.75 1.38
0 -9 -8 15.08 1.14
0 -9 8 14.4 1.34
0 -9 -9 2.28 0.59
0 -9 9 2.13 0.53
0 -9 -9 1.66 0.39
0 -9 -10 1.03 0.3
0 -9 -10 1.14 0.42
0 -9 10 1.22 0.37
0 -9 11 7.49 0.82
0 -9 -11 8.64 0.99
0 -9 -11 8.27 0.76
0 -9 -12 5.13 0.57
0 -9 -12 4.6 0.67
0 -9 12 4.55 0.59
0 -9 -13 0.93 0.3
0 -9 -13 0.73 0.21
0 -9 13 0.67 0.22
0 -8 0 96.84 4.3
0 -8 0 95.77 3.12
0 -8 -1 6.26 0.8
0 -8 1 6.15 1.12
0 -8 1 5.84 0.78
0 -8 -1 6.51 1.16
0 -8 2 183.26 5.85
0 -8 -2 183.88 5.99
0 -8 3 26.53 2.22
0 -8 -3 27.16 2.33
0 -8 -4 221.87 6.59
0 -8 4 217.15 6.29
0 -8 -4 225.11 5.22
0 -8 -5 47.1 2.44
0 -8 -5 44.69 3
0 -8 5 43.09 2.79
0 -8 6 49.06 2.95
0 -8 -6 49.91 3.15
0 -8 -6 48.52 2.5
0 -8 -7 26.5 2.27
0 -8 -7 26.54 1.88
0 -8 7 28.53 2.21
0 -8 8 154.18 5.06
0 -8 -8 151.02 4.42
0 -8 -8 159.43 5.49
0 -8 9 80.81 3.59
0 -8 -9 82.24 3.88
0 -8 -9 79.63 3.19
0 -8 -10 5.04 0.83
0 -8 -10 6.59 1.1
0 -8 10 5.79 0.94
0 -8 11 4.62 0.82
0 -8 -11 3.96 0.71
0 -8 -11 4.69 0.9
0 -8 -12 0.29 0.26
0 -8 -12 0.46 0.35
0 -8 12 0.44 0.33
0 -8 -13 3.72 0.63
0 -8 13 3.75 0.67
0 -8 -13 5.72 0.9
0 -8 14 2.89 0.53
0 -8 -14 2.67 0.59
0 -8 -14 3.59 0.57
0 -8 15 0.8 0.28
0 -8 -15 1.1 0.31
0 -8 -15 1.23 0.38
0 -8 -16 4.11 0.5
0 -8 -16 2.85 0.49
0 -8 16 3.63 0.46
0 -7 0 0.45 0.4
0 -7 0 0.06 0.28
0 -7 1 60.98 2.48
0 -7 1 70.44 6.88
0 -7 -1 59.72 2.39
0 -7 -1 67.26 3.51
0 -7 -1 56.42 6.15
0 -7 1 66.51 3.46
0 -7 2 65.66 2.61
0 -7 -2 69.18 6.81
0 -7 2 70.06 6.88
0 -7 2 65.71 3.44
0 -7 -2 70.05 3.6
0 -7 -3 91.18 4.13
0 -7 3 92.33 4.11
0 -7 -3 91.12 3.33
0 -7 -3 82.61 7.45
0 -7 3 91.74 7.93
0 -7 3 89.38 3.09
0 -7 4 203.39 6.08
0 -7 -4 188.08 11.37
0 -7 -4 197.67 6.12
0 -7 -4 196.5 5.02
0 -7 4 190.61 4.57
0 -7 4 211.76 12.28
0 -7 5 2.54 0.77
0 -7 -5 2.15 0.53
0 -7 -5 3.45 1.6
0 -7 -5 1.83 0.64
0 -7 5 0.67 0.89
0 -7 6 228.1 6.42
0 -7 -6 220.18 5.54
0 -7 7 20.95 1.94
0 -7 -7 20.11 1.71
0 -7 -8 67.9 3.16
0 -7 8 71.94 3.63
0 -7 -9 19.64 1.71
0 -7 9 17.95 1.84
0 -7 10 50.33 3.01
0 -7 -10 52.81 2.8
0 -7 -11 56.57 2.88
0 -7 11 56.38 3.09
0 -7 12 21.82 1.9
0 -7 -12 22 1.8
0 -7 13 4.65 0.87
0 -7 -13 5.14 0.9
0 -7 -14 40.62 2.24
0 -7 14 39.11 2.31
0 -7 -15 7.15 0.9
0 -7 15 7.89 0.99
0 -7 -16 13.25 1.14
0 -7 16 13.46 1.18
0 -7 -17 7.39 0.79
0 -7 17 7.54 0.8
0 -7 -18 3.61 0.48
0 -7 18 3.49 0.48
0 -6 0 258.7 11.99
0 -6 1 8.64 2.21
0 -6 -1 8.38 2.3
0 -6 -2 183.97 10.12
0 -6 2 184 10.24
0 -6 -3 116.04 8.07
0 -6 3 132.08 8.79
0 -6 -4 16.85 3.11
0 -6 4 21.72 3.6
0 -6 -5 39.84 4.82
0 -6 5 45.9 5.36
0 -6 6 102.2 4.13
0 -6 6 105.88 8.36
0 -6 6 98.65 3.18
0 -6 -6 95.56 7.6
0 -6 7 179.91 5.51
0 -6 -7 176.29 4.87
0 -6 -8 -0.25 0.41
0 -6 8 0.52 0.52
0 -6 8 1.23 0.69
0 -6 -8 0.43 0.32
0 -6 -8 0.98 0.92
0 -6 9 87.42 3.99
0 -6 -9 82.42 3.48
0 -6 -9 76.75 7.19
0 -6 10 54.74 4.5
0 -6 -10 55.85 2.92
0 -6 -10 56.49 4.82
0 -6 10 54.78 3.15
0 -6 -10 56.15 6.26
0 -6 -11 82.72 3.56
0 -6 11 81.81 3.85
0 -6 -12 8.85 1.17
0 -6 12 7.11 1.17
0 -6 13 75.92 3.64
0 -6 -13 76.96 3.4
0 -6 -14 34.58 2.26
0 -6 14 34.25 2.39
0 -6 15 28.49 2.13
0 -6 -15 29.12 2.03
0 -6 16 37.78 2.29
0 -6 -16 37.93 2.19
0 -6 -17 1.48 0.45
0 -6 17 2.44 0.59
0 -6 -18 3.93 0.65
0 -6 18 3.96 0.64
0 -6 19 0.13 0.16
0 -6 -19 0.16 0.21
0 -6 -20 3.36 0.44
0 -5 0 -0.43 0.89
0 -5 -1 507.92 14.67
0 -5 1 499.15 14.68
0 -5 -2 115.16 6.99
0 -5 2 118.23 7.23
0 -5 -3 90.78 6.27
0 -5 3 95.31 6.63
0 -5 4 617.38 17.21
0 -5 -4 605.72 16.38
0 -5 4 616.2 11.46
0 -5 -5 190.08 9.39
0 -5 5 203.62 6.79
0 -5 5 208.93 10.28
0 -5 6 139.92 8.64
0 -5 -6 124.4 7.69
0 -5 6 128.61 5.56
0 -5 -7 81.19 6.36
0 -5 7 85.88 4.64
0 -5 7 83.17 6.86
0 -5 -8 24.36 3.61
0 -5 8 24.31 3.9
0 -5 8 26.5 2.66
0 -5 9 15.08 2.14
0 -5 -9 14.68 2.82
0 -5 -10 103.99 7.76
0 -5 10 111.59 4.34
0 -5 -10 110 3.85
0 -5 10 124.68 6.3
0 -5 11 53.2 3.07
0 -5 11 52.91 4.26
0 -5 -11 51.32 2.71
0 -5 -11 46.15 5.39
0 -5 -12 129.08 9.14
0 -5 12 150.58 7.4
0 -5 -12 140.09 4.52
0 -5 12 141.59 5.04
0 -5 13 70.85 3.54
0 -5 -13 68.42 3.21
0 -5 -14 191.46 5.37
0 -5 14 192.44 5.88
0 -5 15 14.09 1.61
0 -5 -15 14.17 1.49
0 -5 16 24.3 2.02
0 -5 -16 22.93 1.84
0 -5 -17 41.98 2.36
0 -5 17 43.61 2.54
0 -5 18 7.19 1
0 -5 -18 6.78 0.93
0 -5 -19 16.85 1.32
0 -5 19 13.74 1.25
0 -5 20 2.82 0.53
0 -5 -20 3.03 0.52
0 -5 -21 4.07 0.5
0 -4 0 959.88 8.77
0 -4 0 883.35 16.81
0 -4 -1 1092.13 18.47
0 -4 1 1100.61 18.93
0 -4 2 511.4 13.21
0 -4 2 531.44 8.56
0 -4 -2 495.95 12.46
0 -4 -3 97.6 5.57
0 -4 3 104.72 6.13
0 -4 3 99.88 3.81
0 -4 4 701.35 10.38
0 -4 4 715.55 16.44
0 -4 5 186.89 8.74
0 -4 -5 194.01 8.12
0 -4 5 191.03 5.61
0 -4 6 540.93 9.77
0 -4 -6 545.33 14.03
0 -4 6 559.65 15.47
0 -4 7 73.7 5.85
0 -4 -7 68.39 5.2
0 -4 7 74.3 3.81
0 -4 -8 388.09 12.73
0 -4 8 397.3 14.12
0 -4 8 399.11 9.2
0 -4 -9 11.81 2.38
0 -4 9 11.99 1.7
0 -4 -9 12.15 2.4
0 -4 10 14.09 1.89
0 -4 -10 16.07 2.76
0 -4 -10 13.6 2.74
0 -4 -11 226.25 11.39
0 -4 11 251.01 8.35
0 -4 -11 226.39 10.98
0 -4 -12 4.35 1.67
0 -4 -12 5.91 0.93
0 -4 12 7.48 1.61
0 -4 12 4.16 0.9
0 -4 -12 6.01 1.89
0 -4 -13 155.98 9.76
0 -4 -13 174.27 10.72
0 -4 -13 168.38 4.86
0 -4 13 188.81 7.92
0 -4 13 176.77 5.57
0 -4 -14 21 3.77
0 -4 14 18.78 1.8
0 -4 -14 17.97 1.63
0 -4 15 61.87 3.26
0 -4 -15 62.22 3.06
0 -4 16 59.98 3.2
0 -4 -16 59.39 2.97
0 -4 -17 72.89 3.25
0 -4 17 72.47 3.45
0 -4 -18 32.48 2.1
0 -4 18 32.64 2.27
0 -4 -19 9.91 1.1
0 -4 19 10.81 1.24
0 -4 20 0.83 0.38
0 -4 -20 0.6 0.29
0 -4 -21 3.87 0.58
0 -3 0 5.2 1.11
0 -3 -1 297.22 8.03
0 -3 1 306.35 5.29
0 -3 1 294.12 8.29
0 -3 1 315.31 3.66
0 -3 2 40.55 3.13
0 -3 -2 40.58 2.96
0 -3 2 39.76 1.93
0 -3 3 311.52 5.63
0 -3 3 313.93 9.07
0 -3 -3 308.58 8.29
0 -3 -4 615.38 11.93
0 -3 4 619.69 13.21
0 -3 4 619.93 8.18
0 -3 -5 101.76 5.03
0 -3 5 99.4 3.42
0 -3 5 105.92 5.68
0 -3 -5 99.79 5.16
0 -3 6 405.48 7.3
0 -3 -6 403.59 10.55
0 -3 6 394.92 11.43
0 -3 -6 402.1 10.94
0 -3 7 86.32 3.53
0 -3 -7 81.1 5.17
0 -3 7 78.77 5.41
0 -3 -7 90.15 5.23
0 -3 -8 350.23 10.9
0 -3 8 348.45 7.49
0 -3 -8 323.62 10.85
0 -3 -9 721.45 16.41
0 -3 -9 679.39 16.51
0 -3 9 706.06 11.31
0 -3 10 180.43 6.04
0 -3 -10 172.49 8.48
0 -3 -10 171.77 8.85
0 -3 -11 18.85 3
0 -3 11 18.25 2.04
0 -3 -11 16.63 2.88
0 -3 -12 124.6 7.94
0 -3 -12 108.32 7.81
0 -3 12 120.48 5.51
0 -3 13 85.05 4.89
0 -3 13 83.08 3.59
0 -3 -13 81 3.38
0 -3 -13 82.39 3.23
0 -3 -13 87.46 7.22
0 -3 -13 72.86 6.35
0 -3 -14 32.49 2.09
0 -3 14 35.38 3.32
0 -3 -14 29.53 4.44
0 -3 -14 32.17 2.2
0 -3 14 32.33 2.33
0 -3 -14 28.48 4.18
0 -3 -15 96.64 3.87
0 -3 -15 87.91 7.46
0 -3 15 91.13 3.95
0 -3 -15 97.21 8.33
0 -3 -15 103.05 3.8
0 -3 15 111.97 6.2
0 -3 -16 133.46 4.56
0 -3 -16 129.79 4.32
0 -3 16 126.1 4.64
0 -3 -17 6.33 0.99
0 -3 17 4.88 0.98
0 -3 -17 4.75 0.89
0 -3 18 68.41 3.32
0 -3 -18 72 3.17
0 -3 -19 44.55 2.39
0 -3 19 42.53 2.52
0 -3 -20 1.01 0.39
0 -3 -21 1.47 0.41
0 -2 0 326.88 4.16
0 -2 0 328.57 6.83
0 -2 1 127.92 2.67
0 -2 1 126.75 4.39
0 -2 -1 125.87 4.09
0 -2 1 133.02 1.83
0 -2 2 472.8 5.34
0 -2 -2 465.22 8.03
0 -2 2 465.98 8.78
0 -2 3 971.53 13.19
0 -2 -3 980.97 11.93
0 -2 3 970.95 8.13
0 -2 -4 1015.52 13.01
0 -2 4 1016.14 8.83
0 -2 -4 1008.94 13.29
0 -2 5 339.62 8.76
0 -2 5 340.14 5.46
0 -2 -6 141.38 5.77
0 -2 6 140.37 6.01
0 -2 6 138.58 3.71
0 -2 -7 1118.23 17.3
0 -2 7 1125.75 11.23
0 -2 -8 721.93 14.93
0 -2 8 703.11 9.55
0 -2 9 53.4 2.81
0 -2 -9 52.9 4.36
0 -2 10 282.62 6.96
0 -2 -10 284.4 10.69
0 -2 -11 321.28 12.05
0 -2 11 337.04 8.03
0 -2 -12 20.99 3.26
0 -2 12 18.62 2.03
0 -2 -13 56.43 5.64
0 -2 13 56.19 3.69
0 -2 -14 110.26 8.18
0 -2 -14 111.04 3.71
0 -2 14 116 5.58
0 -2 -14 102.63 3.84
0 -2 14 104.26 3.97
0 -2 15 1.4 0.93
0 -2 -15 1.38 0.45
0 -2 -15 1.15 0.51
0 -2 15 1.08 0.48
0 -2 -16 111.17 4.17
0 -2 16 120.02 6.31
0 -2 -16 111.8 3.92
0 -2 16 115.2 4.34
0 -2 17 59.17 3.12
0 -2 -17 56.82 2.81
0 -2 -17 58.96 3.08
0 -2 18 54.06 2.95
0 -2 -18 55.16 2.95
0 -2 -18 54.7 2.74
0 -2 -19 12.62 1.3
0 -2 -19 11.41 1.29
0 -2 -20 21.24 1.57
0 -2 -20 21.44 1.67
0 -2 -21 0.76 0.37
0 -1 0 -0.02 0.07
0 -1 0 0.27 0.21
0 -1 -1 3114.43 14.36
0 -1 -1 3131.68 14.28
0 -1 2 2710.34 15.92
0 -1 -2 2955.75 15.66
0 -1 -3 1212.41 11.37
0 -1 3 1211.23 9.71
0 -1 3 1230.19 7.43
0 -1 4 1189.87 10.64
0 -1 -4 1173.56 12.53
0 -1 4 1156.98 12.79
0 -1 5 159.86 4.31
0 -1 5 165.83 3.29
0 -1 -5 157.66 5.07
0 -1 6 90.3 2.66
0 -1 -6 88.68 4.15
0 -1 6 89.75 3.52
0 -1 7 48.95 2.11
0 -1 7 44.68 2.7
0 -1 -7 45.27 3.22
0 -1 8 163.99 4.21
0 -1 -8 174.55 6.72
0 -1 8 171.17 5.71
0 -1 9 122.54 3.9
0 -1 -9 119.66 6.01
0 -1 9 120.67 5.13
0 -1 10 637.71 9.86
0 -1 10 688.23 13.1
0 -1 -10 673.91 15.28
0 -1 -11 34.97 3.74
0 -1 11 35.28 3.17
0 -1 11 34.28 2.38
0 -1 12 14.78 1.69
0 -1 12 18.07 2.41
0 -1 -12 18 2.87
0 -1 13 39.17 3.8
0 -1 -13 34.97 4.29
0 -1 13 31.56 2.58
0 -1 14 90.46 4.62
0 -1 14 89.63 5.98
0 -1 -14 90.46 7.26
0 -1 -15 117.39 4.14
0 -1 15 119.5 5.65
0 -1 15 112.61 4.11
0 -1 15 118.99 7.31
0 -1 -15 113.04 8.64
0 -1 -16 21.29 3.81
0 -1 -16 21.97 1.87
0 -1 16 23.49 2.62
0 -1 16 22.44 1.9
0 -1 -17 133.54 4.62
0 -1 -17 133.24 4.22
0 -1 17 133.73 4.7
0 -1 -18 76.03 3.5
0 -1 -18 74.89 3.15
0 -1 -19 37.48 2.39
0 -1 -19 35.39 2.11
0 -1 -20 32.94 2.14
0 -1 -20 33.33 1.95
0 -1 -21 1.91 0.54
0 -1 -22 3.39 0.61
0 -1 23 1.82 0.32
0 0 -1 49.03 1.12
0 0 -2 1598.28 9.07
0 0 2 1551.18 8.31
0 0 -3 900.21 8.42
0 0 3 899.49 7.78
0 0 -4 1708.74 13.53
0 0 4 1709.58 12.41
0 0 5 2018.49 15.2
0 0 -5 2023.03 16.63
0 0 5 2050.5 10.82
0 0 6 408.07 7.55
0 0 6 431.96 5.38
0 0 -6 418.95 8.46
0 0 -7 83.45 4.13
0 0 7 90.03 2.64
0 0 7 86.84 3.77
0 0 -8 161.21 6.2
0 0 8 154.4 5.41
0 0 8 167.44 3.91
0 0 9 1386.59 12.13
0 0 -9 1360.64 19.47
0 0 9 1380.8 17.29
0 0 10 730.13 9.42
0 0 10 708.5 13.27
0 0 -10 740.14 15.44
0 0 11 9.21 1.17
0 0 -11 6.43 1.56
0 0 11 6.42 1.35
0 0 -11 7.41 1.49
0 0 12 149.05 6.81
0 0 12 141.42 4.8
0 0 -12 131.89 6.55
0 0 -12 135.69 7.64
0 0 -13 0.07 0.37
0 0 -13 0.25 0.38
0 0 13 1.41 0.75
0 0 13 0.3 0.32
0 0 14 31.6 2.58
0 0 -14 26.41 3.89
0 0 14 28.52 3.3
0 0 -15 89.76 7.44
0 0 15 80.45 3.47
0 0 15 84.61 6.01
0 0 15 82.43 2.93
0 0 -15 90.84 3.63
0 0 -16 89.96 7.86
0 0 16 102.5 6.87
0 0 -16 95.92 3.83
0 0 16 90.04 3.1
0 0 -17 60.38 3.11
0 0 17 58.62 2.55
0 0 -18 55.94 3.01
0 0 -18 55.05 2.63
0 0 18 57.65 2.51
0 0 -19 40.92 2.54
0 0 -19 41.97 2.23
0 0 -20 18.85 1.64
0 0 -21 53.04 2.55
0 0 -22 0.02 0.22
0 0 -23 6.79 0.72
0 1 0 -0.21 0.14
0 1 1 3207.62 13.07
0 1 -1 2842.68 13
0 1 -2 2838.33 13.9
0 1 2 2846.21 15.05
0 1 -3 1205.35 9.97
0 1 3 1227.52 6.37
0 1 -3 1202.03 10.35
0 1 3 1207.03 10.79
0 1 -4 1169.47 11.49
0 1 4 1184.22 7.04
0 1 4 1192.16 11.76
0 1 5 159.92 4.67
0 1 -5 158.16 4.43
0 1 -5 154.71 4.66
0 1 5 161.79 2.86
0 1 6 90.3 3.8
0 1 -6 89.85 3.65
0 1 6 92.02 2.36
0 1 -6 90.53 3.95
0 1 -7 44.71 2.79
0 1 7 46.29 2.89
0 1 7 53.54 1.96
0 1 -7 47.62 3.12
0 1 8 172.37 6
0 1 -8 166.69 5.73
0 1 -8 179.92 6.58
0 1 8 171.36 3.75
0 1 9 125.93 3.43
0 1 -9 123.32 5.89
0 1 9 121.06 5.38
0 1 -9 114.57 5.11
0 1 10 700.22 13.78
0 1 10 672.71 8.54
0 1 -10 667.17 13.04
0 1 -10 682.55 14.91
0 1 11 35.7 3.29
0 1 11 31.12 1.95
0 1 -11 31.97 3.09
0 1 -11 36.25 3.68
0 1 -12 13.44 2.14
0 1 -12 15.94 2.63
0 1 12 15.19 1.49
0 1 12 16.27 2.34
0 1 -13 34.62 3.6
0 1 -13 33.25 4.01
0 1 13 36.13 3.64
0 1 14 84.3 5.79
0 1 -14 87.1 6.83
0 1 15 112.99 7.02
0 1 -15 108.35 3.99
0 1 -15 118.76 8.44
0 1 15 108.85 3.4
0 1 -16 19.79 3.6
0 1 -16 23.57 1.92
0 1 16 21.74 3.24
0 1 16 21.45 1.56
0 1 17 130.57 3.86
0 1 -17 140 4.74
0 1 -18 73.86 3.45
0 1 18 76.42 2.91
0 1 19 38.72 2.01
0 1 -19 36.95 2.38
0 1 -20 35.51 2.2
0 1 -21 2.17 0.56
0 1 -22 3.49 0.63
0 1 -23 1.16 0.34
0 1 -24 2.92 0.38
0 2 0 343.99 6.18
0 2 1 130.56 3.77
0 2 -1 131.59 3.81
0 2 2 476.53 7.28
0 2 -2 469.82 7.44
0 2 3 961.12 12.15
0 2 -3 963.6 11.08
0 2 4 991.24 12.97
0 2 -4 1003.6 11.74
0 2 4 1005.88 7.12
0 2 -5 332.43 7.15
0 2 5 330.8 4.18
0 2 5 327.79 7.76
0 2 -5 337.85 7.58
0 2 -6 138.77 4.92
0 2 -6 138.77 5.19
0 2 6 138.27 5.33
0 2 6 132.38 2.79
0 2 -7 1096.27 14.56
0 2 7 1089.94 15.75
0 2 7 1059.23 8.36
0 2 -7 1111.62 15.78
0 2 -8 707.19 13.54
0 2 8 692.14 13.11
0 2 -8 679.85 12.21
0 2 9 47.93 1.99
0 2 9 47.48 3.63
0 2 -9 49.37 3.86
0 2 -9 43.57 3.25
0 2 10 269.68 9
0 2 -10 272.17 8.59
0 2 -10 284.76 10
0 2 -11 322.21 9.95
0 2 -11 326.54 11.43
0 2 11 321.68 10.4
0 2 -12 16.63 2.4
0 2 -12 19.73 2.99
0 2 12 22.01 2.87
0 2 -13 54.48 5.18
0 2 -13 51.14 4.34
0 2 13 54.63 4.7
0 2 -14 103.62 3.84
0 2 14 96.77 3.2
0 2 -14 103.33 7.6
0 2 14 100.43 6.66
0 2 -15 1.29 0.47
0 2 15 0.81 0.67
0 2 15 1.4 0.47
0 2 -15 1.62 1.1
0 2 16 103.49 3.44
0 2 -16 111.08 4.2
0 2 16 114.89 7.53
0 2 17 59.94 2.62
0 2 -17 60.54 3.14
0 2 -18 55.13 2.96
0 2 18 56.02 2.49
0 2 19 10.41 1.06
0 2 -19 11.15 1.3
0 2 20 22.96 1.44
0 2 -20 22.34 1.71
0 2 -21 0.68 0.34
0 2 -22 12.14 1.08
0 2 -23 0.74 0.26
0 3 0 0.31 0.2
0 3 1 319.73 7.42
0 3 -1 302.25 7.22
0 3 2 39.6 2.63
0 3 -2 41.8 2.68
0 3 -3 319.89 7.56
0 3 3 298.52 7.41
0 3 3 310.75 8.32
0 3 -4 609.46 10.72
0 3 4 610.01 12.12
0 3 5 96.21 4.99
0 3 -5 96.29 4.44
0 3 5 96.7 2.5
0 3 6 402.73 10.41
0 3 -6 408.71 9.86
0 3 -6 403.77 9.41
0 3 -7 79.14 4.62
0 3 7 87.38 5.04
0 3 -7 77.88 4.31
0 3 -8 342.57 10.18
0 3 -8 339.74 9.43
0 3 8 344.45 10.39
0 3 9 693.93 15.37
0 3 -9 652.58 13.59
0 3 -9 702.44 15.37
0 3 -10 169.02 8
0 3 -10 172.36 7.35
0 3 10 167.03 7.76
0 3 -11 15.63 2.29
0 3 11 16.04 2.5
0 3 -11 15.53 2.58
0 3 -12 115.25 6.54
0 3 12 120.2 7.13
0 3 -12 121.22 7.61
0 3 -13 75.08 6.34
0 3 13 81.77 6.14
0 3 -13 81.89 3.36
0 3 -13 70.19 5.35
0 3 13 78.01 2.85
0 3 -14 33.16 2.22
0 3 -14 28.67 4.14
0 3 14 32.64 1.9
0 3 14 33.64 4.07
0 3 15 105.16 7.36
0 3 15 95.11 3.28
0 3 -15 95.87 7.78
0 3 -15 100.1 3.95
0 3 16 124.44 3.8
0 3 -16 128.73 4.53
0 3 -17 5.43 0.97
0 3 17 4.72 0.78
0 3 -18 73.52 3.34
0 3 18 68.54 2.74
0 3 19 43.83 2.09
0 3 -19 43.78 2.45
0 3 -20 1.41 0.49
0 3 20 1.45 0.38
0 3 -21 1.61 0.44
0 3 -22 2.63 0.48
0 3 -23 0.92 0.26
0 4 0 863.05 14.49
0 4 1 1061.09 15.98
0 4 -1 1119.99 16.24
0 4 2 498.8 11.05
0 4 -2 519.77 11.13
0 4 3 97.19 5.06
0 4 -3 101.25 4.98
0 4 -4 699.26 13.23
0 4 4 689.03 15.17
0 4 -5 190.76 7.04
0 4 5 179.43 7.95
0 4 -6 539.18 12.66
0 4 -6 547.75 12.25
0 4 6 529.69 13.82
0 4 -7 70.67 4.56
0 4 7 68.96 5.12
0 4 -7 72.77 4.84
0 4 8 388.6 12.46
0 4 -8 378.25 10.88
0 4 -8 375.22 11.58
0 4 -9 11.49 2.16
0 4 -9 11.93 2.03
0 4 9 12.29 2.36
0 4 -10 14.56 2.3
0 4 -10 13.29 2.39
0 4 10 12.09 2.32
0 4 -11 237.44 10.61
0 4 -11 221.72 9.35
0 4 11 249.8 10.83
0 4 12 4.77 0.73
0 4 12 5.57 1.6
0 4 -12 4.98 0.83
0 4 -12 5.63 1.74
0 4 -12 3.68 1.29
0 4 13 187.8 9.9
0 4 13 176.25 4.45
0 4 -13 171.62 9.98
0 4 -13 155.46 8.21
0 4 -13 169.24 4.97
0 4 14 23.6 3.62
0 4 -14 17.31 1.64
0 4 14 18.49 1.49
0 4 -14 17.99 3.3
0 4 15 56.75 2.58
0 4 -15 59.94 3.06
0 4 -16 60.39 3.08
0 4 16 59.55 2.63
0 4 -17 70.71 3.3
0 4 17 70.96 2.8
0 4 -18 33.11 2.17
0 4 18 33 1.83
0 4 19 10.61 0.99
0 4 -19 11.5 1.22
0 4 20 0.86 0.3
0 4 -20 0.64 0.33
0 4 -21 5.38 0.69
0 4 -22 2.29 0.39
0 5 0 14.07 2.13
0 5 -1 529.34 12.92
0 5 1 475.05 12.5
0 5 -2 112 6.06
0 5 2 109.15 6.11
0 5 -3 95.17 5.53
0 5 3 80.93 5.37
0 5 3 87.96 6.08
0 5 4 582.42 16.07
0 5 -4 624.57 14.33
0 5 5 202.56 9.62
0 5 -5 204.44 8.36
0 5 -6 141.2 7.02
0 5 6 140.4 8.13
0 5 -6 139.38 7.18
0 5 7 83.64 6.41
0 5 -7 83.23 5.73
0 5 -7 84.91 5.6
0 5 8 26.16 3.6
0 5 -8 24.37 3.08
0 5 -8 23.6 3.15
0 5 -9 11.19 2.12
0 5 9 11.25 2.51
0 5 -9 15.76 2.66
0 5 -10 115.39 3.93
0 5 10 108.76 3.4
0 5 -10 109.23 7.35
0 5 -10 108.87 6.74
0 5 10 115.01 7.93
0 5 11 57.78 5.73
0 5 -11 52.77 5.32
0 5 11 52.39 2.41
0 5 -11 51.35 2.7
0 5 -11 53.96 4.92
0 5 -12 138.31 4.51
0 5 12 144.02 9.1
0 5 -12 127.58 8.56
0 5 -12 135.01 7.91
0 5 12 135.72 3.93
0 5 13 70.66 2.88
0 5 -13 70.99 3.31
0 5 -13 69.31 2.91
0 5 -14 196.3 5.51
0 5 14 191.81 4.73
0 5 -15 13.61 1.44
0 5 15 13.26 1.24
0 5 16 23.76 1.61
0 5 -16 26.1 1.95
0 5 -17 43.14 2.41
0 5 17 42.29 2.06
0 5 -18 7.83 0.99
0 5 18 6.97 0.81
0 5 19 14.15 1.04
0 5 -19 14.94 1.23
0 5 -20 2.96 0.51
0 5 20 3.39 0.47
0 5 -21 4.15 0.51
0 6 0 253.52 10.24
0 6 1 8.64 1.94
0 6 -1 10.16 2.01
0 6 2 187.36 9.92
0 6 2 179.45 8.84
0 6 -2 178.94 8.47
0 6 3 116.58 8.04
0 6 -3 119.03 6.94
0 6 -4 21.76 3.08
0 6 4 21.04 3.48
0 6 -5 42.74 4.26
0 6 5 42.23 4.94
0 6 -6 102.37 3.61
0 6 6 98.92 7.63
0 6 -6 111.95 7.09
0 6 -6 107.71 6.8
0 6 6 98.98 3.16
0 6 -7 187.17 9.1
0 6 7 185.24 10.59
0 6 -7 180.58 4.53
0 6 -7 183.45 4.91
0 6 -7 191.89 9.48
0 6 7 178.21 4.31
0 6 8 1.33 1.09
0 6 -8 -0.04 0.15
0 6 -8 0.53 0.35
0 6 -8 0.14 0.46
0 6 8 0.83 0.43
0 6 9 86.09 7.38
0 6 9 84.74 3.07
0 6 -9 82.3 6.54
0 6 -9 90.57 3.58
0 6 -9 89.93 6.44
0 6 -9 80.96 3.08
0 6 -10 50.19 2.47
0 6 -10 56.98 2.89
0 6 10 55.55 2.52
0 6 -10 53.1 5.04
0 6 10 58.96 6.08
0 6 11 81.37 3.06
0 6 -11 87.53 3.63
0 6 -12 7.28 1.05
0 6 12 8.43 1.02
0 6 13 70.13 2.83
0 6 -13 78.35 3.04
0 6 -13 77.25 3.4
0 6 -14 33.96 2.21
0 6 14 31.55 1.86
0 6 15 28.66 1.73
0 6 -15 32.6 2.1
0 6 16 37 1.87
0 6 -16 40.4 2.26
0 6 -17 1.7 0.47
0 6 17 2.41 0.49
0 6 -18 4.1 0.63
0 6 18 3.59 0.52
0 6 19 0.14 0.18
0 6 -19 0.14 0.18
0 6 19 0.41 0.15
0 6 20 3.72 0.39
0 6 -20 3.66 0.45
0 7 0 0.23 0.82
0 7 1 60.21 6.27
0 7 -1 59.55 5.43
0 7 1 58.23 5.52
0 7 -2 66.88 5.77
0 7 2 61.29 6.31
0 7 3 88.21 7.67
0 7 3 97.65 3.3
0 7 -3 93.15 6.78
0 7 4 200.42 11.66
0 7 4 195.18 4.57
0 7 -4 187.27 9.56
0 7 -4 198.91 5.26
0 7 5 4.16 1.66
0 7 -5 1.92 0.58
0 7 -5 3.69 1.49
0 7 -5 1.11 0.84
0 7 5 2.1 0.53
0 7 6 221.52 12.34
0 7 6 224.47 5
0 7 -6 224.05 5.64
0 7 7 18.84 1.47
0 7 -7 19.6 1.57
0 7 -7 21.33 1.75
0 7 8 70.04 2.85
0 7 -8 67.52 3.14
0 7 -8 69.13 2.9
0 7 -9 20.09 1.55
0 7 -9 17.7 1.63
0 7 9 18.64 1.48
0 7 -10 55.09 2.83
0 7 10 51.96 2.44
0 7 11 56.22 2.5
0 7 -11 59.71 2.93
0 7 12 21.16 1.52
0 7 -12 21.94 1.74
0 7 13 6.57 0.84
0 7 -13 5.98 0.91
0 7 -13 6.67 0.84
0 7 14 36.33 1.84
0 7 -14 40.17 2.2
0 7 15 7.99 0.83
0 7 -15 7.7 0.94
0 7 16 13.55 1
0 7 -16 15.08 1.21
0 7 -17 8.68 0.84
0 7 17 7.74 0.7
0 7 18 3.92 0.44
0 7 -18 4.1 0.51
0 8 -2 178.91 5.11
0 8 -3 25.99 1.95
0 8 -4 220.43 5.62
0 8 -5 46.29 2.58
0 8 -6 52.22 2.53
0 8 6 50.47 2.35
0 8 -6 50.49 2.68
0 8 -7 28.28 1.82
0 8 -7 25.2 1.88
0 8 7 26.49 1.71
0 8 -8 158.52 4.19
0 8 -8 157.22 4.6
0 8 8 159.19 4.12
0 8 9 82.15 2.92
0 8 -9 84.15 3.32
0 8 10 5.49 0.78
0 8 -10 5.73 0.87
0 8 -11 4.85 0.78
0 8 11 3.33 0.6
0 8 -12 0.66 0.31
0 8 12 0.68 0.3
0 8 -12 -0.01 0.22
0 8 -13 4.39 0.69
0 8 13 4.71 0.63
0 8 14 3.55 0.51
0 8 -14 3.72 0.59
0 8 15 1.52 0.32
0 8 -15 1.01 0.32
0 8 -16 4.4 0.51
0 9 0 -0.19 0.31
0 9 -1 49.97 2.56
0 9 -2 2.52 0.61
0 9 -3 31.15 1.99
0 9 -4 14.08 1.34
0 9 -4 15.83 1.34
0 9 -5 2.5 0.55
0 9 -5 3.22 0.62
0 9 -6 38.16 1.91
0 9 -6 34.48 2
0 9 -7 45.22 2.24
0 9 -8 15.04 1.27
0 9 -9 2.16 0.48
0 9 -10 1.7 0.43
0 9 -11 8.96 0.86
0 9 -12 4.74 0.59
0 9 -13 1.11 0.29
0 9 14 1.34 0.22
0 10 0 9.89 0.95
0 10 -1 1.22 0.38
0 10 1 0.82 0.3
0 10 -1 0.54 0.26
0 10 -2 1.42 0.36
0 10 -2 1.23 0.35
0 10 2 1.61 0.41
0 10 -3 0.85 0.28
0 10 3 0.24 0.17
0 10 -3 0.59 0.26
0 10 -4 0.33 0.22
0 10 4 0.61 0.26
0 10 -5 0.94 0.33
0 10 -6 5.36 0.64
0 10 -7 4.46 0.56
0 10 -8 2.27 0.39
0 10 -9 2.47 0.37
1 -10 -9 6.75 0.64
1 -10 -8 2.33 0.43
-1 -10 8 1.56 0.3
1 -10 -7 1.61 0.39
1 -10 -6 1.39 0.38
1 -10 -5 11.28 1.05
1 -10 -4 3.06 0.58
1 -10 -3 5.29 0.76
1 -10 -2 7.76 0.92
1 -10 -1 3.24 0.6
1 -10 0 0.29 0.22
1 -10 1 10.48 1.05
1 -10 2 1.92 0.44
1 -10 3 5.35 0.74
1 -10 4 7.66 0.85
1 -10 5 14.79 1.14
1 -10 6 1.66 0.38
1 -10 7 17.12 1.09
1 -10 8 1.71 0.33
1 -10 9 21.97 1.01
1 -9 -13 0.98 0.27
-1 -9 12 1.57 0.31
1 -9 -12 1.51 0.38
1 -9 -11 1.19 0.38
-1 -9 11 1.52 0.34
1 -9 -10 0.15 0.28
-1 -9 10 0.07 0.18
1 -9 -9 4.58 0.76
1 -9 -8 10.31 1.17
1 -9 -7 0.83 0.43
1 -9 -6 2.57 0.64
1 -9 -5 8.66 1.18
1 -9 -4 9.51 1.25
-1 -9 3 11.4 1.05
1 -9 -3 9.82 1.26
1 -9 -2 23.17 1.96
-1 -9 2 24.4 1.53
-1 -9 1 32.87 1.76
1 -9 -1 34.45 2.37
1 -9 0 51.42 2.87
-1 -9 0 50.48 2.17
-1 -9 -1 18.99 1.32
1 -9 1 20.75 1.81
-1 -9 -2 23.2 1.41
1 -9 2 24.52 1.96
1 -9 3 3.54 0.73
-1 -9 -3 3.54 0.56
-1 -9 -4 13.64 1.02
1 -9 4 14.35 1.48
1 -9 5 5.09 0.86
1 -9 6 29.57 1.97
1 -9 7 2.59 0.57
-1 -9 -7 3.2 0.59
1 -9 8 29.56 1.83
-1 -9 -8 32.4 1.75
-1 -9 -9 17.88 1.24
1 -9 9 17.51 1.36
-1 -9 -10 62.9 2.2
1 -9 10 61.49 2.38
1 -9 11 8.13 0.81
-1 -9 -11 8.52 0.77
-1 -9 -12 6.63 0.62
1 -9 12 6.11 0.64
1 -9 13 2.69 0.37
1 -8 -16 8.74 0.75
1 -8 -15 1.59 0.41
-1 -8 15 1.39 0.26
1 -8 -14 0.22 0.25
-1 -8 14 0.43 0.19
1 -8 -13 5.28 0.84
-1 -8 13 4.3 0.62
1 -8 -12 15.46 1.46
-1 -8 12 13.15 1.14
-1 -8 11 0.9 0.39
1 -8 -11 0.52 0.33
1 -8 -10 2.75 0.76
1 -8 -9 2.75 0.75
1 -8 -8 2.88 0.78
-1 -8 8 2.52 0.61
-1 -8 7 23.76 1.8
1 -8 -7 24.68 2.17
-1 -8 6 0.59 0.32
1 -8 -6 0.62 0.4
-1 -8 6 1.14 0.42
-1 -8 5 231.68 5.76
-1 -8 5 225.83 5.04
1 -8 -5 236.01 6.78
-1 -8 4 40.23 2.15
-1 -8 4 39.65 2.43
1 -8 -4 40.88 2.83
-1 -8 3 30.1 1.86
-1 -8 3 31.01 2.16
1 -8 -3 31.06 2.46
1 -8 -2 23.44 2.18
-1 -8 2 24.66 1.7
-1 -8 2 23.06 1.88
1 -8 -1 120.29 4.81
-1 -8 1 117.4 4.26
-1 -8 1 118.54 3.66
-1 -8 0 37.8 2.04
1 -8 0 36.11 2.63
-1 -8 0 36.31 2.39
1 -8 1 24.5 2.15
-1 -8 -1 23.78 1.62
-1 -8 -1 20.78 1.83
1 -8 2 57.74 3.31
-1 -8 -2 63.22 2.93
-1 -8 -2 59.92 2.55
-1 -8 -2 57.76 3.06
-1 -8 -3 3.69 0.77
1 -8 3 3.07 0.8
-1 -8 -3 3.48 0.74
-1 -8 -3 3.29 0.63
-1 -8 -4 30.15 2.22
-1 -8 -4 32.15 1.8
-1 -8 -4 30.9 2.08
1 -8 4 32.52 2.44
-1 -8 -5 6.68 1
1 -8 5 6.89 1.13
-1 -8 -5 6.88 1.07
-1 -8 -5 6.33 0.8
-1 -8 -6 64.83 2.98
-1 -8 -6 59.55 3.11
-1 -8 -6 60.41 2.33
1 -8 6 63.03 3.28
1 -8 7 28.39 2.18
-1 -8 -7 27.47 2.07
-1 -8 -7 30.84 2.05
-1 -8 -8 40.88 2.33
1 -8 8 39.88 2.55
-1 -8 -8 38.73 2.42
-1 -8 -9 2.5 0.61
-1 -8 -9 1.8 0.56
1 -8 9 2.25 0.61
1 -8 10 5.48 0.92
-1 -8 -10 6.61 0.9
1 -8 11 16.08 1.43
-1 -8 -11 15.62 1.31
1 -8 12 14.58 1.28
-1 -8 -12 14.35 1.2
1 -8 13 11.56 1.07
-1 -8 -13 13 1.07
-1 -8 -14 9.43 0.85
1 -8 14 9.08 0.87
1 -8 15 1.35 0.32
-1 -8 -15 1.37 0.32
1 -7 -18 0.19 0.18
1 -7 -17 1.35 0.37
1 -7 -17 1.66 0.34
1 -7 -16 2.41 0.44
-1 -7 16 3.15 0.5
-1 -7 15 9.65 0.95
1 -7 -15 9.71 0.95
-1 -7 14 1.43 0.42
1 -7 -14 1.48 0.43
-1 -7 13 8.48 1.03
1 -7 -13 8.09 0.97
-1 -7 12 13.46 1.31
-1 -7 12 12.55 1.32
1 -7 -12 13.71 1.3
1 -7 -11 18.47 1.53
-1 -7 11 20.08 1.68
-1 -7 10 4.07 0.85
1 -7 -10 3.62 0.7
-1 -7 9 14.45 1.48
-1 -7 8 157.4 4.25
-1 -7 8 158.42 4.96
1 -7 -7 132.21 5.13
-1 -7 7 132.84 4.58
-1 -7 7 133.65 3.93
-1 -7 6 222.42 5.05
1 -7 -6 212.48 6.54
-1 -7 6 228.73 5.97
-1 -7 5 68.81 2.83
1 -7 -5 68.99 3.68
-1 -7 5 67.93 3.29
1 -7 -4 60.55 3.46
-1 -7 4 58.42 3.05
-1 -7 4 56.94 2.58
1 -7 -3 131.64 10.1
-1 -7 3 120.85 4.39
1 -7 -3 125.47 4.95
-1 -7 3 127.23 3.83
1 -7 -2 179 11.64
-1 -7 2 179.19 4.56
-1 -7 2 172 5.26
1 -7 -2 174.04 5.78
-1 -7 1 8.36 1
1 -7 -1 6.8 1.2
-1 -7 1 6.84 1.09
1 -7 -1 4.79 1.88
-1 -7 0 197.26 5.17
-1 -7 0 193.53 5.58
1 -7 0 206.69 12.48
-1 -7 0 190.82 4.71
1 -7 0 193.06 6.02
-1 -7 -1 34.69 2.39
-1 -7 -1 36.53 2.07
1 -7 1 34.12 2.51
-1 -7 -1 35.03 2.2
1 -7 1 39.03 5.48
-1 -7 -2 32.84 1.98
-1 -7 -2 32.79 2.14
-1 -7 -2 28.72 2.21
1 -7 2 31.05 4.82
1 -7 2 33.54 2.52
-1 -7 -3 70.88 2.85
-1 -7 -3 68.35 3.39
-1 -7 -3 68.03 3.1
1 -7 3 66.92 3.55
1 -7 3 67.04 7.09
1 -7 4 126.81 4.87
-1 -7 -4 125.36 4.23
-1 -7 -4 120.09 4.53
-1 -7 -4 124.65 3.76
-1 -7 -5 143.49 4.97
-1 -7 -5 153.8 4.15
1 -7 5 154.88 5.32
-1 -7 -5 150.74 4.68
1 -7 6 39.69 2.71
-1 -7 -6 37.56 2.56
-1 -7 -6 38.93 2.07
-1 -7 -6 37.77 2.36
1 -7 7 50.55 3.05
-1 -7 -7 47.21 2.86
-1 -7 -7 49.53 2.72
1 -7 8 26.87 2.23
-1 -7 -8 28.07 2.06
1 -7 9 76.55 3.67
-1 -7 -9 80.26 3.44
1 -7 10 23.06 2.01
-1 -7 -10 21.2 1.76
1 -7 11 6.53 1.04
-1 -7 -11 6.44 0.98
1 -7 12 4.39 0.86
-1 -7 -12 4.81 0.84
-1 -7 -13 17.8 1.49
1 -7 13 16.91 1.57
-1 -7 -14 11.43 1.13
1 -7 14 10.21 1.14
1 -7 15 12.13 1.14
-1 -7 -15 12.09 1.08
-1 -7 -16 8.65 0.84
1 -7 16 8.83 0.91
1 -7 17 11.01 0.89
-1 -7 -17 11.29 0.84
1 -6 -19 6.2 0.65
1 -6 -18 16.98 1.19
1 -6 -17 3.14 0.58
1 -6 -16 0.34 0.37
-1 -6 16 0.65 0.33
-1 -6 15 57.59 2.64
1 -6 -15 52.29 2.58
-1 -6 15 56.66 2.66
-1 -6 14 9.54 1.16
-1 -6 14 11.27 1.25
1 -6 -14 10.57 1.22
-1 -6 13 7.65 1.12
1 -6 -13 7.29 1.04
-1 -6 13 6.93 1.04
1 -6 -12 249.82 5.91
-1 -6 12 253.05 6.14
-1 -6 12 258.78 6.29
1 -6 -11 16.88 1.54
-1 -6 11 15.45 1.58
-1 -6 10 245.33 6.19
1 -6 -10 230.37 5.6
-1 -6 9 29.68 2.19
-1 -6 9 33.21 1.91
1 -6 -9 29.89 1.98
-1 -6 8 198.29 4.66
1 -6 -8 199.18 12.25
-1 -6 8 181.93 5.44
-1 -6 7 12.24 1.39
1 -6 -7 11.07 2.97
-1 -6 7 12.63 1.18
1 -6 -6 38.98 5.32
-1 -6 6 40.32 2.46
-1 -6 6 38.8 2.04
-1 -6 5 137.41 3.82
-1 -6 5 146.18 9.17
1 -6 -5 135.65 9.67
-1 -6 4 84.17 6.78
-1 -6 4 77.27 2.86
-1 -6 3 133.09 8.34
1 -6 -3 115.14 8.71
-1 -6 2 169.7 9.23
1 -6 -2 159.66 10.15
1 -6 -1 35.78 4.76
-1 -6 1 29.52 3.8
-1 -6 0 80.92 6.18
1 -6 0 82.44 7.19
1 -6 1 125.39 8.88
1 -6 2 50.16 5.66
1 -6 3 37.35 4.85
1 -6 4 130.2 4.67
-1 -6 -4 129.42 3.84
-1 -6 -4 128.58 4.14
1 -6 4 130 9.18
1 -6 5 80.69 7.41
-1 -6 -5 78.2 3.04
-1 -6 -5 77.85 3.27
1 -6 5 84.27 3.78
1 -6 6 188.18 11.41
1 -6 6 182.47 5.62
-1 -6 -6 179.01 4.53
-1 -6 -6 177.49 4.98
-1 -6 -7 43.25 3.92
-1 -6 -7 41.65 2.46
1 -6 7 38.39 5.14
1 -6 7 42.45 2.73
1 -6 8 29.34 3.05
-1 -6 -8 28.24 3.38
-1 -6 -8 26.18 1.96
1 -6 8 27.52 4.38
1 -6 8 25.47 2.17
-1 -6 -9 104.38 3.96
1 -6 9 107.15 4.43
-1 -6 -10 61.94 3.06
1 -6 10 63.41 3.4
1 -6 11 0.11 0.29
-1 -6 -11 0.75 0.43
1 -6 12 6.51 1.11
-1 -6 -12 8 1.12
1 -6 13 24.3 2.01
-1 -6 -13 26.29 1.95
1 -6 14 2.61 0.68
-1 -6 -14 2.07 0.59
1 -6 15 0.22 0.28
-1 -6 -15 0.14 0.27
1 -6 16 21.89 1.65
-1 -6 -16 21.31 1.53
1 -6 17 12.92 1.16
-1 -6 -17 13.81 1.13
1 -6 18 4.32 0.64
-1 -6 -18 4.81 0.6
1 -6 19 4.76 0.57
1 -5 -21 3.6 0.44
1 -5 -20 3.64 0.54
-1 -5 19 7.32 0.67
1 -5 -19 6.56 0.81
1 -5 -18 2.7 0.6
-1 -5 17 0.16 0.25
-1 -5 17 0.51 0.28
1 -5 -17 0.47 0.33
-1 -5 16 3.75 0.74
-1 -5 16 4.01 0.77
1 -5 -16 3.25 0.72
-1 -5 15 30.77 2.15
-1 -5 15 30.86 2.12
1 -5 -15 31.79 2.14
1 -5 -14 139.47 4.53
-1 -5 14 131.99 4.46
-1 -5 14 143.07 4.69
-1 -5 13 74.37 3.37
-1 -5 13 69.69 3.28
1 -5 -13 73.84 3.29
1 -5 -12 57.88 2.91
-1 -5 12 59.02 3.06
-1 -5 12 61.2 3.06
-1 -5 11 81.57 3.58
1 -5 -11 86.43 3.45
1 -5 -11 88.48 8.01
1 -5 -10 217.95 12.2
1 -5 -10 211.05 5.27
-1 -5 10 208.48 5.67
1 -5 -9 54.26 2.62
-1 -5 9 57.78 2.38
1 -5 -9 61.36 6.3
1 -5 -8 125.6 8.81
1 -5 -7 12.9 2.83
1 -5 -6 22.36 3.53
1 -5 -5 313.39 13.06
-1 -5 5 318.57 12.35
-1 -5 4 111.33 7.09
1 -5 -4 117.57 7.85
-1 -5 3 75.93 5.67
1 -5 -3 73.07 6.16
-1 -5 2 142.59 7.58
1 -5 -2 141.84 8.45
-1 -5 1 226.68 9.29
1 -5 -1 219.61 10.46
-1 -5 0 210.16 8.82
1 -5 0 202.12 10.02
1 -5 1 25.82 3.57
-1 -5 -1 24.76 3.07
-1 -5 -2 295.13 8.29
-1 -5 -2 277.44 10.02
1 -5 2 304.02 12.39
-1 -5 -3 80.04 4.5
1 -5 3 81.81 6.56
-1 -5 -3 75.31 5.24
-1 -5 -4 167.4 6.76
1 -5 4 172.43 5.52
1 -5 4 171.2 9.56
1 -5 5 164.89 5.66
-1 -5 -5 163.82 6.87
1 -5 5 175.03 9.78
1 -5 6 23.02 3.69
-1 -5 -6 23.85 2.74
1 -5 6 19.99 2.06
-1 -5 -7 118.93 6.28
1 -5 7 126.06 8.73
1 -5 7 116.28 5.18
1 -5 8 119.5 5.47
-1 -5 -8 118.95 6.44
1 -5 8 118.4 4.35
1 -5 8 130.05 8.98
-1 -5 -8 113.53 3.88
-1 -5 -9 7.14 1.01
-1 -5 -9 5.42 1.45
1 -5 9 4.78 0.9
1 -5 9 5.49 1.26
1 -5 10 22.34 2.59
-1 -5 -10 25.82 3.28
-1 -5 -10 22.28 1.79
1 -5 10 22.43 1.99
1 -5 11 97.62 5.6
-1 -5 -11 86.11 6.12
1 -5 11 89.41 4
-1 -5 -11 84.56 3.49
-1 -5 -12 35.4 2.29
1 -5 12 36.56 2.56
-1 -5 -13 8.23 1.14
1 -5 13 10.75 1.4
-1 -5 -14 43.31 2.49
1 -5 14 40.23 2.62
1 -5 15 32.64 2.29
-1 -5 -15 34.1 2.17
-1 -5 -16 19.08 1.56
1 -5 16 20.54 1.76
1 -5 17 7.26 1.03
-1 -5 -17 6.75 0.92
1 -5 18 20.35 1.52
-1 -5 -18 17.95 1.31
1 -5 19 6.73 0.82
1 -4 -22 1.95 0.33
-1 -4 22 2.32 0.31
1 -4 -21 8.2 0.8
-1 -4 21 9.33 0.72
-1 -4 20 4.24 0.56
1 -4 -20 2.71 0.55
1 -4 -19 0.78 0.37
-1 -4 18 6.07 0.88
1 -4 -18 5.43 0.89
-1 -4 17 8.68 1.15
1 -4 -17 9.14 1.17
-1 -4 16 3.89 0.78
1 -4 -16 4.9 0.86
-1 -4 16 4.03 0.8
-1 -4 15 109.11 4.07
-1 -4 15 106.34 4.02
1 -4 -15 111.5 4.08
-1 -4 14 88.89 3.68
1 -4 -14 85.75 3.56
-1 -4 14 80.71 3.52
1 -4 -13 109.44 8.28
-1 -4 13 118 4.19
1 -4 -13 120.22 4.15
-1 -4 13 119.94 4.26
1 -4 -13 115.33 8.97
1 -4 -12 77.9 6.72
-1 -4 12 88.65 3.6
1 -4 -12 85.46 7.52
-1 -4 12 87.45 3.56
1 -4 -12 88.51 3.49
1 -4 -11 64.27 5.9
1 -4 -11 71.1 6.68
1 -4 -11 69.71 2.98
1 -4 -10 11.36 2.47
1 -4 -10 17.6 3.12
1 -4 -9 42.96 4.81
1 -4 -9 36.18 4.06
1 -4 -8 27.91 3.35
1 -4 -8 31.85 3.99
1 -4 -7 54.09 5.02
1 -4 -6 270.73 10.91
-1 -4 5 195.31 8.7
1 -4 -5 194.18 9.01
1 -4 -4 25.71 3.25
-1 -4 4 23.89 2.91
-1 -4 3 101.32 5.75
1 -4 -3 105.63 6.35
-1 -4 2 543.33 8.99
-1 -4 2 554.08 13
1 -4 -2 548.53 14.41
1 -4 -1 143.24 7.34
-1 -4 1 143.83 6.37
-1 -4 1 130.99 4.69
-1 -4 0 104.64 4.33
-1 -4 0 106.43 5.4
1 -4 0 108.01 6.34
1 -4 1 115.84 3.3
-1 -4 -1 115.51 4.7
1 -4 1 118.85 6.71
-1 -4 -1 115.42 5.56
1 -4 2 389.46 6.45
-1 -4 -2 388.11 8.87
1 -4 2 411.79 12.63
-1 -4 -2 402.72 10.25
1 -4 3 575.14 8.31
-1 -4 -3 582.98 11.18
-1 -4 -3 581.05 12.39
1 -4 3 599.59 15.54
1 -4 4 22.74 1.76
-1 -4 -4 24.31 2.34
1 -4 4 25.19 3.26
-1 -4 -4 24.38 2.59
1 -4 5 96.63 3.82
-1 -4 -5 103.92 5.05
1 -4 5 103.83 6.7
-1 -4 -5 92.98 5.13
1 -4 6 563 16.22
-1 -4 -6 571.16 12.32
1 -4 7 174.77 5.72
-1 -4 -7 191.26 7.42
1 -4 7 205 9.93
-1 -4 -8 203.7 8.02
1 -4 8 209.57 10.35
1 -4 9 5.76 1.18
-1 -4 -9 9.69 1.88
1 -4 10 54.2 3.7
-1 -4 -10 60.3 4.75
1 -4 11 37.31 3.21
-1 -4 -11 42.59 4.15
1 -4 11 37.23 2.44
-1 -4 -11 37.1 2.21
1 -4 12 74.63 4.73
-1 -4 -12 80.55 5.88
1 -4 12 75.95 3.57
-1 -4 -12 78.43 3.27
-1 -4 -13 66.37 3.05
1 -4 13 59.76 3.21
1 -4 14 62.38 3.28
-1 -4 -14 62.44 2.96
-1 -4 -15 125.11 4.17
1 -4 15 122.28 4.55
1 -4 16 33.11 2.32
-1 -4 -16 33.07 2.12
-1 -4 -17 16.77 1.45
1 -4 17 18.04 1.65
1 -4 18 26.79 1.93
-1 -4 -18 25.36 1.68
1 -4 19 0.58 0.34
-1 -3 23 4.78 0.4
1 -3 -23 4.25 0.44
1 -3 -22 0.58 0.24
-1 -3 22 0.54 0.21
-1 -3 21 -0.2 0.22
1 -3 -21 0.22 0.18
1 -3 -20 7.05 0.89
1 -3 -19 11.99 1.24
-1 -3 18 9.67 1.18
1 -3 -18 9.65 1.19
-1 -3 17 18.19 1.66
1 -3 -17 17.38 1.61
-1 -3 16 117.02 4.23
-1 -3 16 123.32 4.29
1 -3 -16 126.05 4.31
-1 -3 15 52.82 2.82
-1 -3 15 52.01 2.79
1 -3 -15 55.6 2.85
1 -3 -14 138.32 9.35
-1 -3 14 144.93 4.61
1 -3 -14 143.96 9.94
-1 -3 14 141.61 4.55
-1 -3 13 26.33 1.95
-1 -3 13 26.48 1.96
1 -3 -13 24.8 4.05
1 -3 -13 28.28 4.08
1 -3 -12 55.88 5.5
-1 -3 12 71.21 4.73
1 -3 -12 56.69 5.8
-1 -3 11 194.97 7.51
1 -3 -11 173.1 9.22
1 -3 -11 185.98 10
1 -3 -10 289.39 11.96
1 -3 -10 283.69 11.18
-1 -3 10 314.05 9.15
-1 -3 9 194.63 6.93
1 -3 -9 190.73 9.27
1 -3 -9 182.19 8.43
-1 -3 8 0 0.6
1 -3 -8 0.42 0.43
1 -3 -8 1 0.63
1 -3 -7 7.38 1.75
1 -3 -7 8.5 1.61
1 -3 -6 1167.64 20.07
1 -3 -6 1116.19 17.35
1 -3 -5 13.28 1.79
-1 -3 5 12.17 1.18
1 -3 -5 11.59 1.95
1 -3 -4 424.09 9.15
-1 -3 4 434.04 10.86
1 -3 -4 424.68 11.26
-1 -3 4 414.19 7.17
-1 -3 3 524 8.22
-1 -3 3 547.08 11.38
1 -3 -3 533.16 12.28
-1 -3 2 272.67 7.65
1 -3 -2 265.29 8.51
-1 -3 2 265.29 6
-1 -3 1 299.91 6.63
1 -3 -1 288 3.49
-1 -3 1 291.62 7.58
1 -3 -1 301.27 9.01
-1 -3 0 66.22 3.22
1 -3 0 62.2 1.88
1 -3 0 65.76 4.24
-1 -3 0 62.67 3.42
1 -3 1 430.05 10.96
-1 -3 -1 442.25 8.89
-1 -3 -1 445.34 8.53
1 -3 1 422.97 5.41
1 -3 2 237.59 4.45
-1 -3 -2 229.19 6.26
1 -3 2 239.04 8.3
-1 -3 -2 244.57 6.53
-1 -3 -3 538.65 9.91
1 -3 3 531.29 7.2
-1 -3 -4 240.54 6.87
1 -3 4 243.51 8.77
1 -3 4 237.74 5.16
-1 -3 -4 235.28 6.59
-1 -3 -5 375.31 8.9
1 -3 5 324.27 6.42
1 -3 5 366.28 11.05
-1 -3 -5 341.58 8.19
1 -3 6 305.66 6.59
-1 -3 -6 342.69 8.83
-1 -3 -6 309.8 8.11
1 -3 6 340.87 11.14
-1 -3 -7 3.23 0.87
-1 -3 -7 3.89 1.05
1 -3 7 2.89 1.22
1 -3 7 2.49 0.69
1 -3 8 25.68 2.13
-1 -3 -8 29.81 2.89
1 -3 8 29.47 3.49
-1 -3 -9 484.56 12.24
1 -3 9 423.89 9.04
-1 -3 -10 107.48 7.19
1 -3 10 100.34 4.68
-1 -3 -10 112.36 6.19
-1 -3 -11 1.77 0.86
-1 -3 -11 3.73 1.21
1 -3 11 3.63 0.96
1 -3 12 101.2 5.2
-1 -3 -12 96.4 7.43
1 -3 12 107.43 4.02
-1 -3 -12 105.16 3.8
-1 -3 -12 109.72 3.99
-1 -3 -12 106.7 6.58
1 -3 13 39.4 2.5
-1 -3 -13 36.47 4.75
1 -3 13 42.85 3.51
-1 -3 -13 37.62 4.07
-1 -3 -13 38.53 2.21
-1 -3 -13 40.11 2.47
-1 -3 -13 40.77 2.43
1 -3 14 36.85 3.37
-1 -3 -14 42.22 4.45
1 -3 14 37.42 2.52
-1 -3 -14 40.97 2.56
-1 -3 -14 40.62 2.46
-1 -3 -14 42.23 2.36
1 -3 15 39.01 2.56
-1 -3 -15 40.1 2.59
-1 -3 -15 38.55 2.42
-1 -3 -15 35.26 2.17
-1 -3 -16 20.08 1.64
1 -3 16 20.32 1.84
-1 -3 -16 18.76 1.68
1 -3 17 9.89 1.29
-1 -3 -17 8.7 1.08
1 -3 18 84.17 3.49
-1 -3 -18 83.3 3.11
1 -3 19 6.17 0.91
-1 -2 23 6.29 0.52
1 -2 -23 4.9 0.52
-1 -2 22 1.92 0.36
1 -2 -22 2.11 0.42
-1 -2 21 4.85 0.64
1 -2 -21 4.79 0.72
1 -2 -20 0.41 0.29
1 -2 -19 10.5 1.2
1 -2 -18 5.68 0.85
1 -2 -18 5.76 0.94
-1 -2 17 48.35 2.68
1 -2 -17 45.55 2.46
-1 -2 16 297.13 6.64
-1 -2 15 45.14 2.58
-1 -2 15 45.72 2.58
1 -2 -15 40.73 5.28
1 -2 -14 298.84 13.71
-1 -2 14 318.32 6.6
-1 -2 14 299.26 6.45
1 -2 -13 36.29 4.56
-1 -2 13 39.22 3.47
1 -2 -12 3.2 1.54
-1 -2 12 3.84 1.04
1 -2 -11 172.99 8.91
-1 -2 11 189.56 6.93
-1 -2 11 188.91 8.42
1 -2 -10 86.97 5.95
-1 -2 10 91.58 5.55
-1 -2 10 91.99 4.6
-1 -2 9 38.16 2.84
1 -2 -9 38.46 3.71
-1 -2 9 43.11 3.61
1 -2 -8 772.18 15.48
-1 -2 8 760.02 12.03
1 -2 -7 697.57 13.63
-1 -2 7 607.18 10.35
1 -2 -6 23.3 2.31
-1 -2 5 83.61 3.08
1 -2 -5 82.3 4.57
1 -2 -5 76.79 3.85
-1 -2 4 983.29 10.72
1 -2 -4 939.68 12.35
1 -2 -4 966.24 14.87
1 -2 -3 96.89 3.53
-1 -2 3 102.03 3.49
1 -2 -3 105.38 4.71
1 -2 -2 37.66 1.91
-1 -2 2 40.56 2.25
1 -2 -2 36.09 0.95
-1 -2 2 41.27 2.41
1 -2 -2 41.66 2.86
1 -2 -1 1343.48 15.9
-1 -2 1 1350.48 12.55
-1 -2 1 1310.15 13.06
-1 -2 0 142.03 4.39
1 -2 0 151.47 5.34
-1 -2 0 146.78 3.83
1 -2 0 158.34 2.97
-1 -2 -1 1344.12 13.77
1 -2 1 1379.36 16.42
1 -2 1 1361.2 9.87
-1 -2 -1 1343.85 11.29
1 -2 2 397.78 5.75
-1 -2 -2 390.89 7.58
-1 -2 -2 396.06 6.07
1 -2 3 39.33 1.91
-1 -2 -3 37.19 2.41
1 -2 3 34.71 2.74
-1 -2 -3 35.47 1.88
1 -2 4 76.68 2.84
-1 -2 -4 73.97 3.52
-1 -2 -4 71.36 2.84
1 -2 5 11.39 1.68
-1 -2 -5 10.14 1.19
-1 -2 -5 8.31 1.25
1 -2 5 10.26 1.11
-1 -2 -6 69 4.34
-1 -2 -6 68.97 3.7
-1 -2 -6 70.19 3.25
1 -2 6 75.73 4.55
1 -2 6 67.5 2.99
-1 -2 -7 9.67 1.71
-1 -2 -7 10.29 1.53
-1 -2 -7 7.74 1.19
1 -2 7 6.62 1.02
-1 -2 -8 97.91 5.8
1 -2 8 101.69 4.04
-1 -2 -8 94.33 4.82
-1 -2 -8 111.33 4.94
-1 -2 -9 104.79 6.28
1 -2 9 110.44 4.45
-1 -2 -10 100.41 6.45
1 -2 10 102.52 4.46
-1 -2 -11 250.57 10.71
-1 -2 -11 239.65 8.91
1 -2 11 268.1 7.61
1 -2 12 76.09 4.21
-1 -2 -12 70.71 5.94
-1 -2 -12 81.05 5.4
1 -2 13 5.88 1.29
-1 -2 -13 8.28 1.8
-1 -2 -13 8.3 2.15
-1 -2 -13 5.77 0.92
-1 -2 -13 5.49 0.91
1 -2 13 6.67 1
1 -2 14 55.4 4.01
-1 -2 -14 60.26 5.11
-1 -2 -14 55.35 5.86
-1 -2 -14 57.65 2.99
-1 -2 -14 55.57 2.59
-1 -2 -14 59.46 2.9
1 -2 14 58.27 2.97
-1 -2 -15 11.08 1.35
1 -2 15 10.31 1.29
-1 -2 -15 10.25 1.25
-1 -2 -15 11.89 2.78
-1 -2 -15 13.4 2.53
-1 -2 -15 10.73 1.19
1 -2 16 3.09 0.76
-1 -2 -16 3.12 0.77
-1 -2 -16 3.22 0.75
-1 -2 -16 3.14 0.71
-1 -2 -17 6.3 0.9
1 -2 17 8.47 1.19
-1 -2 -17 6.71 1.1
-1 -2 -17 5.89 0.95
1 -2 18 54.2 2.83
-1 -2 -18 55.54 2.94
-1 -2 -18 52.59 2.66
-1 -2 -19 39.58 2.21
1 -2 19 40.95 2.03
-1 -2 -19 42.3 2.47
-1 -1 23 1.52 0.3
-1 -1 22 4.15 0.53
1 -1 -22 3.85 0.59
1 -1 -21 2.38 0.53
-1 -1 21 2.52 0.48
1 -1 -20 3.8 0.68
1 -1 -20 5.42 0.84
1 -1 -19 44.19 2.36
1 -1 -18 50.48 2.6
1 -1 -17 28.22 1.99
1 -1 -16 68.88 3.1
1 -1 -15 70.02 6.75
-1 -1 15 72.66 6.07
-1 -1 15 71.21 3.14
1 -1 -15 65.68 2.92
1 -1 -15 56.75 5.77
1 -1 -14 132.48 8.63
1 -1 -14 144.18 9.27
-1 -1 14 152.27 8.4
-1 -1 14 140.35 4.26
-1 -1 13 57.92 3.89
-1 -1 13 67.28 5.33
1 -1 -13 54.01 5.4
-1 -1 12 264.22 10.02
1 -1 -12 265.11 11.27
-1 -1 11 117.5 6.27
1 -1 -11 125.78 7.26
-1 -1 10 154.47 6.79
1 -1 -10 146.59 7.33
-1 -1 9 63.31 4.1
1 -1 -9 64.49 4.56
-1 -1 8 1613.68 19.45
1 -1 -8 1575.01 20.8
-1 -1 7 316.27 6.72
1 -1 -7 312.4 8.51
-1 -1 7 327.44 8.13
1 -1 -6 522.05 10.16
-1 -1 6 521.15 8.14
-1 -1 5 69.88 3.31
-1 -1 5 70.18 2.86
1 -1 -5 68.38 3.38
-1 -1 4 1021.98 10.76
-1 -1 4 1037.1 11.72
-1 -1 3 725.99 8.91
1 -1 -3 728.96 8.55
-1 -1 3 712.99 8.93
-1 -1 2 1163.81 10.3
1 -1 -2 1137.83 8.84
-1 -1 2 1078.53 11.16
1 -1 -2 1098.84 12.12
1 -1 -1 685.49 5.12
1 -1 -1 712.3 9.09
-1 -1 1 701.45 8.96
1 -1 -1 706.63 6.75
1 -1 0 1663.72 10.78
1 -1 0 1680.83 13.69
1 -1 1 5239.34 20.4
-1 -1 -1 5195.93 24.92
-1 -1 -3 2860.34 19.32
1 -1 3 2910.58 19.55
1 -1 4 555.65 7.74
-1 -1 -4 536.52 9.47
-1 -1 -4 533.27 8.7
1 -1 4 557.99 9.03
-1 -1 -5 848.77 12.62
-1 -1 -5 826.42 11.43
1 -1 5 847.82 10.16
1 -1 6 643.34 9.18
-1 -1 -6 650.12 10.57
-1 -1 -6 621.81 11.48
1 -1 7 1.97 0.58
-1 -1 -7 2.9 0.89
-1 -1 -7 3.05 0.8
-1 -1 -8 15.14 2.07
1 -1 8 15.14 1.57
-1 -1 -8 15.98 1.87
-1 -1 -9 104.93 5.06
1 -1 9 99.11 4.12
-1 -1 -9 90.41 5.37
-1 -1 -10 242.66 9.31
1 -1 10 246.42 6.78
-1 -1 -11 29.74 2.96
-1 -1 -11 30.44 3.58
1 -1 11 32.17 2.62
-1 -1 -12 121.84 7.43
1 -1 12 129 5.39
-1 -1 -13 142.51 8.52
1 -1 13 156.33 6.16
1 -1 14 18.6 2.22
-1 -1 -14 19.4 2.78
1 -1 14 20.67 1.73
-1 -1 -14 21.1 1.7
-1 -1 -14 17.09 3.12
-1 -1 -14 19.09 1.7
-1 -1 -15 9.44 1.19
1 -1 15 6.47 1.43
-1 -1 -15 6.42 1.96
-1 -1 -15 9.08 1.94
-1 -1 -15 9.55 1.24
1 -1 15 8.62 1.17
-1 -1 -16 3 0.7
1 -1 16 2.65 0.72
-1 -1 -16 2.2 0.67
1 -1 17 21.51 1.88
-1 -1 -17 22.83 1.82
-1 -1 -17 22.3 1.92
1 -1 18 54.45 2.56
-1 -1 -18 51.52 2.89
-1 -1 -18 54.57 2.73
-1 -1 -19 11.35 1.23
-1 -1 -19 12.99 1.39
1 -1 19 12.74 1.2
-1 -1 -20 24.61 1.78
-1 -1 -20 23.12 1.6
1 -1 20 23.46 1.51
-1 -1 -21 0.74 0.35
-1 0 23 1.72 0.26
-1 0 22 24.7 1.17
1 0 -22 21.46 1.3
1 0 -21 0.63 0.32
-1 0 21 0.13 0.21
1 0 -21 0.36 0.23
-1 0 20 2.74 0.52
1 0 -20 2.67 0.61
1 0 -19 2.83 0.66
1 0 -18 122.27 4.13
1 0 -17 34.59 2.22
-1 0 16 -1.75 1.05
1 0 -16 -1.18 1.04
1 0 -16 0.58 0.36
-1 0 15 80.32 6.24
1 0 -15 77.15 7
1 0 -15 77.12 6.76
1 0 -15 77.96 3.18
-1 0 14 179.06 8.96
1 0 -14 176.21 10.01
1 0 -14 170.88 9.67
-1 0 13 54.4 4.74
1 0 -13 58.45 5.5
1 0 -13 55.09 5.26
1 0 -12 150.05 8.49
-1 0 12 152.24 7.51
1 0 -12 142.86 8.19
-1 0 11 1.86 0.6
-1 0 11 1.53 0.78
1 0 -11 1.29 0.79
-1 0 10 9.52 1.21
-1 0 10 7.89 1.56
1 0 -10 6.99 1.63
-1 0 9 272.15 6.22
1 0 -9 254.5 8.91
-1 0 9 258.06 8.23
-1 0 8 91.52 4.62
-1 0 8 103.63 3.58
1 0 -8 96.21 5.12
-1 0 7 1539.1 17.68
1 0 -7 1581 19.08
-1 0 6 50.74 3.06
1 0 -6 54.46 3.27
-1 0 5 96.98 3.88
1 0 -5 96.26 3.98
-1 0 4 1129.73 12.1
-1 0 4 1160.18 11.35
-1 0 3 58.74 2.48
-1 0 3 57.61 2.48
1 0 -3 56.6 2.43
-1 0 2 0.41 0.25
-1 0 2 0.29 0.22
-1 0 1 2045.62 10.56
-1 0 1 1956.98 14.33
-1 0 0 35.64 1.01
1 0 0 34.81 1.27
-1 0 0 34.52 1.91
-1 0 -1 174 4.31
1 0 1 41.25 1.15
-1 0 -2 3085.8 18.41
1 0 2 3119.64 18.03
-1 0 -3 9999 30.5
-1 0 -4 2628.9 17.94
1 0 4 2630.32 17.64
-1 0 -5 163.8 4.94
1 0 5 164.86 3.21
-1 0 -5 168.37 4.74
1 0 5 170.48 4.66
1 0 6 138.47 4.32
-1 0 -6 138.26 4.96
1 0 6 138.52 3.55
-1 0 -6 151.46 4.73
-1 0 -7 80.19 4.09
1 0 7 87.86 3.11
-1 0 -7 87.91 3.8
1 0 7 84.88 3.55
-1 0 -8 26.69 2.56
1 0 8 30.82 2.06
-1 0 -8 29.81 2.36
1 0 8 27.89 2.13
-1 0 -9 132.89 6.17
-1 0 -9 149.48 5.58
1 0 9 130.32 4.8
1 0 9 147.17 4.89
1 0 10 65.43 3.53
-1 0 -10 69.77 4.81
1 0 10 74.76 3.79
-1 0 -10 76.14 4.23
1 0 11 38.55 2.83
-1 0 -11 47.07 4.23
-1 0 -12 24.21 3.22
-1 0 -12 23.9 2.64
1 0 12 21.71 2.15
1 0 13 8.66 1.43
-1 0 -13 11.58 1.89
-1 0 -13 9.28 2.15
1 0 14 15.62 2.01
1 0 14 16.45 1.52
-1 0 -14 18.41 2.5
-1 0 -14 18.87 1.65
-1 0 -14 12.63 2.59
-1 0 -14 15.64 1.46
-1 0 -14 17.72 1.62
1 0 15 35.63 3.1
-1 0 -15 39.22 2.45
-1 0 -15 44.36 2.51
-1 0 -15 39.29 4.67
-1 0 -16 56.57 3.02
-1 0 -16 57.9 2.88
1 0 17 1.27 0.43
-1 0 -17 1.27 0.54
-1 0 -17 0.7 0.29
1 0 18 6.93 0.96
-1 0 -18 6.64 1.08
-1 0 -18 5.42 0.89
1 0 19 99.56 3.35
-1 0 -19 100.47 3.88
-1 0 -19 101.28 3.57
-1 0 -20 31.33 2.04
-1 0 -20 29.88 1.83
1 0 20 30.02 1.74
-1 0 -21 31.78 1.91
1 0 21 33.93 1.67
-1 0 -21 31.29 1.68
-1 0 -22 11.26 1
1 1 -22 3.49 0.52
-1 1 21 2.55 0.41
1 1 -21 1.22 0.39
1 1 -21 2.8 0.53
-1 1 20 5.18 0.63
1 1 -20 4.45 0.76
-1 1 19 49.89 2.06
1 1 -19 45.68 2.45
-1 1 18 55.37 2.28
1 1 -18 52.3 2.69
1 1 -17 27.67 2
1 1 -16 73 3.2
-1 1 15 66.71 5.81
1 1 -15 69.59 3.06
1 1 -15 72.34 6.76
1 1 -15 61.61 5.97
-1 1 14 133.56 7.86
1 1 -14 136.27 8.88
1 1 -14 144.88 8.9
1 1 -14 134.07 4.1
-1 1 13 54.01 4.81
1 1 -13 66.38 5.91
1 1 -13 58.37 5.49
-1 1 12 260.79 10.1
1 1 -12 252.54 10.9
1 1 -12 265.92 11.39
-1 1 11 115.6 6.41
1 1 -11 118.97 7.05
1 1 -11 123.16 7.35
-1 1 10 154.52 7.07
1 1 -10 154.36 7.56
1 1 -10 149.25 7.74
-1 1 9 67.58 4.42
1 1 -9 67.09 4.66
1 1 -9 67.1 4.86
-1 1 8 1561.52 20.07
1 1 -8 1569.59 21.25
-1 1 7 311.58 8.39
1 1 -7 318.1 8.81
1 1 -7 324.54 9.38
-1 1 6 509.11 9.96
1 1 -6 512.43 10.42
1 1 -6 515.04 11.16
-1 1 5 65.8 3.41
1 1 -5 68.32 3.55
1 1 -5 71.67 3.83
-1 1 4 1034.27 12.44
1 1 -4 1046.08 12.82
1 1 -4 1077.94 13.85
-1 1 3 713.17 9.67
1 1 -3 718.11 10.47
-1 1 2 1084.13 10.94
-1 1 2 1109.36 10.44
1 1 -2 1107.61 12.04
-1 1 1 717.3 8
-1 1 1 725.81 8.3
1 1 0 1655.69 12.12
-1 1 0 1628.92 10.95
1 1 1 5389.23 19.47
-1 1 -1 5235.8 18.24
-1 1 -3 2820.77 12.82
-1 1 -3 2844.25 16.79
-1 1 -4 534.93 4.75
-1 1 -4 514.98 7.43
1 1 4 528.49 6.13
1 1 4 532.16 8.48
-1 1 -4 513.23 6.69
-1 1 -5 809.48 9.63
-1 1 -5 797.42 9.7
1 1 5 824.05 10.81
1 1 6 644.24 8.42
-1 1 -6 612.32 8.84
-1 1 -6 623.3 9.65
1 1 6 614.99 9.55
1 1 7 3.04 0.74
1 1 7 3.38 0.71
-1 1 -7 2.96 0.77
1 1 8 16.53 1.6
-1 1 -8 14.43 1.51
-1 1 -8 12.92 1.7
1 1 8 13.4 1.53
1 1 9 117.52 4.56
-1 1 -9 105.59 5.22
-1 1 -9 107.22 4.3
1 1 10 236.55 6.74
-1 1 -10 254.59 8.82
1 1 10 284.62 7.6
-1 1 -10 277.59 7.35
-1 1 -11 30.62 3.29
-1 1 -11 33.38 2.7
1 1 11 24.39 2.23
-1 1 -12 130.78 7.29
1 1 12 128.42 5.29
1 1 13 147.57 5.83
-1 1 -13 162.45 8.7
1 1 14 20.53 2.25
-1 1 -14 16.4 2.89
-1 1 -14 20.31 1.71
-1 1 -14 19.28 1.68
-1 1 -15 7.48 1.08
1 1 15 8.78 1.09
-1 1 -15 7.9 1.11
-1 1 -16 2.76 0.73
-1 1 -16 2.84 0.67
1 1 16 2.53 0.66
-1 1 -16 2.42 0.64
-1 1 -17 23.07 1.96
1 1 17 22.22 1.71
-1 1 -17 22.42 1.8
-1 1 -18 55.34 2.97
1 1 18 54.49 2.6
-1 1 -18 55.96 2.77
-1 1 -19 11.35 1.31
-1 1 -19 12.79 1.29
1 1 19 12.45 1.21
-1 1 -20 22.59 1.73
-1 1 -20 21.21 1.52
1 1 20 23.94 1.56
1 1 21 0.73 0.32
-1 1 -21 0.88 0.37
-1 1 -21 0.44 0.32
-1 1 -22 19.76 1.3
-1 1 -22 16.39 1.02
-1 1 -23 3.43 0.48
-1 2 22 1.62 0.33
1 2 -22 1.16 0.34
1 2 -21 4.18 0.62
1 2 -20 -0.14 0.22
1 2 -19 9.18 1.09
1 2 -18 5.69 0.92
1 2 -17 43.8 2.51
1 2 -16 291.56 6.44
1 2 -15 41.2 4.88
-1 2 15 46.08 4.94
1 2 -15 50.59 5.76
1 2 -15 44.34 2.49
1 2 -14 303.79 12.97
-1 2 14 316.61 12.65
1 2 -14 318.86 13.8
1 2 -14 306.83 6.37
-1 2 13 39.59 4.35
1 2 -13 39.36 4.61
1 2 -13 35.35 4.29
-1 2 12 2.56 1.24
1 2 -12 2.43 1.11
1 2 -12 4.82 1.57
-1 2 11 167.94 8.17
1 2 -11 170.36 8.68
1 2 -11 167.98 8.7
-1 2 10 89.49 5.68
1 2 -10 85.53 5.78
1 2 -10 86.77 5.9
-1 2 9 34.34 3.33
1 2 -9 39.87 3.74
1 2 -9 40.21 3.84
1 2 -8 795.28 15.86
1 2 -8 836.53 16.42
-1 2 7 679.22 13.38
1 2 -7 680.65 13.74
1 2 -7 722.37 14.5
1 2 -6 22.22 2.34
-1 2 6 22.25 2.34
1 2 -6 22.83 2.42
-1 2 5 78.42 4.2
1 2 -5 84.32 4.4
-1 2 4 957.48 13.68
1 2 -4 976.42 14.11
1 2 -3 103.84 4.33
-1 2 3 107.51 4.4
1 2 -2 41.24 2.57
-1 2 2 38.34 2.53
1 2 -1 1373.05 14.08
-1 2 1 1333.93 14.36
1 2 0 153.11 4.51
-1 2 0 148.78 3.52
-1 2 -1 1355.99 6.88
-1 2 -1 1353.76 10.39
1 2 2 425.9 6.88
-1 2 -2 384.13 4.17
-1 2 -2 418.43 6.78
-1 2 -2 382.74 5.5
1 2 3 32.44 2.08
-1 2 -3 35.27 1.53
-1 2 -3 34.76 1.68
-1 2 -3 36.92 1.98
1 2 4 75.47 3.25
-1 2 -4 71.4 2.58
-1 2 -4 76.78 2.88
-1 2 -4 70.96 2.44
1 2 5 11.08 1.29
-1 2 -5 9.88 1.08
-1 2 -5 11.09 1.19
-1 2 -5 11.1 1
1 2 5 9.8 1.31
-1 2 -6 67.48 2.86
1 2 6 73.34 3.45
-1 2 -6 70.3 3.27
1 2 6 63.46 3.35
-1 2 -6 69.06 2.6
1 2 7 9.04 1.27
-1 2 -7 7.52 1.18
-1 2 -7 8.53 1.07
-1 2 -7 8.16 0.93
1 2 7 8.15 1.25
1 2 8 89.98 4.09
-1 2 -8 100.14 4.78
1 2 9 108.62 4.55
-1 2 -9 109.87 5.37
1 2 10 97.03 4.37
-1 2 -10 102.22 5.54
-1 2 -11 264.09 9.57
1 2 11 236.83 7.02
1 2 12 67.54 3.8
-1 2 -12 74.3 5.45
-1 2 -13 5.69 0.9
1 2 13 6.5 0.89
-1 2 -13 4.47 0.85
1 2 14 56.68 2.65
-1 2 -14 57.85 2.95
-1 2 -14 57.81 2.89
1 2 15 10.15 1.16
-1 2 -15 10.86 1.34
-1 2 -15 9.68 1.23
-1 2 -16 3 0.72
1 2 16 2.49 0.66
-1 2 -16 2.27 0.68
-1 2 -17 6.76 1.11
1 2 17 7.01 0.97
-1 2 -17 6.03 0.97
-1 2 -18 49.4 2.63
-1 2 -18 53.51 2.84
1 2 18 51.32 2.49
-1 2 -18 55.71 2.74
-1 2 -19 43.59 2.44
1 2 19 42 2.15
-1 2 -19 43.03 2.28
1 2 20 9.36 0.96
-1 2 -20 9.02 0.97
-1 2 -20 10.34 1.13
-1 2 -21 5.37 0.7
1 2 21 4.13 0.6
-1 2 -21 4.17 0.67
-1 2 -22 4.93 0.64
-1 2 -22 3.41 0.47
1 2 22 4.25 0.51
-1 2 -23 2.78 0.39
-1 3 22 0.47 0.2
1 3 -22 -0.17 0.14
1 3 -21 -0.22 0.18
1 3 -20 5.63 0.78
1 3 -19 11.24 1.15
1 3 -18 10.18 1.18
1 3 -17 16.12 1.53
1 3 -16 116.89 4.11
-1 3 16 122.52 3.49
1 3 -15 50.44 2.68
-1 3 15 56.97 2.42
-1 3 14 148.97 9.06
1 3 -14 142.62 8.97
1 3 -14 145.75 4.48
1 3 -14 144.1 9.56
-1 3 14 140.95 3.78
-1 3 13 27.04 3.72
1 3 -13 26.75 3.8
1 3 -13 27.27 1.88
1 3 -13 23.53 3.78
-1 3 13 26.69 1.64
1 3 -12 61.62 5.64
-1 3 12 58.19 5.34
1 3 -12 56.03 5.45
-1 3 11 172.53 8.8
1 3 -11 170.85 9.06
1 3 -11 176.55 9.13
1 3 -10 282.74 11.17
-1 3 10 298.3 11.14
1 3 -10 293.8 11.35
1 3 -9 178.27 8.48
-1 3 9 183.32 8.43
1 3 -9 182.83 8.53
-1 3 8 0.37 0.53
1 3 -8 0.87 0.67
1 3 -8 0.69 0.65
-1 3 7 8.16 1.67
1 3 -7 8.23 1.68
1 3 -7 9.58 1.8
-1 3 6 1188.5 19.15
1 3 -6 1173.39 18.49
-1 3 5 12.64 1.94
1 3 -5 11.86 1.8
1 3 -4 427.41 10.24
-1 3 4 439.6 10.82
-1 3 3 544.79 11.77
1 3 -3 551.37 11.2
-1 3 2 262.52 7.97
1 3 -2 277.2 7.65
-1 3 1 284.42 8.23
1 3 -1 310.39 7.82
1 3 0 69.55 3.6
-1 3 -1 439.37 8.93
1 3 1 490.84 9.4
-1 3 -2 239.39 6.47
1 3 2 262.75 6.76
-1 3 -3 550.92 7.9
-1 3 -3 547.89 9.75
1 3 4 250.42 7.38
-1 3 -4 228.27 5.46
1 3 4 253.91 6.53
-1 3 -4 237.93 6.42
-1 3 -5 353.44 8.01
-1 3 -5 347.52 7.27
1 3 6 331.93 8.91
-1 3 -6 331.72 7.91
-1 3 -6 323.44 7.66
-1 3 -7 4.26 0.96
1 3 7 3.07 0.76
1 3 7 2.3 0.82
-1 3 -7 1.78 0.64
-1 3 -8 21.99 2.36
1 3 8 23.19 2.17
1 3 9 395.54 8.89
1 3 9 489.22 11.68
1 3 10 87.76 4.24
-1 3 -12 98.78 3.67
-1 3 -12 105.7 3.76
1 3 12 105.5 3.45
-1 3 -12 105.26 3.76
-1 3 -13 38.32 2.37
-1 3 -13 39.83 2.4
1 3 13 40.25 2.2
-1 3 -14 38.3 2.37
1 3 14 37.83 2.15
-1 3 -14 37.59 2.4
1 3 15 37.42 2.16
-1 3 -15 40.05 2.54
-1 3 -15 40.3 2.45
-1 3 -16 19.59 1.77
1 3 16 20.9 1.64
-1 3 -16 18.8 1.67
-1 3 -17 8.82 1.2
1 3 17 8.88 1.06
-1 3 -17 8.93 1.15
1 3 18 87.62 3.13
-1 3 -18 90.47 3.59
-1 3 -18 80.62 3.21
-1 3 -19 6.84 0.95
-1 3 -19 5.81 0.81
1 3 19 6.08 0.82
-1 3 -20 6.05 0.77
1 3 20 6.25 0.76
-1 3 -20 6.33 0.84
-1 3 -21 8.83 0.88
1 3 21 7.43 0.73
-1 3 -21 8.57 0.77
-1 3 -22 3.14 0.46
1 3 22 2.63 0.37
-1 4 22 2.46 0.33
-1 4 21 7.97 0.69
1 4 -21 7.19 0.67
1 4 -20 3.45 0.57
1 4 -19 0.73 0.31
1 4 -18 5.29 0.86
-1 4 17 10.19 0.99
1 4 -17 9.36 1.14
-1 4 16 4.44 0.7
1 4 -16 4.06 0.78
-1 4 15 111.35 3.43
1 4 -15 106.34 3.93
-1 4 14 86.61 3.04
1 4 -14 82.75 3.43
-1 4 13 124.32 8.54
-1 4 13 120.68 3.55
1 4 -13 118.8 4.06
1 4 -13 122.67 8.41
1 4 -13 125.47 8.84
-1 4 12 83.55 6.79
1 4 -12 78.09 6.57
1 4 -12 87.76 7.09
-1 4 12 89.6 3.04
1 4 -12 82.49 3.3
-1 4 11 66 5.88
1 4 -11 65.13 5.78
1 4 -11 62.99 2.81
-1 4 11 66.54 2.56
1 4 -11 68.76 6.07
-1 4 10 14.57 2.67
1 4 -10 13.8 2.57
1 4 -10 11.87 2.43
-1 4 9 39.84 4.35
1 4 -9 36.04 3.98
1 4 -9 42.74 4.45
-1 4 8 33.56 3.88
1 4 -8 26.6 3.31
1 4 -8 30.2 3.57
1 4 -7 55.83 4.68
-1 4 7 58.04 4.96
-1 4 6 279.04 10.58
1 4 -6 263.71 9.65
-1 4 5 201.26 8.76
1 4 -5 191.44 7.89
-1 4 4 20.91 2.76
1 4 -4 24.14 2.73
-1 4 3 106.81 6.12
1 4 -3 106.7 5.52
-1 4 2 561.43 13.68
1 4 -2 560.21 12.26
-1 4 1 137.83 6.67
1 4 -1 140.83 6.04
1 4 0 122.72 5.62
1 4 1 118.58 5.47
-1 4 -1 107.92 5.3
-1 4 -2 377.92 9.73
1 4 2 414.65 10.05
-1 4 -3 569.03 11.85
1 4 3 618.18 12.16
1 4 4 23.41 2.7
1 4 4 22.78 2.39
-1 4 -4 23.2 2.41
1 4 5 104.81 5.78
-1 4 -5 104.59 5.08
1 4 6 580.54 13.76
-1 4 -6 606.7 12.47
1 4 7 195.93 8.12
-1 4 -7 204.84 7.34
1 4 8 199.26 8.39
1 4 9 9.58 1.85
-1 4 -11 39.23 2.3
1 4 11 39.67 2.12
-1 4 -11 36.93 2.23
1 4 12 78.29 3.01
-1 4 -12 75.92 3.28
-1 4 -12 77.05 3.3
-1 4 -13 59.01 2.96
-1 4 -13 63.55 3.07
-1 4 -13 61.44 3
1 4 13 64.21 2.79
1 4 14 58.11 2.69
-1 4 -14 64.42 3.17
-1 4 -14 61.13 3.02
-1 4 -15 123.22 4.38
-1 4 -15 120.89 4.2
1 4 15 121.58 3.86
-1 4 -16 33.09 2.24
1 4 16 33.28 1.99
-1 4 -16 33.73 2.17
-1 4 -17 17.75 1.58
1 4 17 17.47 1.41
-1 4 -17 16.87 1.49
-1 4 -18 27.21 1.87
1 4 18 26.32 1.64
-1 4 -18 25.06 1.68
-1 4 -19 0.9 0.34
1 4 19 1.09 0.35
-1 4 -19 0.92 0.39
-1 4 -19 0.72 0.36
-1 4 -20 41.48 1.91
1 4 20 41.71 1.72
-1 4 -20 43.63 1.81
-1 4 -21 4.47 0.49
1 4 21 5.04 0.54
-1 4 -21 5.17 0.6
-1 5 21 3.65 0.37
1 5 -20 4.23 0.52
-1 5 20 4.46 0.5
-1 5 19 6.43 0.66
1 5 -19 6.37 0.75
-1 5 18 3.17 0.52
1 5 -18 2.89 0.58
-1 5 17 0.12 0.22
1 5 -17 0.21 0.26
-1 5 16 2.88 0.54
1 5 -16 3.2 0.68
-1 5 15 30.41 1.78
1 5 -15 26.89 1.94
-1 5 14 142.94 3.92
1 5 -14 137.69 4.44
1 5 -13 72.16 3.21
-1 5 13 70.21 2.78
1 5 -12 58.36 2.87
-1 5 12 58.16 2.54
-1 5 11 88.93 7.37
1 5 -11 86.1 3.44
1 5 -11 90.66 7.32
-1 5 11 85.84 3.05
1 5 -11 88.06 6.94
-1 5 10 231.76 11.7
-1 5 10 210.05 4.74
1 5 -10 228.97 11.34
1 5 -10 211.67 10.64
1 5 -10 216.73 5.35
-1 5 9 57.09 5.75
1 5 -9 59.15 5.59
1 5 -9 57.43 5.36
-1 5 9 54.34 2.36
1 5 -9 51.71 2.55
-1 5 8 124.12 8.29
1 5 -8 121.89 7.8
1 5 -8 130.3 7.83
-1 5 7 12.95 2.62
1 5 -7 16.28 2.76
1 5 -7 14.46 2.55
-1 5 6 23.08 3.47
1 5 -6 23.79 3.11
-1 5 5 312.92 12.46
1 5 -5 300.38 10.79
-1 5 4 112 7.3
1 5 -4 122.79 6.75
-1 5 3 71.13 5.73
1 5 -3 76.9 5.24
-1 5 2 130.3 7.63
1 5 -2 139.88 7.01
1 5 -1 229.84 8.82
-1 5 1 207.62 9.45
1 5 0 225.21 8.66
-1 5 -1 27.16 3.13
1 5 1 24.2 2.85
-1 5 -2 278.64 9.8
1 5 2 304.67 9.94
1 5 3 79.17 5.69
1 5 3 85.26 5.28
-1 5 -3 78.98 5.11
-1 5 -4 181.3 7.73
1 5 4 172.42 8.53
1 5 4 183.38 7.82
1 5 5 176.04 8.67
-1 5 -5 164.59 7.38
1 5 6 23.55 3.22
-1 5 -6 19.61 2.62
1 5 7 121.81 7.26
-1 5 -7 115.82 6.22
1 5 8 124.37 7.41
-1 5 -8 122.47 3.92
-1 5 -9 4.65 0.8
1 5 9 4.92 0.81
-1 5 -9 5.13 0.84
-1 5 -10 24.3 1.83
1 5 10 24.07 1.68
-1 5 -10 23.15 1.79
-1 5 -11 88.52 3.54
1 5 11 87.2 3.22
-1 5 -11 87.84 3.53
-1 5 -12 37.21 2.33
-1 5 -12 40.08 2.44
1 5 12 38.39 2.16
-1 5 -13 9.91 1.22
-1 5 -13 8.7 1.17
1 5 13 9.57 1.09
-1 5 -13 8.99 1.18
-1 5 -14 42.7 2.51
1 5 14 40.52 2.18
-1 5 -14 38.83 2.36
-1 5 -15 36.16 2.27
1 5 15 33.18 1.96
-1 5 -15 35.96 2.2
-1 5 -16 22.79 1.74
1 5 16 20.39 1.47
-1 5 -16 23.15 1.69
-1 5 -17 8.24 1.01
1 5 17 8.11 0.9
-1 5 -17 7.17 0.91
-1 5 -18 22.69 1.52
1 5 18 21.82 1.36
-1 5 -18 19.92 1.37
-1 5 -19 7.47 0.79
1 5 19 7.51 0.73
-1 5 -19 7.7 0.79
-1 5 -20 10.05 0.79
1 5 20 11.18 0.78
-1 5 -20 10.68 0.76
1 5 21 1.99 0.28
-1 6 19 6.37 0.52
1 6 -19 6.51 0.62
-1 6 18 17.59 0.97
1 6 -18 17.45 1.17
-1 6 17 2.29 0.4
-1 6 17 2.43 0.44
1 6 -17 2 0.45
-1 6 16 0.38 0.2
-1 6 16 0.09 0.19
-1 6 15 53.46 2.08
-1 6 15 55.61 2.26
1 6 -15 56.42 2.6
1 6 -14 13.09 1.31
-1 6 14 10.78 0.97
-1 6 14 10.94 1.06
-1 6 13 7.64 0.85
-1 6 13 7 0.88
1 6 -13 7.18 1.01
-1 6 12 252.25 4.79
1 6 -12 256.57 5.97
-1 6 12 255.95 5.28
-1 6 11 15.47 1.21
-1 6 11 16.48 1.37
1 6 -11 16.3 1.53
-1 6 10 219.67 4.44
-1 6 10 226.25 5.03
1 6 -10 232.71 5.7
1 6 -9 26.5 1.91
-1 6 9 29.29 1.61
-1 6 9 29.26 1.82
-1 6 8 212.11 11.71
1 6 -8 184.71 5.01
1 6 -8 198.66 10.7
-1 6 8 193.49 4.64
1 6 -8 210.75 10.63
-1 6 7 11.25 2.77
1 6 -7 12.53 2.63
-1 6 7 11.41 1.12
1 6 -7 13 2.58
1 6 -7 11.85 1.28
-1 6 6 35.45 4.68
-1 6 6 39.46 2.06
1 6 -6 36.81 2.19
1 6 -6 45.68 4.75
-1 6 5 128.5 8.82
1 6 -5 145.02 8.3
-1 6 5 131.41 3.73
1 6 -5 130.09 4.07
1 6 -4 85.85 6.25
-1 6 4 84.38 7.09
-1 6 4 75.18 2.8
-1 6 3 117.86 8.31
1 6 -3 137.54 7.84
-1 6 2 164.64 9.62
1 6 -2 174.85 8.7
-1 6 1 32.51 4.25
1 6 -1 37.29 3.97
-1 6 0 77.47 6.43
1 6 0 83.24 5.94
1 6 1 115.54 6.94
-1 6 -2 48.14 4.56
1 6 2 47.12 4.44
1 6 3 28.79 3.99
1 6 3 31.66 3.67
-1 6 -3 29.86 3.61
1 6 4 122.96 8.03
-1 6 -4 130.29 7.37
1 6 5 76.04 6.43
-1 6 -5 73.49 5.51
-1 6 -5 82.53 3.16
1 6 6 176.13 9.64
-1 6 -6 180.38 8.61
1 6 6 183.8 4.31
-1 6 -6 175.71 4.67
-1 6 -7 39.76 2.34
-1 6 -7 43.98 2.39
1 6 7 45.61 2.2
-1 6 -8 30.66 2.07
-1 6 -8 27.42 1.93
1 6 8 29.86 1.83
-1 6 -9 110.26 3.94
1 6 9 110.73 3.57
-1 6 -9 105.71 3.84
-1 6 -10 63.96 3.03
1 6 10 62.81 2.7
-1 6 -10 59.25 2.91
-1 6 -11 0.69 0.41
1 6 11 0.76 0.4
-1 6 -11 0.73 0.38
-1 6 -12 6.24 0.96
1 6 12 7.66 0.97
-1 6 -12 8.12 1.09
-1 6 -13 25.9 1.89
-1 6 -13 27.08 1.94
1 6 13 25.89 1.71
-1 6 -13 24.77 1.87
-1 6 -14 1.96 0.57
1 6 14 1.5 0.43
-1 6 -14 1.77 0.53
-1 6 -15 0.37 0.37
1 6 15 0.23 0.28
-1 6 -15 0.33 0.25
1 6 16 21.64 1.38
-1 6 -16 21.14 1.51
-1 6 -16 21.38 1.48
-1 6 -17 15.2 1.17
1 6 17 14.98 1.06
-1 6 -17 14.6 1.12
1 6 18 5.04 0.58
-1 6 -18 4.26 0.53
-1 6 -19 4.89 0.51
1 6 19 4.89 0.49
1 7 -18 0.52 0.17
-1 7 17 1.35 0.22
-1 7 17 1.56 0.28
1 7 -17 2.12 0.39
-1 7 16 2.93 0.38
1 7 -16 2.89 0.5
-1 7 15 9.5 0.71
-1 7 15 9.82 0.86
1 7 -15 10.17 0.99
-1 7 14 1.13 0.29
1 7 -14 1.03 0.4
-1 7 14 1.85 0.4
-1 7 13 9.48 0.8
-1 7 13 9.22 0.93
1 7 -13 10.34 1.11
-1 7 12 13.68 1
-1 7 12 14.29 1.21
1 7 -12 14.64 1.37
-1 7 11 19.91 1.45
1 7 -11 17.02 1.5
-1 7 10 3.66 0.67
1 7 -10 4.78 0.8
1 7 -9 14.55 1.43
-1 7 9 13.68 1.26
-1 7 8 152.83 4.17
1 7 -8 154.99 4.71
-1 7 7 131.2 3.86
1 7 -7 132.9 4.35
1 7 -6 218.16 5.57
1 7 -5 67.31 3.11
1 7 -4 60.66 2.97
-1 7 3 128.35 9.28
1 7 -3 137.3 8.43
-1 7 2 165.43 10.52
1 7 -2 180.39 9.57
-1 7 1 2.66 1.47
1 7 -1 9.71 2.25
-1 7 0 202.87 11.35
1 7 0 201.44 10.08
1 7 1 31.28 4.38
-1 7 -1 32.68 4.65
1 7 1 32.83 4.04
1 7 2 29.36 3.87
-1 7 -2 31.06 4.34
1 7 2 27.27 4.15
-1 7 -2 30.9 1.94
1 7 3 64.51 6.42
-1 7 -3 66.87 2.88
1 7 4 123.53 8.72
-1 7 -4 122.46 3.93
-1 7 -5 151.28 4.4
-1 7 -6 37.69 2.33
-1 7 -6 34.5 2.14
-1 7 -7 52.07 2.73
1 7 7 53.05 2.37
-1 7 -7 48.42 2.54
-1 7 -8 25.97 1.93
-1 7 -8 28.36 1.94
1 7 8 28.06 1.75
-1 7 -9 79.8 3.35
1 7 9 81.87 2.99
-1 7 -9 83.02 3.32
-1 7 -10 21.74 1.72
1 7 10 21.75 1.54
-1 7 -10 23.16 1.75
-1 7 -11 5.84 0.91
1 7 11 7.17 0.91
-1 7 -11 7.7 1.01
-1 7 -12 5.34 0.85
1 7 12 4.12 0.7
-1 7 -12 4.93 0.78
1 7 13 20.18 1.37
-1 7 -13 18.85 1.46
-1 7 -13 21.22 1.56
-1 7 -14 10.48 1.03
1 7 14 11.6 0.99
-1 7 -14 12.13 1.13
1 7 15 11.5 0.92
-1 7 -15 11.13 1
1 7 16 9.52 0.77
-1 7 -16 8.56 0.78
1 7 17 11.75 0.75
-1 7 -17 9.54 0.69
-1 8 16 11.32 0.64
1 8 -16 10.47 0.69
-1 8 15 1.97 0.33
1 8 -15 2.06 0.36
1 8 -14 0.46 0.22
-1 8 14 0.49 0.22
1 8 -13 5.25 0.69
1 8 -12 14.96 1.23
1 8 -11 0.62 0.35
1 8 -10 3.45 0.66
1 8 -9 2.5 0.6
1 8 -8 2.85 0.63
1 8 -7 23.64 1.79
1 8 -6 1.29 0.47
1 8 -5 229.16 5.72
1 8 -4 38.82 2.37
-1 8 3 32.06 1.68
1 8 -3 32.63 2.22
-1 8 -1 23.82 1.67
-1 8 -2 59.28 2.64
-1 8 -3 3.31 0.63
-1 8 -4 31.68 1.95
-1 8 -5 6.38 0.95
-1 8 -5 6.39 0.86
-1 8 -6 62.08 2.9
-1 8 -6 62.16 2.71
-1 8 -7 31.01 2.02
-1 8 -7 30.32 1.87
-1 8 -8 38.35 2.21
1 8 8 42.15 1.94
-1 8 -8 40.57 2.14
-1 8 -9 2 0.52
1 8 9 2.19 0.44
-1 8 -9 2.45 0.56
-1 8 -10 4.66 0.73
1 8 10 6.82 0.76
-1 8 -11 14.85 1.23
1 8 11 17.69 1.17
-1 8 -12 13.92 1.12
1 8 12 14.64 1.01
-1 8 -12 14.56 1.17
1 8 13 13.08 0.9
-1 8 -13 12.2 1
1 8 14 8.22 0.65
-1 8 -14 9.19 0.79
-1 8 -15 1.34 0.29
1 8 15 1.28 0.24
-1 9 13 1.49 0.25
1 9 -13 1.55 0.29
-1 9 12 1.65 0.29
1 9 -12 2.24 0.39
-1 9 11 2.52 0.37
1 9 -11 1.92 0.4
1 9 -10 0.39 0.28
-1 9 10 -0.24 0.17
1 9 -9 4.98 0.71
-1 9 9 4.46 0.53
-1 9 8 11.92 0.87
1 9 -8 11.5 1.09
-1 9 7 1.5 0.33
1 9 -7 1.21 0.36
-1 9 6 2.83 0.46
1 9 -6 3.35 0.63
-1 9 5 9.09 0.8
1 9 -5 9.19 1.06
1 9 -4 10.07 1.13
1 9 -3 10.29 1.16
1 9 -2 25.3 1.83
1 9 -1 32.79 2.1
1 9 0 51.44 2.64
-1 9 -3 4.03 0.73
-1 9 -4 13.59 1.27
-1 9 -5 5.58 0.8
-1 9 -6 27.86 1.72
-1 9 -7 3.4 0.61
-1 9 -8 31.98 1.71
-1 9 -9 16.62 1.19
-1 9 -10 58.32 2.05
-1 9 -11 8.54 0.77
-1 9 -12 6.16 0.58
1 10 -9 8.09 0.63
1 10 -8 2.09 0.37
1 10 -7 2.97 0.45
1 10 -6 1.4 0.35
1 10 -5 12.77 1
1 10 -4 3.25 0.53
1 10 -3 5.66 0.71
1 10 -2 8.98 0.9
1 10 -1 3.62 0.61
-1 10 0 -0.04 0.19
1 10 0 0.02 0.23
1 10 1 11.07 1.01
-1 10 -1 10.13 0.93
-1 10 -2 1.95 0.44
1 10 2 1.77 0.42
-1 10 -3 5.38 0.66
1 10 3 5.34 0.7
-1 10 -4 7.58 0.76
1 10 4 6.78 0.76
-1 10 -5 16.01 1.05
1 10 5 14.64 1.06
-1 10 -6 1.39 0.32
-1 10 -7 16.15 0.93
-1 10 -8 2.37 0.37
1 10 9 18.55 0.9
-2 -10 4 0.56 0.17
-2 -9 10 -0.15 0.15
-2 -9 9 3.69 0.5
2 -9 -8 0.54 0.23
-2 -9 8 0.07 0.16
2 -9 -7 0.1 0.17
2 -9 -6 1.32 0.36
2 -9 -5 7.65 0.86
-2 -9 4 10.36 0.87
2 -9 -4 9.3 0.97
-2 -9 3 25.27 1.37
2 -9 -3 24.24 1.57
-2 -9 2 1.61 0.41
2 -9 -2 1.43 0.42
2 -9 -1 9.26 0.99
-2 -9 1 9.32 0.86
-2 -9 0 8.63 0.82
2 -9 0 8.02 0.91
-2 -9 -1 12.2 0.97
2 -9 1 14.98 1.22
-2 -9 -2 12.22 0.96
2 -9 2 11.89 1.07
-2 -9 -3 3.05 0.49
2 -9 3 2.98 0.53
-2 -9 -4 4.87 0.57
2 -9 4 5.08 0.67
-2 -9 -5 4.07 0.5
2 -9 5 4.25 0.58
-2 -9 -6 7.51 0.62
2 -9 6 9.34 0.83
-2 -9 -7 3.85 0.4
2 -9 7 4.69 0.55
2 -9 8 4.47 0.49
-2 -8 14 1.67 0.29
-2 -8 13 4.78 0.55
2 -8 -12 1.26 0.31
-2 -8 12 2.14 0.41
-2 -8 11 0.66 0.3
2 -8 -11 0.66 0.24
-2 -8 10 3.74 0.63
2 -8 -10 3.28 0.6
2 -8 -9 9.25 1.02
-2 -8 9 12.03 1.15
2 -8 -8 3.14 0.64
-2 -8 7 17.49 1.23
2 -8 -7 15.56 1.41
-2 -8 6 5.96 0.75
2 -8 -6 6.33 0.96
-2 -8 5 16.39 1.27
2 -8 -5 15.67 1.51
-2 -8 4 6.78 0.84
2 -8 -4 6.65 1
2 -8 -3 20.47 1.74
-2 -8 3 21.62 1.49
-2 -8 2 38.29 2.01
2 -8 -2 38.94 2.38
-2 -8 1 4.32 0.72
2 -8 -1 3.64 0.76
2 -8 0 6.65 0.98
-2 -8 0 6.16 0.84
-2 -8 -1 12.57 1.18
2 -8 1 13.37 1.43
-2 -8 -2 26.88 1.71
2 -8 2 24.22 1.83
-2 -8 -3 23.18 1.57
2 -8 3 24.29 1.81
-2 -8 -4 1.45 0.47
2 -8 4 2.94 0.67
-2 -8 -5 9.32 1
2 -8 5 10.12 1.13
-2 -8 -6 0.66 0.34
2 -8 6 0.08 0.23
-2 -8 -7 4.69 0.65
2 -8 7 4.9 0.76
-2 -8 -8 1.22 0.36
2 -8 8 0.9 0.35
-2 -8 -9 8.59 0.72
2 -8 9 12.18 1.04
2 -8 10 0.85 0.31
2 -8 11 15.19 0.99
-2 -7 15 8.68 0.81
2 -7 -14 5.17 0.69
-2 -7 14 9.29 0.93
-2 -7 13 8.07 0.92
2 -7 -13 6.47 0.85
2 -7 -12 0.64 0.34
-2 -7 12 0.52 0.34
2 -7 -11 3.24 0.67
-2 -7 11 2.32 0.57
2 -7 -10 45.09 2.54
-2 -7 10 49.04 2.55
2 -7 -9 27.08 2.03
-2 -7 8 45.23 2.1
2 -7 -8 42.72 2.64
-2 -7 7 23.38 1.58
2 -7 -7 23.72 1.99
-2 -7 6 27.03 1.72
2 -7 -6 27.12 2.14
-2 -7 5 9.91 1.08
2 -7 -5 10.14 1.37
-2 -7 4 129.19 3.9
2 -7 -4 128.93 4.68
-2 -7 3 99.86 3.49
2 -7 -3 101.64 4.15
-2 -7 2 71.6 2.97
2 -7 -2 69.76 3.45
-2 -7 1 35.05 2.1
2 -7 -1 34.38 2.41
-2 -7 0 13.68 1.37
2 -7 0 13.13 1.47
-2 -7 -1 57.83 2.78
2 -7 1 55.18 3
-2 -7 -2 9.56 1.19
2 -7 2 11.29 1.37
-2 -7 -3 46.57 2.48
2 -7 3 49.29 2.77
-2 -7 -4 17.63 1.57
2 -7 4 18.73 1.71
-2 -7 -4 18.63 1.65
-2 -7 -5 16.35 1.5
2 -7 5 17.26 1.62
-2 -7 -5 18.2 1.61
-2 -7 -6 26.69 1.94
-2 -7 -6 23.63 1.78
2 -7 6 25.06 1.92
-2 -7 -7 14.11 1.33
2 -7 7 14.77 1.47
-2 -7 -7 15.57 1.46
2 -7 8 51.31 2.63
-2 -7 -8 52.5 2.58
2 -7 9 5.34 0.85
-2 -7 -9 4.44 0.7
-2 -7 -9 5.7 0.86
-2 -7 -10 1.77 0.46
2 -7 10 2.71 0.56
-2 -7 -10 2.67 0.57
-2 -7 -11 3.78 0.54
2 -7 11 5.71 0.81
-2 -7 -11 5.18 0.74
2 -7 12 9.1 0.92
-2 -7 -12 8.96 0.91
2 -7 13 -0.3 0.21
-2 -7 -13 0.12 0.18
2 -7 14 1.74 0.32
-2 -7 -14 1.27 0.31
-2 -6 16 -0.37 0.27
-2 -6 15 3.96 0.69
2 -6 -15 3.16 0.58
2 -6 -14 26.6 1.76
-2 -6 14 5.34 0.83
-2 -6 13 29.01 1.96
-2 -6 12 41.74 2.43
-2 -6 11 25.09 1.96
2 -6 -10 1.76 0.66
-2 -6 9 114.97 3.4
2 -6 -9 106.67 4.29
-2 -6 8 67.79 2.66
2 -6 -8 63.19 3.32
-2 -6 7 20.94 1.54
2 -6 -7 18.81 1.85
-2 -6 6 163.86 4.28
2 -6 -6 158.81 5.24
-2 -6 5 116.24 3.69
2 -6 -5 113.11 4.4
-2 -6 4 120.76 3.82
2 -6 -4 119.68 4.5
-2 -6 3 61.56 2.75
2 -6 -3 61.34 3.22
2 -6 -3 61.31 6.78
-2 -6 2 18.69 1.54
2 -6 -2 16.15 1.63
2 -6 -2 19.82 3.72
-2 -6 1 250.73 5.72
2 -6 -1 240.36 6.22
2 -6 -1 229.34 12.68
-2 -6 0 11.13 1.24
2 -6 0 11.42 1.37
2 -6 0 12.88 3.09
-2 -6 -1 81.48 3.37
2 -6 1 78.02 3.51
2 -6 2 56.62 2.99
-2 -6 -2 58.93 2.89
-2 -6 -2 59.78 2.95
2 -6 2 59.83 6.31
-2 -6 -3 8.38 1.17
2 -6 3 11.04 1.35
-2 -6 -3 11.42 1.32
-2 -6 -4 136 4.52
2 -6 4 140.2 4.61
-2 -6 -4 136.24 4.44
-2 -6 -5 0.37 0.38
2 -6 5 0.58 0.26
-2 -6 -6 81.01 3.4
2 -6 6 81.62 3.53
-2 -6 -6 78.22 3.37
-2 -6 -7 124.62 4.17
2 -6 7 126.42 4.39
-2 -6 -7 124.62 4.22
-2 -6 -8 16.94 1.54
2 -6 8 16.03 1.57
-2 -6 -8 15.98 1.51
-2 -6 -9 23.01 1.75
2 -6 9 21.74 1.77
-2 -6 -9 24.04 1.82
-2 -6 -10 41.32 2.22
2 -6 10 46.56 2.52
-2 -6 -10 47.51 2.49
-2 -6 -11 14.06 1.26
-2 -6 -11 13.8 1.32
2 -6 11 14.81 1.38
-2 -6 -12 25.16 1.56
-2 -6 -12 26.77 1.75
2 -6 12 30.6 1.92
2 -6 13 1.67 0.45
-2 -6 -13 2.27 0.52
2 -6 14 3.82 0.62
-2 -6 -14 3.59 0.59
2 -6 15 1.03 0.31
2 -6 16 0.19 0.14
2 -5 -19 -0.11 0.13
2 -5 -18 3 0.47
2 -5 -17 1.18 0.33
-2 -5 16 0.27 0.34
2 -5 -16 0.03 0.18
-2 -5 15 7.1 0.99
2 -5 -15 7.29 0.9
-2 -5 14 5.66 0.94
2 -5 -14 5.66 0.84
-2 -5 13 82.36 3.52
2 -5 -13 79.62 3.06
-2 -5 12 16.74 1.65
-2 -5 11 97.62 3.94
-2 -5 9 115.28 3.34
-2 -5 8 13.71 1.19
2 -5 -8 14.36 3.29
-2 -5 7 50.15 2.3
2 -5 -7 45.61 5.67
-2 -5 6 101.82 3.3
2 -5 -6 84.55 7.45
-2 -5 5 81.84 2.98
2 -5 -5 67.45 6.68
-2 -5 4 134.25 3.86
2 -5 -4 116.07 8.63
-2 -5 3 10.79 1.12
2 -5 -3 8.14 2.26
-2 -5 2 38.91 2.17
2 -5 -2 29.2 4.23
-2 -5 1 33.98 2.05
2 -5 -1 29.42 4.21
-2 -5 0 149.5 4.39
2 -5 0 139.43 9.01
-2 -5 -1 57.04 2.74
-2 -5 -1 52.95 2.66
2 -5 1 53.63 5.59
-2 -5 -1 51.86 4.31
-2 -5 -2 31.62 2.09
-2 -5 -2 30.1 2.01
2 -5 2 32.56 4.34
-2 -5 -2 28.49 3.29
-2 -5 -3 4.19 1.32
-2 -5 -3 5.42 0.86
-2 -5 -3 4.56 0.83
2 -5 3 4.16 1.59
-2 -5 -4 8.18 1.14
-2 -5 -4 7.01 1.69
-2 -5 -4 8.46 1.1
2 -5 4 10.28 2.48
-2 -5 -5 67.39 5.41
-2 -5 -5 74.88 3.38
-2 -5 -5 71.84 3.13
-2 -5 -6 45.56 4.56
-2 -5 -6 49.98 2.71
-2 -5 -6 48.42 2.61
-2 -5 -7 53.92 5.04
-2 -5 -7 53.51 2.72
-2 -5 -7 54.36 2.88
-2 -5 -8 80.66 3.42
2 -5 8 76.66 3.35
-2 -5 -8 81.14 3.35
-2 -5 -9 12.72 1.35
-2 -5 -9 13.67 1.41
2 -5 9 11.65 1.31
-2 -5 -10 35.92 2.23
2 -5 10 33.44 2.19
-2 -5 -10 34.43 2.19
-2 -5 -11 28.98 1.98
2 -5 11 26.82 1.94
-2 -5 -11 28.65 1.95
-2 -5 -12 25.58 1.78
2 -5 12 24.94 1.82
-2 -5 -12 25.62 1.81
-2 -5 -13 13.92 1.25
2 -5 13 14.56 1.34
-2 -5 -13 15.83 1.36
2 -5 14 8.45 1
-2 -5 -14 9.18 1.01
2 -5 15 2.39 0.52
2 -5 16 4.97 0.67
2 -5 17 8.17 0.74
-2 -4 20 6.6 0.51
2 -4 -20 5.77 0.59
-2 -4 19 2.99 0.41
2 -4 -19 2.53 0.47
-2 -4 18 26.66 1.3
2 -4 -18 23.92 1.49
-2 -4 17 4.2 0.57
2 -4 -17 4.53 0.72
-2 -4 16 4.94 0.86
-2 -4 16 6.42 0.73
2 -4 -16 5.49 0.85
-2 -4 15 5.51 0.7
-2 -4 15 5.65 0.98
2 -4 -15 6.21 0.92
-2 -4 14 6.46 0.78
-2 -4 14 6.38 1.02
2 -4 -14 6.01 0.93
-2 -4 13 12.62 1.08
2 -4 -13 12.5 1.27
-2 -4 13 12.59 1.41
-2 -4 12 168.83 3.93
2 -4 -12 179.76 4.78
-2 -4 12 179.57 5.31
-2 -4 11 21.05 1.36
-2 -4 11 21 1.83
-2 -4 10 78 2.59
-2 -4 10 81.64 3.52
2 -4 -10 82.31 7.51
2 -4 -9 31.69 4.58
2 -4 -8 0.93 0.84
2 -4 -7 125.15 8.53
2 -4 -6 18.67 3.15
2 -4 -5 15.87 2.94
2 -4 -4 56.4 5.36
-2 -4 3 203.46 7.56
2 -4 -3 206.92 10.11
-2 -4 2 18.52 2.3
2 -4 -2 16.2 2.8
-2 -4 1 43.35 3.69
2 -4 -1 42.24 4.51
-2 -4 0 10.3 1.81
2 -4 0 11.79 2.29
2 -4 1 39.1 4.21
-2 -4 -1 39.36 3.64
2 -4 2 25.1 3.44
-2 -4 -2 26.02 3.06
-2 -4 -3 83.25 5.59
2 -4 3 94.45 6.52
-2 -4 -4 15 2.38
2 -4 4 18.73 2.91
2 -4 5 1.27 0.55
-2 -4 -5 0.98 0.53
2 -4 6 65.31 3.69
-2 -4 -6 69.35 5.42
-2 -4 -6 74.92 3.15
2 -4 7 30.66 2.67
-2 -4 -7 35.86 3.99
-2 -4 -7 32.76 2.15
-2 -4 -7 33.78 2.07
2 -4 8 5.58 1.3
-2 -4 -8 7.9 1.14
-2 -4 -8 7.15 1.83
-2 -4 -8 8.66 1.1
2 -4 9 21.41 2.43
-2 -4 -9 19.17 3.08
-2 -4 -9 23.87 1.85
-2 -4 -9 24.26 1.79
2 -4 10 45.36 3.61
-2 -4 -10 48.8 2.64
-2 -4 -10 49.39 2.55
-2 -4 -11 41.72 2.42
-2 -4 -11 43.92 2.39
-2 -4 -12 3.4 0.74
2 -4 12 4.12 0.78
-2 -4 -12 4.35 0.78
2 -4 13 26.44 1.87
-2 -4 -13 26.71 1.85
-2 -4 -13 23.52 1.71
-2 -4 -14 18.42 1.48
2 -4 14 17.35 1.46
-2 -4 -14 16.36 1.38
2 -4 15 18.58 1.45
2 -4 16 9.49 1
2 -4 17 9.12 0.9
-2 -3 21 1.49 0.28
2 -3 -21 1.48 0.32
-2 -3 20 3.37 0.45
2 -3 -20 2.63 0.49
-2 -3 19 6.4 0.68
2 -3 -19 6.44 0.8
-2 -3 18 6.34 0.73
2 -3 -18 5.25 0.78
2 -3 -17 4.48 0.78
-2 -3 17 4.25 0.64
-2 -3 16 12.57 1.12
2 -3 -16 11.4 1.24
-2 -3 15 9.69 1.02
2 -3 -15 8.37 1.1
-2 -3 15 8.72 1.19
-2 -3 14 60.72 2.52
-2 -3 14 55.19 2.92
-2 -3 13 185.25 4.4
-2 -3 13 181.41 5.31
-2 -3 12 1.44 0.46
-2 -3 12 1.1 0.41
-2 -3 11 82.37 2.81
-2 -3 11 81.9 3.46
2 -3 -11 85.4 7.31
-2 -3 10 59.66 2.33
-2 -3 10 68.49 3.08
2 -3 -10 62.03 6.11
2 -3 -9 45.8 5.04
2 -3 -8 37.82 4.44
2 -3 -7 19.86 3.14
-2 -3 6 82.24 4.52
2 -3 -6 71.76 5.71
2 -3 -5 78.8 5.8
-2 -3 5 73.51 4.33
-2 -3 4 68.05 4.2
2 -3 -4 66.4 5.15
-2 -3 3 94.23 5.11
2 -3 -3 101.44 6.24
-2 -3 2 15.79 2.15
2 -3 -2 16.99 2.54
2 -3 -1 331.42 10.9
-2 -3 1 327.94 9.78
2 -3 0 106.16 6.11
-2 -3 0 100.61 5.48
2 -3 1 85.11 5.41
-2 -3 -1 80.97 5.02
-2 -3 -2 47.4 3.95
2 -3 2 44.23 2.54
2 -3 2 49.79 4.09
2 -3 3 278.48 6.72
-2 -3 -3 291.97 9.95
2 -3 4 129.69 4.78
-2 -3 -4 134.36 6.91
2 -3 5 79.74 3.95
-2 -3 -5 93.94 5.94
2 -3 6 15.72 1.83
-2 -3 -6 21 2.91
2 -3 7 98.03 4.71
-2 -3 -7 104.88 6.53
2 -3 8 103.96 5.03
-2 -3 -8 112.81 6.92
2 -3 9 73.52 4.34
-2 -3 -9 71.46 5.7
-2 -3 -9 75.85 3.21
-2 -3 -9 73.32 3.19
2 -3 10 9.75 1.65
-2 -3 -10 9.56 1.21
-2 -3 -10 5.33 1.7
-2 -3 -10 9.72 1.2
2 -3 11 35.04 3.22
-2 -3 -11 31.41 4.01
-2 -3 -11 36.55 2.27
-2 -3 -11 37.34 2.41
-2 -3 -12 11.11 1.28
-2 -3 -12 10.82 1.37
-2 -3 -13 27.46 1.96
-2 -3 -13 27.27 2.07
-2 -3 -14 18.12 1.55
-2 -3 -14 18.82 1.71
-2 -3 -15 30.37 1.9
2 -3 15 29.31 1.87
2 -3 16 18.67 1.42
-2 -3 -16 18.62 1.39
2 -3 19 0.74 0.27
-2 -2 22 2.08 0.29
2 -2 -22 1.78 0.32
-2 -2 21 1.09 0.27
2 -2 -21 0.67 0.24
-2 -2 20 5.52 0.62
2 -2 -20 5.69 0.73
-2 -2 19 1.84 0.42
2 -2 -19 1.58 0.45
-2 -2 18 0.9 0.38
2 -2 -18 1.88 0.58
-2 -2 17 42.51 2.06
-2 -2 16 8.57 0.99
-2 -2 15 23.56 1.61
-2 -2 14 185.5 4.54
-2 -2 14 211.17 5.69
-2 -2 13 120.88 4.19
2 -2 -13 118.83 8.93
-2 -2 12 78.68 3.32
2 -2 -12 75.95 6.86
-2 -2 11 2.64 0.55
-2 -2 11 2.79 0.65
2 -2 -11 4.28 1.5
2 -2 -10 168.56 9.41
2 -2 -9 241.47 10.87
2 -2 -8 133.99 7.74
2 -2 -7 37.2 3.88
-2 -2 6 247.85 7.83
2 -2 -6 226.58 9.18
-2 -2 5 194.51 7.01
2 -2 -5 190.26 8.05
-2 -2 4 153.31 6.22
2 -2 -4 155.73 6.95
-2 -2 3 340.57 9.34
2 -2 -3 335.21 9.87
-2 -2 2 0.46 0.39
2 -2 -2 1.46 0.67
2 -2 -1 201.12 4.93
-2 -2 1 200.13 7.39
2 -2 -1 193.55 7.1
2 -2 0 365.91 7.03
2 -2 0 362.31 9.48
-2 -2 0 351.34 9.83
2 -2 1 40.08 2.47
2 -2 1 41.61 3.14
-2 -2 -1 40.25 3.39
2 -2 2 250.1 6.35
-2 -2 -2 246.23 8.54
2 -2 3 593.36 10.06
-2 -2 -3 599.43 13.55
2 -2 4 1637.14 17.48
-2 -2 -4 1664.28 22.99
2 -2 5 675.23 11.64
-2 -2 -5 668.18 15
2 -2 6 121.63 5.14
-2 -2 -6 115.63 6.46
2 -2 7 59.95 3.7
-2 -2 -7 54.84 4.56
2 -2 8 122.36 5.47
-2 -2 -8 119.51 6.85
2 -2 9 4.35 1.1
-2 -2 -9 3.68 1.28
2 -2 10 21.89 2.5
-2 -2 -10 20.6 3.05
-2 -2 -10 23.45 1.75
-2 -2 -10 21.2 1.7
2 -2 11 12.46 1.93
-2 -2 -11 16.56 2.85
-2 -2 -11 15.65 1.5
-2 -2 -11 13.97 1.35
-2 -2 -11 14.47 1.44
2 -2 12 40.52 3.53
-2 -2 -12 47.18 4.83
-2 -2 -12 42.57 2.42
-2 -2 -12 36.84 2.26
-2 -2 -12 43.81 2.55
-2 -2 -13 12.24 1.29
-2 -2 -13 10.4 1.3
-2 -2 -14 29.81 2
-2 -2 -14 28.7 2.11
-2 -2 -15 44.1 2.59
-2 -2 -15 48.27 2.47
-2 -2 -16 6.22 0.89
-2 -2 -16 5.21 0.95
-2 -2 -17 6.78 0.84
-2 -2 -17 7.34 1.03
2 -2 19 1.81 0.46
2 -2 20 4.26 0.56
-2 -1 22 2.22 0.32
2 -1 -22 1.96 0.35
-2 -1 21 3.18 0.44
2 -1 -21 3.61 0.56
-2 -1 20 26.45 1.36
2 -1 -20 27.01 1.61
-2 -1 19 1.63 0.41
-2 -1 18 2.41 0.52
-2 -1 17 35.67 1.91
-2 -1 16 14.29 1.27
-2 -1 15 124.53 3.7
-2 -1 14 28.56 1.77
-2 -1 13 57.17 2.46
-2 -1 13 54.86 5.17
-2 -1 12 262.59 5.14
-2 -1 12 248.55 5.72
-2 -1 11 39.52 1.95
-2 -1 11 37.26 3.88
-2 -1 10 21.22 2.77
-2 -1 9 173.33 7.51
-2 -1 8 44.85 3.63
-2 -1 7 201.57 7.26
-2 -1 6 39.38 3.03
-2 -1 6 39.49 3.15
2 -1 -6 38.13 3.46
-2 -1 5 842.35 13.1
-2 -1 5 812.21 14.18
2 -1 -5 797.87 14.9
-2 -1 4 88.47 4.64
2 -1 -4 84.76 4.54
-2 -1 3 100.41 4.96
2 -1 -3 94.17 4.51
2 -1 -3 103.9 3.93
-2 -1 2 259.1 8.01
2 -1 -2 246.48 6.89
2 -1 -2 265.38 6.45
-2 -1 1 57.02 3.8
2 -1 -1 63.06 3.17
-2 -1 0 43.45 3.33
2 -1 0 42.87 2.68
-2 -1 -1 832.54 14.51
2 -1 1 825.27 11.94
-2 -1 -2 186.29 7.06
2 -1 2 185.92 5.85
-2 -1 -3 164.54 6.75
2 -1 3 167.18 5.66
2 -1 4 474.29 9.7
-2 -1 -4 494.01 11.92
2 -1 5 1122.93 15.47
-2 -1 -5 1188.08 18.84
2 -1 6 319.6 8.45
-2 -1 -6 351.41 10.62
2 -1 7 15.69 1.94
-2 -1 -7 15.71 2.32
-2 -1 -8 78.43 5.32
2 -1 8 71.7 4.22
2 -1 9 17.07 2.21
-2 -1 -9 18.15 2.65
2 -1 10 29.13 2.87
-2 -1 -10 31.54 3.56
2 -1 11 4.81 1.21
-2 -1 -11 7.28 1.77
-2 -1 -11 4.68 0.82
-2 -1 -11 4.47 0.8
2 -1 12 56.1 4.12
-2 -1 -12 59.99 2.89
-2 -1 -12 51.39 2.64
-2 -1 -12 58.37 2.86
-2 -1 -13 6.26 1
-2 -1 -13 6.1 1.54
-2 -1 -13 4.58 0.84
-2 -1 -13 5.46 0.9
-2 -1 -14 7.96 1.07
-2 -1 -14 6.33 0.98
-2 -1 -14 7.29 1.12
-2 -1 -15 14.41 1.4
-2 -1 -15 13.71 1.39
-2 -1 -15 12.4 1.4
-2 -1 -16 28.53 1.89
-2 -1 -16 23.75 1.82
-2 -1 -16 24.8 1.91
-2 -1 -17 0.89 0.39
-2 -1 -17 1.14 0.43
-2 -1 -17 1.04 0.43
-2 -1 -18 4.46 0.68
2 -1 18 5.65 0.81
-2 -1 -18 6.06 0.91
-2 -1 -19 11.61 1.14
2 -1 19 10.7 1.01
2 -1 20 1.53 0.38
2 -1 21 21.2 1.08
2 0 -22 19.19 1.06
-2 0 22 19.81 0.83
-2 0 21 2.65 0.4
2 0 -21 1.82 0.42
-2 0 20 5.96 0.65
-2 0 19 0.43 0.24
-2 0 18 13.21 1.09
-2 0 17 23.6 1.53
-2 0 16 16.86 1.32
-2 0 15 37.65 1.99
-2 0 14 0.39 0.26
-2 0 14 -0.51 0.27
-2 0 13 34.15 1.87
-2 0 13 31.57 3.83
2 0 -13 28.16 3.91
-2 0 13 32.95 1.7
2 0 -13 32.71 4.65
-2 0 12 143.95 3.74
-2 0 12 146.89 7.91
2 0 -12 141.27 8.37
2 0 -12 133.61 8.96
-2 0 11 142.22 7.44
2 0 -11 141.49 7.98
2 0 -11 123.49 8.25
-2 0 10 143.81 7.09
2 0 -10 150.7 7.87
2 0 -10 148.15 8.73
-2 0 9 -0.88 0.57
2 0 -9 -1.11 0.83
2 0 -9 0.42 0.51
-2 0 8 73.5 4.53
2 0 -8 76.71 4.96
2 0 -8 66.41 5.28
-2 0 7 5.73 1.2
2 0 -7 7.68 1.47
-2 0 6 1060.49 15.11
2 0 -6 1092.67 16.15
-2 0 5 77.64 3.8
2 0 -5 74.93 3.92
-2 0 5 81.6 4.47
-2 0 4 44.89 2.64
2 0 -4 44.37 2.78
-2 0 4 44.17 3.22
-2 0 3 131.28 4.06
-2 0 3 136.95 5.61
2 0 -2 170.08 5.86
-2 0 2 185.07 6.59
2 0 -1 11.01 1.34
-2 0 1 14.03 1.83
2 0 0 42.27 2.36
-2 0 0 39.55 3.03
-2 0 -1 323.2 8.69
2 0 1 326.13 8.15
-2 0 -2 19.1 2.14
2 0 2 20.94 2.13
-2 0 -3 6.5 1.26
2 0 3 6.01 1.18
2 0 4 98.16 4.68
-2 0 -4 108.39 5.25
-2 0 -5 18.52 2.21
2 0 5 17.13 2
2 0 6 104.44 4.98
-2 0 -6 123.95 5.89
2 0 7 45.92 3.39
-2 0 -7 57.45 4.12
2 0 8 37.51 3.14
-2 0 -8 48.55 3.91
2 0 9 9.37 1.61
-2 0 -9 10.26 1.89
2 0 10 41 3.44
-2 0 -10 51.23 4.27
2 0 11 10.99 1.87
-2 0 -11 9.24 1.94
-2 0 -11 10.32 1.2
-2 0 -11 12.37 1.31
2 0 12 40.26 3.53
-2 0 -12 47.16 4.35
-2 0 -12 43.86 2.47
-2 0 -12 44.05 2.56
2 0 13 21.3 2.64
-2 0 -13 20.36 1.69
-2 0 -13 25.67 1.95
-2 0 -13 25.01 1.98
-2 0 -14 1.67 0.57
-2 0 -14 1.1 0.5
-2 0 -14 1.75 0.57
-2 0 -15 1.16 0.46
-2 0 -15 0.87 0.42
-2 0 -15 1.19 0.54
-2 0 -16 2.81 0.65
-2 0 -16 2.05 0.57
-2 0 -16 1.52 0.57
-2 0 -17 14.49 1.34
-2 0 -17 12.29 1.3
2 0 17 14.02 1.3
-2 0 -17 15.61 1.49
-2 0 -18 -0.24 0.28
2 0 18 0.5 0.35
-2 0 -18 0.29 0.3
-2 0 -18 -0.05 0.35
2 0 19 13.57 1.13
-2 0 -19 13.92 1.07
-2 0 -19 13.33 1.23
-2 0 -20 17.62 1.29
2 0 20 17.62 1.18
2 0 21 0.82 0.28
-2 0 -21 0.44 0.26
2 1 -22 2.07 0.35
-2 1 21 3.43 0.4
-2 1 20 25.7 1.21
-2 1 19 0.77 0.31
-2 1 18 1.56 0.39
-2 1 18 2.84 0.51
-2 1 17 35.77 1.78
-2 1 17 38.88 1.91
-2 1 16 13.82 1.15
-2 1 16 14.27 1.19
-2 1 15 125.96 3.46
-2 1 15 129.52 3.62
-2 1 14 27.42 1.62
-2 1 14 24.37 1.57
-2 1 13 51.66 2.19
-2 1 13 57.39 5.29
2 1 -13 56.15 5.66
-2 1 13 50.74 2.26
2 1 -13 52.85 5.88
-2 1 12 257.47 4.83
-2 1 12 251.87 10.49
2 1 -12 263.31 11.78
-2 1 12 236.33 4.75
2 1 -12 258.02 12.6
-2 1 11 34.13 1.71
-2 1 11 41.3 4.08
2 1 -11 35.69 4.11
2 1 -11 35.4 4.55
-2 1 10 17.64 2.6
2 1 -10 21.62 3.04
2 1 -10 23.07 3.49
-2 1 9 173.43 7.61
2 1 -9 177.68 8.3
2 1 -9 177.14 9.25
-2 1 8 46.82 3.78
2 1 -8 48.98 4.11
2 1 -8 41.86 4.22
-2 1 7 190.42 7.21
2 1 -7 206.51 7.95
2 1 -7 182.01 8.39
-2 1 6 36.39 2.96
2 1 -6 39.39 3.28
2 1 -6 35.92 3.55
-2 1 5 788.18 12.78
2 1 -5 821.98 14.15
-2 1 4 87.09 3.94
2 1 -4 92.02 4.46
-2 1 4 92.09 4.55
2 1 -4 79.89 4.68
-2 1 3 96.99 3.78
2 1 -3 103.86 4.5
-2 1 3 102.61 4.72
2 1 -2 270.42 6.89
-2 1 2 257.48 7.49
-2 1 1 56.6 3.48
2 1 -1 54.83 3.06
2 1 0 39.03 2.34
-2 1 0 39.53 2.92
-2 1 -1 823.35 13.27
-2 1 -2 195.29 6.54
-2 1 -3 210.1 6.85
2 1 3 164.47 6.38
-2 1 -4 479 10.44
2 1 4 485.37 11.04
-2 1 -5 1168.7 16.57
2 1 5 1124.44 17
-2 1 -6 433.8 10.26
2 1 6 336.85 9.46
-2 1 -7 14.24 1.92
2 1 7 12.76 1.91
2 1 8 66.09 4.28
-2 1 -8 78.22 4.62
-2 1 -9 18.55 2.33
2 1 9 16 2.2
2 1 10 28.81 2.96
-2 1 -11 4.62 0.82
2 1 11 3.78 1.17
2 1 12 52.99 4.16
-2 1 -12 59.39 2.95
2 1 13 3.9 1.19
-2 1 -13 5.52 1
-2 1 -14 6.74 1.05
-2 1 -14 8.13 1.13
-2 1 -14 8.39 1.19
-2 1 -15 13 1.36
2 1 15 14.23 1.35
-2 1 -15 14.01 1.47
-2 1 -15 15.21 1.56
-2 1 -16 23.94 1.83
2 1 16 26.43 1.82
-2 1 -16 26.6 1.99
-2 1 -17 1 0.4
2 1 17 1.3 0.47
-2 1 -17 0.57 0.31
-2 1 -17 1.12 0.53
-2 1 -18 5.83 0.8
-2 1 -18 5.65 0.88
2 1 18 3.83 0.66
-2 1 -19 10.76 0.95
2 1 19 12.28 1.07
-2 1 -19 12.47 1.18
2 1 20 1.14 0.37
-2 1 -20 1.48 0.45
-2 1 -21 19.4 1.15
2 1 21 23.64 1.16
-2 2 19 0.59 0.22
-2 2 19 0.93 0.31
-2 2 18 0.71 0.25
-2 2 18 1.02 0.35
-2 2 17 41.5 1.76
-2 2 17 42.14 2.04
-2 2 16 7.83 0.83
-2 2 16 8.2 0.94
-2 2 15 22.55 1.37
-2 2 15 21.96 1.56
-2 2 14 210.45 4.2
-2 2 14 193.66 4.63
2 2 -13 126.67 9.12
-2 2 13 110.17 3.05
-2 2 13 121.5 7.81
2 2 -13 116.37 8.34
-2 2 13 108.81 3.44
-2 2 12 72.05 2.45
-2 2 12 83.91 6.36
2 2 -12 74.73 6.51
-2 2 12 73.83 2.79
2 2 -12 77.3 6.93
-2 2 11 2.55 0.49
-2 2 11 2.48 1.12
-2 2 11 2.52 0.53
2 2 -11 2.98 1.29
2 2 -11 2.59 1.29
-2 2 10 162.24 8.14
2 2 -10 171.37 8.99
2 2 -10 162.03 9.34
-2 2 9 248.15 9.72
2 2 -9 245.89 10.3
2 2 -9 242.92 10.94
-2 2 8 132.42 6.78
2 2 -8 134.64 7.23
2 2 -8 135.29 7.85
-2 2 7 39.14 3.54
2 2 -7 32.7 3.42
2 2 -7 33.47 3.7
-2 2 6 230.18 8.06
2 2 -6 245.5 8.95
2 2 -6 226.48 9.09
-2 2 5 183.3 6.76
2 2 -5 197.43 7.66
2 2 -5 180.03 7.63
2 2 -4 146.14 6.57
-2 2 4 147.47 5.71
2 2 -4 164.66 6.71
2 2 -3 312.1 9.03
-2 2 3 308.94 7.71
-2 2 2 0.49 0.34
-2 2 2 1.11 0.56
2 2 -2 0.31 0.36
2 2 -1 193.76 6.27
-2 2 1 190.75 6.3
2 2 0 358.67 7.93
-2 2 0 366.13 8.56
-2 2 -1 41.48 2.85
-2 2 -2 248 6.98
-2 2 -3 599.27 10.92
-2 2 -4 1727.18 18.69
2 2 4 1597.76 21.27
-2 2 -5 696.66 11.95
2 2 5 654.93 13.79
-2 2 -6 129.94 5.23
2 2 6 127.49 6.17
2 2 7 50.47 3.92
2 2 8 112.76 5.94
2 2 9 3.37 1.08
2 2 10 20.82 2.54
-2 2 -10 20.3 1.67
2 2 11 12.73 2.09
-2 2 -11 16.27 1.53
2 2 11 16.43 1.4
2 2 12 41.57 2.25
-2 2 -12 40.7 2.47
2 2 13 9.18 1.1
-2 2 -13 11.1 1.36
2 2 14 28.42 1.89
-2 2 -14 27.31 2.09
2 2 15 43.77 2.31
-2 2 -15 38.17 2.28
-2 2 -15 44.7 2.65
2 2 16 5.61 0.87
-2 2 -16 6.21 1
-2 2 -16 4.33 0.76
-2 2 -16 4.99 0.91
2 2 17 7.97 0.96
-2 2 -17 6.73 0.99
-2 2 -18 8.58 0.98
2 2 18 7.3 0.89
-2 2 -18 6.85 0.97
-2 2 -19 1.89 0.44
2 2 19 1.65 0.44
-2 2 -19 1.67 0.48
-2 2 -20 3.82 0.5
2 2 20 4.6 0.58
-2 2 -20 4.38 0.62
-2 2 -21 6.78 0.64
2 2 21 7.14 0.6
-2 3 20 2.8 0.42
-2 3 19 5.68 0.67
-2 3 18 6.12 0.74
-2 3 17 4.58 0.69
-2 3 16 12.64 1.16
-2 3 15 9.17 1.01
-2 3 14 59.7 2.61
-2 3 13 196.26 4.73
-2 3 13 195.96 4.26
-2 3 12 1.06 0.33
-2 3 12 -1.16 1.04
-2 3 12 2.14 0.5
-2 3 12 1.02 0.31
2 3 -12 -1.34 0.95
2 3 -12 0.78 0.92
2 3 -11 86.39 7.21
-2 3 11 81.04 6.36
-2 3 11 88.33 3.09
2 3 -11 93.23 7.24
-2 3 11 80.49 2.76
-2 3 11 77.26 2.4
2 3 -10 59.27 5.78
-2 3 10 75.39 5.96
-2 3 10 68.83 2.66
2 3 -10 66.65 5.92
2 3 -9 51.46 5.2
-2 3 9 52.04 4.76
-2 3 9 50.28 2.22
2 3 -9 44.39 4.66
2 3 -8 36.03 4.16
-2 3 8 31.25 3.54
2 3 -8 30.79 3.74
2 3 -7 17.91 2.84
-2 3 7 15.91 2.41
2 3 -7 18.69 2.76
-2 3 6 74.91 5.06
2 3 -6 71.75 5.35
2 3 -6 77.31 5.46
-2 3 5 72.4 4.76
2 3 -5 69.67 5.03
2 3 -5 78.33 5.34
-2 3 4 61.26 4.22
2 3 -4 64.62 4.63
-2 3 3 88.52 4.88
2 3 -3 90.27 5.23
-2 3 2 16.3 1.99
2 3 -2 14.97 2.05
2 3 -1 315.52 8.89
2 3 0 103.29 4.79
-2 3 -1 88.42 4.01
-2 3 -2 48.49 2.92
2 3 5 78.06 5.19
2 3 6 16.41 2.4
2 3 7 91.19 5.55
2 3 8 97.3 5.74
-2 3 -9 75.27 3.18
-2 3 -9 71.56 3.14
2 3 9 76.4 2.86
2 3 10 7.79 1.74
-2 3 -10 8.82 1.14
2 3 10 9.79 1.11
-2 3 -10 8.89 1.17
2 3 11 35.1 2.04
-2 3 -11 39.38 2.42
2 3 12 10.05 1.14
-2 3 -12 9.68 1.24
2 3 13 29.45 1.9
-2 3 -13 26.03 2.03
2 3 14 18.13 1.51
-2 3 -14 18.5 1.71
2 3 15 28.87 1.84
-2 3 -15 29.71 2.13
2 3 16 17.78 1.42
-2 3 -16 18.09 1.61
2 3 17 37.35 1.91
-2 3 -17 37.42 2.16
-2 3 -17 32.2 2.04
2 3 18 18.36 1.26
-2 3 -18 17.81 1.39
-2 3 -19 0.77 0.3
2 3 19 0.65 0.28
-2 3 -19 0.69 0.35
-2 3 -20 10.9 0.73
2 3 20 12.56 0.84
-2 3 -20 13.21 0.95
2 3 21 9.98 0.6
-2 4 20 7.59 0.6
-2 4 19 2.54 0.42
-2 4 18 25.1 1.39
-2 4 17 4.78 0.67
-2 4 16 5.76 0.77
-2 4 15 5.66 0.8
-2 4 15 6.34 0.75
-2 4 14 6.98 0.9
-2 4 14 7 0.81
-2 4 13 12.01 1.17
-2 4 13 12.31 1.13
-2 4 12 183.44 4.48
-2 4 12 170.24 4.23
-2 4 11 23.98 1.62
-2 4 10 79.2 6.56
2 4 -10 86.84 7.18
-2 4 10 81.83 2.94
2 4 -10 82.51 6.91
-2 4 9 29.94 3.87
2 4 -9 33.83 4.4
-2 4 9 33.73 1.86
2 4 -9 32.6 4.3
2 4 -8 1.67 1.07
-2 4 8 1.74 1.05
-2 4 8 2.97 0.56
2 4 -8 0.42 0.67
-2 4 7 127.42 7.57
-2 4 7 129.52 3.51
2 4 -7 129.11 7.97
2 4 -7 132.8 8.04
-2 4 6 18.22 2.81
2 4 -6 16.44 2.81
2 4 -6 23.03 3.22
-2 4 5 18.18 2.76
2 4 -5 14.94 2.48
-2 4 4 57.96 4.73
2 4 -4 54.03 4.57
-2 4 3 204.34 8.58
2 4 -3 204.92 8.55
-2 4 2 12.99 2.13
2 4 -2 11.13 1.92
2 4 -1 37.46 3.4
2 4 5 3.49 1.26
2 4 6 63.39 4.84
-2 4 -7 32.17 2.07
2 4 7 24.97 3.06
2 4 8 3.41 1.15
-2 4 -8 7.88 1.07
-2 4 -9 21.38 1.78
2 4 9 22.04 1.57
2 4 9 18.11 2.63
-2 4 -10 48.37 2.69
-2 4 -10 44.43 2.61
2 4 10 48.76 2.37
-2 4 -11 42.24 2.57
2 4 11 45.32 2.28
-2 4 -11 42.16 2.57
-2 4 -12 4.3 0.85
2 4 12 4.33 0.77
2 4 13 24.84 1.7
-2 4 -13 29.15 2.13
2 4 14 17.31 1.41
-2 4 -14 18.05 1.65
2 4 15 19.92 1.46
-2 4 -15 20.4 1.7
2 4 16 9.98 0.97
-2 4 -16 8.52 1.06
2 4 17 6.93 0.78
-2 4 -17 8.68 0.99
-2 4 -17 9 1.03
2 4 18 12.19 0.93
-2 4 -18 13 1.1
-2 4 -18 12.79 1.11
-2 4 -19 7.17 0.68
2 4 19 6.56 0.61
-2 4 -19 7.12 0.72
2 4 20 3.9 0.39
-2 4 -20 4.85 0.5
-2 5 19 0.11 0.14
-2 5 18 2.66 0.4
-2 5 17 1.17 0.33
-2 5 16 1.09 0.32
-2 5 15 6.66 0.78
-2 5 15 7.92 0.83
-2 5 14 5.19 0.73
-2 5 14 5.09 0.69
-2 5 13 84.58 2.93
-2 5 13 82.13 2.9
-2 5 12 16.89 1.34
-2 5 12 17.66 1.38
-2 5 11 102.16 3.26
-2 5 11 99.33 3.31
-2 5 10 136.94 3.79
-2 5 9 106.21 3.3
-2 5 8 15.2 2.83
2 5 -8 11.68 2.63
-2 5 8 15.26 1.25
2 5 -8 13.11 2.75
-2 5 7 47.98 5.13
-2 5 7 47.08 2.16
2 5 -7 46.82 5.14
-2 5 7 47.18 2.28
2 5 -7 47.15 4.98
-2 5 6 93.88 6.98
-2 5 6 87.27 2.88
-2 5 6 94 3.19
2 5 -6 100.45 7.39
2 5 -6 89.17 6.73
-2 5 5 80.25 6.3
-2 5 5 73.25 2.62
-2 5 5 75.41 2.84
2 5 -5 79.04 6.09
-2 5 4 124.23 7.76
-2 5 4 113.83 3.15
-2 5 4 119.76 3.52
2 5 -4 112.11 7.08
-2 5 3 8.08 2.1
-2 5 3 7.4 0.81
-2 5 3 9.06 0.98
2 5 -3 8.81 1.99
-2 5 2 33.01 1.84
2 5 -2 33.31 3.67
2 5 -1 35.02 3.66
-2 5 1 30.49 1.75
-2 5 0 131.61 3.59
-2 5 -2 28.88 1.64
-2 5 -4 8.8 1.11
-2 5 -5 73.18 3.16
2 5 5 60.58 5.03
-2 5 -6 49.28 2.64
2 5 6 40.86 4.01
-2 5 -7 53.9 2.81
2 5 7 40.67 4.07
-2 5 -8 76.07 3.38
-2 5 -9 12.29 1.39
-2 5 -10 36.58 2.39
2 5 10 37.45 2
-2 5 -11 28.17 2.11
2 5 11 30 1.79
-2 5 -11 29.47 2.14
-2 5 -12 26.58 2.03
2 5 12 26.67 1.68
-2 5 -12 27.95 2.08
2 5 13 14.96 1.23
-2 5 -13 14.23 1.46
2 5 14 8.98 0.93
-2 5 -14 8.57 1.1
-2 5 -15 2.2 0.58
2 5 15 2.71 0.52
2 5 16 6.24 0.71
-2 5 -16 5.92 0.84
2 5 17 8.8 0.74
-2 5 -17 9.5 0.93
-2 5 -17 9.72 0.95
2 5 18 0.52 0.22
-2 5 -18 1.15 0.3
-2 5 -19 0.42 0.19
-2 6 18 7.45 0.5
-2 6 17 -0.02 0.12
-2 6 16 0.31 0.19
-2 6 15 4.13 0.54
-2 6 15 4.5 0.58
-2 6 14 5.08 0.63
-2 6 14 5.55 0.69
-2 6 13 28.88 1.53
-2 6 13 29.21 1.65
2 6 -13 30.53 1.71
-2 6 12 38.19 1.83
-2 6 12 40.62 2
2 6 -12 42.4 2.1
-2 6 11 23.91 1.48
-2 6 11 25.75 1.66
2 6 -11 23.24 1.62
-2 6 10 2.16 0.48
-2 6 10 1.62 0.48
2 6 -10 2.05 0.51
-2 6 9 104.63 3.14
-2 6 9 116.73 3.62
2 6 -9 110.87 3.61
-2 6 8 61.45 2.41
-2 6 8 65.89 2.75
2 6 -8 64.73 2.8
-2 6 7 17.21 1.29
2 6 -7 18.91 1.51
-2 6 6 147.69 3.66
-2 6 6 158.01 4.24
2 6 -6 160.74 4.42
-2 6 5 107.85 3.09
-2 6 5 117.53 3.62
2 6 -5 113.51 3.73
2 6 -4 125.4 8.05
-2 6 4 108.9 3.05
-2 6 4 125.06 3.73
2 6 -4 118.7 3.81
2 6 -3 61.91 5.49
-2 6 3 57.61 2.52
-2 6 2 17.16 1.36
-2 6 1 241.45 5.06
-2 6 0 12.18 1.13
-2 6 -1 83.05 2.88
-2 6 -2 53.25 2.26
-2 6 -4 141.1 4.54
-2 6 -5 0.49 0.32
-2 6 -6 82.79 3.53
-2 6 -7 125.04 4.34
-2 6 -8 19.17 1.71
-2 6 -9 23.87 1.9
-2 6 -10 43.98 2.56
-2 6 -11 14.2 1.43
-2 6 -11 14.86 1.47
-2 6 -12 30.49 2.01
2 6 12 29.21 1.56
-2 6 -12 30.28 2.02
-2 6 -13 2.35 0.61
2 6 13 2.28 0.47
-2 6 -14 3.59 0.66
2 6 14 3.37 0.49
-2 6 -15 1.02 0.33
2 6 15 1.6 0.33
-2 6 -16 0.22 0.24
2 6 16 0 0.14
-2 6 -17 5.72 0.59
-2 6 -17 5.79 0.61
-2 7 15 8.22 0.55
-2 7 15 9.93 0.71
-2 7 14 7.8 0.6
-2 7 14 8.5 0.74
-2 7 13 7.8 0.64
-2 7 13 7.77 0.77
2 7 -13 7.72 0.74
-2 7 12 0.12 0.15
-2 7 12 0.15 0.22
2 7 -12 0.18 0.17
-2 7 11 1.84 0.35
-2 7 11 2.32 0.48
2 7 -11 2.34 0.48
-2 7 10 43.83 1.74
-2 7 10 49.47 2.16
2 7 -10 48.87 2.23
-2 7 9 25 1.33
-2 7 9 29.57 1.72
2 7 -9 28.96 1.76
-2 7 8 40.58 1.72
-2 7 8 45.55 2.16
2 7 -8 43.55 2.21
-2 7 7 22.91 1.58
2 7 -7 24.15 1.68
-2 7 6 25.59 1.66
2 7 -6 25.92 1.76
-2 7 5 9.26 1.02
2 7 -5 10.51 1.18
-2 7 4 126.1 3.67
2 7 -4 131.92 4.05
-2 7 3 99.24 3.23
2 7 -3 100.36 3.57
-2 7 2 72.51 2.73
-2 7 1 36.08 1.91
-2 7 0 14.41 1.18
-2 7 -1 51.07 2.16
-2 7 -3 49.64 2.69
-2 7 -4 20.43 1.74
-2 7 -5 17.74 1.61
-2 7 -6 28.44 2.01
-2 7 -7 17.12 1.56
-2 7 -8 51.67 2.66
-2 7 -9 5.13 0.83
-2 7 -10 3.89 0.74
-2 7 -10 2.62 0.62
-2 7 -11 5.27 0.8
-2 7 -11 6.39 0.87
-2 7 -12 9.21 0.99
-2 7 -13 0.04 0.19
-2 7 -14 1.61 0.39
-2 7 -15 4.67 0.55
-2 8 14 2.51 0.3
-2 8 13 4.76 0.47
-2 8 12 2.87 0.41
-2 8 11 0.36 0.2
2 8 -11 0.59 0.21
-2 8 10 3.95 0.54
2 8 -10 4.51 0.59
-2 8 9 11.41 0.93
2 8 -9 10.79 0.94
-2 8 8 4.22 0.6
2 8 -8 4.45 0.65
-2 8 7 17.24 1.19
2 8 -7 17.73 1.31
-2 8 6 6.07 0.73
2 8 -6 5.67 0.79
-2 8 5 15.43 1.16
2 8 -5 15.5 1.31
-2 8 4 5.9 0.73
2 8 -4 5.57 0.81
-2 8 3 20.21 1.33
2 8 -3 22.55 1.61
-2 8 2 34.88 1.71
2 8 -2 37.9 2.11
-2 8 1 4.06 0.59
2 8 -1 3.58 0.71
-2 8 -1 14.07 1.34
-2 8 -2 27.92 1.89
-2 8 -3 23.74 1.73
-2 8 -4 2.76 0.61
-2 8 -5 11.18 1.18
-2 8 -6 0.31 0.25
-2 8 -7 5.12 0.78
-2 8 -8 1.1 0.39
-2 8 -9 11.97 1.1
-2 8 -9 11.12 1.06
-2 8 -10 1.02 0.31
-2 8 -10 0.54 0.27
-2 8 -11 15.99 1.12
-2 8 -12 0.73 0.27
-2 8 -13 0.06 0.12
-2 9 10 -0.23 0.12
-2 9 9 4.72 0.45
-2 9 8 0.25 0.11
2 9 -8 0.01 0.1
-2 9 7 -0.13 0.12
2 9 -7 -0.24 0.18
-2 9 6 1.5 0.29
2 9 -6 1.93 0.37
-2 9 5 9.86 0.72
2 9 -5 11.08 0.91
-2 9 4 9.36 0.7
2 9 -4 10.44 0.92
-2 9 3 23.27 1.08
2 9 -3 24.72 1.43
-2 9 2 1.63 0.44
2 9 -2 1.91 0.46
-2 9 1 10.2 0.97
2 9 -1 10.29 0.95
-2 9 0 8.55 0.9
2 9 0 8.18 0.88
-2 9 -1 13.18 1.11
2 9 1 13.21 1.09
-2 9 -2 11.84 1.05
2 9 2 12.51 1.07
-2 9 -3 3.41 0.56
2 9 3 3.14 0.55
-2 9 -4 5.29 0.69
-2 9 -5 4.03 0.6
-2 9 -6 9.11 0.86
-2 9 -7 4.7 0.59
-2 9 -7 5.4 0.65
-2 9 -8 5.15 0.6
-2 9 -8 4.85 0.56
-2 9 -9 1.48 0.3
-2 9 -10 22.87 1
-2 10 3 1.32 0.25
-2 10 2 2.24 0.32
-2 10 1 3.27 0.4
-2 10 0 5.31 0.51
-2 10 -1 29.85 1.2
-2 10 -2 1.94 0.31
-2 10 -3 12.1 0.73
-3 -8 4 4.8 0.52
-3 -8 3 14.12 0.91
-3 -8 2 5.97 0.62
-3 -8 1 2.89 0.46
-3 -8 0 3.76 0.52
-3 -8 -1 2.97 0.48
-3 -8 -2 0.33 0.22
-3 -8 -3 4.5 0.57
-3 -8 -4 3.87 0.5
-3 -8 -5 0.94 0.28
-3 -8 -6 0.4 0.19
-3 -8 -7 0.11 0.12
-3 -7 5 3.74 0.57
-3 -7 4 14.68 1.1
-3 -7 3 3.84 0.61
-3 -7 2 3.81 0.61
-3 -7 1 0.06 0.23
-3 -7 0 17.54 1.31
-3 -7 -1 1.9 0.5
-3 -7 -2 7.98 0.91
-3 -7 -3 9.23 0.98
-3 -7 -4 1.37 0.45
-3 -7 -5 10.23 1.01
-3 -7 -6 3.24 0.56
-3 -7 -7 6.7 0.75
-3 -7 -8 0.29 0.24
-3 -7 -9 2.83 0.44
-3 -7 -10 0.34 0.19
-3 -6 12 3.93 0.58
-3 -6 11 16.19 1.22
-3 -6 10 17.49 1.32
-3 -6 9 12.07 1.12
-3 -6 8 6.68 0.85
-3 -6 7 11.68 1.15
-3 -6 6 2.91 0.53
-3 -6 6 3.52 0.64
-3 -6 5 6.7 0.83
-3 -6 5 8.15 0.98
-3 -6 4 3.38 0.67
-3 -6 3 24.3 1.61
-3 -6 2 25.8 1.73
-3 -6 1 100.02 3.43
-3 -6 0 19.63 1.56
-3 -6 -1 14.28 1.36
-3 -6 -2 8.15 1.07
-3 -6 -3 15.51 1.41
-3 -6 -4 16.05 1.44
-3 -6 -5 4.52 0.81
-3 -6 -6 9.47 1.09
-3 -6 -7 5.94 0.85
-3 -6 -8 5.86 0.81
-3 -6 -9 12.01 1.1
-3 -6 -10 20.95 1.34
-3 -6 -11 5.79 0.66
-3 -6 -12 0.55 0.25
-3 -5 13 1.78 0.47
-3 -5 12 1.42 0.43
-3 -5 11 26.9 1.77
-3 -5 10 16.03 1.4
-3 -5 9 30.44 1.95
-3 -5 8 6.39 0.93
-3 -5 7 21.81 1.66
-3 -5 6 20.46 1.62
-3 -5 5 47.13 2.24
-3 -5 4 54.88 2.5
-3 -5 3 24.86 1.74
-3 -5 2 49.64 2.48
-3 -5 1 39.15 2.3
-3 -5 0 35.79 2.27
-3 -5 -1 26.22 1.99
-3 -5 -2 11.16 1.34
-3 -5 -3 10.8 1.28
-3 -5 -4 17.13 1.64
-3 -5 -5 27.37 2.02
-3 -5 -6 9.49 1.21
-3 -5 -7 3.89 0.81
-3 -5 -8 27.22 1.89
-3 -5 -9 34.57 2.08
-3 -5 -10 6.47 0.91
-3 -5 -11 0.91 0.36
-3 -5 -12 2.84 0.56
-3 -5 -13 23.07 1.31
-3 -5 -14 2.2 0.39
-3 -4 12 11 1.17
-3 -4 11 34.92 2.11
-3 -4 10 2.32 0.66
-3 -4 9 68.02 2.97
-3 -4 8 75.29 3.14
-3 -4 7 22.01 1.68
-3 -4 4 79.51 3.03
-3 -4 3 1.1 0.42
-3 -4 2 19.94 1.62
-3 -4 1 0.05 0.32
-3 -4 0 27.56 1.99
-3 -4 -1 37.66 2.36
-3 -4 -2 26.63 2
-3 -4 -3 15.25 1.51
-3 -4 -4 3.73 0.85
-3 -4 -5 0.86 0.47
-3 -4 -6 32.73 2.25
-3 -4 -7 5.35 0.96
-3 -4 -8 16.66 1.63
-3 -4 -9 24.66 1.92
-3 -4 -10 5.81 0.94
-3 -4 -11 0.34 0.35
-3 -4 -12 3.94 0.74
-3 -4 -13 10.05 1.01
-3 -4 -14 5.75 0.73
-3 -4 -15 2.1 0.4
-3 -4 -16 3.61 0.41
3 -4 17 3.1 0.36
-3 -3 18 2.38 0.32
-3 -3 17 5.4 0.53
-3 -3 16 6.35 0.62
-3 -3 15 18.34 1.11
-3 -3 14 13.64 1
-3 -3 13 6.56 0.73
-3 -3 12 31.04 1.59
-3 -3 11 22.74 1.74
-3 -3 11 22.69 1.4
-3 -3 10 82.84 3.31
-3 -3 10 83.52 2.66
-3 -3 9 54.88 2.64
-3 -3 9 47.44 2.02
-3 -3 8 11.39 1.01
-3 -3 7 26.14 1.45
-3 -3 5 9 2.07
-3 -3 4 29.55 3.43
-3 -3 3 42.44 4.29
-3 -3 2 14.58 1.38
-3 -3 2 16.61 2.75
-3 -3 1 0.59 0.6
-3 -3 1 -0.31 0.32
-3 -3 0 20.44 1.67
-3 -3 0 25.96 3.54
-3 -3 -1 2.14 1.15
-3 -3 -1 1.26 0.52
-3 -3 -2 47.42 2.61
-3 -3 -2 51.21 5.04
-3 -3 -3 15.05 1.52
-3 -3 -3 21.55 3.27
-3 -3 -4 12.62 1.38
-3 -3 -4 12.4 2.55
-3 -3 -5 175.23 4.99
-3 -3 -6 128.85 4.4
-3 -3 -7 26.74 2.07
-3 -3 -8 47.36 2.64
-3 -3 -9 22.82 1.9
-3 -3 -10 1.74 0.62
-3 -3 -11 9.42 1.23
-3 -3 -12 4.82 0.84
-3 -3 -13 1.17 0.44
-3 -3 -14 4.41 0.74
-3 -3 -15 6.86 0.79
-3 -3 -16 0.34 0.23
-3 -3 -17 7.75 0.6
3 -3 17 11.15 0.79
3 -3 18 3.78 0.39
-3 -2 19 0.97 0.22
3 -2 -18 2.14 0.4
-3 -2 18 2.59 0.4
3 -2 -17 12.02 0.97
-3 -2 17 13.99 0.94
3 -2 -16 6.72 0.78
-3 -2 16 6.04 0.67
-3 -2 15 10.74 0.94
-3 -2 14 17.22 1.23
-3 -2 13 24.98 1.52
-3 -2 12 1.24 0.36
-3 -2 11 66.23 2.52
-3 -2 10 11.02 1.2
-3 -2 10 8.36 0.92
-3 -2 9 32.31 1.77
-3 -2 8 24.93 1.54
-3 -2 7 39.21 1.89
-3 -2 6 62.29 5
-3 -2 6 50.33 2.08
-3 -2 5 10.91 2.07
-3 -2 5 8.8 0.86
-3 -2 4 21.25 2.97
-3 -2 4 15.86 1.13
-3 -2 3 51.64 4.62
-3 -2 3 46.12 1.86
-3 -2 2 26.96 3.41
-3 -2 1 19.54 2.87
-3 -2 0 15.03 2.59
-3 -2 -1 35.27 1.72
-3 -2 -1 31.37 1.99
-3 -2 -1 36.43 4.12
-3 -2 -2 7.18 0.81
-3 -2 -2 6.91 0.98
-3 -2 -2 4.51 1.47
-3 -2 -3 121.01 3.27
-3 -2 -3 105.31 3.74
-3 -2 -3 115.14 7.5
3 -2 4 17.7 2.19
-3 -2 -4 23.64 1.48
-3 -2 -4 16.75 1.52
-3 -2 -4 18.43 3.13
3 -2 5 67.59 4.38
-3 -2 -5 70.43 3.17
-3 -2 -5 71.12 6.04
3 -2 6 108.91 5.65
-3 -2 -6 115.53 4.03
-3 -2 -6 121.19 7.97
3 -2 7 245.5 8.77
-3 -2 -7 281.68 6.34
-3 -2 -8 42.42 2.55
-3 -2 -9 21.74 1.83
-3 -2 -9 20.79 1.65
-3 -2 -10 28.61 2.09
-3 -2 -10 28.39 1.93
-3 -2 -11 3.52 0.8
-3 -2 -11 3.39 0.69
-3 -2 -12 7.41 1.09
-3 -2 -13 3.24 0.74
-3 -2 -14 5.53 0.85
-3 -2 -15 1.35 0.44
-3 -2 -16 4.32 0.63
-3 -2 -17 6.52 0.67
3 -2 17 6.6 0.67
3 -2 18 0.83 0.26
-3 -1 20 2.6 0.29
3 -1 -19 2.95 0.42
-3 -1 19 3.27 0.4
-3 -1 18 0.64 0.25
3 -1 -18 1.14 0.36
-3 -1 17 0.95 0.31
-3 -1 16 -0.24 0.24
-3 -1 15 11.38 1.01
-3 -1 14 2.25 0.47
-3 -1 13 33.41 1.81
-3 -1 12 59.29 2.45
-3 -1 11 29.13 1.74
-3 -1 10 13.09 1.18
-3 -1 9 138.51 3.71
-3 -1 8 9.97 1.01
-3 -1 7 41.05 1.96
-3 -1 6 101.92 6.35
-3 -1 6 82.86 2.72
-3 -1 5 37.24 3.8
-3 -1 5 31.71 1.65
-3 -1 4 142.03 7.51
-3 -1 4 126.12 3.19
-3 -1 3 7.88 1.8
-3 -1 2 99.12 6.36
-3 -1 1 39.8 4.07
-3 -1 0 44.16 4.33
3 -1 1 21.42 2.44
-3 -1 -1 22.5 3.14
3 -1 2 6.22 1.32
-3 -1 -2 10.69 0.98
-3 -1 -2 9.74 2.09
3 -1 3 22.74 2.61
-3 -1 -3 24.52 1.28
-3 -1 -3 27.05 1.56
-3 -1 -3 23.86 1.73
-3 -1 -3 24.2 3.3
3 -1 4 7.1 1.51
-3 -1 -4 7.32 0.72
-3 -1 -4 8.33 0.91
-3 -1 -4 7.18 0.98
-3 -1 -4 7.95 1.92
3 -1 5 4.31 1.16
-3 -1 -5 7.06 0.72
-3 -1 -5 6.48 0.81
-3 -1 -5 6.35 1.77
3 -1 6 11.57 2.03
-3 -1 -6 15.73 1.28
-3 -1 -6 12.3 1.3
-3 -1 -6 15.17 2.65
3 -1 7 13.04 2.08
-3 -1 -7 13.45 1.19
-3 -1 -7 11.47 1.29
-3 -1 -7 14.71 2.75
-3 -1 -8 21.23 1.53
-3 -1 -8 14.62 1.45
-3 -1 -9 19.37 1.71
-3 -1 -9 18.21 1.52
-3 -1 -10 9.81 1.2
-3 -1 -10 7.52 1.02
-3 -1 -11 5.33 0.93
-3 -1 -11 5.21 0.85
-3 -1 -12 10.11 1.27
-3 -1 -12 9.83 1.13
-3 -1 -13 0.67 0.41
-3 -1 -13 0.77 0.41
-3 -1 -14 6.72 0.94
-3 -1 -14 5.29 0.83
-3 -1 -15 1.2 0.48
-3 -1 -15 0.27 0.32
-3 -1 -16 0.18 0.24
3 -1 16 0.45 0.26
-3 -1 -17 1.44 0.36
3 -1 17 1.09 0.32
-3 -1 -18 4.88 0.53
3 -1 18 5.34 0.55
3 -1 19 1.88 0.28
-3 0 20 0.05 0.1
3 0 -20 0.18 0.13
-3 0 19 15.34 0.82
-3 0 18 7.94 0.69
-3 0 17 -0.24 0.2
-3 0 16 0.61 0.28
-3 0 15 28.95 1.58
-3 0 14 7.99 0.87
-3 0 13 15.23 1.24
-3 0 12 6.79 0.85
-3 0 11 85.95 2.96
-3 0 10 142.41 3.78
-3 0 9 3.91 0.65
-3 0 9 3.34 0.54
3 0 -9 5.21 1.73
-3 0 8 0.06 0.28
-3 0 8 -0.08 0.22
-3 0 7 58.36 2.16
-3 0 7 62.86 2.42
-3 0 6 1.03 0.41
-3 0 6 0.75 0.25
-3 0 5 33.08 1.6
-3 0 5 31.77 1.65
-3 0 4 23.11 2.98
-3 0 4 23.16 1.39
-3 0 3 140.28 7.34
3 0 -2 0.73 0.65
-3 0 2 1.15 0.76
-3 0 1 176.75 8.26
3 0 -1 171.88 7.41
3 0 0 4.24 1.2
-3 0 0 2.74 1.17
-3 0 -1 43.23 4.16
3 0 1 39.45 3.6
-3 0 -2 13.18 1.11
-3 0 -2 12.55 2.29
3 0 2 16.58 2.32
-3 0 -3 77.37 2.33
-3 0 -3 77.72 2.69
-3 0 -3 80.65 2.28
3 0 3 74.37 4.99
-3 0 -4 42.28 1.72
-3 0 -4 47.06 2.13
-3 0 -4 38.87 2.19
-3 0 -4 46.69 4.41
-3 0 -4 46.72 1.71
3 0 4 40.28 3.72
3 0 5 15.4 2.29
-3 0 -5 15.07 1.03
-3 0 -5 14.94 1.22
-3 0 -5 14.97 1.38
-3 0 -5 16.86 1.03
-3 0 -5 16.94 2.71
3 0 6 2.82 1.06
-3 0 -6 3.23 0.5
-3 0 -6 4.75 1.47
-3 0 -6 3.34 0.61
-3 0 -6 2.91 0.62
3 0 7 8.22 1.85
-3 0 -7 7.6 0.92
-3 0 -7 6.85 1.03
-3 0 -7 8.56 1.86
-3 0 -8 0.92 0.76
-3 0 -8 1.89 0.53
-3 0 -8 1.57 0.57
-3 0 -9 9.46 1
-3 0 -9 7.04 1.06
-3 0 -9 6.01 0.88
-3 0 -10 4.47 0.89
-3 0 -10 4.13 0.8
-3 0 -11 2.58 0.69
-3 0 -11 3.15 0.69
-3 0 -12 0.11 0.3
-3 0 -12 0.52 0.36
-3 0 -13 12.9 1.33
-3 0 -13 11.82 1.24
-3 0 -14 5.15 0.84
-3 0 -14 5 0.8
-3 0 -15 9.67 1.07
-3 0 -15 8.93 1.01
3 0 15 9.37 0.93
-3 0 -16 0.41 0.32
3 0 16 -0.07 0.21
-3 0 -16 0.27 0.28
-3 0 -17 2.03 0.45
3 0 17 2.01 0.38
-3 0 -17 1.7 0.45
-3 0 -18 0.38 0.23
3 0 18 0.5 0.21
3 0 19 1.18 0.23
3 1 -20 2.6 0.35
-3 1 19 2.61 0.32
-3 1 18 0.51 0.19
-3 1 17 1.74 0.37
-3 1 16 0.35 0.21
-3 1 15 12.76 1.01
-3 1 14 2.7 0.53
-3 1 14 2.89 0.49
-3 1 13 36.08 1.76
-3 1 13 32.83 1.76
-3 1 12 70.38 2.51
-3 1 12 62.46 2.45
-3 1 11 35.45 1.82
-3 1 11 32.14 1.78
-3 1 10 11.7 1.06
-3 1 10 10.68 1.04
-3 1 9 143.13 3.68
-3 1 9 141.3 3.65
-3 1 8 10.22 0.99
-3 1 8 9.95 0.99
-3 1 7 39.7 1.91
-3 1 7 38.35 1.83
-3 1 7 40.16 1.91
-3 1 6 79.44 2.68
-3 1 6 80.95 2.66
-3 1 6 86.71 2.77
-3 1 5 31.31 1.66
-3 1 5 31.86 1.67
-3 1 5 35.18 1.73
-3 1 4 124.31 3.26
-3 1 4 131.32 3.39
-3 1 4 129.03 3.28
-3 1 3 7.13 0.79
-3 1 3 8.99 1.78
-3 1 3 7.16 0.76
-3 1 2 93.06 5.81
-3 1 2 90.04 2.65
-3 1 1 35.87 3.54
-3 1 1 35.37 1.65
3 1 -1 38.34 3.78
-3 1 0 44.25 4.01
-3 1 0 44.08 1.81
3 1 0 49.38 4.32
-3 1 -1 19.34 1.22
-3 1 -1 19.85 1.37
-3 1 -1 21.12 2.74
-3 1 -1 20.18 1.19
3 1 1 19.94 2.82
3 1 2 8.77 1.86
-3 1 -2 10.06 0.88
-3 1 -2 10.96 1.05
-3 1 -2 9.19 1.79
-3 1 -2 10.41 0.85
-3 1 -3 23.76 1.35
-3 1 -3 22.32 1.51
-3 1 -3 26.35 3.12
-3 1 -3 25.44 1.32
3 1 3 22.72 2.98
3 1 4 5.97 1.56
-3 1 -4 7.32 0.75
-3 1 -4 6.86 0.87
-3 1 -4 8.16 1.73
-3 1 -4 6.48 0.91
-3 1 -4 8.43 0.77
3 1 5 3.53 1.22
-3 1 -5 5.73 0.67
-3 1 -5 7.56 0.9
-3 1 -5 6.06 1.49
-3 1 -5 5.62 0.87
-3 1 -5 6.37 0.68
3 1 6 11.18 2.17
-3 1 -6 14.38 1.05
-3 1 -6 14.88 1.25
-3 1 -6 14.98 2.43
-3 1 -6 12.55 1.3
3 1 7 10.92 2.11
-3 1 -7 11.97 0.98
-3 1 -7 12.88 1.15
-3 1 -7 11.26 1.27
-3 1 -8 19.16 1.4
-3 1 -8 16.14 1.51
-3 1 -9 21.7 1.5
-3 1 -9 20.67 1.73
-3 1 -9 19.56 1.54
-3 1 -9 19.04 1.55
-3 1 -10 10.22 1.01
-3 1 -10 8.57 1.17
-3 1 -10 7.69 1.01
-3 1 -10 6.83 0.98
-3 1 -11 5.81 0.97
-3 1 -11 5.88 0.87
-3 1 -12 12.08 1.33
3 1 12 10.23 1.05
-3 1 -12 10.98 1.17
-3 1 -13 0.37 0.38
3 1 13 0.89 0.36
-3 1 -13 0.72 0.38
-3 1 -14 6.9 0.94
3 1 14 6.1 0.8
-3 1 -14 6.49 0.9
-3 1 -15 1.27 0.46
3 1 15 1.08 0.35
-3 1 -15 0.79 0.38
-3 1 -16 0.44 0.34
3 1 16 0.49 0.28
-3 1 -16 -0.14 0.27
-3 1 -17 1.24 0.36
3 1 17 1.47 0.34
-3 1 -17 1.6 0.41
-3 1 -18 4.92 0.56
-3 1 -18 4.09 0.55
3 1 18 5.5 0.53
-3 2 18 1.98 0.29
-3 2 17 12.27 0.77
-3 2 16 5.5 0.62
-3 2 16 5.72 0.59
-3 2 15 10.16 0.9
-3 2 15 10.11 0.82
-3 2 14 17.33 1.23
-3 2 14 15.8 1.09
-3 2 13 27.36 1.6
-3 2 13 27.77 1.5
-3 2 12 2.09 0.46
-3 2 12 0.79 0.33
-3 2 11 68.03 2.64
-3 2 11 86.93 2.75
-3 2 10 9.03 0.99
-3 2 10 10.93 1
-3 2 9 37.89 1.91
-3 2 9 41.16 1.9
-3 2 8 25.55 1.65
-3 2 8 28.58 1.66
-3 2 8 26.25 1.52
-3 2 7 42.28 2.07
-3 2 7 44.49 2.07
-3 2 7 43.42 1.93
-3 2 6 52.94 2.29
-3 2 6 55.3 2.3
-3 2 6 56.46 2.2
-3 2 5 9.76 0.98
-3 2 5 9.87 0.99
-3 2 5 9.19 0.89
-3 2 4 16.73 1.27
-3 2 4 16.17 1.26
-3 2 4 17.7 1.21
-3 2 3 48.42 2.1
-3 2 3 50.15 2.21
-3 2 3 48.39 1.96
-3 2 2 23.12 1.45
-3 2 2 24 1.54
-3 2 2 24.31 1.38
-3 2 1 16.2 1.19
-3 2 1 14.03 1.18
-3 2 1 15.3 1.09
-3 2 0 14.89 1.13
-3 2 0 15.42 1.26
-3 2 0 15.03 2.27
-3 2 0 15.85 1.09
-3 2 -1 34.7 1.7
-3 2 -1 33.75 1.86
-3 2 -1 31.3 3.24
-3 2 -1 33.19 1.54
3 2 1 30.26 3.63
3 2 2 3.8 1.27
-3 2 -2 5.87 0.71
-3 2 -2 5.83 0.8
-3 2 -2 7.06 1.53
-3 2 -2 6.83 0.7
-3 2 -3 107.32 2.93
-3 2 -3 101.84 3.27
-3 2 -3 103.85 5.79
-3 2 -3 114.19 2.81
3 2 3 96.75 6.44
-3 2 -4 16.88 1.15
-3 2 -4 16.94 1.36
-3 2 -4 19.93 1.2
3 2 4 15.61 2.58
-3 2 -5 75.55 2.4
-3 2 -5 71.78 2.71
-3 2 -6 124.2 3.06
-3 2 -6 121.3 3.5
-3 2 -7 309.56 4.83
-3 2 -7 286.17 5.34
-3 2 -8 49.18 2.19
-3 2 -8 42.3 2.3
-3 2 -9 24.28 1.54
-3 2 -9 23.31 1.74
-3 2 -10 32.9 1.76
-3 2 -10 30.55 1.92
-3 2 -10 30.65 2
3 2 11 5.08 0.73
-3 2 -11 4.25 0.77
-3 2 -11 4.77 0.84
3 2 12 7.83 0.86
-3 2 -12 6.92 0.94
-3 2 -12 6.35 0.93
-3 2 -13 2.8 0.67
-3 2 -13 3.81 0.75
3 2 13 2.16 0.49
-3 2 -13 3.18 0.64
-3 2 -14 5.16 0.85
3 2 14 5.02 0.66
-3 2 -14 5.79 0.8
-3 2 -15 0.71 0.38
3 2 15 0.56 0.28
-3 2 -15 0.7 0.33
-3 2 -16 4.89 0.71
3 2 16 4.65 0.56
-3 2 -16 3.97 0.63
-3 2 -17 6.97 0.74
-3 2 -17 5.51 0.67
3 2 17 6.63 0.59
-3 2 -18 0.91 0.27
3 2 18 0.49 0.18
-3 2 -18 0.48 0.21
-3 3 17 5.13 0.54
-3 3 16 6.34 0.66
-3 3 16 5.24 0.47
-3 3 15 17.18 1.16
-3 3 15 16.24 0.91
-3 3 14 13.03 1.08
-3 3 14 13.93 0.91
-3 3 13 5.21 0.72
-3 3 13 5.07 0.74
-3 3 12 33.36 1.84
-3 3 12 29.52 1.45
-3 3 11 24.64 1.62
-3 3 11 23.89 1.48
-3 3 11 19.65 1.22
-3 3 10 89.31 3.12
-3 3 10 83.97 2.88
-3 3 10 79.58 2.48
-3 3 9 56.42 2.49
-3 3 9 52.17 2.31
-3 3 9 50.2 2
-3 3 8 12.75 1.19
-3 3 8 10.82 1.08
-3 3 8 10.33 0.92
-3 3 7 30.92 1.83
-3 3 7 26.74 1.7
-3 3 7 28.93 1.52
-3 3 6 3.12 0.53
-3 3 6 3.12 0.62
-3 3 5 8.88 0.97
-3 3 5 7.87 0.92
-3 3 5 7.66 0.78
-3 3 4 26.3 1.62
-3 3 4 24.18 1.62
-3 3 4 24.78 1.39
-3 3 3 42.58 2.02
-3 3 3 40.14 2.08
-3 3 3 41.15 1.78
-3 3 2 15.55 1.22
-3 3 2 15.24 1.29
-3 3 2 14.44 1.04
-3 3 1 0.08 0.17
-3 3 1 0.21 0.27
-3 3 0 20.04 1.35
-3 3 0 19.37 1.48
-3 3 0 20.5 1.24
-3 3 -1 1.47 0.36
-3 3 -1 1.01 0.34
-3 3 -1 1.64 0.48
-3 3 -2 52.08 2.09
-3 3 -2 50.43 2.33
-3 3 -2 55.79 2
3 3 2 49.54 4.86
3 3 3 15.02 2.62
-3 3 -3 16.36 1.16
-3 3 -3 18.89 1.43
-3 3 -3 19.23 1.18
3 3 4 15.02 2.68
-3 3 -4 14.27 1.08
-3 3 -4 13.59 1.21
-3 3 -4 14.96 1.06
-3 3 -5 179.84 3.69
-3 3 -5 180.74 4.34
-3 3 -6 139.29 3.23
-3 3 -6 136.61 3.72
-3 3 -7 29.87 1.49
-3 3 -7 27.31 1.64
-3 3 -8 50.72 2.16
-3 3 -8 46.01 2.41
-3 3 -9 26.44 1.52
-3 3 -9 22.64 1.72
-3 3 -10 2.23 0.54
-3 3 -10 3.06 0.54
-3 3 -10 2.81 0.6
-3 3 -11 8.02 1.02
-3 3 -11 9.49 1.13
-3 3 -12 5.11 0.8
-3 3 -12 5.17 0.83
-3 3 -13 1.41 0.48
3 3 13 1.14 0.35
-3 3 -14 4.47 0.76
3 3 14 3.98 0.52
-3 3 -14 5.15 0.77
-3 3 -14 5.21 0.79
-3 3 -15 6.66 0.84
3 3 15 6.73 0.64
-3 3 -15 6.98 0.81
-3 3 -16 0.73 0.31
3 3 16 0.67 0.24
-3 3 -16 0.48 0.26
-3 3 -17 12.91 0.92
3 3 17 9.49 0.58
-3 4 17 0.89 0.22
-3 4 16 2.3 0.38
-3 4 15 1.14 0.3
-3 4 14 3.58 0.55
-3 4 13 21.53 1.37
-3 4 12 10.87 1.01
-3 4 12 11.35 0.99
-3 4 12 9.45 0.72
-3 4 11 36.75 1.9
-3 4 11 34.51 1.8
-3 4 10 2.51 0.43
-3 4 10 3.25 0.6
-3 4 10 2.13 0.47
-3 4 9 70.49 2.73
-3 4 9 63.94 2.63
-3 4 9 64.8 2.04
-3 4 8 69.02 2.76
-3 4 8 72.54 2.21
-3 4 7 20 1.52
-3 4 7 22.4 1.26
-3 4 6 9.17 1.06
-3 4 6 11.43 0.91
-3 4 5 9 0.97
-3 4 5 8.05 1.01
-3 4 5 7.5 0.75
-3 4 4 83.83 2.9
-3 4 4 80.24 2.36
-3 4 3 0.31 0.25
-3 4 3 0.69 0.31
-3 4 3 0.71 0.38
-3 4 2 22.4 1.45
-3 4 2 21.23 1.59
-3 4 2 22.84 1.28
-3 4 1 0.19 0.24
-3 4 1 0.29 0.26
-3 4 1 -0.09 0.31
-3 4 0 31.35 1.67
-3 4 0 31.38 1.91
-3 4 0 31.82 1.49
-3 4 -1 40.55 1.86
-3 4 -1 41.54 2.17
-3 4 -1 43.34 1.74
-3 4 -2 27.1 1.5
-3 4 -2 25.65 1.69
-3 4 -2 31.01 1.48
-3 4 -3 14.55 1.09
-3 4 -3 15.49 1.31
-3 4 -4 3.66 0.56
-3 4 -4 3.37 0.62
-3 4 -5 0.72 0.29
-3 4 -5 0.76 0.3
-3 4 -6 32.56 2.06
-3 4 -6 34.84 1.58
-3 4 -6 35.64 1.86
-3 4 -7 4.8 0.82
-3 4 -7 4.46 0.79
-3 4 -7 6.27 0.68
-3 4 -7 5.65 0.74
-3 4 -8 17.17 1.2
-3 4 -8 16.77 1.46
-3 4 -9 25.19 1.8
-3 4 -10 5.79 0.89
-3 4 -11 0.55 0.31
-3 4 -12 3.64 0.71
-3 4 -13 9.35 1.01
-3 4 -14 6.69 0.82
-3 4 -14 6.43 0.81
-3 4 -15 2.77 0.52
-3 4 -16 5.03 0.58
-3 4 -17 2.83 0.37
-3 5 16 0.53 0.17
-3 5 15 5.81 0.55
-3 5 14 0.54 0.22
-3 5 13 1.68 0.36
-3 5 12 2.01 0.42
-3 5 12 1.59 0.39
-3 5 11 26.85 1.48
-3 5 11 22.76 1.42
-3 5 10 17.12 1.22
-3 5 10 12.72 1.12
-3 5 9 33.9 1.77
-3 5 9 29.13 1.74
-3 5 8 8.6 0.93
-3 5 8 8.6 0.98
-3 5 7 21.25 1.44
-3 5 7 22.09 1.58
-3 5 6 21.02 1.43
-3 5 6 21.51 1.59
-3 5 5 52.31 2.22
-3 5 5 51.84 2.5
-3 5 5 48.34 1.67
-3 5 4 51.84 2.21
-3 5 4 51.48 2.48
-3 5 4 53.16 1.78
-3 5 3 25.55 1.53
-3 5 3 25.04 1.73
-3 5 3 25.98 1.26
-3 5 2 50.74 2.11
-3 5 2 51.95 2.49
-3 5 2 54.12 1.82
-3 5 1 43.56 1.93
-3 5 1 45.94 2.32
-3 5 1 43.12 1.65
-3 5 0 37.6 1.76
-3 5 0 36.71 2.06
-3 5 0 40.91 1.62
-3 5 -1 28.99 1.52
-3 5 -1 30.15 1.86
-3 5 -2 13.88 1.04
-3 5 -2 15.29 1.3
-3 5 -3 10.97 0.9
-3 5 -3 10.48 1.07
-3 5 -4 16.1 1.42
-3 5 -4 17.22 1.09
-3 5 -4 17.53 1.33
-3 5 -5 25.15 1.79
-3 5 -5 30.27 1.4
-3 5 -5 29.1 1.65
-3 5 -6 7.74 1.02
-3 5 -6 10.06 0.8
-3 5 -6 8.95 0.9
-3 5 -6 9.31 1.06
-3 5 -7 3.7 0.71
-3 5 -7 5.87 0.86
-3 5 -8 26.73 1.84
-3 5 -8 26.95 1.8
-3 5 -9 34.24 1.99
-3 5 -10 7.45 0.94
-3 5 -11 0.72 0.31
-3 5 -12 4 0.66
-3 5 -13 24.14 1.45
-3 5 -14 2.61 0.46
-3 5 -14 2.18 0.43
-3 5 -15 1.71 0.33
-3 6 15 1.93 0.23
-3 6 14 1.7 0.26
-3 6 13 1.29 0.25
-3 6 12 4.53 0.5
-3 6 12 4.89 0.56
-3 6 11 16.58 0.99
-3 6 11 15.91 1.08
-3 6 10 16.57 1.03
-3 6 10 16.4 1.16
-3 6 9 11.16 0.89
-3 6 9 11.29 1.02
-3 6 8 5.85 0.65
-3 6 8 5.95 0.77
-3 6 7 10.94 0.9
-3 6 7 11.28 1.06
-3 6 6 3.31 0.53
-3 6 6 2.94 0.58
-3 6 5 7.35 0.76
-3 6 5 7.53 0.9
-3 6 4 3.68 0.55
-3 6 4 2.82 0.58
-3 6 3 24.5 1.35
-3 6 3 23.07 1.59
-3 6 2 24.82 1.34
-3 6 2 26.17 1.68
-3 6 1 103.94 2.69
-3 6 1 110.56 3.42
-3 6 0 21.8 1.21
-3 6 0 23.09 1.55
-3 6 -1 16.28 1.02
-3 6 -1 16.77 1.31
-3 6 -2 8.76 1
-3 6 -2 8.83 0.74
-3 6 -2 8.48 0.91
-3 6 -3 18.07 1.45
-3 6 -3 17.26 0.99
-3 6 -3 16.5 1.21
-3 6 -4 17.9 1.45
-3 6 -4 17.72 1.22
-3 6 -5 4.59 0.77
-3 6 -6 10.9 1.13
-3 6 -7 4.69 0.74
-3 6 -8 6.47 0.86
-3 7 12 3.07 0.35
-3 7 11 6.6 0.45
-3 7 11 7.2 0.6
-3 7 10 6.84 0.5
-3 7 10 6.86 0.64
-3 7 9 3.48 0.38
-3 7 9 3.56 0.49
-3 7 8 1 0.24
-3 7 8 0.77 0.27
-3 7 7 24.91 1.07
-3 7 7 27.75 1.45
-3 7 6 17.93 0.93
-3 7 6 21.09 1.3
-3 7 5 4.08 0.46
-3 7 5 3.74 0.58
-3 7 4 15.12 0.86
-3 7 4 16.66 1.17
-3 7 3 3.27 0.41
-3 7 3 3.51 0.56
-3 7 2 3.45 0.55
-3 7 1 0.07 0.18
-3 7 0 18.28 1.18
-3 7 -1 2.15 0.43
-3 7 -2 8.77 0.77
-3 7 -6 3.62 0.59
-3 7 -7 7.65 0.82
-3 8 9 2.09 0.28
-3 8 8 0.99 0.21
-3 8 7 11.42 0.71
-3 8 6 10.67 0.72
-3 8 5 9.1 0.68
-3 8 4 5.22 0.52
-3 8 3 13.66 0.83
-3 8 2 6.29 0.57
-3 8 1 3.46 0.41
-3 8 0 3.46 0.39
-4 -6 -3 1.05 0.25
-4 -6 -4 -0.05 0.15
-4 -6 -5 0.18 0.15
-4 -6 -6 1.37 0.24
-4 -5 -2 0.81 0.3
-4 -5 -3 9.82 0.85
-4 -5 -4 4.19 0.58
-4 -5 -5 3.83 0.54
-4 -5 -6 1.35 0.35
-4 -5 -7 2.38 0.41
-4 -5 -8 0.95 0.27
-4 -5 -9 1.72 0.31
-4 -4 -2 9.45 0.95
-4 -4 -3 8.89 0.92
-4 -4 -4 0.05 0.25
-4 -4 -5 13.58 1.11
-4 -4 -6 8.35 0.87
-4 -4 -7 11.07 0.97
-4 -4 -8 15.26 1.08
-4 -4 -9 9.87 0.84
-4 -4 -10 4.35 0.53
-4 -4 -11 9.46 0.69
-4 -3 -2 -0.1 0.3
-4 -3 -3 4.3 0.71
-4 -3 -4 1.43 0.46
-4 -3 -5 14.12 1.21
-4 -3 -6 -0.12 0.28
-4 -3 -7 11.89 1.09
-4 -3 -8 17.52 1.28
-4 -3 -9 44.49 1.93
-4 -3 -10 1.31 0.37
-4 -3 -11 5.52 0.63
-4 -3 -12 0.95 0.28
-4 -2 12 6.6 0.56
-4 -2 11 0.4 0.2
-4 -2 10 9.42 0.73
-4 -2 9 1.27 0.3
-4 -2 8 45.82 1.66
-4 -2 7 2.36 0.41
-4 -2 6 13.4 0.91
-4 -2 5 8.71 0.73
-4 -2 4 2.54 0.43
-4 -2 -3 2.61 0.61
-4 -2 -4 1.44 0.5
-4 -2 -5 2.4 0.58
-4 -2 -6 3.41 0.66
-4 -2 -7 2.62 0.6
-4 -2 -8 0.59 0.35
-4 -2 -9 7.54 0.88
-4 -2 -10 5.52 0.71
-4 -2 -11 0.87 0.32
-4 -2 -12 1.16 0.35
-4 -2 -13 2.63 0.41
-4 -1 15 0.89 0.2
-4 -1 14 0.82 0.24
-4 -1 13 4.85 0.5
-4 -1 12 0.01 0.17
-4 -1 11 4.46 0.54
-4 -1 10 9.27 0.81
-4 -1 9 4.38 0.58
-4 -1 8 15.29 1.06
-4 -1 7 20.99 1.24
-4 -1 6 4.19 0.58
-4 -1 5 26.57 1.39
-4 -1 4 9.27 0.84
-4 -1 3 0.64 0.28
-4 -1 2 4.53 0.62
-4 -1 2 6.88 0.71
-4 -1 1 3.94 0.59
-4 -1 1 4.38 0.57
-4 -1 0 3.24 0.46
-4 -1 0 2.25 0.47
-4 -1 0 3.59 0.51
-4 -1 -1 5.87 0.6
-4 -1 -1 4.55 0.64
-4 -1 -1 5.73 0.62
-4 -1 -2 22.68 1.42
-4 -1 -2 26.81 1.25
-4 -1 -3 2.16 0.52
-4 -1 -3 2.18 0.55
-4 -1 -4 2.41 0.52
-4 -1 -4 2.1 0.59
-4 -1 -5 9.07 1.05
-4 -1 -6 1.79 0.5
-4 -1 -7 3.98 0.7
-4 -1 -8 1.64 0.48
-4 -1 -9 3.42 0.63
-4 -1 -10 1 0.37
-4 -1 -11 5.94 0.72
-4 -1 -12 0.95 0.33
-4 -1 -13 2.39 0.42
-4 -1 -14 0.85 0.24
-4 0 15 1.39 0.24
-4 0 14 2.02 0.33
-4 0 13 1.2 0.28
-4 0 12 2.08 0.4
-4 0 11 7.79 0.72
-4 0 10 14.07 1.01
-4 0 9 56.88 2.04
-4 0 8 25.53 1.39
-4 0 7 7.69 0.82
-4 0 6 8.29 0.83
-4 0 5 25.68 1.25
-4 0 5 29.67 1.52
-4 0 4 1.19 0.39
-4 0 4 1.12 0.3
-4 0 4 0.93 0.31
-4 0 3 5.23 0.59
-4 0 3 4.53 0.64
-4 0 3 6.11 0.7
-4 0 2 24.61 1.27
-4 0 2 26.51 1.4
-4 0 1 1.66 0.38
-4 0 1 1.12 0.3
-4 0 1 1.42 0.42
-4 0 0 31.87 1.47
-4 0 0 28.41 1.64
-4 0 -1 18 1.1
-4 0 -1 15.92 1.23
-4 0 -2 0.73 0.33
-4 0 -2 0.87 0.31
-4 0 -2 0.27 0.31
-4 0 -3 13.47 0.97
-4 0 -3 12.37 1.11
-4 0 -4 0.73 0.32
-4 0 -5 1.3 0.4
-4 0 -5 1.32 0.44
-4 0 -6 1.44 0.48
-4 0 -6 1 0.4
-4 0 -7 1.4 0.45
-4 0 -8 1.54 0.49
-4 0 -9 2.68 0.57
-4 0 -10 0.98 0.36
-4 0 -11 2.86 0.54
-4 0 -12 0.55 0.25
-4 0 -13 1.86 0.38
-4 0 -14 1.73 0.32
-4 1 15 0.92 0.21
-4 1 14 0.76 0.21
-4 1 13 6.29 0.57
-4 1 12 0.16 0.18
-4 1 11 6.81 0.67
-4 1 10 14.61 1
-4 1 9 6.14 0.69
-4 1 8 16.86 1.02
-4 1 8 18.38 1.19
-4 1 7 24.7 1.27
-4 1 7 23.5 1.35
-4 1 6 5.23 0.61
-4 1 6 4.04 0.6
-4 1 5 25.1 1.34
-4 1 5 23.3 1.37
-4 1 4 8.11 0.78
-4 1 4 7.13 0.78
-4 1 4 8.33 0.84
-4 1 3 0.94 0.3
-4 1 3 0.53 0.26
-4 1 3 0.57 0.31
-4 1 2 5.85 0.67
-4 1 2 5.42 0.74
-4 1 2 6.87 0.75
-4 1 1 5.02 0.62
-4 1 1 4.67 0.7
-4 1 1 5.35 0.65
-4 1 0 2.42 0.45
-4 1 0 2.71 0.55
-4 1 0 3.48 0.53
-4 1 -1 4.86 0.62
-4 1 -1 4.32 0.69
-4 1 -1 5.06 0.66
-4 1 -2 24.15 1.35
-4 1 -2 21.32 1.49
-4 1 -3 3.2 0.52
-4 1 -3 2.39 0.53
-4 1 -4 2.97 0.48
-4 1 -4 2.38 0.56
-4 1 -5 8.94 0.95
-4 1 -6 1.14 0.39
-4 1 -7 3.49 0.6
-4 1 -7 3.76 0.69
-4 1 -8 1.77 0.51
-4 1 -9 3.15 0.58
-4 1 -10 0.92 0.35
-4 1 -11 6.04 0.73
-4 1 -12 0.42 0.27
-4 1 -13 1.65 0.36
-4 1 -14 0.7 0.23
-4 2 14 2.97 0.32
-4 2 13 4.75 0.45
-4 2 12 5.99 0.55
-4 2 11 0.67 0.25
-4 2 10 8.64 0.72
-4 2 10 9.13 0.74
-4 2 9 0.74 0.27
-4 2 9 0.95 0.28
-4 2 8 43.77 1.74
-4 2 8 48.12 1.77
-4 2 7 2.29 0.46
-4 2 7 1.4 0.35
-4 2 7 1.96 0.42
-4 2 6 13.35 1
-4 2 6 13.94 1.07
-4 2 6 14.61 1.02
-4 2 5 8.22 0.81
-4 2 5 8.17 0.86
-4 2 5 10.05 0.87
-4 2 4 2.47 0.46
-4 2 4 2.27 0.5
-4 2 4 3.04 0.53
-4 2 3 2.48 0.46
-4 2 3 2.6 0.54
-4 2 3 3.36 0.54
-4 2 2 15.57 1.12
-4 2 2 14.74 1.2
-4 2 2 17.84 1.15
-4 2 1 1.07 0.32
-4 2 1 1.72 0.39
-4 2 1 0.88 0.35
-4 2 0 1.7 0.39
-4 2 0 1.65 0.38
-4 2 0 1.43 0.46
-4 2 -1 4.82 0.64
-4 2 -1 3.73 0.67
-4 2 -1 4.64 0.6
-4 2 -2 1.43 0.37
-4 2 -2 0.89 0.31
-4 2 -2 0.78 0.38
-4 2 -3 2.91 0.48
-4 2 -3 1.88 0.47
-4 2 -4 2.75 0.48
-4 2 -4 1.87 0.49
-4 2 -5 4.2 0.56
-4 2 -5 3.32 0.6
-4 2 -6 5.12 0.69
-4 2 -7 3.56 0.56
-4 2 -8 0.58 0.3
-4 2 -12 1.2 0.33
-4 2 -13 2.18 0.37
-4 3 13 4.92 0.36
-4 3 12 6.76 0.54
-4 3 12 6.54 0.47
-4 3 11 2.39 0.35
-4 3 11 2.95 0.36
-4 3 10 0.34 0.19
-4 3 10 0.39 0.2
-4 3 9 10.5 0.82
-4 3 9 10.32 0.73
-4 3 8 1.31 0.32
-4 3 8 1.48 0.36
-4 3 7 27.92 1.41
-4 3 7 24.95 1.39
-4 3 7 27.68 1.25
-4 3 6 35.44 1.63
-4 3 6 32.98 1.67
-4 3 6 35.63 1.45
-4 3 5 4.04 0.58
-4 3 5 3.85 0.61
-4 3 5 3.81 0.52
-4 3 4 0.13 0.19
-4 3 4 0.47 0.24
-4 3 4 0.1 0.27
-4 3 3 12.78 1
-4 3 3 11.03 1.04
-4 3 3 14.24 0.97
-4 3 2 0.55 0.27
-4 3 2 0.42 0.23
-4 3 2 -0.03 0.23
-4 3 1 16.85 1.14
-4 3 1 14.38 1.21
-4 3 1 17.61 1.07
-4 3 0 7.02 0.73
-4 3 0 6.12 0.8
-4 3 0 7.25 0.7
-4 3 -1 0.46 0.25
-4 3 -1 0.61 0.26
-4 3 -1 0.75 0.32
-4 3 -2 0.11 0.18
-4 3 -2 0.25 0.27
-4 3 -3 5.68 0.64
-4 3 -3 5.59 0.74
-4 3 -4 1.51 0.35
-4 3 -4 1.25 0.38
-4 3 -5 17.92 1.08
-4 3 -5 16.25 1.18
-4 3 -6 0.11 0.19
-4 3 -7 14.21 1.02
-4 3 -8 19.86 1.11
-4 4 12 2.03 0.27
-4 4 11 0.36 0.14
-4 4 11 0.4 0.17
-4 4 10 11.48 0.75
-4 4 10 9.64 0.54
-4 4 9 24.25 1.14
-4 4 9 17.46 0.78
-4 4 8 4.2 0.52
-4 4 8 3.59 0.5
-4 4 8 3.16 0.38
-4 4 7 4.11 0.52
-4 4 7 3.63 0.54
-4 4 7 3.58 0.41
-4 4 6 2.21 0.35
-4 4 6 2.47 0.43
-4 4 6 1.96 0.41
-4 4 5 22.78 1.24
-4 4 5 19.4 0.97
-4 4 4 3.24 0.5
-4 4 4 2.45 0.5
-4 4 4 3.34 0.44
-4 4 3 23.28 1.26
-4 4 3 21.79 1.06
-4 4 2 9.75 0.83
-4 4 2 8.24 0.89
-4 4 2 8.55 0.69
-4 4 1 24 1.27
-4 4 1 20.77 1.38
-4 4 0 1.41 0.34
-4 4 0 0.84 0.33
-4 4 -1 5.87 0.63
-4 4 -1 5.9 0.74
-4 4 -2 14.37 0.94
-4 4 -2 10.94 0.98
-4 4 -3 13.56 0.89
-4 4 -3 11.28 0.97
-4 4 -4 -0.05 0.13
-4 4 -4 0.17 0.2
-4 4 -5 17.8 1.13
-4 4 -6 10.11 0.8
-4 4 -7 12.94 0.85
-4 5 11 4.62 0.36
-4 5 10 1.59 0.24
-4 5 9 4.21 0.41
-4 5 8 0.69 0.2
-4 5 8 0.8 0.24
-4 5 7 3.94 0.44
-4 5 7 2.73 0.43
-4 5 6 0.45 0.19
-4 5 6 0.16 0.17
-4 5 5 6.02 0.56
-4 5 5 6.38 0.68
-4 5 4 3.04 0.42
-4 5 4 3.27 0.52
-4 5 3 0.22 0.17
-4 5 3 0.19 0.19
-4 5 2 9.46 0.71
-4 5 2 10.11 0.87
-4 5 1 9.39 0.7
-4 5 1 8.59 0.82
-4 5 0 20.02 1
-4 5 0 19.51 1.21
-4 5 -1 45.53 1.47
-4 5 -1 40.65 1.7
-4 5 -2 1.69 0.3
-4 5 -2 1.76 0.39
-4 5 -3 13.34 0.76
-4 5 -3 11.2 0.84
-4 5 -4 4.57 0.53
-4 5 -5 4.51 0.48
-4 5 -6 1.59 0.28
-4 6 7 3.62 0.31
-4 6 7 3.33 0.38
-4 6 6 2.74 0.29
-4 6 6 3.04 0.38
-4 6 5 0.65 0.16
-4 6 5 0.2 0.18
-4 6 4 1.1 0.2
-4 6 4 0.4 0.2
-4 6 3 2.65 0.3
-4 6 3 2.73 0.39
-4 6 2 0.62 0.16
-4 6 2 0.05 0.15
-4 6 1 0.06 0.09
-4 6 1 -0.24 0.17
-4 6 0 2.53 0.28
-4 6 0 2.89 0.4
-4 6 -1 1.76 0.23
-4 6 -1 1.64 0.29
-4 6 -2 5.42 0.49
-4 6 -3 1.17 0.23
