#------------------------------------------------------------------------------
#$Date: 2019-11-04 18:16:57 +0200 (Mon, 04 Nov 2019) $
#$Revision: 223221 $
#$URL: file:///home/coder/svn-repositories/cod/cif/4/03/36/4033602.cif $
#------------------------------------------------------------------------------
#
# This file is available in the Crystallography Open Database (COD),
# http://www.crystallography.net/
#
# All data on this site have been placed in the public domain by the
# contributors.
#
data_4033602
loop_
_publ_author_name
'Chernykh, Anton V.'
'Melnykov, Kostiantyn P.'
'Tolmacheva, Nataliya A.'
'Kondratov, Ivan S.'
'Radchenko, Dmytro S.'
'Daniliuc, Constantin G.'
'Volochnyuk, Dmitriy M.'
'Ryabukhin, Sergey V.'
'Kuchkovska, Yuliya O.'
'Grygorenko, Oleksandr O.'
_publ_section_title
;
 Last of the gem-Difluorocycloalkanes: Synthesis and Characterization of
 2,2-Difluorocyclobutyl-Substituted Building Blocks.
;
_journal_issue                   13
_journal_name_full               'The Journal of organic chemistry'
_journal_page_first              8487
_journal_page_last               8496
_journal_paper_doi               10.1021/acs.joc.9b00719
_journal_volume                  84
_journal_year                    2019
_chemical_formula_moiety         'C4 H8 F2 N, Cl'
_chemical_formula_sum            'C4 H8 Cl F2 N'
_chemical_formula_weight         143.56
_space_group_crystal_system      orthorhombic
_space_group_IT_number           31
_space_group_name_Hall           'P 2ac -2'
_space_group_name_H-M_alt        'P m n 21'
_symmetry_space_group_name_Hall  'P 2ac -2'
_symmetry_space_group_name_H-M   'P m n 21'
_atom_sites_solution_hydrogens   mixed
_audit_creation_method           SHELXL-2016/4
_cell_angle_alpha                90
_cell_angle_beta                 90
_cell_angle_gamma                90
_cell_formula_units_Z            2
_cell_length_a                   6.0161(13)
_cell_length_b                   7.0221(17)
_cell_length_c                   7.620(2)
_cell_measurement_reflns_used    595
_cell_measurement_temperature    173(2)
_cell_measurement_theta_max      26.11
_cell_measurement_theta_min      2.90
_cell_volume                     321.91(13)
_computing_cell_refinement       'Bruker SMART'
_computing_data_collection       'Bruker SMART'
_computing_data_reduction        'Bruker SAINT'
_computing_molecular_graphics    'Bruker SHELXTL'
_computing_publication_material  'Bruker SHELXTL'
_computing_structure_refinement  'SHELXL-2016/4 (Sheldrick, 2016)'
_computing_structure_solution    'Bruker SHELXTL'
_diffrn_ambient_temperature      173(2)
_diffrn_measured_fraction_theta_full 1.000
_diffrn_measured_fraction_theta_max 1.000
_diffrn_measurement_device_type  'CCD area detector'
_diffrn_measurement_method       'omega scans'
_diffrn_radiation_monochromator  graphite
_diffrn_radiation_source         'sealed tube'
_diffrn_radiation_type           MoK\a
_diffrn_radiation_wavelength     0.71073
_diffrn_reflns_av_R_equivalents  0.0378
_diffrn_reflns_av_unetI/netI     0.0267
_diffrn_reflns_Laue_measured_fraction_full 1.000
_diffrn_reflns_Laue_measured_fraction_max 1.000
_diffrn_reflns_limit_h_max       7
_diffrn_reflns_limit_h_min       -7
_diffrn_reflns_limit_k_max       8
_diffrn_reflns_limit_k_min       -8
_diffrn_reflns_limit_l_max       9
_diffrn_reflns_limit_l_min       -9
_diffrn_reflns_number            4053
_diffrn_reflns_point_group_measured_fraction_full 1.000
_diffrn_reflns_point_group_measured_fraction_max 1.000
_diffrn_reflns_theta_full        25.242
_diffrn_reflns_theta_max         26.591
_diffrn_reflns_theta_min         2.901
_exptl_absorpt_coefficient_mu    0.529
_exptl_absorpt_correction_T_max  0.94
_exptl_absorpt_correction_T_min  0.73
_exptl_absorpt_correction_type   multi-scan
_exptl_absorpt_process_details   SADABS
_exptl_crystal_colour            colourless
_exptl_crystal_density_diffrn    1.481
_exptl_crystal_description       block
_exptl_crystal_F_000             148
_exptl_crystal_size_max          0.360
_exptl_crystal_size_mid          0.250
_exptl_crystal_size_min          0.120
_refine_diff_density_max         0.268
_refine_diff_density_min         -0.266
_refine_diff_density_rms         0.076
_refine_ls_abs_structure_details
;
 Refined as an inversion twin.
;
_refine_ls_abs_structure_Flack   0.45(10)
_refine_ls_extinction_coef       0.119(19)
_refine_ls_extinction_expression Fc^*^=kFc[1+0.001xFc^2^\l^3^/sin(2\q)]^-1/4^
_refine_ls_extinction_method     'SHELXL-2016/4 (Sheldrick 2016)'
_refine_ls_goodness_of_fit_ref   1.023
_refine_ls_hydrogen_treatment    mixed
_refine_ls_matrix_type           full
_refine_ls_number_parameters     58
_refine_ls_number_reflns         731
_refine_ls_number_restraints     1
_refine_ls_restrained_S_all      1.023
_refine_ls_R_factor_all          0.0255
_refine_ls_R_factor_gt           0.0244
_refine_ls_shift/su_max          0.000
_refine_ls_shift/su_mean         0.000
_refine_ls_structure_factor_coef Fsqd
_refine_ls_weighting_details
'w=1/[\s^2^(Fo^2^)+(0.0396P)^2^+0.0381P] where P=(Fo^2^+2Fc^2^)/3'
_refine_ls_weighting_scheme      calc
_refine_ls_wR_factor_gt          0.0598
_refine_ls_wR_factor_ref         0.0605
_reflns_Friedel_coverage         0.859
_reflns_Friedel_fraction_full    1.000
_reflns_Friedel_fraction_max     1.000
_reflns_number_gt                705
_reflns_number_total             731
_reflns_threshold_expression     'I > 2\s(I)'
_cod_data_source_file            jo9b00719_si_003.cif
_cod_data_source_block           xr130
_cod_depositor_comments
'Adding full bibliography for 4033602--4033603.cif.'
_cod_database_code               4033602
_shelx_shelxl_version_number     2016/4
_shelx_space_group_comment
;
The symmetry employed for this shelxl refinement is uniquely defined
by the following loop, which should always be used as a source of
symmetry information in preference to the above space-group names.
They are only intended as comments.
;
_shelx_estimated_absorpt_t_min   0.832
_shelx_estimated_absorpt_t_max   0.939
_shelx_res_file
;
TITL xr130 in P2(1)                   New: Pmn21
 xr130.res created by SHELXL-2016/4 at 16:34:38 on 07-Feb-2019
CELL  0.71073    6.0161    7.0221    7.6200    90.000    90.000    90.000
ZERR        2    0.0013    0.0017    0.0020     0.000     0.000     0.000
LATT -1
SYMM     0.50000 - X ,            - Y ,    0.50000 + Z
SYMM             - X ,              Y ,              Z
SYMM     0.50000 + X ,            - Y ,    0.50000 + Z
SFAC C  H  Cl F  N
UNIT 8  16  2  4  2
L.S. 5
ACTA
BOND $H
FMAP 2
PLAN -20
CONF
TWIN
size 0.12 0.25 0.36
TEMP    -100
WGHT    0.039600    0.038100
EXTI    0.119122
BASF   0.45216
FVAR       1.62815
F1    4    0.500000    0.605266    0.202626    10.50000    0.03833    0.03627 =
         0.02856   -0.01329    0.00000    0.00000
F2    4    0.500000    0.619034   -0.080389    10.50000    0.08305    0.02891 =
         0.02894    0.00484    0.00000    0.00000
N1    5    0.500000    0.015800    0.029637    10.50000    0.02520    0.02488 =
         0.02822    0.00222    0.00000    0.00000
C1    1    0.500000    0.202711    0.116940    10.50000    0.02349    0.02992 =
         0.01661    0.00222    0.00000    0.00000
C2    1    0.319698    0.343909    0.057845    11.00000    0.01755    0.03289 =
         0.03580   -0.00556   -0.00215    0.00235
AFIX  23
H2A   2    0.255393    0.315633   -0.058873    11.00000   -1.20000
H2B   2    0.202021    0.366677    0.146205    11.00000   -1.20000
AFIX   0
C3    1    0.500000    0.493401    0.055496    10.50000    0.02912    0.02572 =
         0.01974   -0.00329    0.00000    0.00000
H1N   2    0.372848   -0.051893    0.059025    11.00000    0.04131
H1    2    0.500000    0.186062    0.223193    10.50000    0.02324
H2N   2    0.500000    0.031532   -0.080244    10.50000    0.03696
CL1   3    0.000000   -0.107844    0.121319    10.50000    0.02341    0.04085 =
         0.02544    0.00209    0.00000    0.00000

HKLF 4 1 -1.0000  0.0000  0.0000  0.0000  0.0000 -1.0000  0.0000 -1.0000  0.0000




REM  xr130 in P2(1)                   New: Pmn21
REM R1 =  0.0244 for     705 Fo > 4sig(Fo)  and  0.0255 for all     731 data
REM     58 parameters refined using      1 restraints

END

WGHT      0.0294      0.0352

REM Highest difference peak  0.268,  deepest hole -0.266,  1-sigma level  0.076
Q1    1   0.3907  0.4240  0.0495  11.00000  0.05    0.27
Q2    1   0.3693  0.2735  0.1157  11.00000  0.05    0.26
Q3    1   0.2865 -0.1793  0.1270  11.00000  0.05    0.17
Q4    1   0.2025  0.3297  0.0603  11.00000  0.05    0.16
Q5    1   0.1349  0.1361 -0.0057  11.00000  0.05    0.16
Q6    1   0.1654  0.0470  0.0993  11.00000  0.05    0.14
Q7    1   0.1801  0.4591  0.1203  11.00000  0.05    0.14
Q8    1   0.1449  0.0141  0.0636  11.00000  0.05    0.14
Q9    1   0.1543 -0.2126  0.1282  11.00000  0.05    0.13
Q10   1   0.1368 -0.3644  0.0893  11.00000  0.05    0.13
Q11   1   0.1384 -0.0461  0.1734  11.00000  0.05    0.13
Q12   1   0.1497 -0.1407  0.0776  11.00000  0.05    0.13
Q13   1   0.1680 -0.0771  0.1076  11.00000  0.05    0.12
Q14   1   0.1678  0.1465  0.2374  11.00000  0.05    0.12
Q15   1   0.0000  0.1173  0.1229  10.50000  0.05    0.11
Q16   1   0.2865 -0.0387  0.1327  11.00000  0.05    0.10
Q17   1   0.0000  0.0084  0.0548  10.50000  0.05    0.10
Q18   1   0.1708 -0.3465 -0.1238  11.00000  0.05    0.10
Q19   1   0.3409  0.7463 -0.0578  11.00000  0.05    0.09
Q20   1   0.0000 -0.2797  0.1158  10.50000  0.05    0.09
;
_shelx_res_checksum              55348
_shelx_hkl_file
;
  -1   0   0   -6.77    0.49
  -1   0   0   -6.61    0.54
   1   0   0   -7.16    0.65
  -1   0   0   -7.51    0.64
   1   0   0   -8.00    0.62
  -1   0   0   -7.93    0.59
  -1   0   0   -6.54    0.56
   1   0   0   -7.42    0.49
  -2   0   0 5980.46  274.32
   2   0   0 7311.30  264.35
   2   0   0 7512.25  267.14
  -2   0   0 7032.79  276.01
  -3   0   0   -3.07    0.56
  -3   0   0   -2.32    0.76
   3   0   0   -2.38    0.82
  -3   0   0   -2.46    0.78
  -3   0   0   -0.23    0.91
  -4   0   0 3261.14  126.75
  -4   0   0 3489.52  121.79
   4   0   0 2990.05  127.22
  -4   0   0 2919.18  126.32
  -5   0   0    0.55    1.38
   5   0   0    1.59    1.57
  -5   0   0   -0.07    1.23
  -5   0   0    0.18    1.00
  -6   0   0 1588.95   63.15
   7   0   0    5.18    2.84
   7   0  -1   78.56    8.01
  -6   0   1   28.01    3.56
   6   0  -1   31.03    4.94
   5   0  -1  249.43   13.41
   5   0  -1  249.98   14.10
  -5   0   1  256.93   11.56
  -5   0   1  259.34   12.56
  -4   0   1   92.03    5.93
   4   0  -1   86.71    6.02
  -4   0   1   91.06    4.80
  -4   0   1   87.02    5.50
   4   0  -1   83.63    6.18
   3   0  -1    2.18    1.39
   3   0  -1    3.73    1.51
  -3   0   1    0.99    1.05
  -3   0   1    5.05    1.02
   3   0  -1    3.87    0.96
  -3   0   1    1.67    1.06
   2   0  -1  442.76   18.80
   2   0  -1  421.03   18.10
  -2   0   1  445.67   18.47
   2   0  -1  427.20   17.08
  -2   0   1  428.70   18.62
   1   0  -1  718.38   27.37
  -1   0   1  725.01   28.99
  -1   0   1  723.35   28.09
   1   0  -1  751.57   28.95
   1   0  -1  717.06   28.10
   1   0  -1  698.40   28.88
  -1   0   1  621.75   28.72
   0   0  -1  103.65    4.59
   0   0   1  101.41    4.41
   0   0   1  103.12    4.61
   0   0   1   97.54    4.69
   0   0  -1  103.55    4.40
   0   0  -1  101.08    4.73
   0   0  -1   96.15    4.41
   1   0   1  705.70   28.93
   1   0   1  738.82   28.50
  -1   0  -1  749.79   28.92
  -1   0  -1  695.32   29.43
   1   0   1  756.33   28.15
   1   0   1  709.84   29.56
  -1   0  -1  682.38   28.09
  -1   0  -1  704.11   28.47
   2   0   1  458.73   18.19
  -2   0  -1  420.23   17.66
  -2   0  -1  423.51   17.55
  -2   0  -1  415.52   18.07
  -2   0  -1  434.73   17.91
  -3   0  -1    3.41    1.12
  -3   0  -1    0.98    1.13
  -3   0  -1    3.17    0.75
  -3   0  -1    3.85    1.21
   3   0   1    2.99    1.18
  -3   0  -1    3.27    0.64
  -4   0  -1   99.90    4.73
   4   0   1  100.68    6.21
  -4   0  -1   85.90    4.37
  -4   0  -1   91.01    6.31
  -4   0  -1   89.02    5.50
  -4   0  -1   91.14    5.53
   5   0   1  253.76   13.38
  -5   0  -1  259.90   12.66
  -5   0  -1  261.01   12.38
  -5   0  -1  244.39   10.90
  -6   0  -1   33.89    4.18
   7   0  -2  286.08   16.55
  -6   0   2   33.13    4.40
   6   0  -2   38.00    5.46
  -5   0   2  611.50   26.40
   5   0  -2  586.59   23.44
   5   0  -2  548.46   26.07
   4   0  -2  177.19   10.52
  -4   0   2  212.30   10.80
   4   0  -2  200.12    8.77
  -4   0   2  205.46   10.98
   4   0  -2  223.68   11.70
   3   0  -2 4443.60  160.34
   3   0  -2 3797.74  167.87
   3   0  -2 4418.06  163.48
  -3   0   2 3977.45  168.51
   3   0  -2 4407.00  160.40
   2   0  -2 1149.70   46.17
  -2   0   2 1166.63   46.29
   2   0  -2 1153.54   44.88
   2   0  -2 1130.94   43.20
  -2   0   2 1011.01   45.79
  -1   0   2 4799.96  167.19
  -1   0   2 3845.27  171.34
  -1   0   2 4374.84  172.81
   0   0  -2  615.20   25.00
   0   0   2  628.67   26.08
   0   0   2  621.76   25.72
   0   0  -2  638.37   26.00
   0   0   2  670.96   25.04
   0   0  -2  599.11   25.68
  -1   0  -2 3879.68  153.71
   1   0   2 4139.41  160.11
  -1   0  -2 4058.69  159.86
   2   0   2 1143.60   46.02
  -2   0  -2 1174.51   45.83
  -2   0  -2 1140.17   45.23
   2   0   2 1174.78   46.45
  -2   0  -2 1101.20   45.79
  -3   0  -2 4051.66  158.48
   3   0   2 3908.63  163.70
  -3   0  -2 4244.41  160.57
  -3   0  -2 4328.20  163.49
   4   0   2  203.54    9.81
  -4   0  -2  187.10    9.17
  -4   0  -2  185.18    9.60
  -4   0  -2  180.21   10.33
  -5   0  -2  588.79   25.04
  -5   0  -2  560.70   26.32
  -5   0  -2  572.76   24.98
  -6   0  -2   33.76    4.33
  -6   0  -2   32.47    3.66
  -6   0  -2   26.38    4.80
  -7   0   3   38.66    5.63
   7   0  -3   46.27    6.82
   6   0  -3   -2.32    2.25
  -6   0   3   -2.35    1.94
   5   0  -3   60.47    6.11
  -5   0   3   64.99    6.04
   4   0  -3   34.32    4.32
   4   0  -3   35.69    4.63
  -4   0   3   32.34    4.25
   4   0  -3   35.52    2.42
  -4   0   3   30.70    3.97
  -3   0   3    4.06    1.51
  -3   0   3    6.59    2.02
   3   0  -3    3.79    0.99
   3   0  -3    5.06    1.82
   3   0  -3    1.77    1.62
   2   0  -3  218.79   11.37
   2   0  -3  231.40   10.01
  -2   0   3  243.81   11.80
  -2   0   3  244.74   11.43
   2   0  -3  245.51   11.61
   1   0  -3   11.27    2.23
   1   0  -3   11.26    1.69
  -1   0   3    9.02    1.55
   1   0  -3    9.53    1.51
  -1   0   3   10.93    1.97
   0   0   3  623.71   27.03
   0   0  -3  646.51   25.99
   0   0   3  652.72   26.06
   0   0  -3  649.04   26.96
  -1   0  -3    8.62    1.80
  -1   0  -3    6.72    1.80
   1   0   3   13.82    1.66
   2   0   3  239.71   10.03
  -2   0  -3  227.17    9.50
  -2   0  -3  219.41   10.95
  -2   0  -3  229.19   11.23
  -2   0  -3  235.97    9.52
  -3   0  -3    5.68    0.98
  -3   0  -3    2.90    1.74
  -3   0  -3    3.28    1.48
  -4   0  -3   37.72    2.79
  -4   0  -3   32.76    3.91
  -4   0  -3   38.61    4.51
  -5   0  -3   49.28    5.69
  -5   0  -3   55.55    3.95
  -5   0  -3   55.50    5.23
  -6   0  -3   -0.13    1.90
  -6   0  -3    1.27    2.36
  -7   0  -3   25.07    5.46
  -7   0  -3   27.03    4.79
   6   0  -4  129.03   10.04
  -6   0   4  141.54   10.03
   5   0  -4  115.18    8.70
  -5   0   4  116.45    8.50
  -4   0   4  226.18   12.01
   4   0  -4  188.61    8.86
   4   0  -4  189.23   11.61
  -4   0   4  218.13   11.56
   4   0  -4  193.53   11.55
  -3   0   4   20.52    3.15
   3   0  -4   15.16    2.95
   3   0  -4   19.25    2.04
  -3   0   4   22.28    3.65
   3   0  -4   13.66    3.20
   2   0  -4  320.48   15.29
  -2   0   4  324.99   14.76
   2   0  -4  316.99   14.90
   2   0  -4  312.91   13.59
  -2   0   4  306.11   15.35
  -1   0   4  275.83   12.53
   1   0  -4  280.85   12.42
   1   0  -4  271.43   13.66
  -1   0   4  284.24   13.56
   0   0   4 1443.53   60.69
   0   0   4 1535.66   62.38
   0   0  -4 1567.84   59.88
   0   0   4 1571.05   60.80
   0   0  -4 1499.01   61.21
  -1   0  -4  276.14   13.11
  -1   0  -4  273.42   13.61
   1   0   4  292.17   13.00
  -2   0  -4  273.97   13.97
  -2   0  -4  304.46   14.53
   2   0   4  311.78   13.27
  -3   0  -4   16.43    1.07
  -3   0  -4   11.85    2.72
   3   0   4   19.32    1.82
   3   0   4   14.62    1.45
  -3   0  -4   15.46    3.12
  -4   0  -4  201.99    8.83
  -4   0  -4  202.67   11.07
  -4   0  -4  189.85    8.80
  -4   0  -4  189.92   11.36
  -5   0  -4  112.17    7.94
  -5   0  -4  111.03    8.47
  -6   0  -4  138.05    9.51
  -6   0  -4  132.12   10.11
   6   0  -5    6.77    3.94
  -6   0   5   16.34    4.48
  -5   0   5   10.14    3.56
   5   0  -5    9.05    3.83
   4   0  -5    1.70    2.77
  -4   0   5    4.34    2.59
   3   0  -5  149.06    7.56
  -3   0   5  151.12    9.66
  -3   0   5  132.96    8.57
   3   0  -5  162.95   10.17
   2   0  -5   22.96    4.08
  -2   0   5   35.36    3.49
   2   0  -5   26.75    2.93
  -2   0   5   20.27    3.66
  -1   0   5    9.32    1.77
   1   0  -5    8.90    3.07
  -1   0   5    9.88    2.66
   1   0  -5    9.08    2.14
  -1   0   5   10.72    1.75
   0   0  -5   20.93    3.04
   0   0  -5   21.52    3.81
   0   0   5   18.92    2.99
   0   0   5   20.62    1.80
   0   0   5   20.13    1.74
   1   0   5    9.10    2.18
  -1   0  -5   10.40    2.82
  -1   0  -5    9.51    2.54
   2   0   5   21.55    2.66
  -2   0  -5   20.46    3.67
  -2   0  -5   27.29    3.85
  -3   0  -5  118.20    8.45
   3   0   5  129.91    6.56
  -3   0  -5  123.97    8.34
  -4   0  -5    0.89    1.92
  -4   0  -5    2.59    2.20
  -5   0  -5   14.70    3.82
  -5   0  -5   11.27    3.37
  -6   0  -5   15.53    4.25
  -6   0  -5   13.58    4.25
  -5   0   6   21.43    5.06
   5   0  -6   23.87    5.76
   4   0  -6   11.46    4.19
  -4   0   6    8.32    3.36
   3   0  -6  181.15   12.54
   3   0  -6  209.49   10.14
  -3   0   6  186.08   11.94
  -3   0   6  216.58   11.27
  -2   0   6   90.18    5.95
   2   0  -6  101.27    6.18
   2   0  -6  102.68    8.23
  -2   0   6   92.97    7.24
  -2   0   6   92.77    5.97
   1   0  -6  274.04   12.53
  -1   0   6  235.05   11.54
   1   0  -6  249.64   14.15
  -1   0   6  245.38   11.60
  -1   0   6  240.24   13.23
   0   0   6    2.83    1.03
   0   0   6    4.33    1.10
   0   0  -6    1.66    1.80
   0   0   6    0.46    1.71
   0   0  -6    1.50    2.72
  -1   0  -6  239.54   13.60
   1   0   6  237.97   12.48
  -1   0  -6  259.33   12.99
  -2   0  -6   88.41    6.98
   2   0   6   96.95    6.12
  -2   0  -6   93.80    7.53
  -3   0  -6  199.56   12.22
  -3   0  -6  190.67   11.62
  -4   0  -6    9.30    3.52
  -4   0  -6   10.73    3.51
  -5   0  -6   32.81    5.87
  -5   0  -6   38.75    6.01
   4   0  -7    0.80    3.93
  -4   0   7    3.16    3.19
   3   0  -7    2.79    3.68
  -3   0   7    5.94    2.97
   2   0  -7    5.43    3.68
   2   0  -7    1.61    1.84
  -2   0   7   -1.26    2.20
   1   0  -7   12.43    4.34
   1   0  -7   19.71    3.46
  -1   0   7   12.35    3.44
   0   0  -7  103.56    8.45
   0   0   7   94.12    7.40
   0   0  -7   95.59    7.10
  -1   0  -7   23.55    4.60
   1   0   7   12.70    2.95
  -1   0  -7   16.16    3.73
  -2   0  -7    2.56    2.54
   2   0   7    0.37    1.93
  -2   0  -7    2.81    2.50
  -3   0  -7    4.07    2.81
  -3   0  -7    1.95    2.82
  -4   0  -7   11.38    4.07
  -4   0  -7    5.36    3.23
  -3   0   8   12.12    3.98
   3   0  -8   18.78    5.85
  -2   0   8  138.78   10.23
   2   0  -8  147.51    9.08
   2   0  -8  127.13   11.05
   1   0  -8  130.09   10.57
  -1   0   8  138.79    9.89
   1   0  -8  149.65    9.26
   0   0  -8  179.36   10.98
   0   0   8  175.30   11.08
   0   0  -8  175.68   12.11
  -1   0  -8  149.50   10.08
  -1   0  -8  144.01   10.76
   1   0   8  141.13    9.50
  -2   0  -8  168.93   12.02
  -2   0  -8  156.79   10.97
  -3   0  -8    5.92    4.06
  -3   0  -8   13.73    4.22
  -3   1  -8   12.89    4.59
  -3   1  -8    2.64    3.22
  -2   1  -8   36.94    5.82
  -2   1  -8   34.51    6.01
  -1   1  -8   30.44    5.53
  -1   1  -8   21.00    4.46
   1  -1   8   18.55    3.66
   0   1  -8    2.98    3.14
   0   1  -8    1.86    2.54
   0  -1   8    0.83    2.16
   1   1  -8   32.80    4.81
  -1  -1   8   32.55    5.32
   1   1  -8   25.83    5.74
   2   1  -8   35.93    6.64
  -2  -1   8   44.03    6.24
   3   1  -8   10.72    5.14
  -3  -1   8   15.52    4.29
  -4   1  -7  180.61   12.65
  -4   1  -7  217.15   14.09
  -3   1  -7    1.11    2.77
  -3   1  -7    1.77    2.72
   2  -1   7  262.29   13.61
  -2   1  -7  272.11   15.75
  -2   1  -7  286.55   15.21
  -1   1  -7   41.28    5.40
   1  -1   7   52.58    4.99
  -1   1  -7   42.50    5.96
   0  -1   7  569.74   26.25
   0   1  -7  559.17   26.81
   0   1  -7  573.00   25.57
   1   1  -7   40.77    6.08
  -1  -1   7   40.53    5.25
   1   1  -7   53.42    5.21
   2   1  -7  298.72   13.83
  -2  -1   7  257.96   15.16
   2   1  -7  254.44   15.90
  -3  -1   7    0.67    2.36
   3   1  -7   -3.94    3.21
  -4  -1   7  203.96   13.27
   4   1  -7  187.77   13.65
  -5   1  -6  165.94   11.50
  -5   1  -6  155.27   11.74
  -4   1  -6   65.89    7.04
  -4   1  -6   72.33    7.65
  -3   1  -6   37.31    5.61
  -3   1  -6   38.51    5.38
  -2   1  -6   74.81    7.05
  -2   1  -6   80.93    6.51
   2  -1   6   76.05    5.27
   1  -1   6  249.64   12.81
  -1   1  -6  272.40   13.57
  -1   1  -6  247.75   13.92
   0  -1   6  157.64    7.27
   0  -1   6  155.88    7.38
   0   1  -6  170.53    9.35
   0  -1   6  154.61    9.24
   0   1  -6  143.87    9.88
   1   1  -6  223.98   13.42
   1   1  -6  262.50   12.31
  -1  -1   6  244.79   11.41
  -1  -1   6  227.64   12.90
  -2  -1   6   75.22    6.46
   2   1  -6   76.84    5.38
  -2  -1   6   80.31    5.39
   2   1  -6   75.32    5.61
   2   1  -6   79.19    7.50
  -3  -1   6   36.94    4.23
  -3  -1   6   38.55    5.44
   3   1  -6   41.58    4.87
   3   1  -6   45.41    6.31
   4   1  -6   83.23    8.35
  -4  -1   6   79.02    7.83
  -5  -1   6  157.97   11.36
   5   1  -6  159.76   11.87
  -6   1  -5    0.67    2.75
  -6   1  -5    3.07    3.24
  -5   1  -5  228.50   13.87
  -5   1  -5  256.51   14.83
  -4   1  -5   73.80    7.24
  -4   1  -5   71.06    6.79
  -3   1  -5  639.53   28.74
  -3   1  -5  659.50   29.35
  -2   1  -5  327.55   16.00
   2  -1   5  339.29   14.91
  -2   1  -5  312.76   16.20
   1  -1   5 1045.26   42.45
  -1   1  -5 1007.58   42.51
  -1   1  -5  987.20   41.61
   0   1  -5   11.75    2.56
   0  -1   5   12.83    2.49
   0   1  -5   12.40    3.25
   0  -1   5   13.70    1.65
   1   1  -5  983.16   43.07
   1   1  -5 1041.87   41.43
  -1  -1   5 1072.12   42.29
  -1  -1   5 1003.37   43.67
   1   1  -5 1033.29   42.42
   2   1  -5  325.25   16.76
   2   1  -5  328.77   15.83
   2   1  -5  349.09   14.83
  -2  -1   5  346.79   15.66
  -2  -1   5  313.98   16.46
   3   1  -5  731.98   33.53
  -3  -1   5  728.23   34.20
  -3  -1   5  785.38   33.46
   3   1  -5  772.61   33.81
   3   1  -5  801.26   30.91
   4   1  -5   82.20    7.56
  -4  -1   5   78.26    6.92
  -5  -1   5  297.40   15.98
   5   1  -5  247.04   15.32
   6   1  -5   -2.60    3.24
  -6  -1   5   -2.09    2.47
  -6   1  -4    4.93    2.74
  -6   1  -4    4.51    3.03
  -5   1  -4  134.35    8.90
  -5   1  -4  117.71    9.06
  -4   1  -4   50.84    2.94
  -4   1  -4   49.48    5.57
  -4   1  -4   45.40    2.98
  -4   1  -4   37.57    4.80
  -3   1  -4  624.89   24.45
  -3   1  -4  598.14   26.88
   3  -1   4  614.24   24.64
  -3   1  -4  576.78   26.35
  -2   1  -4  212.48   10.83
   2  -1   4  209.21    9.57
  -2   1  -4  202.22   10.87
  -1   1  -4  441.39   19.29
  -1   1  -4  417.57   18.67
   1  -1   4  420.31   18.53
   0   1  -4   36.79    4.01
   0  -1   4   36.74    2.41
   0  -1   4   37.83    3.23
   0   1  -4   35.88    3.35
   0   1  -4   36.99    2.40
   1   1  -4  417.05   19.39
   1   1  -4  444.95   18.65
   1   1  -4  446.41   18.18
  -1  -1   4  415.62   19.30
  -1  -1   4  418.75   18.47
  -2  -1   4  213.50   11.43
   2   1  -4  220.93   11.07
   2   1  -4  230.15   11.62
  -2  -1   4  215.70   10.91
   2   1  -4  228.59    9.98
   3   1  -4  618.11   27.75
   3   1  -4  656.75   24.88
  -3  -1   4  632.38   28.03
   3   1  -4  595.34   27.27
  -3  -1   4  599.46   27.43
  -4  -1   4   47.03    5.26
  -4  -1   4   53.31    5.21
   4   1  -4   41.72    5.15
  -5  -1   4  138.26    9.46
   5   1  -4  126.90    9.30
   6   1  -4    6.41    3.51
  -6  -1   4    7.85    3.59
  -7   1  -3    8.56    3.46
  -6   1  -3  207.70   12.89
  -6   1  -3  183.73   11.51
  -5   1  -3  145.10    8.11
  -5   1  -3  161.20   10.33
  -5   1  -3  152.30    9.48
  -5   1  -3  171.75    8.32
  -4   1  -3  600.93   25.54
  -4   1  -3  620.75   25.65
  -4   1  -3  620.06   26.66
  -4   1  -3  608.48   27.28
  -3   1  -3    1.25    1.34
  -3   1  -3    1.88    1.63
  -3   1  -3    5.28    1.00
  -3   1  -3    1.66    0.73
  -2   1  -3 1694.61   66.87
   2  -1   3 1660.01   67.41
  -2   1  -3 1637.95   66.85
  -2   1  -3 1613.89   66.10
   2  -1   3 1786.07   67.58
  -2   1  -3 1705.92   66.91
   1  -1   3  753.24   30.90
  -1   1  -3  776.82   30.33
  -1   1  -3  771.03   30.99
   1  -1   3  729.21   30.29
  -1   1  -3  734.44   30.51
   0  -1   3 2009.52   80.50
   0   1  -3 2124.39   79.49
   0   1  -3 1930.66   78.54
   0   1  -3 1929.82   77.32
   1   1  -3  743.55   31.60
  -1  -1   3  778.81   31.71
   1   1  -3  758.23   30.44
  -1  -1   3  761.51   32.24
   1   1  -3  805.48   31.76
   2   1  -3 1701.26   64.81
  -2  -1   3 1703.41   68.85
   2   1  -3 1643.30   68.28
   2   1  -3 1698.78   66.82
  -2  -1   3 1780.96   64.69
  -2  -1   3 1577.05   68.17
   3   1  -3    2.26    0.73
  -3  -1   3    4.54    1.75
   3   1  -3    2.72    0.77
  -3  -1   3    1.96    1.30
   3   1  -3    1.60    1.67
   3   1  -3    1.30    1.33
   4   1  -3  605.03   28.72
  -4  -1   3  684.86   28.70
  -4  -1   3  618.87   28.43
   4   1  -3  633.87   27.83
   5   1  -3  157.79   10.12
  -5  -1   3  173.08   10.27
  -6  -1   3  225.80   12.81
   6   1  -3  193.57   12.43
  -7  -1   3   12.31    4.07
   7   1  -3   14.30    4.41
  -7   1  -2    3.06    2.79
  -6   1  -2  158.11    8.97
  -6   1  -2  162.35    9.90
  -6   1  -2  148.62    8.96
  -5   1  -2    8.61    2.04
  -5   1  -2    9.42    2.58
  -5   1  -2    8.16    1.88
  -5   1  -2   11.23    3.19
  -4   1  -2   33.26    3.69
  -4   1  -2   34.20    2.84
  -4   1  -2   34.49    4.21
  -4   1  -2   34.74    2.93
  -3   1  -2  172.50    8.27
  -3   1  -2  173.23    9.30
  -3   1  -2  186.55    8.28
  -3   1  -2  164.33    8.79
  -2   1  -2  290.24   12.33
  -2   1  -2  290.65   12.22
   2  -1   2  294.29   11.89
  -2   1  -2  277.83   12.80
  -2   1  -2  285.36   13.11
   2  -1   2  295.05   11.96
  -1   1  -2  225.59    9.17
   1  -1   2  214.14    9.15
  -1   1  -2  218.71    9.82
  -1   1  -2  211.42    9.86
   1  -1   2  218.85    9.92
  -1   1  -2  229.27    9.61
   0  -1   2 1185.42   44.90
   0   1  -2 1002.42   43.29
   0   1  -2 1080.54   44.63
   0  -1   2 1034.55   43.38
   0   1  -2 1096.10   42.68
   0  -1   2 1119.80   42.62
   0   1  -2 1160.26   43.85
   1   1  -2  211.41    9.67
  -1  -1   2  206.20    9.63
   1   1  -2  214.75   10.19
   1   1  -2  222.15    8.96
  -1  -1   2  213.93    9.65
   1   1  -2  221.65    9.67
  -2  -1   2  294.81   11.57
  -2  -1   2  283.35   13.35
   2   1  -2  295.01   13.44
   2   1  -2  305.36   13.13
  -2  -1   2  284.26   13.26
   2   1  -2  299.64   11.64
   3   1  -2  186.25    9.27
  -3  -1   2  185.29    9.25
   3   1  -2  185.71    9.63
  -3  -1   2  159.33    9.20
   4   1  -2   33.46    1.66
  -4  -1   2   36.90    4.07
   4   1  -2   39.86    4.45
   4   1  -2   41.24    4.28
  -4  -1   2   35.11    3.72
   5   1  -2    4.19    2.40
  -5  -1   2    8.94    2.70
   6   1  -2  157.04   10.46
  -6  -1   2  173.05   10.30
   7   1  -2   13.06    4.18
  -6   1  -1   14.22    3.24
  -5   1  -1  423.31   19.91
  -5   1  -1  453.17   20.10
  -5   1  -1  432.29   19.71
  -4   1  -1  243.32   10.60
  -4   1  -1  258.35   10.73
  -4   1  -1  238.85   11.97
  -4   1  -1  259.22   12.03
  -4   1  -1  238.43   12.58
  -4   1  -1  255.61   12.05
  -3   1  -1  637.89   26.28
  -3   1  -1  634.20   25.41
  -3   1  -1  607.79   26.37
  -3   1  -1  642.67   26.43
  -3   1  -1  605.57   25.73
  -2   1  -1 1548.45   63.11
   2  -1   1 1617.34   63.18
  -2   1  -1 1556.00   62.04
  -2   1  -1 1591.16   61.36
  -2   1  -1 1491.82   63.23
  -2   1  -1 1671.56   63.38
   1  -1   1 2413.07  108.33
  -1   1  -1 2906.19  109.40
  -1   1  -1 2716.97  104.81
  -1   1  -1 2738.98  105.75
   1  -1   1 2873.32  105.73
  -1   1  -1 2664.86  108.43
   1  -1   1 2873.76  104.77
   0  -1   1   28.43    1.68
   0   1  -1   25.18    1.90
   0   1  -1   22.48    1.64
   0  -1   1   26.79    1.62
   0   1  -1   28.36    1.85
   0   1  -1   27.93    1.63
   0  -1   1   25.19    1.87
   0  -1   1   27.75    1.94
   1   1  -1 2726.90  106.87
  -1  -1   1 2574.63  106.45
   1   1  -1 2715.13  108.82
   1   1  -1 2691.03  109.72
  -1  -1   1 2862.61  105.82
   1   1  -1 2796.56  105.87
  -1  -1   1 2930.42  109.82
  -1  -1   1 2663.92  108.81
  -2  -1   1 1395.16   60.81
   2   1  -1 1587.71   61.43
   2   1  -1 1440.23   60.90
   2   1  -1 1624.84   59.31
  -3  -1   1  671.19   26.92
   3   1  -1  596.68   27.32
   3   1  -1  671.01   24.75
   3   1  -1  631.79   26.51
  -3  -1   1  610.15   24.70
  -3  -1   1  640.08   27.28
   4   1  -1  253.71   12.68
  -4  -1   1  269.45   12.41
   4   1  -1  270.19   10.82
   4   1  -1  271.55   13.46
  -4  -1   1  239.58   10.70
  -5  -1   1  488.08   20.83
   5   1  -1  417.64   21.82
   5   1  -1  442.32   21.00
  -5  -1   1  491.08   21.60
  -5  -1   1  435.63   18.48
   6   1  -1    8.55    3.10
  -6  -1   1   20.97    3.44
   7   1  -1  119.74    9.37
   7  -1   0    9.10    3.58
  -6   1   0    1.76    2.18
  -5   1   0  109.10    6.98
  -5   1   0   95.98    5.52
  -5   1   0  105.03    6.53
  -4   1   0   -0.26    1.21
  -4   1   0   -2.65    0.67
  -4   1   0   -1.77    0.95
  -3   1   0   39.50    3.13
  -3   1   0   37.30    2.61
  -3   1   0   47.81    3.49
  -2   1   0   -2.10    0.65
  -2   1   0   -0.88    0.83
  -2   1   0   -2.32    0.47
   2  -1   0   -1.84    0.49
  -2   1   0   -0.78    0.67
   1  -1   0 2899.53  114.88
   1  -1   0 2516.07  114.20
   1  -1   0 3132.83  110.28
  -1   1   0 3036.79  115.10
  -1   1   0 2841.91  114.35
   1  -1   0 2834.26  111.11
  -1   1   0 2951.01  110.35
   0   1   0   -9.39    0.71
   0   1   0   -9.94    0.63
   0  -1   0   -8.90    0.61
   0  -1   0  -10.37    0.60
   0  -1   0   -8.79    0.74
   1   1   0 2848.17  111.63
  -1  -1   0 2807.71  112.68
   1   1   0 3107.34  116.81
   1   1   0 2879.01  115.84
  -1  -1   0 3215.77  116.74
   1   1   0 3064.80  112.67
  -1  -1   0 2502.16  111.79
  -1  -1   0 2991.39  115.88
   2   1   0   -1.57    0.66
  -2  -1   0   -2.77    0.52
   2   1   0    0.54    0.66
  -2  -1   0   -0.83    0.72
   2   1   0   -0.88    0.69
  -2  -1   0   -1.19    0.47
   2   1   0   -1.39    0.68
   3   1   0   43.65    2.74
   3   1   0   48.03    3.56
  -3  -1   0   43.19    2.62
   3   1   0   40.23    3.07
  -3  -1   0   40.41    3.19
  -4  -1   0   -1.36    1.04
  -4  -1   0    1.22    0.93
  -4  -1   0   -0.62    0.91
   4   1   0   -0.58    1.08
  -5  -1   0  119.23    6.54
  -5  -1   0  116.64    6.19
  -5  -1   0  103.16    6.94
   5   1   0  101.90    7.55
   7   1   0    4.10    3.04
   7  -1  -1  107.41    8.89
  -6   1   1   13.92    2.63
   6  -1  -1    8.51    2.96
  -5   1   1  410.12   20.17
   5  -1  -1  419.15   20.02
  -5   1   1  416.26   18.97
  -5   1   1  442.42   18.57
  -4   1   1  240.76   11.40
  -4   1   1  238.19   11.02
  -4   1   1  252.50   12.45
   4  -1  -1  226.18   11.98
  -3   1   1  593.91   24.15
   3  -1  -1  585.84   25.15
  -3   1   1  598.15   25.90
  -3   1   1  609.88   25.27
  -2   1   1 1419.89   61.90
   2  -1  -1 1617.46   60.32
  -2   1   1 1559.61   61.88
   1  -1  -1 2596.92  109.35
  -1   1   1 2613.67  109.43
  -1   1   1 2825.65  104.75
   1  -1  -1 2811.72  105.97
  -1   1   1 2875.65  105.91
   0  -1  -1   27.40    1.66
   0   1   1   32.15    2.02
   0   1   1   28.74    1.73
   0  -1  -1   26.00    1.72
   0  -1  -1   29.36    2.13
   0   1   1   24.29    1.70
   0   1   1   24.03    1.80
   0  -1  -1   29.11    1.86
  -1  -1  -1 2945.46  109.21
  -1  -1  -1 2727.27  105.71
   1   1   1 2733.04  108.48
   1   1   1 2870.76  105.70
   1   1   1 2522.10  104.50
   1   1   1 2806.18  109.31
  -1  -1  -1 2589.17  108.39
  -2  -1  -1 1608.11   63.55
   2   1   1 1587.51   64.88
   2   1   1 1630.17   65.06
  -2  -1  -1 1676.13   65.00
  -2  -1  -1 1667.80   64.78
  -2  -1  -1 1562.15   62.57
  -3  -1  -1  585.96   26.22
  -3  -1  -1  615.25   26.27
  -3  -1  -1  627.47   25.34
   3   1   1  615.68   26.63
  -3  -1  -1  657.70   26.02
   3   1   1  664.20   26.08
  -4  -1  -1  250.07   12.08
  -4  -1  -1  240.89   11.46
  -4  -1  -1  273.89   11.29
   4   1   1  255.92   12.67
  -4  -1  -1  247.85   12.71
  -5  -1  -1  435.63   18.92
  -5  -1  -1  426.80   19.77
   5   1   1  413.75   20.57
  -5  -1  -1  456.16   18.71
  -6  -1  -1   16.52    3.02
   7  -1  -2    8.19    3.77
  -6   1   2  176.30    9.85
   6  -1  -2  142.46   10.16
   5  -1  -2    7.41    1.80
   5  -1  -2    1.66    2.21
  -5   1   2    3.02    1.99
   4  -1  -2   28.23    3.94
  -4   1   2   37.33    3.78
  -4   1   2   44.98    4.53
   4  -1  -2   36.64    2.91
   3  -1  -2  177.41    7.86
  -3   1   2  158.72    8.78
   3  -1  -2  165.74    8.95
  -3   1   2  170.81    9.24
   2  -1  -2  271.74   12.75
  -2   1   2  300.78   13.27
   2  -1  -2  276.07   11.83
  -2   1   2  279.45   13.01
  -1   1   2  212.74    9.85
  -1   1   2  219.69    9.73
   1  -1  -2  200.78    9.57
  -1   1   2  204.89    9.48
   1  -1  -2  207.29    8.95
   0   1   2 1042.94   42.45
   0  -1  -2  995.89   42.05
   0  -1  -2 1103.50   41.25
   0   1   2 1067.27   43.14
   0  -1  -2 1082.98   42.43
   0   1   2 1060.58   42.09
   1   1   2  211.15    9.71
   1   1   2  232.69   10.12
   1   1   2  227.23    9.36
  -1  -1  -2  226.75    9.68
  -1  -1  -2  216.69    9.95
  -1  -1  -2  217.76    9.83
  -1  -1  -2  215.59    9.32
  -2  -1  -2  296.42   11.95
   2   1   2  272.24   12.06
  -2  -1  -2  263.05   12.60
  -2  -1  -2  275.60   11.93
  -2  -1  -2  274.40   12.40
   2   1   2  302.02   12.15
  -3  -1  -2  182.40    8.97
   3   1   2  178.13    8.06
  -3  -1  -2  180.50    8.47
   3   1   2  199.28    8.93
  -3  -1  -2  166.96    9.29
  -3  -1  -2  184.16    7.96
  -4  -1  -2   37.18    2.27
  -4  -1  -2   39.25    4.26
  -4  -1  -2   37.55    3.53
   4   1   2   41.55    3.48
  -4  -1  -2   34.47    3.03
  -5  -1  -2    5.22    2.39
   5   1   2    6.59    2.19
  -5  -1  -2    7.13    2.16
  -5  -1  -2    7.17    1.87
  -6  -1  -2  159.04    9.53
   6   1   2  179.14   10.54
  -6  -1  -2  168.88    9.48
   7  -1  -3    9.92    4.13
  -6   1   3  189.96   11.38
   6  -1  -3  184.08   11.82
  -5   1   3  163.80    9.94
   5  -1  -3  164.78    7.95
   5  -1  -3  149.06    9.91
  -4   1   3  635.59   28.03
   4  -1  -3  597.46   27.20
  -4   1   3  607.36   27.62
   4  -1  -3  620.92   24.99
   3  -1  -3    2.25    1.17
  -3   1   3    4.47    1.62
   3  -1  -3    2.51    1.73
  -3   1   3    3.32    1.71
   2  -1  -3 1691.67   64.36
   2  -1  -3 1658.66   62.43
  -2   1   3 1567.15   65.36
  -2   1   3 1535.49   66.11
  -2   1   3 1610.11   65.69
  -1   1   3  790.53   30.93
  -1   1   3  687.16   31.21
  -1   1   3  778.49   30.68
   1  -1  -3  733.35   29.39
   1  -1  -3  705.92   30.51
   0  -1  -3 2036.34   73.36
   0   1   3 1845.71   75.28
   0  -1  -3 1820.83   74.59
   0   1   3 1863.67   76.53
  -1  -1  -3  748.26   31.02
  -1  -1  -3  747.07   30.19
   1   1   3  761.32   31.23
  -1  -1  -3  753.04   30.51
   1   1   3  751.95   30.24
   2   1   3 1663.02   66.18
  -2  -1  -3 1597.15   65.22
   2   1   3 1697.73   65.44
  -2  -1  -3 1514.84   64.42
  -2  -1  -3 1665.17   65.96
  -2  -1  -3 1709.49   65.41
  -3  -1  -3    1.09    1.40
   3   1   3    2.28    0.92
  -3  -1  -3    1.28    0.69
   3   1   3    1.83    0.85
  -3  -1  -3    2.28    1.07
  -3  -1  -3    1.38    1.38
   4   1   3  624.59   25.99
  -4  -1  -3  614.19   27.07
  -4  -1  -3  578.33   26.00
  -4  -1  -3  610.73   25.52
  -5  -1  -3  157.73    9.30
  -5  -1  -3  150.80   10.11
   5   1   3  169.52    9.05
  -5  -1  -3  163.15    8.49
  -6  -1  -3  184.32   12.57
  -6  -1  -3  222.60   11.83
  -7  -1  -3    8.23    3.90
   6  -1  -4    3.05    3.25
  -6   1   4    2.11    2.66
   5  -1  -4  143.99    9.83
  -5   1   4  130.44    9.33
   4  -1  -4   43.38    3.41
  -4   1   4   43.56    5.18
  -4   1   4   56.89    5.49
   4  -1  -4   48.87    5.64
   3  -1  -4  587.53   24.51
   3  -1  -4  559.76   26.61
  -3   1   4  622.18   27.03
  -3   1   4  606.05   26.69
  -3   1   4  641.30   27.56
   2  -1  -4  196.07   10.95
  -2   1   4  203.83   11.08
  -2   1   4  214.12   10.40
   2  -1  -4  206.78    9.54
  -2   1   4  210.20   10.58
  -1   1   4  427.41   17.97
  -1   1   4  425.92   18.13
  -1   1   4  396.94   18.87
   1  -1  -4  401.47   18.84
   1  -1  -4  403.00   17.47
   0  -1  -4   32.41    3.16
   0   1   4   33.87    2.38
   0  -1  -4   34.68    3.94
   0   1   4   27.83    3.17
  -1  -1  -4  446.26   18.82
  -1  -1  -4  418.29   19.30
   1   1   4  441.91   19.01
   1   1   4  410.28   17.44
  -2  -1  -4  196.23   10.54
  -2  -1  -4  203.48    8.62
   2   1   4  214.01    8.69
   2   1   4  217.50    9.97
  -2  -1  -4  206.43   10.92
  -3  -1  -4  625.50   24.40
   3   1   4  597.87   24.42
  -3  -1  -4  561.88   25.83
  -3  -1  -4  575.95   26.38
   3   1   4  610.29   25.01
  -4  -1  -4   54.88    5.71
   4   1   4   45.90    3.25
  -4  -1  -4   46.74    3.31
  -4  -1  -4   46.61    4.96
  -5  -1  -4  122.63    8.92
  -5  -1  -4  121.44    8.28
  -6  -1  -4    7.01    3.02
  -6  -1  -4    8.32    3.45
   6  -1  -5   -4.22    3.15
  -6   1   5    1.49    2.70
  -5   1   5  252.66   14.86
   4  -1  -5   77.84    7.48
  -4   1   5   77.89    6.86
   4  -1  -5   72.62    4.87
  -3   1   5  736.28   32.00
   3  -1  -5  715.71   32.51
  -3   1   5  760.25   33.23
   3  -1  -5  696.08   29.77
  -3   1   5  752.60   32.32
  -2   1   5  354.68   15.46
   2  -1  -5  293.90   16.03
  -2   1   5  326.45   16.22
  -2   1   5  303.63   14.92
   2  -1  -5  312.55   14.34
  -1   1   5 1028.36   42.62
  -1   1   5  977.39   40.95
   1  -1  -5  953.40   41.85
  -1   1   5 1028.98   40.98
   1  -1  -5  967.87   40.06
   0   1   5   18.31    3.05
   0  -1  -5   12.99    2.60
   0   1   5   13.81    1.75
   0  -1  -5   14.58    3.33
   0   1   5   18.09    1.84
   1   1   5 1011.23   40.45
  -1  -1  -5 1004.53   42.56
   1   1   5  963.62   42.56
  -1  -1  -5 1063.50   41.65
   1   1   5 1023.09   40.47
  -2  -1  -5  330.12   16.67
   2   1   5  338.41   15.55
  -2  -1  -5  337.75   16.18
  -3  -1  -5  702.02   32.31
  -3  -1  -5  734.73   31.86
   3   1   5  756.21   30.92
  -4  -1  -5   75.06    6.72
  -4  -1  -5   73.49    7.00
  -5  -1  -5  220.05   13.25
  -5  -1  -5  244.25   14.21
  -6  -1  -5    2.22    2.70
  -6  -1  -5    0.51    2.39
  -5   1   6  166.02   12.01
   5  -1  -6  179.07   12.72
  -4   1   6   66.02    7.31
   4  -1  -6   97.93    8.92
  -3   1   6   41.18    5.55
   3  -1  -6   37.41    5.88
  -3   1   6   32.03    4.11
  -3   1   6   52.28    5.00
   3  -1  -6   34.05    3.80
  -2   1   6   72.61    5.30
   2  -1  -6   68.77    7.27
  -2   1   6   90.80    5.77
  -2   1   6   79.79    6.64
   2  -1  -6   74.73    5.53
   1  -1  -6  222.98   11.58
   1  -1  -6  229.26   13.33
  -1   1   6  228.44   12.71
  -1   1   6  228.24   11.06
  -1   1   6  234.44   11.08
   0   1   6  161.79    7.89
   0  -1  -6  162.64   10.42
   0   1   6  164.80    7.77
   0  -1  -6  166.24    9.36
   0   1   6  165.92    9.84
   1   1   6  243.58   12.68
  -1  -1  -6  240.72   13.56
  -1  -1  -6  243.73   12.75
  -2  -1  -6   83.77    7.39
   2   1   6   76.52    5.78
  -2  -1  -6   82.91    6.52
  -3  -1  -6   36.63    5.09
  -3  -1  -6   32.14    5.30
  -4  -1  -6   80.02    7.46
  -4  -1  -6   69.92    7.53
  -5  -1  -6  159.90   11.64
  -5  -1  -6  156.64   11.05
   4  -1  -7  202.55   14.44
  -4   1   7  210.43   13.65
  -3   1   7   -2.13    1.87
   3  -1  -7   -1.44    3.53
   3  -1  -7   -0.22    1.80
  -2   1   7  266.03   15.25
   2  -1  -7  287.46   16.52
   2  -1  -7  262.96   13.54
   1  -1  -7   43.36    6.21
   1  -1  -7   40.86    4.74
  -1   1   7   48.72    5.77
   0  -1  -7  546.64   25.02
   0   1   7  562.91   26.20
   0  -1  -7  563.35   26.68
  -1  -1  -7   31.31    4.64
  -1  -1  -7   51.76    6.16
   1   1   7   46.15    5.05
   2   1   7  278.75   14.18
  -2  -1  -7  267.46   14.70
  -2  -1  -7  258.20   15.35
  -3  -1  -7    0.04    2.16
  -3  -1  -7    2.05    2.71
  -4  -1  -7  196.79   12.63
  -4  -1  -7  190.79   13.23
  -3   1   8   11.02    3.90
   3  -1  -8   10.33    5.25
   2  -1  -8   28.40    6.42
  -2   1   8   35.56    5.76
   2  -1  -8   38.90    4.88
   1  -1  -8   21.87    5.18
   1  -1  -8   26.21    4.34
  -1   1   8   15.71    4.22
   0  -1  -8    3.03    2.66
   0   1   8    3.62    2.77
   0  -1  -8    3.93    3.20
  -1  -1  -8   25.55    5.20
  -1  -1  -8   27.37    4.80
   1   1   8   22.48    4.45
  -2  -1  -8   41.46    6.28
  -2  -1  -8   28.74    5.30
  -3  -1  -8    6.25    3.47
  -3  -1  -8    8.02    3.64
  -2   2  -8   32.65    6.10
  -2   2  -8   45.55    6.60
  -1   2  -8   71.02    7.84
  -1   2  -8   78.38    7.72
   1  -2   8   82.40    6.74
   0  -2   8   41.83    5.62
   0   2  -8   50.85    6.93
   0   2  -8   40.65    5.56
  -1  -2   8   63.27    6.93
   1   2  -8   70.93    7.90
   1   2  -8   86.14    7.24
  -2  -2   8   33.59    5.80
   2   2  -8   33.21    6.52
  -4   2  -7    2.58    3.17
  -4   2  -7    4.13    3.41
  -3   2  -7   65.39    7.41
  -3   2  -7   73.32    7.95
  -2   2  -7   -0.76    2.51
  -2   2  -7    0.36    2.47
  -1   2  -7   46.78    6.11
   1  -2   7   49.61    5.01
  -1   2  -7   63.60    6.29
   0  -2   7   50.86    5.61
   0   2  -7   55.13    5.73
   0   2  -7   51.00    6.20
   1   2  -7   61.96    6.94
  -1  -2   7   59.84    6.40
   1   2  -7   62.68    5.77
   2   2  -7    2.62    3.20
   2   2  -7    0.39    2.02
  -2  -2   7    0.35    2.44
   3   2  -7   65.71    8.14
  -3  -2   7   60.52    6.94
  -4  -2   7   -1.13    2.81
   4   2  -7   -0.36    3.93
  -5   2  -6   14.55    4.50
  -5   2  -6   24.24    5.37
  -4   2  -6   46.84    6.33
  -4   2  -6   42.72    6.23
  -3   2  -6   37.67    5.51
  -3   2  -6   33.59    5.33
   2  -2   6   68.43    4.99
  -2   2  -6   67.47    6.74
  -2   2  -6   68.69    6.53
  -1   2  -6   27.43    4.60
   1  -2   6   28.34    3.54
  -1   2  -6   20.49    3.78
   0   2  -6  196.13   10.96
   0  -2   6  192.92    9.33
   0   2  -6  199.29    9.38
   0  -2   6  199.61   11.04
   0   2  -6  222.11   12.06
  -1  -2   6   23.73    3.93
   1   2  -6   28.92    3.75
   1   2  -6   28.63    3.15
   1   2  -6   21.55    4.31
  -1  -2   6   18.04    2.77
   2   2  -6   84.38    6.00
   2   2  -6   86.30    5.75
  -2  -2   6   83.77    5.66
  -2  -2   6   59.76    6.38
   2   2  -6   78.70    7.51
  -3  -2   6   31.96    4.91
   3   2  -6   34.06    5.65
   4   2  -6   45.02    6.62
  -4  -2   6   51.13    6.58
  -5  -2   6   20.03    5.16
   5   2  -6   24.11    5.63
  -6   2  -5   61.09    7.52
  -6   2  -5   47.87    7.34
  -5   2  -5   27.95    5.10
  -5   2  -5   28.87    5.42
  -4   2  -5   93.24    7.67
  -4   2  -5  102.65    8.10
  -3   2  -5   83.98    6.82
  -3   2  -5   80.08    6.78
  -2   2  -5  184.75   10.69
   2  -2   5  180.03    9.05
  -2   2  -5  180.65   10.43
  -1   2  -5   56.05    5.38
  -1   2  -5   52.63    2.81
   1  -2   5   55.89    2.87
  -1   2  -5   49.28    4.84
   1  -2   5   52.84    4.15
   0  -2   5  272.47   12.48
   0   2  -5  283.70   14.29
   0   2  -5  285.20   12.47
   0  -2   5  282.55   13.66
   0   2  -5  286.75   13.63
   1   2  -5   69.36    4.30
  -1  -2   5   57.34    4.74
   1   2  -5   49.45    4.26
   1   2  -5   52.56    5.37
  -1  -2   5   52.02    4.00
  -2  -2   5  158.91    9.95
  -2  -2   5  176.34    9.46
   2   2  -5  190.41    8.89
   2   2  -5  185.17    9.68
   2   2  -5  163.93   10.46
   3   2  -5   76.75    6.35
   3   2  -5   95.51    7.53
  -3  -2   5   96.18    6.56
  -3  -2   5   86.79    6.92
  -4  -2   5   99.86    7.73
   4   2  -5   92.09    7.67
   5   2  -5   22.69    5.08
  -5  -2   5   20.27    4.52
  -6  -2   5   42.66    6.49
   6   2  -5   47.83    7.05
  -6   2  -4   98.42    8.73
  -6   2  -4   88.55    8.87
  -5   2  -4   35.04    5.14
  -5   2  -4   39.93    5.81
  -4   2  -4  138.34    9.09
  -4   2  -4  142.90    9.37
  -3   2  -4   34.60    4.31
  -3   2  -4   28.57    2.06
  -3   2  -4   35.02    4.35
  -3   2  -4   32.87    2.32
   3  -2   4   30.28    2.26
  -2   2  -4  254.50   10.47
  -2   2  -4  248.12   12.57
   2  -2   4  253.87   11.25
  -2   2  -4  238.53   12.50
  -1   2  -4   35.12    2.13
   1  -2   4   34.48    2.83
   1  -2   4   34.41    2.23
  -1   2  -4   43.91    3.97
  -1   2  -4   34.45    3.80
   0   2  -4  244.51   11.74
   0   2  -4  260.12   11.12
   0  -2   4  240.87   11.84
   0   2  -4  259.63   12.48
  -1  -2   4   38.70    3.59
   1   2  -4   33.27    2.99
   1   2  -4   31.90    2.93
  -1  -2   4   32.57    3.03
   1   2  -4   36.37    4.07
  -2  -2   4  234.70   12.23
  -2  -2   4  242.17   12.63
   2   2  -4  272.41   12.53
   2   2  -4  258.14   11.07
   2   2  -4  260.70   12.90
  -3  -2   4   25.06    3.71
   3   2  -4   31.74    3.90
  -3  -2   4   21.22    3.43
   3   2  -4   30.99    2.03
   3   2  -4   27.31    3.94
  -4  -2   4  154.89    9.57
   4   2  -4  146.03    9.51
   5   2  -4   48.26    5.79
  -5  -2   4   39.52    5.45
  -6  -2   4   88.38    7.98
   6   2  -4  108.39    9.10
  -6   2  -3   33.92    5.23
  -6   2  -3   38.19    5.89
  -5   2  -3  172.52   10.67
  -5   2  -3  156.49    8.38
  -5   2  -3  145.61    9.68
  -5   2  -3  159.86    8.45
  -4   2  -3  212.63   10.16
  -4   2  -3  212.66   11.58
  -4   2  -3  211.30   11.84
  -4   2  -3  215.03   10.19
  -3   2  -3  313.89   13.51
  -3   2  -3  294.91   14.67
  -3   2  -3  305.85   13.56
   3  -2   3  317.24   12.77
   3  -2   3  309.99   12.86
  -3   2  -3  300.66   14.88
  -2   2  -3  750.55   29.75
  -2   2  -3  709.39   30.32
   2  -2   3  723.90   29.72
  -2   2  -3  747.01   30.16
  -2   2  -3  719.17   30.48
  -1   2  -3  637.50   26.75
  -1   2  -3  681.37   27.30
  -1   2  -3  682.28   27.82
   1  -2   3  651.49   26.95
  -1   2  -3  656.22   27.33
   0   2  -3  571.68   24.49
   0   2  -3  563.23   23.78
   0   2  -3  579.68   23.30
   0   2  -3  558.40   23.32
   0  -2   3  563.85   23.52
   1   2  -3  678.21   28.97
   1   2  -3  659.55   27.86
  -1  -2   3  647.90   27.98
   1   2  -3  713.24   26.80
   1   2  -3  652.41   27.81
   2   2  -3  734.99   31.14
  -2  -2   3  733.83   31.25
  -2  -2   3  775.39   28.73
   2   2  -3  708.15   30.46
   2   2  -3  718.14   31.99
   2   2  -3  743.67   28.77
  -3  -2   3  317.81   15.14
   3   2  -3  326.01   15.35
   3   2  -3  318.44   14.88
  -3  -2   3  301.21   15.14
   4   2  -3  230.41   12.45
  -4  -2   3  231.21   12.06
   4   2  -3  219.83   11.80
  -4  -2   3  216.73   12.14
   5   2  -3  169.84   10.56
  -5  -2   3  186.78   10.76
   6   2  -3   38.84    5.50
  -6  -2   3   38.10    5.33
  -7   2  -2  156.52   10.88
  -6   2  -2   14.49    2.90
  -6   2  -2   16.05    3.73
  -5   2  -2  262.41   12.98
  -5   2  -2  250.79   13.72
  -5   2  -2  279.00   14.72
  -5   2  -2  270.75   13.16
  -4   2  -2   74.15    4.99
  -4   2  -2   79.33    4.98
  -4   2  -2   89.10    6.46
  -4   2  -2   80.95    5.89
  -3   2  -2 1168.09   44.63
  -3   2  -2 1073.61   45.09
  -3   2  -2 1033.95   45.22
  -3   2  -2 1122.45   45.12
   3  -2   2 1134.99   44.46
  -3   2  -2 1097.95   44.72
  -2   2  -2  420.07   18.50
  -2   2  -2  412.93   18.45
  -2   2  -2  452.17   18.12
   2  -2   2  432.81   18.14
  -2   2  -2  419.60   18.06
   2  -2   2  433.48   18.04
   1  -2   2  931.57   37.92
  -1   2  -2  937.01   38.46
  -1   2  -2  918.53   37.33
  -1   2  -2  971.63   37.87
  -1   2  -2  926.28   37.29
   0   2  -2  212.63    9.39
   0  -2   2  219.81    9.56
   0   2  -2  206.38   10.05
   0   2  -2  211.36    9.48
   0   2  -2  210.04    9.37
   0  -2   2  213.01    9.68
  -1  -2   2  953.58   38.28
  -1  -2   2  951.93   37.06
   1   2  -2  912.00   36.31
   1   2  -2  965.39   38.14
   1   2  -2  913.68   38.96
   1   2  -2  912.61   37.16
   2   2  -2  417.27   18.02
   2   2  -2  419.42   19.19
  -2  -2   2  458.32   18.92
   2   2  -2  411.71   18.61
   3   2  -2 1061.96   45.90
  -3  -2   2 1135.95   46.06
   3   2  -2 1100.00   46.45
   3   2  -2 1114.23   44.51
  -4  -2   2   86.76    5.95
  -4  -2   2   98.54    6.53
   4   2  -2  100.35    6.71
   4   2  -2   85.16    6.09
  -5  -2   2  302.18   14.57
   5   2  -2  265.76   14.37
  -6  -2   2   15.78    3.61
   6   2  -2    8.19    3.21
   7   2  -2  173.18   11.66
  -7   2  -1   92.92    7.89
  -6   2  -1   73.64    6.73
  -5   2  -1  410.49   18.92
  -5   2  -1  388.71   18.77
  -5   2  -1  399.88   18.67
  -4   2  -1  375.14   17.09
  -4   2  -1  381.96   16.02
  -4   2  -1  372.62   17.32
  -4   2  -1  331.68   17.36
  -4   2  -1  371.34   17.19
   4  -2   1  395.11   15.89
  -3   2  -1  412.48   18.82
  -3   2  -1  396.18   18.46
  -3   2  -1  429.92   18.60
  -3   2  -1  419.19   17.92
   3  -2   1  461.34   17.91
  -3   2  -1  424.70   18.82
  -2   2  -1 1415.25   56.22
  -2   2  -1 1367.83   54.80
  -2   2  -1 1458.82   56.33
  -2   2  -1 1386.91   55.11
   2  -2   1 1347.31   56.20
   1  -2   1 2370.02   90.70
  -1   2  -1 2242.41   90.71
  -1   2  -1 2288.17   87.67
   1  -2   1 2347.88   87.64
  -1   2  -1 2191.86   89.99
   1  -2   1 2166.80   90.02
  -1   2  -1 2252.21   87.25
   0  -2   1  839.44   32.23
   0  -2   1  858.12   33.54
   0   2  -1  817.40   33.97
   0   2  -1  824.87   32.16
   0   2  -1  830.53   32.32
   0  -2   1  781.18   32.20
   0   2  -1  821.51   33.39
   1   2  -1 2279.49   88.56
   1   2  -1 2247.63   85.02
   1   2  -1 2255.33   85.85
   1   2  -1 2221.71   89.56
  -1  -2   1 2118.90   88.56
  -2  -2   1 1362.71   55.29
   2   2  -1 1466.09   55.91
   2   2  -1 1405.91   58.34
   2   2  -1 1436.51   57.78
  -2  -2   1 1465.00   57.84
   3   2  -1  421.64   18.76
   3   2  -1  401.92   17.83
  -3  -2   1  409.32   18.60
   3   2  -1  427.29   18.75
   4   2  -1  366.61   17.95
  -4  -2   1  396.29   17.86
   4   2  -1  347.75   17.04
   4   2  -1  399.72   17.90
   5   2  -1  394.25   19.42
  -5  -2   1  440.35   20.16
  -5  -2   1  420.89   19.27
   6   2  -1   70.46    6.87
  -6  -2   1   87.77    6.40
   7   2  -1   98.36    8.43
   7  -2   0    5.72    2.99
  -6   2   0  793.08   34.14
  -5   2   0    0.60    1.42
  -5   2   0   -0.93    0.99
  -5   2   0    1.75    1.38
  -5   2   0   -0.19    1.70
  -4   2   0  872.62   36.82
  -4   2   0  910.98   38.22
  -4   2   0  942.58   36.84
  -4   2   0  850.76   37.74
  -3   2   0    0.37    1.11
  -3   2   0   -0.48    0.73
  -3   2   0   -0.59    0.87
  -3   2   0   -1.24    0.58
  -2   2   0 1745.74   68.01
   2  -2   0 1593.49   70.15
  -2   2   0 1857.24   70.41
  -2   2   0 1799.08   70.40
   1  -2   0   -0.27    0.63
   1  -2   0   -0.47    0.52
   1  -2   0   -0.85    0.60
  -1   2   0   -1.90    0.56
  -1   2   0    0.03    0.81
  -1   2   0   -0.85    0.60
   0  -2   0 8053.49  363.05
   0  -2   0 9330.90  351.20
   0   2   0 8786.89  364.93
   0  -2   0 9099.84  363.67
   0  -2   0 9499.07  350.06
   0   2   0 9799.18  365.97
   0  -2   0 9998.73  365.71
   1   2   0   -1.62    0.45
  -1  -2   0    0.23    0.90
  -1  -2   0   -0.84    0.49
   1   2   0   -2.19    0.53
   1   2   0   -0.88    0.77
   1   2   0   -1.30    0.44
   2   2   0 1823.28   70.51
   2   2   0 1739.14   71.00
  -2  -2   0 1629.70   67.21
   2   2   0 1726.77   67.05
   2   2   0 1791.15   68.25
  -2  -2   0 1823.97   70.49
  -3  -2   0    0.31    0.59
   3   2   0    0.54    0.95
  -3  -2   0   -0.08    0.91
   3   2   0   -1.57    0.89
   3   2   0   -0.96    0.54
   4   2   0  981.87   41.61
  -4  -2   0  949.96   38.31
   4   2   0 1007.69   41.22
  -4  -2   0  985.61   41.17
   5   2   0    0.45    1.49
  -5  -2   0   -1.03    1.04
  -5  -2   0    1.85    1.63
  -5  -2   0   -0.05    1.26
   7   2   0    0.65    2.69
   7  -2  -1   82.50    8.26
  -6   2   1   66.99    5.15
   6  -2  -1   64.95    6.67
  -5   2   1  401.46   17.45
  -5   2   1  381.91   18.75
   5  -2  -1  363.21   18.26
  -5   2   1  364.83   17.19
  -4   2   1  361.74   17.14
  -4   2   1  356.60   16.83
  -4   2   1  365.73   15.86
   4  -2  -1  331.49   16.41
  -4   2   1  337.51   15.80
  -3   2   1  386.94   17.39
  -3   2   1  389.19   17.02
   3  -2  -1  384.54   17.56
  -3   2   1  417.89   18.46
  -3   2   1  409.10   18.10
  -2   2   1 1398.63   56.06
   2  -2  -1 1332.30   54.44
  -2   2   1 1406.82   56.11
   1  -2  -1 2240.36   90.09
  -1   2   1 2173.99   90.12
  -1   2   1 2205.36   90.67
   1  -2  -1 2233.54   87.53
  -1   2   1 2443.54   87.62
   1  -2  -1 2268.30   86.88
   0  -2  -1  802.52   32.37
   0   2   1  877.66   32.49
   0   2   1  860.47   33.72
   0  -2  -1  825.49   32.60
   0   2   1  831.03   34.07
   0  -2  -1  766.03   33.54
  -1  -2  -1 2259.39   89.93
  -1  -2  -1 2248.50   87.35
   1   2   1 2279.14   89.95
   1   2   1 2318.71   87.36
   1   2   1 2237.96   90.78
  -1  -2  -1 2227.21   86.60
  -2  -2  -1 1238.02   54.68
   2   2   1 1424.16   57.41
   2   2   1 1480.49   57.00
  -2  -2  -1 1434.60   55.55
  -2  -2  -1 1395.96   56.84
   2   2   1 1511.79   55.54
   3   2   1  441.25   18.92
   3   2   1  418.45   18.59
  -3  -2  -1  423.22   18.60
  -3  -2  -1  421.20   18.61
  -3  -2  -1  437.04   17.81
   4   2   1  375.04   16.27
  -4  -2  -1  347.17   15.36
  -4  -2  -1  360.20   16.83
   4   2   1  361.64   16.94
  -4  -2  -1  355.01   16.43
   5   2   1  379.97   18.32
  -5  -2  -1  358.02   17.44
  -5  -2  -1  380.89   16.36
   7  -2  -2  149.10   10.91
   6  -2  -2   14.75    2.77
  -6   2   2   13.28    3.07
   6  -2  -2   14.13    3.54
   5  -2  -2  237.33   13.83
  -5   2   2  259.44   13.37
   5  -2  -2  294.18   12.73
  -4   2   2   82.67    6.26
  -4   2   2   93.73    6.30
   4  -2  -2   74.17    5.97
   4  -2  -2   81.51    5.07
  -4   2   2   88.15    5.77
  -3   2   2 1009.29   44.60
   3  -2  -2 1081.54   42.36
  -3   2   2 1095.05   45.14
   3  -2  -2 1073.41   43.67
  -3   2   2 1081.64   44.61
  -2   2   2  414.18   18.50
   2  -2  -2  401.18   17.39
  -2   2   2  429.80   18.58
   2  -2  -2  421.35   18.13
   1  -2  -2  897.27   36.33
  -1   2   2  885.10   37.56
   1  -2  -2  968.46   37.22
   1  -2  -2  927.35   35.80
  -1   2   2  845.45   37.13
   0   2   2  231.85    9.79
   0  -2  -2  201.11    9.19
   0  -2  -2  212.56    9.37
   0  -2  -2  207.51    9.74
   0   2   2  198.74    9.74
   0   2   2  194.99    9.40
  -1  -2  -2  892.37   36.84
  -1  -2  -2  932.85   36.54
   1   2   2  907.43   38.09
   1   2   2  958.73   37.57
  -1  -2  -2  927.45   37.50
  -2  -2  -2  414.32   18.00
  -2  -2  -2  428.60   17.91
   2   2   2  426.11   18.28
  -2  -2  -2  409.90   17.83
   2   2   2  426.91   17.92
  -3  -2  -2 1056.85   43.24
  -3  -2  -2 1093.19   44.26
   3   2   2 1119.52   44.55
   3   2   2 1060.88   44.45
  -3  -2  -2 1092.60   44.08
   4   2   2   89.10    5.71
  -4  -2  -2   87.02    5.43
  -4  -2  -2   82.23    6.08
  -4  -2  -2   88.09    5.55
   4   2   2   90.54    5.17
   5   2   2  300.53   14.49
  -5  -2  -2  259.38   13.53
  -5  -2  -2  288.80   14.99
  -5  -2  -2  283.25   13.44
  -6  -2  -2   13.18    3.60
  -6  -2  -2   10.01    2.67
  -6   2   3   28.86    4.53
   6  -2  -3   44.14    5.98
  -5   2   3  157.93    9.85
   5  -2  -3  173.57    8.68
   5  -2  -3  154.91   10.19
  -4   2   3  231.07   12.21
   4  -2  -3  216.38   10.62
  -4   2   3  224.37   12.29
   4  -2  -3  226.83   12.28
  -4   2   3  230.03   12.52
  -3   2   3  328.92   15.72
   3  -2  -3  303.59   13.89
   3  -2  -3  328.79   15.40
  -3   2   3  309.37   15.38
  -3   2   3  312.75   15.30
   2  -2  -3  724.22   29.24
  -2   2   3  726.42   31.10
  -2   2   3  712.40   31.23
  -2   2   3  742.42   30.89
   2  -2  -3  709.26   30.37
   1  -2  -3  643.90   26.15
   1  -2  -3  649.17   27.11
  -1   2   3  644.09   27.22
  -1   2   3  642.88   27.86
   0  -2  -3  555.03   23.49
   0   2   3  569.43   23.71
   0   2   3  565.30   24.42
   0  -2  -3  550.13   24.08
   0  -2  -3  583.42   23.24
  -1  -2  -3  638.13   26.94
  -1  -2  -3  669.08   27.53
   1   2   3  667.23   27.93
  -1  -2  -3  660.37   27.00
   1   2   3  656.11   27.10
  -2  -2  -3  712.65   29.75
  -2  -2  -3  714.11   29.31
   2   2   3  709.02   29.28
  -2  -2  -3  716.99   29.52
   2   2   3  717.13   30.02
  -3  -2  -3  314.05   14.13
  -3  -2  -3  320.79   15.21
   3   2   3  333.43   14.33
  -3  -2  -3  296.38   14.71
   3   2   3  335.32   14.48
  -4  -2  -3  209.43   11.79
  -4  -2  -3  211.20   10.52
   4   2   3  226.69   10.30
   4   2   3  228.62   10.92
  -4  -2  -3  214.01   11.28
   5   2   3  157.49    9.19
  -5  -2  -3  161.81   10.38
  -5  -2  -3  171.37    9.07
  -5  -2  -3  172.34    9.67
  -6  -2  -3   35.84    4.54
  -6  -2  -3   26.83    4.88
   6  -2  -4   70.38    7.70
  -6   2   4   73.26    7.32
  -5   2   4   37.37    5.28
   5  -2  -4   45.07    3.99
   5  -2  -4   37.72    5.56
   4  -2  -4  139.72    7.53
  -4   2   4  142.99    9.24
   4  -2  -4  127.06    9.04
  -3   2   4   26.14    4.07
  -3   2   4   31.34    4.04
  -3   2   4   27.92    3.68
   3  -2  -4   32.47    4.57
   3  -2  -4   33.10    3.22
   2  -2  -4  221.86   12.20
   2  -2  -4  233.56   10.99
  -2   2   4  226.28   11.97
  -2   2   4  262.58   12.03
  -2   2   4  232.26   12.46
   1  -2  -4   28.50    3.85
   1  -2  -4   33.90    3.19
  -1   2   4   28.63    3.01
  -1   2   4   26.40    2.82
  -1   2   4   34.39    3.79
   0   2   4  246.88   11.49
   0  -2  -4  250.42   11.28
   0  -2  -4  253.43   11.80
   0  -2  -4  244.69   12.69
   0   2   4  260.43   12.58
  -1  -2  -4   34.28    3.88
   1   2   4   29.23    2.47
  -1  -2  -4   31.55    2.27
  -1  -2  -4   40.07    3.75
   1   2   4   33.45    3.36
  -2  -2  -4  237.85   10.49
  -2  -2  -4  237.22   12.14
   2   2   4  233.43   11.51
   2   2   4  236.91   10.47
  -2  -2  -4  248.38   12.02
  -3  -2  -4   26.13    3.73
   3   2   4   27.24    2.93
  -3  -2  -4   31.54    2.60
   3   2   4   29.99    2.39
  -3  -2  -4   34.17    4.18
  -4  -2  -4  137.06    9.14
  -4  -2  -4  139.82    7.38
  -4  -2  -4  143.45    8.83
   4   2   4  143.98    7.39
  -5  -2  -4   33.83    4.99
  -5  -2  -4   30.53    4.44
  -6  -2  -4   81.81    8.15
  -6  -2  -4   83.86    7.06
   6  -2  -5   46.07    7.09
   5  -2  -5   21.82    4.84
  -5   2   5   30.08    5.31
   4  -2  -5   93.74    8.03
   4  -2  -5   99.69    6.22
  -4   2   5  100.22    8.04
  -3   2   5   90.17    6.55
   3  -2  -5   76.20    7.26
  -3   2   5   83.24    7.02
  -3   2   5   76.54    6.02
   3  -2  -5   86.47    5.52
  -2   2   5  177.93   10.73
   2  -2  -5  181.23   10.98
   2  -2  -5  179.29    9.33
  -2   2   5  182.93    9.75
  -2   2   5  178.73    9.92
  -1   2   5   63.78    5.75
  -1   2   5   53.99    4.12
   1  -2  -5   53.75    4.46
   1  -2  -5   50.73    5.67
  -1   2   5   64.03    4.44
   0   2   5  232.71   11.91
   0  -2  -5  278.23   13.98
   0   2   5  281.12   12.18
   0   2   5  247.52   13.31
   0  -2  -5  273.22   12.89
  -1  -2  -5   47.24    5.19
   1   2   5   56.41    4.67
   1   2   5   59.95    3.54
  -1  -2  -5   45.92    4.71
   2   2   5  195.29    9.88
   2   2   5  173.41    7.92
  -2  -2  -5  189.79    8.00
  -2  -2  -5  163.08    9.90
  -2  -2  -5  171.41   10.47
   3   2   5   85.60    5.67
  -3  -2  -5   75.41    6.28
  -3  -2  -5   80.04    6.71
  -4  -2  -5   90.98    7.69
  -4  -2  -5  102.07    7.54
  -5  -2  -5   29.87    4.96
  -5  -2  -5   22.22    4.48
  -6  -2  -5   57.05    6.77
  -6  -2  -5   65.29    7.81
  -5   2   6   21.89    5.10
   5  -2  -6    6.63    4.05
   4  -2  -6   52.86    7.16
   4  -2  -6   52.69    4.81
  -4   2   6   39.36    6.06
  -3   2   6   41.21    5.83
   3  -2  -6   29.72    5.58
   3  -2  -6   30.63    3.82
   2  -2  -6   81.05    7.87
  -2   2   6   62.87    6.61
  -2   2   6   82.47    5.74
  -2   2   6   75.44    5.58
   2  -2  -6   72.63    5.54
   1  -2  -6   21.03    3.44
  -1   2   6   25.82    3.07
   1  -2  -6   25.72    4.78
  -1   2   6   21.56    2.87
  -1   2   6   16.02    3.53
   0   2   6  208.42    9.84
   0   2   6  203.60   11.60
   0   2   6  192.33    9.64
   0  -2  -6  190.47   11.86
   0  -2  -6  203.95   11.02
  -1  -2  -6   23.66    3.87
  -1  -2  -6   27.79    4.66
   1   2   6   30.22    4.21
  -2  -2  -6   64.41    6.15
  -2  -2  -6   72.20    6.84
   2   2   6   70.98    5.69
  -3  -2  -6   37.54    5.49
  -3  -2  -6   37.43    5.17
  -4  -2  -6   41.02    5.89
  -4  -2  -6   34.60    5.16
  -5  -2  -6   16.73    4.38
  -5  -2  -6   15.55    4.46
  -4   2   7   -3.22    2.56
   4  -2  -7    4.01    4.11
   3  -2  -7   67.05    6.11
   3  -2  -7   59.75    8.08
  -3   2   7   84.61    8.23
  -2   2   7   -0.60    2.22
   2  -2  -7   -1.51    1.98
   2  -2  -7   -2.42    2.78
   1  -2  -7   69.57    7.65
  -1   2   7   68.61    6.86
   1  -2  -7   53.88    5.62
   0  -2  -7   47.62    6.39
   0   2   7   45.00    5.72
   0  -2  -7   46.87    5.29
  -1  -2  -7   52.44    5.81
   1   2   7   70.14    6.58
  -1  -2  -7   76.83    7.43
  -2  -2  -7    1.81    2.45
  -2  -2  -7   -1.40    2.00
   2   2   7    1.46    2.24
  -3  -2  -7   63.39    7.39
  -3  -2  -7   67.15    7.03
  -4  -2  -7    3.25    3.16
  -4  -2  -7    1.19    2.61
   2  -2  -8   32.98    5.07
  -2   2   8   41.45    6.45
   2  -2  -8   39.44    6.96
   1  -2  -8   55.97    6.05
  -1   2   8   56.92    6.71
   1  -2  -8   76.75    8.51
   0  -2  -8   37.87    6.18
   0   2   8   45.73    6.13
   0  -2  -8   32.41    5.08
  -1  -2  -8   70.58    7.21
  -1  -2  -8   80.17    8.37
   1   2   8   78.62    7.52
  -2  -2  -8   38.42    5.72
  -2  -2  -8   40.55    6.32
  -2   3  -8   56.81    7.29
  -2   3  -8   62.60    7.84
  -1   3  -8   58.04    6.98
   1  -3   8   62.92    6.37
  -1   3  -8   64.70    7.46
   0   3  -8    7.49    3.42
   0  -3   8    3.27    2.74
   0   3  -8    7.62    3.59
  -1  -3   8   69.49    7.48
   1   3  -8   61.59    7.47
  -2  -3   8   50.49    6.89
   2   3  -8   54.60    7.53
  -3   3  -7   19.20    4.87
  -3   3  -7   20.89    5.14
  -2   3  -7   69.36    7.55
  -2   3  -7   82.05    8.07
  -1   3  -7   13.85    3.88
   1  -3   7   11.70    3.00
  -1   3  -7   15.50    3.95
   0   3  -7   83.58    7.04
   0   3  -7  103.31    8.00
   0  -3   7   89.31    7.01
  -1  -3   7   11.75    3.46
   1   3  -7   12.83    3.95
   1   3  -7   12.87    3.55
   2   3  -7   86.20    8.31
  -2  -3   7   76.63    7.60
  -3  -3   7   15.50    4.22
   3   3  -7   20.44    5.30
  -5   3  -6   92.91    9.53
  -5   3  -6  136.40   10.50
  -4   3  -6  157.48   11.23
  -4   3  -6  152.41   11.10
  -3   3  -6   49.56    6.44
  -3   3  -6   73.07    7.29
  -2   3  -6  237.63   13.64
   2  -3   6  229.83   11.94
  -2   3  -6  266.16   14.05
  -1   3  -6  282.01   14.95
   1  -3   6  283.46   14.02
  -1   3  -6  274.79   14.73
   0  -3   6  407.53   19.98
   0   3  -6  444.20   20.09
   0   3  -6  426.95   20.54
  -1  -3   6  254.09   14.52
   1   3  -6  307.59   14.23
   1   3  -6  289.42   15.27
  -1  -3   6  286.51   13.79
   1   3  -6  283.12   13.63
   2   3  -6  258.55   12.17
   2   3  -6  231.31   13.85
  -2  -3   6  245.48   12.78
  -2  -3   6  234.56   13.54
   2   3  -6  252.52   12.88
  -3  -3   6   42.59    5.60
   3   3  -6   47.93    6.38
  -4  -3   6  148.18   10.69
   4   3  -6  159.49   11.27
   5   3  -6  142.25   11.35
  -5   3  -5  130.71    9.81
  -5   3  -5   91.40    8.91
  -4   3  -5    9.10    3.40
  -4   3  -5    5.35    2.94
  -3   3  -5  223.22   12.64
  -3   3  -5  206.10   12.21
   2  -3   5   38.38    3.40
  -2   3  -5   37.61    4.78
  -2   3  -5   44.37    5.28
   1  -3   5  279.07   12.71
   1  -3   5  292.42   13.74
  -1   3  -5  300.40   14.57
  -1   3  -5  293.50   12.57
  -1   3  -5  276.63   14.42
   0   3  -5   57.25    5.30
   0  -3   5   59.70    4.66
   0  -3   5   52.51    4.05
   0   3  -5   59.88    4.96
   0   3  -5   64.08    3.95
  -1  -3   5  278.09   13.89
   1   3  -5  297.12   14.95
   1   3  -5  312.41   13.89
  -1  -3   5  288.53   14.58
   1   3  -5  291.82   13.72
   2   3  -5   37.75    3.37
   2   3  -5   35.79    3.97
   2   3  -5   39.28    5.10
  -2  -3   5   33.61    4.35
  -2  -3   5   40.95    4.31
  -3  -3   5  240.21   12.59
   3   3  -5  211.81   12.63
  -3  -3   5  225.97   12.71
   4   3  -5   11.24    3.68
  -4  -3   5    8.41    3.17
  -5  -3   5  126.85    9.48
   5   3  -5  118.06    9.50
  -6   3  -4   34.11    5.69
  -6   3  -4   29.18    5.61
  -5   3  -4  197.60   12.42
  -5   3  -4  194.80   12.29
  -4   3  -4  113.78    8.38
  -4   3  -4  129.80    8.78
  -3   3  -4 1011.97   42.42
  -3   3  -4  971.74   42.28
  -3   3  -4 1036.70   41.17
  -2   3  -4  296.39   13.64
  -2   3  -4  310.69   14.69
   2  -3   4  285.83   12.80
  -2   3  -4  281.06   14.16
  -2   3  -4  290.88   12.74
  -1   3  -4 1306.77   52.33
  -1   3  -4 1286.37   52.49
  -1   3  -4 1300.47   52.34
  -1   3  -4 1309.32   53.97
   0   3  -4  237.52   11.16
   0   3  -4  221.25   10.75
   0   3  -4  211.95   10.04
   0  -3   4  213.76   10.40
   0   3  -4  208.11   11.27
   1   3  -4 1309.07   54.48
   1   3  -4 1337.02   51.05
   1   3  -4 1206.59   52.63
  -1  -3   4 1289.69   53.06
   1   3  -4 1326.34   52.41
   2   3  -4  286.98   12.59
   2   3  -4  296.87   14.41
   2   3  -4  288.16   15.17
  -2  -3   4  309.68   14.50
   2   3  -4  290.73   14.05
  -3  -3   4 1048.97   45.06
   3   3  -4 1056.12   44.90
   3   3  -4 1040.20   43.79
  -3  -3   4 1083.47   45.32
  -4  -3   4  136.42    8.79
   4   3  -4  125.00    8.49
   5   3  -4  214.31   12.38
  -5  -3   4  204.71   12.49
  -6  -3   4   37.91    5.75
   6   3  -4   41.74    6.09
  -6   3  -3  131.92    9.94
  -6   3  -3  145.50   10.67
  -5   3  -3   10.44    3.23
  -5   3  -3    9.34    3.42
  -4   3  -3  298.84   14.12
  -4   3  -3  301.95   14.28
  -4   3  -3  318.99   15.77
  -4   3  -3  297.75   15.50
  -3   3  -3  185.56   10.72
  -3   3  -3  196.11    9.59
  -3   3  -3  207.87    9.40
  -3   3  -3  202.66   10.77
  -2   3  -3  675.41   27.93
  -2   3  -3  645.45   27.94
   2  -3   3  655.78   27.42
  -2   3  -3  660.45   27.78
  -2   3  -3  650.65   27.33
  -1   3  -3   11.33    2.23
   1  -3   3   10.51    1.73
  -1   3  -3    8.33    1.57
  -1   3  -3    7.77    1.72
  -1   3  -3    6.32    1.73
   0   3  -3  879.09   36.83
   0  -3   3  947.48   38.02
   0   3  -3  941.81   37.66
   0   3  -3  908.08   37.09
   0   3  -3  926.12   38.96
   1   3  -3    9.89    2.17
   1   3  -3    6.54    1.43
  -1  -3   3    7.90    1.97
   1   3  -3    6.73    1.60
   1   3  -3    8.82    2.18
  -2  -3   3  643.43   28.42
   2   3  -3  667.92   28.23
   2   3  -3  616.28   29.05
   2   3  -3  645.60   25.92
  -2  -3   3  705.13   25.89
   2   3  -3  656.06   27.44
  -3  -3   3  193.34   10.77
   3   3  -3  203.64   10.31
   3   3  -3  197.34   11.23
   3   3  -3  199.21   10.63
   4   3  -3  296.53   14.64
   5   3  -3    9.29    3.05
  -5  -3   3   13.22    3.32
  -6  -3   3  165.50   10.76
   6   3  -3  162.59   10.75
  -6   3  -2  256.69   14.76
  -5   3  -2   53.03    5.93
  -5   3  -2   64.18    5.06
  -5   3  -2   62.10    4.84
  -5   3  -2   66.38    6.51
  -4   3  -2  427.50   20.09
  -4   3  -2  436.17   19.36
  -4   3  -2  430.84   19.70
  -4   3  -2  435.87   20.24
  -4   3  -2  420.39   18.24
  -3   3  -2  213.46   10.04
  -3   3  -2  232.13   11.24
  -3   3  -2  212.67   10.42
  -3   3  -2  208.52   11.18
  -2   3  -2  990.04   40.15
  -2   3  -2 1005.38   41.00
  -2   3  -2 1021.85   40.74
   2  -3   2  963.25   40.72
  -2   3  -2  984.35   40.34
  -1   3  -2  350.19   15.47
   1  -3   2  362.08   15.48
  -1   3  -2  355.65   14.97
  -1   3  -2  335.21   15.20
  -1   3  -2  349.69   15.79
   0   3  -2 3726.64  142.49
   0   3  -2 3761.78  143.24
   0  -3   2 3521.49  147.60
   0   3  -2 3781.15  149.18
   0   3  -2 3809.44  147.47
   1   3  -2  373.38   15.19
   1   3  -2  349.95   15.67
  -1  -3   2  360.84   15.97
   1   3  -2  342.43   16.49
   1   3  -2  354.72   14.82
  -2  -3   2  960.02   37.61
   2   3  -2  984.56   38.92
  -2  -3   2 1021.20   37.67
  -2  -3   2  977.65   40.73
   2   3  -2  986.10   40.49
   2   3  -2  916.21   41.25
   3   3  -2  213.29   11.59
  -3  -3   2  206.24   11.25
   3   3  -2  221.35   10.54
   3   3  -2  230.59   11.33
   4   3  -2  416.98   20.35
  -4  -3   2  440.29   20.32
   4   3  -2  422.33   20.17
   4   3  -2  419.24   19.12
   5   3  -2   62.32    5.75
  -5  -3   2   68.15    5.58
   6   3  -2  269.40   15.09
  -6  -3   2  294.83   15.20
  -7   3  -1   76.48    7.87
  -6   3  -1   61.37    6.63
  -5   3  -1  182.30   10.08
  -5   3  -1  166.84   10.51
  -5   3  -1  185.36   10.50
  -4   3  -1   64.95    5.68
  -4   3  -1   86.40    5.90
  -4   3  -1   80.85    4.90
  -4   3  -1   84.94    5.54
  -3   3  -1  657.30   27.50
  -3   3  -1  642.23   27.22
  -3   3  -1  613.55   27.24
  -3   3  -1  649.27   27.13
  -2   3  -1  128.84    6.72
  -2   3  -1  141.22    6.82
  -2   3  -1  119.11    6.62
   2  -3   1  120.31    6.66
  -2   3  -1  125.97    7.14
   1  -3   1  886.92   34.21
  -1   3  -1  829.50   35.94
   1  -3   1  856.39   35.61
  -1   3  -1  871.84   34.20
  -1   3  -1  899.62   35.61
  -1   3  -1  838.76   34.71
   0  -3   1 1189.79   46.90
   0  -3   1 1214.16   49.11
   0   3  -1 1181.94   47.28
   0   3  -1 1258.79   49.00
   0   3  -1 1234.25   46.88
   0   3  -1 1166.89   49.68
  -1  -3   1  852.07   33.26
   1   3  -1  795.33   35.68
   1   3  -1  860.93   35.03
   1   3  -1  893.14   33.26
  -1  -3   1  838.08   35.12
   2   3  -1  131.99    6.16
   2   3  -1  135.07    7.03
  -2  -3   1  127.05    5.70
  -2  -3   1  128.77    5.61
  -2  -3   1  131.09    7.13
   2   3  -1  116.77    7.24
   2   3  -1  134.39    6.21
   3   3  -1  613.52   25.74
   3   3  -1  590.49   27.33
  -3  -3   1  645.45   24.15
  -3  -3   1  641.39   27.20
   3   3  -1  617.87   27.07
   4   3  -1   82.46    5.95
  -4  -3   1   80.85    5.96
   4   3  -1   78.88    5.95
   4   3  -1   80.92    5.60
   5   3  -1  190.85   10.75
   5   3  -1  194.86   11.18
   6   3  -1   75.87    6.93
  -6  -3   1   80.95    6.32
   7   3  -1   67.87    7.23
   7  -3   0   74.47    7.97
  -7   3   0   81.54    7.71
   6  -3   0    2.26    2.28
  -6   3   0    1.29    2.33
  -5   3   0  207.00   11.49
  -5   3   0  198.83   11.61
  -5   3   0  202.94   10.28
  -4   3   0    0.30    1.05
  -4   3   0   -0.33    1.34
  -4   3   0   -1.18    1.00
  -4   3   0   -1.73    1.23
  -3   3   0 1138.33   46.26
  -3   3   0 1106.02   45.90
  -3   3   0 1090.45   44.89
   2  -3   0    0.46    0.75
  -2   3   0    0.51    1.04
  -2   3   0   -0.36    0.86
  -2   3   0    1.02    0.95
  -1   3   0 1255.24   50.21
   1  -3   0 1342.85   49.93
   1  -3   0 1283.90   51.89
   1  -3   0 1140.22   49.65
  -1   3   0 1340.60   51.98
  -1   3   0 1310.23   52.44
   0  -3   0   -1.97    0.56
   0  -3   0   -0.10    0.39
   0   3   0   -1.29    0.83
   0   3   0   -1.18    0.83
   0  -3   0    1.50    0.96
  -1  -3   0 1322.86   52.39
   1   3   0 1223.02   52.98
  -1  -3   0 1246.45   49.92
   1   3   0 1348.76   50.05
   1   3   0 1305.37   52.32
  -2  -3   0    0.61    1.18
   2   3   0    0.23    0.73
   2   3   0   -1.24    0.75
  -2  -3   0    0.50    0.73
   2   3   0   -0.59    0.95
  -3  -3   0 1165.79   47.61
  -3  -3   0 1146.82   44.70
   3   3   0 1134.79   47.61
   3   3   0 1152.48   48.04
  -4  -3   0   -0.34    1.47
   4   3   0    1.31    1.29
  -4  -3   0    0.71    0.83
   4   3   0    1.09    1.40
   5   3   0  230.72   12.31
   6   3   0   -0.03    2.17
  -6  -3   0   -0.12    1.67
   7   3   0   88.81    8.35
   7  -3  -1   73.66    7.98
   6  -3  -1   62.11    6.55
  -5   3   1  176.40    9.28
   5  -3  -1  156.34   10.04
   4  -3  -1   69.70    5.66
  -4   3   1   90.01    6.36
  -4   3   1   71.97    5.12
  -4   3   1   80.67    5.85
   3  -3  -1  558.83   25.20
  -3   3   1  659.17   26.44
  -3   3   1  571.22   25.60
   2  -3  -1  131.08    6.79
   2  -3  -1  123.20    6.93
  -2   3   1  130.10    7.09
   2  -3  -1  125.27    6.70
  -2   3   1  121.57    6.85
  -1   3   1  809.65   34.48
   1  -3  -1  828.21   32.74
   1  -3  -1  812.46   34.08
   1  -3  -1  838.91   32.98
   0  -3  -1 1180.53   45.69
   0  -3  -1 1104.43   47.37
   0   3   1 1153.38   48.08
   0   3   1 1171.45   47.52
   0  -3  -1 1152.11   45.62
   0   3   1 1229.81   45.42
   1   3   1  875.09   35.10
  -1  -3  -1  837.18   33.35
  -1  -3  -1  827.54   33.48
  -1  -3  -1  849.40   35.05
   1   3   1  900.10   33.60
   1   3   1  803.57   35.56
  -2  -3  -1  117.54    6.17
  -2  -3  -1  125.81    6.71
   2   3   1  118.09    6.92
  -2  -3  -1  134.98    6.31
   2   3   1  129.56    6.24
   2   3   1  127.83    6.75
  -3  -3  -1  613.31   26.04
  -3  -3  -1  600.35   25.35
   3   3   1  593.43   26.30
   3   3   1  626.35   26.21
  -3  -3  -1  598.03   24.75
  -4  -3  -1   79.97    4.78
   4   3   1   78.42    5.59
   4   3   1   81.77    5.50
  -4  -3  -1   75.34    5.57
  -4  -3  -1   79.74    5.60
   5   3   1  192.26   10.22
   5   3   1  189.67   10.86
  -5  -3  -1  177.39   10.28
  -5  -3  -1  180.49    9.05
  -6   3   2  261.90   13.49
   6  -3  -2  242.42   14.32
   6  -3  -2  243.15   12.67
   5  -3  -2   44.86    5.42
   5  -3  -2   67.64    4.98
  -5   3   2   58.51    4.94
  -4   3   2  411.31   19.70
  -4   3   2  367.00   19.02
   4  -3  -2  396.81   18.80
   4  -3  -2  401.12   17.72
  -4   3   2  410.97   18.67
  -3   3   2  216.42   11.40
  -3   3   2  224.37   11.71
   3  -3  -2  217.85   10.55
  -3   3   2  221.12   11.12
   3  -3  -2  203.00   11.01
   2  -3  -2  960.90   38.71
  -2   3   2  932.03   40.51
   2  -3  -2  974.54   39.26
   2  -3  -2 1047.67   40.49
  -2   3   2  914.21   40.39
   1  -3  -2  357.04   15.86
   1  -3  -2  344.60   15.32
  -1   3   2  364.60   16.09
  -1   3   2  346.87   16.22
   1  -3  -2  361.29   15.47
   0   3   2 3712.14  143.42
   0  -3  -2 3431.73  138.06
   0  -3  -2 3602.61  143.18
   0   3   2 3942.16  139.34
   0   3   2 3592.11  144.57
   0  -3  -2 3353.28  139.36
  -1  -3  -2  342.23   14.87
   1   3   2  358.28   15.47
  -1  -3  -2  351.08   14.87
   1   3   2  333.74   15.83
  -1  -3  -2  351.47   15.37
  -2  -3  -2  981.33   39.07
   2   3   2  987.51   40.05
   2   3   2  952.36   40.64
  -2  -3  -2  942.66   39.94
  -2  -3  -2  996.57   38.88
  -3  -3  -2  209.21   10.67
  -3  -3  -2  219.75   10.69
   3   3   2  230.60   11.10
   3   3   2  223.18   10.85
  -3  -3  -2  224.34   10.95
   4   3   2  405.01   19.17
  -4  -3  -2  416.50   18.99
  -4  -3  -2  431.78   19.38
   4   3   2  425.91   19.06
  -4  -3  -2  416.29   18.45
  -5  -3  -2   59.98    5.20
  -5  -3  -2   67.57    5.09
   5   3   2   75.49    5.37
   5   3   2   64.80    5.47
  -5  -3  -2   69.94    6.36
   6  -3  -3  136.03   10.15
  -6   3   3  156.49    9.86
   5  -3  -3   15.58    3.67
  -5   3   3   14.96    3.47
   5  -3  -3   18.65    3.08
  -4   3   3  303.08   15.28
   4  -3  -3  276.98   15.09
   4  -3  -3  312.17   14.12
  -3   3   3  182.43   10.42
   3  -3  -3  188.49   10.46
  -3   3   3  183.21   10.63
   3  -3  -3  198.52    9.69
  -2   3   3  627.37   28.41
   2  -3  -3  650.36   26.83
   2  -3  -3  654.09   27.68
  -2   3   3  652.28   28.23
   1  -3  -3   10.91    1.98
  -1   3   3   11.25    2.11
   1  -3  -3    9.52    1.94
  -1   3   3    7.63    2.02
   1  -3  -3   11.01    2.42
   0  -3  -3  905.45   36.76
   0  -3  -3  901.59   35.90
   0   3   3  921.47   37.17
   0   3   3  873.25   37.78
   0  -3  -3  862.11   36.78
  -1  -3  -3    5.83    1.41
   1   3   3   10.20    1.90
   1   3   3    7.04    1.88
  -1  -3  -3   10.71    1.99
  -1  -3  -3    8.95    2.03
   2   3   3  619.16   27.72
  -2  -3  -3  622.12   26.93
  -2  -3  -3  639.39   26.91
   2   3   3  660.66   27.06
  -2  -3  -3  663.42   27.08
  -3  -3  -3  195.89   10.53
  -3  -3  -3  203.38   10.00
  -3  -3  -3  209.07   10.55
   3   3   3  198.08    9.92
   3   3   3  205.13   10.40
  -4  -3  -3  297.04   14.10
   4   3   3  311.65   14.27
   4   3   3  308.97   14.29
  -4  -3  -3  274.85   14.71
  -4  -3  -3  287.28   14.39
  -5  -3  -3   19.51    3.49
  -5  -3  -3   14.14    3.09
  -5  -3  -3   15.64    3.65
   5   3   3   20.25    3.20
  -6  -3  -3  139.52   10.25
  -6  -3  -3  147.34    9.12
  -6   3   4   42.26    5.94
   6  -3  -4   27.73    5.46
  -5   3   4  207.09   12.42
   5  -3  -4  195.50   10.59
   5  -3  -4  201.03   12.61
   4  -3  -4  113.62    8.53
  -4   3   4  112.23    8.28
   4  -3  -4  123.06    7.26
  -3   3   4 1036.79   44.06
  -3   3   4 1036.06   44.41
   3  -3  -4 1002.19   43.38
  -3   3   4 1060.64   44.73
   3  -3  -4 1002.40   41.58
  -2   3   4  291.52   14.69
  -2   3   4  270.69   14.08
   2  -3  -4  284.05   13.21
  -2   3   4  282.34   13.98
   2  -3  -4  276.29   14.23
  -1   3   4 1214.22   52.80
   1  -3  -4 1255.95   51.52
   1  -3  -4 1266.23   51.44
  -1   3   4 1247.34   51.80
   1  -3  -4 1282.70   50.04
   0  -3  -4  210.61   10.18
   0   3   4  213.21   11.32
   0   3   4  209.29   10.46
   0  -3  -4  207.67   11.27
   0  -3  -4  218.25   10.56
  -1  -3  -4 1281.59   49.95
  -1  -3  -4 1198.77   49.97
   1   3   4 1190.01   50.00
  -1  -3  -4 1222.50   49.25
   1   3   4 1234.71   51.39
   2   3   4  280.72   13.88
   2   3   4  290.30   12.87
  -2  -3  -4  272.92   13.71
  -2  -3  -4  285.86   12.85
  -2  -3  -4  274.74   13.85
  -3  -3  -4 1024.26   42.90
  -3  -3  -4 1051.79   42.78
   3   3   4 1034.81   42.67
   3   3   4 1047.63   43.80
  -3  -3  -4 1031.78   43.36
  -4  -3  -4  100.61    7.53
  -4  -3  -4  112.22    7.55
  -5  -3  -4  202.86   12.30
  -5  -3  -4  201.67   11.70
  -6  -3  -4   34.67    5.61
  -6  -3  -4   51.50    5.83
  -5   3   5  116.84    9.28
   5  -3  -5  113.38    9.98
   5  -3  -5  110.45    7.43
  -4   3   5    8.27    3.32
   4  -3  -5    8.27    3.57
   4  -3  -5    6.72    2.52
   3  -3  -5  214.88   10.55
  -3   3   5  178.98   11.76
   3  -3  -5  191.15   12.08
  -2   3   5   35.98    4.14
   2  -3  -5   40.58    4.20
  -2   3   5   42.03    4.61
  -2   3   5   33.30    4.87
   2  -3  -5   35.99    5.26
   1  -3  -5  258.62   14.53
   1  -3  -5  283.73   13.51
  -1   3   5  281.38   13.61
  -1   3   5  282.62   14.81
   0  -3  -5   64.69    6.14
   0  -3  -5   60.45    4.13
   0  -3  -5   47.47    4.72
   0   3   5   61.02    4.45
   0   3   5   59.91    5.63
   1   3   5  282.34   12.95
  -1  -3  -5  294.93   12.84
  -1  -3  -5  258.51   13.77
   1   3   5  295.63   14.61
  -1  -3  -5  260.86   14.28
  -2  -3  -5   36.55    2.87
  -2  -3  -5   28.46    4.25
  -2  -3  -5   34.65    4.36
   2   3   5   40.03    4.44
   2   3   5   33.97    2.89
  -3  -3  -5  208.37   11.89
  -3  -3  -5  192.77   11.42
   3   3   5  211.41   11.19
  -4  -3  -5    7.89    2.94
  -4  -3  -5    4.92    2.70
  -5  -3  -5  111.27    8.62
  -5  -3  -5  123.79    9.38
   5  -3  -6  118.47   10.91
   4  -3  -6  144.96   11.26
   4  -3  -6  147.97    9.03
  -4   3   6  161.16   11.33
  -3   3   6   70.16    7.37
   3  -3  -6   62.23    5.24
   3  -3  -6   52.57    7.19
  -2   3   6  225.09   12.42
  -2   3   6  209.91   13.34
   2  -3  -6  228.54   13.92
  -2   3   6  238.45   12.40
   2  -3  -6  236.38   12.12
   1  -3  -6  253.99   13.38
  -1   3   6  274.68   13.46
  -1   3   6  245.75   13.02
   1  -3  -6  260.44   14.93
  -1   3   6  284.69   15.05
   0   3   6  403.15   20.52
   0   3   6  432.18   18.91
   0   3   6  410.23   18.69
   0  -3  -6  410.66   19.48
   0  -3  -6  405.68   20.54
  -1  -3  -6  235.15   13.78
   1   3   6  293.68   14.86
  -1  -3  -6  284.41   15.02
  -2  -3  -6  222.78   12.84
   2   3   6  254.65   13.31
  -2  -3  -6  231.76   13.58
  -3  -3  -6   50.56    5.87
  -3  -3  -6   62.09    6.76
  -4  -3  -6  152.49   10.59
  -4  -3  -6  171.34   11.37
  -5  -3  -6  154.81   10.78
  -5  -3  -6  132.05   10.64
  -3   3   7   19.05    4.70
   3  -3  -7   20.05    4.09
   3  -3  -7   14.99    5.00
   2  -3  -7   84.68    6.66
  -2   3   7   58.42    7.14
   2  -3  -7   80.54    8.68
   1  -3  -7   13.40    3.50
   1  -3  -7   13.01    4.34
  -1   3   7    8.12    3.52
   0  -3  -7   97.20    7.56
   0  -3  -7   96.78    8.26
   0   3   7   93.42    7.90
  -1  -3  -7   19.35    4.02
  -1  -3  -7   22.21    4.49
   1   3   7   13.39    3.66
   2   3   7   75.53    7.15
  -2  -3  -7   71.76    7.11
  -2  -3  -7   81.89    8.03
  -3  -3  -7   15.23    3.88
  -3  -3  -7    9.02    3.45
   2  -3  -8   41.05    7.32
   2  -3  -8   57.67    6.39
  -2   3   8   43.72    6.51
   1  -3  -8   67.40    8.35
   1  -3  -8   63.02    7.03
  -1   3   8   78.96    8.29
   0   3   8    7.09    3.37
   0  -3  -8   -1.49    2.84
   0  -3  -8    8.15    3.35
  -1  -3  -8   70.30    7.37
   1   3   8   46.88    6.42
  -1  -3  -8   73.80    8.02
  -2  -3  -8   58.74    7.53
  -2  -3  -8   53.49    6.82
   0   4  -8    6.30    3.66
  -3   4  -7   79.12    8.67
  -3   4  -7   72.31    8.03
  -2   4  -7   31.33    5.62
  -2   4  -7   35.52    5.81
  -1   4  -7   87.96    8.27
   1  -4   7   85.12    6.88
  -1   4  -7   96.10    8.03
   0   4  -7   38.34    5.47
   0  -4   7   22.57    4.12
   0   4  -7   26.10    4.73
   1   4  -7   94.10    7.21
  -1  -4   7   80.23    7.09
   1   4  -7   74.38    7.39
  -2  -4   7   25.94    4.86
   2   4  -7   31.45    5.54
   3   4  -7   97.52    9.06
  -3  -4   7   81.88    8.47
  -4   4  -6   64.53    7.93
  -4   4  -6   61.42    7.46
  -3   4  -6   54.00    6.35
  -3   4  -6   44.50    6.48
   2  -4   6   73.69    5.58
  -2   4  -6   80.22    7.61
  -2   4  -6   82.19    6.90
  -1   4  -6  165.43   10.49
  -1   4  -6  173.28   10.47
   1  -4   6  154.44    9.31
   0   4  -6  283.61   14.59
   0  -4   6  277.15   14.36
   0   4  -6  268.99   14.58
   1   4  -6  177.91    9.98
   1   4  -6  167.51    9.31
   1   4  -6  164.17   10.45
   2   4  -6   88.49    7.38
  -2  -4   6   48.24    5.73
  -2  -4   6   77.10    6.23
  -3  -4   6   63.14    6.74
   3   4  -6   59.72    6.82
   4   4  -6   62.69    7.42
  -4  -4   6   64.57    7.34
  -5   4  -5   25.72    5.44
  -5   4  -5   21.90    5.27
  -4   4  -5  134.78    9.62
  -4   4  -5  127.27    9.85
  -3   4  -5   25.59    4.44
  -3   4  -5   27.59    4.85
  -2   4  -5  256.38   14.28
  -2   4  -5  278.48   13.58
  -2   4  -5  255.84   13.79
  -1   4  -5   49.19    3.54
  -1   4  -5   48.41    4.97
  -1   4  -5   47.92    4.97
  -1   4  -5   46.56    5.16
   0  -4   5  369.82   17.21
   0   4  -5  386.07   17.71
   0   4  -5  371.24   18.58
   0   4  -5  368.56   16.78
   0   4  -5  381.90   17.76
   1   4  -5   40.42    5.25
  -1  -4   5   35.01    4.10
   1   4  -5   43.78    3.75
   1   4  -5   47.92    4.97
   1   4  -5   45.81    4.34
  -2  -4   5  273.27   13.64
   2   4  -5  245.45   12.94
   2   4  -5  256.50   11.94
   2   4  -5  245.40   13.48
   3   4  -5   28.57    4.70
  -3  -4   5   27.63    4.40
   4   4  -5  143.27    9.81
  -4  -4   5  136.09    9.66
  -5  -4   5   17.83    4.39
   5   4  -5   20.78    4.90
  -5   4  -4    7.88    3.54
  -5   4  -4    1.58    2.50
  -4   4  -4  341.40   17.59
  -4   4  -4  345.74   18.09
  -3   4  -4   50.97    4.08
  -3   4  -4   54.71    5.37
  -3   4  -4   37.18    5.25
  -3   4  -4   48.09    4.01
  -2   4  -4  834.99   35.83
  -2   4  -4  852.86   34.74
  -2   4  -4  831.85   35.21
   2  -4   4  814.44   34.83
  -2   4  -4  851.67   35.83
  -1   4  -4    7.82    2.41
  -1   4  -4    5.62    2.07
   1  -4   4    6.36    1.87
  -1   4  -4    6.47    2.09
  -1   4  -4    6.46    1.80
   0   4  -4  721.47   29.73
   0   4  -4  707.23   29.51
   0   4  -4  694.93   31.27
   0   4  -4  713.45   29.65
   0  -4   4  685.17   30.11
   1   4  -4    5.25    1.74
  -1  -4   4    7.08    2.32
   1   4  -4    7.23    1.85
   1   4  -4    6.12    2.25
   1   4  -4    4.52    2.29
  -2  -4   4  856.40   36.60
   2   4  -4  794.31   37.38
   2   4  -4  857.02   33.79
   2   4  -4  837.93   36.06
   2   4  -4  872.11   35.54
   3   4  -4   49.89    5.86
   3   4  -4   47.43    4.89
   4   4  -4  351.18   17.25
  -5  -4   4    1.05    2.48
   5   4  -4    2.91    3.05
  -6   4  -3   61.11    7.57
  -5   4  -3  138.31   10.09
  -5   4  -3  149.43   10.25
  -4   4  -3  175.40   11.29
  -4   4  -3  190.32   10.32
  -4   4  -3  198.72   11.30
  -4   4  -3  194.95   10.15
  -3   4  -3  314.45   14.59
  -3   4  -3  321.24   14.66
  -3   4  -3  301.26   15.18
  -3   4  -3  293.22   15.64
   3  -4   3  323.75   14.66
  -2   4  -3  471.36   21.60
   2  -4   3  485.47   21.00
  -2   4  -3  480.26   20.86
  -2   4  -3  482.98   21.44
  -2   4  -3  467.94   20.92
  -1   4  -3  575.75   24.54
  -1   4  -3  563.07   24.95
   1  -4   3  586.57   25.35
  -1   4  -3  621.63   26.18
  -1   4  -3  599.04   25.33
   0   4  -3  289.42   13.15
   0  -4   3  278.40   13.46
   0   4  -3  275.27   13.11
   0   4  -3  273.87   14.11
   0   4  -3  296.63   12.66
   1   4  -3  577.57   25.61
   1   4  -3  593.01   26.98
  -1  -4   3  619.19   26.23
   1   4  -3  603.51   24.82
   1   4  -3  592.99   24.61
   2   4  -3  477.12   19.62
   2   4  -3  488.41   21.60
   2   4  -3  448.64   22.50
  -2  -4   3  520.60   22.24
   2   4  -3  473.62   20.71
   3   4  -3  331.31   14.75
   3   4  -3  291.89   15.29
   3   4  -3  303.64   16.28
  -3  -4   3  331.05   16.09
   4   4  -3  194.43   10.50
   4   4  -3  193.18   11.81
   5   4  -3  133.83    8.87
  -5  -4   3  138.71    9.12
   6   4  -3   72.16    6.81
  -6  -4   3   58.83    6.43
  -6   4  -2    5.90    3.21
  -5   4  -2  306.37   16.51
  -5   4  -2  298.51   15.24
  -5   4  -2  313.56   15.84
  -4   4  -2   44.83    5.06
  -4   4  -2   39.82    5.16
  -4   4  -2   43.54    3.68
  -4   4  -2   40.52    4.15
  -3   4  -2  377.99   17.75
   3  -4   2  413.10   18.03
  -3   4  -2  395.25   17.67
  -3   4  -2  397.23   18.01
  -3   4  -2  363.72   18.32
  -2   4  -2  128.27    7.07
  -2   4  -2  122.77    7.70
  -2   4  -2  128.40    7.03
   2  -4   2  123.92    7.09
  -2   4  -2  130.63    7.29
  -1   4  -2 1393.92   60.39
  -1   4  -2 1449.75   58.24
   1  -4   2 1477.99   59.86
  -1   4  -2 1493.05   57.61
  -1   4  -2 1510.47   59.62
   0   4  -2  105.30    5.14
   0   4  -2  113.11    6.81
   0   4  -2  102.88    6.06
   0  -4   2  111.98    5.49
   0  -4   2   95.99    6.15
   0   4  -2  108.54    6.11
   1   4  -2 1434.66   56.45
   1   4  -2 1469.32   56.38
  -1  -4   2 1390.28   59.15
  -1  -4   2 1483.00   56.20
   1   4  -2 1433.87   60.21
   1   4  -2 1451.80   58.91
  -2  -4   2  121.56    5.83
   2   4  -2  133.91    7.35
   2   4  -2  135.95    6.50
   2   4  -2  115.11    7.80
  -2  -4   2  121.21    7.53
  -3  -4   2  420.62   19.11
   3   4  -2  386.81   19.27
   3   4  -2  383.64   18.56
   3   4  -2  398.73   17.26
   4   4  -2   55.99    5.74
   4   4  -2   41.61    4.16
   5   4  -2  310.21   17.42
   5   4  -2  354.26   16.45
   6   4  -2    4.20    2.94
  -6  -4   2    6.63    3.10
  -6   4  -1   91.64    8.38
  -5   4  -1  283.10   15.40
  -4   4  -1  249.34   13.63
  -4   4  -1  260.23   12.63
  -4   4  -1  261.28   13.19
  -3   4  -1  374.32   17.21
   3  -4   1  405.24   17.63
  -3   4  -1  351.06   17.52
  -3   4  -1  363.13   17.30
  -2   4  -1  692.76   29.48
  -2   4  -1  691.01   29.73
  -2   4  -1  708.24   30.06
   2  -4   1  697.37   29.82
  -1   4  -1 1143.14   45.76
   1  -4   1 1000.25   42.72
  -1   4  -1 1102.70   44.99
   1  -4   1 1138.69   45.20
  -1   4  -1 1079.12   43.83
   0   4  -1  561.83   24.99
   0  -4   1  562.82   24.46
   0   4  -1  559.96   23.47
   0   4  -1  576.66   24.30
   1   4  -1 1099.47   45.03
  -1  -4   1 1115.20   45.26
  -1  -4   1 1065.09   42.81
   1   4  -1 1086.83   46.01
  -2  -4   1  643.06   28.86
   2   4  -1  699.36   28.83
  -2  -4   1  673.08   26.49
   2   4  -1  655.51   29.54
   2   4  -1  680.15   26.63
   2   4  -1  663.94   26.60
  -3  -4   1  363.46   14.96
  -3  -4   1  376.49   17.59
   3   4  -1  358.01   17.25
   3   4  -1  340.22   17.70
  -3  -4   1  380.04   14.93
   3   4  -1  384.40   15.94
   4   4  -1  246.60   13.42
   4   4  -1  255.51   12.17
   4   4  -1  233.06   13.00
  -4  -4   1  269.11   13.60
   5   4  -1  270.78   13.49
   5   4  -1  256.72   14.34
   6   4  -1   93.44    7.41
   6  -4   0  185.89   11.77
  -6   4   0  174.38   11.56
  -5   4   0   -2.48    1.30
  -5   4   0    0.07    2.02
   5  -4   0    0.00    1.90
  -4   4   0  355.11   16.58
  -4   4   0  332.44   16.90
   4  -4   0  343.54   16.71
  -4   4   0  364.83   17.24
  -3   4   0   -0.76    1.39
   3  -4   0   -0.53    0.85
  -3   4   0    0.52    1.24
  -3   4   0   -0.22    1.19
  -2   4   0  739.77   31.22
  -2   4   0  745.55   32.00
   2  -4   0  757.36   30.57
   2  -4   0  763.46   32.00
  -2   4   0  738.84   32.16
   1  -4   0    0.61    0.85
  -1   4   0   -0.03    1.11
   1  -4   0   -1.46    0.50
   1  -4   0    0.26    0.72
  -1   4   0    0.36    1.09
   0   4   0  831.55   35.81
   0  -4   0  881.34   35.30
   0   4   0  842.03   35.11
   0  -4   0  802.39   33.60
  -1  -4   0    0.08    0.91
   1   4   0   -0.10    1.16
  -1  -4   0    0.47    1.18
   1   4   0   -1.45    0.94
   2   4   0  725.05   32.68
  -2  -4   0  749.79   32.08
   2   4   0  803.21   29.83
  -2  -4   0  747.87   29.90
   2   4   0  732.20   31.94
   3   4   0   -0.55    1.32
  -3  -4   0   -0.08    1.56
  -3  -4   0    0.08    0.95
   3   4   0   -0.24    1.08
  -4  -4   0  350.87   14.85
   4   4   0  368.09   17.43
   4   4   0  349.91   17.43
  -4  -4   0  351.67   17.19
   5   4   0   -1.91    1.54
   5   4   0    0.34    1.89
   6   4   0  191.66   11.91
   6   4   0  209.56   11.94
   6  -4  -1   95.73    7.95
   6  -4  -1   90.79    7.04
  -5   4   1  248.32   13.11
   5  -4  -1  264.74   14.00
   4  -4  -1  231.03   12.20
  -4   4   1  219.97   12.53
  -4   4   1  236.10   12.02
  -4   4   1  240.30   13.08
   3  -4  -1  346.74   16.30
  -3   4   1  351.21   16.81
   3  -4  -1  372.86   17.15
   3  -4  -1  358.89   16.44
   2  -4  -1  691.55   28.13
   2  -4  -1  700.83   29.44
   2  -4  -1  686.96   28.38
  -2   4   1  668.36   29.49
  -2   4   1  652.65   29.50
   1  -4  -1 1063.00   43.08
   1  -4  -1 1120.58   44.77
  -1   4   1 1047.26   44.75
   1  -4  -1 1096.05   42.63
  -1   4   1 1061.80   45.27
   0   4   1  527.52   24.31
   0  -4  -1  566.28   22.68
   0   4   1  593.50   22.46
   0  -4  -1  540.37   23.29
   0  -4  -1  592.64   24.50
   0   4   1  557.07   24.95
   1   4   1 1036.66   44.26
  -1  -4  -1 1119.40   41.85
  -1  -4  -1 1024.80   44.24
   1   4   1 1146.71   41.97
  -1  -4  -1 1053.71   42.30
   1   4   1 1029.87   45.04
  -2  -4  -1  646.94   28.70
   2   4   1  653.05   28.72
  -2  -4  -1  665.84   27.15
   2   4   1  669.60   29.47
  -2  -4  -1  671.98   27.03
   2   4   1  716.85   27.12
  -3  -4  -1  388.01   16.21
  -3  -4  -1  374.45   16.28
  -3  -4  -1  370.49   17.27
   3   4   1  361.56   17.22
   3   4   1  360.56   17.65
   4   4   1  268.27   13.35
   4   4   1  249.51   13.23
  -4  -4  -1  247.35   13.03
  -4  -4  -1  253.52   11.78
   5   4   1  263.11   13.90
   6  -4  -2    5.92    2.59
   6  -4  -2   11.63    3.50
  -6   4   2   10.36    3.09
  -5   4   2  287.25   15.03
   5  -4  -2  286.52   15.53
   5  -4  -2  301.70   14.57
  -4   4   2   37.88    4.28
   4  -4  -2   38.43    4.67
   4  -4  -2   43.20    4.45
   3  -4  -2  377.28   17.55
  -3   4   2  389.53   18.42
   3  -4  -2  379.53   17.19
  -3   4   2  365.48   17.89
  -2   4   2  131.49    7.67
   2  -4  -2  127.96    7.39
   2  -4  -2  119.94    7.07
   2  -4  -2  125.19    7.18
  -2   4   2  120.90    7.56
  -1   4   2 1469.41   57.89
  -1   4   2 1411.97   58.33
   1  -4  -2 1399.14   55.50
   1  -4  -2 1272.99   57.26
   1  -4  -2 1460.41   55.67
   0  -4  -2  103.85    6.18
   0  -4  -2  106.96    6.09
   0   4   2  109.23    6.80
   0  -4  -2  114.60    6.16
   0   4   2  100.99    6.37
   1   4   2 1485.92   58.04
  -1  -4  -2 1437.34   55.61
  -1  -4  -2 1410.84   55.65
  -1  -4  -2 1408.38   57.85
   1   4   2 1332.58   58.66
  -2  -4  -2  126.35    6.69
   2   4   2  131.22    7.82
  -2  -4  -2  129.77    7.29
   2   4   2  126.39    7.30
  -2  -4  -2  126.29    6.89
   3   4   2  377.10   18.15
  -3  -4  -2  381.45   17.65
  -3  -4  -2  383.41   17.14
   3   4   2  381.97   17.69
  -3  -4  -2  390.55   17.18
  -4  -4  -2   45.67    4.15
  -4  -4  -2   39.99    4.33
   4   4   2   40.00    4.32
   4   4   2   45.96    4.64
  -4  -4  -2   45.78    4.47
  -5  -4  -2  332.55   16.96
  -5  -4  -2  334.89   15.78
   5   4   2  346.45   16.84
   6  -4  -3   72.02    7.86
   6  -4  -3   69.61    6.29
  -6   4   3   85.51    7.55
  -5   4   3  133.41    9.04
   5  -4  -3  141.20    9.55
   5  -4  -3  127.03    8.13
   4  -4  -3  202.17   10.43
   4  -4  -3  173.76   10.87
  -4   4   3  186.86   11.05
   3  -4  -3  297.86   15.00
   3  -4  -3  299.11   14.26
  -3   4   3  315.59   15.52
  -3   4   3  282.78   15.25
  -2   4   3  463.92   21.55
   2  -4  -3  457.26   20.17
   2  -4  -3  445.91   20.83
   2  -4  -3  464.24   20.65
  -2   4   3  460.96   21.31
   1  -4  -3  583.96   25.10
   1  -4  -3  605.22   25.55
  -1   4   3  562.77   25.72
  -1   4   3  579.00   26.28
   0  -4  -3  273.76   12.96
   0  -4  -3  251.29   12.57
   0   4   3  288.34   13.38
   0  -4  -3  283.67   13.16
   0   4   3  264.05   13.76
  -1  -4  -3  582.95   24.47
   1   4   3  570.69   25.15
  -1  -4  -3  571.06   24.38
  -1  -4  -3  600.52   25.10
   1   4   3  565.92   25.93
  -2  -4  -3  460.69   20.51
   2   4   3  472.40   20.91
   2   4   3  475.29   21.72
  -2  -4  -3  480.93   20.91
  -2  -4  -3  461.68   20.37
   3   4   3  292.20   14.70
   3   4   3  313.57   15.53
  -3  -4  -3  323.01   15.13
  -3  -4  -3  320.67   14.94
  -3  -4  -3  321.53   14.97
   4   4   3  199.10   10.99
  -4  -4  -3  201.17   10.72
   4   4   3  193.23   10.55
  -4  -4  -3  192.49   10.91
  -4  -4  -3  199.61   10.82
  -5  -4  -3  129.95    9.14
  -5  -4  -3  143.97    8.73
  -6  -4  -3   62.67    6.77
   5  -4  -4    0.72    2.71
   5  -4  -4    7.58    2.56
  -5   4   4    4.75    2.76
   4  -4  -4  343.36   16.09
  -4   4   4  326.22   17.59
   4  -4  -4  326.97   17.42
   3  -4  -4   59.69    6.12
  -3   4   4   53.09    5.82
   3  -4  -4   45.83    4.67
  -2   4   4  831.33   35.31
  -2   4   4  829.79   36.02
   2  -4  -4  797.07   33.57
   2  -4  -4  760.61   34.42
  -1   4   4    5.72    2.31
   1  -4  -4    5.79    2.17
  -1   4   4    7.06    2.11
   1  -4  -4    8.55    2.12
   1  -4  -4    3.60    2.54
   0  -4  -4  715.68   29.90
   0  -4  -4  705.95   29.56
   0   4   4  692.91   30.90
   0   4   4  654.28   29.75
   0  -4  -4  676.54   28.98
  -1  -4  -4    5.45    1.71
  -1  -4  -4    8.71    2.34
   1   4   4   10.22    2.81
  -1  -4  -4    5.65    2.13
   1   4   4    5.61    2.04
  -2  -4  -4  834.79   34.92
  -2  -4  -4  844.93   34.94
  -2  -4  -4  843.51   34.87
   2   4   4  820.95   34.89
   2   4   4  795.56   36.08
  -3  -4  -4   49.91    5.09
  -3  -4  -4   51.84    4.96
   3   4   4   32.08    4.34
  -3  -4  -4   45.03    4.20
   3   4   4   46.22    3.80
  -4  -4  -4  352.60   17.24
  -4  -4  -4  318.14   17.01
   4   4   4  367.63   17.27
  -5  -4  -4    6.22    2.87
  -5  -4  -4    7.07    2.89
   5  -4  -5   22.31    5.52
  -5   4   5   26.15    5.36
   5  -4  -5   28.14    4.25
  -4   4   5  125.07    9.64
   4  -4  -5  123.83    9.72
   4  -4  -5  124.98    8.12
   3  -4  -5   26.10    5.11
   3  -4  -5   30.35    4.08
  -3   4   5   22.88    4.40
  -2   4   5  231.25   13.00
   2  -4  -5  225.90   13.44
  -2   4   5  247.35   13.97
  -2   4   5  250.29   13.06
   2  -4  -5  236.98   12.33
  -1   4   5   54.61    6.03
  -1   4   5   54.05    5.05
   1  -4  -5   44.79    4.72
   1  -4  -5   46.96    5.86
   0  -4  -5  378.03   18.63
   0  -4  -5  354.83   17.60
   0   4   5  376.73   17.83
   0  -4  -5  400.07   17.59
   0   4   5  383.91   19.20
  -1  -4  -5   46.19    3.76
   1   4   5   44.80    5.24
  -1  -4  -5   41.85    4.78
  -1  -4  -5   45.00    5.03
   1   4   5   44.92    4.28
  -2  -4  -5  257.51   13.51
   2   4   5  251.61   13.75
  -2  -4  -5  265.89   12.24
   2   4   5  240.20   12.07
  -2  -4  -5  240.03   13.22
  -3  -4  -5   24.45    4.17
   3   4   5   26.30    4.16
  -3  -4  -5   30.50    4.42
  -4  -4  -5  125.24    8.94
  -4  -4  -5  122.89    8.81
  -5  -4  -5   27.05    5.08
  -5  -4  -5   25.28    4.60
  -4   4   6   64.18    7.90
   4  -4  -6   50.91    7.68
   4  -4  -6   58.12    5.84
   3  -4  -6   53.77    7.39
   3  -4  -6   72.35    6.24
  -3   4   6   54.35    7.12
   2  -4  -6   66.68    7.45
  -2   4   6   75.85    7.69
   2  -4  -6   72.19    6.37
  -1   4   6  150.65    9.20
  -1   4   6  145.14   10.45
   1  -4  -6  162.67    9.67
   1  -4  -6  149.69   10.73
  -1   4   6  156.91    9.42
   0  -4  -6  253.12   13.56
   0   4   6  249.80   14.56
   0  -4  -6  253.33   14.43
  -1  -4  -6  154.14   10.13
  -1  -4  -6  149.01    9.63
   1   4   6  143.21   10.15
  -2  -4  -6   83.56    7.29
   2   4   6   88.00    7.33
  -2  -4  -6   67.05    6.86
  -3  -4  -6   56.94    6.55
  -3  -4  -6   46.68    5.89
   3   4   6   60.10    6.14
  -4  -4  -6   56.98    6.49
  -4  -4  -6   54.76    6.62
   3  -4  -7   70.28    6.80
  -3   4   7   71.05    8.34
   3  -4  -7   91.20    9.77
   2  -4  -7   31.32    4.97
   2  -4  -7   27.05    6.10
  -2   4   7   24.50    5.26
   1  -4  -7   88.12    8.94
  -1   4   7   92.18    8.93
   1  -4  -7   89.01    7.85
   0  -4  -7   32.52    5.65
   0  -4  -7   22.63    4.61
   0   4   7   34.17    5.80
   1   4   7   87.56    8.40
  -1  -4  -7   82.31    7.93
  -1  -4  -7   82.06    7.70
   2   4   7   25.58    4.96
  -2  -4  -7   25.05    4.87
  -2  -4  -7   38.76    5.58
  -3  -4  -7   74.99    8.03
  -3  -4  -7   84.98    8.12
   0  -4  -8    5.44    3.34
   0  -4  -8    1.20    2.98
  -2   5  -7   61.89    7.77
  -2   5  -7   51.35    6.73
  -1   5  -7   28.17    5.44
   1  -5   7   33.61    4.77
  -1   5  -7   29.83    5.13
   0  -5   7   59.81    6.31
   0   5  -7   57.31    6.85
   0   5  -7   61.48    6.62
  -1  -5   7   24.80    4.78
   1   5  -7   29.06    4.95
  -2  -5   7   56.61    6.94
  -3   5  -6   29.54    5.41
  -3   5  -6   32.15    6.13
   2  -5   6   66.27    5.44
  -2   5  -6   75.68    7.77
  -2   5  -6   70.06    6.73
  -1   5  -6   34.66    5.41
  -1   5  -6   41.56    5.22
   0   5  -6   64.67    6.42
   0   5  -6   59.94    5.89
   1   5  -6   38.99    4.95
   1   5  -6   48.14    5.29
  -2  -5   6   50.77    6.03
   2   5  -6   79.83    6.85
  -3  -5   6   24.92    4.68
  -4   5  -5    4.75    3.45
  -4   5  -5    4.45    3.01
  -3   5  -5  152.24   10.04
  -3   5  -5  160.08   11.08
  -2   5  -5   13.57    3.28
  -2   5  -5   21.12    4.44
  -2   5  -5   12.85    3.22
  -1   5  -5  248.12   13.51
  -1   5  -5  239.55   13.37
  -1   5  -5  233.38   12.50
  -1   5  -5  243.87   11.76
   0   5  -5   85.49    7.10
   0  -5   5   77.25    5.94
   0   5  -5   87.64    6.70
   0   5  -5   84.44    6.12
   0   5  -5   85.87    5.65
   1   5  -5  246.48   12.34
   1   5  -5  237.76   13.78
   1   5  -5  234.29   12.08
   1   5  -5  221.03   11.92
   2   5  -5   24.77    3.94
   2   5  -5   19.14    4.37
   3   5  -5  164.45    9.95
   3   5  -5  133.40   10.49
  -4  -5   5    7.16    3.21
  -5   5  -4   67.02    7.41
  -5   5  -4   49.54    7.08
  -4   5  -4  109.59    8.19
  -4   5  -4   87.97    8.72
  -3   5  -4  137.10    9.19
  -3   5  -4  155.79   10.35
  -3   5  -4  160.53    9.07
  -2   5  -4  178.62    9.92
  -2   5  -4  164.76    9.41
   2  -5   4  157.31    8.90
  -2   5  -4  161.81   10.28
  -2   5  -4  164.40    8.92
  -1   5  -4  131.03    7.69
  -1   5  -4  137.82    7.72
   1  -5   4  131.87    7.85
  -1   5  -4  128.54    8.48
  -1   5  -4  139.24    8.69
   0   5  -4  235.62   12.16
   0   5  -4  232.68   11.69
   0   5  -4  240.92   11.38
   0  -5   4  229.65   12.17
   0   5  -4  235.78   13.06
  -1  -5   4  127.24    8.32
   1   5  -4  135.06    7.81
   1   5  -4  134.44    7.68
   1   5  -4  126.94    7.33
   1   5  -4  128.29    8.93
   2   5  -4  167.35    8.46
  -2  -5   4  175.95   10.41
   2   5  -4  158.22    9.43
   2   5  -4  172.82    9.36
   2   5  -4  156.32   10.58
   3   5  -4  126.13    9.41
   3   5  -4  133.48    8.45
   4   5  -4   92.81    8.20
  -5  -5   4   65.31    6.93
  -5   5  -3    3.46    2.90
  -4   5  -3  208.50   11.32
  -4   5  -3  206.63   12.02
  -4   5  -3  200.60   12.68
  -3   5  -3  169.52    9.37
  -3   5  -3  170.96    9.69
  -3   5  -3  157.62   10.36
   3  -5   3  163.14    9.23
  -3   5  -3  161.67    9.27
   2  -5   3  350.26   16.87
  -2   5  -3  372.01   17.47
  -2   5  -3  344.23   17.54
  -2   5  -3  358.12   16.75
  -2   5  -3  374.71   16.58
  -1   5  -3   27.03    2.84
   1  -5   3   20.82    3.12
  -1   5  -3   26.18    3.74
  -1   5  -3   25.04    3.29
  -1   5  -3   18.63    3.37
   0   5  -3  532.02   25.11
   0   5  -3  557.79   22.46
   0   5  -3  525.23   23.84
   0   5  -3  551.79   23.69
   0  -5   3  550.98   24.46
   1   5  -3   20.53    2.86
   1   5  -3   27.34    3.34
   1   5  -3   22.57    3.96
  -1  -5   3   24.77    3.78
   1   5  -3   24.13    2.41
   2   5  -3  372.88   16.75
  -2  -5   3  380.93   18.66
   2   5  -3  400.39   18.18
   2   5  -3  374.94   19.27
   3   5  -3  146.56   10.17
   3   5  -3  162.77    8.61
   4   5  -3  199.06   10.70
   4   5  -3  200.95   12.56
   5   5  -3   -0.10    2.52
  -6   5  -2   87.65    8.83
  -5   5  -2  106.00    8.71
  -4   5  -2  236.52   12.40
  -4   5  -2  216.20   13.19
  -4   5  -2  232.52   11.90
  -3   5  -2  267.19   14.91
  -3   5  -2  295.69   14.22
  -3   5  -2  297.17   14.40
   3  -5   2  283.55   14.33
  -3   5  -2  291.69   14.34
   2  -5   2  321.92   15.00
  -2   5  -2  304.87   14.73
  -2   5  -2  294.89   15.01
  -2   5  -2  310.00   14.03
  -2   5  -2  292.47   15.16
  -1   5  -2  388.05   16.40
   1  -5   2  369.60   17.97
  -1   5  -2  406.44   17.90
  -1   5  -2  384.02   18.52
  -1   5  -2  390.16   17.95
   0   5  -2  386.34   17.99
   0   5  -2  378.59   18.90
   0  -5   2  407.60   18.52
   0   5  -2  390.28   16.01
   0  -5   2  396.57   16.13
   0   5  -2  411.74   17.81
   1   5  -2  370.34   18.67
   1   5  -2  384.09   15.30
   1   5  -2  388.24   17.75
  -1  -5   2  388.32   18.20
  -2  -5   2  293.80   12.91
  -2  -5   2  303.68   15.14
   2   5  -2  303.23   15.78
   2   5  -2  304.71   12.94
   2   5  -2  298.87   14.70
   3   5  -2  261.79   14.92
   3   5  -2  287.03   12.57
   4   5  -2  222.23   11.21
   4   5  -2  235.97   13.54
   5   5  -2   87.96    7.79
   6  -5   1   51.36    6.23
  -6   5  -1   41.81    6.44
  -5   5  -1   97.57    8.19
  -4   5  -1   35.01    4.22
  -4   5  -1   43.75    4.73
  -4   5  -1   35.11    5.16
  -3   5  -1  328.50   16.00
  -3   5  -1  316.91   16.31
  -3   5  -1  318.68   15.94
   3  -5   1  339.63   16.20
  -2   5  -1   87.19    6.20
  -2   5  -1   79.56    6.23
  -2   5  -1   87.18    6.02
   2  -5   1   97.79    6.21
   1  -5   1  360.84   14.82
  -1   5  -1  358.73   16.69
  -1   5  -1  369.99   17.38
  -1   5  -1  354.97   16.58
   1  -5   1  337.29   16.68
   0   5  -1  341.66   17.27
   0   5  -1  374.58   16.67
   0  -5   1  351.67   16.78
  -1  -5   1  348.04   15.04
   1   5  -1  333.02   16.97
  -1  -5   1  329.73   16.34
   1   5  -1  362.57   16.32
   2   5  -1   88.11    4.21
   2   5  -1   85.88    6.00
  -2  -5   1   88.76    4.85
  -2  -5   1   94.17    6.36
   2   5  -1   86.85    6.64
  -3  -5   1  322.38   13.29
   3   5  -1  314.57   16.38
   3   5  -1  293.83   13.44
  -3  -5   1  320.19   15.96
   3   5  -1  324.85   15.65
   4   5  -1   42.69    5.33
   4   5  -1   41.30    3.77
   5   5  -1   88.85    7.47
   5   5  -1   89.65    6.50
   6   5  -1   49.59    6.47
   6  -5   0    4.55    2.81
  -5   5   0  382.14   19.20
   5  -5   0  347.26   18.35
  -5   5   0  379.65   18.23
  -4   5   0   -1.87    1.68
  -4   5   0   -0.62    1.57
   4  -5   0    2.24    1.76
  -3   5   0  362.37   17.54
  -3   5   0  353.16   17.44
   3  -5   0  358.02   16.53
   3  -5   0  365.32   17.57
  -2   5   0   -0.65    1.38
  -2   5   0   -0.49    1.36
   2  -5   0   -0.13    0.93
   2  -5   0    1.34    1.09
  -1   5   0  895.10   36.71
   1  -5   0  806.13   35.10
   1  -5   0  866.62   36.66
  -1   5   0  857.47   37.30
   1  -5   0  853.22   33.93
   1  -5   0  872.75   34.00
   0  -5   0   -0.21    1.04
   0  -5   0   -0.74    0.93
   0   5   0   -1.30    1.02
   0   5   0   -0.45    1.32
  -1  -5   0  795.88   33.21
   1   5   0  894.58   35.34
   1   5   0  803.86   36.03
  -1  -5   0  804.21   35.23
   2   5   0   -1.13    1.31
  -2  -5   0   -0.87    0.92
  -2  -5   0   -3.83    1.12
   2   5   0    0.40    1.62
   2   5   0   -0.11    0.52
   3   5   0  366.21   15.54
   3   5   0  330.21   17.33
  -3  -5   0  372.63   17.83
  -3  -5   0  391.04   15.76
   3   5   0  364.89   18.32
   4   5   0   -0.71    1.33
   4   5   0   -0.47    1.70
   5   5   0  349.82   19.33
   5   5   0  415.45   18.19
   6   5   0   -2.78    2.34
   6  -5  -1   49.06    5.87
   6  -5  -1   65.35    7.15
   5  -5  -1   98.61    7.21
  -5   5   1   86.97    6.98
   5  -5  -1   94.25    7.38
   4  -5  -1   41.52    4.81
   4  -5  -1   41.16    4.82
  -4   5   1   47.46    5.06
   3  -5  -1  300.47   14.82
   3  -5  -1  311.67   15.23
   3  -5  -1  331.65   15.91
  -3   5   1  296.34   15.65
  -3   5   1  335.29   16.24
   2  -5  -1   86.31    5.26
   2  -5  -1   78.45    5.75
  -2   5   1   78.70    6.06
  -2   5   1   91.64    6.20
   2  -5  -1   75.69    5.67
   1  -5  -1  367.62   16.87
   1  -5  -1  346.74   15.07
  -1   5   1  348.85   17.31
   1  -5  -1  361.92   16.24
  -1   5   1  351.72   16.91
   0   5   1  331.20   17.14
   0   5   1  377.55   16.88
   0  -5  -1  342.11   16.59
   0  -5  -1  350.79   15.84
   0  -5  -1  361.99   14.53
   1   5   1  345.82   17.32
  -1  -5  -1  338.22   15.51
   1   5   1  351.57   16.63
  -1  -5  -1  336.14   16.55
   1   5   1  367.15   14.15
  -1  -5  -1  364.58   14.20
  -2  -5  -1   93.80    5.29
   2   5   1   86.25    5.96
  -2  -5  -1   86.42    4.50
  -2  -5  -1   77.90    5.88
   2   5   1   83.63    4.88
   2   5   1   94.67    6.66
  -3  -5  -1  306.91   15.44
   3   5   1  292.21   15.26
  -3  -5  -1  339.74   14.25
   3   5   1  305.58   15.98
   4   5   1   37.84    4.88
  -4  -5  -1   44.22    3.96
   5   5   1   99.03    7.71
   6  -5  -2   94.56    8.77
   6  -5  -2   90.89    7.39
  -6   5   2   95.01    7.85
  -5   5   2   84.23    6.93
   5  -5  -2   89.30    7.35
   5  -5  -2   95.65    6.95
   4  -5  -2  223.94   11.88
   4  -5  -2  224.15   12.21
  -4   5   2  204.37   12.10
   3  -5  -2  281.50   13.92
  -3   5   2  269.14   14.55
   3  -5  -2  288.96   14.03
   2  -5  -2  281.80   14.55
   2  -5  -2  307.87   14.34
  -2   5   2  293.26   15.11
   2  -5  -2  289.19   13.75
  -2   5   2  295.46   15.05
  -1   5   2  375.08   18.32
   1  -5  -2  370.34   17.03
   1  -5  -2  383.08   16.53
  -1   5   2  364.89   17.84
   1  -5  -2  375.89   17.61
   0   5   2  347.09   18.23
   0  -5  -2  400.18   17.84
   0   5   2  390.78   18.04
   0  -5  -2  396.00   16.46
   0  -5  -2  361.20   16.93
  -1  -5  -2  378.24   16.94
   1   5   2  394.76   18.03
  -1  -5  -2  383.47   16.06
  -1  -5  -2  373.35   17.77
   1   5   2  381.81   18.64
  -2  -5  -2  294.82   13.87
  -2  -5  -2  307.61   14.83
  -2  -5  -2  312.58   13.44
   2   5   2  280.33   15.29
   2   5   2  314.42   14.96
  -3  -5  -2  290.32   13.64
  -3  -5  -2  278.52   14.64
   3   5   2  287.63   15.27
   3   5   2  315.51   14.91
  -3  -5  -2  306.39   14.09
  -4  -5  -2  229.35   11.97
   4   5   2  238.76   13.12
  -4  -5  -2  231.29   11.88
   5   5   2  104.51    7.98
  -5   5   3   -1.37    2.10
   5  -5  -3    3.23    2.49
   5  -5  -3   -1.84    2.16
   4  -5  -3  187.97   11.54
   4  -5  -3  200.57   11.06
  -4   5   3  200.46   11.96
   3  -5  -3  133.03    8.61
  -3   5   3  135.78    9.15
   3  -5  -3  147.82    8.65
  -2   5   3  332.72   17.80
   2  -5  -3  383.76   17.17
   2  -5  -3  368.30   17.62
   2  -5  -3  372.16   17.16
  -2   5   3  354.42   18.20
   1  -5  -3   22.43    3.37
  -1   5   3   15.56    3.43
   1  -5  -3   24.13    3.24
   1  -5  -3   19.35    3.10
  -1   5   3   19.73    3.41
   0  -5  -3  526.40   23.19
   0   5   3  538.41   25.06
   0  -5  -3  559.89   24.04
   0   5   3  505.79   24.14
   0  -5  -3  545.10   23.17
  -1  -5  -3   22.68    2.68
   1   5   3   18.75    3.32
  -1  -5  -3   18.43    2.99
   1   5   3   22.70    3.82
  -1  -5  -3   22.90    3.18
  -2  -5  -3  353.26   16.55
   2   5   3  344.10   17.84
  -2  -5  -3  369.05   16.20
   2   5   3  382.98   17.35
  -2  -5  -3  346.71   16.98
  -3  -5  -3  149.95    8.54
  -3  -5  -3  158.65    9.06
   3   5   3  151.52    8.87
  -3  -5  -3  153.80    9.03
   3   5   3  146.73    9.47
  -4  -5  -3  205.28   11.51
   4   5   3  187.83   11.69
  -4  -5  -3  201.56   11.26
  -4  -5  -3  215.31   11.35
   4   5   3  203.06   11.22
  -5  -5  -3   -0.82    1.85
  -5  -5  -3    1.00    2.25
   5  -5  -4   58.79    7.29
  -5   5   4   69.00    7.55
   5  -5  -4   77.98    6.69
   4  -5  -4   95.83    8.08
  -4   5   4   99.72    8.11
   4  -5  -4   87.75    6.83
   3  -5  -4  146.00    9.59
   3  -5  -4  130.16    8.50
  -3   5   4  139.91    9.75
  -2   5   4  158.02   10.30
   2  -5  -4  163.14    9.33
   2  -5  -4  145.47    9.49
   1  -5  -4  137.36    8.75
   1  -5  -4  131.70    8.06
  -1   5   4  116.20    8.26
   1  -5  -4  146.81    8.39
  -1   5   4  129.22    9.02
   0   5   4  218.89   12.30
   0  -5  -4  225.76   11.93
   0  -5  -4  252.33   12.19
   0   5   4  236.68   13.32
   0  -5  -4  227.85   12.19
  -1  -5  -4  128.54    7.93
  -1  -5  -4  136.14    7.82
   1   5   4  126.65    8.09
   1   5   4  132.54    8.92
  -1  -5  -4  121.15    7.66
  -2  -5  -4  161.37    9.01
   2   5   4  148.12    9.82
  -2  -5  -4  161.91    9.42
  -2  -5  -4  157.60    9.01
   2   5   4  157.00    9.13
   3   5   4  130.79    8.20
   3   5   4  149.39    9.56
  -3  -5  -4  147.62    8.65
  -3  -5  -4  131.85    8.91
  -3  -5  -4  150.20    8.81
  -4  -5  -4  111.04    7.87
   4   5   4  110.29    8.10
  -4  -5  -4  101.66    7.67
  -5  -5  -4   61.09    6.33
  -5  -5  -4   64.86    6.66
   4  -5  -5    1.54    3.37
   4  -5  -5    2.86    2.45
  -4   5   5    4.65    3.23
   3  -5  -5  137.41   10.18
  -3   5   5  143.64   10.61
   3  -5  -5  160.80    9.52
   2  -5  -5   22.58    3.85
   2  -5  -5   19.70    4.67
  -2   5   5   20.63    4.57
  -1   5   5  200.75   13.05
   1  -5  -5  228.57   12.16
  -1   5   5  206.30   12.18
   1  -5  -5  233.08   12.02
   1  -5  -5  227.55   12.87
   0  -5  -5   86.76    6.64
   0   5   5   82.17    6.59
   0   5   5   84.99    7.46
   0  -5  -5   88.00    6.92
   0  -5  -5   89.85    6.14
  -1  -5  -5  206.77   12.01
  -1  -5  -5  245.90   11.84
  -1  -5  -5  210.23   12.09
   1   5   5  223.61   11.94
   1   5   5  220.82   13.32
  -2  -5  -5   20.91    3.72
  -2  -5  -5   18.12    3.69
   2   5   5   18.51    3.98
  -3  -5  -5  173.32   10.24
  -3  -5  -5  153.37   10.08
   3   5   5  147.60   10.27
  -4  -5  -5    4.72    2.82
  -4  -5  -5    5.71    2.77
   3  -5  -6   28.76    6.12
   3  -5  -6   24.25    4.55
  -3   5   6   33.38    6.23
   2  -5  -6   78.64    6.98
  -2   5   6   71.80    8.22
   2  -5  -6   66.35    7.78
   1  -5  -6   40.43    5.93
   1  -5  -6   28.64    4.66
  -1   5   6   46.56    6.54
   0  -5  -6   51.81    6.20
   0  -5  -6   53.26    5.89
   0   5   6   67.20    7.46
  -1  -5  -6   27.25    4.58
   1   5   6   37.37    5.86
  -1  -5  -6   41.08    5.25
  -2  -5  -6   54.00    6.36
  -2  -5  -6   74.59    6.95
   2   5   6   69.54    7.18
   3   5   6   27.41    5.19
  -3  -5  -6   23.70    4.57
  -3  -5  -6   36.37    5.46
   2  -5  -7   60.06    6.63
  -2   5   7   64.14    8.21
   2  -5  -7   42.50    7.51
   1  -5  -7   24.80    5.34
  -1   5   7   15.48    4.77
   1  -5  -7   29.98    5.14
   0  -5  -7   56.98    6.81
   0  -5  -7   64.40    7.28
  -1  -5  -7   30.73    5.17
   1   5   7   25.13    5.43
  -1  -5  -7   27.06    5.10
  -2  -5  -7   65.36    7.27
  -2  -5  -7   60.13    7.03
   2   5   7   50.74    7.09
  -2   6  -6   20.55    5.16
  -1   6  -6   23.48    4.73
  -1   6  -6   38.46    6.08
   0   6  -6  101.06    8.07
   0   6  -6   94.71    8.34
   1   6  -6   43.83    6.58
   2   6  -6   20.85    4.90
  -4   6  -5   75.02    9.06
  -3   6  -5   62.67    6.43
  -3   6  -5   55.84    7.25
  -2   6  -5  154.09    9.84
  -2   6  -5  132.51   10.13
  -2   6  -5  141.97    9.22
  -1   6  -5    5.21    2.90
  -1   6  -5    2.95    2.93
   0  -6   5  140.31    9.23
   0   6  -5  154.16    9.78
   0   6  -5  134.62    8.44
   0   6  -5  163.23   10.51
   1   6  -5    9.41    3.49
   1   6  -5    8.78    3.00
   2   6  -5  119.48    9.55
   3   6  -5   59.96    7.57
   4   6  -5   74.33    8.73
  -4   6  -4  138.71   10.82
  -4   6  -4  138.05    9.82
  -3   6  -4    9.73    3.15
  -3   6  -4   10.63    3.94
  -2   6  -4  242.48   13.54
   2  -6   4  221.54   12.03
  -2   6  -4  216.68   11.80
  -2   6  -4  222.44   12.75
  -2   6  -4  223.37   11.73
  -1   6  -4    7.50    2.28
  -1   6  -4    4.98    2.35
  -1   6  -4    5.83    2.84
  -1   6  -4    1.77    2.21
   1  -6   4    5.92    2.22
   0   6  -4  155.51    9.25
   0   6  -4  162.93   10.61
   0  -6   4  158.07    9.89
   0   6  -4  180.64   10.13
   1   6  -4    4.78    2.90
   1   6  -4    3.10    2.10
   2   6  -4  225.76   13.86
   3   6  -4    7.12    3.27
   4   6  -4  109.43    9.44
  -5   6  -3   77.55    8.78
  -4   6  -3   80.57    8.35
  -3   6  -3  202.59   11.87
   3  -6   3  221.92   12.05
  -3   6  -3  218.02   13.25
  -3   6  -3  239.37   12.11
  -3   6  -3  215.38   12.18
   2  -6   3  108.79    7.39
  -2   6  -3  111.13    6.85
  -2   6  -3  104.88    8.12
  -2   6  -3  109.24    7.80
  -2   6  -3  109.92    7.34
  -1   6  -3  231.60   12.62
  -1   6  -3  215.09   12.77
  -1   6  -3  215.61   11.91
   1  -6   3  233.82   12.44
  -1   6  -3  249.41   10.95
   0   6  -3  303.21   14.82
   0  -6   3  280.37   15.21
   0   6  -3  306.02   14.94
   0   6  -3  308.56   16.14
   1   6  -3  227.37   12.06
  -1  -6   3  224.57   12.70
   1   6  -3  237.81   11.64
   1   6  -3  215.92   13.22
  -2  -6   3  107.51    6.04
   2   6  -3   95.99    8.22
   3   6  -3  187.53   12.27
   4   6  -3   70.96    7.77
   5   6  -3   65.57    7.94
  -5   6  -2  143.59   10.89
  -4   6  -2   41.30    6.09
  -4   6  -2   47.67    5.14
  -3   6  -2  113.71    8.78
   3  -6   2  126.29    8.07
  -3   6  -2  118.76    8.13
  -2   6  -2  104.75    7.35
  -2   6  -2  118.44    8.20
   2  -6   2  111.06    7.49
  -2   6  -2  112.35    7.87
  -1   6  -2  282.21   15.01
   1  -6   2  289.08   14.55
  -1   6  -2  266.88   14.04
  -1   6  -2  288.32   14.45
   0   6  -2   93.15    6.45
   0  -6   2   80.22    6.40
   0   6  -2   91.42    7.07
   0   6  -2   91.99    6.46
  -1  -6   2  261.00   12.54
  -1  -6   2  269.25   14.20
   1   6  -2  260.71   14.73
   1   6  -2  280.37   13.83
   2   6  -2  111.90    8.44
  -2  -6   2  113.97    6.22
   3   6  -2  111.41    8.62
   4   6  -2   50.14    6.59
   5   6  -2  144.97   10.79
  -5   6  -1   89.26    8.67
   5  -6   1   96.03    7.40
   4  -6   1  205.59   11.63
  -4   6  -1  220.05   12.31
  -4   6  -1  217.46   13.17
  -3   6  -1  439.46   21.22
  -3   6  -1  434.85   21.33
   2  -6   1  326.49   16.61
  -2   6  -1  339.54   16.60
   2  -6   1  334.42   14.74
  -2   6  -1  322.82   16.90
  -2   6  -1  340.18   16.79
   1  -6   1  305.36   15.23
  -1   6  -1  303.67   15.81
  -1   6  -1  304.09   15.05
   1  -6   1  292.55   12.47
   0  -6   1  658.28   29.71
   0  -6   1  673.21   28.15
   0   6  -1  645.17   30.40
   0   6  -1  686.49   29.49
   1   6  -1  288.52   14.64
  -1  -6   1  301.68   15.05
   1   6  -1  287.92   15.64
  -1  -6   1  285.49   13.42
   2   6  -1  290.81   16.59
  -2  -6   1  334.65   14.19
   3   6  -1  410.81   21.83
  -3  -6   1  454.66   18.44
   4   6  -1  205.46   12.95
   5   6  -1   98.83    8.59
  -5   6   0   -0.66    2.30
   5  -6   0    2.77    2.27
   4  -6   0  104.17    7.29
  -4   6   0  102.13    7.76
   3  -6   0    0.85    1.49
  -3   6   0   -3.40    1.51
  -2   6   0  161.91    9.75
   2  -6   0  150.76    9.12
   2  -6   0  135.02    8.60
   2  -6   0  139.07    7.52
  -2   6   0  155.54    9.24
  -1   6   0    0.60    1.83
  -1   6   0    0.73    1.94
   1  -6   0   -1.34    0.84
   1  -6   0    0.31    1.27
   1  -6   0   -2.14    1.07
   0   6   0  308.58   15.63
   0   6   0  329.59   16.67
   0  -6   0  306.36   14.76
   0  -6   0  327.11   15.94
  -1  -6   0   -0.94    1.06
   1   6   0   -0.92    1.51
  -1  -6   0   -0.93    1.45
   1   6   0   -0.89    1.72
   2   6   0  154.11   10.00
  -2  -6   0  153.54    9.49
   2   6   0  154.79    9.33
  -2  -6   0  154.58    8.05
  -3  -6   0   -0.14    1.32
   3   6   0    0.15    1.96
   4   6   0  113.61    8.79
   5   6   0   -0.08    2.32
   5  -6  -1   74.49    7.20
   5  -6  -1   91.91    7.36
  -5   6   1   92.09    7.53
   4  -6  -1  219.22   11.88
   4  -6  -1  215.08   12.19
  -4   6   1  206.60   12.46
   3  -6  -1  427.32   19.05
   3  -6  -1  416.03   19.72
  -3   6   1  407.03   20.55
   2  -6  -1  328.63   14.39
  -2   6   1  302.88   16.37
   2  -6  -1  311.64   15.43
  -1   6   1  270.08   14.74
   1  -6  -1  296.89   14.24
  -1   6   1  286.32   15.41
   1  -6  -1  299.55   14.85
   1  -6  -1  291.75   12.72
   0   6   1  701.53   30.31
   0  -6  -1  672.33   26.61
   0  -6  -1  698.15   30.28
   0  -6  -1  688.23   28.82
   0   6   1  640.02   30.89
  -1  -6  -1  290.01   13.98
   1   6   1  292.49   15.12
   1   6   1  293.33   15.90
  -1  -6  -1  328.23   15.41
  -2  -6  -1  339.54   14.72
   2   6   1  320.28   16.06
   2   6   1  278.47   16.36
  -2  -6  -1  330.68   16.17
   3   6   1  423.86   21.76
  -3  -6  -1  450.60   19.32
   4   6   1  199.55   12.56
  -4  -6  -1  215.31   10.85
   5   6   1   81.59    7.85
  -5   6   2  157.35   10.37
   5  -6  -2  150.87    9.91
   5  -6  -2  132.77    9.85
   4  -6  -2   49.57    5.50
   4  -6  -2   45.69    5.21
  -4   6   2   41.90    5.50
   3  -6  -2  119.84    8.18
   3  -6  -2  128.93    7.94
  -3   6   2  119.16    8.77
  -2   6   2  109.00    8.01
   2  -6  -2  106.78    6.75
   2  -6  -2  106.58    7.38
   1  -6  -2  278.32   13.65
   1  -6  -2  262.82   13.96
   1  -6  -2  281.89   12.84
  -1   6   2  257.57   14.28
   0   6   2   95.90    7.26
   0  -6  -2   85.82    6.32
   0  -6  -2   90.33    6.18
   0   6   2   94.91    6.96
   0  -6  -2   86.56    5.10
  -1  -6  -2  293.62   14.53
   1   6   2  281.59   15.29
  -1  -6  -2  280.16   12.10
  -1  -6  -2  267.26   13.45
   1   6   2  289.31   14.65
   2   6   2  103.51    7.98
  -2  -6  -2  111.88    7.44
  -2  -6  -2  104.99    6.64
   2   6   2  104.87    7.41
  -3  -6  -2  113.46    7.10
   3   6   2  111.00    8.42
  -4  -6  -2   48.97    4.95
   4   6   2   48.42    6.01
   5   6   2  142.32   10.31
   5  -6  -3   58.48    6.25
   5  -6  -3   85.55    8.03
  -5   6   3   58.41    7.14
   4  -6  -3   70.94    6.92
  -4   6   3   79.90    7.70
   4  -6  -3   71.06    6.67
   3  -6  -3  189.74   10.93
  -3   6   3  177.23   11.65
   3  -6  -3  187.57   10.91
  -2   6   3  101.87    8.07
   2  -6  -3  106.68    7.38
   2  -6  -3   99.35    7.16
  -1   6   3  230.96   13.18
   1  -6  -3  211.16   11.42
   1  -6  -3  217.08   11.74
   0   6   3  309.21   15.30
   0   6   3  268.61   15.50
   0  -6  -3  296.95   14.76
   0  -6  -3  288.06   14.24
   0  -6  -3  274.56   13.43
  -1  -6  -3  220.87   10.64
  -1  -6  -3  231.51   12.20
  -1  -6  -3  224.15   11.65
   1   6   3  235.12   12.51
   1   6   3  206.12   12.83
  -2  -6  -3   98.20    6.91
  -2  -6  -3  100.52    7.29
   2   6   3  107.33    7.71
  -2  -6  -3  124.09    6.67
   2   6   3  107.58    8.31
   3   6   3  203.88   12.38
  -3  -6  -3  195.64   11.08
  -4  -6  -3   61.08    6.07
   4   6   3   81.71    7.54
   4  -6  -4  130.78    8.84
  -4   6   4  121.56    9.73
   4  -6  -4  118.96    9.43
   3  -6  -4    7.65    2.98
  -3   6   4   13.94    4.09
   3  -6  -4    5.88    3.19
  -2   6   4  212.27   13.56
   2  -6  -4  230.26   12.78
   2  -6  -4  225.49   12.41
   1  -6  -4    9.52    3.24
   1  -6  -4    8.85    2.82
  -1   6   4    6.72    2.97
   0  -6  -4  150.39    8.89
   0  -6  -4  146.85    9.04
   0   6   4  140.19   10.10
   1   6   4    4.75    2.69
  -1  -6  -4    9.87    2.80
  -1  -6  -4    6.04    1.94
  -1  -6  -4    4.99    2.18
   1   6   4    1.14    2.55
  -2  -6  -4  226.95   11.36
   2   6   4  190.65   12.67
  -2  -6  -4  212.94   11.91
  -2  -6  -4  223.90   12.04
   3   6   4    9.53    3.44
  -3  -6  -4    8.32    3.10
   4   6   4  135.99    9.82
  -4  -6  -4  119.68    8.77
   4  -6  -5   75.20    7.03
   4  -6  -5   70.61    8.27
   3  -6  -5   55.48    7.06
  -3   6   5   42.28    6.81
   3  -6  -5   63.59    6.44
  -2   6   5  125.68    9.99
   2  -6  -5  132.27    8.86
   2  -6  -5  117.24    9.43
   1  -6  -5    9.01    2.96
   1  -6  -5    8.08    3.46
  -1   6   5    7.30    3.33
   0  -6  -5  142.03    9.37
   0   6   5  148.30   10.80
   0  -6  -5  139.24    9.22
   1   6   5    6.48    3.20
  -1  -6  -5    5.25    2.54
  -1  -6  -5    4.60    2.18
   2   6   5  116.84    9.54
  -2  -6  -5  131.64    8.44
  -2  -6  -5  123.54    8.77
   3   6   5   59.91    7.17
  -3  -6  -5   58.85    6.41
  -4  -6  -5   74.00    7.29
   2  -6  -6   21.59    4.61
   2  -6  -6   17.23    4.87
  -2   6   6   26.53    5.67
   1  -6  -6   33.62    5.24
   1  -6  -6   30.66    5.57
  -1   6   6   34.30    6.11
   0  -6  -6   96.85    7.88
   0   6   6   71.80    8.50
   0  -6  -6   93.20    7.65
   1   6   6   46.95    6.88
  -1  -6  -6   31.16    5.22
  -1  -6  -6   37.76    5.06
   2   6   6   24.62    5.44
  -2  -6  -6   33.71    5.00
  -2  -6  -6   25.23    4.93
  -2   7  -5   15.99    4.02
  -2   7  -5   12.84    4.50
  -1   7  -5   69.92    7.67
  -1   7  -5   67.18    7.25
   0   7  -5   10.60    3.67
   0   7  -5    3.45    2.99
   1   7  -5   46.80    6.58
   2   7  -5   12.41    4.28
  -3   7  -4   79.64    8.71
  -2   7  -4   64.15    7.42
  -2   7  -4   69.49    7.05
  -1   7  -4  282.15   15.60
  -1   7  -4  280.93   15.93
   0   7  -4  161.04   11.44
   0   7  -4  185.42   10.88
   1   7  -4  263.37   16.40
   1   7  -4  305.88   14.84
   2   7  -4   57.46    7.30
   3   7  -4   66.44    7.99
  -4   7  -3   67.03    8.24
  -3   7  -3   30.02    4.89
  -3   7  -3   38.28    6.17
  -2   7  -3   70.03    7.30
  -2   7  -3   83.20    7.51
  -1   7  -3    3.09    2.61
  -1   7  -3    4.78    2.78
   0   7  -3  100.46    8.41
   0   7  -3  114.55    7.85
   1   7  -3    8.89    3.47
  -1  -7   3    6.79    2.13
   2   7  -3   72.12    8.10
   3   7  -3   22.49    5.12
   4   7  -3   70.65    8.37
  -4   7  -2  253.01   15.58
  -3   7  -2  168.51   11.00
  -3   7  -2  176.38   11.72
  -2   7  -2  569.14   26.97
  -2   7  -2  588.59   27.74
  -1   7  -2  196.96   11.82
  -1   7  -2  167.67   10.73
   0   7  -2  329.07   17.84
   1   7  -2  188.23   12.02
  -1  -7   2  176.69    9.63
   2   7  -2  549.67   27.28
  -2  -7   2  549.92   23.36
   3   7  -2  162.95   11.57
   4   7  -2  244.75   15.38
  -4   7  -1    1.18    2.53
  -4   7  -1   -1.18    2.34
  -3   7  -1   64.82    6.81
  -2   7  -1   20.35    4.27
  -1   7  -1   67.58    6.93
   1  -7   1   62.49    5.68
   0   7  -1   14.50    3.97
   0  -7   1   16.96    3.11
   1   7  -1   61.17    6.82
  -1  -7   1   65.64    5.07
  -2  -7   1   20.82    2.93
   2   7  -1   20.76    4.43
   3   7  -1   48.64    6.58
   4   7  -1    0.02    2.75
   5   7  -1   33.91    6.16
   5  -7   0  345.05   18.00
   5  -7   0  353.02   18.59
  -4   7   0    2.04    2.57
   4  -7   0    1.29    2.55
   4  -7   0    1.15    1.97
  -3   7   0  332.79   17.61
   3  -7   0  310.66   16.39
   2  -7   0   -1.38    1.61
  -2   7   0   -2.11    1.92
  -1   7   0 1110.53   48.36
   1  -7   0 1077.77   45.20
   0  -7   0   -0.02    1.48
   0   7   0    2.93    2.34
   1   7   0  999.11   46.33
  -1  -7   0 1085.42   42.81
  -2  -7   0   -0.05    1.49
   2   7   0    0.74    2.23
  -3  -7   0  348.70   15.38
   3   7   0  309.91   18.15
   4   7   0   -1.46    2.29
   5   7   0  351.27   19.84
   5  -7  -1   24.55    4.71
   5  -7  -1   24.47    4.87
  -5   7   1   35.58    5.70
   4  -7  -1    3.73    2.70
   4  -7  -1    4.85    2.58
  -4   7   1    2.65    2.62
   3  -7  -1   53.99    4.87
   3  -7  -1   55.96    5.92
  -3   7   1   42.85    5.79
   2  -7  -1   11.51    3.00
  -2   7   1   20.22    4.20
   1  -7  -1   52.78    5.37
  -1   7   1   67.82    6.93
   0   7   1   14.34    3.80
   0  -7  -1   13.71    2.91
   1   7   1   72.08    7.21
  -1  -7  -1   65.43    5.35
  -2  -7  -1   15.06    2.89
   2   7   1   18.40    4.35
   3   7   1   62.73    7.26
  -3  -7  -1   63.99    5.15
   4   7   1    1.58    2.96
   5   7   1   26.07    5.36
   4  -7  -2  246.72   13.55
   4  -7  -2  244.71   13.96
   3  -7  -2  147.00    9.68
  -3   7   2  144.46   10.35
   3  -7  -2  146.20    8.94
  -2   7   2  531.61   26.41
   2  -7  -2  545.25   24.75
  -1   7   2  174.45   11.47
   1  -7  -2  169.63   10.16
   0   7   2  286.00   16.42
   0  -7  -2  300.19   14.82
  -1  -7  -2  169.89    9.70
   1   7   2  172.67   11.42
  -2  -7  -2  546.02   23.49
   2   7   2  506.96   26.00
  -3  -7  -2  172.14    9.75
   3   7   2  161.00   11.30
   4   7   2  233.31   14.57
   4  -7  -3   54.92    6.28
  -4   7   3   72.35    7.79
   4  -7  -3   50.43    6.16
  -3   7   3   40.99    6.19
   3  -7  -3   25.06    4.49
   3  -7  -3   25.61    4.40
   2  -7  -3   63.91    6.27
  -2   7   3   54.90    6.69
   1  -7  -3   11.32    3.20
  -1   7   3    8.41    3.25
   0  -7  -3  111.28    7.63
   0   7   3  102.63    8.56
   1   7   3    5.62    2.88
  -1  -7  -3    8.60    2.79
  -2  -7  -3   69.58    5.83
   2   7   3   66.27    7.39
   3   7   3   44.59    6.37
  -3  -7  -3   41.38    5.01
  -4  -7  -3   73.53    6.81
   4   7   3   67.70    7.84
   3  -7  -4   68.11    7.03
  -3   7   4   63.63    7.82
   3  -7  -4   68.26    6.94
  -2   7   4   55.66    7.52
   2  -7  -4   59.20    6.28
  -1   7   4  250.31   15.52
   1  -7  -4  258.97   14.05
   0  -7  -4  180.02   10.72
   0   7   4  170.36   12.02
   1   7   4  252.69   15.51
  -1  -7  -4  259.61   13.91
   2   7   4   47.58    6.63
  -2  -7  -4   58.57    6.04
   3   7   4   83.98    8.45
  -3  -7  -4   65.57    6.67
  -2   7   5   15.15    4.76
   2  -7  -5   11.68    3.64
  -1   7   5   57.40    7.89
   1  -7  -5   59.26    6.55
   0   7   5    3.83    3.43
   0  -7  -5    4.31    2.73
  -1  -7  -5   67.18    6.74
  -2  -7  -5   12.11    3.64
   2   7   5   10.77    4.17
   0  -7  -6  135.95    9.96
  -2   8  -4   72.70    8.22
  -2   8  -4   68.84    7.68
  -1   8  -4   -0.98    2.88
  -1   8  -4   -2.75    2.56
   0   8  -4   19.36    4.46
   0   8  -4   18.17    4.92
   1   8  -4   -0.22    2.95
   2   8  -4   83.11    9.31
  -3   8  -3  115.03    9.21
  -3   8  -3   95.07    9.56
  -2   8  -3   41.53    6.23
  -2   8  -3   35.27    5.94
  -1   8  -3  139.76    9.74
  -1   8  -3  116.54    9.80
   0   8  -3  190.26   12.92
   1   8  -3  118.94   10.08
  -1  -8   3  117.96    7.66
   2   8  -3   20.45    5.06
   3   8  -3   83.16    9.03
  -3   8  -2   20.29    5.14
  -3   8  -2   27.85    5.17
  -2   8  -2   43.21    6.43
  -1   8  -2  122.50    9.55
   1  -8   2  106.82    7.81
   0   8  -2   14.53    4.22
   0  -8   2   23.70    3.79
  -1  -8   2   98.16    6.87
   1   8  -2  104.41    9.06
   2   8  -2   38.57    6.39
   3   8  -2   13.63    4.32
   3  -8   1  214.15   13.33
  -3   8  -1  263.76   15.04
  -2   8  -1  258.00   15.05
   2  -8   1  225.37   13.22
   1  -8   1  192.56   11.00
  -1   8  -1  173.51   12.28
   0   8  -1  445.11   22.93
   0  -8   1  416.97   20.00
  -1  -8   1  183.00   10.37
   1   8  -1  194.23   12.98
   2   8  -1  237.83   15.28
  -2  -8   1  248.25   12.36
   3   8  -1  236.26   15.30
   4   8  -1  170.28   12.74
  -4   8   0   57.67    7.34
   4  -8   0   73.82    7.57
  -3   8   0   -0.08    2.67
   3  -8   0    1.00    2.21
   2  -8   0   97.16    7.74
  -2   8   0  115.84    9.34
   1  -8   0    2.04    2.12
  -1   8   0    1.91    2.89
   0   8   0    9.49    3.91
   0  -8   0   12.74    3.14
   1   8   0   -0.09    2.25
  -1  -8   0   -0.53    1.74
  -2  -8   0  110.50    7.01
   2   8   0   79.60    8.75
   3   8   0   -2.01    2.31
   4   8   0   65.38    8.22
   4  -8  -1  175.04   11.55
  -3   8   1  243.66   15.44
   3  -8  -1  270.74   14.75
   2  -8  -1  226.63   13.11
  -2   8   1  235.46   14.59
   1  -8  -1  181.08   10.90
   0  -8  -1  484.30   22.15
   0   8   1  463.60   24.50
   1   8   1  197.42   13.25
  -1  -8  -1  204.79   11.26
   2   8   1  211.81   14.27
  -2  -8  -1  237.27   12.14
  -3  -8  -1  270.19   13.68
   3   8   1  267.01   16.53
   4   8   1  160.64   12.16
   3  -8  -2   21.35    4.44
  -3   8   2   17.98    4.64
   2  -8  -2   32.04    4.99
  -2   8   2   23.76    5.03
  -1   8   2  112.20    9.33
   1  -8  -2  103.24    7.89
   0  -8  -2   18.29    3.74
   0   8   2   15.64    4.15
  -1  -8  -2  105.20    7.61
   1   8   2  109.65    9.21
  -2  -8  -2   26.09    4.10
   2   8   2   36.56    6.17
   3   8   2   24.50    5.23
  -3  -8  -2   26.11    4.17
   3  -8  -3  104.34    8.39
  -3   8   3  103.07   10.07
  -2   8   3   33.87    6.00
   2  -8  -3   44.46    5.77
  -1   8   3  109.32    9.53
   1  -8  -3  111.81    8.33
   0   8   3  171.08   12.37
   0  -8  -3  178.03   10.86
  -1  -8  -3  121.08    8.16
   1   8   3   81.95    8.93
   2   8   3   31.73    5.85
  -2  -8  -3   34.15    4.94
   3   8   3   77.08    8.55
  -3  -8  -3   88.23    7.27
   2  -8  -4   62.54    7.04
  -2   8   4   83.15    9.37
   1  -8  -4   -1.55    2.16
  -1   8   4   -0.39    2.84
   0   8   4   15.86    4.59
   0  -8  -4   20.70    4.28
   1   8   4    0.44    3.08
  -1  -8  -4    0.43    2.40
  -2  -8  -4   64.78    6.67
   2   8   4   74.14    8.76
   0  -9   3  132.51    8.96
   2  -9   2   58.57    6.58
  -1   9  -2   25.85    5.50
   1  -9   2   23.25    4.19
   0   9  -2   13.35    4.56
   0  -9   2   24.81    4.19
   1   9  -2   31.80    6.14
  -1  -9   2   26.08    4.16
   2  -9   1    1.80    2.41
  -2   9  -1    3.57    3.48
  -1   9  -1   21.97    5.23
   1  -9   1   11.81    3.41
   0   9  -1   49.00    7.46
   0  -9   1   43.16    5.18
   1   9  -1   10.46    4.03
  -1  -9   1   12.98    3.22
   2   9  -1    5.46    3.71
  -2   9   0    3.98    3.27
   2  -9   0    1.28    2.40
   1  -9   0  105.48    8.07
  -1   9   0   98.76    9.89
   0   9   0    0.32    2.93
   0  -9   0   -0.80    2.09
  -1  -9   0  107.35    7.63
   1   9   0   92.98    9.81
  -2  -9   0   -0.78    2.05
   2   9   0    0.61    2.89
  -2   9   1    0.08    3.07
   2  -9  -1    1.58    2.57
  -1   9   1   16.72    4.82
   1  -9  -1   26.51    4.67
   0  -9  -1   54.03    5.91
   0   9   1   50.63    7.34
  -1  -9  -1   23.34    4.27
   1   9   1   19.79    5.00
  -2  -9  -1    7.37    2.81
   2   9   1    2.55    3.17
   2  -9  -2   73.73    7.52
   1  -9  -2   24.85    4.67
  -1   9   2   31.49    6.03
   0  -9  -2   18.56    4.04
   0   9   2   15.06    4.52
   1   9   2   20.87    5.02
  -1  -9  -2   21.00    4.13
  -2  -9  -2   79.07    7.16
   0  -9  -3  125.83    9.25
   0   0   0    0.00    0.00
;
_shelx_hkl_checksum              3563
loop_
_space_group_symop_operation_xyz
'x, y, z'
'-x+1/2, -y, z+1/2'
'-x, y, z'
'x+1/2, -y, z+1/2'
loop_
_atom_site_label
_atom_site_type_symbol
_atom_site_fract_x
_atom_site_fract_y
_atom_site_fract_z
_atom_site_U_iso_or_equiv
_atom_site_adp_type
_atom_site_occupancy
_atom_site_site_symmetry_order
_atom_site_calc_flag
_atom_site_refinement_flags_posn
_atom_site_refinement_flags_adp
_atom_site_refinement_flags_occupancy
F1 F 0.500000 0.6053(3) 0.2026(3) 0.0344(5) Uani 1 2 d S T P
F2 F 0.500000 0.6190(2) -0.0804(3) 0.0470(7) Uani 1 2 d S T P
N1 N 0.500000 0.0158(4) 0.0296(4) 0.0261(6) Uani 1 2 d S T P
C1 C 0.500000 0.2027(4) 0.1169(6) 0.0233(6) Uani 1 2 d S T P
C2 C 0.3197(4) 0.3439(3) 0.0578(4) 0.0287(5) Uani 1 1 d . . .
H2A H 0.255393 0.315633 -0.058873 0.034 Uiso 1 1 calc R U .
H2B H 0.202021 0.366677 0.146205 0.034 Uiso 1 1 calc R U .
C3 C 0.500000 0.4934(4) 0.0555(5) 0.0249(7) Uani 1 2 d S T P
H1N H 0.373(6) -0.052(4) 0.059(4) 0.041(7) Uiso 1 1 d . . .
H1 H 0.500000 0.186(5) 0.223(6) 0.023(9) Uiso 1 2 d S . P
H2N H 0.500000 0.032(6) -0.080(7) 0.037(11) Uiso 1 2 d S . P
CL1 Cl 0.000000 -0.10784(10) 0.12132(8) 0.0299(3) Uani 1 2 d S T P
loop_
_atom_site_aniso_label
_atom_site_aniso_U_11
_atom_site_aniso_U_22
_atom_site_aniso_U_33
_atom_site_aniso_U_23
_atom_site_aniso_U_13
_atom_site_aniso_U_12
F1 0.0383(11) 0.0363(10) 0.0286(11) -0.0133(9) 0.000 0.000
F2 0.0830(19) 0.0289(10) 0.0289(13) 0.0048(9) 0.000 0.000
N1 0.0252(15) 0.0249(13) 0.0282(17) 0.0022(12) 0.000 0.000
C1 0.0235(14) 0.0299(13) 0.0166(13) 0.0022(16) 0.000 0.000
C2 0.0175(11) 0.0329(10) 0.0358(12) -0.0056(9) -0.0022(9) 0.0024(9)
C3 0.0291(16) 0.0257(14) 0.0197(14) -0.0033(12) 0.000 0.000
CL1 0.0234(4) 0.0409(4) 0.0254(4) 0.0021(4) 0.000 0.000
loop_
_atom_type_symbol
_atom_type_description
_atom_type_scat_dispersion_real
_atom_type_scat_dispersion_imag
_atom_type_scat_source
C C 0.0033 0.0016 'International Tables Vol C Tables 4.2.6.8 and 6.1.1.4'
H H 0.0000 0.0000 'International Tables Vol C Tables 4.2.6.8 and 6.1.1.4'
Cl Cl 0.1484 0.1585 'International Tables Vol C Tables 4.2.6.8 and 6.1.1.4'
F F 0.0171 0.0103 'International Tables Vol C Tables 4.2.6.8 and 6.1.1.4'
N N 0.0061 0.0033 'International Tables Vol C Tables 4.2.6.8 and 6.1.1.4'
loop_
_geom_angle_atom_site_label_1
_geom_angle_atom_site_label_2
_geom_angle_atom_site_label_3
_geom_angle
_geom_angle_site_symmetry_1
_geom_angle_site_symmetry_3
C1 N1 H1N 110.4(19) . .
C1 N1 H2N 109(3) . .
H1N N1 H2N 108(2) . .
N1 C1 C2 116.3(2) . 3_655
N1 C1 C2 116.3(2) . .
C2 C1 C2 89.8(2) 3_655 .
N1 C1 H1 109(3) . .
C2 C1 H1 112.5(18) 3_655 .
C2 C1 H1 112.5(18) . .
C3 C2 C1 86.84(17) . .
C3 C2 H2A 114.2 . .
C1 C2 H2A 114.2 . .
C3 C2 H2B 114.2 . .
C1 C2 H2B 114.2 . .
H2A C2 H2B 111.3 . .
F2 C3 F1 104.6(2) . .
F2 C3 C2 117.4(2) . 3_655
F1 C3 C2 112.9(2) . 3_655
F2 C3 C2 117.4(2) . .
F1 C3 C2 112.9(2) . .
C2 C3 C2 91.9(2) 3_655 .
loop_
_geom_bond_atom_site_label_1
_geom_bond_atom_site_label_2
_geom_bond_distance
_geom_bond_site_symmetry_2
F1 C3 1.369(4) .
F2 C3 1.360(4) .
N1 C1 1.471(5) .
N1 H1N 0.93(3) .
N1 H2N 0.84(5) .
C1 C2 1.537(3) 3_655
C1 C2 1.537(3) .
C1 H1 0.82(4) .
C2 C3 1.510(3) .
C2 H2A 0.9900 .
C2 H2B 0.9900 .
C3 C2 1.510(3) 3_655
loop_
_geom_torsion_atom_site_label_1
_geom_torsion_atom_site_label_2
_geom_torsion_atom_site_label_3
_geom_torsion_atom_site_label_4
_geom_torsion
_geom_torsion_site_symmetry_1
_geom_torsion_site_symmetry_4
N1 C1 C2 C3 -135.6(3) . .
C2 C1 C2 C3 -16.1(3) 3_655 .
C1 C2 C3 F2 138.8(3) . .
C1 C2 C3 F1 -99.5(2) . .
C1 C2 C3 C2 16.4(3) . 3_655
