#------------------------------------------------------------------------------
#$Date: 2019-11-04 09:01:48 +0200 (Mon, 04 Nov 2019) $
#$Revision: 222302 $
#$URL: file:///home/coder/svn-repositories/cod/cif/4/03/37/4033727.cif $
#------------------------------------------------------------------------------
#
# This file is available in the Crystallography Open Database (COD),
# http://www.crystallography.net/
#
# All data on this site have been placed in the public domain by the
# contributors.
#
data_4033727
loop_
_publ_author_name
'Sihag, Pinki'
'Jeganmohan, Masilamani'
_publ_section_title
;
 Regioselective Synthesis of Isocoumarins via Iridium(III)-Catalyzed
 Oxidative Cyclization of Aromatic Acids with Propargyl Alcohols.
;
_journal_issue                   5
_journal_name_full               'The Journal of organic chemistry'
_journal_page_first              2699
_journal_page_last               2712
_journal_paper_doi               10.1021/acs.joc.8b03077
_journal_volume                  84
_journal_year                    2019
_chemical_formula_moiety         'C19 H18 O3'
_chemical_formula_sum            'C19 H18 O3'
_chemical_formula_weight         294.33
_space_group_crystal_system      triclinic
_space_group_IT_number           2
_space_group_name_Hall           '-P 1'
_space_group_name_H-M_alt        'P -1'
_atom_sites_solution_hydrogens   mixed
_audit_creation_method           SHELXL-2014/7
_cell_angle_alpha                75.653(2)
_cell_angle_beta                 85.6189(19)
_cell_angle_gamma                69.2243(18)
_cell_formula_units_Z            2
_cell_length_a                   8.9804(4)
_cell_length_b                   9.2764(4)
_cell_length_c                   10.1223(4)
_cell_measurement_reflns_used    5735
_cell_measurement_temperature    296(2)
_cell_measurement_theta_max      27.31
_cell_measurement_theta_min      2.42
_cell_volume                     763.76(6)
_computing_cell_refinement       'Bruker SAINT'
_computing_data_collection       'Bruker APEX2'
_computing_data_reduction        'Bruker SAINT'
_computing_molecular_graphics    'Bruker SHELXTL'
_computing_publication_material  'Bruker SHELXTL'
_computing_structure_refinement  'SHELXL-2014/7 (Sheldrick, 2014)'
_computing_structure_solution    'SHELXS-97 (Sheldrick 2008)'
_diffrn_ambient_temperature      296(2)
_diffrn_measured_fraction_theta_full 0.998
_diffrn_measured_fraction_theta_max 0.998
_diffrn_measurement_device_type  'Bruker APEX-II CCD'
_diffrn_measurement_method       '\f and \w scans'
_diffrn_radiation_type           MoK\a
_diffrn_radiation_wavelength     0.71073
_diffrn_reflns_av_R_equivalents  0.0209
_diffrn_reflns_av_unetI/netI     0.0175
_diffrn_reflns_Laue_measured_fraction_full 0.998
_diffrn_reflns_Laue_measured_fraction_max 0.998
_diffrn_reflns_limit_h_max       7
_diffrn_reflns_limit_h_min       -10
_diffrn_reflns_limit_k_max       10
_diffrn_reflns_limit_k_min       -11
_diffrn_reflns_limit_l_max       12
_diffrn_reflns_limit_l_min       -11
_diffrn_reflns_number            10804
_diffrn_reflns_point_group_measured_fraction_full 0.998
_diffrn_reflns_point_group_measured_fraction_max 0.998
_diffrn_reflns_theta_full        24.995
_diffrn_reflns_theta_max         24.995
_diffrn_reflns_theta_min         2.077
_exptl_absorpt_coefficient_mu    0.086
_exptl_absorpt_correction_T_max  0.991
_exptl_absorpt_correction_T_min  0.979
_exptl_absorpt_correction_type   multi-scan
_exptl_absorpt_process_details   'SADABS V2014/5(Bruker AXS.Inc)'
_exptl_crystal_colour            colourless
_exptl_crystal_density_diffrn    1.280
_exptl_crystal_description       Block
_exptl_crystal_F_000             312
_exptl_crystal_size_max          0.250
_exptl_crystal_size_mid          0.220
_exptl_crystal_size_min          0.100
_refine_diff_density_max         0.227
_refine_diff_density_min         -0.137
_refine_diff_density_rms         0.036
_refine_ls_extinction_coef       0.055(6)
_refine_ls_extinction_expression Fc^*^=kFc[1+0.001xFc^2^\l^3^/sin(2\q)]^-1/4^
_refine_ls_extinction_method     'SHELXL-2014/7 (Sheldrick 2014'
_refine_ls_goodness_of_fit_ref   1.034
_refine_ls_hydrogen_treatment    mixed
_refine_ls_matrix_type           full
_refine_ls_number_parameters     207
_refine_ls_number_reflns         2682
_refine_ls_number_restraints     0
_refine_ls_restrained_S_all      1.034
_refine_ls_R_factor_all          0.0441
_refine_ls_R_factor_gt           0.0367
_refine_ls_shift/su_max          0.001
_refine_ls_shift/su_mean         0.000
_refine_ls_structure_factor_coef Fsqd
_refine_ls_weighting_details
'w=1/[\s^2^(Fo^2^)+(0.0556P)^2^+0.1654P] where P=(Fo^2^+2Fc^2^)/3'
_refine_ls_weighting_scheme      calc
_refine_ls_wR_factor_gt          0.0985
_refine_ls_wR_factor_ref         0.1061
_reflns_Friedel_coverage         0.000
_reflns_number_gt                2247
_reflns_number_total             2682
_reflns_threshold_expression     'I > 2\s(I)'
_cod_data_source_file            jo8b03077_si_002.cif
_cod_data_source_block           143
_cod_database_code               4033727
_shelx_shelxl_version_number     2014/7
_shelx_space_group_comment
; 
The symmetry employed for this shelxl refinement is uniquely defined 
by the following loop, which should always be used as a source of 
symmetry information in preference to the above space-group names. 
They are only intended as comments. 
;
_shelx_estimated_absorpt_t_min   0.979
_shelx_estimated_absorpt_t_max   0.991
_shelx_res_file
; 
  
    143.res created by SHELXL-2014/7 
  
TITL 143 in P-1 
CELL 0.71073   8.98040   9.27640  10.12230  75.6526  85.6189  69.2243 
ZERR   2.00   0.00040   0.00040   0.00040   0.0020   0.0019   0.0018 
LATT 1 
SFAC C  H  O 
UNIT 38  36  6 
OMIT -3 50 
L.S. 8 
ACTA 
BOND $H 
FMAP 2 
PLAN 5 
SIZE 0.10 0.22 0.25 
CONF 
TEMP 23.000 
WGHT    0.055600    0.165400 
EXTI    0.055401 
FVAR       0.33363 
MOLE 1 
C1    1    0.309353    0.335678    0.323678    11.00000    0.03606    0.03434 = 
         0.03213   -0.01131    0.00477   -0.01441 
C2    1    0.467893    0.266655    0.342423    11.00000    0.03625    0.02889 = 
         0.02945   -0.00775    0.00155   -0.01338 
C3    1    0.538601    0.267869    0.467681    11.00000    0.03750    0.02624 = 
         0.02958   -0.00609    0.00088   -0.01297 
C4    1    0.703441    0.209560    0.491592    11.00000    0.03679    0.03497 = 
         0.03629   -0.00976   -0.00032   -0.00875 
AFIX  43 
H4    2    0.771404    0.162600    0.428144    11.00000   -1.20000 
AFIX   0 
C5    1    0.767544    0.220247    0.607594    11.00000    0.04413    0.03576 = 
         0.03970   -0.00377   -0.00848   -0.01379 
C6    1    0.664695    0.288364    0.703582    11.00000    0.05667    0.04260 = 
         0.03351   -0.00800   -0.01011   -0.01901 
AFIX  43 
H6    2    0.706460    0.296873    0.781434    11.00000   -1.20000 
AFIX   0 
C7    1    0.503062    0.342767    0.684379    11.00000    0.05248    0.03880 = 
         0.03042   -0.01107    0.00324   -0.01762 
AFIX  43 
H7    2    0.435821    0.385602    0.750128    11.00000   -1.20000 
AFIX   0 
C8    1    0.438822    0.334184    0.566493    11.00000    0.04051    0.02900 = 
         0.02930   -0.00650    0.00273   -0.01382 
C9    1    0.267611    0.394165    0.547486    11.00000    0.04097    0.03973 = 
         0.03252   -0.01225    0.00530   -0.01464 
C10   1    0.200159    0.366966    0.202176    11.00000    0.03644    0.04429 = 
         0.03869   -0.01338   -0.00290   -0.01284 
C11   1    0.111246    0.250340    0.233532    11.00000    0.06696    0.07331 = 
         0.07097   -0.02024   -0.01012   -0.03988 
AFIX 137 
H11A  2    0.052332    0.260082    0.316042    11.00000   -1.50000 
H11B  2    0.186149    0.144179    0.244679    11.00000   -1.50000 
H11C  2    0.039130    0.273137    0.159670    11.00000   -1.50000 
AFIX   0 
C12   1    0.283932    0.364562    0.066270    11.00000    0.05010    0.07080 = 
         0.03419   -0.01649   -0.00604   -0.00755 
AFIX 137 
H12A  2    0.206074    0.403691   -0.005951    11.00000   -1.50000 
H12B  2    0.350804    0.257793    0.065793    11.00000   -1.50000 
H12C  2    0.347899    0.430683    0.053017    11.00000   -1.50000 
AFIX   0 
C13   1    0.576131    0.185325    0.243290    11.00000    0.03362    0.03433 = 
         0.02875   -0.00906   -0.00268   -0.00941 
C14   1    0.583181    0.036175    0.235427    11.00000    0.05476    0.03732 = 
         0.04236   -0.01235    0.00539   -0.01622 
AFIX  43 
H14   2    0.520053   -0.013086    0.292269    11.00000   -1.20000 
AFIX   0 
C15   1    0.682915   -0.040295    0.144111    11.00000    0.07180    0.04255 = 
         0.05451   -0.02436    0.00431   -0.01393 
AFIX  43 
H15   2    0.686252   -0.140342    0.139687    11.00000   -1.20000 
AFIX   0 
C16   1    0.777263    0.030832    0.059744    11.00000    0.04980    0.06620 = 
         0.04346   -0.02863    0.00487   -0.00619 
AFIX  43 
H16   2    0.842622   -0.019976   -0.002982    11.00000   -1.20000 
AFIX   0 
C17   1    0.774752    0.177483    0.068341    11.00000    0.03937    0.06883 = 
         0.03421   -0.01582    0.00489   -0.01919 
AFIX  43 
H17   2    0.839492    0.225327    0.012274    11.00000   -1.20000 
AFIX   0 
C18   1    0.675860    0.253456    0.160430    11.00000    0.04147    0.04503 = 
         0.03593   -0.01270    0.00239   -0.01868 
AFIX  43 
H18   2    0.676082    0.351610    0.167021    11.00000   -1.20000 
AFIX   0 
C19   1    0.944981    0.163467    0.628830    11.00000    0.04725    0.06570 = 
         0.05994   -0.01602   -0.01604   -0.01271 
AFIX 137 
H19A  2    0.996595    0.089671    0.573557    11.00000   -1.50000 
H19B  2    0.970677    0.112105    0.723127    11.00000   -1.50000 
H19C  2    0.980890    0.252396    0.603356    11.00000   -1.50000 
AFIX   0 
O1    3    0.212417    0.394304    0.425723    11.00000    0.03242    0.05403 = 
         0.03656   -0.01816    0.00398   -0.01268 
O2    3    0.170344    0.444048    0.629340    11.00000    0.04451    0.08136 = 
         0.04572   -0.03074    0.01330   -0.01505 
O3    3    0.089586    0.526115    0.183295    11.00000    0.04128    0.05269 = 
         0.04329   -0.01099   -0.00194   -0.00589 
H1O   2    0.026484    0.531679    0.254079    11.00000    0.07643 
HKLF 4 
  
REM  143 in P-1 
REM R1 =  0.0367 for    2247 Fo > 4sig(Fo)  and  0.0441 for all    2682 data 
REM    207 parameters refined using      0 restraints 
  
END 
  
WGHT      0.0555      0.1649 
  
REM Highest difference peak  0.227,  deepest hole -0.137,  1-sigma level  0.036 
Q1    1   0.9798  0.0303  0.6737  11.00000  0.05    0.23 
Q2    1   0.9664  0.2175  0.7048  11.00000  0.05    0.22 
Q3    1   1.0173  0.1550  0.5351  11.00000  0.05    0.20 
Q4    1   0.3998  0.3430  0.3137  11.00000  0.05    0.19 
Q5    1   0.4860  0.3398  0.5052  11.00000  0.05    0.19 
;
_shelx_res_checksum              88249
_shelx_hkl_file
; 
  -1   0   0   76.64    1.48 
  -2   0   0  163.09    3.16 
  -3   0   0   19.03    0.41 
  -3   0   0   18.78    0.41 
  -4   0   0   59.95    1.21 
  -4   0   0   60.48    1.22 
  -5   0   0    4.34    0.15 
  -5   0   0    4.45    0.15 
  -6   0   0    1.02    0.08 
  -6   0   0    0.89    0.08 
  -6   0   0    1.00    0.06 
  -7   0   0    1.26    0.10 
  -7   0   0    1.23    0.08 
  -7   0   0    1.29    0.10 
  -8   0   0   14.25    0.56 
  -8   0   0   13.63    0.39 
  -8   0   0   14.12    0.37 
  -8   0   0   13.41    0.40 
  -8   0   0   13.47    0.40 
  -9   0   0    3.82    0.17 
  -9   0   0    4.10    0.31 
 -10   0   0    1.19    0.22 
 -10   0   0    1.36    0.12 
 -10   1   0    3.08    0.34 
 -10   1   0    3.10    0.19 
  -9   1   0    0.10    0.05 
  -9   1   0    0.01    0.09 
  -8   1   0    0.66    0.09 
  -8   1   0    0.88    0.17 
  -7   1   0    0.47    0.13 
  -7   1   0    0.67    0.08 
  -7   1   0    0.68    0.09 
  -7   1   0    0.61    0.09 
  -7   1   0    0.54    0.08 
  -6   1   0    6.09    0.23 
  -6   1   0    5.99    0.23 
  -6   1   0    5.90    0.20 
  -6   1   0    6.09    0.30 
  -5   1   0    0.86    0.08 
  -5   1   0    0.95    0.13 
  -5   1   0    0.94    0.09 
  -5   1   0    0.89    0.07 
   4  -1   0   11.78    0.28 
  -4   1   0   11.66    0.38 
  -4   1   0   11.18    0.31 
  -4   1   0   11.42    0.28 
  -4   1   0   11.73    0.32 
   3  -1   0   19.78    0.44 
   3  -1   0   19.92    0.44 
  -3   1   0   20.11    0.46 
  -3   1   0   19.48    0.51 
  -3   1   0   19.94    0.43 
  -3   1   0   19.27    0.46 
   2  -1   0   81.79    1.63 
   2  -1   0   82.09    1.60 
   2  -1   0   82.76    1.63 
  -2   1   0   82.50    1.64 
  -2   1   0   83.15    1.65 
  -2   1   0   82.69    1.68 
  -2   1   0   81.82    1.62 
   1  -1   0   25.52    0.55 
   1  -1   0   25.58    0.52 
  -1   1   0   25.43    0.55 
  -1   1   0   25.86    0.54 
  -1   1   0   25.54    0.55 
  -1   1   0   25.24    0.53 
   0  -1   0   75.97    1.54 
   0  -1   0   81.29    1.53 
   0   1   0   77.17    1.54 
  -1  -1   0    6.26    0.17 
  -1  -1   0    6.18    0.17 
  -1  -1   0    7.68    0.16 
  -1  -1   0    7.58    0.16 
   1   1   0    7.62    0.17 
   1   1   0    7.84    0.17 
  -2  -1   0    8.17    0.32 
   2   1   0    7.63    0.31 
  -3  -1   0   51.87    1.30 
  -4  -1   0   13.42    0.30 
  -5  -1   0   15.32    0.35 
  -6  -1   0    0.04    0.02 
  -7  -1   0    0.80    0.07 
  -7  -1   0    0.81    0.07 
  -8  -1   0   -0.01    0.04 
  -8  -1   0    0.01    0.03 
  -8  -1   0    0.02    0.03 
  -9  -1   0    0.85    0.08 
  -9  -1   0    0.66    0.09 
  -9  -1   0    0.57    0.08 
  -9  -1   0    0.75    0.09 
 -10  -1   0    0.66    0.18 
 -10  -1   0    0.36    0.07 
 -11  -1   0    5.74    0.23 
 -11  -1   0    6.46    0.42 
  -9   2   0    0.03    0.06 
  -9   2   0    0.16    0.12 
  -8   2   0   -0.12    0.09 
  -8   2   0    0.05    0.04 
  -7   2   0    1.39    0.18 
  -7   2   0    1.45    0.12 
  -7   2   0    1.47    0.17 
  -7   2   0    1.11    0.17 
  -7   2   0    1.18    0.14 
   6  -2   0    5.33    0.17 
  -6   2   0    5.42    0.29 
  -6   2   0    5.45    0.24 
  -6   2   0    5.55    0.25 
  -6   2   0    5.51    0.21 
  -6   2   0    5.29    0.24 
   5  -2   0    3.45    0.14 
  -5   2   0    3.58    0.18 
  -5   2   0    3.79    0.22 
  -5   2   0    3.47    0.15 
  -5   2   0    3.36    0.18 
   4  -2   0    2.96    0.14 
   4  -2   0    2.97    0.13 
  -4   2   0    2.97    0.13 
  -4   2   0    3.18    0.16 
  -4   2   0    3.10    0.18 
  -4   2   0    3.10    0.16 
   3  -2   0    8.06    0.20 
   3  -2   0    7.67    0.24 
   3  -2   0    7.91    0.25 
  -3   2   0    8.25    0.24 
  -3   2   0    8.57    0.29 
  -3   2   0    8.17    0.27 
  -3   2   0    7.86    0.26 
   2  -2   0    9.42    0.24 
   2  -2   0    8.68    0.26 
   2  -2   0    9.50    0.29 
  -2   2   0    8.76    0.25 
  -2   2   0    9.22    0.28 
  -2   2   0    9.24    0.28 
  -2   2   0    9.42    0.28 
   1  -2   0   97.78    1.98 
   1  -2   0   97.31    1.98 
   1  -2   0  100.58    1.94 
   1  -2   0  100.62    1.97 
  -1   2   0  100.88    1.99 
  -1   2   0   96.39    1.96 
  -1   2   0   96.04    1.98 
  -1   2   0   98.25    1.95 
   0  -2   0  188.01    3.63 
   0  -2   0  182.62    3.59 
   0  -2   0  187.31    3.59 
   0  -2   0  181.56    3.63 
   0   2   0  193.68    3.64 
   0   2   0  182.86    3.60 
   0   2   0  178.25    3.59 
   0   2   0  187.15    3.63 
   0   2   0  186.54    3.62 
  -1  -2   0  847.79   18.24 
  -1  -2   0  913.33   18.17 
  -1  -2   0  952.45   18.38 
  -1  -2   0 1000.00   18.43 
  -1  -2   0  975.92   18.43 
   1   2   0  964.91   18.41 
   1   2   0  962.01   18.49 
   1   2   0  934.96   18.22 
   1   2   0  926.93   18.26 
  -2  -2   0    2.09    0.10 
  -2  -2   0    2.09    0.08 
  -2  -2   0    1.97    0.10 
  -2  -2   0    2.05    0.08 
   2   2   0    2.19    0.09 
   2   2   0    2.11    0.06 
   2   2   0    2.09    0.06 
   2   2   0    2.11    0.09 
  -3  -2   0  101.43    2.01 
  -3  -2   0  101.87    2.01 
  -4  -2   0  147.16    2.87 
  -5  -2   0  135.19    3.11 
  -6  -2   0    0.16    0.03 
  -7  -2   0    0.01    0.03 
  -8  -2   0    1.61    0.09 
  -9  -2   0   10.87    0.32 
  -9  -2   0   10.85    0.31 
  -9  -2   0   11.13    0.28 
 -10  -2   0    1.81    0.13 
 -11  -2   0    1.39    0.13 
 -11  -2   0    1.50    0.26 
 -11  -2   0    1.28    0.12 
  -9   3   0    0.11    0.12 
  -9   3   0    0.06    0.07 
  -8   3   0   -0.03    0.05 
  -8   3   0    0.08    0.10 
  -7   3   0    4.49    0.23 
  -7   3   0    4.73    0.31 
   6  -3   0    5.46    0.21 
  -6   3   0    5.06    0.29 
  -6   3   0    5.65    0.28 
  -6   3   0    5.57    0.28 
  -6   3   0    5.19    0.26 
  -6   3   0    5.10    0.23 
   5  -3   0    1.00    0.10 
   5  -3   0    1.09    0.11 
  -5   3   0    1.03    0.13 
  -5   3   0    1.01    0.12 
  -5   3   0    1.16    0.12 
  -5   3   0    1.24    0.16 
  -5   3   0    1.06    0.13 
   4  -3   0    4.52    0.20 
   4  -3   0    4.45    0.20 
  -4   3   0    4.29    0.22 
  -4   3   0    4.88    0.23 
  -4   3   0    4.47    0.19 
  -4   3   0    4.46    0.23 
  -4   3   0    4.43    0.22 
   3  -3   0   61.11    1.32 
  -3   3   0   60.48    1.36 
  -3   3   0   60.55    1.30 
  -3   3   0   62.03    1.36 
  -3   3   0   61.14    1.35 
  -3   3   0   61.83    1.35 
   2  -3   0   30.33    0.67 
   2  -3   0   30.93    0.80 
   2  -3   0   30.40    0.72 
   2  -3   0   29.87    0.72 
  -2   3   0   28.71    0.70 
  -2   3   0   30.18    0.74 
  -2   3   0   30.34    0.74 
  -2   3   0   29.30    0.72 
  -2   3   0   30.45    0.69 
   1  -3   0    6.26    0.23 
   1  -3   0    6.60    0.20 
   1  -3   0    6.57    0.23 
   1  -3   0    6.50    0.22 
  -1   3   0    6.15    0.23 
  -1   3   0    6.35    0.24 
  -1   3   0    6.38    0.21 
  -1   3   0    6.51    0.25 
  -1   3   0    6.34    0.21 
   0  -3   0   57.73    1.18 
   0  -3   0   56.40    1.18 
   0  -3   0   56.58    1.23 
   0   3   0   56.76    1.21 
   0   3   0   57.08    1.18 
   0   3   0   57.51    1.19 
   0   3   0   58.51    1.24 
   0   3   0   56.04    1.24 
  -1  -3   0  844.85   16.04 
  -1  -3   0  827.70   16.07 
  -1  -3   0  861.84   16.06 
  -1  -3   0  832.50   15.91 
   1   3   0  758.82   16.21 
   1   3   0  825.72   16.12 
   1   3   0  815.39   15.90 
   1   3   0  853.98   16.04 
   1   3   0  827.47   16.09 
  -2  -3   0    6.77    0.20 
  -2  -3   0    6.55    0.21 
  -2  -3   0    6.80    0.21 
  -2  -3   0    7.01    0.24 
  -2  -3   0    6.59    0.24 
   2   3   0    6.72    0.23 
   2   3   0    6.73    0.19 
   2   3   0    6.78    0.23 
   2   3   0    6.49    0.19 
  -3  -3   0  150.24    2.96 
  -3  -3   0  149.07    2.97 
  -3  -3   0  156.63    3.03 
  -3  -3   0  151.89    3.01 
   3   3   0  151.72    2.98 
   3   3   0  149.55    2.99 
  -4  -3   0   29.04    0.66 
  -4  -3   0   29.25    0.60 
  -4  -3   0   28.54    0.66 
  -4  -3   0   28.22    0.61 
  -5  -3   0    1.25    0.05 
  -5  -3   0    1.24    0.09 
  -5  -3   0    1.22    0.10 
  -5  -3   0    1.24    0.05 
  -6  -3   0    8.55    0.26 
  -6  -3   0    8.63    0.26 
  -7  -3   0    7.23    0.24 
  -7  -3   0    7.40    0.24 
  -7  -3   0    7.28    0.24 
  -8  -3   0    0.48    0.06 
  -8  -3   0    0.55    0.07 
  -8  -3   0    0.61    0.08 
  -9  -3   0    2.23    0.14 
  -9  -3   0    2.64    0.15 
  -9  -3   0    2.55    0.10 
  -9  -3   0    2.68    0.13 
 -10  -3   0    0.11    0.05 
 -10  -3   0    0.05    0.05 
 -11  -3   0    0.06    0.05 
 -11  -3   0   -0.01    0.06 
  -8   4   0    0.10    0.10 
  -8   4   0    0.02    0.07 
  -7   4   0   -0.06    0.08 
  -7   4   0    0.07    0.07 
  -6   4   0    1.07    0.17 
  -6   4   0    0.99    0.12 
   5  -4   0    0.11    0.05 
   5  -4   0    0.21    0.07 
  -5   4   0    0.04    0.06 
  -5   4   0    0.11    0.09 
  -5   4   0    0.05    0.07 
  -5   4   0    0.08    0.07 
  -5   4   0    0.05    0.06 
   4  -4   0    0.01    0.04 
   4  -4   0    0.01    0.04 
  -4   4   0    0.01    0.06 
  -4   4   0    0.07    0.06 
  -4   4   0    0.02    0.05 
  -4   4   0    0.03    0.05 
  -4   4   0   -0.06    0.04 
   3  -4   0    4.44    0.22 
   3  -4   0    4.53    0.22 
  -3   4   0    4.62    0.25 
  -3   4   0    4.47    0.23 
  -3   4   0    4.53    0.22 
  -3   4   0    4.41    0.21 
  -3   4   0    4.69    0.25 
   2  -4   0    5.02    0.23 
   2  -4   0    4.88    0.23 
  -2   4   0    4.96    0.23 
  -2   4   0    4.71    0.25 
  -2   4   0    4.95    0.22 
  -2   4   0    5.02    0.25 
  -2   4   0    5.56    0.22 
   1  -4   0    2.17    0.15 
   1  -4   0    2.24    0.15 
   1  -4   0    2.37    0.13 
  -1   4   0    2.45    0.16 
  -1   4   0    2.41    0.17 
  -1   4   0    2.02    0.16 
  -1   4   0    2.17    0.13 
  -1   4   0    2.33    0.13 
   0  -4   0   16.77    0.44 
   0  -4   0   17.61    0.50 
   0  -4   0   17.50    0.45 
   0   4   0   17.09    0.45 
   0   4   0   17.96    0.45 
   0   4   0   17.45    0.51 
   0   4   0   18.01    0.48 
   0   4   0   17.39    0.50 
  -1  -4   0   16.63    0.48 
  -1  -4   0   16.56    0.42 
  -1  -4   0   16.85    0.48 
  -1  -4   0   17.07    0.43 
   1   4   0   16.86    0.43 
   1   4   0   16.96    0.49 
   1   4   0   16.85    0.44 
   1   4   0   16.19    0.48 
   1   4   0   16.41    0.45 
  -2  -4   0   50.37    1.07 
  -2  -4   0   51.12    1.13 
  -2  -4   0   47.24    1.12 
  -2  -4   0   50.36    1.06 
   2   4   0   49.28    1.06 
   2   4   0   48.81    1.13 
   2   4   0   50.36    1.07 
   2   4   0   50.16    1.10 
   2   4   0   51.41    1.13 
  -3  -4   0    0.96    0.09 
  -3  -4   0    1.09    0.11 
  -3  -4   0    0.68    0.08 
  -3  -4   0    1.02    0.10 
  -3  -4   0    1.10    0.12 
   3   4   0    1.13    0.10 
   3   4   0    0.99    0.06 
   3   4   0    0.85    0.07 
   3   4   0    0.97    0.10 
  -4  -4   0   83.59    1.69 
  -4  -4   0   84.63    1.76 
  -4  -4   0   81.09    1.70 
  -4  -4   0   82.92    1.75 
  -4  -4   0   81.39    1.75 
   4   4   0   83.39    1.69 
   4   4   0   82.57    1.71 
  -5  -4   0   79.58    1.61 
  -5  -4   0   79.36    1.68 
  -5  -4   0   78.45    1.62 
  -5  -4   0   80.05    1.68 
  -6  -4   0    6.96    0.20 
  -6  -4   0    6.83    0.21 
  -6  -4   0    6.78    0.26 
  -6  -4   0    6.69    0.26 
  -7  -4   0    0.11    0.05 
  -7  -4   0    0.16    0.04 
  -7  -4   0    0.25    0.04 
  -7  -4   0    0.26    0.06 
  -8  -4   0    0.17    0.03 
  -8  -4   0    0.13    0.05 
  -8  -4   0    0.12    0.05 
  -8  -4   0    0.16    0.06 
  -9  -4   0   10.38    0.35 
  -9  -4   0   10.37    0.27 
  -9  -4   0   10.19    0.32 
  -9  -4   0   10.11    0.33 
 -10  -4   0    2.41    0.17 
 -10  -4   0    2.88    0.16 
 -11  -4   0    0.05    0.06 
 -11  -4   0    0.08    0.05 
  -8   5   0    0.32    0.15 
  -8   5   0    0.20    0.10 
  -7   5   0   -0.02    0.06 
  -7   5   0    0.01    0.10 
  -6   5   0    0.93    0.18 
  -6   5   0    0.88    0.14 
  -5   5   0    1.27    0.18 
  -5   5   0    1.35    0.15 
   4  -5   0    3.62    0.22 
   4  -5   0    5.14    0.26 
  -4   5   0    5.08    0.30 
  -4   5   0    5.33    0.30 
  -4   5   0    4.75    0.24 
  -4   5   0    5.06    0.27 
  -4   5   0    4.94    0.28 
   3  -5   0    0.19    0.07 
   3  -5   0    0.08    0.06 
  -3   5   0    0.18    0.07 
  -3   5   0    0.18    0.07 
  -3   5   0    0.06    0.07 
  -3   5   0    0.13    0.07 
  -3   5   0    0.02    0.06 
   2  -5   0   11.22    0.41 
   2  -5   0   10.59    0.40 
  -2   5   0   11.45    0.41 
  -2   5   0   11.51    0.38 
  -2   5   0   11.99    0.44 
  -2   5   0   11.01    0.38 
  -2   5   0   11.70    0.44 
   1  -5   0   10.97    0.40 
   1  -5   0   10.84    0.39 
  -1   5   0   10.05    0.40 
  -1   5   0   11.36    0.35 
  -1   5   0   10.93    0.38 
  -1   5   0   11.33    0.37 
  -1   5   0   10.48    0.41 
   0  -5   0   30.00    0.73 
   0  -5   0   31.23    0.81 
   0  -5   0   30.09    0.79 
   0   5   0   29.60    0.81 
   0   5   0   29.62    0.77 
   0   5   0   31.90    0.74 
   0   5   0   29.97    0.81 
   0   5   0   30.79    0.75 
  -1  -5   0   31.54    0.75 
  -1  -5   0   31.61    0.82 
   1   5   0   30.50    0.82 
   1   5   0   31.01    0.83 
   1   5   0   32.41    0.76 
   1   5   0   31.06    0.76 
   1   5   0   30.94    0.77 
  -2  -5   0  169.43    3.37 
  -2  -5   0  167.06    3.44 
  -2  -5   0  165.85    3.45 
   2   5   0  172.80    3.47 
   2   5   0  167.26    3.40 
   2   5   0  169.92    3.37 
  -3  -5   0   15.24    0.43 
  -3  -5   0   15.62    0.48 
  -3  -5   0   15.18    0.49 
   3   5   0   15.22    0.41 
   3   5   0   15.68    0.48 
  -4  -5   0   18.48    0.54 
  -4  -5   0   18.25    0.48 
  -4  -5   0   17.17    0.53 
   4   5   0   18.17    0.41 
   4   5   0   18.60    0.51 
   4   5   0   18.29    0.41 
  -5  -5   0   47.45    1.12 
  -5  -5   0   48.63    1.05 
  -5  -5   0   46.70    1.08 
  -5  -5   0   47.07    1.12 
   5   5   0   48.96    1.03 
  -6  -5   0   16.72    0.52 
  -6  -5   0   17.42    0.45 
  -6  -5   0   17.30    0.51 
  -7  -5   0    0.24    0.05 
  -7  -5   0    0.11    0.07 
  -7  -5   0    0.20    0.07 
  -8  -5   0    0.50    0.10 
  -8  -5   0    0.56    0.08 
  -8  -5   0    0.51    0.09 
  -9  -5   0    3.85    0.25 
  -9  -5   0    4.08    0.19 
  -9  -5   0    4.03    0.22 
  -9  -5   0    4.11    0.23 
 -10  -5   0    3.09    0.21 
 -10  -5   0    3.43    0.20 
 -11  -5   0    0.51    0.10 
 -11  -5   0    0.60    0.11 
  -7   6   0    0.42    0.15 
  -7   6   0    0.27    0.11 
  -6   6   0    0.92    0.17 
  -6   6   0    1.08    0.16 
  -5   6   0    0.05    0.08 
  -5   6   0    0.07    0.10 
   4  -6   0    4.32    0.30 
   4  -6   0    3.72    0.25 
  -4   6   0    4.34    0.27 
  -4   6   0    3.68    0.24 
   3  -6   0    0.14    0.06 
   3  -6   0    0.07    0.07 
  -3   6   0    0.05    0.07 
  -3   6   0   -0.01    0.05 
  -3   6   0    0.10    0.08 
  -3   6   0    0.03    0.11 
   2  -6   0    2.95    0.22 
   2  -6   0    3.57    0.23 
  -2   6   0    3.61    0.22 
  -2   6   0    3.16    0.24 
  -2   6   0    3.05    0.20 
   1  -6   0    0.27    0.09 
   1  -6   0    0.28    0.10 
  -1   6   0    0.25    0.08 
  -1   6   0    0.45    0.10 
  -1   6   0    0.44    0.09 
   0  -6   0    0.81    0.13 
   0  -6   0    1.45    0.17 
   0   6   0    1.53    0.19 
   0   6   0    1.18    0.13 
   0   6   0    1.44    0.13 
  -1  -6   0    3.75    0.24 
  -1  -6   0    3.75    0.25 
   1   6   0    3.92    0.20 
   1   6   0    3.85    0.24 
   1   6   0    3.74    0.21 
  -2  -6   0    2.13    0.16 
  -2  -6   0    1.55    0.17 
  -2  -6   0    1.59    0.18 
   2   6   0    2.00    0.16 
   2   6   0    1.89    0.15 
  -3  -6   0    2.81    0.21 
  -3  -6   0    2.45    0.17 
  -3  -6   0    3.05    0.22 
   3   6   0    2.59    0.19 
   3   6   0    2.88    0.16 
  -4  -6   0   11.76    0.44 
  -4  -6   0   11.36    0.37 
  -4  -6   0   11.64    0.43 
   4   6   0   11.42    0.32 
  -5  -6   0    1.45    0.17 
  -5  -6   0    1.49    0.13 
  -5  -6   0    1.07    0.14 
  -6  -6   0    2.28    0.16 
  -6  -6   0    2.40    0.19 
  -6  -6   0    2.20    0.19 
  -7  -6   0    0.28    0.07 
  -7  -6   0    0.22    0.09 
  -7  -6   0    0.23    0.09 
  -8  -6   0    0.18    0.09 
  -8  -6   0    0.16    0.08 
  -8  -6   0    0.01    0.06 
  -9  -6   0    0.20    0.09 
  -9  -6   0    0.07    0.08 
 -10  -6   0    1.39    0.17 
 -10  -6   0    1.43    0.16 
 -11  -6   0    1.76    0.17 
 -11  -6   0    2.19    0.20 
  -6   7   0    0.23    0.12 
  -6   7   0    0.19    0.12 
  -5   7   0    1.27    0.18 
  -5   7   0    1.74    0.22 
  -4   7   0    0.10    0.08 
  -4   7   0   -0.01    0.10 
   3  -7   0    0.42    0.11 
   3  -7   0    0.48    0.12 
  -3   7   0    0.58    0.13 
  -3   7   0    0.47    0.12 
   2  -7   0    0.03    0.08 
   2  -7   0   -0.07    0.06 
  -2   7   0    0.02    0.07 
  -2   7   0   -0.05    0.05 
   1  -7   0    3.63    0.27 
   1  -7   0    4.34    0.28 
  -1   7   0    3.80    0.23 
  -1   7   0    3.81    0.24 
   0  -7   0    2.50    0.23 
   0  -7   0    2.81    0.24 
   0   7   0    2.67    0.20 
   0   7   0    2.69    0.19 
  -1  -7   0    7.90    0.39 
  -1  -7   0    7.91    0.38 
   1   7   0    7.24    0.32 
   1   7   0    7.65    0.33 
  -2  -7   0   22.75    0.71 
  -2  -7   0   21.89    0.70 
   2   7   0   21.21    0.64 
   2   7   0   21.38    0.62 
  -3  -7   0    0.07    0.07 
  -3  -7   0    0.04    0.10 
  -3  -7   0    0.08    0.09 
   3   7   0    0.04    0.06 
   3   7   0   -0.02    0.07 
  -4  -7   0   11.19    0.39 
  -4  -7   0   10.59    0.45 
  -4  -7   0   11.45    0.46 
  -5  -7   0   16.18    0.57 
  -5  -7   0   15.57    0.55 
  -5  -7   0   15.76    0.49 
   5   7   0   16.15    0.39 
  -6  -7   0   11.22    0.39 
  -6  -7   0   10.38    0.44 
  -6  -7   0   11.04    0.46 
  -7  -7   0   14.38    0.54 
  -7  -7   0   14.77    0.53 
  -8  -7   0    0.28    0.10 
  -8  -7   0    0.22    0.09 
  -9  -7   0    0.26    0.10 
  -9  -7   0   -0.01    0.08 
 -10  -7   0    2.52    0.21 
 -10  -7   0    2.34    0.23 
 -11  -7   0    1.46    0.19 
 -11  -7   0    1.57    0.17 
  -5   8   0    0.19    0.14 
  -5   8   0    0.09    0.11 
  -4   8   0    2.34    0.25 
  -4   8   0    2.46    0.26 
  -3   8   0    3.94    0.29 
  -3   8   0    3.78    0.27 
   2  -8   0    1.03    0.19 
   2  -8   0    1.01    0.19 
  -2   8   0    1.02    0.16 
  -2   8   0    1.03    0.17 
   1  -8   0    0.27    0.12 
   1  -8   0    0.26    0.12 
  -1   8   0    0.32    0.10 
  -1   8   0    0.36    0.10 
   0  -8   0    0.38    0.13 
   0  -8   0    0.21    0.11 
   0   8   0    0.31    0.09 
   0   8   0    0.47    0.11 
  -1  -8   0   -0.03    0.10 
  -1  -8   0    0.13    0.09 
   1   8   0   -0.05    0.06 
   1   8   0    0.19    0.10 
  -2  -8   0    4.08    0.32 
  -2  -8   0    4.81    0.32 
   2   8   0    4.85    0.28 
   2   8   0    4.31    0.26 
  -3  -8   0    0.95    0.19 
  -3  -8   0    0.58    0.15 
   3   8   0    1.06    0.17 
   3   8   0    0.92    0.13 
  -4  -8   0   -0.02    0.07 
  -4  -8   0   -0.08    0.11 
  -4  -8   0   -0.12    0.10 
   4   8   0   -0.03    0.06 
  -5  -8   0    2.20    0.24 
  -5  -8   0    2.58    0.27 
  -6  -8   0   -0.03    0.08 
  -6  -8   0    0.08    0.10 
  -7  -8   0   -0.08    0.08 
  -7  -8   0   -0.03    0.09 
  -8  -8   0    1.51    0.21 
  -8  -8   0    1.42    0.19 
  -9  -8   0    0.01    0.09 
  -9  -8   0   -0.06    0.07 
 -10  -8   0    1.87    0.23 
 -10  -8   0    1.48    0.19 
  -3   9   0    0.12    0.10 
  -3   9   0    0.40    0.12 
  -2   9   0    0.63    0.14 
  -2   9   0    0.84    0.17 
   1  -9   0    0.34    0.14 
   1  -9   0    0.87    0.18 
  -1   9   0    0.55    0.13 
  -1   9   0    0.61    0.14 
   0  -9   0    1.41    0.23 
   0  -9   0    1.32    0.23 
   0   9   0    1.16    0.17 
   0   9   0    1.30    0.19 
  -1  -9   0    0.39    0.14 
  -1  -9   0    0.26    0.13 
   1   9   0    0.25    0.10 
   1   9   0    0.23    0.11 
  -2  -9   0    0.11    0.12 
  -2  -9   0   -0.13    0.10 
   2   9   0   -0.05    0.08 
   2   9   0    0.09    0.08 
  -3  -9   0    0.33    0.15 
  -3  -9   0    0.48    0.16 
   3   9   0    0.43    0.12 
   3   9   0    0.42    0.11 
  -4  -9   0    0.08    0.12 
  -4  -9   0   -0.02    0.11 
  -5  -9   0    0.09    0.12 
  -5  -9   0    0.25    0.13 
  -6  -9   0    1.32    0.21 
  -6  -9   0    1.21    0.20 
  -7  -9   0    0.32    0.14 
  -7  -9   0    0.27    0.13 
  -8  -9   0   -0.02    0.11 
  -8  -9   0   -0.04    0.11 
  -9  -9   0    0.11    0.11 
  -9  -9   0   -0.02    0.10 
 -10  -9   0    0.14    0.12 
  -2  10   0    2.23    0.28 
  -1  10   0    0.52    0.14 
  -1  10   0    0.47    0.15 
   0 -10   0    1.08    0.22 
   0 -10   0    1.47    0.24 
   0  10   0    1.22    0.20 
   0  10   0    1.36    0.20 
  -1 -10   0    0.65    0.19 
  -1 -10   0    0.48    0.17 
   1  10   0    0.64    0.16 
   1  10   0    0.55    0.13 
  -2 -10   0    0.82    0.21 
  -2 -10   0    0.14    0.12 
   2  10   0    0.48    0.15 
  -3 -10   0    0.94    0.20 
  -3 -10   0    0.86    0.19 
   3  10   0    1.03    0.19 
  -4 -10   0    0.13    0.15 
  -4 -10   0    0.25    0.16 
  -5 -10   0    1.47    0.24 
  -5 -10   0    2.16    0.29 
  -6 -10   0    0.01    0.12 
  -6 -10   0    0.13    0.13 
  -7 -10   0    0.48    0.17 
  -7 -10   0    0.57    0.18 
  -8 -10   0    0.45    0.16 
  -8 -10   0    0.26    0.14 
  -9 -10   0   -0.12    0.11 
  -1 -11   0   -0.19    0.14 
  -1 -11   0    0.37    0.19 
   1  11   0    0.18    0.13 
  -2 -11   0    0.25    0.20 
  -2 -11   0    0.07    0.15 
   2  11   0    0.42    0.14 
  -3 -11   0    0.13    0.15 
  -3 -11   0    0.15    0.17 
   3  11   0    0.05    0.10 
  -4 -11   0   -0.04    0.14 
  -4 -11   0   -0.02    0.13 
  -5 -11   0   -0.09    0.14 
  -5 -11   0   -0.09    0.13 
  -6 -11   0    0.30    0.16 
  -6 -11   0    0.24    0.16 
  -7 -11   0    0.14    0.10 
  -7 -11   0    0.41    0.18 
  -6 -11   1    0.18    0.13 
  -6 -11   1    0.39    0.17 
  -5 -11   1    3.28    0.35 
  -5 -11   1    3.66    0.40 
  -4 -11   1   -0.06    0.16 
  -4 -11   1    0.15    0.16 
   3  11  -1    0.27    0.12 
  -3 -11   1    0.13    0.15 
  -3 -11   1    0.14    0.15 
   2  11  -1    0.28    0.13 
  -2 -11   1   -0.04    0.16 
  -2 -11   1   -0.05    0.13 
  -8 -10   1   -0.04    0.11 
  -8 -10   1    0.02    0.09 
  -7 -10   1    2.44    0.30 
  -7 -10   1    2.22    0.28 
  -6 -10   1   -0.14    0.11 
  -6 -10   1   -0.11    0.11 
  -5 -10   1    0.86    0.20 
  -5 -10   1    0.58    0.18 
  -4 -10   1    2.17    0.28 
  -4 -10   1    2.76    0.32 
   3  10  -1    0.84    0.17 
  -3 -10   1    0.55    0.18 
  -3 -10   1    0.58    0.18 
   2  10  -1    0.41    0.13 
  -2 -10   1    0.33    0.17 
  -2 -10   1    0.55    0.18 
   1  10  -1    0.17    0.11 
  -1 -10   1    0.15    0.13 
  -1 -10   1    0.42    0.17 
   0  10  -1    1.26    0.21 
   0  10  -1    1.19    0.20 
   0 -10   1    0.97    0.23 
   0 -10   1    0.83    0.21 
  -1  10  -1    0.08    0.10 
  -1  10  -1    0.32    0.12 
  -9  -9   1    0.13    0.12 
  -9  -9   1    0.01    0.13 
  -8  -9   1    0.58    0.16 
  -8  -9   1    0.47    0.16 
  -7  -9   1    1.11    0.20 
  -7  -9   1    1.23    0.21 
  -6  -9   1   -0.03    0.10 
  -6  -9   1   -0.06    0.10 
  -5  -9   1    0.02    0.10 
  -5  -9   1    0.06    0.12 
  -4  -9   1    1.42    0.23 
  -4  -9   1    1.10    0.19 
   3   9  -1    0.58    0.14 
  -3  -9   1    0.50    0.17 
  -3  -9   1    0.31    0.13 
   2   9  -1    0.69    0.15 
   2   9  -1    0.72    0.14 
  -2  -9   1    0.66    0.16 
  -2  -9   1    0.73    0.20 
   1   9  -1   -0.01    0.07 
   1   9  -1   -0.07    0.06 
  -1  -9   1    0.12    0.13 
  -1  -9   1    0.07    0.11 
   0   9  -1    0.10    0.09 
   0   9  -1   -0.07    0.07 
   0  -9   1    0.04    0.11 
   0  -9   1   -0.03    0.10 
  -1   9  -1    0.45    0.12 
  -1   9  -1    0.39    0.12 
   1  -9   1    0.53    0.17 
   1  -9   1    0.41    0.15 
  -2   9  -1    0.22    0.10 
  -2   9  -1    0.54    0.14 
  -3   9  -1   -0.07    0.09 
  -3   9  -1    0.03    0.10 
 -10  -8   1    0.30    0.12 
 -10  -8   1    0.43    0.13 
  -9  -8   1    0.01    0.10 
  -9  -8   1    0.00    0.08 
  -8  -8   1    0.05    0.09 
  -8  -8   1    0.02    0.08 
  -7  -8   1    2.00    0.23 
  -7  -8   1    2.93    0.25 
  -6  -8   1    0.12    0.10 
  -6  -8   1   -0.03    0.08 
  -5  -8   1    4.55    0.32 
  -5  -8   1    4.62    0.32 
  -4  -8   1    8.73    0.44 
  -4  -8   1    8.43    0.43 
   3   8  -1   16.54    0.53 
   3   8  -1   16.38    0.57 
  -3  -8   1   15.53    0.61 
  -3  -8   1   17.21    0.64 
   2   8  -1    9.30    0.40 
   2   8  -1    9.05    0.39 
  -2  -8   1    9.96    0.46 
  -2  -8   1   10.12    0.47 
   1   8  -1    4.48    0.26 
   1   8  -1    4.13    0.26 
  -1  -8   1    4.11    0.32 
  -1  -8   1    3.66    0.29 
   0   8  -1    2.41    0.21 
   0   8  -1    2.22    0.19 
   0  -8   1    2.11    0.25 
   0  -8   1    1.77    0.22 
  -1   8  -1    6.01    0.31 
  -1   8  -1    6.18    0.34 
   1  -8   1    6.06    0.37 
   1  -8   1    5.32    0.36 
  -2   8  -1    0.15    0.08 
  -2   8  -1   -0.03    0.07 
   2  -8   1    0.04    0.10 
   2  -8   1    0.11    0.11 
  -3   8  -1    0.04    0.08 
  -3   8  -1    0.08    0.09 
  -4   8  -1    1.83    0.23 
  -4   8  -1    1.48    0.21 
 -10  -7   1    0.57    0.12 
 -10  -7   1    0.73    0.13 
  -9  -7   1    0.01    0.08 
  -9  -7   1    0.05    0.07 
  -8  -7   1   -0.01    0.07 
  -8  -7   1    0.07    0.08 
  -7  -7   1    6.56    0.33 
  -7  -7   1    7.38    0.36 
  -6  -7   1   10.12    0.42 
  -6  -7   1    9.96    0.43 
   5   7  -1   10.16    0.25 
  -5  -7   1   10.24    0.37 
  -5  -7   1   10.04    0.42 
  -5  -7   1    9.64    0.43 
   4   7  -1    0.78    0.10 
  -4  -7   1    0.85    0.15 
  -4  -7   1    0.54    0.13 
  -4  -7   1    0.68    0.11 
   3   7  -1   27.17    0.75 
   3   7  -1   26.27    0.70 
  -3  -7   1   25.98    0.80 
  -3  -7   1   26.59    0.79 
  -3  -7   1   26.91    0.72 
   2   7  -1   10.28    0.38 
   2   7  -1   10.20    0.39 
  -2  -7   1    9.95    0.44 
  -2  -7   1    9.80    0.44 
   1   7  -1    7.92    0.33 
   1   7  -1    7.17    0.32 
  -1  -7   1    8.23    0.40 
  -1  -7   1    7.69    0.38 
   0   7  -1    5.08    0.26 
   0   7  -1    5.33    0.28 
   0  -7   1    5.49    0.33 
   0  -7   1    5.43    0.32 
  -1   7  -1    0.04    0.06 
  -1   7  -1    0.11    0.07 
   1  -7   1    0.16    0.10 
   1  -7   1   -0.08    0.07 
  -2   7  -1    0.11    0.09 
  -2   7  -1    0.16    0.07 
   2  -7   1    0.14    0.10 
   2  -7   1    0.24    0.10 
  -3   7  -1    0.84    0.15 
  -3   7  -1    0.77    0.13 
   3  -7   1    0.86    0.15 
   3  -7   1    0.69    0.15 
  -4   7  -1    1.13    0.17 
  -4   7  -1    1.15    0.18 
  -5   7  -1    0.54    0.14 
  -5   7  -1    0.59    0.15 
 -11  -6   1    0.03    0.07 
 -11  -6   1    0.01    0.05 
 -10  -6   1    0.20    0.07 
 -10  -6   1    0.25    0.09 
  -9  -6   1    0.51    0.09 
  -9  -6   1    0.44    0.11 
  -8  -6   1    0.79    0.13 
  -8  -6   1    0.67    0.10 
  -8  -6   1    0.45    0.10 
  -7  -6   1    0.00    0.06 
  -7  -6   1    0.07    0.06 
  -7  -6   1    0.03    0.05 
  -7  -6   1   -0.09    0.04 
  -6  -6   1    0.33    0.09 
  -6  -6   1    0.34    0.08 
  -6  -6   1    0.40    0.10 
  -6  -6   1    0.24    0.07 
  -5  -6   1    6.76    0.29 
  -5  -6   1    7.02    0.27 
  -5  -6   1    7.01    0.32 
  -5  -6   1    6.78    0.32 
   4   6  -1    3.65    0.15 
  -4  -6   1    3.63    0.19 
  -4  -6   1    3.54    0.21 
  -4  -6   1    3.73    0.25 
   3   6  -1   13.92    0.45 
   3   6  -1   14.28    0.41 
  -3  -6   1   14.04    0.50 
  -3  -6   1   14.59    0.44 
  -3  -6   1   13.06    0.48 
  -3  -6   1   14.45    0.49 
   2   6  -1    9.83    0.35 
   2   6  -1   10.26    0.36 
  -2  -6   1   10.54    0.35 
  -2  -6   1    9.93    0.40 
  -2  -6   1    9.71    0.41 
   1   6  -1    1.29    0.14 
   1   6  -1    1.13    0.13 
  -1  -6   1    0.88    0.13 
  -1  -6   1    1.15    0.16 
   0   6  -1   27.46    0.73 
   0   6  -1   28.16    0.71 
   0  -6   1   27.21    0.78 
   0  -6   1   26.08    0.77 
  -1   6  -1    1.96    0.16 
  -1   6  -1    2.39    0.25 
  -1   6  -1    2.20    0.16 
   1  -6   1    1.48    0.17 
   1  -6   1    1.77    0.19 
  -2   6  -1    8.46    0.40 
  -2   6  -1    7.92    0.32 
  -2   6  -1    7.39    0.32 
   2  -6   1    7.86    0.36 
   2  -6   1    8.14    0.37 
  -3   6  -1    1.17    0.17 
  -3   6  -1    0.92    0.14 
  -3   6  -1    1.04    0.14 
   3  -6   1    1.17    0.17 
   3  -6   1    1.02    0.15 
  -4   6  -1    0.82    0.14 
  -4   6  -1    1.12    0.17 
   4  -6   1    0.92    0.16 
  -5   6  -1    3.28    0.25 
  -5   6  -1    3.67    0.27 
  -6   6  -1    3.25    0.26 
  -6   6  -1    3.12    0.26 
  -7   6  -1    0.42    0.16 
 -11  -5   1    0.05    0.06 
 -11  -5   1   -0.03    0.04 
 -10  -5   1    4.53    0.20 
 -10  -5   1    4.59    0.22 
  -9  -5   1    1.19    0.12 
  -9  -5   1    1.06    0.10 
  -9  -5   1    1.10    0.10 
  -9  -5   1    1.07    0.13 
  -8  -5   1    2.16    0.12 
  -8  -5   1    2.00    0.12 
  -8  -5   1    1.93    0.16 
  -8  -5   1    2.01    0.15 
  -7  -5   1    0.07    0.04 
  -7  -5   1    0.03    0.05 
  -7  -5   1   -0.02    0.05 
  -7  -5   1    0.15    0.05 
  -6  -5   1   14.29    0.41 
  -6  -5   1   14.68    0.46 
  -6  -5   1   15.14    0.40 
  -6  -5   1   14.70    0.45 
   5   5  -1    7.42    0.23 
  -5  -5   1    7.36    0.30 
  -5  -5   1    7.17    0.25 
  -5  -5   1    6.96    0.28 
  -5  -5   1    7.24    0.26 
   4   5  -1    1.46    0.06 
   4   5  -1    1.43    0.06 
  -4  -5   1    1.41    0.13 
  -4  -5   1    1.47    0.11 
  -4  -5   1    1.57    0.14 
  -4  -5   1    1.43    0.12 
   3   5  -1   30.65    0.79 
  -3  -5   1   30.42    0.73 
  -3  -5   1   29.75    0.76 
  -3  -5   1   30.05    0.78 
  -3  -5   1   31.37    0.80 
  -3  -5   1   30.50    0.71 
   2   5  -1  243.04    4.83 
   2   5  -1  242.22    4.84 
   2   5  -1  244.19    4.92 
  -2  -5   1  252.28    4.84 
  -2  -5   1  244.95    4.91 
  -2  -5   1  243.46    4.89 
  -2  -5   1  242.79    4.91 
  -2  -5   1  247.79    4.80 
   1   5  -1   68.96    1.46 
   1   5  -1   68.21    1.47 
   1   5  -1   66.57    1.54 
  -1  -5   1   68.01    1.46 
  -1  -5   1   68.91    1.54 
   0   5  -1    2.94    0.20 
   0   5  -1    2.85    0.17 
   0   5  -1    3.12    0.27 
   0   5  -1    2.68    0.15 
   0  -5   1    2.76    0.20 
   0  -5   1    2.78    0.19 
  -1   5  -1    9.82    0.40 
  -1   5  -1    9.59    0.38 
  -1   5  -1   10.03    0.33 
  -1   5  -1   10.30    0.37 
  -1   5  -1   10.11    0.35 
   1  -5   1   10.08    0.38 
   1  -5   1   10.54    0.39 
  -2   5  -1    7.29    0.32 
  -2   5  -1    7.63    0.36 
  -2   5  -1    7.89    0.35 
  -2   5  -1    7.49    0.31 
  -2   5  -1    8.10    0.31 
   2  -5   1    8.42    0.34 
   2  -5   1    7.90    0.34 
  -3   5  -1    0.17    0.08 
  -3   5  -1    0.13    0.07 
  -3   5  -1    0.07    0.07 
  -3   5  -1    0.07    0.06 
  -3   5  -1    0.09    0.07 
   3  -5   1    0.17    0.07 
   3  -5   1    0.16    0.07 
  -4   5  -1    0.03    0.06 
  -4   5  -1   -0.01    0.06 
  -4   5  -1    0.02    0.06 
  -4   5  -1   -0.03    0.06 
  -4   5  -1    0.06    0.07 
   4  -5   1    0.02    0.05 
   4  -5   1    0.00    0.05 
  -5   5  -1    0.13    0.08 
  -5   5  -1    0.15    0.09 
  -6   5  -1    0.98    0.17 
  -6   5  -1    1.07    0.15 
  -7   5  -1    0.11    0.12 
  -7   5  -1    0.01    0.08 
 -11  -4   1    0.13    0.06 
 -10  -4   1    0.10    0.04 
 -10  -4   1    0.04    0.05 
 -10  -4   1    0.05    0.04 
 -10  -4   1    0.04    0.03 
  -9  -4   1    0.45    0.07 
  -9  -4   1    0.45    0.04 
  -9  -4   1    0.45    0.07 
  -9  -4   1    0.58    0.05 
  -9  -4   1    0.54    0.08 
  -8  -4   1    1.66    0.12 
  -8  -4   1    1.49    0.07 
  -8  -4   1    1.57    0.07 
  -8  -4   1    1.58    0.12 
  -7  -4   1    8.10    0.27 
  -7  -4   1    8.33    0.21 
  -7  -4   1    8.32    0.28 
  -7  -4   1    8.16    0.21 
  -6  -4   1   20.99    0.48 
  -6  -4   1   21.32    0.54 
  -6  -4   1   21.10    0.55 
  -6  -4   1   21.40    0.48 
  -5  -4   1   11.37    0.30 
  -5  -4   1   11.35    0.35 
  -5  -4   1   10.78    0.34 
  -5  -4   1   11.32    0.30 
   4   4  -1    2.25    0.11 
   4   4  -1    2.14    0.14 
  -4  -4   1    2.06    0.14 
  -4  -4   1    1.88    0.13 
  -4  -4   1    1.88    0.13 
  -4  -4   1    2.16    0.11 
  -4  -4   1    2.03    0.11 
   3   4  -1   32.51    0.77 
   3   4  -1   32.61    0.69 
   3   4  -1   33.42    0.69 
   3   4  -1   32.07    0.77 
  -3  -4   1   31.98    0.78 
  -3  -4   1   31.84    0.73 
  -3  -4   1   33.43    0.74 
  -3  -4   1   33.26    0.78 
  -3  -4   1   30.93    0.75 
   2   4  -1    8.08    0.30 
   2   4  -1    8.07    0.25 
   2   4  -1    7.95    0.29 
   2   4  -1    7.87    0.26 
   2   4  -1    7.98    0.25 
  -2  -4   1    7.64    0.27 
  -2  -4   1    7.82    0.25 
  -2  -4   1    8.37    0.30 
  -2  -4   1    8.22    0.24 
   1   4  -1   16.67    0.43 
   1   4  -1   16.86    0.49 
   1   4  -1   16.07    0.48 
   1   4  -1   16.40    0.45 
   1   4  -1   16.91    0.44 
  -1  -4   1   17.09    0.42 
  -1  -4   1   16.51    0.47 
  -1  -4   1   17.08    0.49 
  -1  -4   1   16.36    0.48 
  -1  -4   1   16.77    0.44 
   0   4  -1   17.14    0.51 
   0   4  -1   17.74    0.48 
   0   4  -1   17.40    0.51 
   0   4  -1   16.95    0.46 
   0   4  -1   16.77    0.44 
   0  -4   1   18.09    0.51 
   0  -4   1   16.98    0.45 
   0  -4   1   18.25    0.45 
   0  -4   1   17.51    0.50 
  -1   4  -1   79.49    1.73 
  -1   4  -1   80.73    1.70 
  -1   4  -1   82.60    1.78 
  -1   4  -1   84.72    1.77 
  -1   4  -1   79.19    1.68 
   1  -4   1   79.68    1.74 
   1  -4   1   80.23    1.69 
   1  -4   1   80.13    1.75 
  -2   4  -1    2.33    0.18 
  -2   4  -1    2.94    0.19 
  -2   4  -1    2.68    0.17 
  -2   4  -1    2.90    0.16 
  -2   4  -1    2.67    0.16 
   2  -4   1    2.90    0.19 
   2  -4   1    2.86    0.18 
  -3   4  -1   11.44    0.37 
  -3   4  -1   11.16    0.38 
  -3   4  -1   10.50    0.40 
  -3   4  -1   11.55    0.40 
  -3   4  -1   10.93    0.41 
   3  -4   1   11.59    0.40 
   3  -4   1   10.99    0.39 
  -4   4  -1    4.90    0.23 
  -4   4  -1    5.20    0.28 
  -4   4  -1    5.21    0.26 
  -4   4  -1    4.94    0.26 
  -4   4  -1    4.93    0.27 
   4  -4   1    5.24    0.25 
   4  -4   1    4.17    0.23 
  -5   4  -1    1.48    0.20 
  -5   4  -1    1.57    0.18 
  -5   4  -1    1.63    0.16 
  -5   4  -1    1.81    0.20 
  -5   4  -1    1.65    0.19 
   5  -4   1    1.62    0.14 
  -6   4  -1    0.23    0.08 
  -6   4  -1    0.25    0.11 
  -7   4  -1   -0.11    0.08 
  -7   4  -1    0.10    0.07 
  -8   4  -1    0.02    0.07 
  -8   4  -1    0.10    0.11 
 -10  -3   1    0.51    0.07 
  -9  -3   1    2.94    0.13 
  -8  -3   1    0.17    0.04 
  -8  -3   1    0.06    0.04 
  -8  -3   1    0.16    0.04 
  -7  -3   1    0.55    0.06 
  -7  -3   1    0.69    0.07 
  -6  -3   1    0.02    0.03 
  -6  -3   1    0.08    0.04 
  -5  -3   1   32.82    0.73 
  -5  -3   1   33.20    0.73 
  -4  -3   1   16.15    0.36 
  -4  -3   1   16.01    0.41 
  -4  -3   1   15.95    0.36 
  -4  -3   1   16.59    0.41 
   3   3  -1   16.60    0.41 
   3   3  -1   16.50    0.40 
  -3  -3   1   17.04    0.39 
  -3  -3   1   16.98    0.42 
  -3  -3   1   16.24    0.42 
  -3  -3   1   15.97    0.39 
  -3  -3   1   16.63    0.43 
   2   3  -1  103.57    2.12 
   2   3  -1  102.24    2.12 
   2   3  -1  105.63    2.07 
  -2  -3   1  108.37    2.13 
  -2  -3   1  106.48    2.12 
  -2  -3   1  102.31    2.08 
  -2  -3   1  105.66    2.08 
  -2  -3   1  102.13    2.10 
   1   3  -1  183.66    3.67 
   1   3  -1  186.32    3.71 
   1   3  -1  190.11    3.66 
   1   3  -1  188.26    3.70 
   1   3  -1  181.65    3.65 
  -1  -3   1  188.05    3.70 
  -1  -3   1  189.98    3.63 
  -1  -3   1  186.57    3.66 
  -1  -3   1  187.32    3.71 
   0   3  -1   35.27    0.76 
   0   3  -1   34.51    0.79 
   0   3  -1   35.22    0.83 
   0   3  -1   35.18    0.82 
   0   3  -1   35.39    0.78 
   0  -3   1   35.70    0.81 
   0  -3   1   35.94    0.77 
   0  -3   1   35.48    0.82 
   0  -3   1   35.42    0.77 
   0  -3   1   34.47    0.82 
  -1   3  -1   27.40    0.68 
  -1   3  -1   27.34    0.66 
  -1   3  -1   27.13    0.63 
  -1   3  -1   26.91    0.63 
  -1   3  -1   27.23    0.68 
   1  -3   1   28.13    0.65 
   1  -3   1   26.85    0.62 
   1  -3   1   27.34    0.67 
   1  -3   1   27.00    0.67 
  -2   3  -1   54.51    1.22 
  -2   3  -1   57.24    1.26 
  -2   3  -1   57.27    1.27 
  -2   3  -1   56.61    1.21 
  -2   3  -1   56.57    1.24 
   2  -3   1   56.28    1.25 
   2  -3   1   56.60    1.19 
   2  -3   1   56.19    1.24 
  -3   3  -1   73.69    1.62 
  -3   3  -1   74.86    1.63 
  -3   3  -1   75.88    1.58 
  -3   3  -1   77.48    1.65 
  -3   3  -1   73.27    1.61 
   3  -3   1   75.55    1.62 
   3  -3   1   75.41    1.61 
  -4   3  -1   25.61    0.68 
  -4   3  -1   26.44    0.70 
  -4   3  -1   25.67    0.64 
  -4   3  -1   26.75    0.70 
  -4   3  -1   25.67    0.70 
   4  -3   1   24.65    0.66 
   4  -3   1   24.64    0.66 
  -5   3  -1    6.41    0.26 
  -5   3  -1    6.26    0.30 
  -5   3  -1    6.34    0.28 
  -5   3  -1    6.10    0.29 
  -5   3  -1    6.39    0.29 
   5  -3   1    6.05    0.25 
   5  -3   1    6.64    0.26 
  -6   3  -1    0.25    0.10 
  -6   3  -1    0.20    0.08 
  -6   3  -1    0.11    0.06 
  -6   3  -1    0.10    0.07 
   6  -3   1    0.11    0.06 
  -7   3  -1    1.49    0.15 
  -7   3  -1    1.45    0.21 
  -8   3  -1    0.01    0.10 
  -8   3  -1    0.16    0.07 
  -9   3  -1    0.08    0.08 
  -9   3  -1    0.06    0.11 
 -11  -2   1    0.07    0.04 
 -11  -2   1    0.13    0.13 
  -9  -2   1    0.01    0.03 
  -8  -2   1    0.21    0.15 
  -7  -2   1    1.43    0.28 
  -6  -2   1    3.28    0.33 
  -5  -2   1   11.26    0.25 
  -4  -2   1    5.58    0.16 
  -4  -2   1    5.90    0.15 
  -3  -2   1   14.85    0.35 
  -3  -2   1   14.69    0.35 
   2   2  -1  108.86    2.08 
   2   2  -1  106.03    2.02 
   2   2  -1  106.21    2.08 
   2   2  -1  101.50    2.02 
  -2  -2   1  106.32    2.06 
  -2  -2   1  104.71    2.09 
  -2  -2   1  106.07    2.09 
  -2  -2   1  102.79    2.06 
   1   2  -1  594.61   11.31 
   1   2  -1  572.07   11.26 
   1   2  -1  562.74   11.15 
   1   2  -1  590.71   11.33 
   1   2  -1  523.84   11.32 
  -1  -2   1  586.49   11.41 
  -1  -2   1  553.12   11.23 
  -1  -2   1  579.34   11.11 
  -1  -2   1  609.83   11.35 
  -1  -2   1  620.98   11.40 
   0   2  -1  137.78    2.73 
   0   2  -1  138.69    2.70 
   0   2  -1  140.06    2.75 
   0   2  -1  135.30    2.75 
   0   2  -1  140.62    2.72 
   0  -2   1  135.93    2.70 
   0  -2   1  141.17    2.71 
   0  -2   1  139.09    2.74 
   0  -2   1  138.39    2.75 
   0  -2   1  137.66    2.74 
  -1   2  -1    7.59    0.24 
  -1   2  -1    7.20    0.24 
  -1   2  -1    7.32    0.22 
  -1   2  -1    7.41    0.23 
  -1   2  -1    7.39    0.22 
   1  -2   1    7.54    0.23 
   1  -2   1    7.31    0.21 
   1  -2   1    7.28    0.23 
   1  -2   1    7.63    0.24 
   1  -2   1    7.11    0.24 
  -2   2  -1   53.95    1.19 
  -2   2  -1   54.05    1.15 
  -2   2  -1   55.59    1.20 
  -2   2  -1   56.32    1.19 
  -2   2  -1   56.46    1.20 
   2  -2   1   55.47    1.14 
   2  -2   1   56.18    1.19 
   2  -2   1   56.06    1.19 
  -3   2  -1   19.41    0.51 
  -3   2  -1   19.11    0.47 
  -3   2  -1   19.34    0.52 
  -3   2  -1   19.43    0.51 
  -3   2  -1   18.61    0.49 
   3  -2   1   19.01    0.44 
   3  -2   1   19.29    0.49 
  -4   2  -1   -0.02    0.05 
  -4   2  -1    0.02    0.03 
  -4   2  -1    0.04    0.04 
  -4   2  -1    0.05    0.04 
  -4   2  -1    0.07    0.04 
   4  -2   1    0.03    0.03 
   4  -2   1    0.00    0.03 
  -5   2  -1    1.93    0.12 
  -5   2  -1    1.85    0.14 
  -5   2  -1    1.92    0.17 
  -5   2  -1    1.80    0.14 
  -5   2  -1    2.06    0.14 
   5  -2   1    1.98    0.13 
  -6   2  -1    4.46    0.23 
  -6   2  -1    4.64    0.23 
  -6   2  -1    4.53    0.20 
  -6   2  -1    3.93    0.26 
  -6   2  -1    4.01    0.21 
   6  -2   1    4.24    0.18 
  -7   2  -1    5.50    0.24 
  -7   2  -1    5.54    0.33 
  -8   2  -1    0.33    0.14 
  -8   2  -1    0.30    0.08 
  -9   2  -1    0.66    0.11 
  -9   2  -1    0.75    0.17 
 -11  -1   1    2.17    0.29 
 -11  -1   1    2.03    0.13 
 -10  -1   1    0.88    0.08 
 -10  -1   1    0.94    0.20 
  -9  -1   1   15.89    0.61 
  -9  -1   1   14.02    0.37 
  -9  -1   1   13.99    0.38 
  -8  -1   1    0.87    0.07 
  -8  -1   1    1.04    0.08 
  -7  -1   1    1.44    0.07 
  -7  -1   1    1.26    0.07 
  -6  -1   1    1.39    0.06 
  -5  -1   1    2.12    0.26 
  -4  -1   1   23.47    0.82 
  -3  -1   1  101.43    2.28 
  -2  -1   1   34.31    0.68 
  -2  -1   1   34.26    0.68 
   1   1  -1  232.02    4.44 
   1   1  -1  232.76    4.46 
   1   1  -1  222.37    4.46 
  -1  -1   1  218.99    4.45 
  -1  -1   1  226.97    4.46 
  -1  -1   1  233.44    4.42 
  -1  -1   1  226.36    4.43 
  -1  -1   1  240.51    4.47 
   0   1  -1  332.26    6.49 
   0   1  -1  330.62    6.39 
   0   1  -1  337.85    6.46 
   0   1  -1  308.76    6.35 
   0   1  -1  320.36    6.32 
   0  -1   1  323.47    6.26 
   0  -1   1  331.51    6.43 
   0  -1   1  329.26    6.44 
   0  -1   1  333.74    6.49 
   0  -1   1  316.11    6.32 
  -1   1  -1    7.92    0.21 
  -1   1  -1    8.01    0.22 
  -1   1  -1    7.66    0.20 
  -1   1  -1    8.02    0.22 
  -1   1  -1    7.72    0.21 
   1  -1   1    7.64    0.22 
   1  -1   1    7.85    0.21 
   1  -1   1    8.20    0.22 
  -2   1  -1  179.11    3.50 
  -2   1  -1  177.95    3.49 
  -2   1  -1  183.24    3.50 
  -2   1  -1  176.95    3.52 
  -2   1  -1  177.12    3.47 
   2  -1   1  176.28    3.46 
  -3   1  -1   22.38    0.54 
  -3   1  -1   22.65    0.52 
  -3   1  -1   22.32    0.53 
  -3   1  -1   21.88    0.57 
  -3   1  -1   22.68    0.51 
   3  -1   1   22.44    0.52 
   3  -1   1   21.88    0.52 
  -4   1  -1   44.17    1.05 
  -4   1  -1   44.54    0.96 
  -4   1  -1   44.16    0.98 
  -4   1  -1   44.70    0.98 
  -4   1  -1   43.70    0.94 
   4  -1   1   45.10    0.95 
  -5   1  -1   25.20    0.71 
  -5   1  -1   25.81    0.64 
  -5   1  -1   25.88    0.62 
  -5   1  -1   25.92    0.63 
  -5   1  -1   25.33    0.59 
   5  -1   1   25.17    0.58 
  -6   1  -1    0.76    0.10 
  -6   1  -1    0.76    0.09 
  -6   1  -1    0.71    0.10 
  -6   1  -1    0.75    0.08 
  -6   1  -1    0.66    0.12 
   6  -1   1    0.76    0.07 
  -7   1  -1    0.07    0.05 
  -7   1  -1    0.03    0.04 
  -7   1  -1    0.00    0.04 
  -7   1  -1   -0.02    0.07 
  -7   1  -1    0.04    0.05 
  -8   1  -1    3.37    0.18 
  -8   1  -1    3.49    0.28 
  -9   1  -1    0.17    0.07 
  -9   1  -1    0.24    0.12 
 -10   1  -1    0.59    0.11 
 -10   1  -1    0.58    0.17 
 -10   0   1    0.24    0.14 
  -9   0   1    0.60    0.07 
  -9   0   1    0.50    0.15 
  -8   0   1    3.26    0.16 
  -8   0   1    3.75    0.27 
  -8   0   1    2.99    0.15 
  -8   0   1    3.13    0.12 
  -7   0   1    1.35    0.09 
  -7   0   1    1.36    0.09 
  -7   0   1    1.35    0.07 
  -7   0   1    1.36    0.18 
  -6   0   1    0.05    0.03 
  -6   0   1    0.03    0.02 
  -6   0   1    0.09    0.06 
  -5   0   1    1.26    0.06 
  -5   0   1    1.18    0.07 
  -4   0   1    3.60    0.11 
  -4   0   1    3.57    0.10 
  -3   0   1   29.32    0.58 
  -2   0   1   42.88    0.82 
  -2   0   1   41.39    0.82 
   1   0  -1  119.40    2.24 
   1   0  -1  116.86    2.23 
   1   0  -1  113.22    2.25 
   1   0  -1  112.47    2.26 
  -1   0   1  119.25    2.24 
  -1   0   1  117.01    2.25 
  -1   0   1  120.20    2.24 
  -1   0   1  117.58    2.24 
  -1   0   1  108.78    2.24 
   0   0  -1  156.26    3.04 
   0   0  -1  156.87    3.04 
   0   0  -1  159.81    3.04 
   0   0   1  157.42    3.10 
  -1   0  -1    1.43    0.07 
  -1   0  -1    1.69    0.07 
  -1   0  -1    1.49    0.08 
  -1   0  -1    1.56    0.08 
   1   0   1    1.42    0.07 
  -2   0  -1  315.47    6.09 
  -2   0  -1  316.03    6.01 
  -2   0  -1  308.26    6.02 
  -2   0  -1  309.68    5.98 
   2   0   1  307.81    6.00 
  -3   0  -1   25.52    0.55 
  -3   0  -1   25.50    0.57 
  -3   0  -1   26.20    0.55 
  -3   0  -1   25.91    0.57 
   3   0   1   25.70    0.56 
  -4   0  -1  156.27    3.06 
  -4   0  -1  155.49    3.06 
  -4   0  -1  154.26    3.02 
  -4   0  -1  154.73    3.03 
   4   0   1  153.71    3.02 
  -5   0  -1    2.98    0.14 
  -5   0  -1    2.67    0.14 
  -5   0  -1    3.05    0.13 
  -5   0  -1    2.93    0.12 
   5   0   1    2.98    0.10 
  -6   0  -1    2.60    0.14 
  -6   0  -1    2.57    0.13 
  -6   0  -1    2.56    0.12 
  -6   0  -1    2.61    0.14 
  -7   0  -1    0.81    0.10 
  -7   0  -1    0.88    0.10 
  -7   0  -1    0.76    0.08 
  -7   0  -1    0.72    0.09 
  -8   0  -1   12.52    0.54 
  -8   0  -1   12.54    0.38 
  -8   0  -1   12.28    0.40 
  -8   0  -1   12.14    0.39 
  -8   0  -1   12.39    0.37 
  -9   0  -1    0.12    0.11 
  -9   0  -1    0.16    0.06 
 -10   0  -1    2.60    0.17 
 -10   0  -1    2.98    0.34 
 -10   1   1    6.32    0.26 
 -10   1   1    6.95    0.42 
  -9   1   1    1.91    0.13 
  -9   1   1    1.81    0.23 
  -8   1   1    9.78    0.35 
  -8   1   1    9.41    0.29 
  -8   1   1    9.79    0.39 
  -8   1   1   10.45    0.46 
  -7   1   1    0.26    0.05 
  -7   1   1    0.27    0.06 
  -7   1   1    0.21    0.06 
  -7   1   1    0.13    0.08 
  -6   1   1    0.07    0.03 
  -6   1   1    0.13    0.08 
  -6   1   1    0.07    0.04 
  -6   1   1    0.05    0.04 
  -5   1   1    0.81    0.07 
  -5   1   1    0.79    0.11 
  -5   1   1    0.86    0.05 
  -5   1   1    0.69    0.07 
  -4   1   1   34.18    0.74 
  -4   1   1   34.46    0.74 
  -4   1   1   33.62    0.82 
  -4   1   1   33.38    0.69 
   3  -1  -1   20.43    0.44 
   3  -1  -1   20.31    0.43 
  -3   1   1   19.90    0.42 
  -3   1   1   20.65    0.51 
  -3   1   1   19.90    0.46 
  -3   1   1   19.95    0.46 
   2  -1  -1    4.65    0.17 
   2  -1  -1    4.43    0.13 
   2  -1  -1    4.47    0.12 
  -2   1   1    4.57    0.14 
  -2   1   1    4.43    0.14 
  -2   1   1    4.42    0.16 
  -2   1   1    4.52    0.12 
   1  -1  -1  118.30    2.38 
   1  -1  -1  123.32    2.36 
   1  -1  -1  117.08    2.38 
  -1   1   1  125.02    2.36 
  -1   1   1  124.84    2.39 
  -1   1   1  125.35    2.39 
  -1   1   1  120.65    2.38 
   0  -1  -1    7.11    0.18 
   0  -1  -1    7.46    0.20 
   0  -1  -1    7.64    0.20 
   0  -1  -1    6.42    0.17 
   0   1   1    7.90    0.18 
   0   1   1    7.43    0.20 
   0   1   1    7.92    0.20 
  -1  -1  -1  101.54    1.98 
  -1  -1  -1  102.52    2.00 
  -1  -1  -1  103.13    2.00 
  -1  -1  -1  101.27    2.00 
   1   1   1   99.43    2.00 
   1   1   1  103.87    2.00 
   1   1   1   99.59    1.97 
  -2  -1  -1   49.08    0.99 
  -2  -1  -1   51.21    1.03 
   2   1   1   50.49    0.98 
  -3  -1  -1    7.71    0.21 
  -3  -1  -1    7.91    0.19 
  -4  -1  -1    0.29    0.03 
  -4  -1  -1    0.32    0.05 
  -5  -1  -1   17.92    0.40 
  -5  -1  -1   17.54    0.43 
  -6  -1  -1    5.98    0.21 
  -6  -1  -1    6.02    0.18 
  -7  -1  -1    7.35    0.23 
  -7  -1  -1    7.59    0.25 
  -7  -1  -1    7.45    0.26 
  -8  -1  -1    2.14    0.13 
  -8  -1  -1    2.23    0.13 
  -8  -1  -1    2.15    0.14 
  -8  -1  -1    1.77    0.13 
  -9  -1  -1    7.25    0.26 
 -10  -1  -1    0.12    0.06 
 -10  -1  -1    0.03    0.12 
 -11  -1  -1   -0.18    0.10 
 -11  -1  -1    0.00    0.06 
  -9   2   1    0.07    0.11 
  -9   2   1    0.12    0.06 
  -8   2   1    1.66    0.13 
  -8   2   1    1.41    0.20 
  -7   2   1    1.52    0.15 
  -7   2   1    1.73    0.12 
  -7   2   1    1.60    0.15 
  -7   2   1    1.50    0.19 
  -6   2   1   -0.07    0.06 
  -6   2   1    0.09    0.05 
  -6   2   1    0.05    0.03 
  -6   2   1    0.04    0.05 
   5  -2  -1    0.74    0.06 
  -5   2   1    0.82    0.10 
  -5   2   1    0.80    0.09 
  -5   2   1    0.72    0.07 
  -5   2   1    0.48    0.10 
   4  -2  -1   28.62    0.63 
   4  -2  -1   28.71    0.62 
  -4   2   1   27.51    0.63 
  -4   2   1   28.75    0.69 
  -4   2   1   29.06    0.73 
  -4   2   1   28.59    0.69 
   3  -2  -1   30.60    0.67 
   3  -2  -1   29.53    0.67 
  -3   2   1   30.07    0.66 
  -3   2   1   30.75    0.71 
  -3   2   1   30.54    0.71 
  -3   2   1   30.34    0.72 
   2  -2  -1    1.05    0.08 
   2  -2  -1    1.03    0.05 
   2  -2  -1    1.07    0.07 
  -2   2   1    1.12    0.08 
  -2   2   1    1.12    0.07 
  -2   2   1    1.07    0.08 
  -2   2   1    1.10    0.08 
   1  -2  -1    0.04    0.02 
   1  -2  -1    0.07    0.03 
   1  -2  -1    0.08    0.03 
   1  -2  -1    0.06    0.03 
  -1   2   1    0.10    0.03 
  -1   2   1    0.07    0.03 
  -1   2   1    0.06    0.02 
  -1   2   1    0.03    0.03 
   0  -2  -1  112.74    2.21 
   0  -2  -1  110.28    2.16 
   0  -2  -1  108.67    2.21 
   0  -2  -1  109.79    2.17 
   0   2   1  108.68    2.17 
   0   2   1  109.57    2.16 
   0   2   1  109.87    2.21 
   0   2   1  112.49    2.22 
  -1  -2  -1    3.21    0.14 
  -1  -2  -1    3.24    0.12 
  -1  -2  -1    2.94    0.13 
  -1  -2  -1    3.41    0.12 
   1   2   1    3.26    0.12 
   1   2   1    3.21    0.13 
   1   2   1    3.29    0.14 
   1   2   1    3.14    0.14 
  -2  -2  -1   20.85    0.49 
  -2  -2  -1   20.04    0.45 
  -2  -2  -1   20.94    0.49 
   2   2   1   20.69    0.48 
   2   2   1   20.98    0.48 
  -3  -2  -1   14.86    0.37 
  -3  -2  -1   14.72    0.33 
  -3  -2  -1   15.48    0.38 
  -4  -2  -1   22.39    0.47 
  -4  -2  -1   22.45    0.52 
  -4  -2  -1   22.34    0.53 
  -5  -2  -1   34.59    0.71 
  -5  -2  -1   34.61    0.76 
  -6  -2  -1    0.15    0.03 
  -6  -2  -1    0.13    0.04 
  -7  -2  -1    1.57    0.08 
  -7  -2  -1    1.45    0.10 
  -8  -2  -1    3.34    0.16 
  -8  -2  -1    3.26    0.14 
  -9  -2  -1    5.79    0.23 
  -9  -2  -1    5.45    0.21 
  -9  -2  -1    5.43    0.23 
 -10  -2  -1    0.12    0.06 
 -11  -2  -1    0.52    0.11 
 -11  -2  -1    0.53    0.09 
  -9   3   1    3.27    0.33 
  -9   3   1    2.84    0.21 
  -8   3   1    0.09    0.10 
  -8   3   1    0.09    0.06 
  -7   3   1    6.39    0.27 
  -7   3   1    7.03    0.37 
   6  -3  -1    0.67    0.07 
  -6   3   1    0.64    0.11 
  -6   3   1    0.59    0.08 
  -6   3   1    0.76    0.12 
  -6   3   1    0.52    0.12 
   5  -3  -1   36.05    0.80 
   5  -3  -1   37.00    0.82 
  -5   3   1   36.20    0.90 
  -5   3   1   35.60    0.91 
  -5   3   1   36.34    0.84 
  -5   3   1   36.04    0.93 
   4  -3  -1    1.58    0.11 
   4  -3  -1    1.35    0.10 
  -4   3   1    1.24    0.14 
  -4   3   1    1.41    0.11 
  -4   3   1    1.31    0.12 
  -4   3   1    1.55    0.13 
   3  -3  -1    0.00    0.01 
   3  -3  -1   -0.04    0.02 
   3  -3  -1    0.05    0.02 
  -3   3   1    0.02    0.04 
  -3   3   1   -0.04    0.02 
  -3   3   1   -0.03    0.03 
  -3   3   1   -0.02    0.04 
   2  -3  -1   23.94    0.60 
   2  -3  -1   23.39    0.52 
   2  -3  -1   21.96    0.57 
   2  -3  -1   22.70    0.57 
  -2   3   1   23.43    0.57 
  -2   3   1   23.10    0.60 
  -2   3   1   22.87    0.60 
  -2   3   1   23.14    0.55 
   1  -3  -1    0.55    0.07 
   1  -3  -1    0.62    0.08 
   1  -3  -1    0.84    0.07 
   1  -3  -1    0.71    0.06 
  -1   3   1    0.70    0.07 
  -1   3   1    0.65    0.09 
  -1   3   1    0.75    0.07 
  -1   3   1    0.81    0.10 
   0  -3  -1   39.42    0.89 
   0  -3  -1   39.11    0.89 
   0  -3  -1   39.35    0.84 
   0  -3  -1   39.29    0.83 
   0   3   1   38.23    0.85 
   0   3   1   38.69    0.84 
   0   3   1   39.24    0.90 
   0   3   1   39.35    0.90 
  -1  -3  -1  114.22    2.27 
  -1  -3  -1  114.42    2.33 
  -1  -3  -1  115.12    2.33 
  -1  -3  -1  115.67    2.27 
   1   3   1  115.01    2.28 
   1   3   1  109.60    2.32 
   1   3   1  113.60    2.28 
   1   3   1  115.48    2.33 
  -2  -3  -1   50.03    1.02 
  -2  -3  -1   48.43    1.04 
  -2  -3  -1   48.52    1.07 
  -2  -3  -1   48.39    1.07 
   2   3   1   48.34    1.00 
   2   3   1   47.44    1.06 
   2   3   1   48.44    1.02 
  -3  -3  -1   23.46    0.58 
  -3  -3  -1   23.61    0.58 
  -3  -3  -1   23.52    0.53 
   3   3   1   23.57    0.56 
   3   3   1   23.53    0.49 
   3   3   1   23.35    0.49 
   3   3   1   23.33    0.55 
  -4  -3  -1   11.65    0.29 
  -4  -3  -1   11.92    0.34 
  -4  -3  -1   11.49    0.34 
  -5  -3  -1    0.06    0.04 
  -5  -3  -1    0.00    0.04 
  -5  -3  -1    0.01    0.02 
  -6  -3  -1   10.70    0.32 
  -6  -3  -1   10.29    0.32 
  -6  -3  -1   10.12    0.32 
  -6  -3  -1   10.47    0.26 
  -7  -3  -1    0.31    0.06 
  -7  -3  -1    0.35    0.05 
  -7  -3  -1    0.36    0.07 
  -8  -3  -1    1.44    0.12 
  -8  -3  -1    1.37    0.09 
  -8  -3  -1    1.55    0.11 
  -9  -3  -1    1.11    0.11 
  -9  -3  -1    1.06    0.09 
  -9  -3  -1    1.34    0.13 
 -10  -3  -1    0.43    0.09 
 -11  -3  -1    0.00    0.06 
 -11  -3  -1    0.02    0.07 
  -8   4   1    0.69    0.12 
  -8   4   1    0.59    0.15 
  -7   4   1    3.46    0.22 
  -7   4   1    3.76    0.28 
  -6   4   1    0.37    0.09 
  -6   4   1    0.13    0.10 
   5  -4  -1    0.24    0.06 
   5  -4  -1    0.36    0.07 
  -5   4   1    0.24    0.10 
  -5   4   1    0.25    0.07 
  -5   4   1    0.21    0.08 
  -5   4   1    0.29    0.09 
   4  -4  -1    0.17    0.05 
   4  -4  -1    0.03    0.03 
  -4   4   1    0.23    0.08 
  -4   4   1    0.17    0.06 
  -4   4   1    0.16    0.07 
  -4   4   1    0.27    0.08 
   3  -4  -1   12.52    0.39 
  -3   4   1   11.81    0.43 
  -3   4   1   12.45    0.43 
  -3   4   1   12.38    0.40 
  -3   4   1   11.92    0.37 
   2  -4  -1   10.98    0.36 
   2  -4  -1   11.52    0.37 
  -2   4   1   10.75    0.39 
  -2   4   1   10.53    0.33 
  -2   4   1   11.04    0.39 
  -2   4   1   10.87    0.35 
   1  -4  -1   10.10    0.29 
   1  -4  -1    9.86    0.34 
   1  -4  -1    9.61    0.33 
  -1   4   1    9.34    0.35 
  -1   4   1    9.60    0.30 
  -1   4   1    9.51    0.35 
  -1   4   1    9.42    0.30 
   0  -4  -1    0.12    0.04 
   0  -4  -1    0.10    0.04 
   0  -4  -1    0.10    0.05 
   0   4   1    0.14    0.06 
   0   4   1    0.11    0.06 
   0   4   1    0.15    0.04 
   0   4   1    0.13    0.04 
  -1  -4  -1    2.76    0.17 
  -1  -4  -1    2.59    0.17 
  -1  -4  -1    2.79    0.14 
   1   4   1    2.86    0.15 
   1   4   1    2.78    0.18 
   1   4   1    2.94    0.15 
  -2  -4  -1   59.57    1.32 
  -2  -4  -1   59.75    1.25 
  -2  -4  -1   58.34    1.32 
   2   4   1   59.81    1.31 
   2   4   1   60.58    1.25 
   2   4   1   58.86    1.28 
   2   4   1   57.78    1.25 
   2   4   1   58.39    1.31 
  -3  -4  -1    3.68    0.20 
  -3  -4  -1    3.47    0.15 
  -3  -4  -1    3.61    0.17 
  -3  -4  -1    3.31    0.18 
   3   4   1    3.53    0.14 
   3   4   1    3.37    0.17 
   3   4   1    3.72    0.18 
  -4  -4  -1    0.07    0.05 
  -4  -4  -1    0.01    0.05 
  -4  -4  -1   -0.02    0.03 
   4   4   1    0.06    0.04 
   4   4   1    0.05    0.03 
  -5  -4  -1    3.15    0.18 
  -5  -4  -1    3.12    0.18 
  -5  -4  -1    3.13    0.14 
  -6  -4  -1    1.05    0.12 
  -6  -4  -1    1.17    0.08 
  -6  -4  -1    1.24    0.12 
  -7  -4  -1    2.33    0.16 
  -7  -4  -1    2.22    0.11 
  -7  -4  -1    2.09    0.15 
  -7  -4  -1    1.99    0.15 
  -8  -4  -1    3.89    0.20 
  -8  -4  -1    3.71    0.21 
  -8  -4  -1    4.09    0.21 
  -8  -4  -1    3.88    0.16 
  -9  -4  -1    0.37    0.08 
  -9  -4  -1    0.21    0.07 
  -9  -4  -1    0.29    0.08 
  -9  -4  -1    0.37    0.06 
 -10  -4  -1    1.62    0.15 
 -10  -4  -1    1.68    0.16 
 -11  -4  -1    0.60    0.12 
 -11  -4  -1    0.80    0.12 
  -8   5   1    1.14    0.17 
  -8   5   1    1.29    0.21 
  -7   5   1   -0.04    0.08 
  -7   5   1    0.09    0.07 
  -6   5   1    1.36    0.20 
  -6   5   1    0.99    0.14 
  -5   5   1    2.04    0.18 
  -5   5   1    1.79    0.21 
   4  -5  -1    4.96    0.25 
   4  -5  -1    5.11    0.26 
  -4   5   1    5.76    0.30 
  -4   5   1    5.48    0.31 
  -4   5   1    5.55    0.26 
  -4   5   1    5.42    0.31 
  -4   5   1    5.39    0.28 
   3  -5  -1    4.43    0.23 
   3  -5  -1    4.25    0.23 
  -3   5   1    4.25    0.22 
  -3   5   1    4.31    0.25 
  -3   5   1    4.17    0.26 
  -3   5   1    4.36    0.23 
  -3   5   1    3.99    0.25 
   2  -5  -1    8.43    0.33 
   2  -5  -1    8.15    0.33 
  -2   5   1    8.52    0.31 
  -2   5   1    8.53    0.32 
  -2   5   1    8.38    0.37 
  -2   5   1    8.15    0.37 
   1  -5  -1    1.55    0.15 
   1  -5  -1    2.01    0.16 
  -1   5   1    1.93    0.17 
  -1   5   1    1.59    0.13 
  -1   5   1    1.65    0.16 
  -1   5   1    1.63    0.15 
  -1   5   1    1.81    0.14 
   0  -5  -1    0.20    0.08 
   0  -5  -1    0.14    0.05 
   0  -5  -1    0.25    0.08 
   0   5   1    0.25    0.07 
   0   5   1    0.17    0.07 
   0   5   1    0.15    0.06 
   0   5   1    0.30    0.08 
   0   5   1    0.29    0.07 
  -1  -5  -1   11.70    0.42 
  -1  -5  -1   12.00    0.42 
  -1  -5  -1   12.15    0.37 
   1   5   1   12.18    0.39 
   1   5   1   12.50    0.38 
   1   5   1   12.58    0.43 
   1   5   1   12.41    0.38 
   1   5   1   12.15    0.44 
  -2  -5  -1    8.92    0.36 
  -2  -5  -1    9.07    0.35 
  -2  -5  -1    9.32    0.31 
   2   5   1    9.92    0.42 
   2   5   1    9.11    0.32 
   2   5   1    9.19    0.36 
   2   5   1    9.57    0.33 
   2   5   1    9.15    0.31 
  -3  -5  -1   15.64    0.43 
  -3  -5  -1   15.55    0.49 
  -3  -5  -1   15.04    0.49 
   3   5   1   15.18    0.48 
   3   5   1   15.45    0.41 
  -4  -5  -1    0.69    0.11 
  -4  -5  -1    1.06    0.11 
  -4  -5  -1    0.54    0.10 
   4   5   1    0.98    0.07 
   4   5   1    0.89    0.11 
  -5  -5  -1    0.60    0.11 
  -5  -5  -1    0.52    0.08 
  -5  -5  -1    0.32    0.09 
  -6  -5  -1    1.45    0.15 
  -6  -5  -1    1.43    0.11 
  -6  -5  -1    1.08    0.14 
  -7  -5  -1    0.23    0.08 
  -7  -5  -1    0.18    0.07 
  -7  -5  -1    0.29    0.06 
  -8  -5  -1    0.51    0.11 
  -8  -5  -1    0.44    0.07 
  -8  -5  -1    0.44    0.10 
  -8  -5  -1    0.55    0.10 
  -9  -5  -1    0.01    0.06 
  -9  -5  -1    0.08    0.07 
 -10  -5  -1    0.25    0.09 
 -10  -5  -1    0.33    0.10 
 -11  -5  -1    0.13    0.08 
 -11  -5  -1    0.09    0.08 
  -7   6   1    0.12    0.12 
  -7   6   1    0.13    0.10 
  -6   6   1    0.75    0.16 
  -6   6   1    0.58    0.12 
  -5   6   1    5.01    0.30 
  -5   6   1    4.99    0.29 
   4  -6  -1   40.48    1.05 
  -4   6   1   41.57    1.05 
  -4   6   1   41.45    1.06 
   3  -6  -1    3.97    0.25 
   3  -6  -1    4.10    0.25 
  -3   6   1    4.22    0.25 
  -3   6   1    4.24    0.29 
  -3   6   1    4.11    0.24 
  -3   6   1    4.15    0.29 
  -3   6   1    4.08    0.26 
   2  -6  -1    0.31    0.09 
   2  -6  -1    0.34    0.10 
  -2   6   1    0.23    0.08 
  -2   6   1    0.15    0.10 
  -2   6   1    0.23    0.07 
  -2   6   1    0.10    0.07 
  -2   6   1    0.40    0.11 
   1  -6  -1    0.92    0.13 
   1  -6  -1    0.84    0.13 
  -1   6   1    0.91    0.13 
  -1   6   1    0.86    0.11 
  -1   6   1    1.05    0.19 
  -1   6   1    0.98    0.16 
   0  -6  -1    2.79    0.21 
   0  -6  -1    2.75    0.21 
   0   6   1    2.88    0.18 
   0   6   1    2.23    0.17 
   0   6   1    2.73    0.21 
  -1  -6  -1    3.61    0.24 
  -1  -6  -1    3.29    0.23 
   1   6   1    3.45    0.20 
   1   6   1    3.29    0.23 
   1   6   1    3.30    0.20 
  -2  -6  -1    4.29    0.26 
  -2  -6  -1    4.30    0.21 
  -2  -6  -1    4.27    0.26 
   2   6   1    4.20    0.26 
   2   6   1    4.62    0.23 
   2   6   1    4.25    0.21 
  -3  -6  -1    0.62    0.13 
  -3  -6  -1    0.45    0.11 
  -3  -6  -1    0.59    0.10 
   3   6   1    0.49    0.08 
  -4  -6  -1    1.34    0.13 
  -4  -6  -1    1.24    0.16 
  -4  -6  -1    0.87    0.13 
   4   6   1    1.05    0.10 
  -5  -6  -1    4.60    0.27 
  -5  -6  -1    4.69    0.22 
  -5  -6  -1    4.49    0.26 
   5   6   1    4.60    0.13 
  -6  -6  -1    1.94    0.20 
  -6  -6  -1    2.05    0.15 
  -6  -6  -1    2.03    0.20 
  -7  -6  -1   11.58    0.38 
  -7  -6  -1   11.55    0.45 
  -7  -6  -1   11.56    0.44 
  -8  -6  -1    0.43    0.13 
  -8  -6  -1    0.57    0.12 
  -8  -6  -1    0.97    0.15 
  -9  -6  -1    2.22    0.20 
  -9  -6  -1    2.10    0.20 
 -10  -6  -1    0.03    0.08 
 -10  -6  -1    0.02    0.08 
 -11  -6  -1    0.17    0.10 
 -11  -6  -1    0.16    0.09 
  -6   7   1    0.29    0.11 
  -6   7   1    0.12    0.11 
  -5   7   1    3.02    0.26 
  -5   7   1    3.13    0.26 
  -4   7   1    2.74    0.25 
  -4   7   1    3.67    0.27 
   3  -7  -1    0.03    0.06 
   3  -7  -1    0.09    0.09 
  -3   7   1    0.15    0.11 
  -3   7   1    0.21    0.10 
   2  -7  -1    3.77    0.26 
   2  -7  -1    3.75    0.26 
  -2   7   1    4.00    0.24 
  -2   7   1    3.73    0.24 
  -2   7   1    3.32    0.28 
   1  -7  -1    0.13    0.09 
   1  -7  -1    0.00    0.07 
  -1   7   1    0.07    0.07 
  -1   7   1    0.01    0.06 
   0  -7  -1    5.41    0.32 
   0  -7  -1    4.78    0.30 
   0   7   1    5.63    0.27 
   0   7   1    5.91    0.29 
  -1  -7  -1    5.09    0.31 
  -1  -7  -1    4.87    0.30 
   1   7   1    4.78    0.26 
   1   7   1    4.77    0.25 
  -2  -7  -1    2.81    0.24 
  -2  -7  -1    3.18    0.26 
   2   7   1    3.45    0.22 
   2   7   1    3.38    0.21 
  -3  -7  -1    0.16    0.06 
  -3  -7  -1    0.23    0.11 
  -3  -7  -1    0.53    0.14 
   3   7   1    0.34    0.10 
   3   7   1    0.37    0.09 
  -4  -7  -1    6.81    0.36 
  -4  -7  -1    6.75    0.29 
  -4  -7  -1    6.15    0.34 
   4   7   1    6.62    0.26 
  -5  -7  -1    5.24    0.31 
  -5  -7  -1    4.98    0.32 
  -5  -7  -1    4.83    0.25 
   5   7   1    5.04    0.19 
  -6  -7  -1    1.96    0.17 
  -6  -7  -1    2.00    0.22 
  -6  -7  -1    2.10    0.22 
  -7  -7  -1    6.14    0.34 
  -7  -7  -1    6.15    0.35 
  -8  -7  -1    0.03    0.09 
  -8  -7  -1    0.05    0.09 
  -9  -7  -1    0.01    0.08 
  -9  -7  -1   -0.03    0.08 
 -10  -7  -1    0.95    0.16 
 -10  -7  -1    1.12    0.17 
 -11  -7  -1    0.09    0.10 
 -11  -7  -1    0.16    0.09 
  -5   8   1    0.13    0.13 
  -5   8   1    0.12    0.11 
  -4   8   1    5.48    0.33 
  -4   8   1    5.43    0.35 
  -3   8   1   32.78    0.95 
  -3   8   1   31.30    0.91 
   2  -8  -1    4.08    0.31 
   2  -8  -1    4.36    0.31 
  -2   8   1    3.86    0.28 
  -2   8   1    4.54    0.28 
   1  -8  -1    0.89    0.17 
   1  -8  -1    0.70    0.16 
  -1   8   1    0.98    0.15 
  -1   8   1    0.69    0.13 
   0  -8  -1    1.97    0.23 
   0  -8  -1    1.68    0.21 
   0   8   1    2.22    0.20 
   0   8   1    2.01    0.21 
  -1  -8  -1    1.92    0.22 
  -1  -8  -1    1.55    0.20 
   1   8   1    2.32    0.20 
   1   8   1    2.14    0.22 
  -2  -8  -1   10.34    0.47 
  -2  -8  -1   10.04    0.47 
   2   8   1   10.38    0.40 
   2   8   1   10.36    0.43 
  -3  -8  -1   -0.09    0.09 
  -3  -8  -1   -0.15    0.08 
   3   8   1    0.08    0.09 
   3   8   1   -0.02    0.06 
  -4  -8  -1   -0.15    0.09 
  -4  -8  -1   -0.15    0.09 
  -4  -8  -1   -0.07    0.06 
   4   8   1    0.00    0.06 
  -5  -8  -1    3.97    0.31 
  -5  -8  -1    3.74    0.32 
  -5  -8  -1    4.18    0.31 
   5   8   1    3.89    0.19 
  -6  -8  -1   11.15    0.49 
  -6  -8  -1   12.06    0.52 
  -7  -8  -1    0.17    0.10 
  -7  -8  -1    0.39    0.14 
  -8  -8  -1    2.07    0.24 
  -8  -8  -1    2.25    0.26 
  -9  -8  -1   -0.13    0.08 
  -9  -8  -1    0.09    0.10 
 -10  -8  -1    0.03    0.11 
 -10  -8  -1    0.02    0.09 
  -3   9   1    1.06    0.20 
  -3   9   1    1.18    0.19 
  -2   9   1    0.27    0.11 
  -2   9   1    0.32    0.13 
   1  -9  -1    0.64    0.16 
   1  -9  -1    0.78    0.18 
  -1   9   1    1.00    0.17 
  -1   9   1    0.71    0.14 
   0  -9  -1    2.02    0.25 
   0  -9  -1    1.66    0.24 
   0   9   1    1.63    0.21 
   0   9   1    2.04    0.23 
  -1  -9  -1   -0.01    0.11 
  -1  -9  -1    0.22    0.13 
   1   9   1    0.04    0.08 
   1   9   1    0.05    0.09 
  -2  -9  -1    6.27    0.40 
  -2  -9  -1    7.00    0.41 
   2   9   1    6.67    0.37 
   2   9   1    5.63    0.31 
  -3  -9  -1    0.05    0.11 
  -3  -9  -1    0.18    0.12 
   3   9   1    0.16    0.09 
   3   9   1    0.23    0.11 
  -4  -9  -1    0.20    0.13 
  -4  -9  -1    0.19    0.13 
  -5  -9  -1    0.57    0.16 
  -5  -9  -1    0.11    0.12 
  -6  -9  -1    0.21    0.13 
  -6  -9  -1    0.01    0.11 
  -7  -9  -1    0.14    0.11 
  -7  -9  -1    0.11    0.12 
  -8  -9  -1   -0.03    0.09 
  -8  -9  -1    0.06    0.11 
  -9  -9  -1    0.97    0.20 
  -9  -9  -1    0.71    0.17 
 -10  -9  -1    1.34    0.22 
 -10  -9  -1    1.61    0.23 
  -2  10   1    1.98    0.26 
  -2  10   1    2.48    0.28 
  -1  10   1    0.44    0.14 
  -1  10   1    0.43    0.15 
   0 -10  -1   -0.05    0.12 
   0 -10  -1   -0.12    0.12 
   0  10   1    0.06    0.08 
   0  10   1   -0.02    0.09 
  -1 -10  -1    4.07    0.36 
  -1 -10  -1    3.55    0.33 
   1  10   1    3.46    0.27 
   1  10   1    3.93    0.30 
  -2 -10  -1    5.75    0.40 
  -2 -10  -1    6.45    0.43 
   2  10   1    5.46    0.35 
   2  10   1    5.44    0.33 
  -3 -10  -1    0.88    0.19 
  -3 -10  -1    1.09    0.23 
   3  10   1    1.72    0.24 
  -4 -10  -1    0.00    0.12 
  -4 -10  -1    0.17    0.14 
  -5 -10  -1    3.92    0.35 
  -5 -10  -1    3.53    0.36 
  -6 -10  -1    0.35    0.15 
  -6 -10  -1    0.58    0.17 
  -7 -10  -1   -0.09    0.10 
  -7 -10  -1   -0.08    0.12 
  -8 -10  -1   -0.13    0.12 
  -8 -10  -1   -0.13    0.10 
  -9 -10  -1    0.04    0.12 
  -9 -10  -1    0.04    0.13 
   0  11   1    0.28    0.15 
  -1 -11  -1    0.30    0.16 
  -1 -11  -1   -0.29    0.14 
   1  11   1   -0.13    0.09 
  -2 -11  -1    0.77    0.20 
  -2 -11  -1    1.02    0.23 
   2  11   1    0.85    0.19 
  -3 -11  -1    0.85    0.20 
  -3 -11  -1    1.08    0.23 
   3  11   1    1.39    0.23 
  -4 -11  -1    0.39    0.18 
  -4 -11  -1    0.43    0.17 
  -5 -11  -1    0.41    0.19 
  -5 -11  -1    0.28    0.18 
  -6 -11  -1    0.61    0.20 
  -6 -11  -1    0.97    0.24 
  -7 -11  -1    1.24    0.23 
  -7 -11  -1    1.70    0.27 
  -5 -11   2    0.12    0.13 
  -4 -11   2    0.21    0.16 
  -4 -11   2    0.03    0.16 
  -3 -11   2    0.16    0.18 
  -8 -10   2    1.20    0.21 
  -7 -10   2    0.06    0.09 
  -7 -10   2   -0.04    0.12 
  -6 -10   2    1.27    0.22 
  -6 -10   2    0.83    0.19 
  -5 -10   2    1.91    0.27 
  -5 -10   2    1.82    0.28 
  -4 -10   2   14.85    0.68 
  -4 -10   2   15.30    0.67 
   3  10  -2    5.28    0.34 
  -3 -10   2    4.91    0.41 
  -3 -10   2    4.31    0.37 
   2  10  -2   -0.02    0.09 
  -2 -10   2    0.27    0.17 
  -2 -10   2    0.13    0.14 
   1  10  -2    0.14    0.10 
  -1 -10   2    0.10    0.14 
  -1 -10   2    0.13    0.15 
   0  10  -2    2.18    0.25 
   0 -10   2    2.15    0.31 
   0 -10   2    1.52    0.36 
  -9  -9   2    0.22    0.12 
  -9  -9   2    0.25    0.12 
  -8  -9   2    4.39    0.35 
  -8  -9   2    4.86    0.34 
  -7  -9   2    2.56    0.28 
  -7  -9   2    3.19    0.29 
  -6  -9   2   -0.06    0.09 
  -6  -9   2   -0.01    0.10 
  -5  -9   2    1.15    0.19 
  -5  -9   2    1.52    0.23 
  -4  -9   2    7.92    0.45 
  -4  -9   2    7.85    0.46 
   3   9  -2    3.06    0.24 
  -3  -9   2    3.09    0.33 
  -3  -9   2    3.49    0.31 
   2   9  -2    0.06    0.09 
  -2  -9   2    0.18    0.12 
  -2  -9   2    0.23    0.14 
   1   9  -2   -0.03    0.08 
   1   9  -2    0.01    0.07 
  -1  -9   2   -0.13    0.10 
  -1  -9   2    0.03    0.11 
   0   9  -2   -0.04    0.07 
   0   9  -2   -0.02    0.07 
   0  -9   2    0.18    0.13 
   0  -9   2   -0.07    0.11 
  -1   9  -2    0.43    0.13 
  -1   9  -2    0.40    0.12 
   1  -9   2    0.25    0.15 
   1  -9   2    0.39    0.17 
  -2   9  -2    0.07    0.10 
  -2   9  -2   -0.02    0.06 
 -10  -8   2    0.35    0.12 
 -10  -8   2    0.33    0.11 
  -9  -8   2   -0.08    0.09 
  -9  -8   2    0.07    0.09 
  -8  -8   2    1.80    0.21 
  -8  -8   2    1.68    0.21 
  -7  -8   2    0.32    0.12 
  -7  -8   2    0.58    0.14 
  -7  -8   2    0.45    0.12 
  -6  -8   2    1.15    0.17 
  -6  -8   2    1.17    0.18 
  -6  -8   2    1.16    0.17 
  -5  -8   2    0.54    0.14 
  -5  -8   2    0.66    0.16 
  -4  -8   2    1.92    0.23 
  -4  -8   2    2.28    0.26 
   3   8  -2   12.72    0.49 
   3   8  -2   13.21    0.46 
  -3  -8   2   12.97    0.56 
  -3  -8   2   13.80    0.56 
   2   8  -2    0.78    0.13 
   2   8  -2    1.20    0.17 
  -2  -8   2    0.91    0.19 
  -2  -8   2    0.87    0.17 
   1   8  -2    0.10    0.08 
   1   8  -2    0.16    0.08 
  -1  -8   2    0.17    0.12 
  -1  -8   2    0.19    0.12 
   0   8  -2    0.26    0.09 
   0   8  -2    0.31    0.10 
   0  -8   2    0.42    0.13 
   0  -8   2    0.37    0.14 
  -1   8  -2    2.22    0.23 
  -1   8  -2    1.68    0.18 
   1  -8   2    1.53    0.23 
   1  -8   2    1.42    0.22 
  -2   8  -2    0.96    0.16 
  -2   8  -2    0.82    0.15 
   2  -8   2    0.80    0.20 
   2  -8   2    0.60    0.16 
  -3   8  -2    0.64    0.14 
  -3   8  -2    0.63    0.15 
  -4   8  -2    0.57    0.14 
  -4   8  -2    0.20    0.11 
 -10  -7   2    0.06    0.08 
 -10  -7   2   -0.06    0.07 
  -9  -7   2    0.35    0.10 
  -9  -7   2    0.26    0.10 
  -9  -7   2    0.30    0.09 
  -8  -7   2    0.71    0.13 
  -8  -7   2    0.71    0.13 
  -8  -7   2    0.72    0.13 
  -7  -7   2    4.32    0.25 
  -7  -7   2    4.06    0.26 
  -7  -7   2    3.91    0.26 
  -6  -7   2    0.97    0.15 
  -6  -7   2    0.81    0.13 
  -6  -7   2    1.16    0.16 
  -5  -7   2    2.56    0.22 
  -5  -7   2    2.33    0.27 
  -5  -7   2    2.33    0.22 
  -5  -7   2    2.24    0.20 
   4   7  -2   13.70    0.40 
  -4  -7   2   13.35    0.51 
  -4  -7   2   13.45    0.50 
  -4  -7   2   13.20    0.45 
  -4  -7   2   13.06    0.52 
   3   7  -2  127.96    2.65 
   3   7  -2  125.82    2.70 
  -3  -7   2  125.71    2.68 
  -3  -7   2  133.10    2.80 
  -3  -7   2  128.15    2.79 
  -3  -7   2  128.42    2.78 
   2   7  -2   15.34    0.51 
   2   7  -2   16.19    0.51 
  -2  -7   2   16.19    0.59 
  -2  -7   2   15.61    0.57 
   1   7  -2    0.03    0.06 
   1   7  -2    0.04    0.06 
  -1  -7   2    0.00    0.08 
  -1  -7   2    0.07    0.10 
   0   7  -2    0.35    0.09 
   0   7  -2    0.34    0.09 
   0  -7   2    0.31    0.11 
   0  -7   2    0.34    0.13 
  -1   7  -2    1.63    0.18 
  -1   7  -2    1.81    0.16 
   1  -7   2    1.70    0.22 
   1  -7   2    1.07    0.17 
  -2   7  -2    3.28    0.22 
  -2   7  -2    2.96    0.23 
   2  -7   2    2.85    0.25 
   2  -7   2    2.97    0.27 
  -3   7  -2    0.19    0.08 
  -3   7  -2    0.39    0.11 
   3  -7   2    0.25    0.12 
  -4   7  -2    0.11    0.09 
  -4   7  -2    0.08    0.09 
  -5   7  -2    6.44    0.37 
  -5   7  -2    6.93    0.38 
 -11  -6   2    0.34    0.09 
 -10  -6   2    0.06    0.06 
 -10  -6   2   -0.06    0.06 
 -10  -6   2    0.00    0.05 
  -9  -6   2    0.04    0.07 
  -9  -6   2    0.05    0.06 
  -9  -6   2    0.23    0.07 
  -8  -6   2    0.83    0.12 
  -8  -6   2    0.82    0.11 
  -8  -6   2    0.92    0.13 
  -7  -6   2    0.04    0.07 
  -7  -6   2    0.05    0.06 
  -7  -6   2    0.12    0.07 
  -7  -6   2    0.11    0.06 
  -6  -6   2    3.65    0.23 
  -6  -6   2    3.02    0.22 
  -6  -6   2    3.27    0.18 
  -6  -6   2    3.50    0.20 
  -5  -6   2    3.00    0.19 
  -5  -6   2    3.07    0.21 
  -5  -6   2    3.05    0.22 
  -5  -6   2    2.89    0.17 
   4   6  -2    6.38    0.21 
  -4  -6   2    5.65    0.29 
  -4  -6   2    6.16    0.31 
  -4  -6   2    5.86    0.28 
  -4  -6   2    6.16    0.26 
   3   6  -2    5.76    0.24 
  -3  -6   2    5.85    0.29 
  -3  -6   2    5.68    0.30 
  -3  -6   2    6.03    0.26 
  -3  -6   2    5.72    0.30 
   2   6  -2    0.98    0.12 
   2   6  -2    0.91    0.11 
  -2  -6   2    0.95    0.13 
  -2  -6   2    1.24    0.17 
  -2  -6   2    1.02    0.12 
  -2  -6   2    0.90    0.15 
   1   6  -2    4.45    0.22 
   1   6  -2    4.48    0.23 
  -1  -6   2    4.47    0.27 
  -1  -6   2    4.79    0.27 
  -1  -6   2    4.79    0.28 
   0   6  -2    0.02    0.05 
   0   6  -2    0.03    0.05 
   0  -6   2   -0.02    0.07 
   0  -6   2    0.01    0.07 
  -1   6  -2    0.26    0.08 
  -1   6  -2    0.15    0.07 
   1  -6   2    0.20    0.08 
   1  -6   2    0.19    0.09 
  -2   6  -2    0.17    0.08 
  -2   6  -2    0.11    0.07 
   2  -6   2    0.11    0.09 
   2  -6   2    0.02    0.08 
  -3   6  -2   -0.01    0.06 
  -3   6  -2   -0.05    0.06 
   3  -6   2    0.05    0.07 
   3  -6   2    0.10    0.09 
  -4   6  -2   -0.04    0.06 
  -4   6  -2    0.01    0.07 
   4  -6   2   -0.02    0.07 
  -5   6  -2    0.50    0.14 
  -5   6  -2    0.56    0.13 
  -6   6  -2    1.22    0.18 
  -6   6  -2    1.33    0.21 
 -11  -5   2    0.31    0.07 
 -10  -5   2    0.60    0.07 
 -10  -5   2    0.50    0.07 
 -10  -5   2    0.55    0.09 
  -9  -5   2    2.99    0.16 
  -9  -5   2    2.95    0.18 
  -9  -5   2    2.90    0.14 
  -8  -5   2    2.67    0.16 
  -8  -5   2    2.80    0.14 
  -8  -5   2    2.63    0.14 
  -8  -5   2    2.68    0.18 
  -7  -5   2    0.45    0.07 
  -7  -5   2    0.57    0.08 
  -7  -5   2    0.42    0.09 
  -7  -5   2    0.44    0.09 
  -6  -5   2    5.97    0.23 
  -6  -5   2    6.48    0.27 
  -6  -5   2    6.55    0.23 
  -6  -5   2    6.39    0.28 
  -5  -5   2    0.36    0.09 
  -5  -5   2    0.44    0.07 
  -5  -5   2    0.33    0.06 
  -5  -5   2    0.25    0.07 
   4   5  -2    0.23    0.03 
   4   5  -2    0.24    0.03 
  -4  -5   2    0.16    0.05 
  -4  -5   2    0.23    0.07 
  -4  -5   2    0.13    0.06 
  -4  -5   2    0.19    0.05 
  -4  -5   2    0.15    0.05 
  -3  -5   2   18.35    0.56 
  -3  -5   2   18.47    0.54 
  -3  -5   2   19.28    0.51 
  -3  -5   2   19.51    0.56 
  -3  -5   2   19.22    0.48 
   2   5  -2  158.16    3.16 
   2   5  -2  156.67    3.16 
  -2  -5   2  158.27    3.12 
  -2  -5   2  159.74    3.23 
  -2  -5   2  157.76    3.17 
  -2  -5   2  149.94    3.23 
  -2  -5   2  159.46    3.25 
   1   5  -2    5.12    0.22 
   1   5  -2    4.73    0.20 
   1   5  -2    4.79    0.25 
  -1  -5   2    4.84    0.25 
  -1  -5   2    4.79    0.25 
  -1  -5   2    4.88    0.26 
  -1  -5   2    5.41    0.22 
   0   5  -2    2.50    0.16 
   0   5  -2    2.21    0.14 
   0   5  -2    2.31    0.18 
   0  -5   2    2.28    0.19 
   0  -5   2    2.37    0.18 
  -1   5  -2   22.28    0.61 
  -1   5  -2   21.14    0.57 
  -1   5  -2   21.45    0.67 
   1  -5   2   21.79    0.66 
   1  -5   2   21.76    0.64 
  -2   5  -2   28.70    0.83 
  -2   5  -2   27.70    0.73 
  -2   5  -2   29.13    0.76 
   2  -5   2   28.20    0.79 
   2  -5   2   29.32    0.81 
  -3   5  -2    4.04    0.27 
  -3   5  -2    4.64    0.24 
  -3   5  -2    4.83    0.25 
   3  -5   2    4.86    0.27 
   3  -5   2    4.64    0.27 
  -4   5  -2   -0.02    0.06 
  -4   5  -2    0.13    0.10 
  -4   5  -2    0.02    0.06 
  -4   5  -2   -0.03    0.07 
   4  -5   2   -0.09    0.05 
   4  -5   2    0.04    0.05 
  -5   5  -2    0.32    0.11 
  -5   5  -2    0.21    0.08 
  -6   5  -2   11.16    0.48 
  -6   5  -2   10.60    0.44 
  -7   5  -2    1.61    0.23 
  -7   5  -2    1.21    0.18 
 -10  -4   2    0.08    0.04 
  -9  -4   2    0.44    0.06 
  -9  -4   2    0.47    0.07 
  -8  -4   2    0.23    0.03 
  -8  -4   2    0.14    0.05 
  -8  -4   2    0.22    0.03 
  -8  -4   2    0.14    0.05 
  -7  -4   2    3.45    0.12 
  -7  -4   2    3.27    0.12 
  -7  -4   2    3.38    0.16 
  -7  -4   2    3.30    0.16 
  -6  -4   2    6.75    0.20 
  -6  -4   2    6.47    0.24 
  -6  -4   2    6.76    0.20 
  -6  -4   2    6.33    0.24 
  -5  -4   2    2.64    0.15 
  -5  -4   2    2.62    0.12 
  -5  -4   2    2.72    0.16 
  -5  -4   2    2.66    0.13 
   4   4  -2    1.31    0.09 
  -4  -4   2    1.25    0.12 
  -4  -4   2    1.11    0.10 
  -4  -4   2    1.27    0.09 
  -4  -4   2    1.28    0.09 
  -4  -4   2    1.32    0.11 
   3   4  -2    1.69    0.09 
   3   4  -2    1.81    0.13 
   3   4  -2    1.69    0.08 
  -3  -4   2    1.64    0.13 
  -3  -4   2    1.78    0.12 
  -3  -4   2    1.81    0.10 
  -3  -4   2    1.78    0.11 
  -3  -4   2    1.72    0.14 
   2   4  -2   92.48    1.89 
   2   4  -2   92.25    1.89 
   2   4  -2   92.05    1.96 
   2   4  -2   94.45    1.89 
  -2  -4   2   90.62    1.90 
  -2  -4   2   92.92    1.96 
  -2  -4   2   91.68    1.93 
  -2  -4   2   93.89    1.86 
  -2  -4   2   92.66    1.95 
   1   4  -2   31.83    0.82 
   1   4  -2   33.66    0.78 
   1   4  -2   33.40    0.83 
   1   4  -2   32.95    0.77 
   1   4  -2   33.53    0.75 
  -1  -4   2   33.78    0.74 
  -1  -4   2   33.68    0.77 
  -1  -4   2   34.71    0.84 
   0   4  -2   29.22    0.67 
   0   4  -2   29.34    0.73 
   0   4  -2   28.59    0.75 
   0   4  -2   29.87    0.71 
   0   4  -2   29.00    0.76 
   0  -4   2   29.34    0.76 
   0  -4   2   29.69    0.75 
   0  -4   2   28.91    0.75 
   0  -4   2   29.56    0.70 
   0  -4   2   28.92    0.69 
  -1   4  -2   -0.05    0.04 
  -1   4  -2   -0.02    0.04 
  -1   4  -2    0.05    0.04 
  -1   4  -2   -0.03    0.03 
  -1   4  -2    0.03    0.04 
   1  -4   2    0.09    0.05 
   1  -4   2   -0.02    0.04 
   1  -4   2   -0.05    0.04 
  -2   4  -2    4.67    0.25 
  -2   4  -2    4.71    0.24 
  -2   4  -2    4.52    0.21 
  -2   4  -2    4.73    0.25 
  -2   4  -2    4.62    0.22 
   2  -4   2    4.60    0.24 
   2  -4   2    4.91    0.25 
  -3   4  -2   19.56    0.58 
  -3   4  -2   19.17    0.56 
  -3   4  -2   19.43    0.55 
  -3   4  -2   18.68    0.60 
  -3   4  -2   18.74    0.59 
   3  -4   2   18.75    0.58 
   3  -4   2   19.61    0.59 
  -4   4  -2    0.30    0.09 
  -4   4  -2    0.50    0.09 
  -4   4  -2    0.54    0.11 
  -4   4  -2    0.51    0.12 
  -4   4  -2    0.44    0.10 
   4  -4   2    0.54    0.11 
   4  -4   2    0.41    0.10 
  -5   4  -2    0.14    0.07 
  -5   4  -2    0.22    0.10 
  -5   4  -2    0.10    0.07 
   5  -4   2    0.15    0.07 
   5  -4   2    0.08    0.06 
  -6   4  -2    0.01    0.07 
  -6   4  -2    0.13    0.09 
  -7   4  -2    0.21    0.11 
  -7   4  -2    0.00    0.07 
  -8   4  -2    0.11    0.11 
  -8   4  -2    0.17    0.09 
  -8  -3   2    1.00    0.26 
  -7  -3   2    8.47    0.23 
  -7  -3   2    8.58    0.24 
  -6  -3   2    0.94    0.07 
  -6  -3   2    1.05    0.08 
  -5  -3   2    2.84    0.09 
  -5  -3   2    2.85    0.13 
  -5  -3   2    2.63    0.12 
  -5  -3   2    2.71    0.09 
   4   3  -2    1.41    0.06 
  -4  -3   2    1.36    0.07 
  -4  -3   2    1.32    0.07 
  -4  -3   2    1.43    0.10 
  -4  -3   2    1.26    0.09 
   3   3  -2   74.61    1.51 
   3   3  -2   73.81    1.50 
  -3  -3   2   72.05    1.51 
  -3  -3   2   73.27    1.47 
  -3  -3   2   71.33    1.49 
  -3  -3   2   72.70    1.49 
  -3  -3   2   72.31    1.52 
   2   3  -2   23.10    0.52 
   2   3  -2   21.96    0.56 
   2   3  -2   23.11    0.57 
  -2  -3   2   23.20    0.58 
  -2  -3   2   23.53    0.54 
  -2  -3   2   23.42    0.51 
  -2  -3   2   23.66    0.56 
  -2  -3   2   23.12    0.57 
   1   3  -2   33.29    0.78 
   1   3  -2   32.37    0.78 
   1   3  -2   33.35    0.71 
   1   3  -2   32.99    0.74 
   1   3  -2   32.93    0.73 
  -1  -3   2   33.78    0.70 
  -1  -3   2   32.52    0.73 
  -1  -3   2   33.64    0.77 
  -1  -3   2   33.43    0.78 
  -1  -3   2   31.30    0.77 
   0   3  -2    2.15    0.14 
   0   3  -2    2.20    0.13 
   0   3  -2    2.14    0.10 
   0   3  -2    2.22    0.12 
   0   3  -2    2.12    0.14 
   0  -3   2    2.08    0.14 
   0  -3   2    2.61    0.13 
   0  -3   2    2.18    0.11 
   0  -3   2    2.36    0.14 
  -1   3  -2   33.66    0.76 
  -1   3  -2   33.14    0.75 
  -1   3  -2   31.95    0.80 
  -1   3  -2   33.80    0.79 
  -1   3  -2   33.89    0.81 
   1  -3   2   33.08    0.81 
   1  -3   2   33.44    0.76 
   1  -3   2   31.66    0.80 
   1  -3   2   32.64    0.80 
   1  -3   2   33.32    0.77 
  -2   3  -2   45.57    1.07 
  -2   3  -2   44.27    1.06 
  -2   3  -2   44.61    1.02 
  -2   3  -2   45.76    1.04 
  -2   3  -2   44.99    1.01 
   2  -3   2   46.37    1.07 
   2  -3   2   45.62    1.06 
   2  -3   2   46.14    1.05 
  -3   3  -2   14.10    0.43 
  -3   3  -2   13.41    0.43 
  -3   3  -2   13.60    0.45 
  -3   3  -2   13.91    0.41 
  -3   3  -2   13.75    0.45 
   3  -3   2   13.68    0.43 
   3  -3   2   14.16    0.44 
  -4   3  -2    1.81    0.16 
  -4   3  -2    1.64    0.15 
  -4   3  -2    1.71    0.15 
  -4   3  -2    1.51    0.13 
  -4   3  -2    1.64    0.15 
   4  -3   2    1.83    0.15 
   4  -3   2    1.64    0.14 
  -5   3  -2    0.31    0.09 
  -5   3  -2    0.48    0.11 
  -5   3  -2    0.54    0.09 
  -5   3  -2    0.50    0.09 
  -5   3  -2    0.41    0.10 
   5  -3   2    0.55    0.09 
  -6   3  -2   17.26    0.60 
  -6   3  -2   15.87    0.51 
   6  -3   2   17.15    0.61 
  -7   3  -2    2.92    0.26 
  -7   3  -2    2.79    0.20 
  -8   3  -2    0.46    0.11 
  -8   3  -2    0.21    0.13 
  -9   3  -2    1.49    0.24 
  -9   3  -2    1.32    0.18 
 -11  -2   2    4.30    0.35 
 -10  -2   2    0.13    0.10 
  -8  -2   2    1.40    0.31 
  -7  -2   2    9.16    0.62 
  -6  -2   2    0.58    0.17 
  -5  -2   2    9.77    0.23 
  -5  -2   2    9.49    0.23 
  -4  -2   2   19.27    0.43 
  -4  -2   2   18.99    0.43 
   3   2  -2   14.88    0.33 
  -3  -2   2   14.06    0.32 
  -3  -2   2   14.42    0.35 
  -3  -2   2   14.63    0.32 
  -3  -2   2   14.88    0.36 
   2   2  -2    2.17    0.10 
   2   2  -2    2.08    0.10 
   2   2  -2    2.08    0.07 
   2   2  -2    1.94    0.07 
  -2  -2   2    2.01    0.10 
  -2  -2   2    2.03    0.08 
  -2  -2   2    1.97    0.11 
  -2  -2   2    2.09    0.09 
  -2  -2   2    1.97    0.09 
   1   2  -2  387.33    7.42 
   1   2  -2  390.81    7.42 
   1   2  -2  355.28    7.48 
   1   2  -2  386.29    7.38 
   1   2  -2  383.03    7.41 
  -1  -2   2  385.88    7.38 
  -1  -2   2  387.45    7.46 
  -1  -2   2  396.79    7.43 
  -1  -2   2  390.69    7.42 
  -1  -2   2  370.02    7.37 
   0   2  -2    1.45    0.09 
   0   2  -2    1.35    0.08 
   0   2  -2    1.52    0.10 
   0   2  -2    1.39    0.10 
   0   2  -2    1.33    0.07 
   0  -2   2    1.28    0.09 
   0  -2   2    1.22    0.09 
   0  -2   2    1.33    0.08 
   0  -2   2    1.51    0.10 
   0  -2   2    1.32    0.07 
  -1   2  -2   34.83    0.76 
  -1   2  -2   34.62    0.80 
  -1   2  -2   34.37    0.79 
  -1   2  -2   35.15    0.78 
  -1   2  -2   34.88    0.75 
   1  -2   2   34.06    0.77 
   1  -2   2   34.23    0.78 
   1  -2   2   33.12    0.79 
   1  -2   2   35.15    0.80 
   1  -2   2   33.15    0.75 
  -2   2  -2   26.27    0.64 
  -2   2  -2   25.46    0.62 
  -2   2  -2   26.54    0.63 
  -2   2  -2   25.04    0.60 
  -2   2  -2   25.45    0.64 
   2  -2   2   26.22    0.63 
   2  -2   2   24.55    0.59 
   2  -2   2   26.18    0.64 
   2  -2   2   25.94    0.64 
  -3   2  -2   19.45    0.53 
  -3   2  -2   19.10    0.52 
  -3   2  -2   18.60    0.48 
  -3   2  -2   18.41    0.51 
  -3   2  -2   18.95    0.53 
   3  -2   2   19.55    0.52 
   3  -2   2   19.21    0.51 
  -4   2  -2    9.77    0.34 
  -4   2  -2    9.38    0.36 
  -4   2  -2    9.59    0.31 
  -4   2  -2   10.40    0.36 
  -4   2  -2    9.64    0.33 
   4  -2   2    9.76    0.33 
  -5   2  -2    0.30    0.07 
  -5   2  -2    0.18    0.06 
  -5   2  -2    0.14    0.06 
  -5   2  -2    0.27    0.09 
  -5   2  -2    0.27    0.06 
   5  -2   2    0.18    0.06 
  -6   2  -2   -0.04    0.04 
  -6   2  -2   -0.03    0.05 
  -6   2  -2    0.02    0.05 
  -6   2  -2   -0.05    0.06 
  -6   2  -2   -0.02    0.04 
   6  -2   2    0.00    0.05 
  -7   2  -2    5.11    0.24 
  -7   2  -2    5.16    0.33 
  -8   2  -2    1.34    0.15 
  -8   2  -2    1.38    0.23 
  -9   2  -2    0.34    0.14 
  -9   2  -2    0.38    0.10 
 -10  -1   2   -0.04    0.09 
 -10  -1   2   -0.01    0.03 
  -9  -1   2    1.42    0.20 
  -9  -1   2    1.34    0.09 
  -8  -1   2    2.13    0.09 
  -8  -1   2    1.93    0.22 
  -7  -1   2    5.81    0.50 
  -6  -1   2    0.06    0.10 
  -5  -1   2    2.51    0.28 
  -4  -1   2    0.03    0.02 
  -4  -1   2    0.02    0.01 
  -3  -1   2    9.29    0.21 
  -3  -1   2    9.19    0.22 
  -3  -1   2    9.20    0.22 
   2   1  -2    4.89    0.13 
   2   1  -2    4.88    0.13 
   2   1  -2    4.95    0.14 
   2   1  -2    4.75    0.13 
  -2  -1   2    4.71    0.14 
  -2  -1   2    4.99    0.15 
  -2  -1   2    4.68    0.12 
  -2  -1   2    5.01    0.12 
   1   1  -2    0.65    0.05 
   1   1  -2    0.65    0.05 
   1   1  -2    0.75    0.05 
  -1  -1   2    0.72    0.06 
  -1  -1   2    0.77    0.05 
  -1  -1   2    0.63    0.05 
  -1  -1   2    0.64    0.04 
  -1  -1   2    0.71    0.03 
   0   1  -2  155.44    3.08 
   0   1  -2  160.62    3.08 
   0   1  -2  159.37    3.08 
   0   1  -2  155.36    3.05 
   0   1  -2  158.45    3.06 
   0  -1   2  147.48    3.06 
   0  -1   2  157.83    3.08 
   0  -1   2  154.03    3.05 
   0  -1   2  160.09    3.08 
  -1   1  -2  296.99    5.80 
  -1   1  -2  291.79    5.81 
  -1   1  -2  305.08    5.82 
  -1   1  -2  304.58    5.83 
  -1   1  -2  289.30    5.79 
   1  -1   2  299.72    5.80 
   1  -1   2  299.86    5.83 
   1  -1   2  299.38    5.81 
   1  -1   2  313.05    5.84 
  -2   1  -2   43.17    0.94 
  -2   1  -2   42.67    0.94 
  -2   1  -2   42.52    0.92 
  -2   1  -2   42.20    0.91 
   2  -1   2   42.53    0.90 
   2  -1   2   43.22    0.93 
   2  -1   2   42.26    0.92 
   2  -1   2   42.09    0.94 
  -3   1  -2   11.33    0.31 
  -3   1  -2   11.26    0.34 
  -3   1  -2   11.83    0.33 
  -3   1  -2   11.48    0.35 
   3  -1   2   11.52    0.30 
   3  -1   2   11.11    0.33 
  -4   1  -2    3.94    0.17 
  -4   1  -2    3.63    0.18 
  -4   1  -2    4.06    0.19 
  -4   1  -2    4.12    0.18 
  -5   1  -2   -0.06    0.03 
  -5   1  -2   -0.09    0.04 
  -5   1  -2   -0.02    0.03 
  -5   1  -2    0.01    0.04 
  -5   1  -2    0.02    0.04 
   5  -1   2    0.02    0.04 
  -6   1  -2    1.21    0.11 
  -6   1  -2    1.63    0.20 
  -6   1  -2    1.45    0.13 
  -6   1  -2    1.13    0.13 
  -6   1  -2    1.30    0.13 
   6  -1   2    1.16    0.11 
  -7   1  -2   10.27    0.34 
  -7   1  -2   10.38    0.37 
  -7   1  -2    9.83    0.37 
  -7   1  -2    9.94    0.45 
  -7   1  -2   10.15    0.38 
   7  -1   2    9.65    0.29 
  -8   1  -2    1.48    0.15 
  -8   1  -2    1.90    0.25 
  -9   1  -2    0.25    0.12 
  -9   1  -2    0.18    0.08 
 -10   1  -2    0.02    0.06 
 -10   1  -2   -0.01    0.11 
 -10   0   2   10.80    0.51 
 -10   0   2    9.82    0.29 
  -9   0   2    0.19    0.10 
  -9   0   2    0.06    0.03 
  -8   0   2   12.69    0.30 
  -8   0   2   13.10    0.51 
  -8   0   2   12.75    0.36 
  -8   0   2   13.35    0.37 
  -7   0   2    1.16    0.16 
  -7   0   2    1.19    0.09 
  -7   0   2    1.12    0.08 
  -6   0   2   15.86    0.51 
  -6   0   2   15.43    0.36 
  -6   0   2   15.14    0.37 
  -5   0   2    0.08    0.02 
  -5   0   2    0.09    0.03 
  -5   0   2    0.11    0.05 
  -4   0   2   23.40    0.50 
  -4   0   2   23.14    0.50 
  -4   0   2   22.91    0.48 
  -4   0   2   22.66    0.58 
  -3   0   2   17.14    0.37 
  -3   0   2   16.79    0.38 
  -3   0   2   17.19    0.43 
  -3   0   2   17.25    0.38 
   2   0  -2   21.47    0.44 
   2   0  -2   21.45    0.43 
  -2   0   2   21.29    0.47 
  -2   0   2   20.53    0.46 
  -2   0   2   21.35    0.47 
  -2   0   2   21.39    0.47 
   1   0  -2   50.71    1.00 
   1   0  -2   49.27    1.00 
   1   0  -2   49.47    0.98 
   1   0  -2   49.18    1.01 
   1   0  -2   48.30    0.97 
  -1   0   2   47.86    0.99 
  -1   0   2   49.31    0.98 
  -1   0   2   49.36    0.97 
  -1   0   2   49.25    1.01 
  -1   0   2   50.60    1.02 
  -1   0   2   49.22    1.02 
  -1   0   2   50.17    1.01 
   0   0  -2   30.63    0.65 
   0   0  -2   30.57    0.64 
   0   0  -2   30.86    0.65 
   0   0  -2   30.47    0.63 
   0   0   2   30.07    0.63 
   0   0   2   29.42    0.65 
   0   0   2   30.00    0.64 
  -1   0  -2   80.80    1.65 
  -1   0  -2   79.95    1.65 
  -1   0  -2   83.61    1.67 
  -1   0  -2   80.85    1.67 
   1   0   2   82.08    1.65 
   1   0   2   83.94    1.67 
   1   0   2   84.96    1.65 
  -2   0  -2  324.19    6.24 
  -2   0  -2  320.30    6.26 
  -2   0  -2  329.25    6.27 
  -2   0  -2  313.28    6.24 
   2   0   2  328.40    6.26 
   2   0   2  322.81    6.23 
  -3   0  -2   49.76    1.03 
  -3   0  -2   49.32    1.06 
  -3   0  -2   50.17    1.03 
  -3   0  -2   49.99    1.05 
   3   0   2   45.86    1.00 
  -4   0  -2  119.88    2.40 
  -4   0  -2  121.24    2.42 
  -4   0  -2  120.26    2.39 
  -4   0  -2  118.86    2.42 
   4   0   2  117.73    2.40 
  -5   0  -2   13.76    0.40 
  -5   0  -2   13.71    0.41 
  -5   0  -2   14.01    0.37 
  -5   0  -2   14.27    0.38 
   5   0   2   14.03    0.38 
  -6   0  -2    3.08    0.17 
  -6   0  -2    3.01    0.17 
  -6   0  -2    3.19    0.16 
  -6   0  -2    2.89    0.15 
   6   0   2    2.98    0.13 
  -7   0  -2    3.60    0.20 
  -7   0  -2    3.40    0.19 
  -7   0  -2    3.47    0.18 
  -7   0  -2    3.71    0.18 
  -8   0  -2    1.83    0.14 
  -9   0  -2   -0.06    0.04 
  -9   0  -2    0.07    0.10 
 -10   0  -2    1.25    0.14 
 -10   0  -2    1.79    0.28 
 -10   1   2    5.13    0.22 
 -10   1   2    5.98    0.38 
  -9   1   2    0.07    0.04 
  -9   1   2    0.06    0.09 
  -8   1   2    0.49    0.09 
  -8   1   2    0.64    0.07 
  -8   1   2    0.52    0.14 
  -8   1   2    0.48    0.09 
  -7   1   2    6.71    0.20 
  -7   1   2    6.75    0.25 
  -7   1   2    6.81    0.25 
  -7   1   2    6.68    0.33 
  -6   1   2    8.45    0.28 
  -6   1   2    8.19    0.27 
  -6   1   2    8.69    0.36 
  -6   1   2    8.20    0.22 
  -5   1   2   14.47    0.38 
  -5   1   2   13.65    0.44 
  -5   1   2   13.85    0.37 
  -5   1   2   13.55    0.31 
  -4   1   2    1.23    0.05 
  -4   1   2    1.21    0.08 
  -4   1   2    1.19    0.10 
  -4   1   2    1.22    0.09 
   3  -1  -2    3.92    0.11 
   3  -1  -2    3.92    0.10 
  -3   1   2    3.90    0.14 
  -3   1   2    3.90    0.16 
  -3   1   2    3.86    0.15 
  -3   1   2    3.94    0.11 
   2  -1  -2   53.67    1.06 
   2  -1  -2   51.33    1.09 
   2  -1  -2   51.82    1.05 
   2  -1  -2   52.88    1.06 
  -2   1   2   50.91    1.08 
  -2   1   2   53.12    1.09 
  -2   1   2   52.67    1.09 
  -2   1   2   51.85    1.04 
   1  -1  -2   70.48    1.43 
   1  -1  -2   72.50    1.46 
   1  -1  -2   72.20    1.42 
  -1   1   2   71.55    1.43 
  -1   1   2   73.14    1.47 
  -1   1   2   70.67    1.43 
  -1   1   2   73.60    1.47 
  -1   1   2   73.49    1.47 
   0  -1  -2  177.84    3.47 
   0  -1  -2  182.69    3.52 
   0  -1  -2  182.09    3.53 
   0  -1  -2  176.49    3.49 
   0  -1  -2  176.03    3.52 
   0   1   2  183.01    3.53 
   0   1   2  179.09    3.49 
   0   1   2  182.26    3.48 
   0   1   2  181.46    3.53 
   0   1   2  179.24    3.52 
  -1  -1  -2  311.41    6.04 
  -1  -1  -2  311.28    6.00 
  -1  -1  -2  312.39    6.04 
  -1  -1  -2  315.75    6.03 
   1   1   2  304.01    6.03 
   1   1   2  314.79    6.03 
  -2  -1  -2  218.82    4.27 
  -2  -1  -2  228.35    4.30 
   2   1   2  217.45    4.26 
   2   1   2  215.69    4.29 
  -3  -1  -2   12.44    0.33 
  -3  -1  -2   12.70    0.31 
   3   1   2   10.07    0.31 
   3   1   2   12.34    0.28 
  -4  -1  -2    3.15    0.13 
  -4  -1  -2    3.09    0.14 
   4   1   2    2.78    0.13 
  -5  -1  -2    2.84    0.14 
  -5  -1  -2    2.73    0.12 
  -6  -1  -2    0.35    0.06 
  -6  -1  -2    0.40    0.07 
  -6  -1  -2    0.35    0.06 
  -7  -1  -2    0.76    0.09 
  -7  -1  -2    0.87    0.09 
  -7  -1  -2    0.79    0.10 
  -7  -1  -2    0.71    0.09 
  -8  -1  -2    0.28    0.07 
  -8  -1  -2    0.32    0.06 
  -8  -1  -2    0.25    0.07 
  -8  -1  -2    0.25    0.07 
  -9  -1  -2    0.20    0.07 
 -10  -1  -2   -0.01    0.05 
 -11  -1  -2    2.92    0.36 
 -11  -1  -2    2.54    0.19 
  -9   2   2    1.32    0.22 
  -9   2   2    1.15    0.12 
  -8   2   2   -0.01    0.08 
  -8   2   2    0.15    0.05 
  -7   2   2    7.20    0.30 
  -7   2   2    7.10    0.35 
  -7   2   2    6.94    0.24 
  -7   2   2    6.77    0.29 
  -6   2   2   11.37    0.38 
  -6   2   2   11.00    0.37 
  -6   2   2   10.67    0.31 
  -6   2   2   10.89    0.42 
  -5   2   2    6.74    0.29 
  -5   2   2    6.84    0.26 
  -5   2   2    6.87    0.21 
  -5   2   2    6.75    0.26 
   4  -2  -2    4.62    0.18 
   4  -2  -2    4.27    0.12 
   4  -2  -2    4.20    0.14 
  -4   2   2    4.02    0.19 
  -4   2   2    3.99    0.20 
  -4   2   2    4.08    0.19 
  -4   2   2    4.19    0.15 
   3  -2  -2   39.18    0.84 
   3  -2  -2   38.49    0.81 
   3  -2  -2   38.61    0.82 
   3  -2  -2   37.65    0.89 
  -3   2   2   37.12    0.81 
  -3   2   2   38.54    0.87 
  -3   2   2   38.22    0.87 
  -3   2   2   38.25    0.87 
   2  -2  -2    1.06    0.09 
   2  -2  -2    1.07    0.08 
   2  -2  -2    1.08    0.05 
   2  -2  -2    0.89    0.07 
   2  -2  -2    1.10    0.08 
  -2   2   2    0.99    0.09 
  -2   2   2    1.19    0.09 
  -2   2   2    1.07    0.08 
  -2   2   2    1.01    0.07 
   1  -2  -2   32.55    0.73 
   1  -2  -2   33.32    0.70 
   1  -2  -2   31.52    0.68 
  -1   2   2   32.16    0.70 
  -1   2   2   33.03    0.75 
  -1   2   2   31.52    0.69 
  -1   2   2   32.24    0.74 
   0  -2  -2    2.45    0.10 
   0  -2  -2    2.36    0.13 
   0  -2  -2    2.50    0.13 
   0  -2  -2    2.41    0.09 
   0   2   2    2.37    0.13 
   0   2   2    2.43    0.13 
   0   2   2    2.19    0.10 
  -1  -2  -2   15.99    0.43 
  -1  -2  -2   16.33    0.39 
  -1  -2  -2   16.67    0.43 
  -1  -2  -2   16.78    0.43 
  -1  -2  -2   16.96    0.40 
   1   2   2   16.16    0.43 
   1   2   2   16.64    0.43 
   1   2   2   16.34    0.39 
  -2  -2  -2   47.78    1.03 
  -2  -2  -2   47.94    1.03 
  -2  -2  -2   47.07    1.03 
  -2  -2  -2   47.21    0.98 
   2   2   2   46.74    1.01 
   2   2   2   46.89    0.97 
  -3  -2  -2   72.62    1.51 
  -3  -2  -2   73.09    1.51 
  -3  -2  -2   71.49    1.46 
   3   2   2   72.09    1.43 
  -4  -2  -2    4.27    0.15 
  -4  -2  -2    4.00    0.17 
  -5  -2  -2    0.18    0.05 
  -5  -2  -2    0.19    0.04 
  -6  -2  -2   16.31    0.45 
  -6  -2  -2   16.73    0.42 
  -7  -2  -2    0.20    0.06 
  -7  -2  -2    0.14    0.04 
  -8  -2  -2    1.03    0.11 
  -8  -2  -2    1.11    0.10 
  -9  -2  -2   -0.05    0.10 
 -10  -2  -2    0.04    0.06 
 -11  -2  -2    0.98    0.15 
 -11  -2  -2    0.60    0.11 
  -9   3   2    7.84    0.42 
  -9   3   2    7.26    0.32 
  -8   3   2    0.13    0.07 
  -8   3   2    0.03    0.09 
  -7   3   2    3.16    0.18 
  -7   3   2    3.14    0.24 
  -6   3   2   16.02    0.45 
  -6   3   2   15.45    0.54 
  -6   3   2   16.46    0.53 
  -6   3   2   16.33    0.52 
   5  -3  -2   31.11    0.67 
   5  -3  -2   31.76    0.71 
  -5   3   2   31.81    0.75 
  -5   3   2   32.71    0.84 
  -5   3   2   30.98    0.82 
  -5   3   2   33.04    0.84 
   4  -3  -2   13.40    0.36 
   4  -3  -2   13.61    0.37 
  -4   3   2   13.89    0.44 
  -4   3   2   13.65    0.43 
  -4   3   2   13.50    0.44 
  -4   3   2   13.39    0.38 
   3  -3  -2    9.90    0.29 
   3  -3  -2    9.52    0.23 
   3  -3  -2    9.58    0.30 
  -3   3   2    9.68    0.34 
  -3   3   2    9.41    0.34 
  -3   3   2    9.54    0.29 
  -3   3   2    9.53    0.32 
   2  -3  -2    0.51    0.07 
   2  -3  -2    0.54    0.05 
   2  -3  -2    0.75    0.09 
  -2   3   2    0.55    0.09 
  -2   3   2    0.38    0.06 
  -2   3   2    0.43    0.08 
  -2   3   2    0.45    0.06 
   1  -3  -2   49.47    1.01 
   1  -3  -2   48.66    1.07 
   1  -3  -2   49.29    1.04 
   1  -3  -2   48.90    1.07 
  -1   3   2   46.70    1.03 
  -1   3   2   49.21    1.10 
  -1   3   2   47.69    1.09 
  -1   3   2   46.74    1.04 
   0  -3  -2    0.07    0.03 
   0  -3  -2    0.15    0.05 
   0  -3  -2    0.03    0.04 
   0  -3  -2    0.11    0.03 
   0   3   2    0.03    0.03 
   0   3   2    0.10    0.04 
   0   3   2    0.00    0.03 
   0   3   2    0.03    0.03 
  -1  -3  -2    6.22    0.25 
  -1  -3  -2    6.68    0.21 
  -1  -3  -2    6.22    0.24 
  -1  -3  -2    6.36    0.21 
   1   3   2    6.65    0.25 
   1   3   2    6.98    0.22 
   1   3   2    6.55    0.22 
   1   3   2    6.16    0.25 
  -2  -3  -2   22.35    0.58 
  -2  -3  -2   22.07    0.52 
  -2  -3  -2   22.48    0.54 
  -2  -3  -2   22.06    0.57 
   2   3   2   21.95    0.51 
   2   3   2   21.42    0.56 
   2   3   2   22.67    0.57 
  -3  -3  -2    5.06    0.18 
  -3  -3  -2    4.74    0.21 
  -3  -3  -2    4.66    0.21 
   3   3   2    5.07    0.19 
  -4  -3  -2    0.00    0.03 
  -4  -3  -2    0.15    0.04 
  -4  -3  -2    0.02    0.04 
  -4  -3  -2   -0.03    0.03 
  -5  -3  -2   61.46    1.33 
  -5  -3  -2   60.30    1.33 
  -5  -3  -2   60.63    1.26 
  -5  -3  -2   60.14    1.33 
  -6  -3  -2    9.74    0.33 
  -6  -3  -2   10.11    0.28 
  -6  -3  -2    9.23    0.33 
  -7  -3  -2    1.44    0.10 
  -7  -3  -2    1.42    0.14 
  -7  -3  -2    1.51    0.12 
  -8  -3  -2    0.77    0.10 
  -8  -3  -2    0.74    0.11 
  -8  -3  -2    0.84    0.09 
  -9  -3  -2    1.20    0.15 
 -10  -3  -2    0.06    0.07 
 -11  -3  -2    0.82    0.12 
 -11  -3  -2    0.79    0.14 
  -8   4   2   -0.01    0.07 
  -8   4   2    0.03    0.10 
  -7   4   2    0.08    0.06 
  -7   4   2    0.03    0.09 
  -6   4   2    7.85    0.32 
  -6   4   2    7.87    0.37 
   5  -4  -2    0.27    0.07 
   5  -4  -2    0.21    0.06 
  -5   4   2    0.15    0.08 
  -5   4   2    0.14    0.06 
  -5   4   2    0.29    0.09 
  -5   4   2    0.46    0.11 
   4  -4  -2    5.01    0.21 
   4  -4  -2    5.22    0.22 
  -4   4   2    5.12    0.25 
  -4   4   2    4.80    0.22 
  -4   4   2    5.21    0.27 
  -4   4   2    4.99    0.27 
   3  -4  -2    0.14    0.05 
   3  -4  -2    0.17    0.05 
  -3   4   2    0.16    0.06 
  -3   4   2    0.20    0.08 
  -3   4   2    0.10    0.06 
  -3   4   2    0.09    0.05 
   2  -4  -2   -0.02    0.04 
   2  -4  -2    0.03    0.04 
  -2   4   2   -0.04    0.04 
  -2   4   2   -0.07    0.03 
  -2   4   2    0.06    0.05 
  -2   4   2    0.03    0.05 
   1  -4  -2    6.48    0.22 
   1  -4  -2    6.75    0.27 
   1  -4  -2    6.71    0.27 
  -1   4   2    6.34    0.28 
  -1   4   2    6.53    0.29 
  -1   4   2    6.77    0.24 
  -1   4   2    6.81    0.25 
   0  -4  -2    1.37    0.09 
   0  -4  -2    1.46    0.13 
   0  -4  -2    1.33    0.13 
   0   4   2    1.37    0.10 
   0   4   2    1.75    0.14 
   0   4   2    1.52    0.14 
  -1  -4  -2    7.77    0.31 
  -1  -4  -2    8.24    0.26 
  -1  -4  -2    8.37    0.27 
   1   4   2    8.20    0.27 
   1   4   2    8.19    0.31 
   1   4   2    8.59    0.32 
  -2  -4  -2   42.26    1.04 
  -2  -4  -2   43.05    1.05 
  -2  -4  -2   45.13    0.98 
  -2  -4  -2   44.60    0.98 
   2   4   2   44.97    0.97 
   2   4   2   46.20    1.05 
   2   4   2   44.61    1.04 
   2   4   2   44.73    1.02 
  -3  -4  -2   20.21    0.58 
  -3  -4  -2   20.44    0.54 
  -3  -4  -2   19.80    0.57 
  -3  -4  -2   20.56    0.51 
   3   4   2   20.78    0.56 
   3   4   2   20.22    0.55 
   3   4   2   20.47    0.49 
  -4  -4  -2    3.15    0.19 
  -4  -4  -2    3.19    0.19 
  -4  -4  -2    3.29    0.15 
   4   4   2    3.31    0.12 
   4   4   2    3.36    0.12 
  -5  -4  -2   14.84    0.46 
  -5  -4  -2   14.83    0.46 
  -5  -4  -2   14.60    0.39 
  -6  -4  -2    6.08    0.27 
  -6  -4  -2    6.21    0.22 
  -6  -4  -2    6.52    0.27 
  -6  -4  -2    5.87    0.26 
  -7  -4  -2    0.33    0.09 
  -7  -4  -2    0.40    0.07 
  -7  -4  -2    0.60    0.10 
  -7  -4  -2    0.38    0.09 
  -8  -4  -2    3.33    0.21 
  -8  -4  -2    3.25    0.16 
  -8  -4  -2    3.43    0.21 
  -8  -4  -2    3.14    0.19 
  -9  -4  -2    1.14    0.15 
  -9  -4  -2    1.09    0.15 
 -10  -4  -2    0.30    0.10 
 -10  -4  -2    0.32    0.10 
 -11  -4  -2    0.52    0.12 
 -11  -4  -2    0.45    0.12 
  -8   5   2    1.39    0.18 
  -8   5   2    1.68    0.24 
  -7   5   2    0.42    0.13 
  -7   5   2    0.36    0.10 
  -6   5   2    0.44    0.10 
  -6   5   2    0.40    0.13 
  -5   5   2   35.88    0.95 
  -5   5   2   35.00    0.91 
   4  -5  -2   26.12    0.70 
  -4   5   2   26.00    0.73 
  -4   5   2   25.32    0.79 
  -4   5   2   25.49    0.70 
  -4   5   2   26.06    0.79 
   3  -5  -2    0.04    0.04 
   3  -5  -2    0.06    0.05 
  -3   5   2    0.05    0.06 
  -3   5   2    0.08    0.06 
  -3   5   2    0.04    0.08 
  -3   5   2    0.00    0.05 
   2  -5  -2    5.57    0.27 
   2  -5  -2    5.65    0.27 
  -2   5   2    5.96    0.26 
  -2   5   2    5.42    0.24 
  -2   5   2    5.56    0.30 
  -2   5   2    5.56    0.30 
   1  -5  -2    2.32    0.18 
   1  -5  -2    2.15    0.17 
  -1   5   2    2.30    0.19 
  -1   5   2    1.93    0.18 
  -1   5   2    2.11    0.15 
  -1   5   2    2.11    0.14 
   0  -5  -2   48.03    1.17 
   0  -5  -2   48.64    1.17 
   0   5   2   49.32    1.19 
   0   5   2   50.08    1.21 
   0   5   2   50.05    1.12 
   0   5   2   47.66    1.10 
  -1  -5  -2    7.63    0.28 
  -1  -5  -2    8.62    0.34 
  -1  -5  -2    8.03    0.33 
   1   5   2    7.89    0.33 
   1   5   2    7.64    0.29 
   1   5   2    8.21    0.35 
   1   5   2    7.91    0.29 
  -2  -5  -2    3.94    0.19 
  -2  -5  -2    3.56    0.22 
  -2  -5  -2    3.52    0.23 
   2   5   2    3.52    0.21 
   2   5   2    3.96    0.21 
   2   5   2    3.97    0.19 
   2   5   2    4.01    0.23 
  -3  -5  -2    5.00    0.21 
  -3  -5  -2    4.71    0.26 
  -3  -5  -2    5.02    0.27 
   3   5   2    4.64    0.19 
   3   5   2    4.61    0.24 
  -4  -5  -2    1.50    0.12 
  -4  -5  -2    1.64    0.17 
  -4  -5  -2    1.41    0.16 
   4   5   2    1.31    0.09 
   4   5   2    1.47    0.13 
  -5  -5  -2    0.06    0.07 
  -5  -5  -2    0.01    0.04 
  -5  -5  -2    0.03    0.06 
  -6  -5  -2    2.00    0.18 
  -6  -5  -2    1.99    0.17 
  -6  -5  -2    2.07    0.14 
  -7  -5  -2   13.54    0.40 
  -7  -5  -2   14.21    0.48 
  -7  -5  -2   14.01    0.47 
  -7  -5  -2   13.65    0.48 
  -8  -5  -2    1.69    0.16 
  -8  -5  -2    1.68    0.13 
  -8  -5  -2    1.46    0.17 
  -8  -5  -2    1.54    0.18 
  -9  -5  -2    0.14    0.08 
  -9  -5  -2    0.04    0.07 
 -10  -5  -2    1.17    0.17 
 -10  -5  -2    0.87    0.14 
 -11  -5  -2    0.58    0.14 
 -11  -5  -2    0.66    0.13 
  -7   6   2    0.11    0.08 
  -7   6   2   -0.02    0.09 
  -6   6   2    0.49    0.14 
  -6   6   2    0.58    0.13 
  -5   6   2    3.16    0.24 
  -5   6   2    3.11    0.24 
   4  -6  -2   23.44    0.70 
  -4   6   2   22.38    0.68 
  -4   6   2   23.19    0.69 
   3  -6  -2   12.36    0.45 
   3  -6  -2   12.01    0.44 
  -3   6   2   11.72    0.50 
  -3   6   2   11.45    0.50 
  -3   6   2   11.28    0.43 
  -3   6   2   12.04    0.43 
   2  -6  -2    9.37    0.38 
   2  -6  -2    9.27    0.38 
  -2   6   2    9.06    0.35 
  -2   6   2    9.31    0.37 
  -2   6   2    9.69    0.43 
  -2   6   2    9.28    0.43 
   1  -6  -2    0.24    0.09 
   1  -6  -2    0.21    0.08 
  -1   6   2    0.35    0.10 
  -1   6   2    0.18    0.09 
  -1   6   2    0.21    0.07 
  -1   6   2    0.29    0.07 
   0  -6  -2   17.42    0.57 
   0  -6  -2   16.93    0.56 
   0   6   2   16.36    0.51 
   0   6   2   17.07    0.51 
   0   6   2   16.61    0.59 
  -1  -6  -2   12.30    0.46 
  -1  -6  -2   12.86    0.47 
   1   6   2   12.53    0.42 
   1   6   2   12.20    0.47 
   1   6   2   12.22    0.41 
  -2  -6  -2    0.94    0.14 
  -2  -6  -2    1.15    0.12 
  -2  -6  -2    1.32    0.17 
   2   6   2    1.16    0.15 
   2   6   2    1.46    0.13 
   2   6   2    1.40    0.16 
  -3  -6  -2    0.07    0.07 
  -3  -6  -2    0.05    0.07 
  -3  -6  -2    0.22    0.07 
   3   6   2    0.18    0.06 
  -4  -6  -2    0.56    0.12 
  -4  -6  -2    0.40    0.11 
  -4  -6  -2    0.46    0.09 
   4   6   2    0.43    0.07 
  -5  -6  -2    5.93    0.26 
  -5  -6  -2    5.65    0.30 
  -5  -6  -2    5.83    0.32 
   5   6   2    5.90    0.19 
  -6  -6  -2   17.12    0.58 
  -6  -6  -2   17.36    0.59 
  -6  -6  -2   17.85    0.51 
  -7  -6  -2    1.25    0.18 
  -7  -6  -2    1.26    0.14 
  -7  -6  -2    1.52    0.18 
  -8  -6  -2    0.32    0.11 
  -8  -6  -2    0.10    0.09 
  -9  -6  -2    0.03    0.07 
  -9  -6  -2   -0.05    0.07 
 -10  -6  -2    0.47    0.12 
 -10  -6  -2    0.34    0.12 
 -11  -6  -2    0.11    0.09 
 -11  -6  -2    0.13    0.10 
  -6   7   2    0.02    0.09 
  -6   7   2    0.12    0.11 
  -5   7   2    0.87    0.16 
  -5   7   2    0.62    0.15 
  -4   7   2    7.75    0.39 
  -4   7   2    7.86    0.38 
   3  -7  -2   20.22    0.67 
   3  -7  -2   20.85    0.67 
  -3   7   2   20.09    0.64 
  -3   7   2   20.48    0.66 
   2  -7  -2    0.46    0.11 
   2  -7  -2    0.84    0.15 
  -2   7   2    0.65    0.15 
  -2   7   2    0.62    0.12 
  -2   7   2    0.49    0.11 
   1  -7  -2    0.04    0.08 
   1  -7  -2   -0.06    0.06 
  -1   7   2   -0.12    0.04 
  -1   7   2    0.04    0.06 
  -1   7   2    0.00    0.06 
   0  -7  -2    0.66    0.14 
   0  -7  -2    0.73    0.15 
   0   7   2    0.59    0.11 
   0   7   2    0.70    0.12 
  -1  -7  -2    4.06    0.28 
  -1  -7  -2    3.70    0.27 
   1   7   2    4.25    0.25 
   1   7   2    3.73    0.23 
  -2  -7  -2    1.02    0.17 
  -2  -7  -2    0.79    0.16 
   2   7   2    0.74    0.11 
   2   7   2    1.09    0.15 
  -3  -7  -2    7.84    0.38 
  -3  -7  -2    8.00    0.32 
  -3  -7  -2    8.42    0.40 
   3   7   2    7.63    0.31 
   3   7   2    7.84    0.36 
  -4  -7  -2    3.25    0.26 
  -4  -7  -2    2.99    0.20 
  -4  -7  -2    3.05    0.25 
   4   7   2    3.01    0.18 
  -5  -7  -2    8.26    0.40 
  -5  -7  -2    8.31    0.41 
  -5  -7  -2    7.94    0.33 
   5   7   2    8.12    0.27 
  -6  -7  -2    3.32    0.27 
  -6  -7  -2    2.75    0.25 
  -6  -7  -2    3.53    0.22 
  -7  -7  -2    1.03    0.17 
  -7  -7  -2    1.01    0.18 
  -8  -7  -2   -0.02    0.09 
  -8  -7  -2    0.01    0.10 
  -9  -7  -2   -0.09    0.08 
  -9  -7  -2    0.03    0.09 
 -10  -7  -2    0.59    0.15 
 -10  -7  -2    0.59    0.14 
 -11  -7  -2    0.02    0.12 
 -11  -7  -2    0.28    0.12 
  -5   8   2    0.03    0.09 
  -5   8   2    0.02    0.09 
  -4   8   2    5.63    0.36 
  -4   8   2    6.14    0.36 
  -3   8   2    7.60    0.41 
  -3   8   2    8.31    0.39 
   2  -8  -2   -0.04    0.08 
   2  -8  -2   -0.02    0.09 
  -2   8   2    0.04    0.09 
  -2   8   2    0.03    0.09 
   1  -8  -2    1.13    0.18 
   1  -8  -2    1.27    0.20 
  -1   8   2    1.42    0.19 
  -1   8   2    1.33    0.17 
   0  -8  -2    2.42    0.26 
   0  -8  -2    1.90    0.22 
   0   8   2    1.95    0.21 
   0   8   2    2.54    0.21 
  -1  -8  -2   26.94    0.85 
  -1  -8  -2   27.29    0.86 
   1   8   2   27.48    0.80 
   1   8   2   26.71    0.78 
  -2  -8  -2    3.75    0.30 
  -2  -8  -2    3.76    0.30 
   2   8   2    3.60    0.26 
   2   8   2    3.76    0.24 
  -3  -8  -2   -0.04    0.11 
  -3  -8  -2    0.07    0.10 
   3   8   2    0.23    0.11 
   3   8   2    0.12    0.07 
  -4  -8  -2   -0.04    0.10 
  -4  -8  -2   -0.20    0.08 
   4   8   2   -0.02    0.05 
  -5  -8  -2    4.38    0.32 
  -5  -8  -2    4.89    0.29 
  -5  -8  -2    4.75    0.33 
   5   8   2    4.81    0.22 
  -6  -8  -2    0.03    0.11 
  -6  -8  -2    0.26    0.13 
  -7  -8  -2    3.00    0.29 
  -7  -8  -2    2.99    0.28 
  -8  -8  -2    1.69    0.22 
  -8  -8  -2    2.18    0.26 
  -9  -8  -2    1.75    0.23 
  -9  -8  -2    1.84    0.25 
 -10  -8  -2    2.18    0.26 
 -10  -8  -2    2.11    0.27 
  -4   9   2    0.16    0.13 
  -4   9   2    0.20    0.13 
  -3   9   2    1.85    0.24 
  -3   9   2    2.02    0.24 
  -2   9   2    0.61    0.16 
  -2   9   2    0.69    0.16 
   1  -9  -2    0.07    0.12 
   1  -9  -2    0.03    0.10 
  -1   9   2    0.23    0.10 
  -1   9   2    0.20    0.10 
   0  -9  -2    0.00    0.11 
   0  -9  -2    0.03    0.10 
   0   9   2   -0.04    0.07 
   0   9   2    0.02    0.08 
  -1  -9  -2    0.31    0.13 
  -1  -9  -2    0.25    0.14 
   1   9   2    0.40    0.13 
   1   9   2    0.17    0.09 
  -2  -9  -2    1.83    0.24 
  -2  -9  -2    1.95    0.27 
   2   9   2    1.91    0.21 
   2   9   2    2.38    0.26 
  -3  -9  -2    0.05    0.12 
  -3  -9  -2   -0.06    0.11 
   3   9   2   -0.04    0.07 
   3   9   2   -0.08    0.08 
  -4  -9  -2    3.92    0.32 
  -4  -9  -2    4.15    0.34 
   4   9   2    4.17    0.24 
  -5  -9  -2    0.13    0.12 
  -5  -9  -2    0.02    0.12 
  -6  -9  -2    0.60    0.16 
  -6  -9  -2    0.72    0.17 
  -7  -9  -2   -0.03    0.10 
  -7  -9  -2    0.13    0.12 
  -8  -9  -2    1.60    0.24 
  -8  -9  -2    1.83    0.25 
  -9  -9  -2    0.86    0.18 
  -9  -9  -2    1.17    0.22 
 -10  -9  -2    0.24    0.14 
 -10  -9  -2    0.28    0.14 
  -2  10   2    6.07    0.40 
  -2  10   2    5.60    0.37 
  -1  10   2    0.03    0.09 
  -1  10   2    0.16    0.13 
   0 -10  -2    0.53    0.17 
   0 -10  -2    0.36    0.16 
   0  10   2    0.30    0.12 
   0  10   2    0.24    0.13 
  -1 -10  -2    1.79    0.27 
  -1 -10  -2    1.98    0.26 
   1  10   2    1.84    0.25 
   1  10   2    1.55    0.22 
  -2 -10  -2    1.53    0.25 
  -2 -10  -2    1.14    0.21 
   2  10   2    1.47    0.19 
   2  10   2    2.06    0.26 
  -3 -10  -2    0.60    0.19 
  -3 -10  -2    0.66    0.19 
   3  10   2    0.95    0.19 
  -4 -10  -2    0.00    0.12 
  -4 -10  -2   -0.08    0.12 
  -5 -10  -2    3.24    0.34 
  -5 -10  -2    3.61    0.37 
  -6 -10  -2    2.59    0.29 
  -6 -10  -2    2.60    0.31 
  -7 -10  -2    1.31    0.23 
  -7 -10  -2    0.90    0.20 
  -8 -10  -2    0.21    0.13 
  -8 -10  -2    0.04    0.15 
  -9 -10  -2    1.88    0.28 
  -9 -10  -2    1.60    0.25 
   0  11   2    0.17    0.09 
   0  11   2   -0.03    0.10 
  -1 -11  -2    0.93    0.24 
  -1 -11  -2    1.09    0.26 
   1  11   2    1.09    0.23 
  -2 -11  -2    0.63    0.20 
  -2 -11  -2    0.61    0.19 
   2  11   2    0.60    0.18 
  -3 -11  -2    0.01    0.14 
  -3 -11  -2   -0.08    0.13 
   3  11   2    0.13    0.11 
  -4 -11  -2    0.50    0.20 
  -4 -11  -2    0.48    0.19 
  -5 -11  -2    0.09    0.15 
  -5 -11  -2   -0.10    0.14 
  -6 -11  -2   -0.02    0.13 
  -6 -11  -2   -0.11    0.14 
  -7 -11  -2    0.28    0.16 
  -7 -11  -2    0.01    0.15 
  -8 -11  -2    0.25    0.17 
  -7 -10   3    0.18    0.12 
  -6 -10   3    0.27    0.13 
  -6 -10   3    0.14    0.13 
  -5 -10   3    2.20    0.31 
  -5 -10   3    2.37    0.31 
  -4 -10   3    7.93    0.51 
  -4 -10   3    7.06    0.47 
   3  10  -3    3.24    0.26 
  -3 -10   3    3.00    0.34 
  -3 -10   3    2.62    0.33 
   2  10  -3   -0.04    0.09 
  -2 -10   3    0.18    0.16 
  -2 -10   3   -0.13    0.12 
   1  10  -3    0.70    0.16 
  -1 -10   3    0.65    0.22 
  -1 -10   3    0.66    0.21 
  -8  -9   3    0.10    0.11 
  -8  -9   3    0.13    0.13 
  -7  -9   3    0.17    0.12 
  -7  -9   3    0.11    0.14 
  -6  -9   3    1.09    0.19 
  -6  -9   3    0.95    0.18 
  -5  -9   3    0.92    0.18 
  -5  -9   3    1.04    0.20 
  -4  -9   3    2.10    0.26 
  -4  -9   3    2.99    0.31 
   3   9  -3    5.95    0.33 
  -3  -9   3    6.64    0.44 
  -3  -9   3    5.56    0.40 
   2   9  -3    0.24    0.11 
  -2  -9   3    0.03    0.12 
  -2  -9   3    0.39    0.17 
   1   9  -3    0.25    0.10 
  -1  -9   3    0.52    0.17 
  -1  -9   3    0.17    0.13 
   0   9  -3    0.44    0.12 
   0   9  -3    0.33    0.11 
   0  -9   3    0.75    0.18 
   0  -9   3    0.58    0.19 
  -1   9  -3    0.54    0.14 
  -1   9  -3    0.34    0.11 
   1  -9   3    0.19    0.15 
  -2   9  -3    0.27    0.14 
  -2   9  -3    0.18    0.10 
  -9  -8   3   -0.03    0.08 
  -9  -8   3   -0.02    0.10 
  -9  -8   3    0.07    0.09 
  -8  -8   3    0.12    0.11 
  -8  -8   3    0.24    0.12 
  -8  -8   3    0.30    0.10 
  -7  -8   3   -0.06    0.07 
  -7  -8   3    0.00    0.09 
  -7  -8   3   -0.04    0.09 
  -6  -8   3   -0.05    0.08 
  -6  -8   3   -0.06    0.06 
  -6  -8   3   -0.02    0.09 
  -5  -8   3   -0.01    0.08 
  -5  -8   3    0.16    0.11 
  -5  -8   3    0.09    0.11 
  -4  -8   3   18.66    0.68 
  -4  -8   3   18.71    0.69 
  -4  -8   3   18.27    0.67 
   3   8  -3   11.04    0.44 
  -3  -8   3   11.93    0.53 
  -3  -8   3   11.23    0.53 
  -3  -8   3   11.10    0.51 
   2   8  -3    0.05    0.08 
   2   8  -3    0.02    0.07 
  -2  -8   3   -0.09    0.10 
  -2  -8   3   -0.21    0.09 
   1   8  -3    0.61    0.12 
   1   8  -3    1.05    0.15 
  -1  -8   3    0.75    0.18 
  -1  -8   3    0.91    0.19 
   0   8  -3    0.03    0.06 
   0   8  -3   -0.01    0.07 
   0  -8   3    0.04    0.10 
   0  -8   3   -0.07    0.10 
  -1   8  -3    5.05    0.31 
  -1   8  -3    4.47    0.27 
   1  -8   3    5.35    0.38 
   1  -8   3    4.70    0.36 
  -2   8  -3    0.04    0.09 
  -2   8  -3    0.05    0.07 
   2  -8   3   -0.03    0.11 
  -3   8  -3    0.36    0.11 
  -3   8  -3    0.20    0.10 
 -10  -7   3    0.15    0.08 
 -10  -7   3    0.12    0.09 
 -10  -7   3    0.04    0.07 
  -9  -7   3   -0.01    0.07 
  -9  -7   3    0.02    0.06 
  -9  -7   3    0.01    0.09 
  -8  -7   3    0.02    0.08 
  -8  -7   3    0.05    0.08 
  -8  -7   3   -0.07    0.06 
  -7  -7   3    0.18    0.08 
  -7  -7   3    0.28    0.11 
  -7  -7   3    0.29    0.11 
  -6  -7   3   -0.13    0.07 
  -6  -7   3    0.07    0.08 
  -6  -7   3   -0.05    0.05 
  -5  -7   3    0.62    0.14 
  -5  -7   3    0.49    0.10 
  -5  -7   3    0.60    0.13 
   4   7  -3    0.43    0.08 
  -4  -7   3    0.27    0.10 
  -4  -7   3    0.31    0.10 
  -4  -7   3    0.29    0.12 
   3   7  -3    3.62    0.22 
   3   7  -3    3.61    0.22 
  -3  -7   3    3.92    0.27 
  -3  -7   3    3.81    0.29 
  -3  -7   3    3.98    0.29 
   2   7  -3   11.92    0.42 
   2   7  -3   11.67    0.42 
  -2  -7   3   12.02    0.51 
  -2  -7   3   12.14    0.51 
  -2  -7   3   11.79    0.50 
   1   7  -3    2.28    0.19 
   1   7  -3    2.02    0.17 
  -1  -7   3    1.75    0.21 
  -1  -7   3    1.91    0.22 
  -1  -7   3    2.50    0.26 
   0   7  -3    0.25    0.08 
   0   7  -3    0.32    0.09 
   0  -7   3    0.12    0.10 
   0  -7   3    0.21    0.11 
  -1   7  -3   13.16    0.49 
  -1   7  -3   12.71    0.44 
   1  -7   3   13.03    0.55 
   1  -7   3   12.50    0.55 
  -2   7  -3    0.87    0.14 
  -2   7  -3    1.18    0.16 
   2  -7   3    1.04    0.19 
   2  -7   3    1.17    0.20 
  -3   7  -3    0.11    0.08 
  -3   7  -3    0.02    0.08 
   3  -7   3    0.15    0.12 
  -4   7  -3    0.06    0.10 
  -4   7  -3    0.27    0.10 
  -5   7  -3    0.61    0.15 
  -5   7  -3    0.20    0.12 
 -10  -6   3    0.14    0.08 
 -10  -6   3    0.14    0.07 
 -10  -6   3    0.09    0.07 
  -9  -6   3   -0.04    0.07 
  -9  -6   3    0.00    0.06 
  -9  -6   3   -0.10    0.05 
  -8  -6   3   -0.05    0.05 
  -8  -6   3   -0.08    0.05 
  -8  -6   3    0.00    0.06 
  -7  -6   3    0.39    0.09 
  -7  -6   3    0.57    0.11 
  -7  -6   3    0.64    0.12 
  -6  -6   3    0.94    0.13 
  -6  -6   3    0.67    0.12 
  -6  -6   3    0.85    0.13 
  -6  -6   3    0.66    0.14 
  -5  -6   3    1.41    0.17 
  -5  -6   3    2.09    0.15 
  -5  -6   3    1.98    0.17 
  -5  -6   3    1.96    0.19 
   4   6  -3    2.13    0.12 
  -4  -6   3    2.11    0.20 
  -4  -6   3    2.24    0.16 
  -4  -6   3    2.37    0.20 
  -4  -6   3    2.07    0.18 
   3   6  -3    4.52    0.22 
  -3  -6   3    6.25    0.32 
  -3  -6   3    5.90    0.30 
  -3  -6   3    6.03    0.26 
  -3  -6   3    6.56    0.32 
   2   6  -3    0.08    0.06 
   2   6  -3    0.08    0.05 
  -2  -6   3    0.05    0.07 
  -2  -6   3    0.10    0.08 
  -2  -6   3    0.09    0.07 
  -2  -6   3    0.05    0.05 
   1   6  -3    2.65    0.16 
   1   6  -3    3.01    0.19 
  -1  -6   3    2.72    0.23 
  -1  -6   3    2.98    0.22 
  -1  -6   3    2.54    0.22 
   0   6  -3    0.09    0.06 
   0   6  -3    0.08    0.05 
   0  -6   3    0.11    0.07 
   0  -6   3    0.05    0.08 
   0  -6   3    0.11    0.09 
  -1   6  -3   -0.02    0.04 
  -1   6  -3    0.10    0.07 
   1  -6   3   -0.01    0.08 
   1  -6   3    0.04    0.08 
  -2   6  -3    6.67    0.32 
  -2   6  -3    6.52    0.29 
   2  -6   3    6.39    0.36 
   2  -6   3    6.96    0.37 
  -3   6  -3    0.31    0.11 
  -3   6  -3    0.56    0.11 
   3  -6   3    0.63    0.15 
   3  -6   3    0.42    0.13 
  -4   6  -3    1.74    0.20 
  -4   6  -3    1.84    0.21 
  -5   6  -3    2.65    0.24 
  -5   6  -3    2.18    0.24 
  -6   6  -3    2.42    0.28 
  -6   6  -3    1.86    0.22 
 -10  -5   3    0.48    0.08 
 -10  -5   3    0.52    0.09 
 -10  -5   3    0.50    0.07 
  -9  -5   3   -0.01    0.05 
  -9  -5   3   -0.01    0.05 
  -9  -5   3   -0.02    0.04 
  -8  -5   3    0.18    0.08 
  -8  -5   3    0.14    0.07 
  -8  -5   3    0.20    0.06 
  -8  -5   3    0.13    0.07 
  -7  -5   3    3.27    0.19 
  -7  -5   3    3.22    0.17 
  -7  -5   3    3.19    0.20 
  -7  -5   3    3.01    0.15 
  -6  -5   3    0.74    0.09 
  -6  -5   3    0.66    0.10 
  -6  -5   3    0.70    0.09 
  -6  -5   3    0.58    0.10 
  -5  -5   3    0.12    0.06 
  -5  -5   3    0.25    0.07 
  -5  -5   3    0.14    0.06 
  -5  -5   3    0.13    0.07 
  -5  -5   3    0.19    0.06 
  -4  -5   3    0.13    0.05 
  -4  -5   3    0.02    0.04 
  -4  -5   3    0.04    0.06 
  -4  -5   3    0.06    0.04 
  -4  -5   3    0.06    0.05 
   3   5  -3    3.40    0.16 
  -3  -5   3    4.13    0.21 
  -3  -5   3    3.08    0.14 
  -3  -5   3    3.78    0.22 
  -3  -5   3    3.50    0.22 
  -3  -5   3    3.09    0.17 
   2   5  -3    2.20    0.14 
   2   5  -3    2.08    0.14 
  -2  -5   3    2.35    0.19 
  -2  -5   3    2.24    0.15 
  -2  -5   3    2.07    0.16 
  -2  -5   3    2.26    0.12 
   1   5  -3    2.70    0.14 
   1   5  -3    2.47    0.16 
  -1  -5   3    2.12    0.18 
  -1  -5   3    2.10    0.19 
  -1  -5   3    2.26    0.18 
  -1  -5   3    2.56    0.14 
  -1  -5   3    2.13    0.15 
   0   5  -3    1.22    0.11 
   0   5  -3    1.15    0.12 
   0  -5   3    0.96    0.14 
   0  -5   3    1.29    0.16 
   0  -5   3    1.20    0.14 
  -1   5  -3    0.39    0.07 
  -1   5  -3    0.55    0.10 
   1  -5   3    0.35    0.10 
   1  -5   3    0.28    0.08 
   1  -5   3    0.35    0.09 
  -2   5  -3   27.24    0.82 
  -2   5  -3   28.65    0.76 
  -2   5  -3   27.43    0.72 
   2  -5   3   27.90    0.80 
   2  -5   3   27.89    0.82 
  -3   5  -3    0.50    0.10 
  -3   5  -3    0.54    0.11 
  -3   5  -3    0.67    0.13 
   3  -5   3    0.49    0.11 
   3  -5   3    0.34    0.10 
  -4   5  -3    0.83    0.13 
  -4   5  -3    0.48    0.17 
  -4   5  -3    0.80    0.14 
   4  -5   3    0.82    0.14 
   4  -5   3    0.48    0.11 
  -5   5  -3    0.89    0.16 
  -5   5  -3    0.88    0.15 
  -6   5  -3    1.16    0.17 
  -6   5  -3    1.19    0.19 
  -7   5  -3    0.10    0.09 
  -7   5  -3   -0.07    0.11 
 -10  -4   3    2.08    0.11 
  -9  -4   3    2.66    0.10 
  -9  -4   3    2.76    0.11 
  -9  -4   3    2.69    0.12 
  -9  -4   3    2.71    0.14 
  -8  -4   3    6.06    0.22 
  -8  -4   3    6.04    0.18 
  -8  -4   3    6.11    0.18 
  -8  -4   3    5.86    0.22 
  -7  -4   3    0.20    0.06 
  -7  -4   3    0.28    0.05 
  -7  -4   3    0.22    0.06 
  -7  -4   3    0.34    0.06 
  -6  -4   3    0.70    0.09 
  -6  -4   3    0.56    0.07 
  -6  -4   3    0.48    0.06 
  -6  -4   3    0.41    0.07 
   5   4  -3    4.38    0.13 
  -5  -4   3    4.30    0.17 
  -5  -4   3    4.16    0.18 
  -5  -4   3    4.45    0.19 
  -5  -4   3    4.08    0.20 
  -5  -4   3    3.86    0.19 
   4   4  -3    0.28    0.06 
  -4  -4   3    0.17    0.05 
  -4  -4   3    0.21    0.06 
  -4  -4   3    0.13    0.04 
  -4  -4   3    0.26    0.07 
  -4  -4   3    0.18    0.05 
   3   4  -3   10.68    0.40 
   3   4  -3   10.49    0.28 
  -3  -4   3   10.23    0.33 
  -3  -4   3   10.15    0.35 
  -3  -4   3   10.08    0.35 
  -3  -4   3    9.78    0.31 
  -3  -4   3   10.30    0.27 
   2   4  -3    8.44    0.27 
   2   4  -3    8.39    0.26 
   2   4  -3    8.26    0.31 
  -2  -4   3    8.39    0.33 
  -2  -4   3    8.94    0.29 
  -2  -4   3    8.49    0.24 
  -2  -4   3    8.69    0.33 
  -2  -4   3    8.56    0.31 
   1   4  -3    0.08    0.04 
   1   4  -3    0.23    0.05 
   1   4  -3    0.27    0.07 
  -1  -4   3    0.16    0.06 
  -1  -4   3    0.13    0.04 
  -1  -4   3    0.26    0.08 
  -1  -4   3    0.27    0.07 
  -1  -4   3    0.05    0.04 
   0   4  -3    1.45    0.10 
   0   4  -3    1.60    0.12 
   0   4  -3    1.55    0.14 
   0  -4   3    1.55    0.12 
   0  -4   3    1.39    0.15 
   0  -4   3    1.41    0.11 
   0  -4   3    1.83    0.15 
   0  -4   3    1.35    0.15 
  -1   4  -3   -0.05    0.03 
  -1   4  -3   -0.04    0.03 
  -1   4  -3   -0.01    0.04 
   1  -4   3    0.05    0.05 
   1  -4   3    0.02    0.05 
   1  -4   3    0.00    0.04 
  -2   4  -3    0.51    0.10 
  -2   4  -3    0.53    0.09 
  -2   4  -3    0.53    0.09 
  -2   4  -3    0.50    0.10 
   2  -4   3    0.42    0.10 
   2  -4   3    0.43    0.09 
   2  -4   3    0.71    0.12 
  -3   4  -3    4.02    0.24 
  -3   4  -3    3.97    0.22 
  -3   4  -3    3.67    0.21 
  -3   4  -3    3.54    0.24 
  -3   4  -3    3.42    0.22 
   3  -4   3    3.60    0.23 
   3  -4   3    3.63    0.23 
  -4   4  -3    4.09    0.25 
  -4   4  -3    3.98    0.27 
  -4   4  -3    4.11    0.24 
  -4   4  -3    3.87    0.23 
  -4   4  -3    4.24    0.26 
   4  -4   3    4.00    0.25 
   4  -4   3    4.17    0.25 
  -5   4  -3   10.52    0.43 
  -5   4  -3    9.48    0.39 
   5  -4   3   10.56    0.42 
   5  -4   3    9.61    0.42 
  -6   4  -3    0.04    0.06 
  -6   4  -3   -0.07    0.08 
  -7   4  -3   -0.07    0.09 
  -7   4  -3    0.14    0.08 
  -8   4  -3   -0.01    0.12 
  -8   4  -3   -0.05    0.07 
 -11  -3   3    0.20    0.13 
  -8  -3   3    0.06    0.04 
  -8  -3   3    0.11    0.04 
  -7  -3   3    0.20    0.05 
  -7  -3   3    0.27    0.05 
  -6  -3   3    7.00    0.18 
  -6  -3   3    6.78    0.17 
  -6  -3   3    6.88    0.22 
  -6  -3   3    6.86    0.22 
  -5  -3   3    7.19    0.21 
  -5  -3   3    7.87    0.25 
  -5  -3   3    7.63    0.25 
  -5  -3   3    7.63    0.21 
   4   3  -3    4.13    0.15 
  -4  -3   3    4.02    0.17 
  -4  -3   3    4.15    0.15 
  -4  -3   3    4.00    0.17 
  -4  -3   3    3.88    0.15 
   3   3  -3   15.56    0.41 
  -3  -3   3   15.56    0.39 
  -3  -3   3   15.65    0.37 
  -3  -3   3   14.60    0.40 
  -3  -3   3   15.38    0.43 
  -3  -3   3   15.61    0.43 
   2   3  -3    4.94    0.17 
   2   3  -3    5.20    0.21 
   2   3  -3    5.19    0.21 
  -2  -3   3    4.86    0.14 
  -2  -3   3    4.77    0.20 
  -2  -3   3    5.15    0.19 
   1   3  -3    8.26    0.29 
   1   3  -3    8.54    0.29 
   1   3  -3    8.44    0.23 
   1   3  -3    8.27    0.26 
  -1  -3   3    7.86    0.28 
  -1  -3   3    8.39    0.27 
  -1  -3   3    8.27    0.30 
  -1  -3   3    8.57    0.31 
  -1  -3   3    8.47    0.23 
   0   3  -3    5.67    0.21 
   0   3  -3    5.57    0.24 
   0   3  -3    5.78    0.24 
   0   3  -3    5.46    0.18 
   0   3  -3    5.65    0.22 
   0  -3   3    5.56    0.25 
   0  -3   3    5.74    0.25 
   0  -3   3    5.96    0.22 
   0  -3   3    5.63    0.20 
   0  -3   3    5.51    0.23 
  -1   3  -3    0.00    0.04 
  -1   3  -3   -0.01    0.03 
  -1   3  -3    0.00    0.03 
  -1   3  -3    0.30    0.07 
  -1   3  -3   -0.01    0.03 
   1  -3   3    0.05    0.05 
   1  -3   3    0.04    0.04 
   1  -3   3    0.01    0.03 
   1  -3   3    0.00    0.04 
  -2   3  -3    1.81    0.13 
  -2   3  -3    2.05    0.15 
  -2   3  -3    1.86    0.13 
  -2   3  -3    1.63    0.14 
  -2   3  -3    1.73    0.15 
   2  -3   3    1.81    0.15 
   2  -3   3    1.78    0.15 
   2  -3   3    2.03    0.15 
  -3   3  -3    6.47    0.27 
  -3   3  -3    6.78    0.31 
  -3   3  -3    6.91    0.30 
  -3   3  -3    6.88    0.29 
   3  -3   3    6.81    0.30 
   3  -3   3    6.82    0.29 
   3  -3   3    6.69    0.30 
  -4   3  -3    0.02    0.05 
  -4   3  -3    0.01    0.05 
  -4   3  -3   -0.02    0.05 
  -4   3  -3   -0.02    0.06 
  -4   3  -3   -0.03    0.05 
   4  -3   3   -0.06    0.04 
   4  -3   3    0.05    0.05 
  -5   3  -3    7.36    0.35 
  -5   3  -3    7.11    0.35 
  -5   3  -3    6.58    0.32 
  -5   3  -3    7.68    0.31 
  -5   3  -3    7.70    0.35 
   5  -3   3    7.67    0.33 
  -6   3  -3    0.20    0.10 
  -6   3  -3    0.23    0.08 
  -7   3  -3    2.31    0.19 
  -7   3  -3    2.36    0.27 
  -8   3  -3    0.90    0.20 
  -8   3  -3    0.60    0.12 
 -10  -2   3    0.12    0.09 
  -9  -2   3    0.11    0.08 
  -8  -2   3    1.55    0.33 
  -7  -2   3   13.12    0.30 
  -6  -2   3    0.01    0.02 
  -6  -2   3    0.02    0.03 
  -5  -2   3    1.65    0.09 
  -5  -2   3    1.38    0.08 
  -4  -2   3    4.81    0.17 
  -4  -2   3    4.50    0.13 
  -4  -2   3    4.76    0.13 
  -4  -2   3    4.71    0.17 
   3   2  -3    1.07    0.07 
   3   2  -3    1.09    0.07 
   3   2  -3    1.03    0.07 
  -3  -2   3    1.17    0.09 
  -3  -2   3    1.21    0.09 
  -3  -2   3    1.10    0.07 
  -3  -2   3    1.10    0.07 
   2   2  -3   42.72    0.87 
   2   2  -3   42.38    0.91 
   2   2  -3   42.08    0.91 
   2   2  -3   41.94    0.86 
  -2  -2   3   41.45    0.93 
  -2  -2   3   41.38    0.89 
  -2  -2   3   43.11    0.94 
  -2  -2   3   42.71    0.91 
  -2  -2   3   42.28    0.84 
   1   2  -3    6.67    0.23 
   1   2  -3    6.74    0.21 
   1   2  -3    6.84    0.24 
   1   2  -3    6.53    0.21 
   1   2  -3    6.92    0.17 
  -1  -2   3    6.55    0.24 
  -1  -2   3    6.91    0.21 
  -1  -2   3    6.96    0.23 
  -1  -2   3    6.81    0.17 
   0   2  -3   35.42    0.77 
   0   2  -3   34.28    0.80 
   0   2  -3   33.76    0.72 
   0   2  -3   34.13    0.81 
   0  -2   3   34.66    0.77 
   0  -2   3   33.01    0.81 
   0  -2   3   35.25    0.80 
   0  -2   3   35.21    0.81 
  -1   2  -3    0.41    0.07 
  -1   2  -3    0.49    0.06 
  -1   2  -3    0.51    0.08 
  -1   2  -3    0.67    0.08 
   1  -2   3    0.49    0.08 
   1  -2   3    0.41    0.06 
   1  -2   3    0.39    0.07 
   1  -2   3    0.52    0.08 
  -2   2  -3    7.46    0.28 
  -2   2  -3    7.04    0.27 
  -2   2  -3    6.74    0.26 
  -2   2  -3    6.96    0.25 
  -2   2  -3    7.20    0.25 
   2  -2   3    6.70    0.24 
   2  -2   3    6.91    0.28 
   2  -2   3    6.63    0.27 
   2  -2   3    6.97    0.26 
  -3   2  -3   29.37    0.72 
  -3   2  -3   27.50    0.72 
  -3   2  -3   28.27    0.69 
  -3   2  -3   28.37    0.73 
  -3   2  -3   28.74    0.74 
   3  -2   3   28.51    0.73 
   3  -2   3   27.19    0.72 
   3  -2   3   28.73    0.71 
  -4   2  -3    2.72    0.19 
  -4   2  -3    2.45    0.18 
  -4   2  -3    2.30    0.15 
  -4   2  -3    2.42    0.17 
  -4   2  -3    2.30    0.17 
   4  -2   3    2.79    0.18 
  -5   2  -3    6.11    0.31 
  -5   2  -3    6.31    0.26 
  -5   2  -3    6.46    0.30 
  -5   2  -3    6.32    0.30 
  -5   2  -3    6.20    0.28 
   5  -2   3    6.57    0.28 
  -6   2  -3    7.63    0.35 
  -6   2  -3    7.69    0.43 
  -6   2  -3    7.25    0.30 
  -6   2  -3    7.63    0.35 
  -6   2  -3    8.03    0.38 
   6  -2   3    7.75    0.32 
  -7   2  -3    0.36    0.13 
  -7   2  -3    0.41    0.10 
  -8   2  -3    0.14    0.12 
  -8   2  -3    0.13    0.07 
  -9   2  -3    0.15    0.12 
  -9   2  -3    0.00    0.07 
 -10  -1   3    0.32    0.13 
  -9  -1   3    1.49    0.20 
  -8  -1   3    8.68    0.39 
  -7  -1   3   37.45    0.96 
  -7  -1   3   36.65    0.77 
  -6  -1   3    0.87    0.06 
  -6  -1   3    0.82    0.06 
  -6  -1   3    0.81    0.06 
  -6  -1   3    1.07    0.13 
  -5  -1   3    0.05    0.03 
  -5  -1   3    0.07    0.02 
  -5  -1   3    0.07    0.03 
  -5  -1   3    0.05    0.02 
  -4  -1   3    0.85    0.06 
  -4  -1   3    0.85    0.06 
  -4  -1   3    0.88    0.06 
   3   1  -3   30.91    0.63 
   3   1  -3   31.26    0.63 
  -3  -1   3   31.16    0.68 
  -3  -1   3   30.35    0.64 
  -3  -1   3   31.25    0.63 
  -3  -1   3   31.31    0.68 
   2   1  -3    7.98    0.23 
   2   1  -3    7.93    0.22 
   2   1  -3    7.60    0.23 
   2   1  -3    7.73    0.22 
  -2  -1   3    7.77    0.23 
  -2  -1   3    7.57    0.21 
  -2  -1   3    7.78    0.23 
  -2  -1   3    7.68    0.20 
   1   1  -3    2.01    0.10 
   1   1  -3    2.01    0.10 
   1   1  -3    2.02    0.09 
   1   1  -3    2.00    0.09 
  -1  -1   3    1.97    0.11 
  -1  -1   3    2.13    0.09 
  -1  -1   3    1.89    0.11 
  -1  -1   3    1.94    0.10 
   0   1  -3    3.15    0.12 
   0   1  -3    2.97    0.09 
   0   1  -3    3.04    0.14 
   0   1  -3    3.21    0.13 
   0  -1   3    2.99    0.13 
   0  -1   3    2.95    0.15 
   0  -1   3    2.99    0.14 
   0  -1   3    2.91    0.12 
  -1   1  -3   33.58    0.78 
  -1   1  -3   34.04    0.77 
  -1   1  -3   34.75    0.76 
  -1   1  -3   32.31    0.73 
  -1   1  -3   33.35    0.74 
   1  -1   3   33.41    0.78 
   1  -1   3   33.51    0.78 
   1  -1   3   33.10    0.76 
   1  -1   3   34.02    0.75 
  -2   1  -3   38.27    0.86 
  -2   1  -3   38.78    0.88 
  -2   1  -3   38.77    0.89 
  -2   1  -3   39.64    0.91 
   2  -1   3   39.93    0.88 
   2  -1   3   39.17    0.90 
   2  -1   3   38.41    0.86 
   2  -1   3   37.88    0.90 
  -3   1  -3   31.78    0.75 
  -3   1  -3   31.96    0.78 
  -3   1  -3   31.58    0.74 
  -3   1  -3   31.76    0.77 
   3  -1   3   32.90    0.74 
   3  -1   3   31.65    0.74 
   3  -1   3   30.66    0.76 
  -4   1  -3   18.93    0.53 
  -4   1  -3   18.62    0.50 
  -4   1  -3   18.86    0.54 
  -4   1  -3   18.80    0.51 
   4  -1   3   19.15    0.53 
  -5   1  -3    1.19    0.13 
  -5   1  -3    1.09    0.13 
  -5   1  -3    1.23    0.13 
  -5   1  -3    1.35    0.13 
  -6   1  -3   12.41    0.49 
  -6   1  -3   13.04    0.43 
  -6   1  -3   12.36    0.43 
  -6   1  -3   13.04    0.41 
  -6   1  -3   12.87    0.45 
   6  -1   3   12.35    0.40 
  -7   1  -3    1.85    0.23 
  -7   1  -3    2.33    0.16 
  -8   1  -3    0.03    0.10 
  -8   1  -3    0.03    0.06 
  -9   1  -3    0.52    0.16 
  -9   1  -3    0.28    0.09 
 -10   1  -3    0.10    0.13 
 -10   1  -3   -0.05    0.06 
 -10   0   3   -0.02    0.03 
 -10   0   3    0.02    0.09 
  -9   0   3    3.17    0.26 
  -9   0   3    2.81    0.11 
  -8   0   3    5.26    0.14 
  -8   0   3    5.50    0.21 
  -8   0   3    5.26    0.30 
  -8   0   3    5.62    0.21 
  -7   0   3    5.46    0.29 
  -7   0   3    5.63    0.20 
  -7   0   3    5.43    0.20 
  -6   0   3   20.12    0.48 
  -6   0   3   20.07    0.58 
  -6   0   3   19.71    0.48 
  -5   0   3   14.14    0.42 
  -5   0   3   13.72    0.36 
  -5   0   3   14.28    0.36 
  -5   0   3   13.79    0.35 
  -4   0   3    3.07    0.12 
  -4   0   3    2.86    0.12 
  -4   0   3    2.91    0.12 
  -4   0   3    2.91    0.15 
  -3   0   3   12.80    0.33 
  -3   0   3   12.69    0.27 
  -3   0   3   12.32    0.33 
  -3   0   3   12.67    0.32 
  -3   0   3   12.80    0.33 
  -3   0   3   12.30    0.28 
   2   0  -3    4.76    0.14 
   2   0  -3    4.37    0.15 
   2   0  -3    4.60    0.16 
   2   0  -3    4.41    0.14 
  -2   0   3    4.64    0.13 
  -2   0   3    4.47    0.14 
  -2   0   3    4.86    0.17 
  -2   0   3    4.68    0.16 
  -2   0   3    4.53    0.17 
  -2   0   3    4.40    0.13 
   1   0  -3   43.67    0.88 
   1   0  -3   46.09    0.95 
   1   0  -3   45.29    0.95 
   1   0  -3   45.24    0.92 
  -1   0   3   44.21    0.93 
  -1   0   3   44.13    0.96 
  -1   0   3   46.31    0.88 
  -1   0   3   45.38    0.94 
   0   0  -3    0.44    0.05 
   0   0  -3    0.51    0.06 
   0   0  -3    0.61    0.06 
   0   0  -3    0.53    0.05 
   0   0   3    0.51    0.06 
   0   0   3    0.43    0.05 
   0   0   3    0.53    0.06 
  -1   0  -3   29.27    0.66 
  -1   0  -3   30.11    0.69 
  -1   0  -3   30.29    0.67 
  -1   0  -3   30.22    0.69 
   1   0   3   30.00    0.67 
   1   0   3   29.76    0.69 
   1   0   3   30.26    0.67 
  -2   0  -3   44.31    0.97 
  -2   0  -3   44.99    1.00 
  -2   0  -3   45.32    0.98 
  -2   0  -3   44.89    0.99 
   2   0   3   45.99    0.97 
   2   0   3   45.38    1.00 
  -3   0  -3   28.16    0.69 
  -3   0  -3   28.37    0.66 
  -3   0  -3   27.75    0.68 
  -3   0  -3   28.29    0.66 
   3   0   3   27.96    0.68 
   3   0   3   28.16    0.65 
  -4   0  -3   11.09    0.35 
  -4   0  -3   10.44    0.35 
  -4   0  -3   10.75    0.32 
  -4   0  -3   10.66    0.33 
   4   0   3   11.19    0.30 
  -5   0  -3    0.19    0.06 
  -5   0  -3    0.09    0.04 
  -5   0  -3    0.14    0.05 
  -5   0  -3    0.16    0.05 
   5   0   3    0.08    0.05 
  -6   0  -3    0.74    0.10 
  -6   0  -3    0.99    0.11 
  -6   0  -3    0.89    0.12 
  -6   0  -3    0.70    0.10 
   6   0   3    0.76    0.10 
  -7   0  -3   -0.04    0.04 
  -7   0  -3    0.02    0.05 
  -7   0  -3    0.00    0.05 
  -7   0  -3    0.02    0.05 
   7   0   3    0.00    0.04 
  -8   0  -3    0.27    0.08 
  -9   0  -3    0.62    0.18 
  -9   0  -3    0.33    0.09 
 -10   0  -3    1.44    0.17 
 -10   0  -3    2.05    0.29 
 -10   1   3    2.63    0.16 
 -10   1   3    3.01    0.32 
  -9   1   3    0.12    0.10 
  -9   1   3   -0.02    0.04 
  -8   1   3    2.22    0.17 
  -8   1   3    2.10    0.11 
  -8   1   3    2.53    0.22 
  -8   1   3    2.03    0.18 
  -7   1   3    8.16    0.36 
  -7   1   3    7.79    0.23 
  -7   1   3    8.49    0.30 
  -7   1   3    8.34    0.30 
  -6   1   3  110.49    2.27 
  -6   1   3  107.55    2.18 
  -6   1   3  114.72    2.28 
  -6   1   3  111.29    2.36 
  -5   1   3    1.24    0.10 
  -5   1   3    1.19    0.13 
  -5   1   3    1.11    0.10 
  -5   1   3    1.13    0.06 
  -4   1   3    3.78    0.16 
  -4   1   3    3.49    0.17 
  -4   1   3    3.35    0.11 
  -4   1   3    3.44    0.16 
   3  -1  -3   36.08    0.74 
   3  -1  -3   35.21    0.73 
  -3   1   3   36.31    0.80 
  -3   1   3   35.24    0.74 
  -3   1   3   35.98    0.80 
  -3   1   3   34.81    0.79 
  -3   1   3   35.61    0.81 
  -3   1   3   36.31    0.75 
   2  -1  -3    0.66    0.06 
   2  -1  -3    0.85    0.06 
   2  -1  -3    0.67    0.07 
   2  -1  -3    0.78    0.06 
  -2   1   3    0.57    0.07 
  -2   1   3    0.62    0.05 
  -2   1   3    0.59    0.07 
  -2   1   3    0.64    0.07 
  -2   1   3    0.65    0.05 
  -2   1   3    0.67    0.06 
   1  -1  -3  104.99    2.09 
   1  -1  -3  100.51    2.04 
   1  -1  -3  106.59    2.05 
  -1   1   3  104.09    2.04 
  -1   1   3  104.52    2.12 
  -1   1   3  104.70    2.07 
  -1   1   3  102.33    2.11 
  -1   1   3  107.00    2.11 
   0  -1  -3    4.82    0.14 
   0  -1  -3    4.70    0.19 
   0  -1  -3    4.77    0.16 
   0  -1  -3    4.74    0.17 
   0  -1  -3    4.46    0.18 
   0  -1  -3    4.58    0.16 
   0   1   3    4.62    0.18 
   0   1   3    4.73    0.16 
   0   1   3    4.56    0.18 
   0   1   3    4.79    0.18 
   0   1   3    4.47    0.14 
  -1  -1  -3   80.65    1.66 
  -1  -1  -3   81.79    1.62 
  -1  -1  -3   79.74    1.64 
  -1  -1  -3   78.97    1.62 
   1   1   3   78.86    1.66 
   1   1   3   79.27    1.62 
  -2  -1  -3  191.98    3.81 
  -2  -1  -3  199.71    3.84 
   2   1   3  193.96    3.80 
   2   1   3  191.33    3.84 
  -3  -1  -3  136.84    2.80 
  -3  -1  -3  144.61    2.83 
   3   1   3  141.51    2.78 
   3   1   3  139.54    2.83 
  -4  -1  -3    7.77    0.25 
  -4  -1  -3    7.51    0.27 
   4   1   3    7.62    0.22 
  -5  -1  -3    5.29    0.21 
  -5  -1  -3    5.24    0.21 
  -5  -1  -3    5.49    0.23 
   5   1   3    5.53    0.22 
  -6  -1  -3    0.03    0.04 
  -6  -1  -3    0.02    0.04 
  -6  -1  -3    0.02    0.04 
  -6  -1  -3   -0.01    0.04 
   6   1   3    0.07    0.04 
  -7  -1  -3    6.00    0.27 
  -7  -1  -3    6.81    0.29 
  -7  -1  -3    6.67    0.26 
  -7  -1  -3    6.64    0.26 
  -8  -1  -3    3.53    0.32 
  -8  -1  -3    3.49    0.20 
  -9  -1  -3    1.59    0.16 
 -10  -1  -3    0.41    0.09 
  -9   2   3    0.04    0.10 
  -9   2   3   -0.01    0.05 
  -8   2   3    1.32    0.11 
  -8   2   3    1.18    0.18 
  -7   2   3    0.29    0.08 
  -7   2   3    0.17    0.05 
  -7   2   3    0.25    0.07 
  -7   2   3    0.31    0.11 
  -6   2   3    0.15    0.07 
  -6   2   3   -0.16    0.07 
  -6   2   3    0.04    0.06 
  -6   2   3    0.11    0.05 
  -5   2   3    2.86    0.17 
  -5   2   3    2.60    0.18 
  -5   2   3    2.57    0.17 
  -5   2   3    2.50    0.13 
   4  -2  -3    6.76    0.19 
  -4   2   3    6.68    0.26 
  -4   2   3    6.69    0.21 
  -4   2   3    6.92    0.26 
  -4   2   3    6.47    0.25 
   3  -2  -3    3.56    0.17 
   3  -2  -3    3.41    0.14 
   3  -2  -3    3.64    0.13 
   3  -2  -3    3.38    0.14 
  -3   2   3    3.46    0.17 
  -3   2   3    3.28    0.14 
  -3   2   3    3.31    0.16 
  -3   2   3    3.29    0.17 
   2  -2  -3   30.72    0.62 
   2  -2  -3   31.00    0.69 
   2  -2  -3   30.65    0.63 
   2  -2  -3   31.02    0.70 
   2  -2  -3   31.36    0.70 
   2  -2  -3   25.57    0.69 
  -2   2   3   30.94    0.73 
  -2   2   3   32.26    0.74 
  -2   2   3   29.58    0.67 
  -2   2   3   29.94    0.67 
   1  -2  -3   28.69    0.78 
   1  -2  -3   35.70    0.79 
   1  -2  -3   34.99    0.74 
   1  -2  -3   34.80    0.73 
   1  -2  -3   35.93    0.80 
  -1   2   3   34.50    0.73 
  -1   2   3   35.17    0.81 
  -1   2   3   35.19    0.81 
  -1   2   3   33.41    0.75 
   0  -2  -3    2.39    0.14 
   0  -2  -3    2.41    0.11 
   0  -2  -3    2.27    0.13 
   0  -2  -3    2.35    0.10 
   0  -2  -3    2.29    0.14 
   0   2   3    2.35    0.11 
   0   2   3    2.26    0.14 
   0   2   3    2.32    0.11 
   0   2   3    2.37    0.14 
   0   2   3    2.38    0.14 
  -1  -2  -3    1.46    0.09 
  -1  -2  -3    1.63    0.12 
  -1  -2  -3    1.50    0.11 
  -1  -2  -3    1.54    0.11 
  -1  -2  -3    1.37    0.08 
   1   2   3    1.61    0.12 
   1   2   3    1.60    0.09 
   1   2   3    1.34    0.11 
   1   2   3    1.57    0.11 
  -2  -2  -3   13.41    0.39 
  -2  -2  -3   12.61    0.38 
  -2  -2  -3   13.38    0.35 
   2   2   3   12.86    0.34 
   2   2   3   13.47    0.39 
  -3  -2  -3    0.31    0.05 
  -3  -2  -3    0.30    0.06 
  -3  -2  -3    0.25    0.06 
   3   2   3    0.15    0.06 
   3   2   3    0.38    0.05 
  -4  -2  -3   10.23    0.33 
  -4  -2  -3   10.06    0.30 
   4   2   3   10.10    0.26 
  -5  -2  -3    5.10    0.22 
  -5  -2  -3    5.07    0.20 
  -6  -2  -3    5.77    0.22 
  -6  -2  -3    5.55    0.24 
  -7  -2  -3    5.54    0.23 
  -7  -2  -3    5.60    0.25 
  -8  -2  -3    0.04    0.05 
  -8  -2  -3    0.02    0.05 
  -8  -2  -3   -0.01    0.05 
  -9  -2  -3   -0.01    0.05 
 -10  -2  -3    0.02    0.06 
 -11  -2  -3    1.41    0.17 
  -9   3   3    1.19    0.19 
  -9   3   3    1.27    0.15 
  -8   3   3    0.64    0.15 
  -8   3   3    0.59    0.10 
  -7   3   3    0.92    0.15 
  -7   3   3    0.93    0.11 
  -6   3   3   13.44    0.48 
  -6   3   3   13.49    0.47 
  -6   3   3   12.88    0.40 
  -6   3   3   13.37    0.47 
   5  -3  -3   51.62    1.08 
  -5   3   3   51.49    1.14 
  -5   3   3   52.83    1.22 
  -5   3   3   51.96    1.24 
  -5   3   3   52.17    1.24 
   4  -3  -3    1.13    0.08 
   4  -3  -3    1.15    0.09 
  -4   3   3    1.00    0.12 
  -4   3   3    1.11    0.13 
  -4   3   3    0.88    0.09 
  -4   3   3    1.04    0.13 
   3  -3  -3    4.67    0.11 
   3  -3  -3    4.53    0.18 
   3  -3  -3    4.49    0.11 
   3  -3  -3    4.64    0.19 
  -3   3   3    4.56    0.19 
  -3   3   3    4.29    0.23 
  -3   3   3    4.53    0.23 
  -3   3   3    4.30    0.19 
   2  -3  -3  121.15    2.32 
   2  -3  -3  123.61    2.42 
   2  -3  -3   99.17    2.39 
  -2   3   3  122.67    2.46 
  -2   3   3  118.34    2.38 
  -2   3   3  117.71    2.38 
  -2   3   3  122.75    2.47 
   1  -3  -3   75.66    1.60 
   1  -3  -3   75.26    1.59 
   1  -3  -3   74.45    1.51 
   1  -3  -3   72.26    1.58 
   1  -3  -3   74.71    1.53 
  -1   3   3   74.15    1.53 
  -1   3   3   75.89    1.62 
  -1   3   3   75.92    1.61 
  -1   3   3   68.46    1.54 
   0  -3  -3    5.62    0.20 
   0  -3  -3    5.60    0.19 
   0  -3  -3    5.66    0.24 
   0  -3  -3    5.16    0.23 
   0  -3  -3    5.69    0.24 
   0   3   3    5.75    0.20 
   0   3   3    5.14    0.20 
   0   3   3    6.12    0.25 
   0   3   3    5.66    0.25 
  -1  -3  -3   17.31    0.50 
  -1  -3  -3   18.21    0.45 
  -1  -3  -3   17.52    0.50 
  -1  -3  -3   18.58    0.44 
  -1  -3  -3   17.33    0.50 
   1   3   3   18.00    0.51 
   1   3   3   17.77    0.50 
   1   3   3   17.46    0.46 
   1   3   3   17.43    0.45 
  -2  -3  -3   54.96    1.22 
  -2  -3  -3   54.20    1.17 
  -2  -3  -3   54.88    1.23 
  -2  -3  -3   52.87    1.23 
  -2  -3  -3   54.43    1.16 
   2   3   3   53.92    1.15 
   2   3   3   53.49    1.21 
   2   3   3   55.21    1.22 
  -3  -3  -3   18.30    0.46 
  -3  -3  -3   17.02    0.51 
  -3  -3  -3   18.59    0.52 
  -3  -3  -3   18.05    0.51 
   3   3   3   18.43    0.45 
   3   3   3   18.34    0.49 
  -4  -3  -3    0.70    0.10 
  -4  -3  -3    0.80    0.08 
  -4  -3  -3    0.81    0.10 
  -4  -3  -3    0.68    0.10 
   4   3   3    0.66    0.06 
  -5  -3  -3    4.54    0.23 
  -5  -3  -3    4.22    0.22 
  -5  -3  -3    4.65    0.22 
  -5  -3  -3    4.36    0.18 
  -6  -3  -3    0.39    0.08 
  -6  -3  -3    0.41    0.08 
  -6  -3  -3    0.42    0.07 
  -7  -3  -3   26.76    0.72 
  -7  -3  -3   26.25    0.69 
  -7  -3  -3   25.46    0.64 
  -8  -3  -3    2.24    0.17 
  -8  -3  -3    2.45    0.20 
  -8  -3  -3    2.41    0.15 
  -9  -3  -3    1.48    0.18 
 -10  -3  -3    0.76    0.14 
 -11  -3  -3    0.59    0.12 
 -11  -3  -3    0.60    0.14 
  -8   4   3    0.47    0.13 
  -8   4   3    0.57    0.11 
  -7   4   3    1.03    0.13 
  -7   4   3    1.26    0.18 
  -6   4   3    0.53    0.12 
  -6   4   3    0.49    0.10 
   5  -4  -3   27.24    0.66 
   5  -4  -3   26.21    0.62 
  -5   4   3   27.45    0.75 
  -5   4   3   27.03    0.71 
  -5   4   3   28.05    0.81 
  -5   4   3   27.12    0.80 
   4  -4  -3    0.38    0.07 
   4  -4  -3    0.23    0.06 
  -4   4   3    0.22    0.08 
  -4   4   3    0.18    0.09 
  -4   4   3    0.25    0.09 
  -4   4   3    0.28    0.07 
   3  -4  -3    5.75    0.24 
  -3   4   3    5.93    0.25 
  -3   4   3    5.85    0.29 
  -3   4   3    5.96    0.30 
  -3   4   3    5.98    0.24 
   2  -4  -3   20.16    0.56 
   2  -4  -3   19.54    0.56 
  -2   4   3   20.41    0.61 
  -2   4   3   20.33    0.62 
  -2   4   3   19.29    0.53 
  -2   4   3   19.91    0.53 
   1  -4  -3   22.84    0.64 
   1  -4  -3   24.54    0.65 
  -1   4   3   24.37    0.62 
  -1   4   3   24.70    0.69 
  -1   4   3   24.22    0.60 
  -1   4   3   23.69    0.67 
   0  -4  -3   20.41    0.50 
   0  -4  -3   19.75    0.57 
   0  -4  -3   19.54    0.50 
   0  -4  -3   20.53    0.58 
   0   4   3   19.21    0.51 
   0   4   3   19.50    0.58 
   0   4   3   19.05    0.52 
  -1  -4  -3   29.36    0.70 
  -1  -4  -3   28.62    0.76 
  -1  -4  -3   29.25    0.68 
  -1  -4  -3   29.81    0.77 
   1   4   3   28.73    0.77 
   1   4   3   29.21    0.71 
   1   4   3   28.73    0.70 
   1   4   3   28.43    0.76 
  -2  -4  -3    2.95    0.15 
  -2  -4  -3    2.88    0.15 
  -2  -4  -3    2.87    0.19 
  -2  -4  -3    3.00    0.19 
   2   4   3    3.04    0.19 
   2   4   3    2.82    0.15 
  -3  -4  -3    6.01    0.28 
  -3  -4  -3    6.18    0.23 
  -3  -4  -3    6.22    0.28 
   3   4   3    6.16    0.22 
   3   4   3    6.02    0.26 
   3   4   3    6.14    0.26 
  -4  -4  -3   21.67    0.55 
  -4  -4  -3   21.75    0.62 
  -4  -4  -3   21.74    0.62 
  -4  -4  -3   21.29    0.62 
  -5  -4  -3    7.16    0.25 
  -5  -4  -3    6.71    0.30 
  -5  -4  -3    6.90    0.29 
  -5  -4  -3    6.79    0.30 
   5   4   3    7.11    0.18 
   5   4   3    6.90    0.18 
  -6  -4  -3    3.37    0.22 
  -6  -4  -3    4.02    0.22 
  -6  -4  -3    3.73    0.18 
  -6  -4  -3    3.94    0.23 
  -7  -4  -3    0.00    0.05 
  -7  -4  -3   -0.04    0.06 
  -7  -4  -3   -0.01    0.05 
  -7  -4  -3    0.00    0.05 
  -8  -4  -3    0.07    0.08 
  -8  -4  -3    0.08    0.07 
  -8  -4  -3    0.17    0.06 
  -8  -4  -3    0.07    0.07 
  -9  -4  -3   -0.01    0.07 
  -9  -4  -3    0.06    0.08 
 -10  -4  -3    0.01    0.07 
 -10  -4  -3    0.05    0.08 
 -11  -4  -3    1.27    0.18 
 -11  -4  -3    1.27    0.20 
  -8   5   3   -0.09    0.07 
  -8   5   3    0.02    0.10 
  -7   5   3    0.40    0.11 
  -7   5   3    0.42    0.13 
  -6   5   3    0.51    0.10 
  -6   5   3    0.68    0.15 
  -5   5   3    5.57    0.29 
  -5   5   3    6.47    0.32 
   4  -5  -3   15.14    0.47 
   4  -5  -3   14.79    0.47 
  -4   5   3   15.03    0.57 
  -4   5   3   15.17    0.57 
  -4   5   3   15.32    0.50 
  -4   5   3   15.86    0.50 
   3  -5  -3    7.32    0.30 
  -3   5   3    7.01    0.29 
  -3   5   3    7.44    0.31 
  -3   5   3    7.42    0.36 
  -3   5   3    7.57    0.37 
   2  -5  -3    0.08    0.05 
   2  -5  -3    0.25    0.08 
  -2   5   3    0.05    0.06 
  -2   5   3    0.01    0.07 
  -2   5   3    0.02    0.05 
  -2   5   3    0.11    0.08 
   1  -5  -3   61.02    1.40 
   1  -5  -3   59.21    1.39 
  -1   5   3   60.54    1.44 
  -1   5   3   59.50    1.35 
  -1   5   3   61.51    1.45 
  -1   5   3   59.93    1.33 
   0  -5  -3    1.30    0.16 
   0  -5  -3    1.79    0.18 
   0   5   3    1.78    0.17 
   0   5   3    1.32    0.16 
   0   5   3    1.85    0.14 
  -1  -5  -3   -0.06    0.05 
  -1  -5  -3   -0.02    0.03 
  -1  -5  -3   -0.01    0.05 
   1   5   3    0.05    0.04 
   1   5   3   -0.01    0.04 
   1   5   3    0.05    0.06 
   1   5   3    0.05    0.06 
  -2  -5  -3    0.01    0.06 
  -2  -5  -3   -0.04    0.05 
  -2  -5  -3    0.04    0.05 
   2   5   3    0.00    0.04 
   2   5   3   -0.04    0.04 
   2   5   3   -0.01    0.04 
   2   5   3    0.01    0.06 
  -3  -5  -3  118.12    2.59 
  -3  -5  -3  120.26    2.58 
  -3  -5  -3  122.63    2.49 
   3   5   3  122.30    2.57 
   3   5   3  121.38    2.46 
  -4  -5  -3   13.09    0.41 
  -4  -5  -3   14.07    0.49 
  -4  -5  -3   13.87    0.48 
   4   5   3   13.59    0.38 
  -5  -5  -3    7.70    0.35 
  -5  -5  -3    7.64    0.28 
  -5  -5  -3    8.21    0.36 
   5   5   3    7.93    0.23 
  -6  -5  -3    3.68    0.19 
  -6  -5  -3    3.62    0.24 
  -6  -5  -3    3.73    0.24 
  -6  -5  -3    3.61    0.23 
  -7  -5  -3   10.09    0.42 
  -7  -5  -3   10.39    0.41 
  -7  -5  -3   10.94    0.44 
  -7  -5  -3   10.70    0.36 
  -8  -5  -3   18.14    0.66 
  -8  -5  -3   17.94    0.61 
  -8  -5  -3   17.63    0.64 
  -8  -5  -3   18.30    0.60 
  -9  -5  -3    0.41    0.11 
  -9  -5  -3    0.33    0.11 
 -10  -5  -3    0.03    0.08 
 -10  -5  -3    0.04    0.08 
 -11  -5  -3    0.13    0.10 
 -11  -5  -3   -0.03    0.08 
  -7   6   3    0.01    0.11 
  -7   6   3   -0.05    0.07 
  -6   6   3    1.07    0.16 
  -6   6   3    1.47    0.20 
  -5   6   3    6.27    0.33 
  -5   6   3    5.70    0.31 
  -4   6   3    6.91    0.33 
  -4   6   3    6.79    0.34 
   3  -6  -3   13.47    0.48 
   3  -6  -3   13.51    0.48 
  -3   6   3   14.12    0.49 
  -3   6   3   13.30    0.56 
  -3   6   3   13.56    0.56 
  -3   6   3   13.91    0.48 
   2  -6  -3    2.28    0.19 
   2  -6  -3    2.23    0.19 
  -2   6   3    2.07    0.18 
  -2   6   3    1.87    0.22 
  -2   6   3    2.03    0.17 
  -2   6   3    2.34    0.22 
   1  -6  -3   44.22    1.10 
   1  -6  -3   43.93    1.11 
  -1   6   3   43.10    1.05 
  -1   6   3   41.38    1.15 
  -1   6   3   42.00    1.03 
  -1   6   3   42.66    1.14 
   0  -6  -3   15.13    0.53 
   0  -6  -3   14.97    0.52 
   0   6   3   14.10    0.54 
   0   6   3   14.60    0.47 
   0   6   3   13.81    0.46 
   0   6   3   14.97    0.63 
  -1  -6  -3    0.09    0.09 
  -1  -6  -3   -0.01    0.05 
   1   6   3    0.17    0.07 
   1   6   3    0.04    0.05 
   1   6   3    0.29    0.09 
  -2  -6  -3   17.10    0.50 
  -2  -6  -3   16.86    0.58 
  -2  -6  -3   16.48    0.57 
   2   6   3   17.54    0.54 
   2   6   3   16.99    0.51 
   2   6   3   16.56    0.58 
  -3  -6  -3    0.71    0.14 
  -3  -6  -3    1.12    0.13 
  -3  -6  -3    0.67    0.12 
   3   6   3    0.72    0.10 
  -4  -6  -3   20.81    0.67 
  -4  -6  -3   21.83    0.69 
  -4  -6  -3   20.91    0.59 
   4   6   3   20.70    0.55 
  -5  -6  -3    0.11    0.09 
  -5  -6  -3    0.24    0.07 
  -5  -6  -3    0.22    0.10 
   5   6   3    0.28    0.05 
  -6  -6  -3    6.85    0.35 
  -6  -6  -3    7.00    0.36 
  -6  -6  -3    7.29    0.30 
  -7  -6  -3    1.86    0.16 
  -7  -6  -3    1.88    0.22 
  -7  -6  -3    1.67    0.21 
  -7  -6  -3    1.79    0.21 
  -8  -6  -3   16.98    0.61 
  -8  -6  -3   17.59    0.63 
  -9  -6  -3    0.57    0.15 
  -9  -6  -3    0.46    0.13 
 -10  -6  -3    0.06    0.10 
 -10  -6  -3   -0.02    0.08 
 -11  -6  -3    0.29    0.11 
 -11  -6  -3    0.33    0.13 
  -6   7   3    0.02    0.08 
  -6   7   3    0.01    0.09 
  -5   7   3    0.51    0.14 
  -5   7   3    0.48    0.13 
  -4   7   3    0.68    0.15 
  -4   7   3    0.60    0.13 
   3  -7  -3    0.26    0.16 
   3  -7  -3    0.06    0.10 
  -3   7   3   -0.06    0.08 
  -3   7   3    0.23    0.10 
   2  -7  -3    8.66    0.40 
   2  -7  -3    8.07    0.39 
  -2   7   3    8.69    0.46 
  -2   7   3    9.20    0.38 
  -2   7   3    9.30    0.40 
   1  -7  -3    5.86    0.33 
   1  -7  -3    6.18    0.34 
  -1   7   3    5.99    0.31 
  -1   7   3    6.04    0.36 
  -1   7   3    6.26    0.30 
   0  -7  -3   13.12    0.52 
   0  -7  -3   13.48    0.53 
   0   7   3   14.91    0.65 
   0   7   3   13.59    0.48 
   0   7   3   14.31    0.49 
  -1  -7  -3    1.85    0.22 
  -1  -7  -3    1.47    0.19 
   1   7   3    1.36    0.15 
   1   7   3    1.58    0.18 
  -2  -7  -3    2.95    0.25 
  -2  -7  -3    2.69    0.24 
   2   7   3    2.85    0.19 
   2   7   3    2.65    0.21 
  -3  -7  -3    0.02    0.09 
  -3  -7  -3    0.08    0.10 
   3   7   3    0.18    0.07 
  -4  -7  -3    6.51    0.37 
  -4  -7  -3    6.76    0.30 
  -4  -7  -3    6.15    0.35 
   4   7   3    6.63    0.27 
  -5  -7  -3    9.83    0.46 
  -5  -7  -3    9.21    0.44 
  -5  -7  -3    8.92    0.36 
   5   7   3    9.18    0.31 
  -6  -7  -3    0.06    0.10 
  -6  -7  -3    0.08    0.10 
  -6  -7  -3    0.12    0.08 
   6   7   3    0.13    0.04 
  -7  -7  -3   11.80    0.51 
  -7  -7  -3   11.12    0.51 
  -8  -7  -3   29.84    0.91 
  -8  -7  -3   29.99    0.93 
  -9  -7  -3    3.63    0.30 
  -9  -7  -3    4.17    0.32 
 -10  -7  -3    0.24    0.11 
 -10  -7  -3    0.03    0.11 
 -11  -7  -3   -0.01    0.09 
 -11  -7  -3    0.02    0.10 
  -5   8   3    0.79    0.18 
  -5   8   3    0.99    0.19 
  -4   8   3    7.16    0.40 
  -4   8   3    7.69    0.40 
  -3   8   3    1.07    0.19 
  -3   8   3    1.32    0.20 
   2  -8  -3    3.97    0.29 
   2  -8  -3    4.12    0.33 
  -2   8   3    3.97    0.27 
  -2   8   3    4.20    0.29 
   1  -8  -3    5.00    0.33 
   1  -8  -3    4.48    0.32 
  -1   8   3    4.42    0.27 
  -1   8   3    4.29    0.28 
   0  -8  -3    8.75    0.43 
   0  -8  -3    7.81    0.41 
   0   8   3    8.36    0.38 
   0   8   3    7.42    0.37 
  -1  -8  -3    2.60    0.26 
  -1  -8  -3    2.71    0.29 
   1   8   3    2.46    0.21 
   1   8   3    2.83    0.23 
  -2  -8  -3    6.67    0.39 
  -2  -8  -3    6.71    0.39 
   2   8   3    6.54    0.34 
   2   8   3    6.58    0.32 
  -3  -8  -3    6.00    0.37 
  -3  -8  -3    5.60    0.37 
   3   8   3    5.71    0.29 
   3   8   3    5.18    0.32 
  -4  -8  -3   13.20    0.56 
  -4  -8  -3   12.75    0.55 
   4   8   3   12.46    0.43 
  -5  -8  -3    8.01    0.43 
  -5  -8  -3    7.82    0.43 
  -5  -8  -3    8.62    0.37 
  -6  -8  -3    3.13    0.31 
  -6  -8  -3    3.82    0.31 
  -7  -8  -3    1.34    0.21 
  -7  -8  -3    1.84    0.25 
  -8  -8  -3    4.74    0.37 
  -8  -8  -3    5.04    0.36 
  -9  -8  -3   19.80    0.74 
  -9  -8  -3   20.54    0.77 
 -10  -8  -3    0.53    0.17 
 -10  -8  -3    0.37    0.15 
  -4   9   3    0.45    0.15 
  -4   9   3    0.48    0.15 
  -3   9   3    0.41    0.14 
  -3   9   3    0.14    0.12 
  -2   9   3    1.39    0.20 
  -2   9   3    1.60    0.22 
   1  -9  -3    0.00    0.11 
   1  -9  -3   -0.21    0.09 
  -1   9   3    0.00    0.08 
  -1   9   3    0.11    0.10 
   0  -9  -3    1.55    0.23 
   0  -9  -3    1.58    0.23 
   0   9   3    1.81    0.23 
   0   9   3    1.70    0.21 
  -1  -9  -3    0.05    0.11 
  -1  -9  -3   -0.04    0.11 
   1   9   3    0.08    0.09 
   1   9   3    0.20    0.10 
  -2  -9  -3    0.97    0.20 
  -2  -9  -3    1.49    0.23 
   2   9   3    1.03    0.16 
   2   9   3    1.46    0.21 
  -3  -9  -3   -0.06    0.10 
  -3  -9  -3   -0.08    0.10 
   3   9   3    0.01    0.10 
   3   9   3   -0.06    0.05 
  -4  -9  -3    3.40    0.31 
  -4  -9  -3    3.69    0.36 
   4   9   3    2.55    0.20 
  -5  -9  -3    0.02    0.11 
  -5  -9  -3   -0.04    0.11 
  -6  -9  -3    2.51    0.30 
  -6  -9  -3    2.14    0.27 
  -7  -9  -3    0.05    0.11 
  -7  -9  -3    0.23    0.14 
  -8  -9  -3    2.84    0.32 
  -8  -9  -3    3.35    0.35 
  -9  -9  -3    1.37    0.24 
  -9  -9  -3    1.05    0.21 
 -10  -9  -3    2.18    0.28 
 -10  -9  -3    1.75    0.26 
  -2  10   3    0.12    0.11 
  -2  10   3    0.02    0.12 
  -1  10   3   -0.03    0.10 
  -1  10   3    0.01    0.09 
   0 -10  -3    0.66    0.18 
   0 -10  -3    0.59    0.20 
   0  10   3    0.79    0.16 
   0  10   3    0.86    0.19 
  -1 -10  -3    2.16    0.29 
  -1 -10  -3    2.00    0.27 
   1  10   3    2.36    0.26 
   1  10   3    2.05    0.26 
  -2 -10  -3    0.55    0.19 
  -2 -10  -3    0.38    0.15 
   2  10   3    0.36    0.11 
   2  10   3    0.33    0.13 
  -3 -10  -3    2.17    0.29 
  -3 -10  -3    1.80    0.27 
   3  10   3    1.32    0.18 
   3  10   3    2.04    0.27 
  -4 -10  -3    0.40    0.16 
  -4 -10  -3    0.14    0.14 
  -5 -10  -3    2.08    0.27 
  -5 -10  -3    2.08    0.28 
  -6 -10  -3    1.32    0.26 
  -6 -10  -3    1.09    0.22 
  -7 -10  -3    0.16    0.14 
  -7 -10  -3    0.31    0.15 
  -8 -10  -3    0.87    0.21 
  -8 -10  -3    0.70    0.20 
  -9 -10  -3   13.78    0.66 
  -9 -10  -3   13.99    0.66 
   0  11   3    0.08    0.11 
   0  11   3   -0.09    0.09 
  -1 -11  -3    0.04    0.15 
   1  11   3    0.06    0.12 
   1  11   3    0.12    0.12 
  -2 -11  -3    0.41    0.19 
  -2 -11  -3   -0.17    0.14 
   2  11   3    0.09    0.11 
  -3 -11  -3    0.82    0.22 
  -3 -11  -3    0.68    0.20 
   3  11   3    1.25    0.23 
  -4 -11  -3   -0.02    0.13 
  -4 -11  -3   -0.03    0.13 
  -5 -11  -3    0.42    0.18 
  -5 -11  -3    0.58    0.21 
  -6 -11  -3    0.94    0.24 
  -6 -11  -3    0.61    0.20 
  -7 -11  -3    2.17    0.31 
  -7 -11  -3    1.94    0.30 
  -8 -11  -3    0.56    0.19 
  -8 -11  -3    0.66    0.20 
  -4 -12  -3    0.38    0.18 
  -5 -10   4    0.61    0.20 
  -5 -10   4    0.81    0.17 
  -4 -10   4    1.56    0.26 
  -4 -10   4    1.67    0.28 
  -3 -10   4    0.20    0.18 
  -3 -10   4    0.09    0.15 
   2  10  -4    0.23    0.11 
  -2 -10   4   -0.01    0.13 
  -2 -10   4    0.05    0.16 
  -7  -9   4    0.02    0.08 
  -7  -9   4    0.01    0.12 
  -7  -9   4    0.14    0.10 
  -6  -9   4    0.40    0.17 
  -6  -9   4    0.57    0.17 
  -6  -9   4    0.69    0.16 
  -5  -9   4    0.28    0.15 
  -5  -9   4    0.30    0.15 
  -5  -9   4    0.46    0.13 
  -4  -9   4    1.35    0.22 
  -4  -9   4    1.37    0.24 
  -4  -9   4    1.25    0.22 
  -3  -9   4    0.75    0.21 
  -3  -9   4    0.83    0.18 
   2   9  -4   -0.01    0.07 
  -2  -9   4    0.09    0.14 
  -2  -9   4    0.07    0.13 
   1   9  -4    0.35    0.11 
  -1  -9   4   -0.21    0.12 
  -1  -9   4    0.08    0.13 
   0   9  -4    0.07    0.09 
   0  -9   4    0.14    0.15 
   0  -9   4    0.09    0.14 
  -1   9  -4    0.78    0.15 
   1  -9   4    0.61    0.20 
  -8  -8   4    0.97    0.17 
  -8  -8   4    0.46    0.13 
  -8  -8   4    0.62    0.16 
  -7  -8   4    0.29    0.11 
  -7  -8   4    0.42    0.14 
  -7  -8   4    0.36    0.14 
  -6  -8   4    0.14    0.11 
  -6  -8   4    0.21    0.12 
  -6  -8   4    0.15    0.09 
  -5  -8   4    0.60    0.14 
  -5  -8   4    0.44    0.14 
  -5  -8   4    0.38    0.14 
  -4  -8   4   -0.12    0.10 
  -4  -8   4    0.00    0.10 
  -4  -8   4   -0.01    0.08 
  -3  -8   4    1.26    0.21 
  -3  -8   4    1.15    0.20 
  -3  -8   4    1.44    0.22 
   2   8  -4    1.49    0.18 
  -2  -8   4    1.32    0.23 
  -2  -8   4    1.48    0.23 
  -2  -8   4    1.93    0.24 
   1   8  -4    1.77    0.24 
   1   8  -4    1.49    0.18 
  -1  -8   4    1.48    0.23 
  -1  -8   4    1.65    0.24 
   0   8  -4    2.12    0.22 
   0   8  -4    1.71    0.18 
   0  -8   4    1.68    0.24 
   0  -8   4    1.80    0.25 
  -1   8  -4    0.19    0.09 
  -1   8  -4    0.21    0.12 
   1  -8   4    0.30    0.14 
   1  -8   4    0.35    0.15 
  -2   8  -4    0.30    0.12 
  -2   8  -4    0.31    0.10 
   2  -8   4    0.13    0.13 
  -3   8  -4    0.75    0.16 
  -3   8  -4    0.66    0.13 
  -9  -7   4    3.65    0.26 
  -9  -7   4    3.96    0.26 
  -9  -7   4    3.62    0.28 
  -8  -7   4    1.51    0.19 
  -8  -7   4    1.35    0.18 
  -8  -7   4    1.62    0.19 
  -7  -7   4    2.21    0.22 
  -7  -7   4    2.33    0.23 
  -7  -7   4    2.23    0.21 
  -6  -7   4    0.08    0.08 
  -6  -7   4    0.08    0.10 
  -6  -7   4    0.18    0.10 
  -5  -7   4    0.05    0.09 
  -5  -7   4   -0.02    0.06 
  -5  -7   4    0.01    0.09 
  -4  -7   4    0.08    0.11 
  -4  -7   4    0.32    0.11 
  -4  -7   4    0.36    0.12 
  -3  -7   4    0.22    0.11 
  -3  -7   4    0.24    0.10 
  -3  -7   4    0.14    0.10 
   2   7  -4    3.81    0.23 
   2   7  -4    4.25    0.25 
  -2  -7   4    4.41    0.32 
  -2  -7   4    4.88    0.32 
  -2  -7   4    4.24    0.32 
   1   7  -4    5.54    0.27 
   1   7  -4    5.64    0.29 
  -1  -7   4    5.63    0.35 
  -1  -7   4    6.21    0.39 
  -1  -7   4    5.48    0.36 
   0   7  -4    3.09    0.20 
   0   7  -4    3.11    0.23 
   0  -7   4    3.42    0.28 
   0  -7   4    2.88    0.28 
   0  -7   4    3.55    0.30 
  -1   7  -4    1.95    0.22 
  -1   7  -4    1.85    0.16 
   1  -7   4    1.41    0.21 
   1  -7   4    1.38    0.20 
  -2   7  -4    0.08    0.07 
  -2   7  -4   -0.08    0.06 
   2  -7   4    0.22    0.13 
   2  -7   4   -0.01    0.10 
  -3   7  -4    0.11    0.10 
  -3   7  -4    0.18    0.09 
  -4   7  -4    0.20    0.09 
  -4   7  -4    0.05    0.09 
 -10  -6   4    0.29    0.08 
 -10  -6   4    0.17    0.08 
 -10  -6   4    0.15    0.09 
  -9  -6   4    4.28    0.25 
  -9  -6   4    3.75    0.22 
  -9  -6   4    3.98    0.24 
  -8  -6   4    3.83    0.25 
  -8  -6   4    3.56    0.22 
  -8  -6   4    3.62    0.23 
  -7  -6   4    0.28    0.09 
  -7  -6   4    0.21    0.08 
  -7  -6   4    0.18    0.09 
  -6  -6   4    0.08    0.08 
  -6  -6   4    0.05    0.06 
  -6  -6   4   -0.02    0.06 
  -5  -6   4   -0.02    0.04 
  -5  -6   4    0.03    0.07 
  -5  -6   4   -0.09    0.06 
   4   6  -4    2.19    0.12 
  -4  -6   4    2.15    0.15 
  -4  -6   4    1.97    0.17 
  -4  -6   4    1.39    0.17 
  -4  -6   4    2.18    0.19 
  -4  -6   4    1.28    0.16 
  -3  -6   4    6.37    0.34 
  -3  -6   4    6.21    0.32 
  -3  -6   4    5.95    0.28 
  -3  -6   4    5.63    0.32 
   2   6  -4   17.60    0.51 
   2   6  -4   18.16    0.53 
  -2  -6   4   17.76    0.61 
  -2  -6   4   18.52    0.64 
  -2  -6   4   18.18    0.62 
   1   6  -4    3.17    0.18 
   1   6  -4    3.55    0.22 
  -1  -6   4    3.47    0.27 
  -1  -6   4    3.55    0.26 
  -1  -6   4    3.36    0.26 
   0   6  -4    0.34    0.08 
   0   6  -4    0.30    0.08 
   0  -6   4    0.30    0.11 
   0  -6   4    0.32    0.11 
   0  -6   4    0.16    0.08 
  -1   6  -4    2.94    0.18 
  -1   6  -4    2.93    0.21 
   1  -6   4    2.94    0.25 
   1  -6   4    2.93    0.26 
   1  -6   4    2.73    0.25 
  -2   6  -4    0.00    0.06 
  -2   6  -4   -0.05    0.06 
   2  -6   4   -0.05    0.08 
   2  -6   4   -0.02    0.09 
  -3   6  -4    0.00    0.07 
  -3   6  -4    0.09    0.08 
   3  -6   4    0.06    0.09 
   3  -6   4   -0.02    0.09 
  -4   6  -4    0.00    0.08 
  -4   6  -4   -0.06    0.07 
  -5   6  -4    0.20    0.11 
  -5   6  -4    0.25    0.11 
 -10  -5   4    1.35    0.11 
 -10  -5   4    1.35    0.12 
 -10  -5   4    1.08    0.12 
  -9  -5   4    0.63    0.10 
  -9  -5   4    0.66    0.11 
  -9  -5   4    0.72    0.10 
  -8  -5   4   10.50    0.37 
  -8  -5   4   10.56    0.35 
  -8  -5   4    9.84    0.37 
  -7  -5   4    0.90    0.13 
  -7  -5   4    0.73    0.11 
  -7  -5   4    0.81    0.11 
  -6  -5   4    2.99    0.21 
  -6  -5   4    3.34    0.19 
  -6  -5   4    2.93    0.20 
  -6  -5   4    3.06    0.17 
  -5  -5   4    0.02    0.05 
  -5  -5   4    0.03    0.04 
  -5  -5   4    0.10    0.06 
  -5  -5   4    0.21    0.08 
  -5  -5   4    0.03    0.07 
  -4  -5   4    3.29    0.20 
  -4  -5   4    3.36    0.18 
  -4  -5   4    3.29    0.22 
  -4  -5   4    3.50    0.22 
  -4  -5   4    3.21    0.14 
   3   5  -4    0.06    0.04 
  -3  -5   4    0.04    0.04 
  -3  -5   4    0.08    0.05 
  -3  -5   4    0.11    0.07 
  -3  -5   4    0.04    0.06 
  -3  -5   4    0.08    0.07 
   2   5  -4    3.76    0.18 
   2   5  -4    3.99    0.20 
  -2  -5   4    4.06    0.25 
  -2  -5   4    4.08    0.25 
  -2  -5   4    3.86    0.16 
  -2  -5   4    3.68    0.22 
  -2  -5   4    3.64    0.20 
   1   5  -4    0.82    0.11 
   1   5  -4    0.90    0.10 
  -1  -5   4    0.76    0.13 
  -1  -5   4    0.87    0.10 
  -1  -5   4    0.92    0.14 
  -1  -5   4    0.80    0.14 
   0   5  -4    0.08    0.04 
   0   5  -4    0.05    0.06 
   0  -5   4    0.13    0.08 
   0  -5   4    0.15    0.08 
   0  -5   4    0.03    0.05 
  -1   5  -4    0.88    0.13 
  -1   5  -4    0.84    0.10 
   1  -5   4    1.04    0.15 
   1  -5   4    0.87    0.15 
   1  -5   4    0.75    0.13 
  -2   5  -4    1.19    0.14 
  -2   5  -4    1.11    0.15 
   2  -5   4    1.02    0.17 
   2  -5   4    1.07    0.16 
   2  -5   4    1.17    0.18 
  -3   5  -4    9.66    0.37 
  -3   5  -4    9.78    0.40 
   3  -5   4    9.54    0.44 
   3  -5   4    9.12    0.43 
  -4   5  -4    1.06    0.15 
  -4   5  -4    0.78    0.14 
   4  -5   4    0.95    0.17 
   4  -5   4    0.99    0.17 
  -5   5  -4    0.04    0.08 
  -5   5  -4    0.05    0.08 
  -6   5  -4    0.29    0.12 
  -6   5  -4    0.29    0.10 
 -10  -4   4    1.15    0.10 
 -10  -4   4    1.10    0.08 
  -9  -4   4    1.16    0.09 
  -9  -4   4    1.13    0.10 
  -9  -4   4    1.04    0.10 
  -8  -4   4   22.02    0.57 
  -8  -4   4   21.64    0.53 
  -8  -4   4   21.72    0.56 
  -8  -4   4   22.68    0.52 
  -7  -4   4   19.22    0.47 
  -7  -4   4   19.31    0.52 
  -7  -4   4   18.58    0.52 
  -7  -4   4   18.97    0.48 
  -6  -4   4    2.25    0.15 
  -6  -4   4    1.79    0.14 
  -6  -4   4    2.19    0.13 
  -6  -4   4    2.07    0.16 
  -6  -4   4    2.08    0.12 
   5   4  -4    0.84    0.08 
  -5  -4   4    0.67    0.09 
  -5  -4   4    0.73    0.10 
  -5  -4   4    0.82    0.09 
  -5  -4   4    0.67    0.08 
  -5  -4   4    0.73    0.11 
  -4  -4   4    6.56    0.28 
  -4  -4   4    6.47    0.26 
  -4  -4   4    6.50    0.28 
  -4  -4   4    6.36    0.24 
  -4  -4   4    6.43    0.20 
   3   4  -4    0.45    0.06 
  -3  -4   4    0.41    0.09 
  -3  -4   4    0.48    0.10 
  -3  -4   4    0.41    0.07 
  -3  -4   4    0.44    0.05 
  -3  -4   4    0.28    0.07 
   2   4  -4    3.17    0.15 
   2   4  -4    3.02    0.14 
  -2  -4   4    3.08    0.12 
  -2  -4   4    2.92    0.16 
  -2  -4   4    3.11    0.20 
  -2  -4   4    3.31    0.20 
  -2  -4   4    3.04    0.19 
   1   4  -4    0.03    0.04 
   1   4  -4    0.02    0.03 
  -1  -4   4    0.16    0.07 
  -1  -4   4   -0.02    0.04 
  -1  -4   4   -0.02    0.04 
  -1  -4   4   -0.06    0.04 
  -1  -4   4   -0.03    0.05 
   0   4  -4    0.01    0.04 
   0   4  -4    0.05    0.04 
   0  -4   4    0.19    0.08 
   0  -4   4    0.05    0.04 
   0  -4   4   -0.03    0.04 
   0  -4   4   -0.06    0.05 
  -1   4  -4    0.33    0.08 
  -1   4  -4    0.53    0.09 
  -1   4  -4    0.41    0.07 
   1  -4   4    0.61    0.12 
   1  -4   4    0.45    0.09 
   1  -4   4    0.47    0.10 
  -2   4  -4    4.85    0.22 
  -2   4  -4    4.93    0.24 
  -2   4  -4    4.67    0.27 
   2  -4   4    5.16    0.27 
   2  -4   4    4.81    0.28 
   2  -4   4    4.96    0.29 
  -3   4  -4    0.16    0.07 
  -3   4  -4    0.17    0.08 
  -3   4  -4    0.06    0.06 
   3  -4   4    0.27    0.09 
   3  -4   4    0.32    0.10 
   3  -4   4    0.06    0.07 
  -4   4  -4    0.04    0.08 
  -4   4  -4    0.25    0.08 
  -4   4  -4    0.26    0.10 
   4  -4   4    0.09    0.08 
   4  -4   4    0.31    0.11 
  -5   4  -4   -0.03    0.06 
  -5   4  -4    0.04    0.08 
   5  -4   4    0.01    0.08 
  -6   4  -4    1.79    0.22 
  -6   4  -4    2.14    0.21 
  -7   4  -4    0.01    0.07 
  -7   4  -4   -0.06    0.09 
 -10  -3   4    0.06    0.09 
  -9  -3   4    1.67    0.10 
  -9  -3   4    1.91    0.21 
  -9  -3   4    1.84    0.09 
  -8  -3   4   -0.02    0.04 
  -8  -3   4    0.02    0.03 
  -8  -3   4    0.03    0.03 
  -8  -3   4    0.00    0.04 
  -7  -3   4   -0.02    0.03 
  -7  -3   4   -0.08    0.03 
  -7  -3   4   -0.08    0.04 
  -7  -3   4   -0.08    0.04 
  -6  -3   4    4.22    0.16 
  -6  -3   4    4.07    0.18 
  -6  -3   4    4.08    0.15 
  -6  -3   4    4.21    0.19 
  -5  -3   4   10.52    0.30 
  -5  -3   4   10.28    0.33 
  -5  -3   4   10.52    0.29 
  -5  -3   4   10.56    0.34 
   4   3  -4    0.89    0.09 
   4   3  -4    0.85    0.07 
   4   3  -4    0.75    0.07 
  -4  -3   4    0.69    0.09 
  -4  -3   4    0.77    0.10 
  -4  -3   4    0.76    0.07 
  -4  -3   4    0.75    0.09 
  -4  -3   4    0.62    0.07 
   3   3  -4   14.41    0.41 
   3   3  -4   15.16    0.33 
   3   3  -4   15.24    0.33 
  -3  -3   4   14.61    0.39 
  -3  -3   4   14.65    0.44 
  -3  -3   4   14.87    0.33 
  -3  -3   4   14.25    0.41 
  -3  -3   4   14.38    0.43 
   2   3  -4    1.32    0.11 
  -2  -3   4    0.84    0.10 
  -2  -3   4    1.22    0.12 
  -2  -3   4    1.26    0.06 
  -2  -3   4    1.29    0.10 
  -2  -3   4    1.09    0.12 
   1   3  -4   64.83    1.44 
   1   3  -4   65.38    1.37 
   1   3  -4   63.99    1.30 
  -1  -3   4   64.27    1.42 
  -1  -3   4   66.57    1.45 
  -1  -3   4   64.06    1.32 
  -1  -3   4   64.44    1.45 
  -1  -3   4   65.50    1.39 
   0   3  -4    9.38    0.31 
   0   3  -4    9.93    0.27 
   0   3  -4   10.07    0.36 
   0  -3   4    9.56    0.37 
   0  -3   4    9.94    0.37 
   0  -3   4    9.93    0.35 
   0  -3   4    9.90    0.32 
  -1   3  -4   13.84    0.46 
  -1   3  -4   14.43    0.42 
  -1   3  -4   14.12    0.38 
   1  -3   4   14.53    0.48 
   1  -3   4   14.40    0.45 
   1  -3   4   13.81    0.47 
  -2   3  -4    0.03    0.04 
  -2   3  -4    0.03    0.05 
  -2   3  -4   -0.02    0.03 
  -2   3  -4   -0.01    0.04 
  -2   3  -4   -0.02    0.03 
   2  -3   4   -0.04    0.04 
   2  -3   4   -0.04    0.04 
   2  -3   4    0.01    0.05 
  -3   3  -4    1.15    0.14 
  -3   3  -4    0.98    0.12 
  -3   3  -4    1.10    0.13 
  -3   3  -4    1.13    0.16 
  -3   3  -4    1.49    0.16 
   3  -3   4    1.30    0.16 
   3  -3   4    0.91    0.12 
   3  -3   4    1.41    0.17 
  -4   3  -4    7.80    0.33 
  -4   3  -4    7.95    0.34 
  -4   3  -4    8.20    0.35 
  -4   3  -4    7.86    0.36 
  -4   3  -4    8.03    0.37 
   4  -3   4    7.90    0.36 
   4  -3   4    8.70    0.37 
  -5   3  -4    2.37    0.22 
  -5   3  -4    2.24    0.20 
  -5   3  -4    2.11    0.20 
   5  -3   4    2.43    0.20 
  -6   3  -4    0.24    0.11 
  -6   3  -4    0.31    0.10 
  -7   3  -4    0.25    0.13 
  -7   3  -4    0.00    0.06 
  -8   3  -4    0.04    0.08 
  -8   3  -4   -0.06    0.10 
 -10  -2   4    1.06    0.17 
  -9  -2   4    1.53    0.19 
  -8  -2   4   14.84    0.37 
  -8  -2   4   15.14    0.52 
  -7  -2   4   78.79    1.61 
  -7  -2   4   79.31    1.61 
  -7  -2   4   78.48    1.74 
  -6  -2   4    1.82    0.11 
  -6  -2   4    1.77    0.11 
  -6  -2   4    1.74    0.08 
  -6  -2   4    1.85    0.07 
  -5  -2   4   18.41    0.43 
  -5  -2   4   18.49    0.47 
  -5  -2   4   18.91    0.47 
  -5  -2   4   18.50    0.42 
   4   2  -4   13.85    0.31 
   4   2  -4   13.02    0.31 
  -4  -2   4   13.04    0.37 
  -4  -2   4   13.01    0.33 
  -4  -2   4   13.07    0.37 
  -4  -2   4   13.15    0.34 
   3   2  -4   44.25    0.94 
   3   2  -4   44.60    0.96 
   3   2  -4   43.16    0.96 
  -3  -2   4   44.48    0.88 
  -3  -2   4   43.57    0.98 
  -3  -2   4   44.33    0.94 
  -3  -2   4   43.54    0.95 
  -3  -2   4   43.74    0.99 
   2   2  -4    6.93    0.24 
   2   2  -4    7.06    0.21 
   2   2  -4    7.01    0.20 
  -2  -2   4    7.10    0.26 
  -2  -2   4    6.52    0.24 
  -2  -2   4    6.88    0.22 
  -2  -2   4    6.90    0.26 
   1   2  -4   15.58    0.44 
   1   2  -4   15.83    0.44 
   1   2  -4   15.92    0.40 
   1   2  -4   16.28    0.42 
   1   2  -4   16.28    0.34 
  -1  -2   4   15.88    0.46 
  -1  -2   4   15.19    0.43 
  -1  -2   4   14.64    0.45 
  -1  -2   4   15.60    0.41 
   0   2  -4    1.01    0.12 
   0   2  -4    0.90    0.06 
   0   2  -4    0.95    0.09 
   0   2  -4    0.98    0.09 
   0  -2   4    0.92    0.10 
   0  -2   4    0.72    0.10 
   0  -2   4    0.98    0.12 
   0  -2   4    1.03    0.09 
  -1   2  -4   26.01    0.70 
  -1   2  -4   26.39    0.62 
  -1   2  -4   26.83    0.69 
  -1   2  -4   27.75    0.68 
  -1   2  -4   26.89    0.65 
   1  -2   4   27.44    0.66 
   1  -2   4   27.32    0.72 
   1  -2   4   26.63    0.70 
   1  -2   4   27.17    0.69 
  -2   2  -4    1.69    0.15 
  -2   2  -4    1.57    0.12 
  -2   2  -4    1.42    0.11 
  -2   2  -4    1.56    0.13 
  -2   2  -4    1.73    0.14 
   2  -2   4    1.57    0.14 
   2  -2   4    1.47    0.14 
   2  -2   4    1.41    0.12 
  -3   2  -4    1.99    0.16 
  -3   2  -4    2.01    0.15 
  -3   2  -4    2.16    0.16 
  -3   2  -4    1.91    0.14 
  -3   2  -4    1.90    0.16 
   3  -2   4    1.89    0.16 
   3  -2   4    2.03    0.17 
   3  -2   4    1.85    0.15 
  -4   2  -4   14.99    0.50 
  -4   2  -4   15.37    0.48 
  -4   2  -4   14.53    0.45 
  -4   2  -4   14.36    0.48 
  -4   2  -4   14.15    0.50 
   4  -2   4   15.50    0.47 
   4  -2   4   14.51    0.49 
  -5   2  -4   21.66    0.61 
  -5   2  -4   21.01    0.66 
  -5   2  -4   20.49    0.65 
  -5   2  -4   21.38    0.66 
  -5   2  -4   21.03    0.63 
   5  -2   4   21.36    0.64 
  -6   2  -4    0.08    0.10 
  -6   2  -4    0.15    0.07 
   6  -2   4    0.01    0.05 
  -7   2  -4    3.61    0.28 
  -7   2  -4    3.40    0.23 
  -8   2  -4    0.79    0.15 
  -8   2  -4    0.59    0.16 
  -9   2  -4    1.30    0.18 
  -9   2  -4    1.44    0.25 
 -10  -1   4    0.74    0.15 
  -9  -1   4    4.20    0.16 
  -9  -1   4    3.92    0.27 
  -8  -1   4    0.60    0.13 
  -8  -1   4    0.53    0.07 
  -7  -1   4   23.83    0.57 
  -7  -1   4   23.57    0.57 
  -7  -1   4   24.70    0.68 
  -6  -1   4   10.35    0.36 
  -6  -1   4   10.55    0.30 
  -6  -1   4   10.72    0.30 
  -5  -1   4    0.46    0.06 
  -5  -1   4    0.48    0.07 
  -5  -1   4    0.48    0.04 
  -5  -1   4    0.41    0.04 
  -5  -1   4    0.47    0.07 
  -4  -1   4    8.70    0.23 
  -4  -1   4    8.99    0.27 
  -4  -1   4    8.91    0.23 
  -4  -1   4    9.14    0.26 
  -4  -1   4    9.02    0.27 
   3   1  -4   10.06    0.25 
   3   1  -4   10.15    0.28 
   3   1  -4    9.51    0.26 
   3   1  -4    9.89    0.26 
  -3  -1   4    9.83    0.30 
  -3  -1   4    9.68    0.30 
  -3  -1   4    9.75    0.27 
  -3  -1   4    9.72    0.24 
  -3  -1   4    9.80    0.26 
   2   1  -4    3.90    0.16 
   2   1  -4    3.73    0.12 
   2   1  -4    3.59    0.15 
   2   1  -4    3.73    0.12 
   2   1  -4    3.77    0.17 
  -2  -1   4    3.79    0.17 
  -2  -1   4    3.58    0.17 
  -2  -1   4    3.70    0.15 
  -2  -1   4    3.77    0.14 
   1   1  -4    0.32    0.06 
   1   1  -4    0.33    0.05 
   1   1  -4    0.33    0.05 
   1   1  -4    0.19    0.05 
  -1  -1   4    0.20    0.05 
  -1  -1   4    0.30    0.06 
  -1  -1   4    0.31    0.05 
  -1  -1   4    0.34    0.05 
   0   1  -4    8.65    0.26 
   0   1  -4    8.92    0.28 
   0   1  -4    8.77    0.21 
   0   1  -4    9.21    0.30 
   0   1  -4    8.84    0.29 
   0  -1   4    9.08    0.30 
   0  -1   4    8.82    0.27 
   0  -1   4    8.95    0.31 
   0  -1   4    8.35    0.28 
  -1   1  -4    1.16    0.12 
  -1   1  -4    1.07    0.09 
  -1   1  -4    1.00    0.09 
  -1   1  -4    0.89    0.07 
  -1   1  -4    1.02    0.11 
   1  -1   4    1.17    0.10 
   1  -1   4    0.95    0.10 
   1  -1   4    1.10    0.12 
   1  -1   4    0.96    0.11 
  -2   1  -4    0.48    0.08 
  -2   1  -4    0.41    0.07 
  -2   1  -4    0.55    0.09 
  -2   1  -4    0.52    0.07 
   2  -1   4    0.51    0.09 
   2  -1   4    0.45    0.07 
   2  -1   4    0.40    0.06 
  -3   1  -4   37.49    0.90 
  -3   1  -4   36.23    0.91 
  -3   1  -4   36.35    0.86 
  -3   1  -4   37.17    0.88 
   3  -1   4   36.71    0.87 
   3  -1   4   37.31    0.90 
  -4   1  -4    7.07    0.31 
  -4   1  -4    7.54    0.28 
  -4   1  -4    7.61    0.30 
  -4   1  -4    7.08    0.30 
   4  -1   4    7.32    0.28 
   4  -1   4    7.34    0.31 
  -5   1  -4    2.16    0.16 
  -5   1  -4    2.47    0.18 
  -5   1  -4    2.28    0.19 
  -5   1  -4    2.45    0.19 
   5  -1   4    1.90    0.17 
  -6   1  -4    1.85    0.16 
  -6   1  -4    1.98    0.18 
  -6   1  -4    1.88    0.22 
  -6   1  -4    1.95    0.18 
  -6   1  -4    2.03    0.17 
   6  -1   4    1.63    0.17 
  -7   1  -4    1.39    0.15 
  -7   1  -4    1.66    0.23 
  -8   1  -4    0.18    0.11 
  -8   1  -4    0.01    0.07 
  -9   1  -4    1.35    0.25 
  -9   1  -4    0.96    0.15 
 -10   0   4    0.10    0.10 
 -10   0   4    0.07    0.04 
  -9   0   4    0.80    0.07 
  -9   0   4    1.37    0.19 
  -8   0   4    7.49    0.35 
  -8   0   4    7.30    0.27 
  -8   0   4    7.06    0.20 
  -8   0   4    7.39    0.26 
  -7   0   4   30.05    0.71 
  -7   0   4   29.87    0.72 
  -7   0   4   30.90    0.63 
  -7   0   4   30.74    0.81 
  -7   0   4   29.44    0.62 
  -6   0   4   84.61    1.72 
  -6   0   4   88.24    1.81 
  -6   0   4   88.37    1.82 
  -6   0   4   88.28    1.72 
  -6   0   4   89.16    1.88 
  -5   0   4    0.04    0.04 
  -5   0   4    0.07    0.04 
  -5   0   4    0.01    0.02 
  -5   0   4    0.00    0.03 
  -5   0   4    0.03    0.02 
  -5   0   4    0.09    0.04 
  -4   0   4   11.95    0.35 
  -4   0   4   11.66    0.28 
  -4   0   4   11.26    0.32 
  -4   0   4   11.75    0.34 
  -4   0   4   11.75    0.34 
  -4   0   4   11.77    0.29 
   3   0  -4   15.67    0.36 
   3   0  -4   16.19    0.35 
   3   0  -4   16.06    0.37 
   3   0  -4   15.78    0.39 
  -3   0   4   15.79    0.43 
  -3   0   4   16.28    0.39 
  -3   0   4   15.69    0.37 
  -3   0   4   15.71    0.42 
  -3   0   4   16.40    0.44 
  -3   0   4   15.58    0.37 
   2   0  -4  156.27    3.07 
   2   0  -4  156.24    3.10 
   2   0  -4  156.31    3.00 
   2   0  -4  159.67    3.07 
   2   0  -4  154.80    3.00 
   2   0  -4  157.74    3.10 
  -2   0   4  157.43    3.11 
  -2   0   4  151.41    3.07 
  -2   0   4  156.36    3.06 
  -2   0   4  151.71    3.00 
   1   0  -4   16.73    0.42 
   1   0  -4   16.60    0.45 
   1   0  -4   16.11    0.33 
   1   0  -4   16.49    0.39 
   1   0  -4   16.52    0.42 
   1   0  -4   16.21    0.38 
   1   0  -4   14.89    0.44 
  -1   0   4   15.92    0.40 
  -1   0   4   16.32    0.44 
  -1   0   4   16.18    0.41 
   0   0  -4    1.17    0.09 
   0   0  -4    1.06    0.08 
   0   0  -4    1.11    0.09 
   0   0   4    1.06    0.09 
   0   0   4    1.06    0.08 
   0   0   4    1.06    0.10 
  -1   0  -4   32.17    0.76 
  -1   0  -4   32.35    0.77 
  -1   0  -4   32.48    0.74 
  -1   0  -4   31.82    0.73 
   1   0   4   32.02    0.74 
   1   0   4   31.76    0.77 
   1   0   4   31.42    0.73 
  -2   0  -4  355.70    6.86 
  -2   0  -4  356.80    6.82 
  -2   0  -4  348.53    6.83 
  -2   0  -4  353.92    6.87 
   2   0   4  342.42    6.82 
   2   0   4  346.56    6.82 
   2   0   4  350.48    6.87 
  -3   0  -4    9.44    0.34 
  -3   0  -4    9.59    0.32 
  -3   0  -4    9.61    0.33 
   3   0   4    9.78    0.31 
   3   0   4    9.82    0.34 
  -4   0  -4   45.65    1.06 
  -4   0  -4   45.11    1.02 
  -4   0  -4   44.01    1.03 
  -4   0  -4   45.24    1.07 
   4   0   4   44.68    1.00 
   4   0   4   45.22    1.06 
  -5   0  -4    0.19    0.07 
  -5   0  -4    0.03    0.05 
  -5   0  -4    0.19    0.06 
  -5   0  -4    0.26    0.08 
   5   0   4    0.20    0.07 
   5   0   4    0.21    0.05 
  -6   0  -4   18.43    0.54 
  -6   0  -4   18.25    0.55 
  -6   0  -4   18.74    0.58 
  -6   0  -4   18.82    0.57 
   6   0   4   19.22    0.56 
  -7   0  -4    0.46    0.11 
  -7   0  -4    0.60    0.11 
   7   0   4    0.68    0.13 
  -8   0  -4    4.07    0.24 
  -9   0  -4    0.45    0.16 
  -9   0  -4    0.32    0.10 
 -10   0  -4    1.69    0.19 
 -10   0  -4    2.26    0.31 
 -10   1   4    1.28    0.21 
  -9   1   4    0.52    0.08 
  -9   1   4    0.61    0.14 
  -8   1   4    4.96    0.29 
  -8   1   4    4.76    0.18 
  -7   1   4    6.34    0.30 
  -7   1   4    5.53    0.25 
  -7   1   4    5.91    0.25 
  -7   1   4    5.62    0.19 
  -6   1   4   42.13    0.98 
  -6   1   4   42.49    0.99 
  -6   1   4   42.42    0.90 
  -6   1   4   42.70    1.02 
  -5   1   4    1.07    0.11 
  -5   1   4    1.05    0.08 
  -5   1   4    1.07    0.11 
  -5   1   4    1.07    0.12 
  -4   1   4    2.19    0.14 
  -4   1   4    2.10    0.13 
  -4   1   4    2.30    0.15 
  -4   1   4    2.15    0.14 
  -4   1   4    2.23    0.11 
  -4   1   4    1.85    0.10 
   3  -1  -4   15.43    0.36 
   3  -1  -4   15.35    0.37 
   3  -1  -4   15.97    0.36 
   3  -1  -4   15.75    0.39 
  -3   1   4   15.20    0.38 
  -3   1   4   15.53    0.38 
  -3   1   4   15.38    0.44 
  -3   1   4   15.11    0.38 
  -3   1   4   15.06    0.43 
  -3   1   4   15.25    0.44 
   2  -1  -4  169.72    3.30 
   2  -1  -4  163.05    3.28 
   2  -1  -4  169.22    3.33 
   2  -1  -4  168.20    3.23 
   2  -1  -4  166.97    3.23 
   2  -1  -4  167.78    3.33 
   2  -1  -4  167.18    3.30 
  -2   1   4  168.03    3.30 
  -2   1   4  160.56    3.26 
  -2   1   4  168.48    3.37 
  -2   1   4  162.33    3.30 
  -2   1   4  173.35    3.36 
  -2   1   4  173.40    3.36 
   1  -1  -4    9.37    0.23 
   1  -1  -4    9.19    0.30 
   1  -1  -4    8.72    0.28 
   1  -1  -4    9.47    0.26 
   1  -1  -4    9.21    0.25 
  -1   1   4    9.59    0.31 
  -1   1   4    9.19    0.31 
  -1   1   4    9.44    0.24 
  -1   1   4    9.13    0.27 
  -1   1   4    9.25    0.31 
  -1   1   4    9.05    0.27 
   0  -1  -4   11.23    0.30 
   0  -1  -4   10.74    0.35 
   0  -1  -4   11.00    0.33 
   0  -1  -4   11.20    0.35 
   0  -1  -4   11.02    0.31 
   0  -1  -4   11.42    0.27 
   0   1   4   11.27    0.32 
   0   1   4   10.56    0.34 
  -1  -1  -4    0.82    0.09 
  -1  -1  -4    0.46    0.06 
  -1  -1  -4    0.48    0.07 
  -1  -1  -4    0.52    0.08 
   1   1   4    0.66    0.09 
   1   1   4    0.74    0.08 
  -2  -1  -4   97.26    2.03 
  -2  -1  -4   96.55    1.99 
  -2  -1  -4   97.89    2.00 
   2   1   4   97.77    2.05 
   2   1   4   98.42    2.00 
  -3  -1  -4   64.96    1.40 
  -3  -1  -4   62.51    1.36 
  -3  -1  -4   64.98    1.37 
   3   1   4   64.01    1.41 
   3   1   4   63.01    1.35 
  -4  -1  -4   33.58    0.78 
  -4  -1  -4   34.90    0.79 
  -4  -1  -4   33.52    0.81 
   4   1   4   27.38    0.73 
   4   1   4   33.76    0.82 
  -5  -1  -4   14.63    0.47 
  -5  -1  -4   14.69    0.44 
  -5  -1  -4   14.44    0.46 
  -5  -1  -4   14.89    0.44 
   5   1   4   15.03    0.38 
  -6  -1  -4    2.67    0.17 
  -6  -1  -4    2.62    0.19 
  -6  -1  -4    2.53    0.17 
  -6  -1  -4    2.62    0.19 
   6   1   4    2.67    0.18 
  -7  -1  -4    1.56    0.17 
  -7  -1  -4    1.55    0.15 
  -7  -1  -4    1.65    0.16 
  -7  -1  -4    1.52    0.15 
   7   1   4    1.76    0.15 
  -8  -1  -4    0.76    0.12 
  -9  -1  -4    0.59    0.12 
 -10  -1  -4    0.12    0.09 
  -9   2   4    0.12    0.06 
  -9   2   4    0.24    0.11 
  -8   2   4    1.81    0.14 
  -8   2   4    2.11    0.23 
  -7   2   4    3.55    0.26 
  -7   2   4    3.41    0.23 
  -7   2   4    3.10    0.16 
  -6   2   4    0.31    0.08 
  -6   2   4    0.03    0.06 
  -6   2   4    0.12    0.05 
  -6   2   4    0.34    0.10 
  -5   2   4   15.04    0.47 
  -5   2   4   15.26    0.46 
  -5   2   4   14.71    0.40 
  -5   2   4   14.55    0.46 
   4  -2  -4    0.78    0.06 
  -4   2   4    0.79    0.11 
  -4   2   4    0.86    0.11 
  -4   2   4    0.80    0.08 
  -4   2   4    0.89    0.10 
   3  -2  -4    7.59    0.27 
   3  -2  -4    7.71    0.23 
   3  -2  -4    7.85    0.25 
  -3   2   4    7.49    0.29 
  -3   2   4    7.63    0.25 
  -3   2   4    7.64    0.25 
  -3   2   4    7.90    0.30 
   2  -2  -4  107.29    2.16 
   2  -2  -4  106.07    2.08 
   2  -2  -4  109.70    2.08 
   2  -2  -4  103.75    2.14 
   2  -2  -4  105.68    2.17 
  -2   2   4  107.39    2.21 
  -2   2   4  107.35    2.23 
  -2   2   4  103.58    2.12 
  -2   2   4  102.77    2.14 
  -2   2   4  106.25    2.22 
   1  -2  -4   60.09    1.33 
   1  -2  -4   62.19    1.31 
   1  -2  -4   60.41    1.33 
   1  -2  -4   60.71    1.25 
   1  -2  -4   59.72    1.25 
   1  -2  -4   60.28    1.24 
  -1   2   4   59.96    1.24 
  -1   2   4   60.47    1.28 
  -1   2   4   61.94    1.34 
  -1   2   4   60.69    1.35 
  -1   2   4   58.29    1.34 
   0  -2  -4   19.76    0.49 
   0  -2  -4   19.93    0.55 
   0  -2  -4   20.43    0.55 
   0  -2  -4   20.01    0.46 
   0  -2  -4   20.10    0.49 
   0  -2  -4   20.17    0.53 
   0   2   4   20.37    0.55 
   0   2   4   19.81    0.50 
   0   2   4   19.67    0.55 
   0   2   4   19.68    0.54 
   0   2   4   19.93    0.48 
  -1  -2  -4    6.59    0.27 
  -1  -2  -4    6.35    0.21 
  -1  -2  -4    6.43    0.26 
  -1  -2  -4    6.19    0.24 
   1   2   4    5.99    0.22 
   1   2   4    6.32    0.25 
   1   2   4    6.09    0.26 
  -2  -2  -4    9.45    0.34 
  -2  -2  -4    9.19    0.34 
  -2  -2  -4    9.52    0.29 
  -2  -2  -4    9.18    0.32 
   2   2   4    9.60    0.29 
   2   2   4    9.59    0.34 
  -3  -2  -4  142.18    2.91 
  -3  -2  -4  142.14    2.84 
  -3  -2  -4  140.91    2.89 
   3   2   4  139.70    2.90 
   3   2   4  141.56    2.83 
  -4  -2  -4    4.63    0.19 
  -4  -2  -4    4.61    0.22 
   4   2   4    4.43    0.22 
   4   2   4    3.23    0.15 
  -5  -2  -4    3.65    0.18 
  -5  -2  -4    3.64    0.20 
   5   2   4    3.51    0.14 
  -6  -2  -4   46.66    1.08 
  -6  -2  -4   47.22    1.11 
  -7  -2  -4   19.44    0.55 
  -7  -2  -4   18.14    0.54 
  -7  -2  -4   19.00    0.57 
  -8  -2  -4    1.67    0.17 
  -9  -2  -4    6.52    0.30 
 -10  -2  -4    1.82    0.19 
  -9   3   4    0.01    0.08 
  -9   3   4    0.06    0.07 
  -8   3   4    0.05    0.06 
  -8   3   4    0.02    0.08 
  -7   3   4    2.93    0.23 
  -7   3   4    2.99    0.18 
  -6   3   4   16.66    0.49 
  -6   3   4   17.53    0.56 
  -6   3   4   18.00    0.68 
  -6   3   4   16.97    0.57 
   5  -3  -4   55.07    1.13 
  -5   3   4   56.00    1.27 
  -5   3   4   55.45    1.32 
  -5   3   4   55.22    1.31 
  -5   3   4   54.34    1.22 
   4  -3  -4   15.29    0.40 
   4  -3  -4   15.07    0.38 
  -4   3   4   15.17    0.45 
  -4   3   4   15.20    0.50 
  -4   3   4   14.92    0.43 
  -4   3   4   15.20    0.50 
   3  -3  -4   10.04    0.32 
   3  -3  -4    9.72    0.30 
  -3   3   4    9.65    0.31 
  -3   3   4    9.84    0.37 
  -3   3   4    9.52    0.31 
  -3   3   4    9.60    0.36 
   2  -3  -4   29.34    0.72 
   2  -3  -4   23.84    0.67 
   2  -3  -4   27.54    0.61 
  -2   3   4   26.86    0.64 
  -2   3   4   26.44    0.66 
  -2   3   4   27.19    0.72 
  -2   3   4   27.16    0.73 
   1  -3  -4   31.74    0.71 
   1  -3  -4   31.39    0.79 
   1  -3  -4   31.14    0.78 
   1  -3  -4   31.11    0.71 
   1  -3  -4   31.81    0.79 
  -1   3   4   30.93    0.80 
  -1   3   4   29.95    0.74 
  -1   3   4   31.37    0.71 
  -1   3   4   31.23    0.81 
   0  -3  -4    1.69    0.13 
   0  -3  -4    1.56    0.14 
   0  -3  -4    1.64    0.09 
   0  -3  -4    1.70    0.14 
   0  -3  -4    1.64    0.11 
   0   3   4    1.73    0.14 
   0   3   4    1.52    0.11 
   0   3   4    1.52    0.14 
   0   3   4    1.75    0.11 
  -1  -3  -4    7.06    0.23 
  -1  -3  -4    6.67    0.29 
  -1  -3  -4    6.96    0.28 
  -1  -3  -4    6.80    0.24 
  -1  -3  -4    6.85    0.29 
   1   3   4    6.79    0.28 
   1   3   4    7.08    0.29 
   1   3   4    6.87    0.24 
  -2  -3  -4   81.31    1.79 
  -2  -3  -4   83.77    1.74 
  -2  -3  -4   82.22    1.81 
  -2  -3  -4   83.46    1.74 
  -2  -3  -4   84.70    1.82 
   2   3   4   83.93    1.80 
   2   3   4   83.84    1.73 
   2   3   4   82.62    1.79 
  -3  -3  -4  170.25    3.43 
  -3  -3  -4  165.78    3.40 
  -3  -3  -4  166.40    3.34 
  -3  -3  -4  166.32    3.43 
   3   3   4  166.98    3.32 
  -4  -3  -4    3.14    0.19 
  -4  -3  -4    2.98    0.20 
  -4  -3  -4    3.37    0.17 
  -4  -3  -4    3.32    0.21 
   4   3   4    3.31    0.15 
  -5  -3  -4    8.67    0.36 
  -5  -3  -4    9.15    0.35 
  -5  -3  -4    9.20    0.37 
  -5  -3  -4    8.72    0.31 
   5   3   4    9.04    0.25 
  -6  -3  -4   24.34    0.64 
  -6  -3  -4   25.39    0.69 
  -6  -3  -4   24.30    0.71 
  -7  -3  -4   25.10    0.70 
  -7  -3  -4   25.31    0.74 
  -7  -3  -4   24.82    0.66 
  -8  -3  -4    0.61    0.13 
  -9  -3  -4    0.56    0.14 
 -10  -3  -4    0.48    0.11 
 -10  -3  -4    0.54    0.13 
 -11  -3  -4    0.21    0.10 
 -11  -3  -4    0.28    0.13 
  -8   4   4    0.25    0.12 
  -8   4   4    0.24    0.09 
  -7   4   4    1.65    0.17 
  -7   4   4    1.68    0.20 
  -6   4   4    0.12    0.07 
  -6   4   4    0.03    0.07 
   5  -4  -4    9.40    0.30 
   5  -4  -4    9.62    0.27 
  -5   4   4    9.84    0.43 
  -5   4   4    9.73    0.36 
  -5   4   4   10.00    0.38 
  -5   4   4    9.61    0.45 
   4  -4  -4   24.18    0.62 
   4  -4  -4   24.95    0.61 
  -4   4   4   24.29    0.65 
  -4   4   4   24.56    0.73 
  -4   4   4   24.17    0.66 
  -4   4   4   24.83    0.74 
   3  -4  -4    1.19    0.08 
   3  -4  -4    1.24    0.11 
  -3   4   4    1.21    0.13 
  -3   4   4    1.09    0.12 
  -3   4   4    0.99    0.14 
  -3   4   4    1.06    0.14 
   2  -4  -4    9.37    0.35 
   2  -4  -4   10.51    0.37 
  -2   4   4   10.40    0.35 
  -2   4   4   10.27    0.33 
  -2   4   4   10.76    0.41 
  -2   4   4   10.39    0.41 
   1  -4  -4    0.74    0.12 
   1  -4  -4    0.68    0.10 
  -1   4   4    0.57    0.08 
  -1   4   4    0.68    0.12 
  -1   4   4    0.74    0.12 
  -1   4   4    0.69    0.09 
   0  -4  -4    1.12    0.13 
   0  -4  -4    1.34    0.11 
   0  -4  -4    1.38    0.15 
   0  -4  -4    1.27    0.15 
   0   4   4    1.24    0.14 
   0   4   4    1.49    0.17 
   0   4   4    1.23    0.11 
   0   4   4    1.06    0.11 
  -1  -4  -4    3.47    0.22 
  -1  -4  -4    3.46    0.21 
  -1  -4  -4    3.53    0.17 
  -1  -4  -4    3.55    0.18 
  -1  -4  -4    3.85    0.22 
   1   4   4    3.21    0.17 
   1   4   4    3.51    0.22 
   1   4   4    3.53    0.18 
   1   4   4    3.48    0.21 
  -2  -4  -4   14.25    0.49 
  -2  -4  -4   14.30    0.49 
  -2  -4  -4   15.38    0.43 
  -2  -4  -4   14.73    0.48 
   2   4   4   14.96    0.49 
   2   4   4   15.26    0.48 
   2   4   4   14.63    0.42 
  -3  -4  -4    0.04    0.05 
  -3  -4  -4   -0.03    0.04 
  -3  -4  -4   -0.05    0.06 
  -3  -4  -4   -0.04    0.05 
   3   4   4   -0.03    0.04 
   3   4   4   -0.03    0.04 
  -4  -4  -4   23.54    0.69 
  -4  -4  -4   23.69    0.68 
  -4  -4  -4   24.13    0.62 
  -4  -4  -4   24.03    0.70 
   4   4   4   23.83    0.58 
  -5  -4  -4    3.00    0.17 
  -5  -4  -4    3.33    0.23 
  -5  -4  -4    3.56    0.22 
  -5  -4  -4    3.52    0.23 
   5   4   4    3.46    0.14 
  -6  -4  -4    8.60    0.38 
  -6  -4  -4    8.09    0.35 
  -6  -4  -4    8.50    0.31 
  -6  -4  -4    8.58    0.38 
  -7  -4  -4   22.11    0.70 
  -7  -4  -4   21.69    0.66 
  -7  -4  -4   21.68    0.61 
  -7  -4  -4   23.20    0.71 
  -8  -4  -4    3.89    0.28 
  -8  -4  -4    4.07    0.28 
  -9  -4  -4    0.54    0.13 
  -9  -4  -4    0.49    0.13 
 -10  -4  -4    0.10    0.09 
 -10  -4  -4    0.02    0.09 
 -11  -4  -4    0.58    0.13 
 -11  -4  -4    0.71    0.18 
 -11  -4  -4    0.72    0.16 
  -7   5   4    0.58    0.14 
  -7   5   4    0.50    0.11 
  -6   5   4    2.72    0.23 
  -6   5   4    2.65    0.21 
  -5   5   4    2.51    0.20 
  -5   5   4    2.70    0.21 
   4  -5  -4    8.10    0.32 
   4  -5  -4    8.11    0.31 
  -4   5   4    8.01    0.34 
  -4   5   4    8.18    0.34 
  -4   5   4    8.02    0.42 
  -4   5   4    8.22    0.41 
   3  -5  -4   10.77    0.41 
   3  -5  -4   13.79    0.45 
  -3   5   4   13.23    0.43 
  -3   5   4   13.89    0.53 
  -3   5   4   12.73    0.44 
  -3   5   4   13.74    0.52 
   2  -5  -4   -0.04    0.05 
   2  -5  -4    0.00    0.05 
  -2   5   4   -0.01    0.05 
  -2   5   4    0.00    0.04 
  -2   5   4    0.02    0.06 
  -2   5   4    0.01    0.06 
   1  -5  -4   74.43    1.69 
   1  -5  -4   73.58    1.69 
  -1   5   4   74.36    1.61 
  -1   5   4   73.78    1.73 
  -1   5   4   76.44    1.75 
  -1   5   4   74.38    1.64 
   0  -5  -4    1.75    0.19 
   0  -5  -4    1.65    0.18 
   0   5   4    1.66    0.14 
   0   5   4    1.56    0.18 
   0   5   4    1.78    0.17 
   0   5   4    1.92    0.15 
  -1  -5  -4    0.20    0.08 
  -1  -5  -4    0.28    0.09 
   1   5   4    0.41    0.10 
   1   5   4    0.38    0.08 
   1   5   4    0.33    0.07 
   1   5   4    0.38    0.09 
  -2  -5  -4    1.16    0.16 
  -2  -5  -4    1.08    0.11 
  -2  -5  -4    0.99    0.14 
   2   5   4    0.88    0.13 
   2   5   4    0.94    0.10 
   2   5   4    0.94    0.12 
  -3  -5  -4   12.23    0.47 
  -3  -5  -4   12.84    0.47 
  -3  -5  -4   12.23    0.46 
  -3  -5  -4   12.49    0.40 
   3   5   4   12.13    0.45 
   3   5   4   12.21    0.38 
  -4  -5  -4   72.76    1.71 
  -4  -5  -4   72.64    1.70 
  -4  -5  -4   75.12    1.61 
  -4  -5  -4   74.16    1.69 
   4   5   4   72.65    1.56 
  -5  -5  -4    0.13    0.06 
  -5  -5  -4    0.16    0.08 
  -5  -5  -4    0.17    0.08 
  -5  -5  -4    0.06    0.06 
   5   5   4    0.23    0.05 
  -6  -5  -4    3.69    0.26 
  -6  -5  -4    3.51    0.26 
  -6  -5  -4    3.14    0.19 
  -6  -5  -4    3.88    0.25 
   6   5   4    3.57    0.12 
  -7  -5  -4  113.63    2.47 
  -7  -5  -4  111.78    2.50 
  -7  -5  -4  115.61    2.39 
  -7  -5  -4  112.84    2.51 
  -8  -5  -4   17.60    0.63 
  -8  -5  -4   18.25    0.64 
  -9  -5  -4    0.16    0.11 
  -9  -5  -4    0.11    0.10 
 -10  -5  -4    0.05    0.09 
 -10  -5  -4    0.00    0.09 
 -11  -5  -4    0.26    0.14 
 -11  -5  -4    0.79    0.16 
  -7   6   4    0.07    0.10 
  -7   6   4    0.01    0.08 
  -6   6   4    0.17    0.11 
  -6   6   4    0.10    0.09 
  -5   6   4    1.17    0.16 
  -5   6   4    1.08    0.16 
  -4   6   4    5.51    0.29 
  -4   6   4    5.46    0.31 
   3  -6  -4    9.23    0.38 
  -3   6   4    8.60    0.38 
  -3   6   4    9.04    0.46 
  -3   6   4   10.02    0.50 
  -3   6   4    9.58    0.38 
   2  -6  -4   10.69    0.42 
   2  -6  -4   10.61    0.43 
  -2   6   4    9.87    0.47 
  -2   6   4   10.19    0.40 
  -2   6   4   10.17    0.46 
  -2   6   4   10.33    0.38 
   1  -6  -4    0.17    0.08 
   1  -6  -4    0.23    0.09 
  -1   6   4    0.14    0.07 
  -1   6   4    0.29    0.11 
  -1   6   4    0.18    0.08 
  -1   6   4    0.24    0.08 
   0  -6  -4   -0.03    0.07 
   0  -6  -4    0.02    0.08 
   0   6   4    0.05    0.08 
   0   6   4    0.04    0.06 
   0   6   4    0.03    0.06 
  -1  -6  -4    0.00    0.07 
  -1  -6  -4    0.00    0.06 
   1   6   4   -0.02    0.05 
   1   6   4   -0.03    0.05 
   1   6   4   -0.06    0.05 
  -2  -6  -4   -0.01    0.07 
  -2  -6  -4   -0.04    0.07 
   2   6   4    0.03    0.06 
   2   6   4    0.05    0.05 
   2   6   4   -0.02    0.06 
  -3  -6  -4    7.85    0.39 
  -3  -6  -4    8.24    0.32 
  -3  -6  -4    6.78    0.36 
   3   6   4    8.15    0.31 
  -4  -6  -4    3.14    0.20 
  -4  -6  -4    3.51    0.27 
  -4  -6  -4    3.40    0.26 
   4   6   4    3.51    0.19 
  -5  -6  -4   14.31    0.56 
  -5  -6  -4   14.53    0.55 
  -5  -6  -4   14.78    0.55 
  -5  -6  -4   15.51    0.48 
  -6  -6  -4    0.12    0.08 
  -6  -6  -4    0.05    0.08 
  -6  -6  -4   -0.01    0.09 
  -6  -6  -4    0.11    0.07 
   6   6   4    0.10    0.04 
  -7  -6  -4    2.30    0.26 
  -7  -6  -4    2.02    0.23 
  -7  -6  -4    2.54    0.32 
  -7  -6  -4    2.06    0.23 
  -8  -6  -4    0.66    0.18 
  -8  -6  -4    0.74    0.17 
  -9  -6  -4    0.09    0.11 
  -9  -6  -4    0.20    0.13 
 -10  -6  -4    1.85    0.24 
 -10  -6  -4    1.87    0.25 
 -11  -6  -4    0.03    0.09 
 -11  -6  -4   -0.03    0.10 
  -6   7   4    0.55    0.15 
  -6   7   4    0.43    0.13 
  -5   7   4    0.03    0.09 
  -5   7   4   -0.04    0.07 
  -4   7   4    0.04    0.08 
  -4   7   4   -0.08    0.07 
  -3   7   4    0.66    0.14 
  -3   7   4    0.58    0.12 
   2  -7  -4   13.02    0.51 
   2  -7  -4   13.41    0.52 
  -2   7   4   12.83    0.57 
  -2   7   4   13.17    0.50 
  -2   7   4   13.20    0.48 
   1  -7  -4   12.66    0.51 
   1  -7  -4   12.56    0.50 
  -1   7   4   12.15    0.47 
  -1   7   4   12.14    0.45 
  -1   7   4   11.51    0.53 
   0  -7  -4   19.03    0.66 
   0  -7  -4   19.04    0.65 
   0   7   4   18.97    0.61 
   0   7   4   18.80    0.60 
   0   7   4   18.52    0.75 
  -1  -7  -4    0.64    0.15 
  -1  -7  -4    0.82    0.17 
   1   7   4    0.97    0.15 
   1   7   4    0.58    0.11 
  -2  -7  -4    0.10    0.10 
  -2  -7  -4    0.24    0.11 
   2   7   4    0.21    0.09 
   2   7   4    0.03    0.05 
  -3  -7  -4    0.22    0.11 
  -3  -7  -4    0.10    0.11 
   3   7   4    0.07    0.06 
  -4  -7  -4    4.01    0.31 
  -4  -7  -4    3.93    0.23 
  -4  -7  -4    3.63    0.29 
   4   7   4    3.52    0.20 
  -5  -7  -4    2.56    0.26 
  -5  -7  -4    3.30    0.28 
  -5  -7  -4    2.94    0.22 
   5   7   4    3.14    0.18 
  -6  -7  -4    5.33    0.29 
  -6  -7  -4    4.91    0.34 
  -6  -7  -4    4.55    0.33 
  -6  -7  -4    5.02    0.33 
   6   7   4    4.87    0.19 
  -7  -7  -4    0.13    0.12 
  -7  -7  -4    0.26    0.13 
  -8  -7  -4   34.12    1.05 
  -8  -7  -4   34.74    1.04 
  -9  -7  -4   13.94    0.59 
  -9  -7  -4   14.29    0.62 
 -10  -7  -4    0.11    0.11 
 -10  -7  -4    0.00    0.12 
  -5   8   4    0.08    0.10 
  -5   8   4    0.21    0.11 
  -4   8   4    0.16    0.12 
  -4   8   4    0.03    0.09 
  -3   8   4    0.32    0.11 
  -3   8   4    0.27    0.12 
   2  -8  -4   -0.01    0.09 
  -2   8   4   -0.01    0.08 
  -2   8   4   -0.01    0.08 
   1  -8  -4    0.28    0.12 
   1  -8  -4    0.21    0.13 
  -1   8   4    0.38    0.11 
  -1   8   4    0.30    0.11 
   0  -8  -4    1.98    0.24 
   0  -8  -4    1.89    0.23 
   0   8   4    2.25    0.23 
   0   8   4    1.96    0.21 
  -1  -8  -4    7.09    0.41 
  -1  -8  -4    7.19    0.41 
   1   8   4    7.65    0.37 
   1   8   4    7.12    0.35 
  -2  -8  -4    0.42    0.15 
  -2  -8  -4    0.27    0.13 
   2   8   4    0.45    0.13 
   2   8   4    0.37    0.10 
  -3  -8  -4    0.95    0.19 
  -3  -8  -4    1.07    0.19 
   3   8   4    1.05    0.14 
  -4  -8  -4   22.06    0.77 
  -4  -8  -4   20.94    0.76 
   4   8   4   21.44    0.63 
  -5  -8  -4   -0.15    0.08 
  -5  -8  -4   -0.06    0.09 
   5   8   4    0.03    0.06 
  -6  -8  -4    0.45    0.15 
  -6  -8  -4    0.39    0.15 
  -7  -8  -4    0.16    0.13 
  -7  -8  -4    0.10    0.12 
  -8  -8  -4    9.30    0.51 
  -8  -8  -4    8.88    0.49 
  -9  -8  -4    0.33    0.16 
  -9  -8  -4    0.26    0.15 
 -10  -8  -4    1.36    0.24 
 -10  -8  -4    1.24    0.23 
  -3   9   4   -0.16    0.08 
  -3   9   4   -0.04    0.10 
  -2   9   4    1.45    0.21 
  -2   9   4    0.73    0.16 
   1  -9  -4    0.18    0.12 
  -1   9   4    0.23    0.11 
  -1   9   4    0.34    0.12 
   0  -9  -4    0.93    0.19 
   0  -9  -4    1.19    0.21 
   0   9   4    0.70    0.16 
   0   9   4    1.01    0.17 
  -1  -9  -4    0.50    0.16 
  -1  -9  -4    0.43    0.14 
   1   9   4    0.50    0.13 
   1   9   4    0.31    0.12 
  -2  -9  -4    0.35    0.15 
  -2  -9  -4    0.22    0.12 
   2   9   4    0.42    0.13 
   2   9   4    0.26    0.10 
  -3  -9  -4    0.64    0.17 
  -3  -9  -4    0.24    0.14 
   3   9   4    0.25    0.08 
   3   9   4    0.45    0.13 
  -4  -9  -4    0.21    0.15 
  -4  -9  -4    0.00    0.11 
   4   9   4   -0.01    0.08 
  -5  -9  -4    0.10    0.12 
  -5  -9  -4    0.00    0.11 
  -6  -9  -4    0.15    0.13 
  -6  -9  -4    0.06    0.13 
  -7  -9  -4   -0.06    0.12 
  -7  -9  -4   -0.04    0.12 
  -8  -9  -4   -0.09    0.13 
  -8  -9  -4    0.10    0.14 
  -9  -9  -4    3.47    0.40 
  -9  -9  -4    3.81    0.35 
 -10  -9  -4    1.12    0.24 
 -10  -9  -4    1.22    0.23 
  -2  10   4    0.20    0.13 
  -2  10   4    0.66    0.17 
  -1  10   4    0.48    0.14 
  -1  10   4    0.38    0.15 
   0 -10  -4    0.07    0.12 
   0  10   4    0.25    0.12 
   0  10   4    0.20    0.11 
  -1 -10  -4    1.02    0.22 
  -1 -10  -4    0.76    0.21 
   1  10   4    0.57    0.15 
   1  10   4    0.91    0.17 
  -2 -10  -4    0.18    0.15 
  -2 -10  -4    0.31    0.17 
   2  10   4    0.13    0.09 
   2  10   4    0.29    0.13 
  -3 -10  -4    0.46    0.17 
  -3 -10  -4    1.05    0.24 
   3  10   4    0.94    0.15 
   3  10   4    1.09    0.20 
  -4 -10  -4    0.79    0.20 
  -4 -10  -4    1.21    0.24 
  -5 -10  -4    4.05    0.38 
  -5 -10  -4    3.92    0.39 
  -6 -10  -4    0.01    0.15 
  -6 -10  -4    0.07    0.15 
  -7 -10  -4    1.86    0.28 
  -7 -10  -4    2.40    0.33 
  -8 -10  -4    0.31    0.18 
  -8 -10  -4    0.11    0.16 
  -9 -10  -4    7.87    0.53 
  -9 -10  -4    8.26    0.53 
   0  11   4    0.04    0.10 
   0  11   4    0.41    0.15 
  -1 -11  -4    0.06    0.16 
   1  11   4   -0.18    0.10 
   1  11   4    0.06    0.11 
  -2 -11  -4    0.63    0.21 
  -2 -11  -4    0.89    0.24 
   2  11   4    0.70    0.20 
  -3 -11  -4    0.40    0.19 
  -3 -11  -4    0.63    0.20 
   3  11   4    0.43    0.16 
  -4 -11  -4    0.41    0.17 
  -4 -11  -4    0.72    0.23 
  -5 -11  -4    0.50    0.21 
  -5 -11  -4    0.39    0.20 
  -6 -11  -4   -0.19    0.14 
  -6 -11  -4    0.02    0.15 
  -7 -11  -4    0.06    0.15 
  -7 -11  -4   -0.02    0.14 
  -4 -12  -4    0.09    0.17 
  -6  -9   5    1.87    0.26 
  -6  -9   5    1.65    0.26 
  -6  -9   5    1.48    0.24 
  -5  -9   5    0.81    0.20 
  -5  -9   5    0.78    0.19 
  -5  -9   5    0.60    0.18 
  -4  -9   5    0.01    0.11 
  -4  -9   5    0.14    0.14 
  -4  -9   5    0.04    0.13 
  -3  -9   5    0.04    0.13 
  -3  -9   5   -0.32    0.11 
  -3  -9   5   -0.05    0.11 
   2   9  -5    0.06    0.08 
  -2  -9   5   -0.07    0.12 
  -2  -9   5    0.27    0.18 
   1   9  -5    0.10    0.08 
  -1  -9   5    0.19    0.16 
  -1  -9   5   -0.05    0.14 
   0   9  -5    0.02    0.09 
   0  -9   5    0.08    0.17 
   0  -9   5    0.02    0.15 
  -8  -8   5   -0.01    0.10 
  -8  -8   5   -0.04    0.09 
  -8  -8   5    0.05    0.09 
  -7  -8   5    0.08    0.10 
  -7  -8   5    0.27    0.12 
  -7  -8   5    0.11    0.13 
  -6  -8   5    0.10    0.12 
  -6  -8   5    0.25    0.12 
  -6  -8   5    0.15    0.11 
  -5  -8   5    0.83    0.19 
  -5  -8   5    1.52    0.23 
  -5  -8   5    0.80    0.17 
  -4  -8   5   -0.01    0.11 
  -4  -8   5    0.48    0.13 
  -4  -8   5    0.23    0.14 
  -3  -8   5    1.15    0.20 
  -3  -8   5    0.92    0.20 
  -3  -8   5    1.09    0.20 
   2   8  -5    3.06    0.21 
  -2  -8   5    2.90    0.34 
  -2  -8   5    2.56    0.30 
  -2  -8   5    2.63    0.31 
   1   8  -5    0.02    0.07 
  -1  -8   5   -0.15    0.11 
  -1  -8   5   -0.08    0.11 
  -1  -8   5   -0.07    0.09 
   0   8  -5    1.61    0.18 
   0  -8   5    1.37    0.24 
   0  -8   5    1.33    0.23 
  -1   8  -5    0.01    0.07 
  -1   8  -5   -0.03    0.09 
   1  -8   5   -0.12    0.10 
   1  -8   5    0.08    0.14 
  -2   8  -5   -0.04    0.08 
  -2   8  -5    0.07    0.08 
  -9  -7   5    7.54    0.39 
  -9  -7   5    7.74    0.38 
  -8  -7   5    0.09    0.08 
  -8  -7   5    0.16    0.09 
  -8  -7   5    0.01    0.09 
  -7  -7   5    0.27    0.11 
  -7  -7   5    0.07    0.08 
  -7  -7   5    0.18    0.11 
  -6  -7   5    0.31    0.11 
  -6  -7   5    0.20    0.11 
  -6  -7   5    0.13    0.08 
  -5  -7   5    3.28    0.26 
  -5  -7   5    2.93    0.28 
  -5  -7   5    2.89    0.26 
  -4  -7   5    0.88    0.17 
  -4  -7   5    0.49    0.12 
  -4  -7   5    0.51    0.15 
  -3  -7   5    2.55    0.26 
  -3  -7   5    3.07    0.29 
  -3  -7   5    2.28    0.25 
   2   7  -5    0.18    0.07 
  -2  -7   5    0.11    0.11 
  -2  -7   5    0.21    0.13 
  -2  -7   5    0.07    0.09 
   1   7  -5   -0.04    0.06 
   1   7  -5    0.05    0.07 
  -1  -7   5   -0.02    0.11 
  -1  -7   5    0.10    0.12 
  -1  -7   5    0.10    0.11 
   0   7  -5    2.10    0.16 
   0   7  -5    2.02    0.21 
   0  -7   5    1.53    0.24 
   0  -7   5    1.44    0.22 
   0  -7   5    1.16    0.20 
  -1   7  -5    1.39    0.16 
  -1   7  -5    1.17    0.17 
   1  -7   5    1.57    0.22 
   1  -7   5    1.76    0.26 
  -2   7  -5    0.00    0.09 
  -2   7  -5    0.24    0.08 
   2  -7   5    0.00    0.12 
   2  -7   5    0.09    0.11 
  -3   7  -5    0.12    0.10 
  -3   7  -5    0.07    0.07 
  -4   7  -5    0.16    0.12 
  -4   7  -5   -0.13    0.06 
  -9  -6   5    9.52    0.39 
  -9  -6   5   10.21    0.42 
  -9  -6   5   10.47    0.40 
  -8  -6   5    0.32    0.10 
  -8  -6   5    0.31    0.11 
  -8  -6   5    0.10    0.09 
  -7  -6   5    0.36    0.12 
  -7  -6   5    0.26    0.10 
  -7  -6   5    0.25    0.09 
  -6  -6   5    5.16    0.30 
  -6  -6   5    4.90    0.31 
  -6  -6   5    4.83    0.28 
  -5  -6   5    1.12    0.17 
  -5  -6   5    1.65    0.19 
  -5  -6   5    1.26    0.19 
  -4  -6   5    0.32    0.10 
  -4  -6   5    0.30    0.11 
  -4  -6   5    0.23    0.11 
   3   6  -5    0.01    0.06 
  -3  -6   5    0.01    0.08 
  -3  -6   5   -0.10    0.05 
  -3  -6   5   -0.03    0.08 
   2   6  -5    0.11    0.07 
   2   6  -5    0.04    0.05 
  -2  -6   5    0.10    0.10 
  -2  -6   5    0.07    0.09 
  -2  -6   5    0.02    0.07 
   1   6  -5    9.96    0.39 
   1   6  -5   10.16    0.34 
  -1  -6   5   10.12    0.48 
  -1  -6   5   10.78    0.48 
  -1  -6   5   10.51    0.46 
   0   6  -5    1.85    0.18 
   0   6  -5    1.81    0.14 
   0  -6   5    1.30    0.20 
   0  -6   5    1.55    0.21 
   0  -6   5    1.19    0.19 
  -1   6  -5    0.19    0.07 
  -1   6  -5    0.15    0.08 
   1  -6   5    0.21    0.11 
   1  -6   5    0.47    0.15 
   1  -6   5    0.50    0.14 
  -2   6  -5    3.18    0.20 
  -2   6  -5    3.06    0.24 
   2  -6   5    3.64    0.30 
   2  -6   5    3.49    0.30 
  -3   6  -5    0.34    0.12 
  -3   6  -5    0.42    0.10 
   3  -6   5    0.32    0.15 
   3  -6   5    0.21    0.17 
  -4   6  -5   -0.01    0.08 
  -4   6  -5    0.05    0.09 
  -5   6  -5    0.22    0.11 
  -5   6  -5    0.34    0.12 
 -10  -5   5    0.01    0.05 
 -10  -5   5   -0.01    0.07 
  -9  -5   5    0.73    0.12 
  -9  -5   5    0.73    0.11 
  -9  -5   5    0.76    0.11 
  -8  -5   5    7.97    0.33 
  -8  -5   5    7.70    0.31 
  -8  -5   5    8.60    0.35 
  -7  -5   5    0.73    0.12 
  -7  -5   5    0.66    0.11 
  -7  -5   5    0.52    0.10 
  -6  -5   5    0.34    0.10 
  -6  -5   5    0.40    0.09 
  -6  -5   5    0.44    0.10 
  -5  -5   5    5.60    0.29 
  -5  -5   5    5.30    0.27 
  -5  -5   5    5.51    0.30 
  -4  -5   5    7.40    0.34 
  -4  -5   5    7.14    0.24 
  -4  -5   5    7.01    0.29 
  -4  -5   5    7.35    0.35 
  -4  -5   5    7.58    0.33 
   3   5  -5    0.15    0.06 
  -3  -5   5    0.16    0.09 
  -3  -5   5    0.13    0.06 
  -3  -5   5    0.14    0.07 
  -3  -5   5    0.14    0.05 
  -3  -5   5    0.11    0.08 
   2   5  -5    0.05    0.04 
   2   5  -5    0.02    0.04 
  -2  -5   5    0.02    0.05 
  -2  -5   5    0.11    0.07 
  -2  -5   5    0.08    0.08 
  -2  -5   5    0.09    0.08 
  -2  -5   5    0.03    0.05 
   1   5  -5    1.02    0.10 
   1   5  -5    1.15    0.13 
  -1  -5   5    1.24    0.18 
  -1  -5   5    1.17    0.18 
  -1  -5   5    1.22    0.12 
  -1  -5   5    1.12    0.15 
   0   5  -5    7.50    0.32 
   0   5  -5    7.22    0.26 
   0  -5   5    7.85    0.37 
   0  -5   5    7.57    0.39 
   0  -5   5    7.70    0.39 
  -1   5  -5    0.12    0.05 
  -1   5  -5    0.14    0.07 
   1  -5   5    0.08    0.08 
   1  -5   5    0.11    0.08 
   1  -5   5    0.20    0.10 
  -2   5  -5    2.96    0.18 
  -2   5  -5    2.80    0.21 
   2  -5   5    3.02    0.24 
   2  -5   5    2.81    0.26 
   2  -5   5    3.07    0.26 
  -3   5  -5    2.51    0.21 
  -3   5  -5    2.18    0.18 
   3  -5   5    1.88    0.23 
   3  -5   5    1.71    0.22 
  -4   5  -5    0.56    0.13 
  -4   5  -5    0.47    0.12 
   4  -5   5    0.63    0.16 
  -5   5  -5    1.07    0.17 
  -5   5  -5    1.05    0.16 
  -6   5  -5    0.06    0.10 
  -6   5  -5    0.12    0.09 
 -10  -4   5    0.71    0.09 
 -10  -4   5    0.69    0.09 
  -9  -4   5    4.32    0.20 
  -9  -4   5    4.73    0.20 
  -9  -4   5    4.42    0.22 
  -9  -4   5    4.36    0.37 
  -8  -4   5   20.19    0.55 
  -8  -4   5   19.99    0.53 
  -8  -4   5   19.81    0.56 
  -7  -4   5    0.27    0.07 
  -7  -4   5    0.31    0.08 
  -7  -4   5    0.17    0.08 
  -6  -4   5    1.38    0.15 
  -6  -4   5    1.57    0.13 
  -6  -4   5    1.50    0.12 
  -6  -4   5    1.56    0.15 
   5   4  -5   29.73    0.69 
  -5  -4   5   29.95    0.75 
  -5  -4   5   28.69    0.64 
  -5  -4   5   29.05    0.79 
  -5  -4   5   29.14    0.71 
  -5  -4   5   30.68    0.78 
  -4  -4   5    7.02    0.27 
  -4  -4   5    6.81    0.31 
  -4  -4   5    7.15    0.29 
  -4  -4   5    6.95    0.19 
  -4  -4   5    7.16    0.32 
   3   4  -5    0.71    0.08 
  -3  -4   5    0.71    0.10 
  -3  -4   5    0.64    0.11 
  -3  -4   5    0.60    0.11 
  -3  -4   5    0.71    0.12 
  -3  -4   5    0.72    0.06 
   2   4  -5    0.10    0.04 
  -2  -4   5    0.07    0.03 
  -2  -4   5    0.07    0.05 
  -2  -4   5   -0.02    0.04 
  -2  -4   5   -0.03    0.06 
  -2  -4   5    0.06    0.06 
   1   4  -5    1.21    0.08 
   1   4  -5    1.25    0.13 
  -1  -4   5    0.64    0.12 
  -1  -4   5    1.02    0.15 
  -1  -4   5    1.36    0.14 
  -1  -4   5    1.08    0.13 
   0   4  -5    7.96    0.25 
   0   4  -5    8.29    0.32 
   0  -4   5    7.88    0.35 
   0  -4   5    7.88    0.36 
   0  -4   5    8.61    0.38 
  -1   4  -5   -0.02    0.04 
  -1   4  -5   -0.03    0.03 
   1  -4   5   -0.03    0.05 
   1  -4   5    0.02    0.07 
   1  -4   5   -0.05    0.05 
  -2   4  -5    1.17    0.13 
  -2   4  -5    1.17    0.14 
   2  -4   5    0.85    0.14 
   2  -4   5    1.43    0.20 
   2  -4   5    1.24    0.16 
  -3   4  -5    6.60    0.32 
  -3   4  -5    6.46    0.29 
   3  -4   5    7.33    0.37 
   3  -4   5    6.76    0.35 
   3  -4   5    6.39    0.36 
  -4   4  -5    3.12    0.24 
  -4   4  -5    4.38    0.25 
   4  -4   5    3.73    0.28 
   4  -4   5    3.98    0.28 
  -5   4  -5   -0.09    0.06 
  -5   4  -5    0.02    0.08 
  -6   4  -5    0.19    0.11 
  -6   4  -5   -0.03    0.07 
  -7   4  -5    0.04    0.09 
  -7   4  -5   -0.17    0.06 
 -10  -3   5    0.47    0.06 
  -9  -3   5    0.25    0.09 
  -9  -3   5    0.21    0.06 
  -9  -3   5    0.30    0.05 
  -8  -3   5    2.52    0.13 
  -8  -3   5    2.46    0.19 
  -8  -3   5    2.50    0.16 
  -8  -3   5    2.50    0.15 
  -8  -3   5    2.25    0.15 
  -7  -3   5    2.70    0.13 
  -7  -3   5    3.10    0.19 
  -7  -3   5    2.83    0.17 
  -7  -3   5    2.55    0.17 
  -7  -3   5    2.80    0.14 
  -6  -3   5   -0.05    0.04 
  -6  -3   5    0.05    0.05 
  -6  -3   5    0.03    0.03 
  -6  -3   5    0.06    0.05 
  -5  -3   5   12.42    0.41 
  -5  -3   5   12.67    0.36 
  -5  -3   5   12.53    0.33 
  -5  -3   5   13.13    0.38 
  -5  -3   5   12.82    0.41 
   4   3  -5   25.54    0.63 
   4   3  -5   25.51    0.61 
  -4  -3   5   24.79    0.68 
  -4  -3   5   26.11    0.62 
  -4  -3   5   25.30    0.64 
  -4  -3   5   25.27    0.68 
  -4  -3   5   25.42    0.53 
   3   3  -5    0.89    0.06 
  -3  -3   5    0.75    0.09 
  -3  -3   5    0.86    0.11 
  -3  -3   5    0.70    0.10 
  -3  -3   5    0.65    0.09 
  -2  -3   5   16.13    0.48 
  -2  -3   5   16.68    0.51 
  -2  -3   5   15.43    0.45 
  -2  -3   5   15.52    0.50 
   1   3  -5    0.25    0.06 
   1   3  -5    0.34    0.04 
  -1  -3   5    0.34    0.07 
  -1  -3   5    0.31    0.07 
  -1  -3   5    0.27    0.09 
  -1  -3   5    0.21    0.08 
   0   3  -5    0.09    0.05 
   0   3  -5   -0.02    0.02 
   0  -3   5    0.00    0.04 
   0  -3   5    0.05    0.06 
   0  -3   5    0.13    0.07 
   0  -3   5   -0.05    0.04 
  -1   3  -5    0.46    0.09 
  -1   3  -5    0.27    0.06 
  -1   3  -5    0.30    0.09 
   1  -3   5    0.21    0.08 
   1  -3   5    0.56    0.13 
   1  -3   5    0.32    0.10 
  -2   3  -5    3.18    0.17 
  -2   3  -5    2.73    0.21 
  -2   3  -5    3.36    0.19 
   2  -3   5    3.03    0.22 
   2  -3   5    2.87    0.20 
   2  -3   5    3.04    0.23 
  -3   3  -5    4.76    0.24 
  -3   3  -5    5.44    0.26 
  -3   3  -5    4.73    0.28 
   3  -3   5    4.47    0.26 
   3  -3   5    4.69    0.29 
   3  -3   5    4.60    0.28 
  -4   3  -5   15.76    0.59 
  -4   3  -5   17.30    0.55 
  -4   3  -5   17.17    0.55 
   4  -3   5   16.98    0.58 
   4  -3   5   16.27    0.55 
  -5   3  -5    5.11    0.29 
  -5   3  -5    5.19    0.29 
   5  -3   5    5.35    0.31 
  -6   3  -5    2.81    0.23 
  -6   3  -5    3.02    0.23 
  -7   3  -5    0.03    0.07 
  -7   3  -5   -0.08    0.08 
  -8   3  -5    1.40    0.23 
  -8   3  -5    1.46    0.20 
 -10  -2   5    0.10    0.08 
 -10  -2   5    0.13    0.04 
  -9  -2   5    0.72    0.07 
  -9  -2   5    0.54    0.12 
  -8  -2   5    5.88    0.22 
  -8  -2   5    5.88    0.28 
  -8  -2   5    5.93    0.18 
  -8  -2   5    5.61    0.18 
  -7  -2   5   22.39    0.51 
  -7  -2   5   22.88    0.62 
  -7  -2   5   22.37    0.57 
  -7  -2   5   22.39    0.52 
  -6  -2   5   -0.02    0.04 
  -6  -2   5    0.00    0.05 
  -6  -2   5   -0.05    0.03 
  -6  -2   5   -0.03    0.03 
  -6  -2   5    0.03    0.04 
  -5  -2   5    0.04    0.04 
  -5  -2   5   -0.03    0.04 
  -5  -2   5    0.05    0.05 
  -5  -2   5    0.00    0.04 
  -5  -2   5    0.00    0.03 
   4   2  -5   55.64    1.18 
   4   2  -5   56.36    1.13 
   4   2  -5   56.84    1.13 
  -4  -2   5   55.47    1.24 
  -4  -2   5   57.29    1.26 
  -4  -2   5   55.97    1.13 
  -4  -2   5   55.27    1.19 
  -4  -2   5   55.99    1.21 
   3   2  -5   13.47    0.41 
   3   2  -5   14.31    0.42 
  -3  -2   5   14.35    0.39 
  -3  -2   5   14.67    0.44 
  -3  -2   5   14.30    0.41 
  -3  -2   5   14.92    0.45 
   2   2  -5    0.95    0.12 
   2   2  -5    0.80    0.08 
  -2  -2   5    0.66    0.08 
  -2  -2   5    0.55    0.09 
  -2  -2   5    1.13    0.13 
  -2  -2   5    0.80    0.10 
   1   2  -5    0.69    0.10 
   1   2  -5    0.80    0.08 
  -1  -2   5    0.59    0.10 
  -1  -2   5    0.72    0.10 
  -1  -2   5    0.81    0.10 
  -1  -2   5    0.86    0.12 
   0   2  -5   57.09    1.15 
   0   2  -5   56.37    1.30 
   0   2  -5   57.41    1.24 
   0  -2   5   57.06    1.31 
   0  -2   5   57.09    1.29 
   0  -2   5   57.52    1.26 
   0  -2   5   56.18    1.32 
  -1   2  -5   33.65    0.80 
  -1   2  -5   32.84    0.74 
  -1   2  -5   32.32    0.85 
   1  -2   5   33.79    0.84 
   1  -2   5   33.48    0.87 
   1  -2   5   33.66    0.88 
  -2   2  -5    0.70    0.09 
  -2   2  -5    0.55    0.11 
  -2   2  -5    0.59    0.08 
   2  -2   5    0.76    0.11 
   2  -2   5    0.73    0.12 
   2  -2   5    0.83    0.13 
  -3   2  -5    1.60    0.16 
  -3   2  -5    1.87    0.20 
  -3   2  -5    1.05    0.16 
  -3   2  -5    1.56    0.15 
  -3   2  -5    1.59    0.14 
   3  -2   5    1.83    0.19 
   3  -2   5    1.35    0.15 
  -4   2  -5   23.02    0.71 
  -4   2  -5   22.78    0.69 
  -4   2  -5   23.29    0.65 
  -4   2  -5   22.95    0.67 
  -4   2  -5   23.06    0.68 
   4  -2   5   24.02    0.67 
   4  -2   5   23.40    0.70 
  -5   2  -5   13.30    0.50 
  -5   2  -5   13.23    0.49 
  -5   2  -5   13.07    0.46 
  -5   2  -5   13.15    0.51 
  -5   2  -5   12.62    0.49 
   5  -2   5   12.95    0.49 
  -6   2  -5    3.16    0.25 
  -6   2  -5    2.82    0.21 
  -7   2  -5    1.99    0.26 
  -7   2  -5    1.76    0.18 
  -8   2  -5    0.31    0.14 
  -8   2  -5    0.35    0.11 
 -10  -1   5    0.10    0.10 
 -10  -1   5    0.23    0.05 
  -9  -1   5    0.07    0.07 
  -9  -1   5    0.00    0.03 
  -8  -1   5    2.43    0.11 
  -8  -1   5    2.57    0.11 
  -8  -1   5    2.66    0.19 
  -7  -1   5    0.45    0.10 
  -7  -1   5    0.40    0.05 
  -7  -1   5    0.40    0.08 
  -7  -1   5    0.46    0.06 
  -6  -1   5   16.33    0.39 
  -6  -1   5   16.89    0.47 
  -6  -1   5   16.61    0.46 
  -6  -1   5   16.03    0.40 
  -5  -1   5    0.51    0.06 
  -5  -1   5    0.60    0.07 
  -5  -1   5    0.53    0.08 
  -5  -1   5    0.64    0.08 
   4   1  -5   54.42    1.11 
  -4  -1   5   53.89    1.20 
  -4  -1   5   55.23    1.11 
  -4  -1   5   54.14    1.15 
  -4  -1   5   54.12    1.14 
  -4  -1   5   54.17    1.20 
   3   1  -5    1.20    0.10 
   3   1  -5    1.31    0.09 
   3   1  -5    1.30    0.10 
  -3  -1   5    1.40    0.05 
  -3  -1   5    1.59    0.13 
  -3  -1   5    1.24    0.12 
  -3  -1   5    1.23    0.09 
  -3  -1   5    1.34    0.11 
   2   1  -5    0.59    0.06 
   2   1  -5    0.47    0.08 
   2   1  -5    0.27    0.06 
   2   1  -5    0.72    0.06 
   2   1  -5    0.73    0.09 
  -2  -1   5    0.42    0.06 
  -2  -1   5    0.56    0.07 
  -2  -1   5    0.51    0.08 
  -2  -1   5    0.57    0.09 
   1   1  -5   43.96    1.00 
   1   1  -5   44.22    0.95 
  -1  -1   5   43.96    1.03 
  -1  -1   5   44.02    1.00 
  -1  -1   5   42.80    1.02 
  -1  -1   5   43.78    0.98 
   0   1  -5    0.65    0.09 
   0   1  -5    0.86    0.09 
   0   1  -5    0.83    0.05 
   0   1  -5    0.91    0.12 
   0  -1   5    0.78    0.09 
   0  -1   5    1.06    0.11 
   0  -1   5    0.68    0.10 
   0  -1   5    0.87    0.11 
  -1   1  -5   10.23    0.30 
  -1   1  -5   10.79    0.38 
  -1   1  -5   10.83    0.34 
  -1   1  -5   10.78    0.37 
   1  -1   5   10.68    0.38 
   1  -1   5   11.43    0.36 
   1  -1   5   10.96    0.35 
  -2   1  -5    9.27    0.35 
  -2   1  -5    8.49    0.30 
  -2   1  -5    8.77    0.33 
  -2   1  -5    9.15    0.33 
   2  -1   5    8.78    0.34 
   2  -1   5    8.90    0.33 
  -3   1  -5    2.95    0.19 
  -3   1  -5    2.90    0.17 
  -3   1  -5    2.95    0.20 
   3  -1   5    2.68    0.18 
   3  -1   5    3.11    0.20 
  -4   1  -5   17.08    0.50 
  -4   1  -5   15.23    0.50 
  -4   1  -5   15.70    0.52 
  -4   1  -5   16.32    0.54 
   4  -1   5   16.34    0.49 
   4  -1   5   15.64    0.52 
  -5   1  -5    0.06    0.08 
  -5   1  -5    0.07    0.09 
  -5   1  -5    0.06    0.09 
  -5   1  -5    0.06    0.08 
  -5   1  -5    0.00    0.08 
   5  -1   5   -0.04    0.08 
   5  -1   5   -0.02    0.04 
  -6   1  -5    1.21    0.19 
  -6   1  -5    0.77    0.17 
  -6   1  -5    0.92    0.13 
   6  -1   5    0.66    0.13 
  -7   1  -5    1.51    0.22 
  -7   1  -5    1.69    0.18 
  -8   1  -5    0.13    0.11 
  -8   1  -5   -0.01    0.07 
  -9   1  -5    1.53    0.19 
  -9   1  -5    2.03    0.28 
 -10   0   5    0.07    0.09 
  -9   0   5    0.02    0.04 
  -9   0   5    0.04    0.07 
  -8   0   5    0.02    0.08 
  -8   0   5    0.03    0.04 
  -7   0   5    0.06    0.04 
  -7   0   5    0.03    0.05 
  -7   0   5    0.06    0.07 
  -7   0   5    0.05    0.06 
  -7   0   5    0.01    0.03 
  -6   0   5    0.63    0.10 
  -6   0   5    0.65    0.10 
  -6   0   5    0.54    0.07 
  -6   0   5    0.72    0.07 
  -6   0   5    0.58    0.09 
  -6   0   5    0.70    0.10 
  -5   0   5    6.80    0.27 
  -5   0   5    7.12    0.25 
  -5   0   5    7.24    0.22 
  -5   0   5    7.17    0.27 
  -5   0   5    7.18    0.27 
  -5   0   5    7.00    0.23 
   4   0  -5    1.03    0.06 
  -4   0   5    0.86    0.07 
  -4   0   5    0.87    0.07 
  -4   0   5    0.93    0.11 
  -4   0   5    0.93    0.11 
  -4   0   5    0.69    0.07 
   3   0  -5   95.59    1.88 
   3   0  -5   94.29    1.92 
   3   0  -5   93.14    1.90 
  -3   0   5   91.58    1.84 
  -3   0   5   95.57    1.90 
  -3   0   5   92.21    1.96 
  -3   0   5   92.57    1.91 
   2   0  -5    6.50    0.25 
   2   0  -5    6.91    0.18 
   2   0  -5    6.80    0.23 
   2   0  -5    6.66    0.19 
  -2   0   5    6.55    0.16 
  -2   0   5    6.38    0.23 
  -2   0   5    6.40    0.26 
  -2   0   5    6.84    0.23 
   1   0  -5   49.04    1.03 
   1   0  -5   51.27    1.13 
   1   0  -5   48.42    1.04 
   1   0  -5   46.95    0.94 
   1   0  -5   48.69    1.11 
   1   0  -5   48.35    1.12 
   1   0  -5   48.53    1.08 
  -1   0   5   46.73    1.06 
  -1   0   5   47.52    1.05 
  -1   0   5   48.63    1.11 
   0   0  -5   12.57    0.36 
   0   0  -5   12.17    0.38 
   0   0  -5   11.85    0.34 
   0   0  -5   12.14    0.29 
   0   0  -5   11.88    0.38 
   0   0   5   12.00    0.36 
   0   0   5   12.18    0.37 
   0   0   5   12.58    0.40 
  -1   0  -5   71.67    1.57 
  -1   0  -5   72.17    1.53 
  -1   0  -5   72.82    1.59 
  -1   0  -5   73.71    1.55 
   1   0   5   73.33    1.56 
   1   0   5   72.47    1.60 
   1   0   5   72.63    1.55 
  -2   0  -5   15.70    0.47 
  -2   0  -5   15.61    0.48 
  -2   0  -5   15.24    0.45 
  -2   0  -5   15.25    0.44 
   2   0   5   15.35    0.45 
   2   0   5   15.57    0.49 
   2   0   5   15.14    0.44 
  -3   0  -5    0.11    0.05 
  -3   0  -5    0.19    0.07 
  -3   0  -5    0.19    0.06 
  -3   0  -5    0.06    0.05 
   3   0   5    0.09    0.05 
   3   0   5   -0.03    0.04 
  -4   0  -5   30.43    0.82 
  -4   0  -5   31.46    0.83 
  -4   0  -5   31.10    0.79 
  -4   0  -5   31.03    0.78 
   4   0   5   30.91    0.77 
   4   0   5   30.92    0.82 
  -5   0  -5  121.34    2.56 
  -5   0  -5  122.08    2.53 
  -5   0  -5  121.72    2.59 
  -5   0  -5  120.18    2.60 
   5   0   5  121.33    2.59 
  -6   0  -5   14.46    0.48 
  -6   0  -5   14.30    0.51 
  -6   0  -5   14.23    0.52 
  -6   0  -5   14.30    0.47 
   6   0   5   13.80    0.49 
  -7   0  -5    2.93    0.21 
  -8   0  -5    1.05    0.15 
  -9   0  -5    1.17    0.16 
  -9   0  -5    1.48    0.25 
  -9   1   5    0.27    0.10 
  -9   1   5    0.16    0.06 
  -8   1   5    0.05    0.08 
  -8   1   5    0.05    0.05 
  -7   1   5    6.90    0.24 
  -7   1   5    6.82    0.29 
  -7   1   5    6.56    0.29 
  -7   1   5    7.22    0.31 
  -6   1   5    0.28    0.06 
  -6   1   5    0.26    0.07 
  -6   1   5    0.23    0.08 
  -6   1   5    0.31    0.08 
  -5   1   5   16.18    0.43 
  -5   1   5   17.20    0.47 
  -5   1   5   16.40    0.50 
  -5   1   5   16.66    0.49 
  -5   1   5   17.27    0.51 
   4  -1  -5    3.47    0.12 
  -4   1   5    3.59    0.16 
  -4   1   5    3.62    0.16 
  -4   1   5    3.68    0.20 
  -4   1   5    3.75    0.16 
  -4   1   5    3.75    0.20 
  -4   1   5    3.43    0.19 
   3  -1  -5   55.50    1.17 
   3  -1  -5   56.97    1.15 
   3  -1  -5   55.61    1.19 
  -3   1   5   52.21    1.18 
  -3   1   5   56.52    1.25 
  -3   1   5   55.10    1.25 
  -3   1   5   54.70    1.14 
  -3   1   5   54.36    1.24 
  -3   1   5   54.03    1.17 
   2  -1  -5    4.74    0.21 
   2  -1  -5    4.85    0.19 
   2  -1  -5    5.00    0.15 
   2  -1  -5    5.16    0.15 
   2  -1  -5    5.01    0.17 
  -2   1   5    5.13    0.24 
  -2   1   5    4.83    0.23 
  -2   1   5    4.97    0.16 
  -2   1   5    4.77    0.23 
  -2   1   5    4.82    0.20 
  -2   1   5    4.81    0.19 
   1  -1  -5   62.94    1.27 
   1  -1  -5   61.02    1.32 
   1  -1  -5   61.71    1.28 
   1  -1  -5   60.38    1.36 
   1  -1  -5   60.70    1.22 
   1  -1  -5   61.01    1.32 
   1  -1  -5   61.54    1.36 
  -1   1   5   61.33    1.36 
  -1   1   5   61.80    1.24 
  -1   1   5   59.56    1.30 
  -1   1   5   59.56    1.31 
   0  -1  -5   98.76    1.94 
   0  -1  -5   98.73    2.09 
   0  -1  -5   99.88    2.00 
   0  -1  -5   94.92    2.04 
   0  -1  -5   99.20    2.01 
   0  -1  -5   98.61    2.09 
   0  -1  -5   97.68    2.04 
   0   1   5   97.19    2.02 
   0   1   5   97.87    2.08 
  -1  -1  -5   29.28    0.74 
  -1  -1  -5   29.84    0.71 
  -1  -1  -5   29.68    0.78 
  -1  -1  -5   29.97    0.79 
  -1  -1  -5   30.95    0.72 
   1   1   5   30.59    0.77 
   1   1   5   29.85    0.72 
  -2  -1  -5   35.97    0.83 
  -2  -1  -5   35.56    0.84 
  -2  -1  -5   35.07    0.86 
   2   1   5   35.53    0.84 
   2   1   5   35.18    0.89 
  -3  -1  -5   30.75    0.75 
  -3  -1  -5   30.32    0.78 
  -3  -1  -5   31.39    0.76 
  -3  -1  -5   30.63    0.80 
   3   1   5   30.87    0.81 
   3   1   5   31.08    0.75 
  -4  -1  -5    2.33    0.18 
  -4  -1  -5    2.19    0.15 
  -4  -1  -5    2.55    0.18 
   4   1   5    2.54    0.18 
   4   1   5    2.56    0.15 
  -5  -1  -5    2.44    0.17 
  -5  -1  -5    2.44    0.17 
  -5  -1  -5    2.59    0.19 
  -5  -1  -5    2.34    0.19 
   5   1   5    2.32    0.19 
  -6  -1  -5   24.02    0.68 
  -6  -1  -5   24.62    0.68 
  -6  -1  -5   24.05    0.71 
  -6  -1  -5   24.92    0.73 
   6   1   5   24.91    0.58 
  -7  -1  -5    1.40    0.26 
  -7  -1  -5    1.12    0.14 
   7   1   5    1.43    0.18 
  -8  -1  -5    3.08    0.22 
  -9  -1  -5    0.07    0.08 
 -10  -1  -5    0.04    0.09 
  -9   2   5    0.07    0.06 
  -9   2   5    0.22    0.10 
  -8   2   5    0.33    0.08 
  -8   2   5    0.23    0.10 
  -7   2   5    0.26    0.09 
  -7   2   5    0.06    0.05 
  -6   2   5    0.09    0.07 
  -6   2   5    0.11    0.07 
  -6   2   5    0.16    0.08 
  -6   2   5    0.07    0.05 
  -5   2   5    0.16    0.07 
  -5   2   5    0.16    0.07 
  -5   2   5    0.23    0.07 
  -5   2   5    0.12    0.05 
   4  -2  -5    0.04    0.02 
   4  -2  -5    0.00    0.03 
   4  -2  -5    0.00    0.02 
  -4   2   5    0.12    0.06 
  -4   2   5    0.03    0.05 
  -4   2   5   -0.01    0.03 
  -4   2   5    0.04    0.04 
   3  -2  -5    9.17    0.30 
   3  -2  -5    8.87    0.30 
   3  -2  -5    8.63    0.29 
   3  -2  -5    8.77    0.28 
  -3   2   5    8.56    0.33 
  -3   2   5    8.71    0.34 
  -3   2   5    8.37    0.35 
  -3   2   5    8.49    0.29 
  -3   2   5    8.74    0.27 
   2  -2  -5    9.88    0.34 
   2  -2  -5   10.74    0.30 
   2  -2  -5   10.59    0.27 
   2  -2  -5   10.47    0.29 
  -2   2   5   10.15    0.29 
  -2   2   5    9.71    0.37 
  -2   2   5   10.68    0.38 
  -2   2   5    9.93    0.32 
  -2   2   5    9.64    0.36 
   1  -2  -5    0.90    0.08 
   1  -2  -5    0.81    0.07 
   1  -2  -5    0.90    0.08 
   1  -2  -5    0.74    0.11 
   1  -2  -5    0.76    0.11 
  -1   2   5    0.78    0.11 
  -1   2   5    0.93    0.12 
  -1   2   5    1.02    0.13 
  -1   2   5    0.55    0.07 
  -1   2   5    0.66    0.07 
   0  -2  -5    0.69    0.11 
   0  -2  -5    0.65    0.09 
   0  -2  -5    0.69    0.08 
   0  -2  -5    0.66    0.10 
   0  -2  -5    0.74    0.08 
   0  -2  -5    0.69    0.07 
   0   2   5    0.73    0.11 
   0   2   5    0.75    0.09 
   0   2   5    0.66    0.10 
   0   2   5    0.83    0.11 
  -1  -2  -5   12.28    0.43 
  -1  -2  -5   12.74    0.37 
  -1  -2  -5   12.31    0.34 
  -1  -2  -5   12.98    0.44 
  -1  -2  -5   12.85    0.40 
  -1  -2  -5   12.51    0.37 
   1   2   5   12.57    0.38 
   1   2   5   12.91    0.43 
  -2  -2  -5   16.23    0.51 
  -2  -2  -5   15.95    0.49 
  -2  -2  -5   16.92    0.46 
  -2  -2  -5   15.99    0.52 
  -2  -2  -5   15.67    0.45 
   2   2   5   15.96    0.50 
   2   2   5   16.25    0.45 
  -3  -2  -5    7.78    0.33 
  -3  -2  -5    7.46    0.28 
  -3  -2  -5    7.16    0.30 
  -3  -2  -5    7.80    0.28 
   3   2   5    7.36    0.32 
   3   2   5    7.17    0.27 
  -4  -2  -5    6.59    0.26 
  -4  -2  -5    6.64    0.31 
  -4  -2  -5    6.47    0.29 
  -4  -2  -5    6.19    0.26 
   4   2   5    6.56    0.30 
   4   2   5    6.65    0.25 
  -5  -2  -5   16.70    0.52 
  -5  -2  -5   16.66    0.49 
  -5  -2  -5   15.73    0.49 
   5   2   5   16.85    0.54 
  -6  -2  -5   50.80    1.19 
  -6  -2  -5   49.75    1.18 
  -6  -2  -5   50.09    1.22 
   6   2   5   52.01    1.07 
  -7  -2  -5    8.09    0.37 
  -7  -2  -5    8.58    0.39 
  -7  -2  -5    8.91    0.35 
  -8  -2  -5    1.03    0.14 
  -9  -2  -5    2.72    0.21 
 -10  -2  -5    6.45    0.34 
  -8   3   5    0.03    0.09 
  -8   3   5    0.06    0.06 
  -7   3   5    1.03    0.16 
  -7   3   5    1.04    0.13 
  -6   3   5    0.64    0.12 
  -6   3   5    0.50    0.10 
   5  -3  -5    3.48    0.13 
  -5   3   5    3.68    0.21 
  -5   3   5    3.32    0.23 
  -5   3   5    3.49    0.24 
  -5   3   5    3.09    0.19 
   4  -3  -5    0.49    0.07 
   4  -3  -5    0.53    0.07 
  -4   3   5    0.43    0.10 
  -4   3   5    0.55    0.09 
  -4   3   5    0.36    0.09 
  -4   3   5    0.54    0.09 
   3  -3  -5    8.82    0.31 
   3  -3  -5    8.47    0.29 
  -3   3   5    8.49    0.28 
  -3   3   5    8.47    0.35 
  -3   3   5    8.32    0.36 
  -3   3   5    8.46    0.30 
   2  -3  -5   21.23    0.50 
   2  -3  -5   21.14    0.59 
  -2   3   5   21.23    0.53 
  -2   3   5   21.42    0.64 
  -2   3   5   20.69    0.56 
  -2   3   5   20.97    0.62 
   1  -3  -5    8.72    0.35 
   1  -3  -5    9.64    0.36 
   1  -3  -5    9.53    0.28 
   1  -3  -5    8.96    0.29 
  -1   3   5    9.38    0.36 
  -1   3   5    9.49    0.37 
  -1   3   5    9.18    0.29 
   0  -3  -5   91.65    1.92 
   0  -3  -5   87.10    1.95 
   0  -3  -5   89.64    1.95 
   0  -3  -5   87.05    1.81 
   0   3   5   90.75    1.97 
   0   3   5   88.29    1.97 
   0   3   5   89.54    1.95 
   0   3   5   91.42    1.86 
  -1  -3  -5    8.41    0.33 
  -1  -3  -5    9.10    0.28 
  -1  -3  -5    8.88    0.36 
  -1  -3  -5    8.74    0.30 
  -1  -3  -5    8.41    0.35 
   1   3   5    8.28    0.33 
   1   3   5    8.62    0.35 
   1   3   5    8.01    0.29 
   1   3   5    8.53    0.36 
  -2  -3  -5   21.85    0.57 
  -2  -3  -5   22.01    0.62 
  -2  -3  -5   21.14    0.64 
  -2  -3  -5   21.60    0.56 
  -2  -3  -5   21.16    0.64 
   2   3   5   21.95    0.57 
   2   3   5   20.30    0.63 
  -3  -3  -5   14.16    0.50 
  -3  -3  -5   14.77    0.48 
  -3  -3  -5   15.09    0.51 
  -3  -3  -5   15.40    0.44 
   3   3   5   14.46    0.42 
   3   3   5   14.32    0.50 
  -4  -3  -5    2.97    0.18 
  -4  -3  -5    2.61    0.19 
  -4  -3  -5    2.86    0.21 
  -4  -3  -5    2.60    0.21 
   4   3   5    2.56    0.19 
   4   3   5    2.75    0.15 
  -5  -3  -5    3.84    0.23 
  -5  -3  -5    4.22    0.21 
  -5  -3  -5    4.15    0.26 
  -5  -3  -5    3.78    0.25 
  -6  -3  -5   54.66    1.36 
  -6  -3  -5   55.88    1.32 
  -6  -3  -5   54.66    1.26 
   6   3   5   54.96    1.14 
  -7  -3  -5    8.75    0.41 
  -7  -3  -5    8.30    0.37 
  -7  -3  -5    8.89    0.36 
  -8  -3  -5    3.09    0.26 
  -8  -3  -5    3.60    0.23 
  -9  -3  -5    1.28    0.21 
  -9  -3  -5    1.12    0.16 
 -10  -3  -5    0.98    0.19 
 -10  -3  -5    0.87    0.15 
  -8   4   5    0.09    0.10 
  -8   4   5    0.05    0.07 
  -7   4   5    0.02    0.08 
  -7   4   5    0.07    0.07 
  -6   4   5    0.40    0.11 
  -6   4   5    0.10    0.07 
   5  -4  -5    2.29    0.10 
  -5   4   5    2.48    0.19 
  -5   4   5    2.49    0.18 
   4  -4  -5    1.45    0.12 
   4  -4  -5    1.52    0.13 
  -4   4   5    1.59    0.19 
  -4   4   5    1.44    0.15 
  -4   4   5    1.86    0.21 
  -4   4   5    1.50    0.14 
   3  -4  -5    1.75    0.09 
   3  -4  -5    1.82    0.14 
  -3   4   5    1.92    0.14 
  -3   4   5    1.90    0.20 
  -3   4   5    1.94    0.21 
  -3   4   5    1.50    0.15 
   2  -4  -5    0.14    0.05 
   2  -4  -5    0.18    0.08 
   2  -4  -5    0.19    0.06 
  -2   4   5    0.17    0.06 
  -2   4   5    0.29    0.09 
  -2   4   5    0.17    0.06 
  -2   4   5    0.16    0.07 
   1  -4  -5    0.49    0.10 
   1  -4  -5    0.60    0.11 
  -1   4   5    0.32    0.09 
  -1   4   5    0.39    0.08 
  -1   4   5    0.52    0.11 
  -1   4   5    0.39    0.08 
   0  -4  -5   16.69    0.55 
   0  -4  -5   16.55    0.55 
   0   4   5   17.03    0.49 
   0   4   5   16.51    0.56 
   0   4   5   16.87    0.55 
   0   4   5   17.04    0.48 
  -1  -4  -5   14.44    0.50 
  -1  -4  -5   14.75    0.56 
  -1  -4  -5   14.26    0.51 
  -1  -4  -5   15.42    0.52 
   1   4   5   15.30    0.52 
   1   4   5   14.87    0.45 
   1   4   5   15.31    0.51 
  -2  -4  -5    2.34    0.18 
  -2  -4  -5    2.08    0.18 
  -2  -4  -5    2.36    0.15 
  -2  -4  -5    2.40    0.20 
   2   4   5    2.30    0.15 
   2   4   5    2.40    0.19 
   2   4   5    2.45    0.22 
  -3  -4  -5   19.55    0.63 
  -3  -4  -5   20.32    0.56 
  -3  -4  -5   20.03    0.64 
  -3  -4  -5   20.37    0.61 
   3   4   5   20.13    0.54 
  -4  -4  -5   41.64    1.10 
  -4  -4  -5   43.47    1.10 
  -4  -4  -5   42.17    1.00 
  -4  -4  -5   41.45    1.06 
   4   4   5   41.15    0.96 
  -5  -4  -5   -0.07    0.07 
  -5  -4  -5    0.06    0.07 
  -5  -4  -5    0.03    0.05 
  -5  -4  -5   -0.05    0.05 
   5   4   5    0.00    0.03 
  -6  -4  -5    3.13    0.20 
  -6  -4  -5    2.97    0.22 
  -6  -4  -5    3.12    0.26 
  -6  -4  -5    3.45    0.26 
   6   4   5    3.11    0.14 
  -7  -4  -5    2.42    0.23 
  -7  -4  -5    2.54    0.26 
  -7  -4  -5    2.64    0.26 
  -7  -4  -5    2.72    0.21 
  -8  -4  -5   -0.06    0.09 
  -8  -4  -5   -0.10    0.08 
  -9  -4  -5    0.01    0.10 
  -9  -4  -5    0.06    0.09 
 -10  -4  -5    1.32    0.18 
 -10  -4  -5    1.16    0.21 
 -10  -4  -5    1.25    0.21 
 -11  -4  -5    1.65    0.21 
  -7   5   5    0.00    0.07 
  -7   5   5    0.06    0.09 
  -6   5   5    0.02    0.09 
  -6   5   5    0.07    0.08 
  -5   5   5   -0.07    0.05 
  -5   5   5    0.18    0.09 
   4  -5  -5    6.00    0.26 
   4  -5  -5    6.16    0.31 
  -4   5   5    6.02    0.31 
  -4   5   5    6.51    0.30 
   3  -5  -5   -0.04    0.06 
   3  -5  -5    0.06    0.05 
   3  -5  -5    0.01    0.05 
  -3   5   5   -0.09    0.06 
  -3   5   5    0.01    0.06 
  -3   5   5    0.01    0.08 
  -3   5   5   -0.07    0.06 
   2  -5  -5    0.32    0.09 
   2  -5  -5    0.20    0.08 
  -2   5   5    0.15    0.08 
  -2   5   5    0.29    0.08 
  -2   5   5    0.25    0.07 
  -2   5   5    0.03    0.07 
   1  -5  -5    2.12    0.19 
   1  -5  -5    2.07    0.19 
  -1   5   5    2.25    0.16 
  -1   5   5    1.63    0.20 
  -1   5   5    2.17    0.17 
  -1   5   5    2.33    0.23 
   0  -5  -5    0.47    0.11 
   0  -5  -5    0.38    0.10 
   0   5   5    0.43    0.09 
   0   5   5    0.39    0.08 
   0   5   5    0.39    0.10 
   0   5   5    0.52    0.13 
  -1  -5  -5    0.02    0.08 
  -1  -5  -5    0.07    0.08 
   1   5   5    0.17    0.07 
   1   5   5    0.24    0.09 
   1   5   5    0.13    0.05 
   1   5   5    0.27    0.09 
  -2  -5  -5    0.53    0.13 
  -2  -5  -5    0.69    0.14 
  -2  -5  -5    0.59    0.13 
   2   5   5    0.91    0.14 
   2   5   5    0.51    0.09 
  -3  -5  -5    1.14    0.17 
  -3  -5  -5    1.06    0.16 
  -3  -5  -5    1.01    0.14 
  -3  -5  -5    1.00    0.12 
   3   5   5    0.80    0.11 
  -4  -5  -5    1.57    0.18 
  -4  -5  -5    1.54    0.19 
  -4  -5  -5    1.64    0.16 
  -4  -5  -5    1.08    0.16 
   4   5   5    1.53    0.13 
  -5  -5  -5   19.18    0.62 
  -5  -5  -5   19.02    0.65 
  -5  -5  -5   20.25    0.57 
  -5  -5  -5   20.16    0.66 
   5   5   5   16.51    0.49 
  -6  -5  -5   16.72    0.59 
  -6  -5  -5   17.70    0.64 
  -6  -5  -5   17.90    0.54 
  -6  -5  -5   18.21    0.64 
   6   5   5   17.78    0.45 
  -7  -5  -5   36.88    1.04 
  -7  -5  -5   36.23    1.05 
  -7  -5  -5   35.28    1.07 
  -8  -5  -5    0.05    0.10 
  -8  -5  -5    0.00    0.10 
  -9  -5  -5    0.24    0.13 
  -9  -5  -5   -0.07    0.10 
 -10  -5  -5    0.07    0.12 
 -10  -5  -5    0.14    0.12 
 -11  -5  -5    4.79    0.37 
 -11  -5  -5    5.21    0.38 
  -6   6   5    0.82    0.15 
  -6   6   5    1.12    0.17 
  -5   6   5   -0.02    0.08 
  -5   6   5   -0.03    0.06 
  -4   6   5    1.55    0.18 
  -4   6   5    1.64    0.20 
   3  -6  -5    2.11    0.20 
  -3   6   5    1.95    0.20 
  -3   6   5    2.34    0.19 
  -3   6   5    1.43    0.29 
   2  -6  -5   19.03    0.61 
   2  -6  -5   18.88    0.61 
  -2   6   5   18.51    0.68 
  -2   6   5   17.84    0.66 
  -2   6   5   18.05    0.59 
  -2   6   5   17.76    0.56 
   1  -6  -5    0.06    0.08 
   1  -6  -5    0.23    0.10 
  -1   6   5    0.15    0.10 
  -1   6   5    0.13    0.07 
  -1   6   5    0.13    0.08 
  -1   6   5    0.08    0.08 
   0  -6  -5   19.73    0.66 
   0  -6  -5   20.45    0.67 
   0   6   5   19.87    0.61 
   0   6   5   20.05    0.69 
   0   6   5   19.29    0.59 
  -1  -6  -5   30.40    0.90 
  -1  -6  -5   29.87    0.89 
   1   6   5   30.30    0.91 
   1   6   5   30.48    0.81 
   1   6   5   31.79    0.83 
  -2  -6  -5    5.98    0.34 
  -2  -6  -5    5.55    0.34 
   2   6   5    5.43    0.29 
   2   6   5    5.81    0.27 
  -3  -6  -5    3.33    0.27 
  -3  -6  -5    3.00    0.26 
   3   6   5    3.67    0.21 
  -4  -6  -5    7.36    0.32 
  -4  -6  -5    7.53    0.37 
  -4  -6  -5    6.39    0.37 
  -4  -6  -5    7.77    0.40 
   4   6   5    6.95    0.29 
  -5  -6  -5    4.01    0.24 
  -5  -6  -5    4.13    0.30 
  -5  -6  -5    3.39    0.28 
  -5  -6  -5    3.86    0.27 
   5   6   5    4.06    0.20 
  -6  -6  -5    0.17    0.11 
  -6  -6  -5    0.17    0.08 
  -6  -6  -5    0.29    0.13 
  -6  -6  -5    0.22    0.10 
   6   6   5    0.14    0.05 
  -7  -6  -5    1.19    0.20 
  -7  -6  -5    1.06    0.20 
  -8  -6  -5   -0.08    0.10 
  -8  -6  -5    0.20    0.13 
  -9  -6  -5    3.86    0.32 
  -9  -6  -5    4.71    0.35 
 -10  -6  -5    0.54    0.16 
 -10  -6  -5    0.52    0.17 
  -6   7   5    1.17    0.19 
  -5   7   5    3.93    0.28 
  -5   7   5    3.47    0.28 
  -4   7   5    0.10    0.09 
  -4   7   5    0.15    0.10 
  -3   7   5    0.29    0.11 
  -3   7   5    0.18    0.10 
   2  -7  -5   -0.17    0.08 
   2  -7  -5   -0.06    0.07 
  -2   7   5    0.07    0.07 
  -2   7   5    0.05    0.09 
  -2   7   5    0.02    0.11 
   1  -7  -5    0.29    0.12 
   1  -7  -5    0.25    0.12 
  -1   7   5    0.40    0.13 
  -1   7   5    0.34    0.11 
  -1   7   5    0.38    0.12 
   0  -7  -5   18.26    0.65 
   0  -7  -5   17.97    0.65 
   0   7   5   18.18    0.60 
   0   7   5   18.30    0.60 
  -1  -7  -5    1.39    0.20 
  -1  -7  -5    1.62    0.22 
   1   7   5    1.44    0.19 
   1   7   5    1.30    0.17 
  -2  -7  -5    2.64    0.28 
  -2  -7  -5    2.41    0.26 
   2   7   5    2.58    0.19 
   2   7   5    2.12    0.20 
  -3  -7  -5    1.16    0.19 
  -3  -7  -5    1.09    0.19 
   3   7   5    1.33    0.15 
  -4  -7  -5    0.26    0.12 
  -4  -7  -5    0.17    0.11 
   4   7   5    0.20    0.08 
  -5  -7  -5    0.08    0.11 
  -5  -7  -5   -0.01    0.09 
  -5  -7  -5   -0.03    0.06 
  -5  -7  -5   -0.04    0.06 
   5   7   5    0.02    0.06 
  -6  -7  -5    0.92    0.17 
  -6  -7  -5    1.38    0.23 
  -6  -7  -5    0.95    0.24 
   6   7   5    1.14    0.13 
  -7  -7  -5    2.63    0.30 
  -7  -7  -5    2.16    0.27 
  -8  -7  -5    0.33    0.15 
  -8  -7  -5    0.25    0.13 
  -9  -7  -5    1.04    0.21 
  -9  -7  -5    1.14    0.22 
 -10  -7  -5   -0.09    0.13 
 -10  -7  -5    0.01    0.12 
  -4   8   5    0.21    0.11 
  -4   8   5    0.47    0.13 
  -3   8   5   -0.06    0.08 
  -3   8   5   -0.05    0.08 
  -2   8   5    1.18    0.17 
  -2   8   5    1.68    0.21 
   1  -8  -5   10.54    0.49 
   1  -8  -5    9.60    0.48 
  -1   8   5   10.66    0.46 
  -1   8   5   10.21    0.45 
   0  -8  -5    0.49    0.15 
   0  -8  -5    0.60    0.16 
   0   8   5    0.44    0.12 
   0   8   5    0.45    0.12 
  -1  -8  -5    0.74    0.17 
  -1  -8  -5    1.00    0.21 
   1   8   5    0.85    0.15 
   1   8   5    0.81    0.14 
  -2  -8  -5    2.59    0.30 
  -2  -8  -5    2.68    0.29 
   2   8   5    2.05    0.23 
   2   8   5    2.63    0.21 
  -3  -8  -5    0.13    0.12 
  -3  -8  -5    0.41    0.15 
   3   8   5    0.51    0.11 
  -4  -8  -5    0.36    0.15 
  -4  -8  -5    0.02    0.12 
   4   8   5    0.36    0.10 
  -5  -8  -5    3.31    0.31 
  -5  -8  -5    3.42    0.36 
   5   8   5    2.99    0.20 
  -6  -8  -5   -0.10    0.09 
  -6  -8  -5   -0.11    0.10 
  -7  -8  -5    0.16    0.13 
  -7  -8  -5    0.00    0.12 
  -8  -8  -5   10.18    0.54 
  -8  -8  -5   10.97    0.57 
  -9  -8  -5    0.80    0.21 
  -9  -8  -5    0.86    0.22 
 -10  -8  -5    1.83    0.28 
 -10  -8  -5    2.32    0.32 
  -3   9   5    0.09    0.11 
  -3   9   5   -0.02    0.09 
  -2   9   5    0.97    0.18 
  -2   9   5    1.49    0.21 
   1  -9  -5    1.72    0.36 
  -1   9   5    1.63    0.22 
  -1   9   5    1.38    0.21 
   0  -9  -5    0.80    0.19 
   0  -9  -5    1.03    0.21 
   0   9   5    1.02    0.18 
   0   9   5    0.96    0.17 
  -1  -9  -5    0.02    0.12 
  -1  -9  -5    0.11    0.12 
   1   9   5    0.04    0.08 
   1   9   5    0.09    0.11 
  -2  -9  -5    0.62    0.16 
  -2  -9  -5    1.17    0.23 
   2   9   5    1.31    0.17 
   2   9   5    1.12    0.19 
  -3  -9  -5    1.07    0.21 
  -3  -9  -5    0.73    0.19 
   3   9   5    0.64    0.13 
  -4  -9  -5    6.77    0.44 
  -4  -9  -5    6.06    0.43 
   4   9   5    6.54    0.33 
  -5  -9  -5    0.05    0.13 
  -5  -9  -5   -0.04    0.12 
  -6  -9  -5   -0.11    0.12 
  -6  -9  -5    0.07    0.12 
  -7  -9  -5    0.23    0.16 
  -7  -9  -5    0.06    0.15 
  -8  -9  -5    0.25    0.15 
  -8  -9  -5    0.16    0.15 
  -9  -9  -5    0.02    0.14 
  -9  -9  -5   -0.08    0.13 
  -2  10   5    1.17    0.22 
  -2  10   5    1.28    0.20 
  -1  10   5    2.36    0.29 
  -1  10   5    2.45    0.28 
   0 -10  -5    0.06    0.14 
   0  10   5   -0.03    0.10 
   0  10   5   -0.06    0.08 
  -1 -10  -5    1.42    0.25 
  -1 -10  -5    1.62    0.27 
   1  10   5    1.64    0.24 
   1  10   5    1.54    0.21 
  -2 -10  -5    0.65    0.20 
  -2 -10  -5    0.16    0.15 
   2  10   5    0.28    0.14 
   2  10   5    0.29    0.11 
  -3 -10  -5    7.02    0.48 
  -3 -10  -5    7.58    0.49 
   3  10   5    7.48    0.38 
  -4 -10  -5    2.00    0.29 
  -4 -10  -5    2.42    0.31 
  -5 -10  -5    1.02    0.24 
  -5 -10  -5    0.44    0.18 
  -6 -10  -5    0.19    0.16 
  -6 -10  -5    0.16    0.17 
  -7 -10  -5    0.41    0.18 
  -7 -10  -5    0.28    0.17 
  -8 -10  -5    0.10    0.15 
  -8 -10  -5    0.22    0.18 
  -9 -10  -5   -0.14    0.15 
  -9 -10  -5   -0.32    0.09 
   0  11   5    2.13    0.29 
   0  11   5    1.51    0.22 
  -1 -11  -5    0.92    0.25 
   1  11   5    0.75    0.20 
   1  11   5    0.73    0.17 
  -2 -11  -5    0.10    0.17 
  -2 -11  -5    0.27    0.18 
   2  11   5   -0.06    0.11 
  -3 -11  -5    2.27    0.31 
  -3 -11  -5    2.25    0.31 
  -4 -11  -5    4.14    0.43 
  -4 -11  -5    3.45    0.40 
  -5 -11  -5    0.98    0.25 
  -5 -11  -5    0.56    0.22 
  -6 -11  -5    0.11    0.16 
  -6 -11  -5   -0.08    0.15 
  -7 -11  -5    0.14    0.15 
  -7 -11  -5    0.07    0.17 
  -6  -8   6    0.06    0.10 
  -6  -8   6    0.10    0.11 
  -6  -8   6    0.02    0.12 
  -5  -8   6   -0.05    0.08 
  -5  -8   6    0.15    0.14 
  -5  -8   6   -0.05    0.11 
  -4  -8   6   -0.03    0.12 
  -4  -8   6   -0.02    0.12 
  -4  -8   6    0.09    0.10 
  -3  -8   6    0.55    0.17 
  -3  -8   6    0.37    0.13 
  -3  -8   6    0.05    0.13 
  -2  -8   6    0.08    0.14 
  -2  -8   6   -0.05    0.09 
  -2  -8   6   -0.08    0.12 
  -1  -8   6    0.13    0.14 
  -1  -8   6   -0.22    0.10 
  -1  -8   6   -0.03    0.11 
   0   8  -6    1.45    0.18 
   0  -8   6    1.56    0.26 
   0  -8   6    1.33    0.26 
   0  -8   6    1.47    0.28 
  -1   8  -6    1.51    0.18 
   1  -8   6    1.43    0.26 
  -8  -7   6    0.08    0.08 
  -8  -7   6    0.30    0.12 
  -8  -7   6    0.11    0.10 
  -7  -7   6    0.06    0.09 
  -7  -7   6   -0.03    0.09 
  -7  -7   6    0.02    0.11 
  -6  -7   6    1.98    0.23 
  -6  -7   6    1.71    0.22 
  -6  -7   6    1.87    0.24 
  -5  -7   6    5.03    0.33 
  -5  -7   6    4.71    0.35 
  -5  -7   6    4.95    0.35 
  -4  -7   6    0.14    0.11 
  -4  -7   6   -0.05    0.10 
  -4  -7   6    0.04    0.10 
  -3  -7   6    0.58    0.15 
  -3  -7   6    0.11    0.11 
  -3  -7   6    0.33    0.13 
   2   7  -6    3.10    0.19 
  -2  -7   6    3.81    0.34 
  -2  -7   6    3.12    0.33 
  -2  -7   6    3.49    0.29 
   1   7  -6   20.47    0.60 
  -1  -7   6   20.72    0.78 
  -1  -7   6   22.63    0.82 
  -1  -7   6   21.61    0.78 
   0   7  -6    0.20    0.08 
   0  -7   6    0.30    0.13 
   0  -7   6    0.27    0.14 
   0  -7   6    0.36    0.15 
  -1   7  -6    0.66    0.14 
  -1   7  -6    0.70    0.12 
   1  -7   6    0.72    0.20 
   1  -7   6    0.51    0.17 
   1  -7   6    0.39    0.14 
  -2   7  -6   -0.09    0.07 
  -2   7  -6   -0.10    0.05 
   2  -7   6    0.00    0.12 
  -3   7  -6    3.59    0.25 
  -3   7  -6    3.96    0.32 
  -8  -6   6    1.15    0.17 
  -8  -6   6    1.21    0.17 
  -8  -6   6    1.16    0.18 
  -7  -6   6   -0.06    0.07 
  -7  -6   6    0.09    0.10 
  -7  -6   6    0.06    0.07 
  -6  -6   6    0.05    0.08 
  -6  -6   6    0.24    0.11 
  -6  -6   6    0.20    0.09 
  -5  -6   6    1.94    0.23 
  -5  -6   6    2.42    0.21 
  -5  -6   6    1.96    0.22 
  -4  -6   6    0.71    0.16 
  -4  -6   6    0.93    0.16 
  -4  -6   6    0.54    0.14 
  -3  -6   6    1.91    0.23 
  -3  -6   6    1.77    0.22 
  -3  -6   6    2.17    0.24 
   2   6  -6    0.02    0.05 
  -2  -6   6    0.04    0.10 
  -2  -6   6    0.00    0.09 
  -2  -6   6   -0.03    0.07 
   1   6  -6    0.47    0.08 
   1   6  -6    0.38    0.10 
  -1  -6   6    0.29    0.12 
  -1  -6   6    0.28    0.12 
  -1  -6   6    0.51    0.14 
   0   6  -6    1.00    0.14 
   0   6  -6    0.94    0.12 
   0  -6   6    0.64    0.15 
   0  -6   6    0.87    0.18 
   0  -6   6    0.79    0.17 
  -1   6  -6    4.52    0.23 
  -1   6  -6    4.78    0.29 
   1  -6   6    4.57    0.36 
   1  -6   6    4.83    0.33 
   1  -6   6    4.76    0.35 
  -2   6  -6    1.31    0.15 
  -2   6  -6    1.18    0.17 
   2  -6   6    1.26    0.20 
   2  -6   6    1.41    0.23 
   2  -6   6    1.22    0.22 
  -3   6  -6   -0.05    0.09 
  -3   6  -6    0.05    0.06 
   3  -6   6   -0.09    0.11 
  -4   6  -6    0.16    0.11 
  -4   6  -6    0.33    0.10 
  -9  -5   6    1.99    0.18 
  -9  -5   6    2.45    0.19 
  -9  -5   6    2.11    0.20 
  -8  -5   6    0.30    0.10 
  -8  -5   6    0.43    0.10 
  -8  -5   6    0.35    0.11 
  -7  -5   6    0.62    0.13 
  -7  -5   6    0.75    0.14 
  -7  -5   6    0.78    0.13 
  -6  -5   6    0.38    0.10 
  -6  -5   6    0.40    0.11 
  -6  -5   6    0.26    0.10 
  -5  -5   6    8.45    0.37 
  -5  -5   6    8.65    0.41 
  -5  -5   6    9.22    0.40 
  -4  -5   6    3.56    0.24 
  -4  -5   6    4.06    0.28 
  -4  -5   6    4.34    0.29 
  -3  -5   6    1.03    0.16 
  -3  -5   6    1.50    0.18 
  -3  -5   6    1.67    0.21 
   2   5  -6    0.19    0.07 
  -2  -5   6    0.22    0.09 
  -2  -5   6    0.03    0.08 
  -2  -5   6    0.15    0.09 
   1   5  -6    6.65    0.30 
   1   5  -6    6.59    0.24 
  -1  -5   6    6.84    0.38 
  -1  -5   6    7.37    0.38 
  -1  -5   6    6.68    0.35 
   0   5  -6   18.05    0.57 
   0   5  -6   18.21    0.48 
   0  -5   6   19.13    0.67 
   0  -5   6   18.45    0.64 
   0  -5   6   17.75    0.66 
  -1   5  -6    0.15    0.06 
  -1   5  -6    0.16    0.08 
   1  -5   6    0.21    0.11 
   1  -5   6    0.01    0.10 
   1  -5   6    0.02    0.08 
  -2   5  -6    0.05    0.06 
  -2   5  -6    0.16    0.08 
   2  -5   6    0.09    0.10 
   2  -5   6    0.17    0.11 
   2  -5   6    0.28    0.11 
  -3   5  -6   14.27    0.52 
  -3   5  -6   13.59    0.47 
   3  -5   6   13.06    0.58 
   3  -5   6   13.50    0.58 
   3  -5   6   13.82    0.59 
  -4   5  -6   13.18    0.53 
  -4   5  -6   13.38    0.49 
  -5   5  -6    0.25    0.11 
  -5   5  -6    0.08    0.09 
  -9  -4   6    2.11    0.17 
  -9  -4   6    2.16    0.18 
  -9  -4   6    2.14    0.16 
  -8  -4   6    9.05    0.35 
  -8  -4   6    8.51    0.36 
  -8  -4   6    9.82    0.34 
  -7  -4   6    0.47    0.10 
  -7  -4   6    0.48    0.09 
  -7  -4   6    0.36    0.10 
  -6  -4   6    0.11    0.07 
  -6  -4   6    0.18    0.08 
  -6  -4   6    0.13    0.07 
   5   4  -6    0.20    0.05 
  -5  -4   6    0.04    0.06 
  -5  -4   6    0.06    0.07 
  -5  -4   6    0.05    0.07 
  -5  -4   6    0.13    0.04 
  -4  -4   6    3.83    0.25 
  -4  -4   6    3.55    0.20 
  -4  -4   6    3.23    0.24 
  -4  -4   6    3.72    0.22 
   3   4  -6    2.30    0.13 
  -3  -4   6    2.20    0.20 
  -3  -4   6    2.26    0.18 
  -3  -4   6    2.20    0.17 
  -3  -4   6    2.36    0.21 
   2   4  -6    0.35    0.07 
  -2  -4   6    0.45    0.10 
  -2  -4   6    0.36    0.09 
  -2  -4   6    0.40    0.11 
  -2  -4   6    0.43    0.11 
   1   4  -6    4.26    0.22 
   1   4  -6    4.07    0.15 
  -1  -4   6    4.25    0.28 
  -1  -4   6    4.29    0.28 
  -1  -4   6    4.39    0.26 
   0   4  -6   31.65    0.72 
   0   4  -6   33.40    0.84 
   0  -4   6   32.63    0.94 
   0  -4   6   32.10    0.92 
   0  -4   6   32.19    0.90 
  -1   4  -6    0.73    0.11 
  -1   4  -6    0.63    0.08 
   1  -4   6    0.38    0.10 
   1  -4   6    0.56    0.13 
   1  -4   6    0.71    0.15 
  -2   4  -6    0.29    0.08 
  -2   4  -6    0.32    0.07 
   2  -4   6    0.25    0.10 
   2  -4   6    0.23    0.10 
   2  -4   6    0.32    0.12 
  -3   4  -6    1.87    0.16 
  -3   4  -6    1.62    0.18 
   3  -4   6    1.64    0.21 
   3  -4   6    1.15    0.17 
   3  -4   6    1.26    0.19 
  -4   4  -6    4.18    0.28 
  -4   4  -6    4.29    0.26 
   4  -4   6    4.64    0.32 
  -5   4  -6    2.22    0.21 
  -5   4  -6    2.33    0.24 
  -6   4  -6    0.20    0.11 
  -6   4  -6    0.12    0.10 
  -9  -3   6    0.86    0.11 
  -9  -3   6    0.89    0.10 
  -8  -3   6   -0.04    0.05 
  -8  -3   6    0.03    0.05 
  -7  -3   6    0.18    0.07 
  -7  -3   6    0.10    0.06 
  -7  -3   6    0.06    0.07 
  -7  -3   6    0.14    0.07 
  -6  -3   6    0.45    0.09 
  -6  -3   6    0.54    0.10 
  -6  -3   6    0.65    0.08 
  -6  -3   6    0.60    0.10 
   5   3  -6    2.75    0.13 
  -5  -3   6    2.46    0.15 
  -5  -3   6    2.50    0.10 
  -5  -3   6    2.91    0.20 
  -5  -3   6    2.65    0.19 
  -5  -3   6    2.79    0.18 
  -5  -3   6    2.54    0.09 
   4   3  -6    0.65    0.10 
   4   3  -6    0.65    0.09 
  -4  -3   6    0.51    0.11 
  -4  -3   6    0.55    0.11 
  -4  -3   6    0.45    0.08 
  -4  -3   6    0.81    0.11 
   3   3  -6    0.69    0.07 
  -3  -3   6    0.35    0.08 
  -3  -3   6    0.39    0.10 
  -3  -3   6    0.45    0.10 
  -3  -3   6    0.40    0.08 
   2   3  -6   -0.02    0.03 
  -2  -3   6    0.10    0.07 
  -2  -3   6   -0.01    0.05 
  -2  -3   6   -0.01    0.04 
  -2  -3   6    0.06    0.05 
   1   3  -6   10.66    0.35 
   1   3  -6   10.50    0.25 
  -1  -3   6   10.15    0.36 
  -1  -3   6   11.22    0.44 
  -1  -3   6   10.93    0.40 
  -1  -3   6    9.91    0.41 
   0   3  -6    2.86    0.12 
   0   3  -6    3.02    0.18 
   0  -3   6    2.38    0.20 
   0  -3   6    3.25    0.24 
   0  -3   6    2.66    0.20 
  -1   3  -6    8.94    0.34 
  -1   3  -6    8.77    0.28 
   1  -3   6    8.62    0.40 
   1  -3   6    8.78    0.40 
   1  -3   6    9.50    0.38 
  -2   3  -6    1.79    0.13 
  -2   3  -6    2.01    0.16 
   2  -3   6    1.69    0.20 
   2  -3   6    1.76    0.20 
   2  -3   6    1.98    0.18 
  -3   3  -6    1.20    0.15 
  -3   3  -6    0.92    0.12 
   3  -3   6    0.92    0.17 
   3  -3   6    0.73    0.15 
   3  -3   6    0.89    0.14 
  -4   3  -6   33.29    0.89 
  -4   3  -6   34.62    0.92 
   4  -3   6   33.98    0.98 
   4  -3   6   33.85    0.94 
  -5   3  -6    2.20    0.22 
  -5   3  -6    1.87    0.21 
   5  -3   6    2.29    0.32 
  -6   3  -6    0.44    0.13 
  -6   3  -6    0.36    0.13 
  -7   3  -6    0.05    0.10 
  -7   3  -6    0.15    0.10 
  -9  -2   6    0.40    0.08 
  -9  -2   6    0.43    0.07 
  -8  -2   6    1.23    0.11 
  -8  -2   6    1.51    0.14 
  -8  -2   6    1.64    0.14 
  -7  -2   6    0.03    0.05 
  -7  -2   6   -0.02    0.05 
  -7  -2   6    0.06    0.06 
  -6  -2   6    5.20    0.19 
  -6  -2   6    5.11    0.22 
  -6  -2   6    4.87    0.20 
  -6  -2   6    5.14    0.25 
  -5  -2   6    2.47    0.18 
  -5  -2   6    2.52    0.14 
  -5  -2   6    2.56    0.16 
  -5  -2   6    2.68    0.18 
  -5  -2   6    2.63    0.10 
   4   2  -6    8.44    0.27 
   4   2  -6    8.62    0.29 
  -4  -2   6    8.66    0.29 
  -4  -2   6    8.23    0.30 
  -4  -2   6    8.47    0.33 
  -4  -2   6    8.69    0.34 
   3   2  -6    4.64    0.23 
   3   2  -6    4.47    0.23 
   3   2  -6    4.68    0.13 
  -3  -2   6    4.91    0.23 
  -3  -2   6    4.61    0.24 
  -3  -2   6    4.33    0.24 
  -3  -2   6    4.57    0.21 
   2   2  -6    0.19    0.04 
  -2  -2   6    0.20    0.07 
  -2  -2   6    0.13    0.05 
  -2  -2   6    0.08    0.07 
  -2  -2   6    0.15    0.06 
   1   2  -6    0.44    0.07 
  -1  -2   6    0.41    0.10 
  -1  -2   6    0.47    0.09 
  -1  -2   6    0.44    0.10 
  -1  -2   6    0.37    0.08 
   0   2  -6    7.87    0.21 
   0   2  -6    8.14    0.29 
   0  -2   6    7.97    0.35 
   0  -2   6    8.06    0.36 
   0  -2   6    7.85    0.30 
   0  -2   6    8.29    0.33 
  -1   2  -6   67.83    1.47 
  -1   2  -6   64.04    1.38 
   1  -2   6   68.13    1.52 
   1  -2   6   65.92    1.55 
   1  -2   6   66.25    1.56 
  -2   2  -6    0.18    0.05 
  -2   2  -6    0.18    0.06 
   2  -2   6    0.28    0.08 
   2  -2   6    0.22    0.09 
  -3   2  -6    2.01    0.15 
  -3   2  -6    1.83    0.18 
  -3   2  -6    2.14    0.17 
   3  -2   6    2.03    0.19 
   3  -2   6    2.04    0.20 
  -4   2  -6   50.67    1.20 
  -4   2  -6   46.88    1.18 
  -4   2  -6   49.40    1.27 
   4  -2   6   49.80    1.27 
   4  -2   6   49.33    1.21 
  -5   2  -6   22.96    0.71 
  -5   2  -6   22.56    0.68 
   5  -2   6   23.22    0.74 
  -6   2  -6    1.58    0.19 
  -6   2  -6    1.28    0.18 
  -7   2  -6    0.01    0.09 
  -7   2  -6    0.18    0.09 
  -8   2  -6    0.01    0.09 
  -8   2  -6    0.10    0.09 
  -9  -1   6    0.09    0.05 
  -9  -1   6    0.06    0.08 
  -8  -1   6    1.03    0.13 
  -8  -1   6    0.94    0.10 
  -8  -1   6    0.90    0.12 
  -7  -1   6    6.11    0.25 
  -7  -1   6    6.41    0.28 
  -7  -1   6    6.44    0.26 
  -7  -1   6    6.13    0.23 
  -6  -1   6   -0.04    0.04 
  -6  -1   6    0.00    0.05 
  -6  -1   6   -0.02    0.05 
  -6  -1   6    0.03    0.04 
  -5  -1   6   12.36    0.37 
  -5  -1   6   12.11    0.32 
  -5  -1   6   12.48    0.41 
  -5  -1   6   11.99    0.35 
   4   1  -6   10.64    0.28 
   4   1  -6   10.84    0.32 
  -4  -1   6   11.00    0.38 
  -4  -1   6   11.06    0.35 
  -4  -1   6   11.05    0.33 
  -4  -1   6   10.90    0.25 
   3   1  -6    1.04    0.10 
   3   1  -6    1.08    0.12 
  -3  -1   6    0.80    0.12 
  -3  -1   6    0.92    0.11 
  -3  -1   6    0.92    0.10 
   2   1  -6    3.80    0.14 
   2   1  -6    3.80    0.21 
  -2  -1   6    3.47    0.21 
  -2  -1   6    3.55    0.18 
  -2  -1   6    3.60    0.19 
   1   1  -6    2.15    0.12 
  -1  -1   6    2.15    0.14 
  -1  -1   6    1.76    0.14 
  -1  -1   6    2.47    0.17 
   0   1  -6    0.05    0.02 
   0   1  -6    0.07    0.04 
   0   1  -6    0.14    0.06 
   0  -1   6    0.04    0.05 
   0  -1   6    0.09    0.05 
   0  -1   6    0.06    0.05 
  -1   1  -6    4.98    0.18 
  -1   1  -6    5.38    0.23 
  -1   1  -6    5.01    0.25 
   1  -1   6    5.22    0.25 
   1  -1   6    5.13    0.27 
  -2   1  -6    7.94    0.28 
  -2   1  -6    8.52    0.36 
  -2   1  -6    8.32    0.31 
   2  -1   6    8.05    0.36 
   2  -1   6    8.39    0.33 
  -3   1  -6    1.62    0.14 
  -3   1  -6    1.56    0.18 
   3  -1   6    1.54    0.17 
   3  -1   6    1.46    0.16 
  -4   1  -6    5.70    0.28 
  -4   1  -6    5.39    0.30 
  -4   1  -6    5.30    0.28 
   4  -1   6    5.08    0.26 
   4  -1   6    5.24    0.30 
  -5   1  -6    7.44    0.37 
  -5   1  -6    6.83    0.39 
  -5   1  -6    6.85    0.33 
  -5   1  -6    6.57    0.36 
   5  -1   6    7.01    0.36 
   5  -1   6    6.62    0.31 
  -6   1  -6    3.42    0.24 
  -6   1  -6    3.05    0.25 
   6  -1   6    2.52    0.32 
  -7   1  -6    0.39    0.14 
  -7   1  -6    0.33    0.10 
  -8   1  -6    0.31    0.14 
  -8   1  -6    0.06    0.08 
  -9   0   6    0.47    0.12 
  -9   0   6    0.54    0.08 
  -8   0   6    1.14    0.15 
  -8   0   6    1.08    0.11 
  -7   0   6    0.07    0.05 
  -7   0   6    0.19    0.07 
  -7   0   6    0.14    0.08 
  -6   0   6    4.18    0.19 
  -6   0   6    4.21    0.18 
  -6   0   6    3.99    0.18 
  -6   0   6    4.43    0.24 
  -5   0   6   10.72    0.31 
  -5   0   6   10.74    0.33 
  -5   0   6   11.07    0.33 
  -5   0   6   11.27    0.39 
   4   0  -6    1.74    0.11 
  -4   0   6    1.60    0.15 
  -4   0   6    1.88    0.09 
  -4   0   6    1.86    0.12 
  -4   0   6    1.69    0.12 
   3   0  -6   16.64    0.46 
   3   0  -6   16.95    0.48 
  -3   0   6   17.22    0.51 
  -3   0   6   16.24    0.46 
  -3   0   6   16.24    0.45 
  -3   0   6   16.62    0.37 
   2   0  -6    2.92    0.18 
   2   0  -6    3.74    0.13 
   2   0  -6    2.95    0.18 
  -2   0   6    3.65    0.17 
  -2   0   6    3.24    0.20 
  -2   0   6    3.52    0.18 
   1   0  -6    1.33    0.10 
   1   0  -6    1.00    0.12 
   1   0  -6    1.23    0.14 
   1   0  -6    1.31    0.13 
  -1   0   6    1.13    0.11 
  -1   0   6    1.24    0.13 
  -1   0   6    1.21    0.13 
   0   0  -6    0.19    0.03 
   0   0  -6    0.10    0.05 
   0   0  -6    0.21    0.06 
   0   0  -6    0.09    0.06 
   0   0   6    0.08    0.05 
   0   0   6    0.09    0.06 
   0   0   6    0.11    0.05 
  -1   0  -6    7.59    0.31 
  -1   0  -6    7.73    0.28 
   1   0   6    7.41    0.29 
   1   0   6    7.29    0.29 
   1   0   6    7.52    0.33 
  -2   0  -6    7.19    0.27 
  -2   0  -6    6.50    0.30 
   2   0   6    6.58    0.28 
   2   0   6    6.75    0.31 
  -3   0  -6    2.47    0.17 
  -3   0  -6    2.60    0.18 
  -3   0  -6    2.38    0.16 
  -3   0  -6    2.27    0.18 
   3   0   6    2.65    0.20 
   3   0   6    2.46    0.17 
  -4   0  -6    9.22    0.37 
  -4   0  -6   10.35    0.37 
  -4   0  -6    9.12    0.40 
  -4   0  -6    9.53    0.39 
   4   0   6    9.63    0.40 
   4   0   6   11.19    0.38 
  -5   0  -6   79.94    1.88 
  -5   0  -6   80.43    1.86 
  -5   0  -6   83.78    1.81 
  -5   0  -6   81.19    1.83 
   5   0   6   83.36    1.79 
   5   0   6   83.13    1.89 
  -6   0  -6   32.24    0.86 
  -6   0  -6   31.88    1.04 
   6   0   6   32.13    0.91 
  -7   0  -6    0.21    0.09 
  -8   0  -6    0.10    0.09 
  -9   0  -6    1.96    0.22 
  -9   0  -6    2.15    0.29 
  -9   1   6    0.11    0.10 
  -9   1   6    0.07    0.05 
  -8   1   6    0.02    0.07 
  -8   1   6    0.15    0.06 
  -7   1   6    2.95    0.19 
  -7   1   6    2.84    0.17 
  -6   1   6    4.26    0.20 
  -6   1   6    4.58    0.21 
  -6   1   6    4.24    0.24 
  -6   1   6    4.57    0.24 
  -5   1   6    1.79    0.12 
  -5   1   6    2.06    0.18 
  -5   1   6    1.77    0.15 
  -5   1   6    1.94    0.16 
  -5   1   6    1.91    0.14 
   4  -1  -6    1.29    0.09 
   4  -1  -6    1.33    0.06 
  -4   1   6    1.20    0.09 
  -4   1   6    1.18    0.15 
  -4   1   6    1.21    0.14 
  -4   1   6    1.35    0.15 
  -4   1   6    1.30    0.11 
  -4   1   6    1.45    0.12 
   3  -1  -6    1.22    0.11 
   3  -1  -6    1.31    0.12 
  -3   1   6    1.32    0.14 
  -3   1   6    1.32    0.09 
  -3   1   6    1.42    0.12 
  -3   1   6    0.99    0.12 
  -3   1   6    1.25    0.14 
  -3   1   6    1.29    0.11 
   2  -1  -6    0.38    0.08 
   2  -1  -6    0.39    0.05 
   2  -1  -6    0.50    0.05 
   2  -1  -6    0.37    0.07 
  -2   1   6    0.49    0.06 
  -2   1   6    0.43    0.09 
  -2   1   6    0.38    0.07 
  -2   1   6    0.49    0.08 
   1  -1  -6   -0.03    0.03 
   1  -1  -6    0.04    0.05 
   1  -1  -6    0.02    0.05 
   1  -1  -6    0.02    0.02 
   1  -1  -6   -0.04    0.03 
  -1   1   6   -0.03    0.04 
  -1   1   6    0.00    0.04 
  -1   1   6    0.02    0.05 
   0  -1  -6   19.45    0.43 
   0  -1  -6   18.59    0.58 
   0  -1  -6   18.98    0.50 
   0  -1  -6   19.70    0.55 
   0  -1  -6   19.08    0.59 
   0   1   6   18.39    0.53 
   0   1   6   19.59    0.58 
  -1  -1  -6   23.09    0.69 
  -1  -1  -6   23.36    0.68 
  -1  -1  -6   23.14    0.65 
  -1  -1  -6   23.46    0.55 
  -1  -1  -6   22.94    0.60 
   1   1   6   22.93    0.67 
   1   1   6   23.58    0.62 
  -2  -1  -6    3.16    0.18 
  -2  -1  -6    2.99    0.19 
  -2  -1  -6    3.27    0.20 
  -2  -1  -6    3.26    0.18 
   2   1   6    2.99    0.18 
   2   1   6    2.97    0.21 
  -3  -1  -6    1.80    0.14 
  -3  -1  -6    1.61    0.15 
  -3  -1  -6    1.29    0.15 
  -3  -1  -6    1.58    0.13 
   3   1   6    1.71    0.14 
   3   1   6    1.85    0.19 
  -4  -1  -6   11.29    0.42 
  -4  -1  -6   11.82    0.41 
  -4  -1  -6   12.18    0.41 
  -4  -1  -6   11.44    0.44 
   4   1   6   11.70    0.39 
   4   1   6   11.90    0.45 
  -5  -1  -6    1.50    0.19 
  -5  -1  -6    1.49    0.16 
  -5  -1  -6    1.49    0.16 
  -5  -1  -6    1.80    0.20 
   5   1   6    1.72    0.19 
   5   1   6    1.51    0.14 
  -6  -1  -6    1.55    0.17 
  -6  -1  -6    1.53    0.18 
  -6  -1  -6    1.15    0.16 
  -6  -1  -6    1.51    0.19 
   6   1   6    1.33    0.18 
   6   1   6    1.64    0.14 
  -7  -1  -6    0.43    0.11 
  -8  -1  -6    0.48    0.12 
  -9  -1  -6    1.67    0.19 
  -8   2   6   -0.02    0.08 
  -8   2   6   -0.01    0.06 
  -7   2   6    2.95    0.21 
  -7   2   6    3.13    0.19 
  -6   2   6    2.48    0.17 
  -6   2   6    2.36    0.16 
  -5   2   6    0.28    0.07 
  -5   2   6    0.34    0.09 
  -5   2   6    0.25    0.08 
  -5   2   6    0.36    0.08 
   4  -2  -6    0.68    0.08 
   4  -2  -6    0.64    0.06 
  -4   2   6    0.72    0.09 
  -4   2   6    0.64    0.12 
  -4   2   6    0.48    0.10 
  -4   2   6    0.61    0.09 
   3  -2  -6    0.08    0.05 
   3  -2  -6    0.10    0.04 
   3  -2  -6    0.10    0.05 
  -3   2   6    0.12    0.06 
  -3   2   6    0.04    0.04 
  -3   2   6    0.08    0.06 
  -3   2   6    0.11    0.07 
  -3   2   6    0.04    0.04 
   2  -2  -6    1.30    0.08 
   2  -2  -6    1.32    0.09 
   2  -2  -6    1.26    0.14 
   2  -2  -6    1.27    0.12 
  -2   2   6    1.55    0.17 
  -2   2   6    1.53    0.10 
  -2   2   6    1.48    0.12 
  -2   2   6    1.20    0.15 
  -2   2   6    1.23    0.14 
   1  -2  -6   25.74    0.71 
   1  -2  -6   24.58    0.70 
   1  -2  -6   24.92    0.61 
   1  -2  -6   25.83    0.57 
  -1   2   6   24.85    0.72 
  -1   2   6   25.48    0.73 
  -1   2   6   26.13    0.72 
  -1   2   6   25.71    0.60 
  -1   2   6   25.21    0.65 
   0  -2  -6    0.01    0.04 
   0  -2  -6    0.01    0.02 
   0  -2  -6    0.06    0.06 
   0  -2  -6    0.01    0.04 
   0   2   6   -0.02    0.04 
   0   2   6    0.00    0.04 
  -1  -2  -6    0.62    0.11 
  -1  -2  -6    0.45    0.10 
  -1  -2  -6    0.57    0.09 
  -1  -2  -6    0.60    0.08 
   1   2   6    0.45    0.08 
   1   2   6    0.55    0.11 
  -2  -2  -6    7.61    0.35 
  -2  -2  -6    8.33    0.30 
  -2  -2  -6    8.28    0.37 
  -2  -2  -6    7.78    0.30 
  -2  -2  -6    7.71    0.32 
   2   2   6    7.74    0.35 
   2   2   6    8.02    0.30 
  -3  -2  -6    0.02    0.05 
  -3  -2  -6    0.04    0.07 
  -3  -2  -6   -0.02    0.04 
  -3  -2  -6   -0.02    0.05 
   3   2   6   -0.02    0.04 
   3   2   6    0.03    0.06 
  -4  -2  -6    1.90    0.17 
  -4  -2  -6    2.03    0.16 
  -4  -2  -6    2.19    0.17 
  -4  -2  -6    1.98    0.21 
   4   2   6    1.86    0.14 
   4   2   6    1.65    0.18 
  -5  -2  -6    1.70    0.19 
  -5  -2  -6    1.82    0.18 
  -5  -2  -6    1.35    0.16 
   5   2   6    1.56    0.13 
   5   2   6    1.52    0.18 
  -6  -2  -6   16.46    0.53 
  -6  -2  -6   15.91    0.56 
  -6  -2  -6   16.39    0.57 
  -6  -2  -6   15.80    0.53 
   6   2   6   15.98    0.45 
   6   2   6   16.61    0.57 
  -7  -2  -6    1.91    0.20 
  -8  -2  -6    2.21    0.22 
  -9  -2  -6    0.50    0.14 
 -10  -2  -6    2.47    0.26 
  -8   3   6    1.26    0.15 
  -8   3   6    1.99    0.22 
  -7   3   6    0.17    0.08 
  -7   3   6    0.15    0.07 
  -6   3   6    1.15    0.15 
  -6   3   6    1.08    0.13 
   5  -3  -6    2.63    0.13 
  -5   3   6    2.33    0.17 
  -5   3   6    2.72    0.19 
  -5   3   6    2.43    0.22 
   4  -3  -6    4.40    0.18 
   4  -3  -6    4.58    0.20 
  -4   3   6    4.66    0.28 
  -4   3   6    4.24    0.22 
  -4   3   6    4.23    0.26 
  -4   3   6    4.65    0.21 
   3  -3  -6    3.27    0.18 
   3  -3  -6    3.44    0.20 
  -3   3   6    3.69    0.24 
  -3   3   6    3.35    0.17 
  -3   3   6    3.14    0.19 
  -3   3   6    3.12    0.23 
   2  -3  -6    0.47    0.06 
   2  -3  -6    0.44    0.09 
  -2   3   6    0.48    0.08 
  -2   3   6    0.45    0.11 
  -2   3   6    0.49    0.07 
  -2   3   6    0.63    0.12 
   1  -3  -6    1.68    0.12 
   1  -3  -6    1.40    0.15 
   1  -3  -6    1.48    0.16 
   1  -3  -6    1.62    0.10 
  -1   3   6    1.58    0.12 
  -1   3   6    1.62    0.14 
  -1   3   6    1.47    0.16 
  -1   3   6    1.23    0.16 
  -1   3   6    1.49    0.17 
   0  -3  -6    2.38    0.12 
   0  -3  -6    2.18    0.18 
   0  -3  -6    2.20    0.15 
   0  -3  -6    2.34    0.19 
   0   3   6    2.42    0.16 
   0   3   6    2.25    0.18 
   0   3   6    2.13    0.14 
   0   3   6    1.95    0.18 
   0   3   6    2.51    0.20 
  -1  -3  -6    0.40    0.08 
  -1  -3  -6    0.41    0.07 
  -1  -3  -6    0.20    0.08 
  -1  -3  -6    0.31    0.09 
   1   3   6    0.24    0.07 
   1   3   6    0.26    0.09 
   1   3   6    0.14    0.07 
  -2  -3  -6   18.79    0.56 
  -2  -3  -6   16.78    0.59 
  -2  -3  -6   17.92    0.52 
  -2  -3  -6   17.13    0.55 
  -2  -3  -6   17.43    0.58 
   2   3   6   16.96    0.58 
   2   3   6   17.71    0.51 
  -3  -3  -6    1.21    0.15 
  -3  -3  -6    1.16    0.13 
  -3  -3  -6    0.75    0.13 
  -3  -3  -6    1.21    0.18 
   3   3   6    0.85    0.13 
   3   3   6    1.17    0.13 
  -4  -3  -6    3.20    0.21 
  -4  -3  -6    3.37    0.25 
  -4  -3  -6    3.22    0.20 
  -4  -3  -6    3.04    0.24 
   4   3   6    3.21    0.18 
   4   3   6    2.87    0.22 
  -5  -3  -6   11.48    0.49 
  -5  -3  -6   11.76    0.48 
  -5  -3  -6   12.18    0.42 
  -5  -3  -6   11.11    0.44 
   5   3   6   11.88    0.38 
   5   3   6   12.60    0.48 
  -6  -3  -6   33.66    0.92 
  -6  -3  -6   33.19    0.88 
  -6  -3  -6   33.68    0.89 
  -6  -3  -6   33.65    0.97 
   6   3   6   33.71    0.79 
  -7  -3  -6    5.45    0.35 
  -7  -3  -6    5.94    0.30 
  -8  -3  -6    1.16    0.16 
  -8  -3  -6    1.52    0.23 
  -9  -3  -6    0.82    0.16 
  -9  -3  -6    0.97    0.20 
 -10  -3  -6    0.01    0.12 
 -10  -3  -6    0.10    0.09 
  -7   4   6    1.70    0.19 
  -7   4   6    2.32    0.20 
  -6   4   6    4.21    0.25 
  -6   4   6    3.83    0.25 
  -5   4   6    3.10    0.21 
  -5   4   6    3.02    0.20 
   4  -4  -6   10.49    0.36 
   4  -4  -6   10.52    0.34 
  -4   4   6   10.62    0.37 
  -4   4   6   10.45    0.40 
  -4   4   6   10.82    0.47 
  -4   4   6   11.19    0.53 
   3  -4  -6    4.42    0.14 
   3  -4  -6    4.30    0.23 
  -3   4   6    4.45    0.29 
  -3   4   6    4.24    0.24 
  -3   4   6    4.30    0.28 
  -3   4   6    4.52    0.22 
   2  -4  -6    0.05    0.06 
   2  -4  -6   -0.01    0.04 
   2  -4  -6    0.00    0.04 
  -2   4   6   -0.03    0.04 
  -2   4   6    0.02    0.04 
  -2   4   6    0.00    0.06 
  -2   4   6   -0.01    0.06 
   1  -4  -6    0.59    0.09 
   1  -4  -6    0.56    0.11 
   1  -4  -6    0.63    0.11 
  -1   4   6    0.58    0.12 
  -1   4   6    0.58    0.12 
  -1   4   6    0.57    0.09 
  -1   4   6    0.68    0.11 
   0  -4  -6    2.49    0.20 
   0  -4  -6    2.38    0.20 
   0   4   6    2.24    0.15 
   0   4   6    2.10    0.19 
   0   4   6    2.04    0.20 
   0   4   6    2.15    0.16 
  -1  -4  -6    4.57    0.28 
  -1  -4  -6    4.81    0.29 
   1   4   6    5.02    0.24 
   1   4   6    4.90    0.29 
   1   4   6    4.67    0.27 
  -2  -4  -6    1.33    0.18 
  -2  -4  -6    1.51    0.19 
   2   4   6    1.23    0.13 
  -3  -4  -6    0.39    0.09 
  -3  -4  -6    0.84    0.15 
  -3  -4  -6    0.66    0.11 
  -3  -4  -6    0.41    0.11 
   3   4   6    0.32    0.08 
  -4  -4  -6    1.98    0.22 
  -4  -4  -6    2.19    0.21 
  -4  -4  -6    2.07    0.16 
  -4  -4  -6    1.81    0.17 
   4   4   6    2.18    0.15 
  -5  -4  -6    0.11    0.09 
  -5  -4  -6    0.10    0.09 
  -5  -4  -6    0.08    0.07 
  -5  -4  -6    0.08    0.08 
   5   4   6    0.17    0.06 
  -6  -4  -6    2.28    0.21 
  -6  -4  -6    2.94    0.26 
  -6  -4  -6    2.62    0.27 
  -6  -4  -6    2.19    0.19 
   6   4   6    2.37    0.15 
  -7  -4  -6    0.48    0.14 
  -7  -4  -6    0.40    0.14 
  -8  -4  -6    1.73    0.24 
  -8  -4  -6    1.69    0.24 
  -9  -4  -6    0.91    0.20 
  -9  -4  -6    1.05    0.21 
  -9  -4  -6    0.52    0.14 
 -10  -4  -6    0.07    0.13 
 -10  -4  -6   -0.16    0.12 
 -10  -4  -6    0.09    0.10 
  -7   5   6    0.73    0.14 
  -7   5   6    0.89    0.17 
  -6   5   6    1.01    0.15 
  -6   5   6    1.19    0.18 
  -5   5   6    0.11    0.08 
  -5   5   6   -0.04    0.05 
  -4   5   6    0.00    0.08 
  -4   5   6    0.12    0.07 
   3  -5  -6    8.38    0.34 
   3  -5  -6    8.13    0.25 
  -3   5   6    8.16    0.42 
  -3   5   6    8.05    0.33 
  -3   5   6    7.65    0.35 
  -3   5   6    8.57    0.44 
   2  -5  -6    1.42    0.18 
   2  -5  -6    1.19    0.16 
   2  -5  -6    0.88    0.10 
  -2   5   6    1.21    0.19 
  -2   5   6    1.32    0.16 
  -2   5   6    1.12    0.18 
  -2   5   6    1.02    0.13 
   1  -5  -6    1.52    0.18 
   1  -5  -6    1.49    0.18 
  -1   5   6    1.17    0.14 
  -1   5   6    1.82    0.21 
  -1   5   6    1.25    0.17 
  -1   5   6    1.56    0.17 
   0  -5  -6    5.34    0.32 
   0  -5  -6    5.76    0.32 
   0   5   6    5.11    0.26 
   0   5   6    5.76    0.33 
   0   5   6    5.65    0.32 
   0   5   6    5.89    0.27 
  -1  -5  -6    0.54    0.13 
  -1  -5  -6    0.50    0.12 
   1   5   6    0.46    0.11 
   1   5   6    0.40    0.10 
   1   5   6    0.46    0.09 
  -2  -5  -6    7.52    0.39 
  -2  -5  -6    7.49    0.38 
   2   5   6    8.13    0.40 
   2   5   6    7.36    0.31 
  -3  -5  -6    0.58    0.14 
  -3  -5  -6    0.87    0.16 
   3   5   6    0.55    0.10 
  -4  -5  -6    0.01    0.07 
  -4  -5  -6    0.07    0.07 
  -4  -5  -6    0.06    0.10 
  -4  -5  -6    0.05    0.06 
   4   5   6   -0.09    0.04 
  -5  -5  -6    3.38    0.28 
  -5  -5  -6    3.67    0.22 
  -5  -5  -6    4.03    0.29 
  -5  -5  -6    3.41    0.24 
   5   5   6    3.40    0.19 
  -6  -5  -6    2.74    0.24 
  -6  -5  -6    2.87    0.27 
  -6  -5  -6    2.67    0.26 
  -6  -5  -6    2.36    0.20 
   6   5   6    2.69    0.16 
  -7  -5  -6    1.66    0.24 
  -7  -5  -6    0.88    0.18 
  -8  -5  -6    1.86    0.25 
  -8  -5  -6    1.82    0.25 
  -9  -5  -6    6.88    0.43 
  -9  -5  -6    6.57    0.42 
 -10  -5  -6    0.43    0.18 
 -10  -5  -6    0.65    0.18 
  -6   6   6    3.32    0.27 
  -6   6   6    3.56    0.27 
  -5   6   6    2.09    0.24 
  -5   6   6    2.17    0.22 
  -4   6   6    0.46    0.12 
  -4   6   6    0.54    0.13 
  -3   6   6   13.16    0.47 
  -3   6   6   12.45    0.49 
   2  -6  -6    0.97    0.16 
   2  -6  -6    1.03    0.17 
  -2   6   6    0.55    0.12 
  -2   6   6    0.66    0.16 
  -2   6   6    0.90    0.18 
  -2   6   6    0.71    0.12 
   1  -6  -6    4.42    0.29 
   1  -6  -6    4.49    0.29 
  -1   6   6    3.89    0.25 
  -1   6   6    3.91    0.24 
  -1   6   6    4.15    0.31 
  -1   6   6    4.03    0.35 
   0  -6  -6   19.07    0.67 
   0  -6  -6   19.23    0.67 
   0   6   6   20.50    0.62 
   0   6   6   19.89    0.70 
   0   6   6   19.29    0.61 
  -1  -6  -6    6.13    0.36 
  -1  -6  -6    5.74    0.37 
   1   6   6    5.73    0.38 
   1   6   6    5.86    0.30 
   1   6   6    6.09    0.31 
  -2  -6  -6    2.88    0.27 
  -2  -6  -6    2.90    0.26 
   2   6   6    2.94    0.21 
  -3  -6  -6    1.36    0.20 
  -3  -6  -6    1.21    0.19 
   3   6   6    1.22    0.14 
  -4  -6  -6    0.16    0.10 
  -4  -6  -6    0.40    0.13 
   4   6   6    0.20    0.07 
  -5  -6  -6    2.12    0.24 
  -5  -6  -6    2.99    0.30 
  -5  -6  -6    3.22    0.25 
  -5  -6  -6    2.47    0.22 
   5   6   6    2.34    0.17 
  -6  -6  -6    1.56    0.22 
  -6  -6  -6    1.89    0.30 
  -6  -6  -6    1.78    0.24 
  -6  -6  -6    1.80    0.24 
   6   6   6    1.50    0.13 
  -7  -6  -6    3.02    0.32 
  -7  -6  -6    2.40    0.28 
  -8  -6  -6    2.72    0.32 
  -8  -6  -6    2.59    0.30 
  -9  -6  -6    2.61    0.32 
  -9  -6  -6    2.15    0.28 
 -10  -6  -6   -0.03    0.11 
 -10  -6  -6    0.07    0.14 
  -5   7   6    0.07    0.10 
  -5   7   6    0.27    0.12 
  -4   7   6    0.19    0.11 
  -4   7   6    0.36    0.12 
  -3   7   6    0.26    0.10 
  -3   7   6    0.09    0.09 
   2  -7  -6    1.71    0.29 
   2  -7  -6    1.68    0.21 
  -2   7   6    1.91    0.21 
  -2   7   6    1.77    0.20 
   1  -7  -6    7.83    0.40 
   1  -7  -6    7.03    0.39 
  -1   7   6    7.66    0.36 
  -1   7   6    7.30    0.43 
  -1   7   6    7.08    0.36 
   0  -7  -6    0.41    0.14 
   0  -7  -6    0.26    0.13 
   0   7   6    0.21    0.10 
   0   7   6    0.36    0.10 
  -1  -7  -6    0.23    0.13 
  -1  -7  -6    0.73    0.17 
   1   7   6    0.65    0.13 
   1   7   6    0.61    0.15 
  -2  -7  -6    4.79    0.34 
  -2  -7  -6    4.66    0.35 
   2   7   6    4.53    0.27 
  -3  -7  -6    0.17    0.12 
  -3  -7  -6    0.34    0.13 
   3   7   6    0.21    0.08 
  -4  -7  -6    0.34    0.15 
  -4  -7  -6    0.50    0.16 
   4   7   6    0.43    0.10 
  -5  -7  -6    0.49    0.15 
  -5  -7  -6    0.48    0.16 
   5   7   6    0.88    0.12 
  -6  -7  -6    0.33    0.14 
  -6  -7  -6    0.47    0.15 
  -7  -7  -6    0.52    0.16 
  -7  -7  -6    0.28    0.14 
  -8  -7  -6    0.08    0.13 
  -8  -7  -6   -0.09    0.12 
  -9  -7  -6    0.09    0.13 
  -9  -7  -6   -0.09    0.12 
 -10  -7  -6    5.06    0.42 
 -10  -7  -6    5.70    0.42 
  -4   8   6    1.17    0.19 
  -4   8   6    0.96    0.18 
  -3   8   6    0.17    0.11 
  -3   8   6    0.50    0.14 
  -2   8   6    8.90    0.42 
  -2   8   6    8.76    0.44 
   1  -8  -6    0.37    0.16 
   1  -8  -6    0.24    0.12 
  -1   8   6    0.21    0.10 
  -1   8   6    0.60    0.15 
   0  -8  -6    0.77    0.18 
   0  -8  -6    0.73    0.18 
   0   8   6    0.66    0.15 
   0   8   6    0.54    0.12 
  -1  -8  -6   17.22    0.70 
  -1  -8  -6   19.00    0.73 
   1   8   6   18.34    0.63 
   1   8   6   17.93    0.64 
  -2  -8  -6   23.89    0.85 
  -2  -8  -6   23.93    0.85 
   2   8   6   24.65    0.74 
   2   8   6   23.96    0.79 
  -3  -8  -6   15.01    0.65 
  -3  -8  -6   15.13    0.65 
   3   8   6   14.73    0.53 
  -4  -8  -6    3.58    0.35 
  -4  -8  -6    3.43    0.32 
   4   8   6    3.42    0.24 
  -5  -8  -6    0.10    0.12 
  -5  -8  -6    0.05    0.13 
   5   8   6    0.08    0.08 
  -6  -8  -6    3.56    0.37 
  -6  -8  -6    2.95    0.32 
  -7  -8  -6    0.19    0.15 
  -7  -8  -6    0.24    0.14 
  -8  -8  -6    0.59    0.19 
  -8  -8  -6    0.64    0.20 
  -9  -8  -6    0.09    0.13 
  -9  -8  -6   -0.08    0.14 
 -10  -8  -6    0.07    0.14 
 -10  -8  -6   -0.01    0.12 
  -3   9   6    0.05    0.09 
  -3   9   6   -0.19    0.08 
  -2   9   6    0.60    0.15 
  -2   9   6    0.96    0.20 
  -1   9   6    0.05    0.09 
  -1   9   6    0.06    0.11 
   0  -9  -6    0.03    0.13 
   0  -9  -6    0.07    0.13 
   0   9   6    0.06    0.08 
   0   9   6   -0.16    0.09 
  -1  -9  -6    0.57    0.17 
  -1  -9  -6    0.30    0.16 
   1   9   6    0.45    0.15 
   1   9   6    0.63    0.15 
  -2  -9  -6   -0.01    0.13 
  -2  -9  -6    0.11    0.13 
   2   9   6    0.02    0.10 
   2   9   6    0.17    0.09 
  -3  -9  -6    4.34    0.42 
  -3  -9  -6    4.29    0.38 
   3   9   6    3.67    0.27 
  -4  -9  -6    0.82    0.22 
  -4  -9  -6    1.34    0.26 
   4   9   6    1.06    0.16 
  -5  -9  -6    0.33    0.16 
  -5  -9  -6    0.20    0.15 
  -6  -9  -6    1.57    0.28 
  -6  -9  -6    1.71    0.29 
  -7  -9  -6    0.16    0.15 
  -7  -9  -6    0.21    0.16 
  -8  -9  -6    0.06    0.16 
  -8  -9  -6   -0.09    0.14 
  -9  -9  -6    0.11    0.17 
  -9  -9  -6    0.30    0.13 
  -1  10   6    2.18    0.30 
  -1  10   6    1.54    0.23 
   0  10   6    1.82    0.27 
   0  10   6    1.55    0.22 
  -1 -10  -6    0.18    0.17 
  -1 -10  -6    0.15    0.16 
   1  10   6    0.30    0.15 
   1  10   6    0.19    0.12 
  -2 -10  -6    4.03    0.40 
  -2 -10  -6    4.92    0.40 
   2  10   6    4.42    0.35 
   2  10   6    4.50    0.31 
  -3 -10  -6    4.35    0.40 
  -3 -10  -6    4.31    0.40 
   3  10   6    4.41    0.31 
  -4 -10  -6    3.05    0.38 
  -4 -10  -6    3.55    0.40 
  -5 -10  -6    0.81    0.21 
  -5 -10  -6    0.91    0.24 
  -6 -10  -6    1.09    0.25 
  -6 -10  -6    0.93    0.23 
  -7 -10  -6    3.47    0.42 
  -7 -10  -6    2.56    0.35 
  -8 -10  -6    0.26    0.17 
  -8 -10  -6    0.31    0.19 
   1  11   6    0.19    0.11 
   1  11   6   -0.10    0.13 
  -2 -11  -6    2.24    0.34 
   2  11   6    3.32    0.37 
  -3 -11  -6   11.58    0.65 
  -4 -11  -6    5.03    0.45 
  -4 -11  -6    4.78    0.46 
  -5 -11  -6    0.28    0.20 
  -5 -11  -6    0.23    0.20 
  -6 -11  -6   -0.03    0.16 
  -6 -11  -6    0.19    0.18 
  -7 -11  -6    0.57    0.22 
  -7 -11  -6    0.53    0.21 
  -4  -8   7   -0.05    0.10 
  -4  -8   7    0.16    0.14 
  -4  -8   7    0.02    0.12 
  -3  -8   7    0.27    0.15 
  -3  -8   7    0.22    0.17 
  -3  -8   7    0.06    0.10 
  -2  -8   7    1.51    0.28 
  -2  -8   7    1.29    0.24 
  -2  -8   7    1.31    0.26 
  -1  -8   7    0.27    0.17 
  -1  -8   7    0.20    0.15 
  -7  -7   7    0.30    0.13 
  -6  -7   7    1.54    0.23 
  -6  -7   7    1.66    0.22 
  -6  -7   7    1.75    0.24 
  -5  -7   7    1.71    0.25 
  -5  -7   7    0.81    0.18 
  -5  -7   7    1.61    0.23 
  -4  -7   7   -0.20    0.09 
  -4  -7   7    0.04    0.11 
  -4  -7   7   -0.01    0.09 
  -3  -7   7    0.21    0.13 
  -3  -7   7    0.18    0.14 
  -3  -7   7    0.06    0.10 
  -2  -7   7    4.56    0.37 
  -2  -7   7    3.29    0.34 
  -2  -7   7    3.90    0.37 
  -1  -7   7    0.48    0.16 
  -1  -7   7    0.44    0.17 
  -1  -7   7    0.43    0.14 
   0  -7   7    0.65    0.17 
   0  -7   7    0.52    0.16 
   0  -7   7    0.40    0.18 
   1  -7   7    3.89    0.37 
   1  -7   7    3.66    0.41 
   1  -7   7    3.72    0.38 
  -8  -6   7    0.04    0.09 
  -8  -6   7    0.15    0.11 
  -7  -6   7    0.29    0.11 
  -7  -6   7    0.25    0.13 
  -7  -6   7    0.47    0.13 
  -6  -6   7    0.15    0.11 
  -6  -6   7    0.24    0.12 
  -6  -6   7    0.27    0.11 
  -5  -6   7    0.03    0.10 
  -5  -6   7    0.12    0.11 
  -5  -6   7    0.14    0.11 
  -4  -6   7   -0.01    0.10 
  -4  -6   7    0.11    0.10 
  -4  -6   7   -0.09    0.08 
  -3  -6   7   -0.11    0.09 
  -3  -6   7   -0.06    0.09 
  -3  -6   7   -0.12    0.07 
  -2  -6   7    0.17    0.12 
  -2  -6   7    0.20    0.11 
  -2  -6   7    0.29    0.13 
  -1  -6   7    0.46    0.16 
  -1  -6   7    0.24    0.12 
  -1  -6   7    0.17    0.12 
   0   6  -7    0.25    0.08 
   0  -6   7    0.21    0.12 
   0  -6   7    0.54    0.18 
   0  -6   7    0.49    0.14 
  -1   6  -7    0.23    0.10 
  -1   6  -7    0.20    0.07 
   1  -6   7    0.36    0.14 
   1  -6   7    0.33    0.13 
   1  -6   7    0.19    0.13 
  -2   6  -7    0.08    0.08 
  -2   6  -7   -0.05    0.05 
   2  -6   7    0.14    0.14 
   2  -6   7    0.00    0.12 
  -3   6  -7    0.28    0.12 
  -3   6  -7    0.29    0.09 
  -8  -5   7    0.54    0.15 
  -8  -5   7    0.46    0.12 
  -8  -5   7    0.63    0.13 
  -7  -5   7    0.12    0.09 
  -7  -5   7    0.01    0.07 
  -7  -5   7    0.17    0.10 
  -6  -5   7    0.10    0.09 
  -6  -5   7    0.12    0.10 
  -6  -5   7    0.23    0.09 
  -5  -5   7    0.03    0.07 
  -5  -5   7    0.05    0.09 
  -5  -5   7    0.04    0.08 
  -4  -5   7    0.26    0.10 
  -4  -5   7    0.18    0.11 
  -4  -5   7   -0.01    0.09 
  -3  -5   7    0.19    0.11 
  -3  -5   7    0.05    0.08 
  -3  -5   7    0.02    0.08 
  -2  -5   7    0.45    0.13 
  -2  -5   7    0.37    0.13 
  -2  -5   7    0.49    0.15 
   1   5  -7    5.81    0.21 
   1   5  -7    5.83    0.29 
  -1  -5   7    6.87    0.39 
  -1  -5   7    6.22    0.39 
  -1  -5   7    5.89    0.35 
   0   5  -7    0.19    0.07 
   0   5  -7    0.09    0.05 
   0  -5   7    0.22    0.11 
   0  -5   7    0.04    0.12 
   0  -5   7    0.20    0.11 
  -1   5  -7   -0.11    0.05 
  -1   5  -7    0.02    0.04 
   1  -5   7    0.01    0.08 
   1  -5   7   -0.02    0.10 
   1  -5   7   -0.01    0.09 
  -2   5  -7    2.58    0.17 
  -2   5  -7    2.79    0.23 
   2  -5   7    2.21    0.26 
   2  -5   7    3.14    0.27 
   2  -5   7    2.48    0.28 
  -3   5  -7   15.09    0.50 
  -3   5  -7   15.57    0.58 
   3  -5   7   15.52    0.65 
  -4   5  -7    8.00    0.41 
  -4   5  -7    7.20    0.35 
  -9  -4   7    0.24    0.10 
  -8  -4   7    1.06    0.14 
  -8  -4   7    0.86    0.15 
  -8  -4   7    0.93    0.14 
  -7  -4   7    0.45    0.12 
  -7  -4   7    0.35    0.09 
  -7  -4   7    0.55    0.12 
  -6  -4   7    1.13    0.17 
  -6  -4   7    0.77    0.13 
  -6  -4   7    0.90    0.14 
  -5  -4   7   -0.06    0.05 
  -5  -4   7   -0.05    0.07 
  -5  -4   7   -0.07    0.06 
  -4  -4   7    0.24    0.11 
  -4  -4   7    0.23    0.08 
  -4  -4   7    0.17    0.09 
  -3  -4   7    4.57    0.30 
  -3  -4   7    4.53    0.30 
  -3  -4   7    4.66    0.28 
   2   4  -7    0.19    0.07 
  -2  -4   7    0.12    0.09 
  -2  -4   7    0.23    0.10 
  -2  -4   7    0.09    0.09 
   1   4  -7    0.53    0.06 
   1   4  -7    0.53    0.10 
  -1  -4   7    0.48    0.13 
  -1  -4   7    0.35    0.11 
  -1  -4   7    0.33    0.12 
   0   4  -7    0.32    0.08 
   0   4  -7    0.39    0.06 
   0  -4   7    0.41    0.14 
   0  -4   7    0.45    0.13 
   0  -4   7    0.87    0.15 
  -1   4  -7    0.03    0.06 
  -1   4  -7    0.02    0.04 
   1  -4   7    0.00    0.07 
   1  -4   7    0.07    0.10 
   1  -4   7    0.08    0.07 
  -2   4  -7    1.16    0.12 
  -2   4  -7    1.30    0.17 
   2  -4   7    1.33    0.19 
   2  -4   7    1.20    0.19 
   2  -4   7    1.16    0.22 
  -3   4  -7    2.16    0.17 
  -3   4  -7    1.96    0.21 
   3  -4   7    2.64    0.29 
   3  -4   7    2.37    0.29 
   3  -4   7    2.27    0.25 
  -4   4  -7    4.32    0.26 
  -4   4  -7    4.48    0.29 
   4  -4   7    4.72    0.36 
  -5   4  -7    0.77    0.16 
  -5   4  -7    0.80    0.15 
  -6   4  -7    0.12    0.09 
  -6   4  -7   -0.07    0.09 
  -9  -3   7    0.04    0.07 
  -9  -3   7    0.11    0.07 
  -8  -3   7    0.75    0.12 
  -8  -3   7    0.94    0.13 
  -7  -3   7    0.52    0.11 
  -7  -3   7    0.50    0.10 
  -6  -3   7    0.45    0.10 
  -6  -3   7    0.44    0.11 
  -6  -3   7    0.54    0.12 
  -5  -3   7    0.05    0.07 
  -5  -3   7    0.01    0.06 
  -5  -3   7    0.00    0.06 
   4   3  -7    1.07    0.14 
   4   3  -7    1.06    0.13 
  -4  -3   7    0.96    0.16 
  -4  -3   7    1.05    0.16 
  -4  -3   7    0.97    0.13 
   3   3  -7    2.11    0.12 
  -3  -3   7    2.23    0.19 
  -3  -3   7    1.80    0.16 
  -3  -3   7    2.14    0.20 
  -3  -3   7    2.39    0.22 
   2   3  -7    0.01    0.03 
  -2  -3   7    0.05    0.08 
  -2  -3   7    0.03    0.06 
  -2  -3   7    0.06    0.08 
  -2  -3   7    0.02    0.06 
   1   3  -7    0.02    0.05 
  -1  -3   7    0.11    0.09 
  -1  -3   7    0.20    0.08 
  -1  -3   7    0.04    0.08 
   0   3  -7    0.01    0.02 
   0   3  -7   -0.01    0.05 
   0  -3   7   -0.04    0.08 
   0  -3   7   -0.02    0.07 
   0  -3   7   -0.05    0.05 
  -1   3  -7    2.62    0.13 
  -1   3  -7    2.51    0.18 
   1  -3   7    2.95    0.24 
   1  -3   7    2.72    0.22 
   1  -3   7    2.88    0.26 
  -2   3  -7    0.02    0.04 
  -2   3  -7    0.04    0.06 
   2  -3   7   -0.01    0.06 
   2  -3   7   -0.07    0.07 
   2  -3   7    0.05    0.08 
  -3   3  -7    5.18    0.29 
  -3   3  -7    5.55    0.26 
   3  -3   7    5.72    0.32 
   3  -3   7    5.47    0.34 
  -4   3  -7    4.45    0.28 
  -4   3  -7    4.43    0.26 
   4  -3   7    4.65    0.42 
   4  -3   7    4.47    0.33 
  -5   3  -7    0.85    0.16 
  -5   3  -7    1.08    0.17 
  -6   3  -7   -0.03    0.09 
  -6   3  -7   -0.02    0.09 
  -9  -2   7    0.10    0.08 
  -9  -2   7    0.07    0.06 
  -8  -2   7    0.54    0.11 
  -8  -2   7    0.66    0.10 
  -7  -2   7    3.85    0.24 
  -7  -2   7    3.78    0.21 
  -6  -2   7    1.48    0.15 
  -6  -2   7    2.09    0.18 
   5   2  -7    1.20    0.11 
  -5  -2   7    1.62    0.18 
  -5  -2   7    1.10    0.13 
   4   2  -7    3.83    0.19 
   4   2  -7    4.19    0.21 
  -4  -2   7    3.98    0.21 
  -4  -2   7    4.04    0.26 
  -4  -2   7    3.63    0.22 
  -4  -2   7    3.78    0.24 
   3   2  -7    1.81    0.16 
   3   2  -7    1.84    0.09 
  -3  -2   7    1.97    0.20 
  -3  -2   7    2.07    0.19 
  -3  -2   7    1.78    0.17 
  -3  -2   7    1.96    0.15 
   2   2  -7    2.42    0.14 
  -2  -2   7    2.87    0.18 
  -2  -2   7    3.03    0.20 
  -2  -2   7    3.23    0.23 
  -2  -2   7    3.08    0.23 
   1   2  -7    0.07    0.05 
  -1  -2   7    0.03    0.05 
  -1  -2   7    0.17    0.08 
  -1  -2   7   -0.03    0.06 
  -1  -2   7    0.13    0.05 
   0   2  -7    0.23    0.07 
   0   2  -7    0.27    0.04 
   0  -2   7    0.23    0.09 
   0  -2   7    0.20    0.07 
   0  -2   7    0.62    0.13 
  -1   2  -7    1.26    0.13 
  -1   2  -7    1.14    0.09 
   1  -2   7    1.14    0.15 
   1  -2   7    1.33    0.18 
  -2   2  -7    2.51    0.18 
  -2   2  -7    1.91    0.13 
   2  -2   7    2.24    0.21 
   2  -2   7    2.56    0.20 
  -3   2  -7    4.10    0.24 
  -3   2  -7    4.00    0.22 
   3  -2   7    4.30    0.26 
   3  -2   7    4.06    0.29 
  -4   2  -7   10.47    0.42 
  -4   2  -7    9.73    0.39 
   4  -2   7    9.73    0.46 
   4  -2   7   10.33    0.43 
  -5   2  -7    5.21    0.31 
  -5   2  -7    6.03    0.32 
   5  -2   7    6.23    0.37 
  -6   2  -7    0.30    0.11 
  -6   2  -7    0.45    0.13 
  -7   2  -7    0.06    0.11 
  -7   2  -7    0.19    0.12 
  -9  -1   7    0.09    0.06 
  -8  -1   7    0.30    0.08 
  -8  -1   7    0.51    0.11 
  -7  -1   7    0.45    0.08 
  -7  -1   7    0.35    0.10 
  -6  -1   7    4.27    0.16 
  -6  -1   7    4.02    0.24 
  -6  -1   7    4.43    0.22 
  -5  -1   7   11.72    0.43 
  -5  -1   7   11.47    0.39 
  -5  -1   7   11.49    0.27 
  -5  -1   7   11.26    0.38 
   4   1  -7    0.02    0.05 
   4   1  -7    0.10    0.05 
  -4  -1   7    0.01    0.06 
  -4  -1   7   -0.03    0.04 
  -4  -1   7   -0.06    0.04 
   3   1  -7    2.41    0.18 
   3   1  -7    2.86    0.18 
  -3  -1   7    2.27    0.17 
  -3  -1   7    2.55    0.17 
  -3  -1   7    2.47    0.20 
   2   1  -7   19.13    0.59 
   2   1  -7   19.02    0.47 
  -2  -1   7   18.87    0.60 
  -2  -1   7   18.99    0.56 
  -2  -1   7   19.45    0.55 
   1   1  -7    1.35    0.17 
   1   1  -7    1.40    0.11 
  -1  -1   7    1.18    0.14 
  -1  -1   7    1.35    0.15 
  -1  -1   7    1.17    0.16 
   0   1  -7    0.80    0.05 
   0   1  -7    0.75    0.10 
   0  -1   7    0.98    0.13 
   0  -1   7    0.93    0.12 
   0  -1   7    0.84    0.15 
  -1   1  -7    8.08    0.31 
  -1   1  -7    7.77    0.24 
   1  -1   7    8.00    0.34 
   1  -1   7    8.03    0.37 
  -2   1  -7    0.51    0.09 
  -2   1  -7    0.58    0.08 
   2  -1   7    0.71    0.14 
   2  -1   7    0.64    0.12 
  -3   1  -7    0.31    0.08 
  -3   1  -7    0.42    0.10 
   3  -1   7    0.29    0.10 
   3  -1   7    0.39    0.09 
  -4   1  -7    0.44    0.11 
  -4   1  -7    0.58    0.11 
   4  -1   7    0.36    0.11 
   4  -1   7    0.50    0.11 
  -5   1  -7    0.15    0.09 
  -5   1  -7    0.03    0.08 
   5  -1   7    0.01    0.09 
   5  -1   7    0.02    0.09 
  -6   1  -7    7.94    0.41 
  -6   1  -7    8.07    0.38 
  -7   1  -7   -0.05    0.08 
  -7   1  -7   -0.04    0.08 
  -8   1  -7    1.37    0.21 
  -8   1  -7    1.09    0.21 
  -9   0   7    0.18    0.07 
  -8   0   7    0.60    0.09 
  -7   0   7   -0.01    0.05 
  -7   0   7    0.07    0.05 
  -7   0   7    0.01    0.06 
  -6   0   7    0.24    0.07 
  -6   0   7    0.30    0.06 
  -6   0   7    0.17    0.08 
  -5   0   7    2.84    0.13 
  -5   0   7    3.28    0.22 
  -5   0   7    2.75    0.17 
  -5   0   7    2.90    0.18 
   4   0  -7    1.33    0.09 
   4   0  -7    1.43    0.13 
  -4   0   7    1.49    0.13 
  -4   0   7    1.40    0.08 
  -4   0   7    1.42    0.17 
  -4   0   7    1.27    0.13 
   3   0  -7   30.90    0.79 
   3   0  -7   31.62    0.81 
  -3   0   7   31.62    0.85 
  -3   0   7   30.77    0.77 
  -3   0   7   30.55    0.79 
   2   0  -7    0.01    0.03 
   2   0  -7   -0.01    0.02 
   2   0  -7    0.07    0.05 
  -2   0   7   -0.04    0.04 
  -2   0   7    0.04    0.05 
  -2   0   7   -0.01    0.05 
   1   0  -7    3.04    0.21 
   1   0  -7    2.56    0.20 
   1   0  -7    2.90    0.15 
  -1   0   7    3.04    0.21 
  -1   0   7    3.22    0.19 
  -1   0   7    3.12    0.18 
   0   0  -7    7.85    0.28 
   0   0  -7    7.53    0.36 
   0   0  -7    7.42    0.35 
   0   0  -7    8.03    0.20 
   0   0   7    7.27    0.30 
   0   0   7    7.94    0.32 
   0   0   7    7.60    0.35 
  -1   0  -7    3.00    0.18 
   1   0   7    3.07    0.23 
   1   0   7    3.06    0.20 
  -2   0  -7    0.98    0.12 
   2   0   7    1.00    0.15 
   2   0   7    1.08    0.13 
  -3   0  -7    1.33    0.15 
  -3   0  -7    0.98    0.14 
   3   0   7    0.82    0.12 
   3   0   7    1.03    0.15 
  -4   0  -7    0.17    0.08 
  -4   0  -7    0.13    0.07 
   4   0   7    0.16    0.08 
   4   0   7    0.15    0.08 
  -5   0  -7    2.19    0.24 
  -5   0  -7    1.59    0.17 
   5   0   7    1.67    0.17 
   5   0   7    2.21    0.25 
  -6   0  -7    2.01    0.21 
   6   0   7    2.63    0.32 
  -7   0  -7    0.76    0.14 
  -8   0  -7    0.12    0.13 
  -8   0  -7    0.02    0.09 
  -8   1   7    3.27    0.21 
  -8   1   7    2.91    0.19 
  -7   1   7    0.17    0.07 
  -7   1   7    0.06    0.06 
  -6   1   7    1.44    0.12 
  -6   1   7    1.26    0.13 
  -6   1   7    1.24    0.17 
  -5   1   7    4.25    0.18 
  -5   1   7    4.00    0.25 
  -5   1   7    4.10    0.26 
  -5   1   7    4.55    0.22 
   4  -1  -7   21.97    0.53 
   4  -1  -7   22.55    0.58 
  -4   1   7   23.34    0.69 
  -4   1   7   22.56    0.61 
  -4   1   7   22.76    0.53 
   3  -1  -7    0.66    0.10 
   3  -1  -7    0.53    0.09 
  -3   1   7    0.51    0.09 
  -3   1   7    0.62    0.10 
  -3   1   7    0.45    0.06 
  -3   1   7    0.69    0.12 
   2  -1  -7    0.18    0.06 
   2  -1  -7    0.49    0.05 
   2  -1  -7    0.42    0.06 
   2  -1  -7    0.41    0.09 
  -2   1   7    0.48    0.09 
  -2   1   7    0.50    0.09 
  -2   1   7    0.64    0.12 
   1  -1  -7    0.12    0.07 
   1  -1  -7    0.27    0.08 
   1  -1  -7    0.25    0.04 
   1  -1  -7    0.11    0.05 
  -1   1   7    0.20    0.07 
  -1   1   7    0.18    0.08 
   0  -1  -7   12.54    0.47 
   0  -1  -7   12.45    0.38 
   0  -1  -7   12.39    0.30 
   0  -1  -7   12.11    0.47 
   0   1   7   11.74    0.46 
   0   1   7   12.31    0.42 
  -1  -1  -7    6.62    0.34 
  -1  -1  -7    6.29    0.26 
  -1  -1  -7    6.44    0.34 
  -1  -1  -7    6.55    0.22 
   1   1   7    6.49    0.33 
   1   1   7    6.78    0.30 
  -2  -1  -7   19.77    0.66 
  -2  -1  -7   20.38    0.57 
  -2  -1  -7   19.63    0.62 
   2   1   7   20.20    0.59 
   2   1   7   20.17    0.65 
  -3  -1  -7    0.13    0.07 
  -3  -1  -7    0.16    0.06 
   3   1   7    0.04    0.07 
   3   1   7    0.20    0.07 
  -4  -1  -7    0.38    0.09 
  -4  -1  -7    0.54    0.12 
   4   1   7    0.63    0.11 
   4   1   7    0.51    0.13 
  -5  -1  -7   19.38    0.67 
  -5  -1  -7   21.16    0.63 
   5   1   7   20.16    0.60 
   5   1   7   20.67    0.69 
  -6  -1  -7   -0.02    0.07 
   6   1   7   -0.01    0.07 
  -7  -1  -7    7.44    0.36 
  -8  -1  -7    0.34    0.11 
  -9  -1  -7    1.75    0.22 
  -8   2   7    1.34    0.17 
  -8   2   7    1.27    0.15 
  -7   2   7    3.48    0.22 
  -7   2   7    3.90    0.22 
  -6   2   7   -0.03    0.05 
  -6   2   7    0.04    0.05 
  -5   2   7    0.61    0.11 
  -5   2   7    0.55    0.09 
   4  -2  -7    1.37    0.13 
   4  -2  -7    1.09    0.09 
  -4   2   7    1.07    0.11 
  -4   2   7    1.10    0.16 
  -4   2   7    0.90    0.12 
  -4   2   7    0.93    0.15 
  -4   2   7    1.02    0.15 
   3  -2  -7    2.34    0.17 
   3  -2  -7    2.49    0.16 
   3  -2  -7    2.18    0.13 
  -3   2   7    2.43    0.14 
  -3   2   7    2.28    0.21 
  -3   2   7    2.30    0.17 
  -3   2   7    2.52    0.21 
  -3   2   7    2.15    0.19 
   2  -2  -7    2.39    0.12 
   2  -2  -7    2.19    0.12 
   2  -2  -7    2.14    0.18 
  -2   2   7    2.33    0.19 
  -2   2   7    2.32    0.13 
  -2   2   7    2.37    0.21 
  -2   2   7    2.12    0.16 
   1  -2  -7   14.61    0.51 
   1  -2  -7   13.85    0.50 
   1  -2  -7   14.26    0.40 
   1  -2  -7   14.34    0.36 
  -1   2   7   13.84    0.51 
  -1   2   7   14.67    0.46 
   0  -2  -7    0.16    0.07 
   0  -2  -7    0.18    0.04 
   0  -2  -7    0.18    0.06 
   0  -2  -7    0.24    0.10 
   0   2   7    0.28    0.10 
   0   2   7    0.22    0.08 
  -1  -2  -7   42.18    1.09 
  -1  -2  -7   40.52    0.97 
  -1  -2  -7   41.51    1.10 
  -1  -2  -7   41.38    0.91 
   1   2   7   40.35    1.00 
   1   2   7   41.10    1.08 
  -2  -2  -7    4.93    0.24 
  -2  -2  -7    4.75    0.22 
  -2  -2  -7    5.21    0.31 
  -2  -2  -7    5.13    0.31 
   2   2   7    5.01    0.29 
   2   2   7    5.25    0.26 
  -3  -2  -7    0.66    0.11 
  -3  -2  -7    0.64    0.14 
  -3  -2  -7    0.65    0.14 
   3   2   7    0.55    0.10 
   3   2   7    0.50    0.11 
  -4  -2  -7    3.83    0.25 
  -4  -2  -7    3.76    0.23 
  -4  -2  -7    3.95    0.28 
   4   2   7    4.25    0.23 
   4   2   7    4.00    0.27 
  -5  -2  -7   -0.01    0.06 
  -5  -2  -7   -0.14    0.06 
  -5  -2  -7   -0.04    0.08 
  -5  -2  -7   -0.01    0.05 
   5   2   7   -0.04    0.05 
   5   2   7   -0.16    0.06 
  -6  -2  -7    0.11    0.09 
  -6  -2  -7    0.13    0.08 
   6   2   7    0.04    0.06 
   6   2   7    0.01    0.07 
  -7  -2  -7    1.26    0.17 
  -8  -2  -7    0.39    0.11 
  -9  -2  -7    0.44    0.12 
  -8   3   7    3.20    0.23 
  -8   3   7    3.25    0.23 
  -7   3   7    0.52    0.11 
  -7   3   7    0.45    0.11 
  -6   3   7    0.09    0.07 
  -6   3   7    0.17    0.08 
  -5   3   7    1.70    0.14 
  -5   3   7    1.31    0.15 
   4  -3  -7    7.06    0.28 
   4  -3  -7    6.56    0.24 
  -4   3   7    6.60    0.36 
  -4   3   7    6.95    0.49 
  -4   3   7    6.63    0.30 
  -4   3   7    6.69    0.27 
   3  -3  -7    0.79    0.12 
   3  -3  -7    0.82    0.11 
  -3   3   7    0.70    0.13 
  -3   3   7    0.75    0.11 
  -3   3   7    0.61    0.09 
  -3   3   7    0.69    0.13 
   2  -3  -7    3.56    0.23 
   2  -3  -7    3.70    0.16 
  -2   3   7    3.58    0.25 
  -2   3   7    3.69    0.19 
  -2   3   7    3.24    0.26 
  -2   3   7    4.09    0.26 
  -2   3   7    3.67    0.21 
   1  -3  -7    0.02    0.06 
   1  -3  -7   -0.01    0.04 
   1  -3  -7    0.06    0.06 
   1  -3  -7    0.00    0.03 
  -1   3   7    0.11    0.08 
  -1   3   7    0.07    0.06 
  -1   3   7    0.06    0.07 
  -1   3   7   -0.02    0.06 
  -1   3   7   -0.01    0.05 
   0  -3  -7   45.73    1.17 
   0  -3  -7   45.65    1.16 
   0  -3  -7   44.66    1.03 
   0  -3  -7   44.50    0.97 
   0   3   7   43.55    1.17 
   0   3   7   43.92    1.14 
   0   3   7   43.63    1.07 
  -1  -3  -7   29.30    0.86 
  -1  -3  -7   28.80    0.86 
  -1  -3  -7   29.27    0.75 
  -1  -3  -7   29.54    0.76 
   1   3   7   29.35    0.78 
   1   3   7   29.80    0.87 
  -2  -3  -7   11.25    0.48 
  -2  -3  -7   11.56    0.40 
  -2  -3  -7   11.61    0.48 
   2   3   7   11.10    0.47 
   2   3   7   11.24    0.40 
  -3  -3  -7    4.66    0.31 
  -3  -3  -7    4.21    0.24 
  -3  -3  -7    4.67    0.30 
   3   3   7    4.72    0.24 
   3   3   7    4.46    0.28 
  -4  -3  -7    0.31    0.12 
  -4  -3  -7    0.13    0.09 
  -4  -3  -7    0.10    0.08 
   4   3   7    0.12    0.06 
   4   3   7   -0.01    0.07 
  -5  -3  -7    1.70    0.21 
  -5  -3  -7    2.41    0.22 
  -5  -3  -7    1.71    0.22 
  -5  -3  -7    2.16    0.19 
  -5  -3  -7    2.82    0.31 
   5   3   7    2.00    0.16 
   5   3   7    2.03    0.23 
  -6  -3  -7    2.63    0.22 
  -6  -3  -7    2.23    0.28 
  -6  -3  -7    2.10    0.25 
  -6  -3  -7    2.42    0.27 
   6   3   7    2.47    0.26 
  -7  -3  -7    3.48    0.31 
  -7  -3  -7    3.10    0.24 
  -8  -3  -7    0.96    0.21 
  -8  -3  -7    1.00    0.16 
  -9  -3  -7    0.20    0.14 
  -9  -3  -7    0.15    0.10 
 -10  -3  -7    4.42    0.40 
 -10  -3  -7    4.81    0.33 
  -7   4   7    0.73    0.14 
  -7   4   7    0.74    0.14 
  -6   4   7    2.48    0.19 
  -6   4   7    2.30    0.21 
  -5   4   7    0.29    0.09 
  -5   4   7    0.16    0.08 
  -4   4   7    3.72    0.24 
  -4   4   7    3.92    0.22 
   3  -4  -7   13.85    0.47 
   3  -4  -7   14.19    0.32 
  -3   4   7   13.99    0.55 
  -3   4   7   14.24    0.49 
  -3   4   7   14.18    0.56 
  -3   4   7   13.93    0.44 
   2  -4  -7    0.01    0.05 
   2  -4  -7    0.03    0.07 
   2  -4  -7    0.09    0.05 
  -2   4   7   -0.01    0.07 
  -2   4   7    0.05    0.06 
  -2   4   7    0.08    0.07 
  -2   4   7    0.09    0.07 
   1  -4  -7    0.99    0.16 
   1  -4  -7    0.56    0.11 
   1  -4  -7    1.19    0.12 
  -1   4   7    0.90    0.15 
  -1   4   7    1.17    0.17 
  -1   4   7    0.76    0.11 
  -1   4   7    1.00    0.13 
   0  -4  -7    4.09    0.27 
   0  -4  -7    3.74    0.21 
   0  -4  -7    4.37    0.28 
   0   4   7    4.35    0.24 
   0   4   7    4.39    0.22 
   0   4   7    4.40    0.27 
   0   4   7    4.14    0.29 
  -1  -4  -7   10.16    0.37 
  -1  -4  -7    9.11    0.43 
  -1  -4  -7    9.88    0.45 
   1   4   7    9.91    0.38 
   1   4   7   10.51    0.44 
  -2  -4  -7    4.16    0.29 
  -2  -4  -7    4.11    0.29 
   2   4   7    4.07    0.23 
  -3  -4  -7    0.26    0.11 
  -3  -4  -7    0.38    0.12 
   3   4   7    0.31    0.09 
  -4  -4  -7    0.40    0.12 
  -4  -4  -7    0.60    0.14 
   4   4   7    0.56    0.10 
  -5  -4  -7    0.03    0.07 
  -5  -4  -7    0.10    0.09 
  -5  -4  -7    0.25    0.12 
   5   4   7    0.17    0.06 
  -6  -4  -7    7.65    0.43 
  -6  -4  -7    7.57    0.43 
  -6  -4  -7    7.50    0.46 
  -7  -4  -7    0.01    0.08 
  -7  -4  -7    0.01    0.10 
  -7  -4  -7    0.00    0.10 
  -8  -4  -7    2.80    0.24 
  -8  -4  -7    3.21    0.35 
  -8  -4  -7    2.32    0.29 
  -9  -4  -7    2.08    0.30 
  -9  -4  -7    2.25    0.31 
  -9  -4  -7    2.81    0.27 
 -10  -4  -7    0.18    0.13 
 -10  -4  -7    0.22    0.15 
 -10  -4  -7    0.17    0.12 
  -6   5   7    0.39    0.12 
  -6   5   7    0.34    0.10 
  -5   5   7    0.43    0.11 
  -5   5   7    0.25    0.10 
  -4   5   7    3.29    0.24 
  -4   5   7    3.75    0.23 
   3  -5  -7    1.35    0.22 
   3  -5  -7    0.55    0.14 
  -3   5   7    0.98    0.14 
  -3   5   7    1.40    0.16 
   2  -5  -7    3.61    0.26 
   2  -5  -7    3.15    0.23 
   2  -5  -7    3.31    0.18 
  -2   5   7    2.85    0.22 
  -2   5   7    3.01    0.26 
  -2   5   7    3.72    0.29 
  -2   5   7    2.96    0.20 
   1  -5  -7    1.18    0.18 
   1  -5  -7    1.13    0.18 
   1  -5  -7    1.28    0.14 
  -1   5   7    1.00    0.18 
  -1   5   7    1.09    0.17 
  -1   5   7    1.26    0.15 
  -1   5   7    1.14    0.15 
   0  -5  -7    9.02    0.43 
   0  -5  -7    8.81    0.42 
   0   5   7    9.00    0.44 
   0   5   7    8.78    0.36 
   0   5   7    9.13    0.38 
  -1  -5  -7   33.38    1.00 
  -1  -5  -7   32.56    0.98 
   1   5   7   34.05    0.89 
   1   5   7   34.38    0.99 
  -2  -5  -7    1.85    0.22 
  -2  -5  -7    2.47    0.27 
   2   5   7    2.19    0.18 
  -3  -5  -7    1.05    0.18 
  -3  -5  -7    0.85    0.16 
   3   5   7    1.05    0.13 
  -4  -5  -7    0.18    0.11 
  -4  -5  -7    0.27    0.12 
   4   5   7    0.25    0.09 
  -5  -5  -7    0.03    0.09 
  -5  -5  -7    0.09    0.10 
   5   5   7    0.01    0.05 
  -6  -5  -7    2.37    0.27 
  -6  -5  -7    2.45    0.29 
  -7  -5  -7   -0.12    0.09 
  -7  -5  -7   -0.16    0.09 
  -8  -5  -7    1.30    0.23 
  -8  -5  -7    1.56    0.26 
  -9  -5  -7    1.31    0.25 
  -9  -5  -7    0.85    0.22 
 -10  -5  -7    1.36    0.25 
 -10  -5  -7    1.18    0.24 
 -10  -5  -7    1.23    0.20 
  -6   6   7    0.13    0.11 
  -6   6   7    0.26    0.12 
  -5   6   7    0.17    0.10 
  -5   6   7    0.10    0.09 
  -4   6   7   -0.01    0.08 
  -4   6   7    0.07    0.09 
  -3   6   7    4.85    0.30 
  -3   6   7    5.70    0.29 
   2  -6  -7    4.60    0.29 
   2  -6  -7    3.99    0.28 
  -2   6   7    3.92    0.25 
  -2   6   7    4.05    0.27 
   1  -6  -7    4.09    0.29 
   1  -6  -7    4.00    0.29 
  -1   6   7    4.10    0.31 
  -1   6   7    4.13    0.26 
  -1   6   7    3.83    0.26 
   0  -6  -7    0.40    0.13 
   0  -6  -7    0.27    0.12 
   0   6   7    0.43    0.12 
   0   6   7    0.40    0.11 
   0   6   7    0.29    0.11 
  -1  -6  -7   96.05    2.23 
  -1  -6  -7   95.24    2.24 
   1   6   7   95.21    2.11 
   1   6   7   94.01    2.12 
  -2  -6  -7   59.19    1.57 
  -2  -6  -7   60.87    1.57 
   2   6   7   62.88    1.45 
  -3  -6  -7    3.91    0.32 
  -3  -6  -7    4.13    0.32 
   3   6   7    3.79    0.24 
  -4  -6  -7    1.21    0.20 
  -4  -6  -7    1.75    0.24 
   4   6   7    1.82    0.18 
  -5  -6  -7    0.22    0.13 
  -5  -6  -7    0.71    0.17 
   5   6   7    0.75    0.12 
  -6  -6  -7    5.95    0.41 
  -6  -6  -7    5.40    0.39 
  -7  -6  -7    6.58    0.43 
  -7  -6  -7    5.69    0.41 
  -8  -6  -7    2.90    0.34 
  -8  -6  -7    2.13    0.29 
  -9  -6  -7   -0.10    0.12 
  -9  -6  -7    0.11    0.14 
 -10  -6  -7    4.09    0.43 
 -10  -6  -7    5.54    0.43 
  -5   7   7    0.02    0.09 
  -5   7   7    0.13    0.10 
  -4   7   7    0.34    0.12 
  -4   7   7    0.14    0.10 
  -3   7   7    0.75    0.15 
  -3   7   7    0.70    0.14 
  -2   7   7    0.14    0.10 
  -2   7   7    0.10    0.09 
   1  -7  -7    0.11    0.11 
   1  -7  -7    0.05    0.09 
  -1   7   7    0.14    0.09 
  -1   7   7    0.20    0.10 
   0  -7  -7    4.09    0.32 
   0  -7  -7    3.82    0.33 
   0   7   7    3.86    0.27 
   0   7   7    3.75    0.26 
  -1  -7  -7   17.06    0.68 
  -1  -7  -7   17.12    0.68 
   1   7   7   16.95    0.61 
   1   7   7   17.45    0.60 
  -2  -7  -7    5.02    0.39 
  -2  -7  -7    5.75    0.41 
   2   7   7    5.24    0.31 
  -3  -7  -7   -0.10    0.10 
  -3  -7  -7   -0.11    0.10 
   3   7   7   -0.04    0.06 
  -4  -7  -7    0.29    0.14 
  -4  -7  -7    0.16    0.14 
   4   7   7    0.44    0.11 
  -5  -7  -7    0.57    0.17 
  -5  -7  -7    0.74    0.19 
   5   7   7    0.68    0.12 
  -6  -7  -7    0.27    0.15 
  -6  -7  -7    0.29    0.15 
  -7  -7  -7    0.02    0.13 
  -7  -7  -7    0.11    0.13 
  -8  -7  -7    0.23    0.16 
  -8  -7  -7    0.11    0.14 
  -9  -7  -7    0.71    0.21 
  -9  -7  -7    0.53    0.20 
  -4   8   7    0.13    0.10 
  -4   8   7    0.28    0.12 
  -3   8   7    0.12    0.10 
  -3   8   7    0.02    0.11 
  -2   8   7    1.84    0.22 
  -2   8   7    1.56    0.22 
  -1   8   7    0.87    0.18 
  -1   8   7    1.06    0.19 
   0  -8  -7    0.13    0.13 
   0  -8  -7    0.25    0.15 
   0   8   7    0.15    0.10 
   0   8   7    0.17    0.12 
  -1  -8  -7    0.17    0.13 
  -1  -8  -7    0.23    0.16 
   1   8   7    0.20    0.12 
   1   8   7    0.10    0.09 
  -2  -8  -7   37.24    1.17 
  -2  -8  -7   38.27    1.18 
   2   8   7   39.34    1.06 
  -3  -8  -7   17.85    0.74 
  -3  -8  -7   18.27    0.76 
   3   8   7   18.17    0.62 
  -4  -8  -7    0.14    0.13 
  -4  -8  -7    0.09    0.14 
   4   8   7    0.15    0.09 
  -5  -8  -7    1.25    0.25 
  -5  -8  -7    1.73    0.27 
  -6  -8  -7    9.48    0.55 
  -6  -8  -7    9.59    0.55 
  -7  -8  -7    2.85    0.37 
  -7  -8  -7    2.81    0.35 
  -8  -8  -7    0.24    0.17 
  -8  -8  -7    0.09    0.14 
  -9  -8  -7    0.09    0.14 
  -9  -8  -7    0.12    0.13 
  -2   9   7    5.10    0.36 
  -2   9   7    4.98    0.36 
  -1   9   7    0.06    0.11 
  -1   9   7    0.11    0.12 
   0  -9  -7    0.83    0.20 
   0   9   7    0.51    0.13 
   0   9   7    0.73    0.18 
  -1  -9  -7    0.21    0.15 
  -1  -9  -7    0.36    0.16 
   1   9   7    0.15    0.13 
   1   9   7    0.04    0.09 
  -2  -9  -7   10.78    0.58 
  -2  -9  -7    9.99    0.56 
   2   9   7   10.95    0.48 
  -3  -9  -7    3.61    0.39 
  -3  -9  -7    3.51    0.39 
   3   9   7    3.45    0.27 
  -4  -9  -7    2.44    0.32 
  -4  -9  -7    1.72    0.29 
   4   9   7    2.57    0.26 
  -5  -9  -7    0.11    0.15 
  -5  -9  -7    0.10    0.15 
  -6  -9  -7    2.66    0.34 
  -6  -9  -7    2.46    0.34 
  -7  -9  -7    0.31    0.18 
  -7  -9  -7    0.70    0.21 
  -8  -9  -7    0.11    0.17 
  -8  -9  -7    0.21    0.17 
  -9  -9  -7    0.47    0.17 
  -9  -9  -7    0.34    0.20 
  -1  10   7    0.07    0.13 
  -1  10   7    0.03    0.12 
   0  10   7   -0.07    0.10 
   0  10   7    0.27    0.12 
  -1 -10  -7    0.84    0.22 
   1  10   7    0.45    0.14 
   1  10   7    0.45    0.17 
  -2 -10  -7    6.73    0.49 
  -2 -10  -7    5.63    0.47 
   2  10   7    7.27    0.44 
   2  10   7    6.82    0.39 
  -3 -10  -7    9.82    0.60 
  -3 -10  -7    9.92    0.60 
   3  10   7   11.29    0.56 
  -4 -10  -7    0.94    0.24 
  -4 -10  -7    0.38    0.19 
  -5 -10  -7    1.08    0.27 
  -5 -10  -7    0.78    0.22 
  -6 -10  -7    1.55    0.29 
  -6 -10  -7    1.18    0.26 
  -7 -10  -7    2.91    0.39 
  -7 -10  -7    3.39    0.41 
  -8 -10  -7    1.08    0.27 
  -8 -10  -7    1.27    0.24 
  -2 -11  -7    0.28    0.20 
   2  11   7    0.03    0.12 
  -3 -11  -7    8.82    0.58 
  -3 -11  -7    7.78    0.58 
  -4 -11  -7    0.90    0.24 
  -4 -11  -7    1.30    0.28 
  -5 -11  -7    1.01    0.28 
  -5 -11  -7    0.88    0.24 
  -6 -11  -7   -0.13    0.17 
  -6 -11  -7   -0.09    0.18 
  -5  -7   8   -0.05    0.12 
  -5  -7   8    0.27    0.13 
  -4  -7   8    0.09    0.12 
  -4  -7   8    0.03    0.13 
  -4  -7   8    0.14    0.13 
  -3  -7   8   -0.23    0.13 
  -3  -7   8   -0.22    0.11 
  -3  -7   8    0.20    0.12 
  -2  -7   8   -0.01    0.10 
  -2  -7   8   -0.03    0.12 
  -2  -7   8   -0.08    0.14 
  -1  -7   8    0.22    0.17 
  -1  -7   8   -0.22    0.08 
  -1  -7   8   -0.04    0.13 
   0  -7   8    0.05    0.12 
  -6  -6   8    0.24    0.13 
  -6  -6   8    0.21    0.12 
  -6  -6   8    0.26    0.13 
  -5  -6   8   -0.10    0.10 
  -5  -6   8   -0.12    0.10 
  -5  -6   8    0.01    0.08 
  -4  -6   8   -0.11    0.11 
  -4  -6   8   -0.04    0.09 
  -4  -6   8   -0.15    0.10 
  -3  -6   8    0.30    0.16 
  -3  -6   8    0.73    0.17 
  -3  -6   8    0.58    0.15 
  -2  -6   8    0.11    0.12 
  -2  -6   8    0.17    0.15 
  -2  -6   8    0.26    0.12 
  -1  -6   8    2.80    0.35 
  -1  -6   8    2.45    0.29 
  -1  -6   8    1.98    0.26 
   0  -6   8    0.98    0.23 
   0  -6   8    1.38    0.25 
   0  -6   8    1.02    0.20 
   1  -6   8    1.90    0.31 
   1  -6   8    1.76    0.25 
   1  -6   8    1.81    0.28 
   2  -6   8    1.50    0.26 
  -7  -5   8   -0.03    0.10 
  -7  -5   8   -0.09    0.08 
  -7  -5   8    0.05    0.09 
  -6  -5   8    0.86    0.16 
  -6  -5   8    0.53    0.16 
  -6  -5   8    0.92    0.18 
  -5  -5   8    0.08    0.11 
  -5  -5   8    0.03    0.09 
  -5  -5   8    0.10    0.10 
  -4  -5   8    4.64    0.34 
  -4  -5   8    4.76    0.35 
  -4  -5   8    4.82    0.32 
  -3  -5   8    0.16    0.12 
  -3  -5   8    0.14    0.13 
  -3  -5   8    0.24    0.11 
  -2  -5   8   -0.03    0.08 
  -2  -5   8    0.04    0.11 
  -2  -5   8   -0.04    0.09 
  -1  -5   8    0.67    0.15 
  -1  -5   8    0.60    0.15 
  -1  -5   8    0.73    0.19 
   0  -5   8    0.02    0.12 
   0  -5   8   -0.01    0.12 
   0  -5   8    0.29    0.13 
  -1   5  -8    0.31    0.12 
   1  -5   8    0.46    0.18 
   1  -5   8    0.16    0.13 
   1  -5   8    0.48    0.14 
  -2   5  -8    0.01    0.08 
  -2   5  -8    0.05    0.05 
   2  -5   8    0.07    0.11 
   2  -5   8   -0.08    0.08 
   2  -5   8   -0.06    0.11 
  -3   5  -8    4.52    0.25 
  -3   5  -8    4.75    0.32 
   3  -5   8    5.04    0.47 
  -8  -4   8    0.06    0.08 
  -8  -4   8    0.16    0.10 
  -7  -4   8    0.03    0.08 
  -7  -4   8    0.43    0.13 
  -7  -4   8    0.06    0.09 
  -6  -4   8    0.27    0.12 
  -6  -4   8    0.32    0.11 
  -6  -4   8    0.33    0.11 
  -5  -4   8    0.32    0.11 
  -5  -4   8    0.21    0.11 
  -5  -4   8    0.38    0.11 
  -4  -4   8    0.06    0.10 
  -4  -4   8    0.11    0.10 
  -4  -4   8   -0.01    0.07 
  -3  -4   8    0.11    0.09 
  -3  -4   8   -0.03    0.08 
  -3  -4   8   -0.02    0.09 
  -2  -4   8    1.18    0.21 
  -2  -4   8    1.16    0.19 
  -2  -4   8    0.97    0.16 
  -1  -4   8    0.14    0.09 
  -1  -4   8    0.10    0.10 
  -1  -4   8    0.06    0.09 
   0   4  -8    1.24    0.15 
   0  -4   8    1.69    0.26 
   0  -4   8    1.22    0.19 
   0  -4   8    1.07    0.19 
  -1   4  -8   -0.02    0.05 
  -1   4  -8    0.00    0.03 
   1  -4   8    0.18    0.12 
   1  -4   8   -0.06    0.08 
   1  -4   8    0.11    0.09 
  -2   4  -8    3.71    0.19 
  -2   4  -8    3.69    0.25 
   2  -4   8    4.05    0.30 
   2  -4   8    4.01    0.32 
  -3   4  -8    1.38    0.15 
  -3   4  -8    1.45    0.20 
   3  -4   8    1.38    0.23 
  -4   4  -8    3.80    0.29 
  -4   4  -8    3.84    0.25 
  -5   4  -8    0.19    0.12 
  -5   4  -8    0.21    0.10 
  -8  -3   8    2.28    0.21 
  -8  -3   8    1.96    0.19 
  -7  -3   8    2.83    0.21 
  -7  -3   8    2.73    0.23 
  -6  -3   8    0.48    0.12 
  -6  -3   8    0.49    0.12 
  -5  -3   8    0.15    0.08 
  -5  -3   8    0.12    0.08 
  -5  -3   8    0.07    0.09 
  -4  -3   8    0.02    0.07 
  -4  -3   8   -0.03    0.07 
  -4  -3   8   -0.04    0.07 
  -3  -3   8    2.24    0.25 
  -3  -3   8    2.22    0.22 
  -3  -3   8    2.13    0.24 
  -2  -3   8    0.06    0.10 
  -2  -3   8    0.02    0.09 
  -2  -3   8   -0.05    0.08 
   1   3  -8    0.19    0.07 
  -1  -3   8    0.17    0.09 
  -1  -3   8    0.28    0.12 
  -1  -3   8    0.28    0.11 
   0   3  -8    3.18    0.21 
   0   3  -8    2.92    0.11 
   0  -3   8    3.08    0.26 
   0  -3   8    3.00    0.29 
   0  -3   8    2.74    0.24 
  -1   3  -8    2.31    0.12 
  -1   3  -8    2.59    0.19 
   1  -3   8    2.60    0.28 
   1  -3   8    2.74    0.24 
  -2   3  -8    1.49    0.17 
  -2   3  -8    1.60    0.12 
   2  -3   8    1.57    0.21 
   2  -3   8    1.74    0.23 
  -3   3  -8    1.56    0.14 
  -3   3  -8    1.35    0.17 
   3  -3   8    1.74    0.21 
   3  -3   8    1.70    0.23 
  -4   3  -8    0.00    0.08 
  -4   3  -8    0.05    0.08 
   4  -3   8    0.01    0.11 
  -5   3  -8    0.01    0.08 
  -5   3  -8    0.09    0.09 
  -6   3  -8    0.99    0.17 
  -6   3  -8    0.96    0.18 
  -8  -2   8   -0.02    0.07 
  -8  -2   8   -0.08    0.06 
  -7  -2   8    0.24    0.09 
  -7  -2   8    0.32    0.09 
  -6  -2   8    3.45    0.22 
  -6  -2   8    3.95    0.26 
  -5  -2   8    2.00    0.21 
  -5  -2   8    1.84    0.18 
  -4  -2   8   -0.11    0.05 
  -4  -2   8    0.01    0.07 
   3   2  -8   13.12    0.48 
  -3  -2   8   13.05    0.51 
  -3  -2   8   13.87    0.49 
   2   2  -8    3.13    0.24 
   2   2  -8    3.70    0.26 
   2   2  -8    2.81    0.16 
  -2  -2   8    2.93    0.21 
  -2  -2   8    3.05    0.26 
  -2  -2   8    3.22    0.24 
   1   2  -8   15.66    0.47 
  -1  -2   8   15.31    0.58 
  -1  -2   8   15.61    0.54 
   0   2  -8    0.45    0.03 
   0   2  -8    0.37    0.09 
   0  -2   8    0.52    0.12 
   0  -2   8    0.56    0.14 
  -1   2  -8   -0.03    0.05 
  -1   2  -8    0.07    0.04 
   1  -2   8    0.08    0.08 
   1  -2   8    0.03    0.07 
  -2   2  -8    0.03    0.04 
  -2   2  -8    0.06    0.07 
   2  -2   8   -0.02    0.07 
   2  -2   8   -0.04    0.08 
  -3   2  -8    9.32    0.39 
  -3   2  -8    8.64    0.33 
   3  -2   8    9.01    0.45 
   3  -2   8    8.92    0.41 
  -4   2  -8    1.88    0.21 
  -4   2  -8    1.61    0.18 
   4  -2   8    1.60    0.24 
   4  -2   8    2.23    0.25 
  -5   2  -8    0.57    0.13 
  -5   2  -8    0.40    0.12 
  -6   2  -8    4.67    0.31 
  -6   2  -8    4.34    0.30 
  -8  -1   8    0.70    0.12 
  -8  -1   8    0.93    0.16 
  -7  -1   8    0.21    0.09 
  -7  -1   8    0.32    0.09 
  -6  -1   8    3.62    0.22 
  -6  -1   8    3.81    0.26 
  -5  -1   8    0.69    0.14 
  -5  -1   8    0.60    0.11 
   4   1  -8    1.50    0.13 
  -4  -1   8    1.22    0.15 
  -4  -1   8    1.38    0.18 
   3   1  -8    6.34    0.32 
   3   1  -8    8.42    0.21 
   3   1  -8    8.74    0.36 
  -3  -1   8    8.47    0.39 
  -3  -1   8    8.93    0.36 
  -3  -1   8    8.17    0.41 
   2   1  -8    6.55    0.34 
   2   1  -8    7.44    0.36 
   2   1  -8    7.44    0.25 
  -2  -1   8    7.33    0.33 
  -2  -1   8    7.12    0.31 
  -2  -1   8    7.33    0.37 
   1   1  -8    4.17    0.28 
   1   1  -8    4.21    0.20 
   1   1  -8    4.16    0.28 
  -1  -1   8    3.85    0.28 
  -1  -1   8    3.94    0.23 
  -1  -1   8    3.73    0.25 
   0   1  -8    0.82    0.11 
   0   1  -8    0.79    0.04 
   0  -1   8    0.53    0.13 
   0  -1   8    0.86    0.14 
  -1   1  -8    0.84    0.07 
  -1   1  -8    0.77    0.11 
   1  -1   8    1.24    0.16 
   1  -1   8    1.10    0.18 
  -2   1  -8    2.22    0.14 
  -2   1  -8    2.53    0.19 
   2  -1   8    2.55    0.21 
   2  -1   8    2.13    0.24 
  -3   1  -8    2.34    0.17 
  -3   1  -8    2.67    0.21 
   3  -1   8    2.08    0.24 
   3  -1   8    2.97    0.22 
  -4   1  -8    0.23    0.09 
  -4   1  -8    0.03    0.07 
   4  -1   8    0.15    0.09 
   4  -1   8    0.09    0.10 
  -5   1  -8    8.46    0.39 
  -5   1  -8    8.49    0.40 
   5  -1   8    8.54    0.45 
  -6   1  -8    0.04    0.09 
  -6   1  -8   -0.03    0.09 
  -7   1  -8    0.35    0.14 
  -7   1  -8    0.23    0.11 
  -8   0   8   -0.15    0.05 
  -7   0   8    0.76    0.12 
  -7   0   8    0.61    0.13 
  -6   0   8    1.17    0.14 
  -6   0   8    1.18    0.17 
  -5   0   8    6.19    0.29 
  -5   0   8    5.17    0.32 
   4   0  -8   19.49    0.52 
  -4   0   8   19.25    0.58 
  -4   0   8   19.43    0.65 
   3   0  -8    0.00    0.06 
   3   0  -8    0.08    0.05 
  -3   0   8    0.11    0.07 
  -3   0   8    0.05    0.08 
  -3   0   8    0.12    0.08 
   2   0  -8    5.06    0.29 
   2   0  -8    5.40    0.20 
  -2   0   8    5.38    0.27 
  -2   0   8    5.40    0.32 
  -2   0   8    5.40    0.28 
   1   0  -8    2.43    0.22 
   1   0  -8    2.27    0.15 
   1   0  -8    2.28    0.21 
  -1   0   8    2.27    0.18 
  -1   0   8    1.82    0.18 
  -1   0   8    2.00    0.22 
   0   0  -8   14.77    0.56 
   0   0  -8   15.02    0.33 
   0   0  -8   14.93    0.45 
   0   0  -8   15.21    0.57 
   0   0   8   14.72    0.51 
   0   0   8   14.21    0.55 
  -1   0  -8    0.00    0.08 
  -1   0  -8    0.10    0.06 
   1   0   8   -0.04    0.07 
   1   0   8    0.02    0.06 
  -2   0  -8    4.69    0.25 
   2   0   8    4.61    0.27 
   2   0   8    5.03    0.31 
  -3   0  -8    0.89    0.13 
   3   0   8    0.78    0.13 
   3   0   8    0.85    0.17 
  -4   0  -8    1.11    0.15 
   4   0   8    1.19    0.15 
   4   0   8    0.80    0.15 
  -5   0  -8    0.09    0.08 
   5   0   8    0.12    0.10 
  -6   0  -8    0.90    0.16 
  -7   0  -8    6.46    0.36 
  -8   0  -8    0.00    0.10 
  -8   0  -8    0.20    0.14 
  -8   1   8    3.39    0.22 
  -7   1   8    0.03    0.07 
  -6   1   8    0.24    0.10 
  -6   1   8    0.35    0.08 
  -6   1   8    0.17    0.07 
  -5   1   8   13.24    0.37 
  -5   1   8   13.47    0.46 
  -5   1   8   13.87    0.54 
   4  -1  -8    0.12    0.05 
  -4   1   8    0.19    0.11 
  -4   1   8    0.06    0.07 
  -4   1   8    0.04    0.05 
   3  -1  -8    1.50    0.15 
   3  -1  -8    1.47    0.17 
  -3   1   8    1.33    0.18 
  -3   1   8    1.40    0.16 
   2  -1  -8    7.64    0.36 
   2  -1  -8    8.62    0.26 
  -2   1   8    8.91    0.35 
  -2   1   8    8.20    0.39 
   1  -1  -8   44.05    1.14 
   1  -1  -8   42.35    0.88 
   1  -1  -8   43.62    0.98 
   1  -1  -8   43.53    1.13 
  -1   1   8   42.43    1.06 
  -1   1   8   43.05    1.15 
   0  -1  -8   63.62    1.41 
   0  -1  -8   63.23    1.29 
   0  -1  -8   63.83    1.56 
   0  -1  -8   64.51    1.57 
   0   1   8   63.69    1.56 
   0   1   8   63.38    1.47 
  -1  -1  -8   -0.08    0.07 
  -1  -1  -8   -0.04    0.07 
  -1  -1  -8    0.01    0.06 
  -1  -1  -8    0.07    0.04 
   1   1   8   -0.07    0.06 
   1   1   8    0.01    0.09 
  -2  -1  -8    0.16    0.09 
  -2  -1  -8    0.07    0.06 
  -2  -1  -8    0.12    0.10 
   2   1   8    0.08    0.08 
   2   1   8    0.12    0.07 
  -3  -1  -8    0.90    0.13 
  -3  -1  -8    1.30    0.20 
   3   1   8    0.95    0.17 
   3   1   8    1.09    0.15 
  -4  -1  -8    1.75    0.18 
   4   1   8    1.83    0.24 
   4   1   8    1.92    0.19 
  -5  -1  -8    0.05    0.08 
   5   1   8    0.01    0.09 
   5   1   8    0.00    0.07 
  -6  -1  -8    3.21    0.24 
  -7  -1  -8    0.33    0.12 
  -8  -1  -8    0.17    0.10 
  -7   2   8    0.43    0.12 
  -7   2   8    0.49    0.11 
  -6   2   8    1.31    0.16 
  -6   2   8    1.52    0.13 
  -5   2   8    2.79    0.20 
  -5   2   8    2.99    0.17 
   4  -2  -8    0.03    0.05 
  -4   2   8    0.08    0.08 
  -4   2   8   -0.07    0.06 
  -4   2   8    0.02    0.05 
   3  -2  -8    6.69    0.32 
   3  -2  -8    6.84    0.31 
  -3   2   8    6.58    0.31 
  -3   2   8    6.24    0.36 
  -3   2   8    6.81    0.25 
   2  -2  -8    1.35    0.09 
   2  -2  -8    1.33    0.10 
   2  -2  -8    1.18    0.16 
  -2   2   8    1.06    0.17 
  -2   2   8    0.88    0.13 
   1  -2  -8    0.81    0.07 
   1  -2  -8    0.88    0.14 
   1  -2  -8    0.80    0.15 
   1  -2  -8    0.79    0.10 
  -1   2   8    0.74    0.12 
  -1   2   8    0.48    0.12 
   0  -2  -8    0.84    0.07 
   0  -2  -8    0.75    0.11 
   0  -2  -8    0.78    0.15 
   0  -2  -8    0.88    0.16 
   0   2   8    0.83    0.17 
   0   2   8    0.90    0.14 
  -1  -2  -8   29.32    0.90 
  -1  -2  -8   29.56    0.69 
  -1  -2  -8   30.08    0.90 
  -1  -2  -8   28.72    0.76 
   1   2   8   30.36    0.81 
   1   2   8   27.89    0.87 
  -2  -2  -8    1.18    0.19 
  -2  -2  -8    1.56    0.16 
  -2  -2  -8    1.46    0.21 
   2   2   8    1.15    0.17 
   2   2   8    1.27    0.15 
  -3  -2  -8    7.24    0.41 
  -3  -2  -8    7.80    0.41 
  -3  -2  -8    8.03    0.34 
   3   2   8    7.42    0.33 
   3   2   8    8.10    0.41 
  -4  -2  -8    1.28    0.16 
  -4  -2  -8    0.85    0.17 
  -4  -2  -8    1.17    0.20 
   4   2   8    0.90    0.17 
   4   2   8    0.81    0.13 
  -5  -2  -8    0.23    0.10 
  -5  -2  -8    0.27    0.09 
  -5  -2  -8    0.47    0.16 
   5   2   8    0.41    0.10 
   5   2   8    0.25    0.11 
  -6  -2  -8    3.90    0.33 
  -6  -2  -8    4.27    0.28 
   6   2   8    4.75    0.33 
  -7  -2  -8    0.21    0.11 
  -7  -2  -8    0.57    0.16 
  -8  -2  -8    0.62    0.19 
  -8  -2  -8    0.60    0.14 
  -9  -2  -8    0.18    0.11 
  -9  -2  -8    0.33    0.18 
  -7   3   8    0.35    0.11 
  -7   3   8    0.74    0.13 
  -6   3   8    0.06    0.07 
  -6   3   8   -0.12    0.06 
  -5   3   8    0.43    0.09 
  -5   3   8    0.32    0.10 
  -4   3   8   12.29    0.45 
  -4   3   8   12.59    0.40 
   3  -3  -8   13.97    0.50 
   3  -3  -8   13.95    0.47 
  -3   3   8   13.61    0.48 
  -3   3   8   13.71    0.42 
  -3   3   8   13.32    0.57 
   2  -3  -8    3.29    0.16 
   2  -3  -8    3.23    0.24 
  -2   3   8    3.35    0.18 
  -2   3   8    3.32    0.22 
  -2   3   8    3.22    0.26 
  -2   3   8    3.69    0.27 
  -2   3   8    3.44    0.28 
   1  -3  -8    1.81    0.14 
   1  -3  -8    2.03    0.22 
   1  -3  -8    2.10    0.14 
   1  -3  -8    1.86    0.21 
  -1   3   8    1.38    0.20 
  -1   3   8    1.59    0.17 
   0  -3  -8   72.93    1.56 
   0  -3  -8   69.72    1.70 
   0  -3  -8   69.64    1.51 
   0  -3  -8   70.29    1.70 
   0   3   8   69.03    1.72 
   0   3   8   69.86    1.61 
  -1  -3  -8   27.32    0.73 
  -1  -3  -8   26.74    0.84 
  -1  -3  -8   26.80    0.85 
   1   3   8   27.28    0.76 
   1   3   8   26.40    0.85 
  -2  -3  -8   -0.05    0.08 
  -2  -3  -8    0.00    0.08 
  -2  -3  -8    0.02    0.06 
   2   3   8   -0.10    0.06 
   2   3   8   -0.06    0.06 
  -3  -3  -8    1.02    0.19 
  -3  -3  -8    0.89    0.13 
  -3  -3  -8    0.76    0.16 
   3   3   8    1.01    0.18 
   3   3   8    1.03    0.14 
  -4  -3  -8   10.51    0.42 
  -4  -3  -8   10.94    0.51 
  -4  -3  -8   10.86    0.52 
   4   3   8   11.07    0.41 
   4   3   8   11.11    0.50 
  -5  -3  -8    0.57    0.12 
  -5  -3  -8    0.80    0.18 
  -5  -3  -8    0.74    0.17 
   5   3   8    0.68    0.16 
   5   3   8    0.65    0.12 
  -6  -3  -8   -0.15    0.08 
  -6  -3  -8    0.07    0.08 
  -6  -3  -8    0.08    0.11 
   6   3   8    0.21    0.11 
  -7  -3  -8    0.10    0.10 
  -7  -3  -8    0.09    0.12 
  -7  -3  -8    0.06    0.12 
  -8  -3  -8    0.17    0.14 
  -8  -3  -8    0.10    0.12 
  -8  -3  -8    0.19    0.11 
  -9  -3  -8    0.80    0.16 
  -9  -3  -8    0.26    0.17 
  -9  -3  -8    0.29    0.14 
  -7   4   8    0.24    0.10 
  -7   4   8    0.20    0.09 
  -6   4   8    1.36    0.17 
  -6   4   8    1.28    0.17 
  -5   4   8    0.18    0.09 
  -5   4   8    0.27    0.09 
  -4   4   8    3.33    0.24 
  -4   4   8    3.78    0.22 
  -3   4   8    0.52    0.11 
  -3   4   8    0.68    0.11 
   2  -4  -8   10.91    0.33 
   2  -4  -8    8.03    0.39 
   2  -4  -8   10.34    0.45 
  -2   4   8   10.92    0.50 
  -2   4   8   10.31    0.49 
  -2   4   8   10.45    0.42 
  -2   4   8   11.15    0.38 
   1  -4  -8    8.26    0.40 
   1  -4  -8    7.86    0.39 
   1  -4  -8    8.42    0.31 
  -1   4   8    8.42    0.41 
  -1   4   8    8.24    0.37 
  -1   4   8    8.91    0.44 
  -1   4   8    8.25    0.33 
   0  -4  -8   32.63    0.97 
   0  -4  -8   31.87    0.83 
   0  -4  -8   33.09    0.97 
   0   4   8   33.18    0.89 
   0   4   8   32.82    0.97 
  -1  -4  -8    6.06    0.37 
  -1  -4  -8    6.30    0.30 
  -1  -4  -8    6.02    0.38 
   1   4   8    6.43    0.39 
   1   4   8    6.20    0.32 
  -2  -4  -8    1.05    0.18 
  -2  -4  -8    1.42    0.16 
  -2  -4  -8    1.12    0.19 
   2   4   8    1.15    0.19 
   2   4   8    1.35    0.17 
  -3  -4  -8    0.08    0.10 
  -3  -4  -8    0.12    0.10 
  -3  -4  -8    0.29    0.09 
   3   4   8    0.24    0.08 
   3   4   8    0.20    0.12 
  -4  -4  -8    1.07    0.19 
  -4  -4  -8    1.52    0.23 
  -4  -4  -8    1.38    0.17 
   4   4   8    1.24    0.15 
   4   4   8    1.60    0.22 
  -5  -4  -8    2.00    0.27 
  -5  -4  -8    2.26    0.28 
  -5  -4  -8    2.37    0.23 
   5   4   8    1.99    0.18 
  -6  -4  -8   -0.02    0.09 
  -6  -4  -8    0.12    0.11 
  -6  -4  -8    0.11    0.09 
  -7  -4  -8    0.47    0.13 
  -7  -4  -8    0.38    0.16 
  -7  -4  -8    0.49    0.17 
  -8  -4  -8    0.87    0.22 
  -8  -4  -8    0.72    0.15 
  -8  -4  -8    0.96    0.22 
  -9  -4  -8   -0.07    0.14 
  -9  -4  -8   -0.15    0.10 
  -9  -4  -8    0.23    0.14 
  -6   5   8    0.91    0.16 
  -6   5   8    0.51    0.13 
  -5   5   8    0.59    0.13 
  -5   5   8    0.64    0.12 
  -4   5   8    1.74    0.21 
  -4   5   8    1.63    0.18 
  -3   5   8    0.16    0.08 
  -3   5   8    0.17    0.09 
   2  -5  -8   18.10    0.63 
   2  -5  -8   18.15    0.64 
  -2   5   8   18.33    0.61 
  -2   5   8   18.27    0.57 
   1  -5  -8    5.63    0.34 
   1  -5  -8    5.69    0.27 
   1  -5  -8    5.63    0.35 
  -1   5   8    5.41    0.36 
  -1   5   8    5.79    0.29 
  -1   5   8    5.98    0.32 
   0  -5  -8    8.07    0.42 
   0  -5  -8    7.68    0.34 
   0  -5  -8    8.57    0.43 
   0   5   8    7.57    0.36 
   0   5   8    7.78    0.43 
   0   5   8    8.87    0.36 
  -1  -5  -8   61.80    1.44 
  -1  -5  -8   61.14    1.58 
  -1  -5  -8   61.90    1.59 
   1   5   8   60.96    1.47 
  -2  -5  -8   14.21    0.61 
  -2  -5  -8   14.46    0.50 
  -2  -5  -8   13.32    0.59 
   2   5   8   14.47    0.51 
  -3  -5  -8    0.74    0.18 
  -3  -5  -8    0.38    0.14 
   3   5   8    0.75    0.13 
  -4  -5  -8    1.72    0.23 
  -4  -5  -8    2.44    0.29 
   4   5   8    2.16    0.20 
  -5  -5  -8   15.85    0.68 
  -5  -5  -8   16.42    0.68 
   5   5   8   15.93    0.53 
  -6  -5  -8    0.07    0.11 
  -6  -5  -8    0.21    0.13 
  -7  -5  -8    0.04    0.12 
  -7  -5  -8    0.55    0.19 
  -7  -5  -8    0.40    0.14 
  -8  -5  -8    0.64    0.15 
  -8  -5  -8    0.32    0.16 
  -8  -5  -8    0.53    0.17 
  -9  -5  -8    3.19    0.38 
  -9  -5  -8    2.60    0.35 
  -9  -5  -8    3.51    0.29 
  -5   6   8   -0.13    0.08 
  -5   6   8    0.13    0.09 
  -4   6   8    0.11    0.09 
  -4   6   8   -0.08    0.07 
  -3   6   8    4.87    0.29 
  -3   6   8    5.15    0.32 
  -2   6   8    0.62    0.14 
  -2   6   8    0.60    0.14 
   1  -6  -8    8.36    0.43 
   1  -6  -8    8.28    0.44 
  -1   6   8    8.22    0.38 
  -1   6   8    8.44    0.39 
   0  -6  -8    3.55    0.30 
   0  -6  -8    3.14    0.30 
   0  -6  -8    2.81    0.23 
   0   6   8    2.82    0.23 
   0   6   8    3.53    0.26 
  -1  -6  -8   23.74    0.82 
  -1  -6  -8   22.70    0.81 
   1   6   8   22.37    0.71 
  -2  -6  -8    0.48    0.18 
  -2  -6  -8    0.83    0.20 
   2   6   8    0.51    0.12 
  -3  -6  -8    0.54    0.16 
  -3  -6  -8    0.61    0.17 
   3   6   8    0.63    0.13 
  -4  -6  -8    2.60    0.30 
  -4  -6  -8    2.95    0.32 
   4   6   8    2.69    0.21 
  -5  -6  -8   10.12    0.54 
  -5  -6  -8   10.98    0.56 
   5   6   8   10.37    0.41 
  -6  -6  -8    0.78    0.20 
  -6  -6  -8    0.68    0.19 
  -7  -6  -8    1.30    0.26 
  -7  -6  -8    1.30    0.25 
  -8  -6  -8    0.01    0.13 
  -8  -6  -8    0.05    0.13 
  -9  -6  -8    4.63    0.43 
  -9  -6  -8    4.59    0.40 
  -4   7   8    0.20    0.11 
  -4   7   8    0.14    0.11 
  -3   7   8    3.04    0.27 
  -3   7   8    2.95    0.26 
  -2   7   8    0.68    0.15 
  -2   7   8    0.94    0.17 
   1  -7  -8    4.55    0.38 
  -1   7   8    4.28    0.30 
  -1   7   8    4.53    0.30 
   0  -7  -8    6.49    0.42 
   0  -7  -8    6.37    0.41 
   0   7   8    6.05    0.35 
   0   7   8    6.80    0.36 
  -1  -7  -8    6.72    0.44 
  -1  -7  -8    6.31    0.42 
   1   7   8    6.40    0.35 
  -2  -7  -8   10.79    0.56 
  -2  -7  -8   10.76    0.56 
   2   7   8   10.78    0.46 
  -3  -7  -8   16.22    0.70 
  -3  -7  -8   16.34    0.71 
   3   7   8   16.93    0.59 
  -4  -7  -8   -0.06    0.13 
  -4  -7  -8    0.13    0.13 
   4   7   8    0.06    0.08 
  -5  -7  -8    0.31    0.16 
  -5  -7  -8    0.27    0.15 
   5   7   8    0.64    0.15 
  -6  -7  -8    2.53    0.34 
  -6  -7  -8    1.50    0.27 
  -7  -7  -8   -0.22    0.12 
  -7  -7  -8    0.02    0.14 
  -8  -7  -8    0.15    0.15 
  -8  -7  -8    0.11    0.14 
  -9  -7  -8    0.73    0.19 
  -9  -7  -8    0.60    0.20 
  -3   8   8    2.24    0.26 
  -3   8   8    2.11    0.26 
  -2   8   8    1.50    0.22 
  -2   8   8    0.95    0.18 
  -1   8   8    0.37    0.13 
  -1   8   8    0.25    0.14 
   0  -8  -8    2.34    0.30 
   0   8   8    2.94    0.29 
   0   8   8    2.93    0.27 
  -1  -8  -8    4.89    0.40 
  -1  -8  -8    4.94    0.40 
   1   8   8    5.39    0.35 
   1   8   8    4.93    0.33 
  -2  -8  -8   18.33    0.77 
  -2  -8  -8   17.77    0.77 
   2   8   8   18.95    0.66 
  -3  -8  -8    3.98    0.39 
  -3  -8  -8    2.81    0.34 
   3   8   8    3.31    0.27 
  -4  -8  -8    2.08    0.31 
  -4  -8  -8    1.58    0.27 
   4   8   8    1.78    0.20 
  -5  -8  -8    1.41    0.26 
  -5  -8  -8    1.74    0.30 
  -6  -8  -8    2.52    0.36 
  -6  -8  -8    2.68    0.34 
  -7  -8  -8    0.72    0.21 
  -7  -8  -8    0.75    0.22 
  -8  -8  -8    0.50    0.20 
  -8  -8  -8    0.47    0.20 
  -9  -8  -8    0.76    0.24 
  -2   9   8    1.02    0.20 
  -2   9   8    0.88    0.19 
  -1   9   8    1.32    0.22 
  -1   9   8    1.24    0.20 
   0   9   8    1.33    0.21 
   0   9   8    0.86    0.18 
  -1  -9  -8    0.61    0.20 
   1   9   8    0.94    0.18 
   1   9   8    0.53    0.15 
  -2  -9  -8    7.25    0.51 
  -2  -9  -8    7.44    0.51 
   2   9   8    7.48    0.41 
  -3  -9  -8    2.84    0.38 
  -3  -9  -8    2.62    0.34 
   3   9   8    2.30    0.25 
  -4  -9  -8    0.01    0.15 
  -4  -9  -8    0.20    0.17 
  -5  -9  -8    1.04    0.26 
  -5  -9  -8    0.60    0.20 
  -6  -9  -8    0.05    0.17 
  -6  -9  -8   -0.03    0.15 
  -7  -9  -8   -0.14    0.14 
  -7  -9  -8    0.20    0.18 
  -8  -9  -8    1.29    0.27 
  -8  -9  -8    1.52    0.31 
   0  10   8   -0.03    0.09 
   0  10   8   -0.09    0.12 
   1  10   8    5.03    0.38 
   1  10   8    4.02    0.33 
  -2 -10  -8   -0.27    0.15 
   2  10   8    0.02    0.11 
  -3 -10  -8    4.29    0.45 
  -3 -10  -8    5.70    0.53 
  -4 -10  -8   -0.05    0.18 
  -4 -10  -8   -0.14    0.14 
  -5 -10  -8    0.03    0.14 
  -5 -10  -8   -0.20    0.14 
  -6 -10  -8    0.04    0.18 
  -6 -10  -8    0.48    0.20 
  -7 -10  -8    0.07    0.17 
  -7 -10  -8    0.25    0.20 
  -4  -6   9    0.42    0.18 
  -4  -6   9    0.96    0.21 
  -4  -6   9    1.05    0.21 
  -3  -6   9    2.15    0.27 
  -3  -6   9    1.79    0.27 
  -3  -6   9    2.18    0.31 
  -2  -6   9    0.06    0.09 
  -2  -6   9   -0.01    0.14 
  -2  -6   9    0.02    0.14 
  -1  -6   9    1.54    0.27 
  -1  -6   9    1.30    0.25 
  -1  -6   9    1.17    0.22 
   0  -6   9    0.15    0.17 
   0  -6   9    0.24    0.16 
   0  -6   9    0.15    0.14 
  -6  -5   9   -0.02    0.10 
  -6  -5   9    0.04    0.10 
  -6  -5   9    0.19    0.14 
  -5  -5   9    0.20    0.12 
  -5  -5   9    0.18    0.13 
  -5  -5   9    0.33    0.13 
  -4  -5   9    0.03    0.10 
  -4  -5   9    0.12    0.13 
  -4  -5   9    0.03    0.11 
  -3  -5   9    0.67    0.20 
  -3  -5   9    1.23    0.24 
  -3  -5   9    0.74    0.17 
  -2  -5   9    0.24    0.15 
  -2  -5   9   -0.12    0.09 
  -2  -5   9    0.23    0.15 
  -1  -5   9    0.14    0.11 
  -1  -5   9    0.06    0.13 
  -1  -5   9    0.08    0.11 
   0  -5   9    0.47    0.19 
   0  -5   9    0.41    0.14 
   0  -5   9    0.47    0.16 
   1  -5   9    1.69    0.25 
   1  -5   9    1.27    0.24 
   1  -5   9    1.39    0.26 
   2  -5   9   -0.03    0.12 
  -7  -4   9    1.70    0.23 
  -6  -4   9    1.68    0.20 
  -6  -4   9    1.81    0.24 
  -5  -4   9    1.04    0.21 
  -5  -4   9    1.20    0.20 
  -5  -4   9    1.26    0.19 
  -4  -4   9   -0.07    0.09 
  -4  -4   9    0.09    0.11 
  -4  -4   9    0.13    0.11 
  -3  -4   9   15.59    0.66 
  -3  -4   9   15.61    0.61 
  -3  -4   9   14.85    0.62 
  -2  -4   9   12.17    0.54 
  -2  -4   9   12.26    0.56 
  -2  -4   9   12.37    0.58 
  -1  -4   9    0.07    0.11 
  -1  -4   9   -0.08    0.09 
  -1  -4   9   -0.04    0.11 
   0  -4   9    0.18    0.15 
   0  -4   9    0.36    0.14 
   0  -4   9    0.34    0.14 
   1  -4   9    1.10    0.21 
   1  -4   9    1.28    0.20 
  -2   4  -9    0.68    0.14 
   2  -4   9    0.40    0.15 
   2  -4   9    0.72    0.15 
  -3   4  -9    0.72    0.14 
   3  -4   9    0.54    0.18 
  -7  -3   9    0.14    0.09 
  -7  -3   9    0.17    0.10 
  -6  -3   9    5.91    0.33 
  -6  -3   9    5.73    0.35 
  -5  -3   9    0.25    0.11 
  -5  -3   9    0.15    0.10 
  -4  -3   9   -0.02    0.08 
  -4  -3   9   -0.03    0.08 
  -3  -3   9    2.74    0.27 
  -3  -3   9    2.32    0.27 
  -2  -3   9    0.15    0.13 
  -2  -3   9    0.13    0.12 
  -1  -3   9    0.03    0.09 
  -1  -3   9    0.16    0.11 
   0  -3   9    0.28    0.11 
   0  -3   9    0.18    0.12 
  -1   3  -9    0.31    0.10 
   1  -3   9    0.37    0.13 
   1  -3   9    0.20    0.12 
  -2   3  -9    3.15    0.18 
  -2   3  -9    2.90    0.23 
   2  -3   9    2.75    0.33 
   2  -3   9    3.10    0.30 
  -3   3  -9    1.70    0.20 
  -3   3  -9    1.70    0.14 
   3  -3   9    1.44    0.26 
   3  -3   9    1.52    0.23 
  -4   3  -9    0.02    0.09 
  -4   3  -9   -0.02    0.06 
  -5   3  -9    0.30    0.12 
  -5   3  -9    0.00    0.08 
  -7  -2   9    2.03    0.21 
  -7  -2   9    1.49    0.21 
  -6  -2   9    1.50    0.18 
  -6  -2   9    1.53    0.20 
  -5  -2   9    3.02    0.24 
  -5  -2   9    3.34    0.27 
  -4  -2   9   -0.03    0.08 
  -4  -2   9   -0.02    0.07 
  -3  -2   9    4.10    0.30 
  -3  -2   9    3.14    0.25 
   2   2  -9   45.56    1.34 
  -2  -2   9   44.26    1.24 
  -2  -2   9   45.37    1.19 
   1   2  -9    0.94    0.18 
  -1  -2   9    0.93    0.19 
  -1  -2   9    0.79    0.15 
   0   2  -9    0.39    0.09 
   0  -2   9    0.53    0.13 
   0  -2   9    0.31    0.12 
  -1   2  -9    0.01    0.06 
  -1   2  -9    0.02    0.03 
   1  -2   9   -0.03    0.08 
   1  -2   9    0.02    0.09 
  -2   2  -9    2.19    0.13 
  -2   2  -9    2.21    0.19 
   2  -2   9    2.33    0.28 
   2  -2   9    1.89    0.22 
  -3   2  -9    1.89    0.21 
  -3   2  -9    1.54    0.14 
   3  -2   9    1.06    0.20 
   3  -2   9    2.03    0.23 
  -4   2  -9    0.53    0.13 
  -4   2  -9    0.52    0.11 
   4  -2   9    0.47    0.16 
  -5   2  -9    2.28    0.24 
  -5   2  -9    1.96    0.21 
  -6   2  -9    0.33    0.13 
  -6   2  -9    0.42    0.13 
  -7  -1   9    0.24    0.09 
  -7  -1   9    0.48    0.12 
  -6  -1   9    1.73    0.19 
  -6  -1   9    1.54    0.21 
  -5  -1   9    4.80    0.32 
  -5  -1   9    4.43    0.27 
  -4  -1   9    7.91    0.37 
  -4  -1   9    7.87    0.41 
  -3  -1   9    0.02    0.08 
  -3  -1   9    0.05    0.09 
   2   1  -9   50.71    1.32 
   2   1  -9   49.46    1.31 
  -2  -1   9   50.10    1.33 
  -2  -1   9   52.10    1.28 
   1   1  -9   15.85    0.61 
   1   1  -9   15.81    0.48 
   1   1  -9   15.42    0.60 
  -1  -1   9   16.12    0.57 
  -1  -1   9   15.32    0.61 
   0   1  -9    0.03    0.06 
   0   1  -9    0.01    0.08 
   0  -1   9    0.01    0.06 
   0  -1   9    0.12    0.09 
  -1   1  -9    1.11    0.08 
  -1   1  -9    1.16    0.15 
   1  -1   9    1.19    0.17 
   1  -1   9    1.27    0.21 
  -2   1  -9    1.66    0.18 
  -2   1  -9    1.76    0.12 
   2  -1   9    1.57    0.20 
   2  -1   9    1.70    0.23 
  -3   1  -9   -0.02    0.05 
  -3   1  -9    0.06    0.08 
   3  -1   9   -0.09    0.06 
   3  -1   9   -0.06    0.08 
  -4   1  -9    2.29    0.24 
  -4   1  -9    2.15    0.19 
   4  -1   9    1.94    0.23 
   4  -1   9    2.03    0.27 
  -5   1  -9    0.39    0.12 
  -5   1  -9    0.43    0.12 
  -6   1  -9    0.78    0.16 
  -6   1  -9    0.39    0.13 
  -7   0   9    0.09    0.09 
  -7   0   9    0.05    0.07 
  -6   0   9   -0.08    0.06 
  -6   0   9    0.03    0.09 
  -5   0   9    0.41    0.13 
  -5   0   9    0.25    0.09 
  -4   0   9    0.30    0.11 
  -4   0   9    0.20    0.09 
  -3   0   9    2.05    0.24 
  -3   0   9    2.54    0.21 
   2   0  -9   16.99    0.61 
  -2   0   9   17.94    0.59 
  -2   0   9   17.19    0.64 
   1   0  -9   46.80    1.27 
   1   0  -9   46.71    1.09 
   1   0  -9   47.41    1.27 
  -1   0   9   48.98    1.22 
  -1   0   9   48.05    1.29 
   0   0  -9    0.09    0.09 
   0   0  -9    0.13    0.09 
   0   0  -9    0.07    0.02 
   0   0  -9    0.09    0.06 
   0   0   9    0.25    0.12 
   0   0   9    0.09    0.10 
  -1   0  -9    4.40    0.32 
  -1   0  -9    4.57    0.24 
  -1   0  -9    4.38    0.32 
   1   0   9    4.66    0.29 
   1   0   9    4.63    0.32 
  -2   0  -9    2.89    0.21 
   2   0   9    2.52    0.22 
   2   0   9    2.72    0.30 
  -3   0  -9    6.15    0.32 
   3   0   9    5.72    0.38 
   3   0   9    6.00    0.33 
  -4   0  -9    0.00    0.07 
   4   0   9    0.05    0.10 
   4   0   9    0.05    0.07 
  -5   0  -9    0.06    0.09 
   5   0   9   -0.03    0.10 
  -6   0  -9    0.49    0.13 
  -7   0  -9    3.06    0.30 
  -7   0  -9    2.64    0.29 
  -7   1   9    0.71    0.14 
  -6   1   9    0.49    0.14 
  -6   1   9    0.30    0.09 
  -5   1   9    2.97    0.27 
  -5   1   9    2.90    0.22 
  -4   1   9    2.02    0.24 
  -4   1   9    1.57    0.17 
  -3   1   9    3.06    0.27 
  -3   1   9    3.66    0.24 
   2  -1  -9    0.07    0.07 
   2  -1  -9    0.03    0.06 
  -2   1   9    0.03    0.08 
  -2   1   9    0.12    0.08 
   1  -1  -9   95.82    2.17 
   1  -1  -9   88.74    1.82 
   1  -1  -9   93.21    2.15 
   1  -1  -9   93.23    1.96 
  -1   1   9   94.53    2.08 
  -1   1   9   93.33    2.18 
   0  -1  -9    7.70    0.21 
   0  -1  -9    7.68    0.41 
   0  -1  -9    7.48    0.31 
   0  -1  -9    7.12    0.40 
   0   1   9    7.45    0.42 
   0   1   9    7.66    0.37 
  -1  -1  -9    6.16    0.28 
  -1  -1  -9    6.11    0.38 
  -1  -1  -9    6.21    0.22 
  -1  -1  -9    6.28    0.39 
   1   1   9    5.98    0.32 
   1   1   9    6.48    0.38 
  -2  -1  -9   12.45    0.56 
  -2  -1  -9   13.17    0.58 
  -2  -1  -9   12.96    0.46 
   2   1   9   13.51    0.50 
   2   1   9   12.62    0.56 
  -3  -1  -9    7.65    0.35 
  -3  -1  -9    6.87    0.43 
   3   1   9    7.55    0.43 
   3   1   9    7.52    0.36 
  -4  -1  -9    3.30    0.31 
  -4  -1  -9    3.34    0.24 
   4   1   9    3.10    0.23 
   4   1   9    3.50    0.30 
  -5  -1  -9    0.05    0.08 
   5   1   9    0.05    0.10 
  -6  -1  -9    0.92    0.16 
  -7  -1  -9    1.14    0.19 
  -8  -1  -9    3.40    0.32 
  -7   2   9    0.10    0.10 
  -6   2   9    0.08    0.08 
  -5   2   9    1.76    0.19 
  -5   2   9    1.50    0.22 
  -4   2   9    0.68    0.13 
  -4   2   9    1.08    0.20 
  -4   2   9    0.66    0.10 
  -3   2   9    1.80    0.23 
  -3   2   9    1.74    0.19 
   2  -2  -9    0.10    0.09 
   2  -2  -9   -0.04    0.05 
  -2   2   9    0.06    0.07 
  -2   2   9    0.09    0.09 
   1  -2  -9    2.97    0.26 
   1  -2  -9    3.67    0.28 
   1  -2  -9    3.50    0.19 
   1  -2  -9    3.26    0.19 
  -1   2   9    3.35    0.29 
  -1   2   9    3.46    0.25 
   0  -2  -9    3.16    0.28 
   0  -2  -9    2.92    0.21 
   0  -2  -9    3.49    0.29 
   0  -2  -9    3.54    0.14 
   0   2   9    2.67    0.29 
   0   2   9    3.03    0.25 
  -1  -2  -9    0.24    0.13 
  -1  -2  -9    0.04    0.09 
  -1  -2  -9    0.17    0.07 
  -1  -2  -9    0.22    0.05 
   1   2   9    0.04    0.09 
   1   2   9    0.04    0.09 
  -2  -2  -9    3.00    0.28 
  -2  -2  -9    2.99    0.21 
  -2  -2  -9    2.97    0.28 
   2   2   9    3.15    0.24 
   2   2   9    2.97    0.27 
  -3  -2  -9   19.47    0.74 
  -3  -2  -9   20.10    0.62 
  -3  -2  -9   18.27    0.73 
   3   2   9   19.71    0.73 
   3   2   9   19.16    0.62 
  -4  -2  -9    0.27    0.14 
  -4  -2  -9    0.45    0.12 
  -4  -2  -9    0.12    0.12 
   4   2   9    0.20    0.11 
   4   2   9    0.27    0.10 
  -5  -2  -9    0.69    0.14 
  -5  -2  -9    0.85    0.20 
  -5  -2  -9    0.93    0.20 
   5   2   9    1.18    0.21 
   5   2   9    1.08    0.20 
  -6  -2  -9    0.09    0.13 
  -6  -2  -9    0.09    0.10 
  -7  -2  -9    2.56    0.25 
  -7  -2  -9    1.95    0.31 
  -8  -2  -9    0.18    0.16 
  -8  -2  -9    0.04    0.11 
  -6   3   9    1.12    0.16 
  -5   3   9    0.27    0.10 
  -5   3   9    0.45    0.10 
  -4   3   9    0.09    0.07 
  -4   3   9    0.13    0.09 
  -3   3   9    0.27    0.07 
  -3   3   9    0.07    0.07 
  -3   3   9   -0.03    0.09 
   2  -3  -9   -0.11    0.06 
   2  -3  -9    0.03    0.05 
  -2   3   9   -0.10    0.07 
  -2   3   9    0.05    0.09 
   1  -3  -9   15.00    0.58 
   1  -3  -9   14.74    0.58 
   1  -3  -9   15.05    0.45 
  -1   3   9   14.89    0.63 
  -1   3   9   15.29    0.54 
   0  -3  -9   65.38    1.67 
   0  -3  -9   65.69    1.67 
   0  -3  -9   66.74    1.49 
   0   3   9   67.45    1.58 
   0   3   9   67.07    1.71 
  -1  -3  -9    2.25    0.19 
  -1  -3  -9    2.53    0.29 
  -1  -3  -9    2.14    0.25 
   1   3   9    2.36    0.27 
   1   3   9    1.90    0.20 
  -2  -3  -9   12.61    0.57 
  -2  -3  -9   11.96    0.55 
  -2  -3  -9   12.77    0.46 
   2   3   9   12.83    0.57 
   2   3   9   12.65    0.48 
  -3  -3  -9   10.53    0.53 
  -3  -3  -9   10.31    0.42 
  -3  -3  -9   10.26    0.52 
   3   3   9   10.27    0.43 
   3   3   9    9.87    0.50 
  -4  -3  -9   10.93    0.55 
  -4  -3  -9   11.21    0.45 
  -4  -3  -9   11.49    0.56 
   4   3   9   10.94    0.44 
   4   3   9   12.13    0.55 
  -5  -3  -9    1.08    0.16 
  -5  -3  -9    1.22    0.23 
  -5  -3  -9    0.75    0.19 
   5   3   9    1.18    0.16 
   5   3   9    1.08    0.19 
  -6  -3  -9    0.14    0.10 
  -6  -3  -9    0.14    0.12 
  -6  -3  -9   -0.08    0.10 
  -7  -3  -9    1.72    0.28 
  -7  -3  -9    2.27    0.33 
  -7  -3  -9    1.90    0.23 
  -8  -3  -9    5.13    0.45 
  -8  -3  -9    5.82    0.46 
  -8  -3  -9    5.26    0.35 
  -6   4   9    0.02    0.11 
  -6   4   9    0.13    0.10 
  -5   4   9    1.69    0.21 
  -5   4   9    2.04    0.18 
  -4   4   9    7.57    0.37 
  -4   4   9    7.34    0.32 
  -3   4   9    0.04    0.08 
  -3   4   9   -0.02    0.08 
   2  -4  -9    5.66    0.52 
  -2   4   9    4.81    0.25 
  -2   4   9    5.08    0.30 
   1  -4  -9    0.02    0.06 
   1  -4  -9    0.05    0.09 
   1  -4  -9    0.01    0.09 
  -1   4   9   -0.09    0.08 
   0  -4  -9   18.33    0.68 
   0  -4  -9   18.20    0.68 
   0  -4  -9   17.44    0.55 
   0   4   9   18.11    0.72 
   0   4   9   18.08    0.61 
  -1  -4  -9    0.04    0.10 
  -1  -4  -9    0.05    0.12 
  -1  -4  -9   -0.04    0.06 
   1   4   9    0.01    0.08 
   1   4   9    0.05    0.09 
  -2  -4  -9    3.06    0.32 
  -2  -4  -9    2.86    0.22 
  -2  -4  -9    3.10    0.30 
   2   4   9    3.10    0.24 
   2   4   9    2.95    0.31 
  -3  -4  -9    4.39    0.35 
  -3  -4  -9    5.21    0.30 
  -3  -4  -9    4.64    0.36 
   3   4   9    4.79    0.36 
   3   4   9    5.28    0.30 
  -4  -4  -9   -0.12    0.09 
  -4  -4  -9    0.19    0.11 
  -4  -4  -9    0.15    0.14 
   4   4   9    0.16    0.11 
   4   4   9    0.37    0.11 
  -5  -4  -9   -0.16    0.11 
  -5  -4  -9   -0.02    0.09 
  -5  -4  -9    0.01    0.10 
   5   4   9   -0.09    0.08 
   5   4   9   -0.05    0.07 
  -6  -4  -9    1.78    0.22 
  -6  -4  -9    1.35    0.24 
  -6  -4  -9    1.33    0.24 
  -7  -4  -9    1.67    0.28 
  -7  -4  -9    1.60    0.27 
  -7  -4  -9    1.58    0.21 
  -8  -4  -9    0.18    0.16 
  -8  -4  -9    0.15    0.15 
  -8  -4  -9    0.13    0.12 
  -5   5   9    0.05    0.10 
  -5   5   9    0.01    0.08 
  -4   5   9    0.84    0.16 
  -4   5   9    0.70    0.15 
  -3   5   9   -0.04    0.07 
  -3   5   9    0.03    0.08 
  -2   5   9    1.01    0.16 
  -2   5   9    1.06    0.15 
   1  -5  -9    0.48    0.14 
   1  -5  -9    0.44    0.13 
  -1   5   9    0.63    0.12 
  -1   5   9    0.33    0.12 
   0  -5  -9    5.60    0.29 
   0  -5  -9    6.20    0.38 
   0  -5  -9    6.07    0.38 
   0   5   9    5.65    0.32 
  -1  -5  -9    1.05    0.22 
  -1  -5  -9    0.61    0.17 
  -1  -5  -9    1.05    0.15 
   1   5   9    0.90    0.16 
  -2  -5  -9    0.08    0.12 
  -2  -5  -9   -0.05    0.07 
  -2  -5  -9   -0.05    0.10 
   2   5   9   -0.01    0.08 
  -3  -5  -9    0.38    0.16 
  -3  -5  -9    0.41    0.16 
  -3  -5  -9    0.28    0.11 
   3   5   9    0.38    0.12 
  -4  -5  -9   20.60    0.68 
  -4  -5  -9   19.22    0.79 
  -4  -5  -9   21.13    0.80 
   4   5   9   21.21    0.66 
  -5  -5  -9    3.36    0.36 
  -5  -5  -9    3.90    0.41 
  -5  -5  -9    3.57    0.28 
   5   5   9    3.61    0.26 
  -6  -5  -9    2.20    0.24 
  -6  -5  -9    2.78    0.34 
  -6  -5  -9    2.57    0.34 
  -7  -5  -9    0.91    0.23 
  -7  -5  -9    0.99    0.19 
  -7  -5  -9    0.93    0.25 
  -8  -5  -9    7.15    0.51 
  -8  -5  -9    7.16    0.41 
  -8  -5  -9    6.31    0.49 
  -9  -5  -9    4.34    0.34 
  -4   6   9    2.08    0.24 
  -4   6   9    1.95    0.23 
  -3   6   9    2.39    0.24 
  -3   6   9    2.22    0.25 
  -2   6   9    0.27    0.11 
  -2   6   9    0.43    0.12 
   1  -6  -9    1.69    0.37 
  -1   6   9    0.99    0.16 
  -1   6   9    1.30    0.18 
   0  -6  -9    3.91    0.35 
   0  -6  -9    3.51    0.33 
   0  -6  -9    3.78    0.38 
   0   6   9    3.30    0.26 
  -1  -6  -9   12.81    0.60 
  -1  -6  -9   13.33    0.49 
  -1  -6  -9   13.51    0.62 
   1   6   9   13.08    0.52 
  -2  -6  -9    9.55    0.42 
  -2  -6  -9    8.98    0.52 
  -2  -6  -9    9.08    0.52 
   2   6   9    8.86    0.42 
  -3  -6  -9   25.10    0.91 
  -3  -6  -9   25.07    0.92 
  -3  -6  -9   24.97    0.78 
   3   6   9   26.45    0.79 
  -4  -6  -9    2.69    0.33 
  -4  -6  -9    2.29    0.30 
   4   6   9    3.04    0.24 
  -5  -6  -9    3.01    0.35 
  -5  -6  -9    2.97    0.35 
  -6  -6  -9    0.09    0.13 
  -6  -6  -9   -0.09    0.12 
  -7  -6  -9    1.23    0.21 
  -7  -6  -9    1.68    0.30 
  -7  -6  -9    1.16    0.24 
  -8  -6  -9    0.48    0.20 
  -8  -6  -9    0.94    0.24 
  -8  -6  -9    0.86    0.19 
  -4   7   9    1.80    0.24 
  -3   7   9   -0.01    0.10 
  -3   7   9   -0.05    0.08 
  -2   7   9    0.01    0.08 
  -2   7   9    0.04    0.10 
  -1   7   9    0.31    0.13 
  -1   7   9    0.54    0.14 
   0  -7  -9    0.17    0.13 
   0   7   9    0.20    0.11 
   0   7   9   -0.06    0.09 
  -1  -7  -9    0.21    0.16 
  -1  -7  -9    0.04    0.14 
  -1  -7  -9    0.36    0.11 
   1   7   9    0.30    0.12 
  -2  -7  -9    4.13    0.41 
  -2  -7  -9    3.12    0.35 
   2   7   9    3.02    0.27 
  -3  -7  -9    2.55    0.33 
  -3  -7  -9    2.22    0.31 
   3   7   9    2.97    0.26 
  -4  -7  -9   -0.02    0.14 
  -4  -7  -9    0.11    0.14 
   4   7   9    0.10    0.09 
  -5  -7  -9    9.41    0.56 
  -5  -7  -9    8.70    0.55 
  -6  -7  -9    0.15    0.15 
  -6  -7  -9   -0.07    0.13 
  -7  -7  -9    0.14    0.15 
  -7  -7  -9    0.24    0.18 
  -8  -7  -9   -0.03    0.15 
  -8  -7  -9    0.12    0.16 
  -2   8   9    0.37    0.14 
  -2   8   9    0.55    0.16 
  -1   8   9    1.19    0.20 
  -1   8   9    0.79    0.16 
   0   8   9    1.42    0.22 
   0   8   9    1.24    0.21 
  -1  -8  -9    2.89    0.52 
  -1  -8  -9    2.56    0.32 
   1   8   9    2.15    0.25 
  -2  -8  -9    0.65    0.22 
  -2  -8  -9    0.59    0.22 
   2   8   9    0.76    0.17 
  -3  -8  -9    2.88    0.36 
  -3  -8  -9    3.15    0.38 
   3   8   9    2.33    0.25 
  -4  -8  -9    1.74    0.30 
  -4  -8  -9    1.96    0.31 
   4   8   9    2.17    0.26 
  -5  -8  -9    0.55    0.19 
  -5  -8  -9    0.20    0.18 
  -6  -8  -9    0.20    0.17 
  -6  -8  -9   -0.01    0.14 
  -7  -8  -9    1.40    0.28 
  -7  -8  -9    1.40    0.29 
  -8  -8  -9    0.47    0.21 
  -8  -8  -9    0.53    0.19 
  -1   9   9    0.13    0.13 
  -1   9   9    0.20    0.13 
   0   9   9    0.24    0.12 
   0   9   9    0.20    0.13 
   1   9   9    0.48    0.16 
  -2  -9  -9   -0.04    0.15 
  -2  -9  -9   -0.26    0.17 
   2   9   9    0.12    0.11 
  -3  -9  -9    0.35    0.21 
  -3  -9  -9    0.55    0.24 
   3   9   9    0.92    0.18 
  -4  -9  -9    0.06    0.17 
  -4  -9  -9   -0.16    0.15 
  -5  -9  -9    0.06    0.17 
  -5  -9  -9    0.07    0.17 
  -6  -9  -9    1.62    0.32 
  -6  -9  -9    0.86    0.24 
  -7  -9  -9    0.19    0.20 
  -7  -9  -9    0.05    0.19 
   1  10   9   -0.14    0.12 
   2  10   9    0.05    0.12 
  -3 -10  -9    2.26    0.35 
  -4 -10  -9    0.55    0.24 
  -4 -10  -9    0.40    0.21 
  -5 -10  -9    0.07    0.18 
  -5 -10  -9    0.21    0.20 
  -3  -5  10    3.88    0.35 
  -3  -5  10    4.10    0.39 
  -3  -5  10    4.34    0.36 
  -2  -5  10    2.75    0.35 
  -2  -5  10    2.57    0.29 
  -2  -5  10    2.60    0.32 
  -1  -5  10    0.36    0.14 
  -1  -5  10    0.34    0.17 
  -5  -4  10    0.07    0.10 
  -5  -4  10    0.12    0.12 
  -4  -4  10    0.19    0.12 
  -4  -4  10    0.43    0.15 
  -3  -4  10   11.36    0.54 
  -3  -4  10   11.35    0.57 
  -2  -4  10    8.84    0.52 
  -2  -4  10   10.15    0.50 
  -1  -4  10    0.09    0.10 
  -1  -4  10    0.29    0.15 
   0  -4  10    1.04    0.22 
   0  -4  10    1.42    0.22 
   1  -4  10    0.69    0.17 
   1  -4  10    0.78    0.20 
   2  -4  10    0.02    0.14 
  -6  -3  10    0.17    0.12 
  -6  -3  10    0.21    0.11 
  -5  -3  10    0.67    0.17 
  -5  -3  10    0.75    0.17 
  -4  -3  10    1.39    0.20 
  -4  -3  10    1.31    0.21 
  -3  -3  10    0.51    0.15 
  -3  -3  10    0.83    0.16 
  -2  -3  10    0.05    0.14 
  -2  -3  10    0.35    0.13 
  -1  -3  10   -0.15    0.10 
  -1  -3  10    0.16    0.10 
   0  -3  10    0.28    0.13 
   0  -3  10    0.15    0.13 
   1  -3  10   -0.05    0.10 
   1  -3  10   -0.01    0.09 
   2  -3  10   -0.05    0.10 
   2  -3  10    0.03    0.12 
  -3   3 -10    1.21    0.22 
   3  -3  10    1.05    0.23 
  -6  -2  10    0.55    0.16 
  -6  -2  10    0.69    0.15 
  -5  -2  10    4.35    0.34 
  -5  -2  10    4.47    0.30 
  -4  -2  10    0.54    0.14 
  -4  -2  10    0.51    0.13 
  -3  -2  10    3.81    0.32 
  -3  -2  10    3.66    0.28 
  -2  -2  10   28.16    0.95 
  -2  -2  10   30.05    0.91 
  -1  -2  10    8.26    0.46 
  -1  -2  10    7.33    0.40 
   0  -2  10    0.09    0.10 
   0  -2  10   -0.01    0.09 
   1  -2  10    0.16    0.10 
   1  -2  10    0.03    0.10 
  -2   2 -10    5.62    0.32 
   2  -2  10    6.18    0.37 
   2  -2  10    5.70    0.41 
  -3   2 -10    0.09    0.08 
   3  -2  10    0.07    0.12 
   3  -2  10    0.16    0.14 
  -4   2 -10    0.02    0.09 
  -6  -1  10    1.62    0.23 
  -6  -1  10    1.50    0.20 
  -5  -1  10    1.10    0.17 
  -5  -1  10    0.87    0.19 
  -4  -1  10    1.53    0.23 
  -4  -1  10    1.70    0.20 
  -3  -1  10   -0.12    0.07 
  -3  -1  10    0.01    0.09 
  -2  -1  10    0.85    0.20 
  -2  -1  10    1.14    0.18 
   1   1 -10    2.83    0.45 
  -1  -1  10    3.21    0.27 
  -1  -1  10    3.32    0.30 
   0   1 -10    0.99    0.20 
   0   1 -10    1.13    0.21 
   0  -1  10    1.11    0.20 
   0  -1  10    1.15    0.19 
  -1   1 -10    1.10    0.20 
  -1   1 -10    0.91    0.13 
   1  -1  10    1.24    0.18 
   1  -1  10    1.14    0.20 
  -2   1 -10    0.25    0.08 
   2  -1  10    0.22    0.10 
   2  -1  10    0.01    0.10 
  -3   1 -10    1.01    0.12 
  -3   1 -10    0.95    0.15 
   3  -1  10    0.80    0.19 
   3  -1  10    1.19    0.19 
  -4   1 -10    3.35    0.22 
  -4   1 -10    3.75    0.28 
   4  -1  10    3.30    0.36 
  -5   1 -10    0.08    0.08 
  -5   1 -10    0.22    0.11 
  -6   0  10    1.03    0.19 
  -6   0  10    1.33    0.18 
  -5   0  10    0.75    0.14 
  -5   0  10    0.84    0.18 
  -4   0  10    1.69    0.20 
  -4   0  10    2.20    0.27 
  -3   0  10    4.61    0.30 
  -3   0  10    4.50    0.34 
  -2   0  10   -0.02    0.08 
  -2   0  10    0.19    0.11 
   1   0 -10   12.69    0.56 
  -1   0  10   13.24    0.53 
  -1   0  10   12.64    0.57 
   0   0 -10    4.04    0.30 
   0   0 -10    4.48    0.34 
   0   0 -10    4.16    0.33 
   0   0  10    4.11    0.33 
   0   0  10    4.23    0.29 
  -1   0 -10    0.10    0.07 
  -1   0 -10    0.01    0.09 
  -1   0 -10   -0.13    0.09 
   1   0  10    0.05    0.09 
   1   0  10    0.03    0.09 
  -2   0 -10    1.36    0.16 
  -2   0 -10    1.15    0.21 
  -2   0 -10    1.28    0.11 
   2   0  10    1.34    0.19 
   2   0  10    1.09    0.20 
  -3   0 -10    4.35    0.37 
  -3   0 -10    4.31    0.28 
  -3   0 -10    4.29    0.23 
   3   0  10    4.71    0.31 
   3   0  10    4.82    0.37 
  -4   0 -10    0.52    0.11 
  -4   0 -10    0.42    0.13 
   4   0  10    0.27    0.13 
  -5   0 -10    0.24    0.12 
  -5   0 -10    0.09    0.08 
  -6   0 -10    1.55    0.22 
  -6   0 -10    1.38    0.21 
  -6   1  10    0.49    0.15 
  -6   1  10    0.46    0.12 
  -5   1  10    0.89    0.20 
  -5   1  10    0.63    0.14 
  -4   1  10    1.97    0.22 
  -4   1  10    1.79    0.25 
  -3   1  10    1.05    0.16 
  -3   1  10    1.47    0.23 
  -2   1  10    0.73    0.15 
  -2   1  10    0.56    0.16 
   1  -1 -10   10.48    0.50 
   1  -1 -10   11.68    0.58 
  -1   1  10   11.46    0.48 
  -1   1  10   11.82    0.55 
   0  -1 -10    1.07    0.19 
   0  -1 -10    1.00    0.20 
   0  -1 -10    1.05    0.14 
   0   1  10    1.35    0.18 
   0   1  10    0.97    0.19 
  -1  -1 -10    0.05    0.09 
  -1  -1 -10   -0.08    0.08 
  -1  -1 -10    0.02    0.06 
   1   1  10   -0.01    0.08 
   1   1  10   -0.09    0.06 
  -2  -1 -10    0.25    0.13 
  -2  -1 -10    0.31    0.09 
  -2  -1 -10    0.23    0.12 
   2   1  10    0.24    0.10 
   2   1  10    0.18    0.12 
  -3  -1 -10    0.20    0.09 
  -3  -1 -10    0.38    0.15 
  -3  -1 -10    0.31    0.15 
   3   1  10    0.37    0.13 
   3   1  10    0.16    0.09 
  -4  -1 -10    2.45    0.24 
  -4  -1 -10    3.45    0.38 
   4   1  10    2.46    0.29 
   4   1  10    2.51    0.26 
  -5  -1 -10    1.41    0.20 
  -5  -1 -10    1.61    0.29 
   5   1  10    1.24    0.28 
  -6  -1 -10   -0.03    0.10 
  -6  -1 -10    0.06    0.14 
  -7  -1 -10    4.28    0.33 
  -7  -1 -10    3.82    0.44 
  -6   2  10    0.86    0.16 
  -5   2  10    0.90    0.20 
  -5   2  10    0.95    0.16 
  -4   2  10    3.70    0.33 
  -4   2  10    3.54    0.27 
  -3   2  10    2.15    0.28 
  -3   2  10    1.95    0.21 
  -2   2  10    0.09    0.10 
  -2   2  10    0.10    0.09 
   1  -2 -10    2.35    0.27 
   1  -2 -10    2.37    0.30 
  -1   2  10    2.59    0.23 
  -1   2  10    2.40    0.28 
   0  -2 -10   -0.07    0.09 
   0  -2 -10   -0.04    0.08 
   0  -2 -10   -0.08    0.06 
   0   2  10    0.03    0.09 
   0   2  10   -0.04    0.09 
  -1  -2 -10    0.51    0.15 
  -1  -2 -10    0.26    0.12 
  -1  -2 -10    0.83    0.12 
   1   2  10    0.52    0.15 
   1   2  10    0.59    0.14 
  -2  -2 -10   -0.02    0.06 
  -2  -2 -10    0.07    0.11 
  -2  -2 -10    0.03    0.10 
   2   2  10   -0.03    0.07 
   2   2  10    0.10    0.11 
  -3  -2 -10    0.73    0.13 
  -3  -2 -10    0.44    0.16 
  -3  -2 -10    0.62    0.18 
   3   2  10    0.76    0.18 
   3   2  10    0.48    0.12 
  -4  -2 -10    0.18    0.09 
  -4  -2 -10    0.16    0.13 
  -4  -2 -10    0.03    0.12 
   4   2  10    0.17    0.10 
   4   2  10    0.06    0.11 
  -5  -2 -10    0.23    0.15 
  -5  -2 -10    0.15    0.10 
  -5  -2 -10    0.20    0.14 
   5   2  10    0.25    0.15 
  -6  -2 -10    0.49    0.18 
  -6  -2 -10    0.25    0.16 
  -6  -2 -10    0.55    0.15 
  -7  -2 -10    0.49    0.21 
  -7  -2 -10    0.13    0.12 
  -7  -2 -10   -0.06    0.13 
  -5   3  10    0.24    0.10 
  -4   3  10    0.20    0.10 
  -3   3  10    0.26    0.11 
  -3   3  10    0.10    0.12 
  -2   3  10    6.05    0.41 
  -2   3  10    5.83    0.34 
   1  -3 -10    0.00    0.08 
  -1   3  10    0.09    0.11 
  -1   3  10   -0.11    0.07 
   0  -3 -10    6.18    0.39 
   0  -3 -10    5.94    0.29 
   0  -3 -10    6.21    0.39 
   0   3  10    5.81    0.40 
   0   3  10    6.39    0.35 
  -1  -3 -10    0.14    0.13 
  -1  -3 -10    0.24    0.12 
  -1  -3 -10    0.09    0.07 
   1   3  10    0.23    0.10 
   1   3  10    0.01    0.09 
  -2  -3 -10   -0.03    0.07 
  -2  -3 -10   -0.07    0.10 
  -2  -3 -10   -0.05    0.09 
   2   3  10    0.02    0.08 
   2   3  10   -0.03    0.10 
  -3  -3 -10    0.40    0.11 
  -3  -3 -10    0.19    0.13 
  -3  -3 -10    0.46    0.17 
   3   3  10    0.27    0.13 
   3   3  10    0.63    0.14 
  -4  -3 -10    0.43    0.15 
  -4  -3 -10    0.20    0.13 
  -4  -3 -10    0.19    0.11 
   4   3  10    0.48    0.13 
   4   3  10    0.17    0.13 
  -5  -3 -10   -0.02    0.11 
  -5  -3 -10    0.25    0.15 
  -5  -3 -10    0.18    0.10 
   5   3  10    0.12    0.12 
  -6  -3 -10    0.04    0.14 
  -6  -3 -10    0.18    0.14 
  -6  -3 -10    0.19    0.12 
  -7  -3 -10    1.39    0.21 
  -7  -3 -10    0.98    0.25 
  -7  -3 -10    0.88    0.23 
  -5   4  10    0.03    0.10 
  -4   4  10    0.04    0.09 
  -3   4  10    0.55    0.13 
  -3   4  10    0.76    0.13 
  -2   4  10   -0.16    0.07 
  -1   4  10    1.72    0.20 
  -1   4  10    1.32    0.23 
   0  -4 -10    1.77    0.26 
   0  -4 -10    1.96    0.27 
   0   4  10    1.44    0.24 
   0   4  10    1.39    0.19 
  -1  -4 -10    0.62    0.12 
  -1  -4 -10    0.78    0.18 
  -1  -4 -10    0.64    0.18 
   1   4  10    0.47    0.12 
   1   4  10    0.82    0.19 
  -2  -4 -10    0.59    0.12 
  -2  -4 -10    0.62    0.18 
  -2  -4 -10    0.80    0.19 
   2   4  10    0.60    0.14 
   2   4  10    0.27    0.15 
  -3  -4 -10   -0.05    0.11 
  -3  -4 -10   -0.07    0.07 
  -3  -4 -10   -0.04    0.10 
   3   4  10   -0.17    0.09 
   3   4  10   -0.02    0.07 
  -4  -4 -10   -0.02    0.10 
  -4  -4 -10   -0.08    0.11 
  -4  -4 -10   -0.28    0.07 
   4   4  10   -0.04    0.07 
   4   4  10    0.09    0.13 
  -5  -4 -10    0.44    0.12 
  -5  -4 -10    0.44    0.18 
  -5  -4 -10    0.55    0.19 
   5   4  10    0.63    0.18 
  -6  -4 -10    0.01    0.10 
  -6  -4 -10    0.08    0.15 
  -6  -4 -10    0.29    0.16 
  -7  -4 -10   -0.09    0.14 
  -7  -4 -10   -0.10    0.10 
  -7  -4 -10    0.03    0.15 
  -8  -4 -10   -0.01    0.17 
  -8  -4 -10   -0.04    0.11 
  -8  -4 -10    0.10    0.14 
  -4   5  10    0.07    0.11 
  -4   5  10    0.07    0.09 
  -3   5  10    0.15    0.09 
  -3   5  10    0.16    0.10 
  -2   5  10    0.22    0.11 
  -2   5  10    0.13    0.08 
  -1   5  10    0.17    0.10 
   0  -5 -10    5.19    0.38 
   0  -5 -10    5.08    0.45 
   0   5  10    4.50    0.31 
  -1  -5 -10   -0.04    0.10 
  -1  -5 -10   -0.02    0.06 
  -1  -5 -10    0.11    0.13 
   1   5  10   -0.14    0.08 
  -2  -5 -10    0.75    0.21 
  -2  -5 -10    0.80    0.15 
  -2  -5 -10    0.63    0.18 
   2   5  10    0.79    0.16 
  -3  -5 -10    5.20    0.32 
  -3  -5 -10    5.07    0.41 
  -3  -5 -10    5.54    0.42 
   3   5  10    5.52    0.33 
  -4  -5 -10    0.99    0.21 
  -4  -5 -10    0.96    0.17 
  -4  -5 -10    1.04    0.23 
   4   5  10    1.12    0.17 
  -5  -5 -10    0.29    0.12 
  -5  -5 -10   -0.16    0.12 
  -5  -5 -10    0.00    0.15 
  -6  -5 -10    0.39    0.17 
  -6  -5 -10    0.64    0.16 
  -6  -5 -10    0.37    0.19 
  -7  -5 -10   -0.03    0.10 
  -7  -5 -10   -0.03    0.14 
  -7  -5 -10   -0.21    0.12 
  -8  -5 -10    1.76    0.31 
  -8  -5 -10    1.51    0.25 
  -8  -5 -10    1.12    0.27 
  -4   6  10    0.04    0.09 
  -4   6  10    0.20    0.11 
  -3   6  10    0.02    0.10 
  -3   6  10    0.18    0.11 
  -2   6  10    0.01    0.09 
  -2   6  10   -0.01    0.08 
  -1   6  10    0.18    0.10 
   0  -6 -10    2.09    0.33 
   0   6  10    2.22    0.24 
  -1  -6 -10    1.26    0.24 
  -1  -6 -10    1.16    0.23 
   1   6  10    1.35    0.20 
  -2  -6 -10    0.32    0.17 
  -2  -6 -10    0.21    0.15 
  -2  -6 -10    0.28    0.10 
   2   6  10    0.14    0.11 
  -3  -6 -10    0.28    0.17 
  -3  -6 -10    0.25    0.16 
  -3  -6 -10    0.35    0.12 
   3   6  10    0.44    0.13 
  -4  -6 -10    1.56    0.27 
  -4  -6 -10    1.34    0.27 
  -4  -6 -10    1.20    0.19 
   4   6  10    1.15    0.18 
  -5  -6 -10    2.07    0.30 
  -5  -6 -10    2.81    0.35 
  -5  -6 -10    2.67    0.27 
  -6  -6 -10    0.08    0.11 
  -6  -6 -10    0.13    0.16 
  -6  -6 -10    0.01    0.13 
  -7  -6 -10    0.10    0.13 
  -7  -6 -10    0.07    0.17 
  -7  -6 -10    0.10    0.17 
  -8  -6 -10    1.01    0.26 
  -8  -6 -10    0.86    0.20 
  -3   7  10    0.06    0.10 
  -3   7  10    0.07    0.12 
  -2   7  10    0.03    0.10 
  -2   7  10    0.14    0.12 
  -1   7  10    0.78    0.17 
  -1   7  10    1.20    0.19 
   0   7  10    1.61    0.22 
  -1  -7 -10    1.07    0.25 
   1   7  10    0.76    0.17 
  -2  -7 -10    0.83    0.16 
  -2  -7 -10    1.23    0.25 
  -2  -7 -10    0.94    0.24 
   2   7  10    0.92    0.18 
  -3  -7 -10    0.13    0.16 
  -3  -7 -10   -0.06    0.13 
  -3  -7 -10    0.10    0.10 
   3   7  10    0.03    0.10 
  -4  -7 -10    7.06    0.52 
  -4  -7 -10    6.58    0.50 
  -4  -7 -10    6.87    0.40 
   4   7  10    7.12    0.43 
  -5  -7 -10    2.12    0.34 
  -5  -7 -10    2.47    0.27 
  -5  -7 -10    2.38    0.35 
  -6  -7 -10   -0.04    0.16 
  -6  -7 -10   -0.02    0.15 
  -6  -7 -10   -0.14    0.10 
  -7  -7 -10    1.16    0.29 
  -7  -7 -10    0.99    0.20 
  -7  -7 -10    1.07    0.26 
  -1   8  10    2.21    0.27 
  -1   8  10    2.25    0.26 
   0   8  10    0.20    0.13 
   1   8  10    0.62    0.16 
  -2  -8 -10    0.38    0.19 
   2   8  10    0.26    0.12 
  -3  -8 -10    3.27    0.42 
  -3  -8 -10    3.08    0.40 
   3   8  10    3.30    0.32 
  -4  -8 -10    0.47    0.23 
  -4  -8 -10    0.47    0.22 
  -5  -8 -10   -0.04    0.17 
  -5  -8 -10    0.22    0.18 
  -6  -8 -10    0.05    0.17 
  -6  -8 -10   -0.05    0.16 
  -7  -8 -10    0.18    0.20 
  -7  -8 -10   -0.04    0.19 
   1   9  10    5.52    0.38 
   2   9  10   -0.15    0.10 
  -3  -9 -10    0.82    0.26 
  -4  -9 -10    0.17    0.20 
  -4  -9 -10    0.30    0.21 
  -5  -9 -10    1.21    0.30 
  -5  -9 -10    0.29    0.22 
  -6  -9 -10    0.20    0.19 
  -4  -3  11    0.16    0.13 
  -3  -3  11    0.39    0.14 
  -3  -3  11    0.27    0.14 
  -2  -3  11    0.07    0.13 
  -2  -3  11    0.58    0.17 
  -1  -3  11    0.63    0.17 
  -1  -3  11    0.27    0.15 
   0  -3  11    0.23    0.13 
   0  -3  11    0.11    0.13 
   1  -3  11   -0.02    0.11 
   1  -3  11    0.04    0.15 
  -4  -2  11    0.16    0.12 
  -4  -2  11    0.12    0.12 
  -3  -2  11    0.96    0.20 
  -3  -2  11    1.07    0.18 
  -2  -2  11    0.56    0.15 
  -2  -2  11    0.77    0.20 
  -1  -2  11   -0.12    0.11 
  -1  -2  11    0.17    0.10 
   0  -2  11    0.06    0.12 
   0  -2  11    0.41    0.15 
   1  -2  11    2.34    0.30 
   1  -2  11    2.81    0.29 
   2  -2  11    2.74    0.29 
   2  -2  11    1.95    0.29 
   3  -2  11    0.50    0.19 
  -5  -1  11    0.04    0.09 
  -5  -1  11    0.00    0.11 
  -4  -1  11   -0.04    0.11 
  -4  -1  11    0.00    0.09 
  -3  -1  11    0.22    0.10 
  -3  -1  11    0.05    0.12 
  -2  -1  11    3.60    0.33 
  -2  -1  11    3.56    0.29 
  -1  -1  11    0.82    0.18 
  -1  -1  11    0.88    0.20 
   0  -1  11   13.21    0.56 
   0  -1  11   12.14    0.62 
  -1   1 -11    0.44    0.18 
   1  -1  11    0.52    0.16 
   1  -1  11    0.28    0.12 
  -2   1 -11    1.20    0.24 
   2  -1  11    1.88    0.25 
   2  -1  11    1.52    0.27 
  -3   1 -11    0.39    0.18 
   3  -1  11    0.21    0.14 
  -4   1 -11   -0.06    0.08 
  -5   0  11    0.08    0.11 
  -5   0  11    0.08    0.09 
  -4   0  11    0.87    0.17 
  -4   0  11    0.78    0.18 
  -3   0  11    0.04    0.10 
  -3   0  11    0.16    0.11 
  -2   0  11   -0.07    0.10 
  -2   0  11    0.05    0.10 
  -1   0  11    7.64    0.41 
  -1   0  11    8.12    0.49 
   0   0  11    0.71    0.15 
   0   0  11    0.74    0.19 
  -1   0 -11    0.12    0.13 
   1   0  11    0.06    0.11 
   1   0  11    0.08    0.09 
  -2   0 -11    1.78    0.29 
  -2   0 -11    1.38    0.24 
   2   0  11    1.49    0.26 
   2   0  11    1.32    0.20 
  -3   0 -11    0.44    0.13 
  -3   0 -11    0.37    0.18 
   3   0  11    0.58    0.14 
   3   0  11    0.50    0.18 
  -4   0 -11    0.05    0.15 
  -4   0 -11    0.05    0.09 
   4   0  11    0.05    0.13 
  -5   0 -11   -0.09    0.14 
  -5   0 -11   -0.03    0.10 
  -5   1  11    0.02    0.10 
  -5   1  11    0.02    0.11 
  -4   1  11    0.10    0.10 
  -4   1  11   -0.01    0.09 
  -3   1  11    0.40    0.13 
  -3   1  11    0.46    0.14 
  -2   1  11    0.50    0.15 
  -2   1  11    0.57    0.17 
  -1   1  11    0.73    0.19 
  -1   1  11    0.88    0.17 
   0  -1 -11    0.98    0.32 
   0   1  11    0.88    0.20 
   0   1  11    1.04    0.19 
  -1  -1 -11    4.84    0.39 
  -1  -1 -11    5.34    0.44 
   1   1  11    4.61    0.38 
   1   1  11    5.58    0.34 
  -2  -1 -11    0.09    0.14 
  -2  -1 -11    0.00    0.08 
  -2  -1 -11    0.22    0.15 
   2   1  11    0.14    0.10 
   2   1  11    0.30    0.15 
  -3  -1 -11    4.41    0.29 
  -3  -1 -11    4.30    0.41 
  -3  -1 -11    4.35    0.40 
   3   1  11    4.37    0.39 
   3   1  11    4.79    0.32 
  -4  -1 -11    2.47    0.33 
  -4  -1 -11    2.44    0.33 
  -4  -1 -11    2.84    0.25 
   4   1  11    2.58    0.33 
  -5  -1 -11    1.45    0.22 
  -5  -1 -11    1.24    0.28 
  -5  -1 -11    0.77    0.22 
  -5   2  11    1.79    0.27 
  -5   2  11    1.95    0.23 
  -4   2  11    0.43    0.16 
  -4   2  11    0.19    0.11 
  -3   2  11    0.27    0.11 
  -3   2  11    0.32    0.14 
  -2   2  11    0.02    0.09 
  -2   2  11   -0.07    0.09 
  -1   2  11   -0.04    0.09 
  -1   2  11   -0.06    0.09 
   0  -2 -11    1.53    0.28 
   0   2  11    1.28    0.24 
   0   2  11    1.21    0.20 
  -1  -2 -11    1.32    0.24 
  -1  -2 -11    1.59    0.26 
   1   2  11    2.07    0.29 
   1   2  11    1.28    0.19 
  -2  -2 -11    0.79    0.20 
  -2  -2 -11    0.83    0.21 
  -2  -2 -11    0.76    0.14 
   2   2  11    0.90    0.17 
   2   2  11    1.35    0.24 
  -3  -2 -11    2.34    0.31 
  -3  -2 -11    3.39    0.37 
  -3  -2 -11    3.22    0.25 
   3   2  11    3.30    0.28 
   3   2  11    3.52    0.39 
  -4  -2 -11   -0.10    0.09 
  -4  -2 -11   -0.11    0.12 
  -4  -2 -11   -0.03    0.13 
   4   2  11    0.08    0.13 
  -5  -2 -11   -0.09    0.09 
  -5  -2 -11   -0.17    0.12 
  -5  -2 -11   -0.06    0.14 
  -6  -2 -11    0.14    0.11 
  -6  -2 -11    0.23    0.17 
  -6  -2 -11    0.35    0.20 
  -4   3  11    0.42    0.13 
  -3   3  11    0.16    0.10 
  -3   3  11   -0.15    0.10 
  -2   3  11    0.25    0.12 
  -2   3  11    0.19    0.10 
  -1   3  11    0.47    0.14 
  -1   3  11    0.30    0.14 
   0  -3 -11    6.22    0.75 
   0   3  11    4.80    0.39 
   0   3  11    5.12    0.33 
  -1  -3 -11   -0.01    0.11 
  -1  -3 -11    0.12    0.14 
   1   3  11   -0.08    0.08 
   1   3  11   -0.06    0.08 
  -2  -3 -11    0.25    0.15 
  -2  -3 -11    0.21    0.10 
  -2  -3 -11    0.38    0.17 
   2   3  11    0.07    0.09 
   2   3  11    0.20    0.12 
  -3  -3 -11    1.27    0.26 
  -3  -3 -11    1.73    0.20 
  -3  -3 -11    1.19    0.24 
   3   3  11    1.21    0.23 
   3   3  11    1.28    0.19 
  -4  -3 -11    2.18    0.25 
  -4  -3 -11    1.99    0.32 
  -4  -3 -11    2.14    0.33 
   4   3  11    2.27    0.31 
   4   3  11    2.10    0.30 
  -5  -3 -11    4.57    0.43 
  -5  -3 -11    4.23    0.31 
  -5  -3 -11    5.25    0.45 
  -6  -3 -11    0.57    0.21 
  -6  -3 -11    0.32    0.12 
  -6  -3 -11    0.39    0.20 
  -4   4  11    0.55    0.15 
  -3   4  11    0.15    0.11 
  -2   4  11    1.42    0.21 
  -1   4  11    0.43    0.16 
  -1   4  11    0.16    0.10 
   0   4  11    0.72    0.16 
   0   4  11    0.67    0.20 
  -1  -4 -11    0.37    0.19 
  -1  -4 -11    0.35    0.17 
   1   4  11    0.12    0.13 
   1   4  11    0.31    0.13 
  -2  -4 -11    0.20    0.14 
  -2  -4 -11    0.23    0.16 
  -2  -4 -11    0.35    0.11 
   2   4  11    0.19    0.13 
   2   4  11    0.13    0.10 
  -3  -4 -11    1.81    0.30 
  -3  -4 -11    2.08    0.22 
  -3  -4 -11    1.91    0.31 
   3   4  11    1.45    0.26 
   3   4  11    1.88    0.23 
  -4  -4 -11    2.33    0.25 
  -4  -4 -11    3.13    0.38 
  -4  -4 -11    3.00    0.38 
   4   4  11    2.83    0.35 
   4   4  11    2.56    0.27 
  -5  -4 -11    3.33    0.29 
  -5  -4 -11    2.62    0.34 
  -5  -4 -11    3.73    0.43 
  -6  -4 -11    0.14    0.16 
  -6  -4 -11    0.11    0.18 
  -6  -4 -11    0.29    0.15 
  -3   5  11    0.17    0.11 
  -2   5  11    0.10    0.10 
  -1   5  11    0.51    0.15 
   0   5  11   -0.03    0.10 
  -1  -5 -11    0.38    0.17 
   1   5  11    0.66    0.16 
  -2  -5 -11    0.16    0.15 
  -2  -5 -11    0.16    0.14 
  -2  -5 -11    0.11    0.10 
   2   5  11    0.01    0.11 
  -3  -5 -11    0.00    0.14 
  -3  -5 -11   -0.08    0.07 
  -3  -5 -11   -0.10    0.12 
   3   5  11   -0.02    0.10 
  -4  -5 -11    1.58    0.28 
  -4  -5 -11    1.43    0.26 
  -4  -5 -11    1.57    0.20 
   4   5  11    1.63    0.31 
  -5  -5 -11    0.53    0.16 
  -5  -5 -11    0.36    0.20 
  -5  -5 -11    0.22    0.16 
  -6  -5 -11    0.08    0.12 
  -6  -5 -11   -0.15    0.14 
  -6  -5 -11    0.00    0.16 
  -7  -5 -11    0.44    0.15 
  -2   6  11   -0.01    0.10 
  -1   6  11    7.39    0.42 
   0   6  11    0.72    0.17 
   1   6  11    0.06    0.11 
  -2  -6 -11    0.21    0.16 
  -2  -6 -11   -0.01    0.15 
   2   6  11   -0.11    0.09 
  -3  -6 -11    4.31    0.43 
  -3  -6 -11    4.74    0.43 
  -3  -6 -11    4.49    0.32 
   3   6  11    4.29    0.32 
  -4  -6 -11    6.85    0.51 
  -4  -6 -11    6.82    0.39 
  -4  -6 -11    6.15    0.50 
  -5  -6 -11    2.16    0.34 
  -5  -6 -11    2.57    0.29 
  -5  -6 -11    2.81    0.41 
  -6  -6 -11    5.00    0.36 
  -6  -6 -11    4.33    0.46 
  -6  -6 -11    5.38    0.55 
  -1   7  11    0.23    0.14 
   0   7  11    3.79    0.32 
   1   7  11    0.23    0.13 
  -2  -7 -11    0.12    0.17 
   2   7  11    0.02    0.10 
  -3  -7 -11    0.46    0.19 
  -3  -7 -11    0.40    0.21 
   3   7  11    0.42    0.14 
  -4  -7 -11    0.45    0.14 
  -4  -7 -11    0.15    0.20 
  -4  -7 -11   -0.05    0.18 
  -5  -7 -11    1.27    0.27 
  -5  -7 -11    1.50    0.31 
  -5  -7 -11    1.84    0.25 
  -6  -7 -11    0.00    0.17 
  -6  -7 -11    0.12    0.13 
  -6  -7 -11    0.22    0.20 
   0   8  11    4.28    0.35 
   1   8  11    1.32    0.23 
   2   8  11    0.46    0.17 
  -3  -8 -11    1.72    0.32 
  -4  -8 -11    0.77    0.25 
  -4  -8 -11    0.81    0.21 
  -4  -8 -11    0.57    0.23 
  -5  -8 -11    3.41    0.46 
  -5  -8 -11    2.61    0.39 
  -5  -8 -11    3.19    0.33 
  -3  -1  12    3.32    0.38 
  -2  -1  12    0.39    0.14 
  -2  -1  12    0.60    0.19 
  -1  -1  12    1.65    0.24 
  -1  -1  12    1.66    0.29 
   0  -1  12    0.49    0.16 
   0  -1  12    0.30    0.18 
   1  -1  12    0.80    0.19 
   1  -1  12    0.86    0.22 
   2  -1  12    0.01    0.13 
  -3   0  12    0.69    0.18 
  -3   0  12    0.68    0.20 
  -2   0  12    0.10    0.12 
  -2   0  12    0.28    0.16 
  -1   0  12    0.21    0.12 
  -1   0  12    0.28    0.15 
   0   0  12    0.45    0.17 
   0   0  12    0.56    0.16 
   1   0  12    2.13    0.28 
   1   0  12    1.95    0.29 
   2   0  12    0.02    0.12 
   2   0  12   -0.06    0.10 
  -3   0 -12    0.07    0.18 
   3   0  12    0.19    0.16 
  -3   1  12    0.29    0.13 
  -3   1  12    0.37    0.15 
  -2   1  12    4.54    0.39 
  -2   1  12    4.36    0.34 
  -1   1  12    0.14    0.14 
  -1   1  12    0.25    0.15 
   0   1  12    2.36    0.26 
   0   1  12    1.77    0.28 
   1   1  12    2.24    0.27 
   1   1  12    2.66    0.35 
  -2  -1 -12    0.45    0.19 
   2   1  12    0.24    0.13 
   2   1  12    0.16    0.14 
  -3  -1 -12    0.09    0.17 
   3   1  12    0.16    0.14 
  -4  -1 -12    0.31    0.20 
  -4  -1 -12    0.43    0.21 
  -3   2  12    2.03    0.29 
  -3   2  12    2.13    0.25 
  -2   2  12    5.83    0.45 
  -2   2  12    6.03    0.38 
  -1   2  12    0.59    0.18 
  -1   2  12    0.65    0.20 
   0   2  12    0.97    0.22 
   0   2  12    0.94    0.18 
   1   2  12   -0.02    0.11 
   1   2  12   -0.08    0.09 
  -2  -2 -12    0.74    0.22 
   2   2  12    0.60    0.15 
   2   2  12    0.44    0.17 
  -3  -2 -12    0.94    0.24 
   3   2  12    0.67    0.20 
   3   2  12    0.68    0.17 
  -4  -2 -12    0.06    0.16 
  -4  -2 -12   -0.08    0.10 
  -4  -2 -12   -0.20    0.13 
   4   2  12    0.00    0.13 
  -3   3  12    1.45    0.29 
  -3   3  12    1.25    0.20 
  -2   3  12    0.53    0.16 
  -2   3  12    0.31    0.14 
  -1   3  12    0.42    0.16 
  -1   3  12    0.31    0.16 
   0   3  12    0.09    0.13 
   0   3  12    0.02    0.11 
   1   3  12    2.59    0.35 
   1   3  12    2.33    0.28 
  -2  -3 -12    0.16    0.17 
   2   3  12   -0.08    0.09 
   2   3  12    0.18    0.14 
  -3  -3 -12    0.58    0.21 
  -3  -3 -12    1.02    0.27 
   3   3  12    1.14    0.19 
   3   3  12    0.92    0.22 
  -4  -3 -12    0.66    0.15 
  -4  -3 -12    0.51    0.21 
  -4  -3 -12    1.19    0.28 
   4   3  12    0.56    0.20 
  -5  -3 -12    0.12    0.18 
  -5  -3 -12    0.68    0.17 
  -5  -3 -12    0.32    0.20 
  -2   4  12    4.17    0.33 
  -1   4  12    6.06    0.49 
  -1   4  12    6.11    0.40 
   0   4  12   -0.11    0.13 
   0   4  12    0.14    0.13 
   1   4  12    5.29    0.45 
   1   4  12    5.65    0.37 
  -2  -4 -12    4.79    0.49 
   2   4  12    4.47    0.34 
   2   4  12    4.82    0.49 
  -3  -4 -12    0.06    0.17 
  -3  -4 -12    0.11    0.17 
   3   4  12    0.06    0.16 
   3   4  12    0.36    0.14 
  -4  -4 -12    0.44    0.20 
  -4  -4 -12    0.31    0.20 
  -4  -4 -12    0.32    0.12 
   4   4  12    0.26    0.18 
  -5  -4 -12    0.27    0.22 
  -5  -4 -12   -0.04    0.11 
  -5  -4 -12   -0.09    0.16 
  -2   5  12    0.05    0.13 
  -1   5  12    0.02    0.11 
   0   5  12    0.26    0.14 
   1   5  12    0.16    0.12 
  -2  -5 -12    2.19    0.49 
   2   5  12    1.44    0.22 
  -3  -5 -12    0.95    0.26 
   3   5  12    0.43    0.15 
  -4  -5 -12    1.85    0.33 
  -4  -5 -12    0.76    0.24 
  -4  -5 -12    1.24    0.20 
  -5  -5 -12    0.07    0.20 
  -5  -5 -12   -0.07    0.18 
  -5  -5 -12   -0.01    0.12 
  -1   6  12    2.96    0.31 
   0   6  12    0.92    0.20 
   1   6  12    0.72    0.19 
   2   6  12    9.15    0.48 
  -3  -6 -12    2.39    0.37 
   3   6  12    1.49    0.24 
  -4  -6 -12    0.20    0.21 
  -4  -6 -12    0.12    0.19 
   1   7  12    0.13    0.13 
   2   7  12   -0.02    0.13 
  -3  -7 -12    0.46    0.29 
   0   2  13    0.40    0.18 
   1   2  13    1.11    0.25 
   0   3  13    1.04    0.21 
   0   3  13    1.01    0.25 
   1   3  13    2.97    0.40 
   1   3  13    3.31    0.34 
   2   3  13    3.78    0.44 
   1   4  13   -0.01    0.15 
   2   4  13    5.02    0.53 
   0   0   0    0.00    0.00 
;
_shelx_hkl_checksum              359
loop_
_space_group_symop_operation_xyz
'x, y, z'
'-x, -y, -z'
loop_
_atom_site_label
_atom_site_type_symbol
_atom_site_fract_x
_atom_site_fract_y
_atom_site_fract_z
_atom_site_U_iso_or_equiv
_atom_site_adp_type
_atom_site_occupancy
_atom_site_site_symmetry_order
_atom_site_calc_flag
_atom_site_refinement_flags_posn
_atom_site_refinement_flags_adp
C1 C 0.30935(16) 0.33568(15) 0.32368(13) 0.0332(3) Uani 1 1 d . .
C2 C 0.46789(15) 0.26665(15) 0.34242(12) 0.0309(3) Uani 1 1 d . .
C3 C 0.53860(15) 0.26787(14) 0.46768(12) 0.0307(3) Uani 1 1 d . .
C4 C 0.70344(16) 0.20956(16) 0.49159(14) 0.0368(3) Uani 1 1 d . .
H4 H 0.7714 0.1626 0.4281 0.044 Uiso 1 1 calc R U
C5 C 0.76754(17) 0.22025(16) 0.60759(14) 0.0404(3) Uani 1 1 d . .
C6 C 0.66470(19) 0.28836(17) 0.70358(14) 0.0434(4) Uani 1 1 d . .
H6 H 0.7065 0.2969 0.7814 0.052 Uiso 1 1 calc R U
C7 C 0.50306(18) 0.34277(17) 0.68438(14) 0.0397(3) Uani 1 1 d . .
H7 H 0.4358 0.3856 0.7501 0.048 Uiso 1 1 calc R U
C8 C 0.43882(16) 0.33418(15) 0.56649(13) 0.0327(3) Uani 1 1 d . .
C9 C 0.26761(17) 0.39417(16) 0.54749(13) 0.0371(3) Uani 1 1 d . .
C10 C 0.20016(16) 0.36697(17) 0.20218(14) 0.0393(3) Uani 1 1 d . .
C11 C 0.1112(2) 0.2503(2) 0.2335(2) 0.0649(5) Uani 1 1 d . .
H11A H 0.0523 0.2601 0.3160 0.097 Uiso 1 1 calc R U
H11B H 0.1861 0.1442 0.2447 0.097 Uiso 1 1 calc R U
H11C H 0.0391 0.2731 0.1597 0.097 Uiso 1 1 calc R U
C12 C 0.2839(2) 0.3646(2) 0.06627(15) 0.0543(4) Uani 1 1 d . .
H12A H 0.2061 0.4037 -0.0060 0.081 Uiso 1 1 calc R U
H12B H 0.3508 0.2578 0.0658 0.081 Uiso 1 1 calc R U
H12C H 0.3479 0.4307 0.0530 0.081 Uiso 1 1 calc R U
C13 C 0.57613(15) 0.18532(15) 0.24329(13) 0.0324(3) Uani 1 1 d . .
C14 C 0.58318(19) 0.03618(17) 0.23543(15) 0.0445(4) Uani 1 1 d . .
H14 H 0.5201 -0.0131 0.2923 0.053 Uiso 1 1 calc R U
C15 C 0.6829(2) -0.04030(19) 0.14411(17) 0.0557(4) Uani 1 1 d . .
H15 H 0.6863 -0.1403 0.1397 0.067 Uiso 1 1 calc R U
C16 C 0.7773(2) 0.0308(2) 0.05974(16) 0.0543(4) Uani 1 1 d . .
H16 H 0.8426 -0.0200 -0.0030 0.065 Uiso 1 1 calc R U
C17 C 0.77475(18) 0.1775(2) 0.06834(14) 0.0469(4) Uani 1 1 d . .
H17 H 0.8395 0.2253 0.0123 0.056 Uiso 1 1 calc R U
C18 C 0.67586(17) 0.25346(17) 0.16043(14) 0.0393(3) Uani 1 1 d . .
H18 H 0.6761 0.3516 0.1670 0.047 Uiso 1 1 calc R U
C19 C 0.94498(19) 0.1635(2) 0.62883(18) 0.0584(5) Uani 1 1 d . .
H19A H 0.9966 0.0897 0.5736 0.088 Uiso 1 1 calc R U
H19B H 0.9707 0.1121 0.7231 0.088 Uiso 1 1 calc R U
H19C H 0.9809 0.2524 0.6034 0.088 Uiso 1 1 calc R U
O1 O 0.21242(11) 0.39430(12) 0.42572(9) 0.0405(3) Uani 1 1 d . .
O2 O 0.17034(13) 0.44405(15) 0.62934(11) 0.0569(3) Uani 1 1 d . .
O3 O 0.08959(13) 0.52611(13) 0.18330(11) 0.0486(3) Uani 1 1 d . .
H1O H 0.026(3) 0.532(2) 0.254(2) 0.076(6) Uiso 1 1 d . .
loop_
_atom_site_aniso_label
_atom_site_aniso_U_11
_atom_site_aniso_U_22
_atom_site_aniso_U_33
_atom_site_aniso_U_23
_atom_site_aniso_U_13
_atom_site_aniso_U_12
C1 0.0361(7) 0.0343(7) 0.0321(7) -0.0113(5) 0.0048(5) -0.0144(6)
C2 0.0362(7) 0.0289(6) 0.0295(7) -0.0078(5) 0.0015(5) -0.0134(5)
C3 0.0375(7) 0.0262(6) 0.0296(7) -0.0061(5) 0.0009(5) -0.0130(5)
C4 0.0368(7) 0.0350(7) 0.0363(7) -0.0098(6) -0.0003(6) -0.0088(6)
C5 0.0441(8) 0.0358(7) 0.0397(8) -0.0038(6) -0.0085(6) -0.0138(6)
C6 0.0567(9) 0.0426(8) 0.0335(7) -0.0080(6) -0.0101(7) -0.0190(7)
C7 0.0525(9) 0.0388(8) 0.0304(7) -0.0111(6) 0.0032(6) -0.0176(7)
C8 0.0405(7) 0.0290(7) 0.0293(7) -0.0065(5) 0.0027(5) -0.0138(6)
C9 0.0410(8) 0.0397(8) 0.0325(7) -0.0123(6) 0.0053(6) -0.0146(6)
C10 0.0364(7) 0.0443(8) 0.0387(8) -0.0134(6) -0.0029(6) -0.0128(6)
C11 0.0670(11) 0.0733(12) 0.0710(12) -0.0202(10) -0.0101(9) -0.0399(10)
C12 0.0501(9) 0.0708(11) 0.0342(8) -0.0165(7) -0.0060(7) -0.0075(8)
C13 0.0336(7) 0.0343(7) 0.0288(7) -0.0091(5) -0.0027(5) -0.0094(6)
C14 0.0548(9) 0.0373(8) 0.0424(8) -0.0124(6) 0.0054(7) -0.0162(7)
C15 0.0718(11) 0.0426(9) 0.0545(10) -0.0244(7) 0.0043(8) -0.0139(8)
C16 0.0498(9) 0.0662(11) 0.0435(9) -0.0286(8) 0.0049(7) -0.0062(8)
C17 0.0394(8) 0.0688(11) 0.0342(8) -0.0158(7) 0.0049(6) -0.0192(7)
C18 0.0415(8) 0.0450(8) 0.0359(7) -0.0127(6) 0.0024(6) -0.0187(6)
C19 0.0472(9) 0.0657(11) 0.0599(10) -0.0160(8) -0.0160(8) -0.0127(8)
O1 0.0324(5) 0.0540(6) 0.0366(5) -0.0182(4) 0.0040(4) -0.0127(4)
O2 0.0445(6) 0.0814(8) 0.0457(6) -0.0307(6) 0.0133(5) -0.0151(6)
O3 0.0413(6) 0.0527(7) 0.0433(6) -0.0110(5) -0.0019(5) -0.0059(5)
loop_
_atom_type_symbol
_atom_type_description
_atom_type_scat_dispersion_real
_atom_type_scat_dispersion_imag
_atom_type_scat_source
C C 0.0033 0.0016 'International Tables Vol C Tables 4.2.6.8 and 6.1.1.4'
H H 0.0000 0.0000 'International Tables Vol C Tables 4.2.6.8 and 6.1.1.4'
O O 0.0106 0.0060 'International Tables Vol C Tables 4.2.6.8 and 6.1.1.4'
loop_
_geom_angle_atom_site_label_1
_geom_angle_atom_site_label_2
_geom_angle_atom_site_label_3
_geom_angle
C2 C1 O1 120.89(12)
C2 C1 C10 132.08(12)
O1 C1 C10 107.03(11)
C1 C2 C3 118.69(11)
C1 C2 C13 123.37(12)
C3 C2 C13 117.93(11)
C8 C3 C4 118.06(12)
C8 C3 C2 119.16(12)
C4 C3 C2 122.75(12)
C5 C4 C3 121.54(13)
C5 C4 H4 119.2
C3 C4 H4 119.2
C4 C5 C6 118.92(13)
C4 C5 C19 120.88(14)
C6 C5 C19 120.18(13)
C7 C6 C5 120.74(13)
C7 C6 H6 119.6
C5 C6 H6 119.6
C6 C7 C8 120.24(13)
C6 C7 H7 119.9
C8 C7 H7 119.9
C7 C8 C3 120.46(12)
C7 C8 C9 119.33(12)
C3 C8 C9 120.21(12)
O2 C9 O1 117.51(12)
O2 C9 C8 125.88(13)
O1 C9 C8 116.60(11)
O3 C10 C12 103.95(12)
O3 C10 C11 110.06(12)
C12 C10 C11 110.98(14)
O3 C10 C1 107.59(11)
C12 C10 C1 114.64(12)
C11 C10 C1 109.40(12)
C10 C11 H11A 109.5
C10 C11 H11B 109.5
H11A C11 H11B 109.5
C10 C11 H11C 109.5
H11A C11 H11C 109.5
H11B C11 H11C 109.5
C10 C12 H12A 109.5
C10 C12 H12B 109.5
H12A C12 H12B 109.5
C10 C12 H12C 109.5
H12A C12 H12C 109.5
H12B C12 H12C 109.5
C14 C13 C18 118.27(13)
C14 C13 C2 120.21(12)
C18 C13 C2 121.48(12)
C15 C14 C13 120.74(14)
C15 C14 H14 119.6
C13 C14 H14 119.6
C16 C15 C14 120.28(15)
C16 C15 H15 119.9
C14 C15 H15 119.9
C15 C16 C17 119.83(14)
C15 C16 H16 120.1
C17 C16 H16 120.1
C16 C17 C18 119.88(14)
C16 C17 H17 120.1
C18 C17 H17 120.1
C17 C18 C13 120.94(14)
C17 C18 H18 119.5
C13 C18 H18 119.5
C5 C19 H19A 109.5
C5 C19 H19B 109.5
H19A C19 H19B 109.5
C5 C19 H19C 109.5
H19A C19 H19C 109.5
H19B C19 H19C 109.5
C9 O1 C1 124.09(10)
C10 O3 H1O 108.6(13)
loop_
_geom_bond_atom_site_label_1
_geom_bond_atom_site_label_2
_geom_bond_distance
C1 C2 1.3444(19)
C1 O1 1.3877(15)
C1 C10 1.5375(19)
C2 C3 1.4649(18)
C2 C13 1.4923(17)
C3 C8 1.3995(18)
C3 C4 1.4015(19)
C4 C5 1.386(2)
C4 H4 0.9300
C5 C6 1.396(2)
C5 C19 1.505(2)
C6 C7 1.369(2)
C6 H6 0.9300
C7 C8 1.3957(19)
C7 H7 0.9300
C8 C9 1.448(2)
C9 O2 1.2068(16)
C9 O1 1.3627(16)
C10 O3 1.4322(17)
C10 C12 1.518(2)
C10 C11 1.521(2)
C11 H11A 0.9600
C11 H11B 0.9600
C11 H11C 0.9600
C12 H12A 0.9600
C12 H12B 0.9600
C12 H12C 0.9600
C13 C14 1.3843(19)
C13 C18 1.3889(19)
C14 C15 1.381(2)
C14 H14 0.9300
C15 C16 1.375(2)
C15 H15 0.9300
C16 C17 1.377(2)
C16 H16 0.9300
C17 C18 1.382(2)
C17 H17 0.9300
C18 H18 0.9300
C19 H19A 0.9600
C19 H19B 0.9600
C19 H19C 0.9600
O3 H1O 0.88(2)
loop_
_geom_torsion_atom_site_label_1
_geom_torsion_atom_site_label_2
_geom_torsion_atom_site_label_3
_geom_torsion_atom_site_label_4
_geom_torsion
O1 C1 C2 C3 -5.78(19)
C10 C1 C2 C3 174.45(13)
O1 C1 C2 C13 172.87(11)
C10 C1 C2 C13 -6.9(2)
C1 C2 C3 C8 2.84(18)
C13 C2 C3 C8 -175.88(11)
C1 C2 C3 C4 -175.12(12)
C13 C2 C3 C4 6.15(18)
C8 C3 C4 C5 -1.66(19)
C2 C3 C4 C5 176.33(12)
C3 C4 C5 C6 1.1(2)
C3 C4 C5 C19 -177.34(14)
C4 C5 C6 C7 0.5(2)
C19 C5 C6 C7 178.96(14)
C5 C6 C7 C8 -1.5(2)
C6 C7 C8 C3 0.9(2)
C6 C7 C8 C9 -179.26(12)
C4 C3 C8 C7 0.62(18)
C2 C3 C8 C7 -177.44(11)
C4 C3 C8 C9 -179.18(12)
C2 C3 C8 C9 2.76(18)
C7 C8 C9 O2 -4.9(2)
C3 C8 C9 O2 174.88(13)
C7 C8 C9 O1 174.87(11)
C3 C8 C9 O1 -5.33(18)
C2 C1 C10 O3 -135.38(15)
O1 C1 C10 O3 44.83(14)
C2 C1 C10 C12 -20.3(2)
O1 C1 C10 C12 159.89(12)
C2 C1 C10 C11 105.07(18)
O1 C1 C10 C11 -74.72(14)
C1 C2 C13 C14 -75.89(17)
C3 C2 C13 C14 102.78(15)
C1 C2 C13 C18 106.39(16)
C3 C2 C13 C18 -74.94(16)
C18 C13 C14 C15 -2.2(2)
C2 C13 C14 C15 -179.99(14)
C13 C14 C15 C16 0.2(2)
C14 C15 C16 C17 1.4(3)
C15 C16 C17 C18 -0.9(2)
C16 C17 C18 C13 -1.2(2)
C14 C13 C18 C17 2.7(2)
C2 C13 C18 C17 -179.54(12)
O2 C9 O1 C1 -177.66(12)
C8 C9 O1 C1 2.54(19)
C2 C1 O1 C9 3.15(19)
C10 C1 O1 C9 -177.03(11)
