#------------------------------------------------------------------------------
#$Date: 2019-11-12 04:35:16 +0200 (Tue, 12 Nov 2019) $
#$Revision: 227574 $
#$URL: file:///home/coder/svn-repositories/cod/cif/4/03/35/4033520.cif $
#------------------------------------------------------------------------------
#
# This file is available in the Crystallography Open Database (COD),
# http://www.crystallography.net/
#
# All data on this site have been placed in the public domain by the
# contributors.
#
data_4033520
loop_
_publ_author_name
'Shen, Bin'
'Geiger, Thomas'
'Einholz, Ralf'
'Reicherter, Florian'
'Schundelmeier, Simon'
'Maichle-M\"ossmer, C\"acilia'
'Speiser, Bernd'
'Bettinger, Holger F.'
_publ_section_title
;
 Bridging the Gap between Pentacene and Perfluoropentacene: Synthesis and
 Characterization of 2,3,9,10-Tetrafluoropentacene in the Neutral,
 Cationic, and Dicationic States.
;
_journal_issue                   6
_journal_name_full               'The Journal of organic chemistry'
_journal_page_first              3149
_journal_page_last               3158
_journal_paper_doi               10.1021/acs.joc.7b03241
_journal_volume                  83
_journal_year                    2018
_chemical_formula_sum            'C22 H10 F4'
_chemical_formula_weight         350.30
_space_group_crystal_system      triclinic
_space_group_IT_number           2
_space_group_name_Hall           '-P 1'
_space_group_name_H-M_alt        'P -1'
_symmetry_space_group_name_Hall  '-P 1'
_symmetry_space_group_name_H-M   'P -1'
_atom_sites_solution_hydrogens   geom
_audit_creation_method           SHELXL-2013
_cell_angle_alpha                100.606(4)
_cell_angle_beta                 94.579(4)
_cell_angle_gamma                98.384(4)
_cell_formula_units_Z            2
_cell_length_a                   6.7171(8)
_cell_length_b                   7.6452(9)
_cell_length_c                   14.3038(18)
_cell_measurement_reflns_used    747
_cell_measurement_temperature    100(2)
_cell_measurement_theta_max      30.59
_cell_measurement_theta_min      2.741
_cell_volume                     709.98(15)
_computing_cell_refinement       'APEX2 v2014.1-1 (Bruker AXS)'
_computing_data_collection       'COSMO v1.61'
_computing_data_reduction        'SAINT V8.27B (Bruker AXS Inc., 2012)'
_computing_structure_refinement  'SHELXL-2013 (Sheldrick, 2013)'
_computing_structure_solution    'SHELXS-97 (Sheldrick 2008)'
_diffrn_ambient_temperature      100(2)
_diffrn_measured_fraction_theta_full 0.999
_diffrn_measured_fraction_theta_max 0.999
_diffrn_measurement_device_type  'Bruker APEX DUO'
_diffrn_measurement_method       'phi and omega scans'
_diffrn_radiation_type           MoK\a
_diffrn_radiation_wavelength     0.71073
_diffrn_reflns_av_R_equivalents  0.0347
_diffrn_reflns_av_unetI/netI     0.0256
_diffrn_reflns_Laue_measured_fraction_full 0.999
_diffrn_reflns_Laue_measured_fraction_max 0.999
_diffrn_reflns_limit_h_max       8
_diffrn_reflns_limit_h_min       -8
_diffrn_reflns_limit_k_max       9
_diffrn_reflns_limit_k_min       -9
_diffrn_reflns_limit_l_max       18
_diffrn_reflns_limit_l_min       -18
_diffrn_reflns_number            18671
_diffrn_reflns_point_group_measured_fraction_full 0.999
_diffrn_reflns_point_group_measured_fraction_max 0.999
_diffrn_reflns_theta_full        25.242
_diffrn_reflns_theta_max         27.101
_diffrn_reflns_theta_min         1.457
_diffrn_source                   'ImuS-focus sealed tube'
_exptl_absorpt_coefficient_mu    0.131
_exptl_absorpt_correction_T_max  0.9930
_exptl_absorpt_correction_T_min  0.9720
_exptl_absorpt_correction_type   numerical
_exptl_absorpt_process_details   sadabs
_exptl_crystal_colour            violet
_exptl_crystal_density_diffrn    1.639
_exptl_crystal_description       needle
_exptl_crystal_F_000             356
_exptl_crystal_size_max          0.218
_exptl_crystal_size_mid          0.158
_exptl_crystal_size_min          0.050
_refine_diff_density_max         0.980
_refine_diff_density_min         -0.246
_refine_diff_density_rms         0.061
_refine_ls_extinction_method     none
_refine_ls_goodness_of_fit_ref   1.100
_refine_ls_hydrogen_treatment    constr
_refine_ls_matrix_type           full
_refine_ls_number_parameters     235
_refine_ls_number_reflns         3132
_refine_ls_number_restraints     0
_refine_ls_restrained_S_all      1.100
_refine_ls_R_factor_all          0.0748
_refine_ls_R_factor_gt           0.0499
_refine_ls_shift/su_max          0.000
_refine_ls_shift/su_mean         0.000
_refine_ls_structure_factor_coef Fsqd
_refine_ls_weighting_details
'w=1/[\s^2^(Fo^2^)+(0.0749P)^2^+0.3266P] where P=(Fo^2^+2Fc^2^)/3'
_refine_ls_weighting_scheme      calc
_refine_ls_wR_factor_gt          0.1388
_refine_ls_wR_factor_ref         0.1578
_reflns_Friedel_coverage         0.000
_reflns_number_gt                2162
_reflns_number_total             3132
_reflns_threshold_expression     'I > 2\s(I)'
_cod_data_source_file            jo7b03241_si_002.cif
_cod_data_source_block           mo_fr4f_0m
_cod_depositor_comments          'Adding full bibliography for 4033520.cif.'
_cod_database_code               4033520
_shelx_space_group_comment
;
The symmetry employed for this shelxl refinement is uniquely defined
by the following loop, which should always be used as a source of
symmetry information in preference to the above space-group names.
They are only intended as comments.
;
_shelx_estimated_absorpt_t_min   0.972
_shelx_estimated_absorpt_t_max   0.993
_shelxl_version_number           2013-3
_shelx_res_file
;
TITL mo_fr4f_0m in P-1
CELL 0.71073 6.7171 7.6452 14.3038 100.606 94.579 98.384
ZERR 2.00 0.0008 0.0009 0.0018 0.004 0.004 0.004
LATT 1
SFAC C H F
UNIT 44 20 8
LIST 4 ! automatically inserted. Change 6 to 4 for CHECKCIF!!
TEMP -173.140
SIZE 0.050 0.158 0.218
ACTA
L.S. 6
FMAP 2
PLAN -30
HTAB
SHEL 0.78 9999
OMIT  1   1   5
OMIT 0 0 2
BOND $H
CONF
WGHT    0.074900    0.326600
FVAR       0.18684
F1    3    1.037940    0.061343    0.615528    11.00000    0.02531    0.03332 =
         0.01918    0.00411    0.01070    0.01501
F2    3    0.711868    0.107611    0.513223    11.00000    0.03248    0.03425 =
         0.01702    0.00270    0.00618    0.01231
F3    3    0.214496   -0.493377   -0.465932    11.00000    0.02889    0.03133 =
         0.01794   -0.00713    0.00331    0.00885
F4    3    0.572403   -0.290178   -0.404277    11.00000    0.02150    0.02959 =
         0.02027    0.00069    0.00938    0.00889
C1    1    0.900550    0.140977    0.663698    11.00000    0.02187    0.01683 =
         0.02102    0.00446    0.00832    0.00511
C2    1    0.927635    0.193594    0.759476    11.00000    0.01747    0.01599 =
         0.02039    0.00748    0.00111    0.00143
AFIX  43
H2    2    1.045300    0.173844    0.794846    11.00000   -1.20000
AFIX   0
C3    1    0.778265    0.279671    0.808106    11.00000    0.01490    0.01140 =
         0.01784    0.00480    0.00109   -0.00155
C4    1    0.799341    0.333689    0.908194    11.00000    0.00937    0.01176 =
         0.03118    0.01251    0.00124    0.00012
AFIX  43
H4    2    0.915239    0.313822    0.944839    11.00000   -1.20000
AFIX   0
C5    1    0.651835    0.416300    0.954486    11.00000    0.01577    0.01024 =
         0.01759    0.00433    0.00107   -0.00015
C6    1    0.670431    0.468274    1.054383    11.00000    0.01441    0.01313 =
         0.01809    0.00436    0.00009    0.00148
AFIX  43
H6    2    0.785350    0.446297    1.090888    11.00000   -1.20000
AFIX   0
C7    1    0.475703    0.448248    0.898051    11.00000    0.01595    0.00912 =
         0.02241    0.00443    0.00585    0.00045
C8    1    0.456909    0.393581    0.798201    11.00000    0.01692    0.01337 =
         0.01983    0.00803   -0.00479   -0.00139
AFIX  43
H8    2    0.342133    0.414751    0.761267    11.00000   -1.20000
AFIX   0
C9    1    0.602106    0.309085    0.751797    11.00000    0.01489    0.01249 =
         0.02044    0.00641    0.00157   -0.00017
C10   1    0.581415    0.249201    0.649791    11.00000    0.01860    0.01711 =
         0.01776    0.00633   -0.00102    0.00156
AFIX  43
H10   2    0.466423    0.266977    0.611708    11.00000   -1.20000
AFIX   0
C11   1    0.725655    0.167838    0.608464    11.00000    0.02551    0.01979 =
         0.01230    0.00411    0.00345    0.00091
C12   1    0.230111   -0.379354   -0.380566    11.00000    0.02393    0.01764 =
         0.01410    0.00002    0.00038    0.00742
C13   1    0.072651   -0.371417   -0.328743    11.00000    0.01935    0.01398 =
         0.01771    0.00213   -0.00130    0.00288
AFIX  43
H13   2   -0.054453   -0.444880   -0.352307    11.00000   -1.20000
AFIX   0
C14   1    0.097834   -0.250862   -0.237285    11.00000    0.01689    0.01111 =
         0.01509    0.00414    0.00011    0.00506
C15   1   -0.058473   -0.240202   -0.179867    11.00000    0.01483    0.01224 =
         0.01585    0.00278   -0.00246    0.00197
AFIX  43
H15   2   -0.185947   -0.314457   -0.201504    11.00000   -1.20000
AFIX   0
C16   1   -0.032834   -0.121754   -0.090076    11.00000    0.01508    0.01146 =
         0.01589    0.00571    0.00114    0.00305
C17   1   -0.189447   -0.109985   -0.031616    11.00000    0.01280    0.01192 =
         0.01671    0.00342    0.00008    0.00155
AFIX  43
H17   2   -0.317128   -0.184237   -0.052711    11.00000   -1.20000
AFIX   0
C18   1    0.162841   -0.008585   -0.057318    11.00000    0.01664    0.01098 =
         0.01520    0.00463    0.00002    0.00346
C19   1    0.320798   -0.021520   -0.116146    11.00000    0.01112    0.01200 =
         0.02041    0.00722   -0.00071    0.00184
AFIX  43
H19   2    0.448956    0.051884   -0.095012    11.00000   -1.20000
AFIX   0
C20   1    0.293549   -0.138813   -0.204102    11.00000    0.01646    0.01288 =
         0.01559    0.00620    0.00205    0.00510
C21   1    0.454845   -0.153921   -0.263252    11.00000    0.01606    0.01442 =
         0.01731    0.00558    0.00139    0.00286
AFIX  43
H21   2    0.583935   -0.081632   -0.242984    11.00000   -1.20000
AFIX   0
C22   1    0.422679   -0.271108   -0.347765    11.00000    0.01878    0.02042 =
         0.01796    0.00647    0.00752    0.00844
HKLF 4 1 1 0 0 0 1 0 0 0 1

REM  mo_fr4f_0m in P-1
REM R1 =  0.0499 for    2162 Fo > 4sig(Fo)  and  0.0748 for all    3132 data
REM    235 parameters refined using      0 restraints

END

WGHT      0.0746      0.3290

REM No hydrogen bonds found for HTAB generation

REM Highest difference peak  0.980,  deepest hole -0.246,  1-sigma level  0.061
Q1    1   0.6090  0.5487  1.1568  11.00000  0.05    0.98
Q2    1   0.8018  0.3950  0.9596  11.00000  0.05    0.77
Q3    1  -0.1232 -0.2045 -0.1336  11.00000  0.05    0.47
Q4    1  -0.3097 -0.0158  0.0640  11.00000  0.05    0.42
Q5    1   0.4005  0.4608  0.9231  11.00000  0.05    0.32
Q6    1   0.8596  0.2534  0.7788  11.00000  0.05    0.32
Q7    1   0.5382  0.3137  0.7807  11.00000  0.05    0.29
Q8    1   0.2070 -0.2077 -0.2205  11.00000  0.05    0.26
Q9    1   0.6231  0.1557  0.6283  11.00000  0.05    0.26
Q10   1   0.3488 -0.3636 -0.3570  11.00000  0.05    0.25
Q11   1   0.0564 -0.0394 -0.0823  11.00000  0.05    0.25
Q12   1   0.6714  0.2626  0.7776  11.00000  0.05    0.25
Q13   1   0.4012 -0.1981 -0.3211  11.00000  0.05    0.25
Q14   1   0.0376 -0.2387 -0.2041  11.00000  0.05    0.24
Q15   1   0.1529 -0.3410 -0.3586  11.00000  0.05    0.23
Q16   1   0.0965 -0.3219 -0.2656  11.00000  0.05    0.23
Q17   1  -0.1081 -0.1218 -0.0624  11.00000  0.05    0.22
Q18   1   0.1705  0.0541 -0.0182  11.00000  0.05    0.21
Q19   1   0.8662  0.1298  0.7186  11.00000  0.05    0.21
Q20   1   0.2950 -0.1105 -0.1453  11.00000  0.05    0.21
Q21   1   0.3482 -0.1115 -0.2399  11.00000  0.05    0.20
Q22   1   0.5000 -0.5000 -0.5000  10.50000  0.05    0.20
Q23   1   0.5669  0.2524  0.7010  11.00000  0.05    0.20
Q24   1   0.0920 -0.0828 -0.0606  11.00000  0.05    0.19
Q25   1   0.4314 -0.2354 -0.2987  11.00000  0.05    0.19
Q26   1   0.1648 -0.4016 -0.3451  11.00000  0.05    0.19
Q27   1   0.2773 -0.0674 -0.1780  11.00000  0.05    0.19
Q28   1   0.9360  0.2165  0.7110  11.00000  0.05    0.18
Q29   1   0.8458  0.1959  0.6388  11.00000  0.05    0.18
Q30   1   0.3777 -0.1713 -0.2235  11.00000  0.05    0.18
;
_shelx_res_checksum              59062
_shelx_hkl_file
;
   1   0   0    0.96    0.07
   1   0   0    0.90    0.06
   1   0   0    0.96    0.04
   1   0   0    0.84    0.04
  -2   0   0    0.07    0.07
   2   0   0    0.16    0.05
   2   0   0    0.11    0.05
   2   0   0    0.09    0.03
   2   0   0    0.05    0.03
  -3   0   0    0.57    0.14
   3   0   0    0.31    0.08
   3   0   0    0.64    0.10
   3   0   0    0.30    0.06
   4   0   0    5.11    0.18
   4   0   0    4.48    0.24
   4   0   0    5.42    0.28
   5   0   0    0.69    0.14
   5   0   0    0.49    0.12
   6   0   0    4.72    0.35
   6   0   0    5.84    0.36
   7   0   0    0.66    0.20
  -8   0   0   13.30    0.47
   8   0   0   14.00    0.69
  -9   0   0    0.51    0.15
   9   0   0    0.04    0.17
   9  -1   0   -0.13    0.15
  -9   1   0   -0.06    0.15
   8  -1   0    0.07    0.15
  -8   1   0   -0.03    0.13
   7  -1   0   25.27    0.91
   6  -1   0    2.37    0.27
   6  -1   0    2.89    0.21
   6  -1   0    3.02    0.19
  -6   1   0    3.02    0.19
   5  -1   0    7.07    0.32
   5  -1   0    6.56    0.29
   5  -1   0    7.30    0.37
  -5   1   0    6.12    0.23
   4  -1   0    0.93    0.15
   4  -1   0    0.81    0.13
   4  -1   0    0.48    0.10
   4  -1   0    0.71    0.12
  -4   1   0    0.72    0.07
   3  -1   0   31.26    0.79
   3  -1   0   33.48    0.80
  -3   1   0   33.11    0.90
  -3   1   0   31.24    0.65
   2  -1   0    2.72    0.18
   2  -1   0    2.75    0.17
   2  -1   0    2.59    0.16
   2  -1   0    3.10    0.29
   2  -1   0    3.04    0.18
  -2   1   0    2.68    0.13
  -2   1   0    2.92    0.19
   1  -1   0   25.74    0.59
   1  -1   0   23.65    0.62
   1  -1   0   26.99    0.63
   1  -1   0   26.20    0.56
   1  -1   0   25.58    0.66
   1  -1   0   26.37    0.65
  -1   1   0   24.19    0.62
  -1   1   0   25.99    0.52
  -1   1   0   25.80    0.59
  -1   1   0   25.65    0.58
  -1   1   0   25.55    0.51
  -1   1   0   26.90    0.49
  -1   1   0   25.69    0.50
   0  -1   0    1.35    0.06
   0  -1   0    1.48    0.09
   0  -1   0    1.42    0.07
   0  -1   0    1.53    0.08
   0  -1   0    1.07    0.10
   0  -1   0    1.44    0.08
   0  -1   0    1.41    0.07
   0  -1   0    1.33    0.07
   0  -1   0    1.30    0.07
   0  -1   0    1.56    0.10
   0  -1   0    1.37    0.07
   0   1   0    1.43    0.11
   0   1   0    1.53    0.11
   0   1   0    1.45    0.07
   0   1   0    1.34    0.07
   0   1   0    1.39    0.07
   0   1   0    1.40    0.06
   0   1   0    1.42    0.09
   0   1   0    1.35    0.07
   0   1   0    1.33    0.06
  -1  -1   0  389.50    6.68
  -1  -1   0  373.68    6.91
  -1  -1   0  390.55    6.76
   1   1   0  380.82    6.68
   1   1   0  389.57    6.92
   1   1   0  384.51    6.92
   2   1   0    0.09    0.05
   2   1   0    0.13    0.04
   2   1   0    0.19    0.05
   3   1   0    5.15    0.25
   3   1   0    5.30    0.24
   3   1   0    6.09    0.20
   3   1   0    5.66    0.20
   3   1   0    5.76    0.20
   4   1   0    2.19    0.20
   4   1   0    2.01    0.21
   4   1   0    2.23    0.11
   4   1   0    1.91    0.11
   5   1   0    2.43    0.24
   5   1   0    2.97    0.29
   6   1   0    0.04    0.09
   6   1   0    0.06    0.10
   7   1   0    0.13    0.12
  -8  -1   0    3.24    0.37
  -8  -1   0    2.87    0.19
   8   1   0    2.44    0.34
  -9  -1   0   11.09    0.42
  -9  -1   0   11.37    0.66
   9   1   0   11.35    0.69
   9  -2   0   -0.08    0.16
  -9   2   0   -0.20    0.16
   8  -2   0    0.10    0.15
   8  -2   0    0.11    0.09
  -8   2   0    0.10    0.16
   7  -2   0    0.16    0.12
   7  -2   0    0.25    0.11
  -7   2   0    0.23    0.13
   6  -2   0  136.59    2.84
   6  -2   0  132.38    2.87
  -6   2   0  136.28    2.79
   5  -2   0    3.60    0.28
   5  -2   0    3.32    0.31
   5  -2   0    4.56    0.33
  -5   2   0    3.38    0.25
   4  -2   0    3.22    0.31
   4  -2   0    3.12    0.30
   4  -2   0    2.91    0.32
   4  -2   0    3.27    0.24
  -4   2   0    3.50    0.23
   3  -2   0    3.02    0.29
   3  -2   0    2.43    0.32
   3  -2   0    2.90    0.25
   3  -2   0    2.94    0.28
   3  -2   0    2.44    0.26
  -3   2   0    2.75    0.27
  -3   2   0    2.81    0.20
   2  -2   0    0.20    0.08
   2  -2   0    0.25    0.09
   2  -2   0    0.11    0.07
   2  -2   0    0.21    0.11
   2  -2   0    0.19    0.09
  -2   2   0    0.09    0.08
  -2   2   0    0.15    0.07
  -2   2   0    0.10    0.07
  -2   2   0    0.16    0.05
  -2   2   0    0.27    0.06
  -2   2   0    0.11    0.07
  -2   2   0    0.27    0.06
   1  -2   0    5.14    0.29
   1  -2   0    5.05    0.21
   1  -2   0    4.94    0.27
   1  -2   0    4.76    0.20
   1  -2   0    4.80    0.24
   1  -2   0    5.67    0.27
  -1   2   0    4.74    0.26
  -1   2   0    5.44    0.28
  -1   2   0    5.01    0.20
  -1   2   0    5.11    0.26
  -1   2   0    5.55    0.30
  -1   2   0    5.33    0.25
  -1   2   0    4.86    0.21
   0  -2   0    9.44    0.30
   0  -2   0    9.73    0.29
   0  -2   0    9.36    0.30
   0  -2   0    9.44    0.28
   0  -2   0    9.74    0.35
   0  -2   0    8.97    0.31
   0  -2   0    9.29    0.30
   0  -2   0    9.49    0.39
   0  -2   0    9.22    0.26
   0   2   0    9.41    0.28
   0   2   0    9.25    0.24
   0   2   0    9.51    0.35
   0   2   0    9.50    0.28
   0   2   0    9.43    0.39
   0   2   0    9.21    0.27
  -1  -2   0    0.59    0.05
  -1  -2   0    0.65    0.05
  -1  -2   0    0.68    0.13
  -1  -2   0    0.54    0.09
  -1  -2   0    0.59    0.10
  -1  -2   0    0.59    0.09
  -1  -2   0    0.65    0.04
   1   2   0    0.68    0.08
   1   2   0    0.57    0.12
   1   2   0    0.74    0.13
  -2  -2   0   84.24    1.62
  -2  -2   0   87.16    1.66
   2   2   0   85.67    1.69
   2   2   0   82.56    1.78
   2   2   0   86.41    1.78
  -3  -2   0    0.92    0.07
  -3  -2   0    1.03    0.14
  -3  -2   0    0.81    0.08
   3   2   0    0.97    0.14
   3   2   0    1.16    0.15
   3   2   0    0.94    0.13
  -4  -2   0    4.92    0.28
   4   2   0    5.39    0.26
   4   2   0    4.87    0.23
   4   2   0    5.23    0.30
   4   2   0    5.44    0.28
  -5  -2   0   -0.04    0.06
   5   2   0   -0.02    0.08
   5   2   0    0.05    0.05
   5   2   0   -0.01    0.07
   5   2   0    0.08    0.06
  -6  -2   0    0.66    0.16
   6   2   0    0.64    0.18
   6   2   0    0.25    0.12
  -7  -2   0    1.11    0.22
  -7  -2   0    1.06    0.11
   7   2   0    1.06    0.22
  -8  -2   0    0.30    0.11
  -8  -2   0    0.62    0.20
   8   2   0    0.48    0.21
   9  -3   0    0.19    0.18
   9  -3   0    0.03    0.12
   8  -3   0    0.01    0.12
   8  -3   0    0.01    0.13
  -8   3   0   -0.12    0.16
   7  -3   0    0.37    0.16
   7  -3   0    0.49    0.18
  -7   3   0    0.51    0.20
   6  -3   0    1.70    0.28
   6  -3   0    1.45    0.24
   5  -3   0   25.42    0.85
   5  -3   0   26.79    0.96
   5  -3   0   26.41    0.94
  -5   3   0   26.96    0.62
  -5   3   0   26.34    0.88
   4  -3   0   27.40    0.96
   4  -3   0   27.81    0.92
   4  -3   0   28.25    0.98
   4  -3   0   27.60    0.84
   4  -3   0   28.06    1.14
  -4   3   0   27.10    0.87
  -4   3   0   27.88    0.70
  -4   3   0   27.54    0.68
  -4   3   0   28.55    0.64
   3  -3   0    8.21    0.38
   3  -3   0    7.87    0.51
   3  -3   0    7.92    0.46
   3  -3   0    7.76    0.41
   3  -3   0    8.08    0.46
  -3   3   0    7.88    0.32
  -3   3   0    8.26    0.30
  -3   3   0    7.80    0.45
  -3   3   0    8.04    0.40
  -3   3   0    7.66    0.40
   2  -3   0   17.45    0.55
   2  -3   0   18.17    0.46
   2  -3   0   17.87    0.43
   2  -3   0   17.44    0.60
   2  -3   0   17.18    0.68
   2  -3   0   17.49    0.69
  -2   3   0   18.71    0.71
  -2   3   0   18.14    0.59
  -2   3   0   18.04    0.51
  -2   3   0   16.27    0.61
  -2   3   0   16.61    0.70
  -2   3   0   18.14    0.54
   1  -3   0   13.00    0.57
   1  -3   0   12.41    0.41
   1  -3   0   12.43    0.41
   1  -3   0   12.64    0.50
   1  -3   0   11.77    0.46
   1  -3   0   12.92    0.43
  -1   3   0   11.84    0.49
  -1   3   0   11.48    0.42
  -1   3   0   13.29    0.56
  -1   3   0   12.20    0.48
  -1   3   0   12.52    0.40
   0  -3   0    2.14    0.16
   0  -3   0    2.57    0.17
   0  -3   0    2.41    0.29
   0  -3   0    2.39    0.17
   0  -3   0    2.83    0.27
   0  -3   0    2.73    0.17
   0  -3   0    2.39    0.14
   0  -3   0    2.54    0.18
   0   3   0    2.31    0.28
   0   3   0    2.48    0.14
   0   3   0    2.43    0.14
   0   3   0    2.41    0.16
   0   3   0    3.16    0.28
  -1  -3   0    0.26    0.07
  -1  -3   0    0.30    0.10
  -1  -3   0    0.44    0.07
  -1  -3   0    0.24    0.11
  -1  -3   0    0.44    0.11
  -1  -3   0    0.48    0.07
  -1  -3   0    0.38    0.08
  -1  -3   0    0.40    0.08
   1   3   0    0.37    0.13
   1   3   0    0.43    0.13
   1   3   0    0.50    0.10
  -2  -3   0    0.33    0.10
  -2  -3   0    0.54    0.07
  -2  -3   0    0.38    0.09
  -2  -3   0    0.46    0.10
   2   3   0    0.59    0.14
   2   3   0    0.57    0.14
  -3  -3   0   21.23    0.59
  -3  -3   0   20.22    0.63
  -3  -3   0   22.30    0.60
   3   3   0   22.09    0.66
   3   3   0   20.75    0.71
   3   3   0   20.72    0.70
  -4  -3   0    1.81    0.17
  -4  -3   0    1.62    0.22
  -4  -3   0    1.57    0.21
   4   3   0    1.49    0.21
   4   3   0    1.49    0.21
   4   3   0    1.36    0.19
   4   3   0    1.58    0.20
  -5  -3   0    0.69    0.20
  -5  -3   0    1.02    0.13
  -5  -3   0    0.80    0.16
   5   3   0    0.95    0.16
   5   3   0    1.21    0.20
   5   3   0    1.07    0.19
   5   3   0    1.07    0.16
  -6  -3   0    0.67    0.12
  -6  -3   0    0.73    0.18
   6   3   0    0.54    0.18
   6   3   0    0.68    0.10
  -7  -3   0   -0.07    0.10
  -7  -3   0    0.01    0.08
   7   3   0   -0.01    0.11
  -8  -3   0   -0.05    0.09
  -8  -3   0    0.33    0.18
   8   3   0    0.03    0.17
   9  -4   0    0.86    0.27
   9  -4   0    0.78    0.24
   8  -4   0   -0.07    0.13
   8  -4   0    0.06    0.17
  -8   4   0    0.11    0.23
   7  -4   0    0.15    0.15
   7  -4   0    0.35    0.16
  -7   4   0    0.66    0.24
  -7   4   0    0.39    0.14
   6  -4   0   -0.02    0.11
   6  -4   0    0.03    0.14
  -6   4   0    0.25    0.15
  -6   4   0    0.00    0.10
   5  -4   0    9.37    0.61
   5  -4   0    8.49    0.54
   5  -4   0    9.52    0.51
  -5   4   0    9.87    0.56
  -5   4   0    9.50    0.43
  -5   4   0    9.46    0.40
   4  -4   0    0.20    0.16
   4  -4   0    0.17    0.12
   4  -4   0    0.44    0.13
   4  -4   0    0.13    0.13
  -4   4   0    0.26    0.15
  -4   4   0    0.51    0.13
  -4   4   0    0.48    0.12
   3  -4   0    0.09    0.09
   3  -4   0    0.10    0.13
   3  -4   0    0.26    0.12
   3  -4   0    0.52    0.19
  -3   4   0    0.11    0.08
  -3   4   0    0.02    0.12
  -3   4   0    0.45    0.15
  -3   4   0    0.15    0.09
   2  -4   0    2.54    0.22
   2  -4   0    2.33    0.23
   2  -4   0    2.01    0.22
   2  -4   0    2.46    0.32
   2  -4   0    2.19    0.32
   2  -4   0    1.98    0.26
  -2   4   0    2.28    0.25
  -2   4   0    2.71    0.25
  -2   4   0    1.82    0.26
  -2   4   0    2.29    0.36
  -2   4   0    2.22    0.29
   1  -4   0    0.14    0.09
   1  -4   0    0.05    0.07
   1  -4   0   -0.05    0.06
   1  -4   0    0.03    0.08
   1  -4   0    0.11    0.08
   1  -4   0    0.00    0.10
  -1   4   0   -0.01    0.04
  -1   4   0    0.04    0.09
  -1   4   0    0.00    0.07
  -1   4   0    0.04    0.10
  -1   4   0    0.01    0.07
   0  -4   0    0.00    0.08
   0  -4   0   -0.01    0.04
   0  -4   0    0.06    0.06
   0  -4   0    0.00    0.05
   0  -4   0    0.02    0.07
   0  -4   0    0.02    0.06
   0  -4   0   -0.09    0.08
   0   4   0    0.03    0.05
   0   4   0    0.02    0.07
   0   4   0   -0.01    0.04
   0   4   0   -0.06    0.07
   0   4   0    0.03    0.05
  -1  -4   0    4.10    0.24
  -1  -4   0    3.97    0.30
  -1  -4   0    4.39    0.26
  -1  -4   0    4.20    0.41
  -1  -4   0    3.82    0.19
  -1  -4   0    4.15    0.22
  -1  -4   0    4.10    0.25
   1   4   0    4.93    0.38
   1   4   0    4.10    0.27
   1   4   0    3.48    0.39
  -2  -4   0    0.40    0.08
  -2  -4   0    0.28    0.08
  -2  -4   0    0.48    0.09
  -2  -4   0    0.36    0.13
  -2  -4   0    0.48    0.13
  -2  -4   0    0.42    0.11
   2   4   0    0.25    0.13
   2   4   0    0.33    0.14
  -3  -4   0    4.62    0.30
  -3  -4   0    4.61    0.17
  -3  -4   0    4.72    0.30
   3   4   0    3.99    0.40
  -4  -4   0   12.42    0.51
  -4  -4   0   13.19    0.55
   4   4   0   13.52    0.62
  -5  -4   0    0.58    0.16
  -5  -4   0    0.64    0.15
   5   4   0    0.81    0.19
   5   4   0    0.75    0.19
   5   4   0    0.55    0.17
  -6  -4   0    0.08    0.13
  -6  -4   0    0.10    0.09
   6   4   0    0.19    0.14
   6   4   0   -0.02    0.11
  -7  -4   0    0.09    0.11
  -7  -4   0   -0.09    0.13
   7   4   0    0.20    0.14
  -8  -4   0   -0.18    0.16
   8   4   0   -0.20    0.14
   9  -5   0    0.16    0.19
   8  -5   0    0.11    0.21
   8  -5   0    0.34    0.24
  -8   5   0    0.42    0.22
  -8   5   0    0.60    0.30
   7  -5   0   -0.02    0.13
   7  -5   0    0.42    0.20
  -7   5   0    0.16    0.21
  -7   5   0    0.14    0.16
   6  -5   0    0.39    0.15
   6  -5   0    0.88    0.26
  -6   5   0    0.25    0.19
  -6   5   0    0.59    0.18
   5  -5   0    0.09    0.16
   5  -5   0    0.03    0.12
   5  -5   0   -0.02    0.16
   5  -5   0   -0.02    0.11
  -5   5   0    0.15    0.11
  -5   5   0    0.10    0.15
  -5   5   0    0.00    0.10
   4  -5   0   -0.09    0.13
   4  -5   0    0.01    0.09
   4  -5   0   -0.05    0.11
   4  -5   0    0.11    0.16
  -4   5   0    0.06    0.14
  -4   5   0   -0.10    0.08
  -4   5   0   -0.13    0.08
   3  -5   0    0.96    0.22
   3  -5   0    0.64    0.21
   3  -5   0    0.86    0.18
   3  -5   0    0.71    0.25
  -3   5   0    1.32    0.22
  -3   5   0    1.38    0.21
  -3   5   0    0.83    0.23
   2  -5   0    8.59    0.40
   2  -5   0    8.72    0.50
   2  -5   0    6.94    0.50
   2  -5   0    7.66    0.42
   2  -5   0    8.93    0.60
   2  -5   0    8.34    0.41
  -2   5   0    7.93    0.40
  -2   5   0    8.84    0.53
  -2   5   0    8.68    0.44
  -2   5   0    8.01    0.58
   1  -5   0    4.02    0.41
   1  -5   0    3.98    0.30
   1  -5   0    4.68    0.54
   1  -5   0    4.53    0.31
   1  -5   0    4.14    0.29
   1  -5   0    4.37    0.42
  -1   5   0    4.11    0.51
  -1   5   0    4.54    0.45
  -1   5   0    4.15    0.29
  -1   5   0    4.06    0.26
  -1   5   0    4.07    0.28
   0  -5   0    9.65    0.55
   0  -5   0    9.70    0.48
   0  -5   0    9.59    0.61
   0  -5   0    9.77    0.44
   0  -5   0    9.10    0.46
   0  -5   0   10.02    0.44
   0   5   0    9.39    0.33
   0   5   0   10.20    0.37
   0   5   0   10.00    0.61
   0   5   0   10.09    0.52
  -1  -5   0   -0.05    0.06
  -1  -5   0    0.07    0.07
  -1  -5   0    0.08    0.07
  -1  -5   0    0.02    0.05
  -1  -5   0    0.00    0.06
  -1  -5   0    0.04    0.09
   1   5   0   -0.11    0.09
  -2  -5   0    0.06    0.06
  -2  -5   0   -0.05    0.09
  -2  -5   0    0.01    0.06
  -2  -5   0    0.02    0.07
   2   5   0    0.01    0.10
  -3  -5   0    0.06    0.09
  -3  -5   0    0.05    0.10
  -3  -5   0    0.08    0.06
   3   5   0    0.16    0.12
  -4  -5   0    2.76    0.33
  -4  -5   0    2.35    0.17
  -4  -5   0    2.15    0.28
   4   5   0    1.93    0.32
  -5  -5   0   20.28    0.80
  -5  -5   0   20.17    0.80
   5   5   0   21.11    0.78
   5   5   0   19.10    0.86
  -6  -5   0    0.94    0.23
  -6  -5   0    1.03    0.24
   6   5   0    1.00    0.24
  -7  -5   0    0.31    0.19
  -7  -5   0    0.25    0.19
   8  -6   0   -0.06    0.16
   8  -6   0   -0.01    0.23
   7  -6   0    0.07    0.20
   7  -6   0    0.24    0.19
  -7   6   0    0.01    0.22
  -7   6   0   -0.12    0.16
   6  -6   0    0.02    0.18
   6  -6   0    0.21    0.17
  -6   6   0   -0.11    0.19
  -6   6   0    0.17    0.14
  -6   6   0    0.23    0.16
   5  -6   0    0.14    0.14
   5  -6   0    0.08    0.18
   5  -6   0   -0.07    0.17
  -5   6   0   -0.14    0.11
  -5   6   0   -0.01    0.12
  -5   6   0   -0.06    0.16
   4  -6   0    1.62    0.31
   4  -6   0    2.06    0.31
   4  -6   0    1.80    0.41
   4  -6   0    1.93    0.40
  -4   6   0    2.33    0.31
  -4   6   0    1.60    0.37
  -4   6   0    1.51    0.27
   3  -6   0    4.22    0.48
   3  -6   0    4.40    0.43
   3  -6   0    4.89    0.63
   3  -6   0    4.03    0.51
  -3   6   0    5.34    0.60
  -3   6   0    4.28    0.40
  -3   6   0    3.83    0.40
   2  -6   0   20.50    0.79
   2  -6   0   20.63    0.95
   2  -6   0   22.04    0.77
   2  -6   0   20.39    0.90
   2  -6   0   22.56    0.80
   2  -6   0   22.28    1.07
  -2   6   0   21.16    0.95
  -2   6   0   23.35    1.10
  -2   6   0   21.00    0.75
  -2   6   0   21.20    0.80
   1  -6   0    1.47    0.34
   1  -6   0    1.38    0.27
   1  -6   0    1.45    0.29
   1  -6   0    1.19    0.22
   1  -6   0    1.66    0.26
   1  -6   0    1.78    0.27
  -1   6   0    1.72    0.34
  -1   6   0    2.24    0.27
  -1   6   0    2.42    0.38
  -1   6   0    1.72    0.22
   0  -6   0    0.23    0.13
   0  -6   0   -0.09    0.07
   0  -6   0    0.01    0.08
   0  -6   0    0.00    0.09
   0  -6   0    0.16    0.15
   0   6   0    0.10    0.06
   0   6   0    0.09    0.15
  -1  -6   0    0.59    0.16
  -1  -6   0    0.40    0.14
  -1  -6   0    0.26    0.18
  -1  -6   0    0.23    0.11
  -1  -6   0    0.33    0.13
   1   6   0    0.16    0.18
  -2  -6   0    1.19    0.21
  -2  -6   0    1.07    0.25
  -2  -6   0    1.23    0.22
  -2  -6   0    1.52    0.22
   2   6   0    1.14    0.30
  -3  -6   0    0.24    0.16
  -3  -6   0   -0.01    0.07
  -3  -6   0   -0.07    0.08
  -3  -6   0    0.19    0.12
   3   6   0   -0.09    0.16
  -4  -6   0    0.10    0.09
  -4  -6   0   -0.09    0.10
  -4  -6   0    0.03    0.14
   4   6   0    0.17    0.16
  -5  -6   0    0.04    0.09
  -5  -6   0    0.01    0.13
  -5  -6   0    0.15    0.15
   5   6   0    0.02    0.20
  -6  -6   0    2.10    0.37
  -6  -6   0    2.70    0.38
   6   6   0    1.58    0.34
   8  -7   0   -0.07    0.19
   7  -7   0    0.16    0.28
   7  -7   0   -0.01    0.17
  -7   7   0    0.16    0.20
  -7   7   0   -0.08    0.25
   6  -7   0    0.90    0.27
   6  -7   0    0.43    0.29
  -6   7   0    0.51    0.23
  -6   7   0    0.26    0.27
  -6   7   0    0.71    0.25
   5  -7   0    0.01    0.20
   5  -7   0    0.15    0.25
   5  -7   0   -0.03    0.13
  -5   7   0    0.09    0.19
  -5   7   0    0.06    0.17
  -5   7   0    0.18    0.16
   4  -7   0   -0.08    0.18
   4  -7   0    0.11    0.20
   4  -7   0    0.62    0.21
  -4   7   0    0.53    0.19
  -4   7   0    0.67    0.24
  -4   7   0    1.04    0.34
   3  -7   0   -0.01    0.16
   3  -7   0    0.12    0.18
   3  -7   0    0.09    0.20
   3  -7   0    0.01    0.13
  -3   7   0    0.01    0.12
  -3   7   0    0.10    0.19
  -3   7   0   -0.08    0.12
   2  -7   0    0.24    0.16
   2  -7   0    0.09    0.14
   2  -7   0    0.23    0.13
   2  -7   0    0.18    0.14
   2  -7   0    0.02    0.15
   2  -7   0    0.02    0.19
  -2   7   0    0.18    0.13
  -2   7   0    0.06    0.11
   1  -7   0   16.49    0.76
   1  -7   0   16.61    0.87
   1  -7   0   16.12    0.72
   1  -7   0   16.44    0.82
   1  -7   0   15.80    0.71
  -1   7   0   17.25    1.01
  -1   7   0   16.77    0.60
   0  -7   0    7.63    0.48
   0  -7   0    7.93    0.49
   0  -7   0    8.50    0.78
   0  -7   0    7.23    0.52
   0  -7   0    7.58    0.51
   0   7   0    8.52    0.83
  -1  -7   0    3.05    0.38
  -1  -7   0    3.61    0.54
  -1  -7   0    3.98    0.42
  -1  -7   0    4.09    0.40
   1   7   0    3.82    0.57
  -2  -7   0    0.10    0.11
  -2  -7   0    0.12    0.13
  -2  -7   0    0.11    0.13
   2   7   0    0.10    0.20
  -3  -7   0    0.04    0.14
  -3  -7   0    0.09    0.13
  -3  -7   0    0.32    0.19
  -3  -7   0   -0.04    0.10
   3   7   0   -0.01    0.19
  -4  -7   0    0.28    0.15
  -4  -7   0    0.11    0.19
  -4  -7   0    0.08    0.16
   4   7   0    0.00    0.22
  -5  -7   0   -0.03    0.15
  -5  -7   0    0.25    0.16
  -5  -7   0    0.10    0.23
   5   7   0    0.16    0.22
  -6  -7   0    1.90    0.39
   7  -8   0    0.48    0.33
   7  -8   0    0.19    0.23
  -7   8   0    0.10    0.34
   6  -8   0    0.08    0.27
   6  -8   0    0.22    0.21
  -6   8   0    0.30    0.23
  -6   8   0    0.52    0.32
   5  -8   0   -0.12    0.14
   5  -8   0    0.28    0.30
   5  -8   0    0.35    0.31
  -5   8   0    0.73    0.29
  -5   8   0    0.12    0.20
  -5   8   0    0.56    0.23
   4  -8   0    0.03    0.25
   4  -8   0   -0.01    0.22
   4  -8   0    0.02    0.16
  -4   8   0    0.06    0.18
  -4   8   0   -0.26    0.14
   3  -8   0    0.42    0.27
   3  -8   0    0.96    0.26
  -3   8   0    0.62    0.22
  -3   8   0    0.62    0.22
   2  -8   0    1.38    0.30
   2  -8   0    1.17    0.26
   2  -8   0    1.85    0.38
   2  -8   0    2.02    0.42
  -2   8   0    1.53    0.26
   1  -8   0    0.06    0.14
   1  -8   0   -0.04    0.13
   1  -8   0    0.46    0.19
   1  -8   0    0.04    0.16
   0  -8   0    7.77    0.82
   0  -8   0    6.93    0.52
   0  -8   0    7.78    0.70
   0  -8   0    7.05    0.50
   0   8   0    7.21    0.85
  -1  -8   0    7.30    0.53
  -1  -8   0    6.62    0.59
  -1  -8   0    6.90    0.78
  -1  -8   0    6.42    0.61
   1   8   0    7.03    0.86
  -2  -8   0    0.59    0.21
  -2  -8   0    0.38    0.19
  -2  -8   0    0.31    0.18
   2   8   0    0.32    0.26
  -3  -8   0    0.31    0.19
  -3  -8   0    0.30    0.20
  -3  -8   0    0.25    0.17
   3   8   0   -0.14    0.25
  -4  -8   0   -0.09    0.19
   4   8   0    0.00    0.25
  -5  -8   0    0.19    0.20
   6  -9   0   15.32    0.92
   6  -9   0   15.50    1.20
   5  -9   0    0.23    0.21
   4  -9   0    0.03    0.20
  -4   9   0    0.29    0.20
   3  -9   0    0.27    0.20
  -3   9   0    0.03    0.16
   2  -9   0   -0.05    0.14
   2  -9   0    0.04    0.16
   1  -9   0    0.57    0.24
   1  -9   0    0.84    0.27
   0  -9   0    0.06    0.17
   0  -9   0   -0.14    0.14
   0  -9   0    0.04    0.19
   0   9   0   -0.19    0.25
  -1  -9   0    4.82    0.56
  -1  -9   0    6.02    0.62
  -1  -9   0    5.81    0.63
   1   9   0    5.06    0.79
  -2  -9   0    0.57    0.26
  -2  -9   0    0.31    0.21
   2   9   0   -0.25    0.28
  -3  -9   0    0.14    0.19
   3   9   0   -0.09    0.28
   4 -10   0   -0.10    0.19
   3 -10   0    0.32    0.24
   2 -10   0   -0.02    0.20
   1 -10   0   -0.02    0.22
   1 -10   0    0.13    0.22
   0 -10   0   -0.01    0.21
  -1 -10   0    0.21    0.24
   1  10   0    0.10    0.39
   2  10  -1    0.57    0.52
  -2 -10   1    1.41    0.36
   1  10  -1    6.15    0.95
  -1 -10   1    4.25    0.54
   0 -10   1   -0.06    0.19
   1 -10   1    0.28    0.23
   1 -10   1   -0.08    0.19
   2 -10   1    0.22    0.20
   2 -10   1    0.06    0.23
   3 -10   1    0.06    0.20
   4 -10   1    0.23    0.23
   5 -10   1   -0.05    0.24
   3   9  -1    0.01    0.30
  -3  -9   1   -0.14    0.17
  -3  -9   1   -0.09    0.16
   2   9  -1    0.21    0.30
  -2  -9   1    0.01    0.19
  -2  -9   1   -0.22    0.17
   1   9  -1    0.89    0.41
  -1  -9   1    1.53    0.34
  -1  -9   1    1.54    0.35
  -1  -9   1    1.11    0.27
   0   9  -1   35.64    1.69
   0  -9   1   31.89    1.25
   0  -9   1   30.46    1.19
   0  -9   1   30.48    1.26
   1  -9   1    0.55    0.24
   1  -9   1    0.61    0.24
   1  -9   1    1.48    0.33
   2  -9   1    0.08    0.17
   2  -9   1    0.06    0.23
   2  -9   1    0.05    0.17
  -3   9  -1    0.00    0.16
   3  -9   1    0.01    0.18
  -4   9  -1    0.07    0.18
   4  -9   1    0.24    0.21
   5  -9   1    0.17    0.21
   6  -9   1   -0.01    0.20
   6  -9   1   -0.09    0.34
  -5  -8   1   -0.31    0.17
   4   8  -1   -0.05    0.24
  -4  -8   1    0.18    0.19
   3   8  -1   -0.05    0.23
  -3  -8   1    0.01    0.15
  -3  -8   1   -0.12    0.13
  -3  -8   1   -0.08    0.14
   2   8  -1    0.18    0.29
  -2  -8   1    0.34    0.18
  -2  -8   1    0.44    0.21
  -2  -8   1    0.41    0.18
   1   8  -1   -0.04    0.22
  -1  -8   1    0.41    0.25
  -1  -8   1    0.35    0.19
  -1  -8   1    0.10    0.13
  -1  -8   1    0.18    0.17
   0   8  -1   -0.15    0.20
   0  -8   1    0.35    0.24
   0  -8   1    0.11    0.15
   0  -8   1   -0.11    0.12
   0  -8   1    0.02    0.12
  -1   8  -1    1.05    0.39
   1  -8   1    0.59    0.22
   1  -8   1    1.04    0.33
   1  -8   1    0.84    0.24
   1  -8   1    1.49    0.29
  -2   8  -1    1.19    0.24
   2  -8   1    1.19    0.28
   2  -8   1    0.99    0.31
   2  -8   1    1.31    0.26
  -3   8  -1    0.18    0.15
  -3   8  -1    0.62    0.21
   3  -8   1    0.11    0.15
   3  -8   1    0.05    0.20
   3  -8   1   -0.06    0.19
  -4   8  -1    0.00    0.15
  -4   8  -1    0.04    0.17
   4  -8   1   -0.03    0.16
   4  -8   1    0.13    0.23
   4  -8   1    0.05    0.25
  -5   8  -1   -0.07    0.20
  -5   8  -1    0.04    0.19
  -5   8  -1    0.03    0.21
   5  -8   1    0.00    0.23
   5  -8   1   -0.16    0.14
  -6   8  -1    0.44    0.28
  -6   8  -1   -0.06    0.20
   6  -8   1    0.06    0.19
   6  -8   1    0.35    0.30
  -7   8  -1    0.03    0.29
   7  -8   1    0.08    0.23
   7  -8   1    0.19    0.30
  -6  -7   1   16.94    0.87
   5   7  -1    0.07    0.22
  -5  -7   1    0.82    0.26
  -5  -7   1    0.31    0.23
  -5  -7   1    0.29    0.16
   4   7  -1    0.09    0.23
  -4  -7   1    0.35    0.16
  -4  -7   1    0.80    0.27
  -4  -7   1    0.37    0.20
   3   7  -1    0.03    0.21
  -3  -7   1   -0.06    0.09
  -3  -7   1   -0.06    0.13
  -3  -7   1    0.03    0.11
   2   7  -1   -0.24    0.17
  -2  -7   1    0.10    0.11
  -2  -7   1    0.22    0.14
  -2  -7   1    0.09    0.12
  -2  -7   1    0.02    0.16
   1   7  -1    0.86    0.29
  -1  -7   1    1.46    0.27
  -1  -7   1    1.60    0.36
  -1  -7   1    1.13    0.25
  -1  -7   1    1.42    0.25
   0   7  -1    0.10    0.20
   0  -7   1   -0.08    0.09
   0  -7   1    0.17    0.16
   0  -7   1   -0.01    0.10
   0  -7   1   -0.04    0.10
  -1   7  -1   14.62    0.95
  -1   7  -1   15.35    0.56
   1  -7   1   14.89    0.69
   1  -7   1   16.19    0.74
   1  -7   1   15.54    0.77
   1  -7   1   15.66    0.71
   1  -7   1   14.92    0.83
  -2   7  -1    7.10    0.46
  -2   7  -1    7.58    0.44
   2  -7   1    6.94    0.45
   2  -7   1    9.07    0.92
   2  -7   1    7.09    0.69
   2  -7   1    7.57    0.57
   2  -7   1    7.74    0.50
   2  -7   1    7.83    0.49
  -3   7  -1    0.35    0.22
  -3   7  -1    0.07    0.12
  -3   7  -1    0.21    0.17
   3  -7   1    0.32    0.23
   3  -7   1    0.17    0.15
   3  -7   1    0.38    0.24
   3  -7   1    0.35    0.21
  -4   7  -1   -0.28    0.10
  -4   7  -1   -0.04    0.18
  -4   7  -1    0.11    0.15
   4  -7   1    0.07    0.19
   4  -7   1    0.25    0.22
   4  -7   1    0.07    0.16
   4  -7   1    0.03    0.12
  -5   7  -1    0.28    0.21
  -5   7  -1    0.37    0.19
  -5   7  -1    0.70    0.28
   5  -7   1    0.34    0.26
   5  -7   1    0.51    0.21
  -6   7  -1    0.19    0.19
  -6   7  -1    0.58    0.27
  -6   7  -1    0.27    0.21
   6  -7   1    0.63    0.26
   6  -7   1    0.11    0.24
  -7   7  -1   -0.26    0.23
  -7   7  -1    0.13    0.20
   7  -7   1    0.42    0.30
   7  -7   1    0.48    0.24
   8  -7   1   -0.01    0.19
  -7  -6   1   -0.12    0.18
   6   6  -1    0.09    0.18
  -6  -6   1   -0.04    0.17
  -6  -6   1   -0.17    0.13
   5   6  -1    0.11    0.17
  -5  -6   1    0.61    0.22
  -5  -6   1    0.52    0.19
   4   6  -1    0.10    0.20
  -4  -6   1    0.55    0.17
  -4  -6   1    0.43    0.21
  -4  -6   1    0.31    0.12
   3   6  -1    0.07    0.18
  -3  -6   1    0.13    0.15
  -3  -6   1    0.12    0.10
  -3  -6   1    0.00    0.10
   2   6  -1    0.28    0.18
  -2  -6   1    0.54    0.16
  -2  -6   1    0.45    0.14
  -2  -6   1    0.31    0.16
  -2  -6   1    0.41    0.14
   1   6  -1    0.84    0.26
  -1  -6   1    1.26    0.21
  -1  -6   1    1.00    0.20
  -1  -6   1    0.87    0.26
  -1  -6   1    1.39    0.22
  -1  -6   1    1.50    0.23
   0   6  -1    0.07    0.06
   0   6  -1    0.17    0.15
   0  -6   1    0.03    0.09
   0  -6   1    0.10    0.10
   0  -6   1    0.21    0.15
   0  -6   1   -0.01    0.09
   0  -6   1   -0.12    0.06
  -1   6  -1   -0.05    0.08
  -1   6  -1    0.00    0.13
  -1   6  -1    0.07    0.08
  -1   6  -1    0.09    0.14
   1  -6   1   -0.06    0.08
   1  -6   1   -0.07    0.11
   1  -6   1    0.04    0.10
   1  -6   1    0.02    0.16
   1  -6   1    0.24    0.12
   1  -6   1   -0.02    0.08
  -2   6  -1   11.67    0.52
  -2   6  -1   13.04    0.82
  -2   6  -1   11.30    0.55
  -2   6  -1   11.51    0.67
   2  -6   1   11.27    0.56
   2  -6   1   13.57    0.81
   2  -6   1   13.51    0.71
   2  -6   1   11.93    0.56
   2  -6   1   12.11    0.67
   2  -6   1   12.08    0.54
  -3   6  -1    0.80    0.20
  -3   6  -1    0.32    0.14
  -3   6  -1    1.15    0.27
   3  -6   1    0.74    0.25
   3  -6   1    0.75    0.18
   3  -6   1    0.97    0.28
   3  -6   1    1.34    0.19
   3  -6   1    0.72    0.26
  -4   6  -1    2.69    0.36
  -4   6  -1    2.08    0.38
  -4   6  -1    2.46    0.32
   4  -6   1    2.39    0.33
   4  -6   1    3.23    0.51
   4  -6   1    3.14    0.45
   4  -6   1    3.50    0.51
  -5   6  -1    0.41    0.17
  -5   6  -1    0.14    0.14
  -5   6  -1    0.28    0.22
   5  -6   1    0.25    0.16
   5  -6   1    0.25    0.23
  -6   6  -1    0.02    0.13
  -6   6  -1    0.04    0.14
  -6   6  -1   -0.17    0.17
   6  -6   1   -0.14    0.19
   6  -6   1    0.01    0.14
  -7   6  -1   -0.28    0.14
  -7   6  -1    0.04    0.20
   7  -6   1    0.06    0.20
   7  -6   1    0.16    0.17
   8  -6   1   -0.18    0.22
   8  -6   1    0.06    0.17
  -7  -5   1    0.06    0.15
  -7  -5   1    0.15    0.17
   6   5  -1    0.23    0.15
  -6  -5   1    0.00    0.12
  -6  -5   1    0.23    0.15
   5   5  -1    2.72    0.34
   5   5  -1    3.37    0.36
  -5  -5   1    2.71    0.33
  -5  -5   1    3.26    0.35
   4   5  -1    1.95    0.33
  -4  -5   1    3.08    0.34
  -4  -5   1    2.98    0.32
  -4  -5   1    3.22    0.17
   3   5  -1    0.01    0.11
  -3  -5   1    0.03    0.05
  -3  -5   1    0.03    0.09
  -3  -5   1    0.06    0.09
   2   5  -1    0.04    0.12
  -2  -5   1   -0.01    0.06
  -2  -5   1    0.04    0.06
  -2  -5   1    0.07    0.10
  -2  -5   1   -0.04    0.07
   1   5  -1    0.11    0.14
  -1  -5   1    0.13    0.08
  -1  -5   1    0.00    0.06
  -1  -5   1    0.07    0.11
  -1  -5   1    0.13    0.08
  -1  -5   1    0.02    0.07
   0   5  -1    8.39    0.32
   0   5  -1    8.92    0.58
   0   5  -1    8.85    0.31
   0   5  -1    8.28    0.29
   0   5  -1    8.46    0.46
   0  -5   1    8.61    0.41
   0  -5   1    8.21    0.40
   0  -5   1    9.05    0.58
   0  -5   1    8.40    0.43
   0  -5   1    8.12    0.51
   0  -5   1    8.81    0.43
  -1   5  -1    1.37    0.26
  -1   5  -1    0.72    0.15
  -1   5  -1    1.34    0.19
  -1   5  -1    1.20    0.17
  -1   5  -1    0.86    0.27
   1  -5   1    0.92    0.18
   1  -5   1    0.97    0.20
   1  -5   1    1.04    0.18
   1  -5   1    1.41    0.30
   1  -5   1    1.20    0.19
   1  -5   1    1.16    0.23
  -2   5  -1    5.49    0.33
  -2   5  -1    5.31    0.34
  -2   5  -1    7.77    0.72
  -2   5  -1    5.44    0.51
   2  -5   1    4.77    0.30
   2  -5   1    4.96    0.40
   2  -5   1    5.03    0.34
   2  -5   1    5.06    0.54
   2  -5   1    5.64    0.33
   2  -5   1    5.52    0.41
  -3   5  -1    0.40    0.18
  -3   5  -1    0.54    0.15
  -3   5  -1    0.42    0.14
   3  -5   1    0.54    0.20
   3  -5   1    0.35    0.14
   3  -5   1    0.48    0.17
   3  -5   1    0.50    0.21
  -4   5  -1   58.61    1.53
  -4   5  -1   61.16    1.74
  -4   5  -1   61.29    1.48
   4  -5   1   62.63    1.89
   4  -5   1   56.84    1.55
   4  -5   1   60.44    1.95
   4  -5   1   59.04    1.71
  -5   5  -1    0.47    0.15
  -5   5  -1    0.44    0.16
  -5   5  -1    0.41    0.20
   5  -5   1    0.36    0.15
   5  -5   1    0.31    0.18
   5  -5   1    0.25    0.17
  -6   5  -1    1.23    0.25
  -6   5  -1    1.02    0.31
   6  -5   1    1.40    0.28
   6  -5   1    1.03    0.27
  -7   5  -1    0.02    0.21
  -7   5  -1    0.18    0.16
   7  -5   1    0.05    0.14
   7  -5   1    0.10    0.17
  -8   5  -1    0.92    0.26
  -8   5  -1    1.05    0.35
   8  -5   1    0.72    0.27
   8  -5   1    0.67    0.28
   9  -5   1    0.21    0.21
   8   4  -1    0.06    0.16
  -8  -4   1    0.19    0.17
   7   4  -1    0.10    0.15
  -7  -4   1    0.33    0.13
  -7  -4   1    0.16    0.16
   6   4  -1   -0.07    0.09
   6   4  -1    0.05    0.11
  -6  -4   1    0.06    0.09
  -6  -4   1   -0.11    0.09
   5   4  -1    0.14    0.11
   5   4  -1    0.14    0.09
   5   4  -1    0.02    0.10
  -5  -4   1    0.08    0.08
  -5  -4   1    0.29    0.12
   4   4  -1    8.56    0.48
  -4  -4   1    7.87    0.41
  -4  -4   1    7.90    0.39
   3   4  -1    5.50    0.39
  -3  -4   1    5.46    0.32
  -3  -4   1    5.48    0.31
   2   4  -1    1.15    0.22
   2   4  -1    0.91    0.20
  -2  -4   1    0.96    0.08
  -2  -4   1    0.99    0.19
  -2  -4   1    0.91    0.11
  -2  -4   1    0.70    0.15
  -2  -4   1    0.81    0.14
  -2  -4   1    0.97    0.10
  -2  -4   1    0.94    0.13
   1   4  -1    1.45    0.26
   1   4  -1    1.96    0.30
   1   4  -1    1.39    0.18
  -1  -4   1    1.36    0.17
  -1  -4   1    1.35    0.16
  -1  -4   1    1.51    0.17
  -1  -4   1    1.43    0.25
  -1  -4   1    1.46    0.22
  -1  -4   1    1.84    0.20
   0   4  -1   -0.01    0.04
   0   4  -1   -0.02    0.04
   0   4  -1   -0.04    0.06
   0   4  -1    0.00    0.04
   0   4  -1   -0.04    0.08
   0  -4   1   -0.02    0.05
   0  -4   1   -0.03    0.05
   0  -4   1    0.01    0.06
   0  -4   1    0.09    0.06
   0  -4   1    0.12    0.08
   0  -4   1   -0.02    0.08
  -1   4  -1    1.93    0.19
  -1   4  -1    2.08    0.22
  -1   4  -1    2.61    0.36
  -1   4  -1    1.46    0.22
  -1   4  -1    1.13    0.18
   1  -4   1    1.67    0.28
   1  -4   1    2.11    0.23
   1  -4   1    2.28    0.27
   1  -4   1    2.73    0.26
   1  -4   1    1.92    0.26
   1  -4   1    2.58    0.24
  -2   4  -1    0.50    0.15
  -2   4  -1    0.40    0.16
  -2   4  -1    0.41    0.15
  -2   4  -1    0.29    0.11
  -2   4  -1    0.43    0.11
   2  -4   1    0.35    0.14
   2  -4   1    0.59    0.20
   2  -4   1    0.37    0.11
   2  -4   1    0.46    0.11
   2  -4   1    0.62    0.16
   2  -4   1    0.34    0.09
  -3   4  -1    0.38    0.11
  -3   4  -1    0.37    0.14
  -3   4  -1    0.37    0.16
  -3   4  -1    0.20    0.10
   3  -4   1    0.45    0.15
   3  -4   1    0.19    0.09
   3  -4   1    0.24    0.15
   3  -4   1    0.21    0.14
  -4   4  -1    1.01    0.16
  -4   4  -1    0.93    0.17
  -4   4  -1    0.73    0.19
   4  -4   1    0.58    0.21
   4  -4   1    0.69    0.17
   4  -4   1    0.68    0.19
   4  -4   1    0.72    0.22
  -5   4  -1  103.15    2.19
  -5   4  -1  103.43    2.11
  -5   4  -1  100.60    2.43
   5  -4   1   99.26    2.55
   5  -4   1  101.78    2.33
   5  -4   1   98.67    2.49
  -6   4  -1    0.07    0.14
  -6   4  -1    0.08    0.10
   6  -4   1   -0.03    0.13
   6  -4   1    0.12    0.13
   6  -4   1   -0.05    0.13
  -7   4  -1    0.02    0.17
  -7   4  -1    0.13    0.12
   7  -4   1   -0.02    0.14
   7  -4   1    0.13    0.16
  -8   4  -1    0.05    0.19
   8  -4   1   -0.02    0.14
   8  -4   1    0.07    0.17
   9  -4   1    0.00    0.19
   8   3  -1   -0.15    0.14
  -8  -3   1    0.05    0.14
  -8  -3   1   -0.01    0.10
   7   3  -1   -0.09    0.11
  -7  -3   1   -0.02    0.06
  -7  -3   1    0.08    0.12
   6   3  -1    0.67    0.18
   6   3  -1    0.32    0.15
  -6  -3   1    0.60    0.10
  -6  -3   1    0.76    0.18
   5   3  -1    0.53    0.11
   5   3  -1    0.28    0.10
   5   3  -1    0.69    0.15
   5   3  -1    0.75    0.17
  -5  -3   1    0.53    0.09
  -5  -3   1    0.59    0.14
   4   3  -1    0.19    0.09
   4   3  -1    0.13    0.09
   4   3  -1    0.13    0.08
   4   3  -1    0.30    0.10
  -4  -3   1    0.18    0.06
  -4  -3   1    0.10    0.07
  -4  -3   1    0.13    0.06
   3   3  -1    2.02    0.23
   3   3  -1    1.54    0.18
   3   3  -1    1.60    0.22
  -3  -3   1    1.45    0.16
  -3  -3   1    1.42    0.17
  -3  -3   1    1.70    0.16
   2   3  -1  194.21    3.96
   2   3  -1  202.24    3.96
  -2  -3   1  195.64    3.76
  -2  -3   1  199.71    3.80
  -2  -3   1  201.32    3.62
  -2  -3   1  199.11    3.69
  -2  -3   1  205.25    3.58
   1   3  -1    0.21    0.10
   1   3  -1    0.19    0.10
   1   3  -1    0.14    0.06
  -1  -3   1    0.26    0.06
  -1  -3   1    0.23    0.07
  -1  -3   1    0.27    0.08
  -1  -3   1    0.12    0.04
  -1  -3   1    0.25    0.09
  -1  -3   1    0.20    0.09
  -1  -3   1    0.27    0.10
   0   3  -1    0.16    0.04
   0   3  -1    0.18    0.06
   0   3  -1    0.19    0.05
   0   3  -1    0.09    0.09
   0   3  -1    0.16    0.08
   0  -3   1    0.21    0.07
   0  -3   1    0.17    0.08
   0  -3   1    0.26    0.08
   0  -3   1    0.08    0.09
   0  -3   1    0.30    0.08
   0  -3   1    0.22    0.07
  -1   3  -1    9.77    0.35
  -1   3  -1   10.49    0.43
  -1   3  -1    9.98    0.50
  -1   3  -1   10.01    0.37
  -1   3  -1    9.09    0.41
  -1   3  -1    9.81    0.44
   1  -3   1    9.49    0.42
   1  -3   1    9.29    0.35
   1  -3   1    9.39    0.42
   1  -3   1    9.43    0.37
   1  -3   1    9.60    0.48
   1  -3   1    9.66    0.36
  -2   3  -1   28.51    0.86
  -2   3  -1   27.95    0.95
  -2   3  -1   27.39    0.75
  -2   3  -1   29.02    0.85
  -2   3  -1   28.81    0.72
  -2   3  -1   29.04    0.93
   2  -3   1   28.20    0.93
   2  -3   1   30.25    0.95
   2  -3   1   29.55    0.63
   2  -3   1   27.95    0.76
   2  -3   1   27.97    0.86
   2  -3   1   29.66    0.67
  -3   3  -1    5.26    0.37
  -3   3  -1    5.04    0.24
  -3   3  -1    5.03    0.33
  -3   3  -1    5.34    0.26
   3  -3   1    5.12    0.30
   3  -3   1    5.17    0.36
   3  -3   1    5.00    0.37
   3  -3   1    5.10    0.41
   3  -3   1    5.29    0.37
  -4   3  -1    6.44    0.39
  -4   3  -1    7.66    0.26
  -4   3  -1    7.28    0.29
  -4   3  -1    7.41    0.29
   4  -3   1    6.84    0.45
   4  -3   1    7.62    0.45
   4  -3   1    6.82    0.45
   4  -3   1    7.87    0.40
  -5   3  -1    7.63    0.45
  -5   3  -1    8.46    0.29
   5  -3   1    8.81    0.46
   5  -3   1    9.55    0.52
   5  -3   1    7.87    0.52
  -6   3  -1   -0.05    0.11
   6  -3   1    0.16    0.12
   6  -3   1   -0.11    0.06
  -7   3  -1    0.59    0.21
   7  -3   1    0.41    0.18
   7  -3   1    0.46    0.17
  -8   3  -1   -0.02    0.16
   8  -3   1    0.13    0.12
   8  -3   1   -0.12    0.13
   9  -3   1    0.01    0.17
   9  -3   1    0.12    0.12
   9   2  -1    1.02    0.28
  -9  -2   1    1.32    0.29
   8   2  -1    1.78    0.31
  -8  -2   1    1.79    0.28
   7   2  -1    0.59    0.19
  -7  -2   1    0.58    0.17
   6   2  -1    0.74    0.17
   6   2  -1    0.47    0.14
  -6  -2   1    0.49    0.13
   5   2  -1    1.07    0.18
   5   2  -1    0.71    0.15
  -5  -2   1    0.53    0.13
   4   2  -1    2.84    0.21
   4   2  -1    3.06    0.16
   4   2  -1    2.70    0.17
   4   2  -1    3.03    0.22
  -4  -2   1    2.97    0.21
   3   2  -1    0.40    0.09
   3   2  -1    0.31    0.08
   3   2  -1    0.46    0.09
   3   2  -1    0.22    0.08
  -3  -2   1    0.47    0.10
   2   2  -1   11.97    0.41
   2   2  -1   11.62    0.36
   2   2  -1   10.69    0.39
  -2  -2   1   11.13    0.30
  -2  -2   1   11.67    0.29
  -2  -2   1   11.06    0.35
   1   2  -1  763.11   13.74
   1   2  -1  753.82   13.74
  -1  -2   1  743.61   13.72
  -1  -2   1  771.75   13.97
  -1  -2   1  751.88   13.17
  -1  -2   1  793.11   13.50
   0   2  -1   30.60    0.83
   0   2  -1   31.28    0.75
   0   2  -1   30.06    0.65
   0   2  -1   31.96    0.68
   0   2  -1   30.75    0.69
   0   2  -1   32.34    0.68
   0  -2   1   31.48    0.69
   0  -2   1   30.42    0.82
   0  -2   1   31.97    0.71
   0  -2   1   29.85    0.69
   0  -2   1   30.55    0.68
   0  -2   1   31.31    0.72
   0  -2   1   30.98    0.79
  -1   2  -1   13.30    0.45
  -1   2  -1   12.85    0.38
  -1   2  -1   12.21    0.43
  -1   2  -1   12.64    0.48
  -1   2  -1   12.60    0.43
  -1   2  -1   12.21    0.35
   1  -2   1   12.25    0.43
   1  -2   1   12.26    0.36
   1  -2   1   12.05    0.44
   1  -2   1   12.53    0.38
   1  -2   1   12.53    0.37
   1  -2   1   13.06    0.48
  -2   2  -1    0.04    0.04
  -2   2  -1    0.07    0.06
  -2   2  -1    0.05    0.04
  -2   2  -1    0.03    0.04
  -2   2  -1    0.03    0.06
  -2   2  -1    0.04    0.06
   2  -2   1    0.05    0.06
   2  -2   1    0.09    0.07
   2  -2   1    0.12    0.08
   2  -2   1    0.12    0.08
   2  -2   1    0.03    0.07
  -3   2  -1    1.01    0.18
   3  -2   1    1.42    0.17
   3  -2   1    1.27    0.19
   3  -2   1    1.17    0.18
   3  -2   1    1.21    0.20
  -4   2  -1    4.12    0.26
   4  -2   1    3.99    0.28
   4  -2   1    4.27    0.40
   4  -2   1    3.78    0.27
  -5   2  -1    0.59    0.14
   5  -2   1    0.57    0.16
   5  -2   1    0.73    0.16
   5  -2   1    0.58    0.15
   6  -2   1   16.56    0.69
   6  -2   1   16.91    0.63
   7  -2   1   17.56    0.76
   7  -2   1   16.27    0.62
  -8   2  -1    0.20    0.16
   8  -2   1    0.14    0.15
   8  -2   1   -0.01    0.10
  -9   2  -1    0.28    0.20
   9  -2   1    0.11    0.18
   9   1  -1    0.14    0.17
  -9  -1   1   -0.10    0.15
   8   1  -1    8.47    0.54
  -8  -1   1    9.33    0.53
   7   1  -1    0.06    0.11
   6   1  -1    0.10    0.09
   6   1  -1    0.06    0.09
   5   1  -1    1.53    0.19
   5   1  -1    1.29    0.19
   4   1  -1    3.30    0.22
   4   1  -1    3.75    0.23
   3   1  -1    6.38    0.27
   3   1  -1    6.39    0.27
   2   1  -1   -0.03    0.03
   2   1  -1   -0.01    0.04
   2   1  -1    0.06    0.03
   2   1  -1    0.06    0.03
   2   1  -1    0.07    0.06
   1   1  -1    4.73    0.17
   1   1  -1    4.86    0.16
   1   1  -1    4.81    0.18
  -1  -1   1    4.99    0.16
  -1  -1   1    4.89    0.17
  -1  -1   1    4.67    0.18
   0   1  -1    0.01    0.02
   0   1  -1    0.01    0.02
   0   1  -1   -0.01    0.03
   0   1  -1   -0.01    0.01
   0   1  -1   -0.01    0.02
   0   1  -1   -0.01    0.02
   0   1  -1    0.05    0.03
   0   1  -1    0.09    0.02
   0   1  -1   -0.01    0.01
   0  -1   1   -0.02    0.02
   0  -1   1   -0.03    0.02
   0  -1   1    0.00    0.02
   0  -1   1   -0.03    0.02
   0  -1   1    0.02    0.02
   0  -1   1    0.04    0.02
   0  -1   1   -0.01    0.02
   0  -1   1    0.02    0.02
   0  -1   1    0.02    0.03
   0  -1   1    0.03    0.03
  -1   1  -1   50.32    1.10
  -1   1  -1   49.08    0.92
  -1   1  -1   48.13    0.93
  -1   1  -1   49.04    0.94
  -1   1  -1   48.71    1.05
  -1   1  -1   45.64    1.04
  -1   1  -1   48.14    0.95
   1  -1   1   49.95    1.06
   1  -1   1   50.62    0.97
   1  -1   1   51.07    1.06
   1  -1   1   48.31    1.05
  -2   1  -1    2.77    0.21
  -2   1  -1    2.91    0.15
   2  -1   1    2.85    0.17
   2  -1   1    2.83    0.18
   2  -1   1    3.11    0.22
   2  -1   1    2.75    0.17
  -3   1  -1   24.28    0.56
  -3   1  -1   23.77    0.77
   3  -1   1   22.77    0.64
   3  -1   1   23.12    0.64
   3  -1   1   24.67    0.67
   3  -1   1   23.59    0.76
  -4   1  -1    1.77    0.12
  -4   1  -1    1.55    0.14
   4  -1   1    1.81    0.20
   4  -1   1    1.41    0.18
   4  -1   1    1.75    0.18
  -5   1  -1    3.87    0.21
   5  -1   1    3.47    0.22
   5  -1   1    3.11    0.29
  -6   1  -1    0.61    0.13
   6  -1   1    1.14    0.15
   6  -1   1    1.15    0.17
   6  -1   1    0.90    0.20
  -7   1  -1    0.69    0.17
   7  -1   1    1.19    0.16
   7  -1   1    1.23    0.15
   7  -1   1    1.29    0.24
  -8   1  -1    0.08    0.15
   8  -1   1    0.18    0.15
  -9   1  -1   -0.04    0.16
   9  -1   1    0.19    0.19
   9   0  -1    0.50    0.21
  -9   0   1    0.33    0.15
   8   0  -1    0.11    0.13
   7   0  -1   13.76    0.63
   7   0  -1   15.40    0.66
   6   0  -1   51.18    1.31
   6   0  -1   49.18    1.30
   5   0  -1    0.69    0.15
   5   0  -1    0.79    0.15
   4   0  -1    9.59    0.38
   4   0  -1    9.11    0.37
   3   0  -1    0.00    0.02
   3   0  -1   -0.02    0.04
   3   0  -1   -0.04    0.03
   3   0  -1    0.05    0.02
   2   0  -1    0.11    0.05
   2   0  -1    0.18    0.08
   2   0  -1    0.10    0.03
   2   0  -1    0.20    0.06
   2   0  -1    0.12    0.03
  -2   0   1    0.11    0.08
   1   0  -1    0.79    0.05
   1   0  -1    0.80    0.11
   1   0  -1    1.01    0.11
   1   0  -1    0.88    0.05
   1   0  -1    0.95    0.07
   1   0  -1    0.67    0.09
  -1   0   1    0.79    0.09
  -1   0   1    0.70    0.09
   0   0  -1    0.00    0.01
   0   0  -1    0.01    0.01
   0   0  -1    0.02    0.02
   0   0   1    0.02    0.01
   0   0   1    0.01    0.02
  -1   0  -1    0.42    0.06
  -1   0  -1    0.46    0.04
  -1   0  -1    0.45    0.04
   1   0   1    0.57    0.07
   1   0   1    0.48    0.03
   1   0   1    0.45    0.06
   1   0   1    0.51    0.06
   1   0   1    0.42    0.08
  -2   0  -1    5.84    0.30
   2   0   1    5.58    0.21
   2   0   1    5.76    0.20
   2   0   1    5.50    0.23
   2   0   1    5.59    0.18
   3   0   1    1.32    0.12
   3   0   1    1.36    0.13
   3   0   1    1.41    0.13
   3   0   1    1.25    0.15
   4   0   1    2.14    0.16
   4   0   1    1.99    0.15
   4   0   1    1.88    0.14
   4   0   1    1.86    0.21
   5   0   1    0.05    0.05
   5   0   1    0.05    0.07
   5   0   1    0.11    0.08
   5   0   1   -0.03    0.06
  -6   0  -1    4.73    0.20
   6   0   1    4.19    0.20
   6   0   1    4.62    0.34
   6   0   1    4.20    0.18
   6   0   1    3.46    0.35
  -7   0  -1    0.13    0.08
   7   0   1   -0.08    0.10
  -8   0  -1    3.00    0.27
   8   0   1    2.54    0.35
  -9   0  -1    0.25    0.15
   9   0   1    0.30    0.21
   9  -1  -1    0.10    0.18
  -9   1   1   -0.21    0.15
   8  -1  -1    0.01    0.13
  -8   1   1    0.07    0.12
   7  -1  -1    3.80    0.39
  -7   1   1    2.65    0.23
   6  -1  -1    1.08    0.13
   6  -1  -1    1.36    0.14
   6  -1  -1    1.30    0.20
   5  -1  -1   32.83    0.83
   5  -1  -1   34.63    0.83
   5  -1  -1   33.32    0.92
   5  -1  -1   34.01    0.93
  -5   1   1   32.01    0.68
   4  -1  -1    1.02    0.14
   4  -1  -1    0.92    0.15
   4  -1  -1    0.86    0.13
   4  -1  -1    0.94    0.15
   3  -1  -1   24.62    0.63
   3  -1  -1   23.55    0.85
   3  -1  -1   25.68    0.86
   3  -1  -1   23.76    0.64
   3  -1  -1   23.13    0.64
   3  -1  -1   23.93    0.64
  -3   1   1   23.94    0.70
  -3   1   1   24.37    0.49
  -3   1   1   22.73    0.88
   2  -1  -1    2.98    0.17
   2  -1  -1    3.16    0.16
   2  -1  -1    2.84    0.18
   2  -1  -1    2.37    0.24
   2  -1  -1    2.67    0.17
   2  -1  -1    3.32    0.25
  -2   1   1    3.02    0.17
  -2   1   1    3.12    0.13
   1  -1  -1   29.56    0.62
   1  -1  -1   29.22    0.80
   1  -1  -1   30.78    0.73
   1  -1  -1   29.71    0.71
   1  -1  -1   29.75    0.72
   1  -1  -1   30.32    0.76
   1  -1  -1   29.48    0.61
  -1   1   1   30.78    0.72
  -1   1   1   29.93    0.59
  -1   1   1   29.56    0.66
  -1   1   1   30.15    0.60
  -1   1   1   30.75    0.62
  -1   1   1   30.30    0.80
  -1   1   1   29.88    0.61
  -1   1   1   30.00    0.59
   0  -1  -1    0.40    0.06
   0  -1  -1    0.24    0.06
   0  -1  -1    0.32    0.07
   0  -1  -1    0.36    0.06
   0  -1  -1    0.40    0.05
   0  -1  -1    0.39    0.05
   0  -1  -1    0.34    0.06
   0  -1  -1    0.44    0.05
   0  -1  -1    0.28    0.04
   0   1   1    0.36    0.07
   0   1   1    0.23    0.06
   0   1   1    0.41    0.05
   0   1   1    0.35    0.05
   0   1   1    0.36    0.05
   0   1   1    0.56    0.09
   0   1   1    0.33    0.05
   0   1   1    0.33    0.07
   0   1   1    0.33    0.05
  -1  -1  -1    0.02    0.03
  -1  -1  -1    0.06    0.03
  -1  -1  -1   -0.02    0.03
  -1  -1  -1    0.04    0.04
  -1  -1  -1    0.00    0.02
   1   1   1    0.06    0.04
   1   1   1    0.02    0.04
   1   1   1    0.01    0.03
  -2  -1  -1   47.60    0.89
   2   1   1   48.42    1.03
   2   1   1   47.68    1.03
   2   1   1   48.19    1.02
   3   1   1   19.54    0.51
   3   1   1   19.25    0.50
   3   1   1   19.31    0.57
   3   1   1   18.71    0.51
   4   1   1    0.89    0.11
   4   1   1    0.93    0.15
   4   1   1    0.71    0.12
   4   1   1    1.09    0.13
   5   1   1    2.04    0.25
   5   1   1    2.17    0.22
   5   1   1    1.59    0.15
   5   1   1    1.83    0.14
   5   1   1    1.82    0.14
   6   1   1    0.17    0.12
  -7  -1  -1    0.03    0.07
   7   1   1   -0.06    0.10
  -8  -1  -1    0.02    0.12
  -8  -1  -1    0.16    0.10
   8   1   1    0.08    0.15
  -9  -1  -1    0.32    0.20
   9   1   1   -0.04    0.18
   9  -2  -1    0.46    0.21
  -9   2   1   -0.01    0.19
   8  -2  -1    0.37    0.16
  -8   2   1   -0.21    0.13
   7  -2  -1    0.42    0.13
   7  -2  -1    0.33    0.15
  -7   2   1    0.25    0.13
   6  -2  -1    7.87    0.41
   6  -2  -1    6.78    0.41
  -6   2   1    6.82    0.37
   5  -2  -1   17.13    0.64
   5  -2  -1   17.16    0.65
   5  -2  -1   16.90    0.62
  -5   2   1   17.11    0.57
   4  -2  -1   10.18    0.63
   4  -2  -1   10.96    0.44
   4  -2  -1   11.32    0.49
   4  -2  -1   11.39    0.50
  -4   2   1   11.19    0.42
  -4   2   1   10.83    0.49
   3  -2  -1    1.94    0.27
   3  -2  -1    1.97    0.24
   3  -2  -1    2.17    0.23
   3  -2  -1    1.56    0.26
   3  -2  -1    2.10    0.24
   3  -2  -1    1.91    0.19
  -3   2   1    2.28    0.23
  -3   2   1    2.14    0.20
   2  -2  -1    3.21    0.24
   2  -2  -1    2.83    0.18
   2  -2  -1    2.95    0.18
   2  -2  -1    2.48    0.27
   2  -2  -1    3.14    0.29
   2  -2  -1    2.44    0.26
  -2   2   1    2.73    0.17
  -2   2   1    3.16    0.14
  -2   2   1    2.82    0.14
  -2   2   1    3.04    0.28
  -2   2   1    2.91    0.32
  -2   2   1    2.55    0.19
  -2   2   1    2.71    0.15
   1  -2  -1    1.60    0.20
   1  -2  -1    1.71    0.18
   1  -2  -1    1.71    0.20
   1  -2  -1    1.35    0.17
   1  -2  -1    1.43    0.13
   1  -2  -1    1.68    0.12
   1  -2  -1    1.82    0.13
   1  -2  -1    1.49    0.14
  -1   2   1    1.54    0.12
  -1   2   1    1.62    0.17
  -1   2   1    1.77    0.13
  -1   2   1    1.48    0.19
  -1   2   1    1.24    0.18
   0  -2  -1    8.99    0.38
   0  -2  -1    8.51    0.33
   0  -2  -1    8.63    0.31
   0  -2  -1    9.10    0.32
   0  -2  -1    8.41    0.27
   0  -2  -1    8.51    0.29
   0  -2  -1    8.85    0.28
   0  -2  -1    8.91    0.27
   0   2   1    8.46    0.29
   0   2   1    8.50    0.28
   0   2   1    8.96    0.38
   0   2   1    8.61    0.27
   0   2   1    8.37    0.34
  -1  -2  -1    0.56    0.07
  -1  -2  -1    0.69    0.10
  -1  -2  -1    0.85    0.07
  -1  -2  -1    0.79    0.13
  -1  -2  -1    0.74    0.09
  -1  -2  -1    0.85    0.08
  -1  -2  -1    1.02    0.16
  -1  -2  -1    0.70    0.05
   1   2   1    0.74    0.09
   1   2   1    0.62    0.12
   1   2   1    0.54    0.12
   1   2   1    0.63    0.09
  -2  -2  -1    7.16    0.27
  -2  -2  -1    6.46    0.25
  -2  -2  -1    7.48    0.30
  -2  -2  -1    6.90    0.28
   2   2   1    7.15    0.33
   2   2   1    6.90    0.29
   2   2   1    6.94    0.33
  -3  -2  -1   10.53    0.40
  -3  -2  -1   10.65    0.43
  -3  -2  -1   11.55    0.32
   3   2   1   10.85    0.41
   3   2   1   10.36    0.41
   3   2   1   11.64    0.43
  -4  -2  -1   14.22    0.38
  -4  -2  -1   14.55    0.52
   4   2   1   15.18    0.48
   4   2   1   14.05    0.50
   4   2   1   13.88    0.53
   4   2   1   14.30    0.48
  -5  -2  -1    0.14    0.09
  -5  -2  -1    0.19    0.10
  -5  -2  -1    0.14    0.05
   5   2   1   -0.08    0.08
   5   2   1    0.30    0.09
   5   2   1    0.09    0.08
   5   2   1    0.26    0.10
  -6  -2  -1    0.32    0.14
  -6  -2  -1    0.46    0.20
  -6  -2  -1    0.15    0.06
   6   2   1    0.27    0.08
   6   2   1    0.29    0.13
  -7  -2  -1    1.15    0.23
  -7  -2  -1    1.10    0.14
   7   2   1    0.67    0.19
  -8  -2  -1    0.17    0.14
  -8  -2  -1    0.08    0.09
   8   2   1   -0.10    0.13
   9  -3  -1   -0.09    0.11
   9  -3  -1    0.24    0.18
   8  -3  -1    0.16    0.14
   8  -3  -1    0.33    0.18
  -8   3   1    0.03    0.16
   7  -3  -1    0.09    0.11
   7  -3  -1    0.03    0.12
  -7   3   1    0.10    0.13
   6  -3  -1    1.03    0.23
   6  -3  -1    2.05    0.29
  -6   3   1    1.57    0.26
   5  -3  -1    0.01    0.10
   5  -3  -1    0.02    0.09
  -5   3   1    0.01    0.10
  -5   3   1    0.12    0.06
   4  -3  -1   36.59    1.16
   4  -3  -1   38.61    1.17
   4  -3  -1   37.64    1.02
   4  -3  -1   39.10    1.38
   4  -3  -1   37.49    1.07
  -4   3   1   38.40    0.89
  -4   3   1   35.99    1.05
  -4   3   1   37.26    0.86
  -4   3   1   37.89    0.82
   3  -3  -1   35.29    1.14
   3  -3  -1   35.11    0.96
   3  -3  -1   35.04    0.92
   3  -3  -1   36.58    1.10
   3  -3  -1   35.45    1.11
  -3   3   1   36.30    0.94
  -3   3   1   34.16    1.08
  -3   3   1   34.22    0.99
  -3   3   1   33.86    0.84
  -3   3   1   35.48    0.82
   2  -3  -1   17.17    0.54
   2  -3  -1   17.51    0.57
   2  -3  -1   17.41    0.71
   2  -3  -1   17.14    0.46
   2  -3  -1   17.68    0.66
   2  -3  -1   17.58    0.70
  -2   3   1   18.36    0.56
  -2   3   1   16.97    0.68
  -2   3   1   16.82    0.70
  -2   3   1   17.94    0.54
  -2   3   1   18.35    0.64
  -2   3   1   17.31    0.51
   1  -3  -1   11.64    0.50
   1  -3  -1   12.74    0.46
   1  -3  -1   12.38    0.56
   1  -3  -1   11.89    0.51
   1  -3  -1   12.15    0.46
   1  -3  -1   12.57    0.42
   1  -3  -1   12.38    0.43
   1  -3  -1   12.49    0.41
  -1   3   1   12.26    0.55
  -1   3   1   11.86    0.40
  -1   3   1   12.14    0.50
  -1   3   1   12.68    0.43
   0  -3  -1    8.73    0.34
   0  -3  -1    8.28    0.35
   0  -3  -1    8.83    0.30
   0  -3  -1    8.81    0.46
   0  -3  -1    9.49    0.42
   0  -3  -1    9.06    0.33
   0  -3  -1    8.68    0.32
   0  -3  -1    8.54    0.37
   0   3   1    8.12    0.44
   0   3   1    9.33    0.33
   0   3   1    9.04    0.30
   0   3   1   10.05    0.43
   0   3   1    8.54    0.32
  -1  -3  -1    0.46    0.09
  -1  -3  -1    0.36    0.07
  -1  -3  -1    0.41    0.09
  -1  -3  -1    0.61    0.14
  -1  -3  -1    0.45    0.11
  -1  -3  -1    0.41    0.06
  -1  -3  -1    0.10    0.09
  -1  -3  -1    0.51    0.08
   1   3   1    0.53    0.15
   1   3   1    0.39    0.13
   1   3   1    0.35    0.09
  -2  -3  -1    1.06    0.10
  -2  -3  -1    1.56    0.21
  -2  -3  -1    0.86    0.14
  -2  -3  -1    1.32    0.11
  -2  -3  -1    1.19    0.08
  -2  -3  -1    0.99    0.06
  -2  -3  -1    1.25    0.16
   2   3   1    0.88    0.18
   2   3   1    1.42    0.17
   2   3   1    1.45    0.22
  -3  -3  -1    0.05    0.06
  -3  -3  -1    0.08    0.07
  -3  -3  -1    0.12    0.09
  -3  -3  -1    0.12    0.07
   3   3   1    0.19    0.09
   3   3   1    0.08    0.09
   3   3   1    0.08    0.09
  -4  -3  -1   23.48    0.65
  -4  -3  -1   23.02    0.73
  -4  -3  -1   24.53    0.74
   4   3   1   23.20    0.75
   4   3   1   23.16    0.79
   4   3   1   22.57    0.75
  -5  -3  -1    4.02    0.24
  -5  -3  -1    3.41    0.32
   5   3   1    4.32    0.31
   5   3   1    4.52    0.29
   5   3   1    4.60    0.33
  -6  -3  -1    0.27    0.13
  -6  -3  -1    0.71    0.13
   6   3   1    0.25    0.14
   6   3   1    0.53    0.13
  -7  -3  -1    0.07    0.12
  -7  -3  -1    0.01    0.09
   7   3   1   -0.11    0.11
  -8  -3  -1    0.04    0.11
  -8  -3  -1    0.09    0.16
   8   3   1   -0.28    0.13
   9  -4  -1    0.00    0.18
   9  -4  -1    0.32    0.18
   8  -4  -1    0.48    0.20
   8  -4  -1    0.25    0.19
  -8   4   1    0.15    0.22
   7  -4  -1    0.22    0.16
   7  -4  -1    0.12    0.12
  -7   4   1   -0.19    0.14
  -7   4   1    0.07    0.10
   6  -4  -1    0.29    0.15
   6  -4  -1    0.17    0.18
  -6   4   1    0.28    0.16
  -6   4   1    0.26    0.12
   5  -4  -1    4.74    0.45
   5  -4  -1    5.04    0.53
   5  -4  -1    4.82    0.43
   5  -4  -1    5.24    0.61
  -5   4   1    4.83    0.48
  -5   4   1    4.42    0.27
  -5   4   1    4.70    0.30
   4  -4  -1    1.29    0.32
   4  -4  -1    0.92    0.18
   4  -4  -1    0.90    0.24
   4  -4  -1    0.90    0.19
  -4   4   1    1.33    0.20
  -4   4   1    1.33    0.26
  -4   4   1    1.28    0.18
   3  -4  -1    2.17    0.32
   3  -4  -1    2.98    0.31
   3  -4  -1    2.87    0.28
   3  -4  -1    2.45    0.35
  -3   4   1    2.85    0.22
  -3   4   1    2.60    0.39
  -3   4   1    2.46    0.32
  -3   4   1    2.89    0.29
  -3   4   1    2.50    0.26
   2  -4  -1   28.94    1.04
   2  -4  -1   30.31    1.08
   2  -4  -1   29.11    0.89
   2  -4  -1   31.70    0.86
   2  -4  -1   29.76    0.81
   2  -4  -1   30.82    0.98
   2  -4  -1   31.71    0.79
  -2   4   1   30.24    1.04
  -2   4   1   30.46    0.87
  -2   4   1   30.19    0.98
  -2   4   1   30.84    1.08
  -2   4   1   29.85    0.82
   1  -4  -1    2.34    0.25
   1  -4  -1    2.87    0.26
   1  -4  -1    2.17    0.24
   1  -4  -1    2.04    0.27
   1  -4  -1    2.02    0.26
   1  -4  -1    2.25    0.23
   1  -4  -1    2.75    0.37
   1  -4  -1    2.38    0.28
  -1   4   1    2.24    0.24
  -1   4   1    2.65    0.24
  -1   4   1    2.04    0.27
  -1   4   1    1.90    0.30
  -1   4   1    2.10    0.24
   0  -4  -1    0.18    0.09
   0  -4  -1   -0.02    0.06
   0  -4  -1   -0.01    0.06
   0  -4  -1    0.18    0.12
   0  -4  -1    0.00    0.08
   0  -4  -1    0.17    0.06
   0  -4  -1    0.07    0.07
   0  -4  -1    0.08    0.07
   0   4   1   -0.04    0.08
   0   4   1    0.01    0.05
   0   4   1    0.29    0.08
   0   4   1    0.12    0.09
  -1  -4  -1    7.18    0.34
  -1  -4  -1    7.15    0.33
  -1  -4  -1    7.40    0.31
  -1  -4  -1    6.45    0.46
  -1  -4  -1    7.45    0.32
  -1  -4  -1    6.99    0.40
  -1  -4  -1    7.09    0.22
   1   4   1    6.68    0.46
   1   4   1    7.21    0.47
   1   4   1    7.59    0.38
   1   4   1    7.29    0.21
  -2  -4  -1    0.02    0.06
  -2  -4  -1   -0.04    0.04
  -2  -4  -1   -0.06    0.07
  -2  -4  -1    0.06    0.10
  -2  -4  -1   -0.03    0.03
  -2  -4  -1   -0.02    0.04
   2   4   1    0.07    0.10
   2   4   1   -0.02    0.12
  -3  -4  -1    4.41    0.19
  -3  -4  -1    4.06    0.29
  -3  -4  -1    3.92    0.28
   3   4   1    3.97    0.41
  -4  -4  -1    0.00    0.07
  -4  -4  -1   -0.03    0.07
   4   4   1    0.10    0.08
   4   4   1    0.00    0.10
  -5  -4  -1    3.44    0.32
  -5  -4  -1    2.30    0.28
   5   4   1    3.10    0.36
   5   4   1    2.65    0.31
  -6  -4  -1   -0.12    0.11
  -6  -4  -1    0.16    0.11
   6   4   1    0.09    0.13
   6   4   1    0.33    0.16
  -7  -4  -1    0.14    0.15
  -7  -4  -1    0.08    0.12
   7   4   1   -0.05    0.13
  -8  -4  -1    0.14    0.20
   8   4   1    0.40    0.21
   9  -5  -1    0.49    0.24
   8  -5  -1   -0.03    0.19
   8  -5  -1    0.00    0.16
  -8   5   1    0.21    0.24
  -8   5   1   -0.12    0.17
   7  -5  -1    0.48    0.23
   7  -5  -1    0.48    0.19
  -7   5   1    0.14    0.20
  -7   5   1    0.52    0.19
   6  -5  -1    0.46    0.22
   6  -5  -1   -0.02    0.11
  -6   5   1    0.03    0.11
  -6   5   1   -0.06    0.15
   5  -5  -1   -0.07    0.09
   5  -5  -1    0.15    0.18
   5  -5  -1   -0.03    0.15
  -5   5   1    0.08    0.11
  -5   5   1   -0.12    0.13
  -5   5   1   -0.08    0.10
   4  -5  -1    1.04    0.30
   4  -5  -1    2.02    0.31
   4  -5  -1    1.84    0.37
   4  -5  -1    1.51    0.26
  -4   5   1    1.31    0.24
  -4   5   1    1.39    0.30
  -4   5   1    1.76    0.25
   3  -5  -1    0.06    0.11
   3  -5  -1    0.02    0.11
   3  -5  -1   -0.17    0.12
   3  -5  -1    0.03    0.08
  -3   5   1   -0.01    0.10
  -3   5   1   -0.01    0.08
  -3   5   1    0.03    0.08
   2  -5  -1    0.64    0.18
   2  -5  -1    1.05    0.18
   2  -5  -1    0.48    0.18
   2  -5  -1    0.86    0.24
   2  -5  -1    0.65    0.15
   2  -5  -1    0.60    0.14
  -2   5   1    0.65    0.21
  -2   5   1    0.85    0.16
  -2   5   1    1.18    0.28
  -2   5   1    0.91    0.19
   1  -5  -1   50.49    1.33
   1  -5  -1   47.00    1.26
   1  -5  -1   50.34    1.46
   1  -5  -1   51.93    1.30
   1  -5  -1   48.56    1.25
   1  -5  -1   51.26    1.61
   1  -5  -1   53.41    1.44
   1  -5  -1   50.33    1.44
  -1   5   1   49.64    1.34
  -1   5   1   50.23    1.28
  -1   5   1   48.51    1.57
  -1   5   1   51.78    1.24
  -1   5   1   50.60    1.46
   0  -5  -1   11.58    0.53
   0  -5  -1   12.45    0.42
   0  -5  -1   12.01    0.50
   0  -5  -1   12.34    0.57
   0  -5  -1   12.23    0.61
   0  -5  -1   11.36    0.61
   0  -5  -1   13.88    0.74
   0  -5  -1   11.80    0.50
   0  -5  -1   12.05    0.51
   0   5   1   11.09    0.57
   0   5   1   11.29    0.39
   0   5   1   11.91    0.68
  -1  -5  -1    0.22    0.10
  -1  -5  -1    0.09    0.07
  -1  -5  -1   -0.04    0.07
  -1  -5  -1    0.08    0.11
  -1  -5  -1    0.12    0.08
  -1  -5  -1    0.23    0.09
   1   5   1    0.13    0.13
  -2  -5  -1   -0.06    0.07
  -2  -5  -1   -0.13    0.07
  -2  -5  -1    0.03    0.06
  -2  -5  -1    0.07    0.07
   2   5   1    0.01    0.12
  -3  -5  -1    0.32    0.10
  -3  -5  -1    0.26    0.13
  -3  -5  -1    0.29    0.12
   3   5   1    0.44    0.19
  -4  -5  -1    1.22    0.24
  -4  -5  -1    1.15    0.22
  -4  -5  -1    1.17    0.15
   4   5   1    1.51    0.29
  -5  -5  -1    0.10    0.13
  -5  -5  -1    0.22    0.14
   5   5   1    0.20    0.17
  -6  -5  -1    0.66    0.21
  -6  -5  -1    0.94    0.23
   6   5   1    0.87    0.25
  -7  -5  -1    2.76    0.41
   7   5   1    2.20    0.27
   8  -6  -1    8.90    0.90
   8  -6  -1    9.01    0.65
   7  -6  -1    0.65    0.24
   7  -6  -1    0.76    0.32
  -7   6   1    0.63    0.29
  -7   6   1    0.85    0.27
   6  -6  -1    0.25    0.24
   6  -6  -1   -0.26    0.23
   6  -6  -1    0.33    0.20
  -6   6   1   -0.17    0.13
  -6   6   1    0.07    0.16
  -6   6   1   -0.01    0.18
   5  -6  -1    0.31    0.23
   5  -6  -1    0.21    0.15
   5  -6  -1    0.27    0.25
  -5   6   1    0.62    0.27
  -5   6   1    0.22    0.18
  -5   6   1    0.40    0.17
   4  -6  -1   -0.16    0.14
   4  -6  -1    0.01    0.17
   4  -6  -1    0.18    0.13
  -4   6   1   -0.09    0.15
  -4   6   1   -0.06    0.11
  -4   6   1   -0.05    0.12
   3  -6  -1    5.36    0.60
   3  -6  -1    5.27    0.40
   3  -6  -1    6.10    0.46
   3  -6  -1    5.86    0.68
  -3   6   1    5.85    0.39
  -3   6   1    7.85    0.73
  -3   6   1    5.86    0.42
   2  -6  -1    2.42    0.44
   2  -6  -1    2.46    0.31
   2  -6  -1    2.40    0.38
   2  -6  -1    2.36    0.35
   2  -6  -1    3.01    0.34
   2  -6  -1    3.65    0.36
  -2   6   1    2.84    0.34
  -2   6   1    3.27    0.52
  -2   6   1    2.95    0.32
  -2   6   1    2.46    0.40
   1  -6  -1    1.86    0.34
   1  -6  -1    1.70    0.27
   1  -6  -1    1.95    0.41
   1  -6  -1    1.81    0.32
   1  -6  -1    2.21    0.29
   1  -6  -1    1.65    0.28
  -1   6   1    1.89    0.25
  -1   6   1    2.00    0.38
  -1   6   1    2.04    0.25
   0  -6  -1    0.41    0.16
   0  -6  -1    0.47    0.14
   0  -6  -1    0.22    0.13
   0  -6  -1    0.12    0.11
   0  -6  -1    0.20    0.15
   0  -6  -1    0.30    0.14
   0   6   1    0.34    0.09
   0   6   1    0.52    0.24
  -1  -6  -1    0.08    0.13
  -1  -6  -1   -0.03    0.08
  -1  -6  -1   -0.09    0.09
  -1  -6  -1    0.12    0.10
  -1  -6  -1   -0.04    0.08
   1   6   1    0.16    0.15
  -2  -6  -1    1.82    0.25
  -2  -6  -1    2.26    0.30
  -2  -6  -1    2.30    0.37
  -2  -6  -1    2.02    0.27
  -2  -6  -1    2.65    0.29
   2   6   1    1.99    0.37
  -3  -6  -1    0.06    0.13
  -3  -6  -1   -0.02    0.08
  -3  -6  -1   -0.04    0.08
  -3  -6  -1    0.02    0.12
   3   6   1    0.07    0.16
  -4  -6  -1    0.20    0.14
  -4  -6  -1    0.16    0.14
  -4  -6  -1   -0.03    0.08
   4   6   1    0.10    0.17
  -5  -6  -1   -0.15    0.09
  -5  -6  -1    0.11    0.16
  -5  -6  -1    0.03    0.13
   5   6   1    0.20    0.20
  -6  -6  -1    0.71    0.22
  -6  -6  -1    0.84    0.29
   6   6   1    0.82    0.29
   8  -7  -1    0.31    0.22
   7  -7  -1   20.32    0.98
   7  -7  -1   20.37    1.21
  -7   7   1   19.73    0.91
  -7   7   1   19.12    1.17
   6  -7  -1    0.70    0.24
   6  -7  -1    0.70    0.37
   6  -7  -1    0.45    0.35
  -6   7   1    0.65    0.33
  -6   7   1    1.33    0.29
  -6   7   1    0.51    0.23
   5  -7  -1    0.00    0.24
   5  -7  -1    0.35    0.20
   5  -7  -1    0.07    0.24
  -5   7   1   -0.05    0.20
  -5   7   1    0.03    0.16
  -5   7   1   -0.08    0.15
   4  -7  -1    0.81    0.31
   4  -7  -1    0.08    0.21
   4  -7  -1    0.59    0.22
  -4   7   1    0.59    0.21
  -4   7   1    0.63    0.22
  -4   7   1    0.96    0.32
   3  -7  -1    0.22    0.24
   3  -7  -1    0.53    0.23
   3  -7  -1    0.37    0.18
  -3   7   1    0.53    0.19
  -3   7   1    0.72    0.22
  -3   7   1    0.25    0.23
   2  -7  -1    0.24    0.14
   2  -7  -1    0.10    0.16
   2  -7  -1    0.22    0.20
   2  -7  -1   -0.05    0.11
  -2   7   1    0.23    0.13
  -2   7   1    0.49    0.18
   1  -7  -1    2.37    0.33
   1  -7  -1    2.70    0.37
   1  -7  -1    2.35    0.40
   1  -7  -1    2.08    0.37
   1  -7  -1    2.17    0.35
  -1   7   1    2.94    0.53
  -1   7   1    2.92    0.29
   0  -7  -1   13.47    0.80
   0  -7  -1   13.38    0.72
   0  -7  -1   12.50    0.64
   0  -7  -1   12.32    0.67
   0  -7  -1   13.18    0.64
   0   7   1   14.46    0.91
  -1  -7  -1   22.94    0.93
  -1  -7  -1   23.80    0.88
  -1  -7  -1   22.01    0.86
  -1  -7  -1   23.01    1.11
   1   7   1   23.04    1.17
  -2  -7  -1    0.45    0.17
  -2  -7  -1    0.32    0.17
  -2  -7  -1    0.35    0.17
  -2  -7  -1    0.04    0.17
   2   7   1    0.76    0.29
  -3  -7  -1    0.43    0.16
  -3  -7  -1    0.65    0.21
  -3  -7  -1    0.57    0.26
  -3  -7  -1    0.47    0.18
   3   7   1    0.43    0.23
  -4  -7  -1    0.48    0.25
  -4  -7  -1    0.27    0.17
  -4  -7  -1    0.15    0.16
   4   7   1    0.26    0.27
  -5  -7  -1    0.07    0.23
  -5  -7  -1   -0.12    0.16
   5   7   1   -0.08    0.22
   7  -8  -1   -0.23    0.16
   7  -8  -1    0.13    0.30
  -7   8   1   -0.07    0.33
   6  -8  -1    1.10    0.43
   6  -8  -1    2.37    0.42
  -6   8   1    1.26    0.34
  -6   8   1    1.35    0.43
   5  -8  -1    0.10    0.19
   5  -8  -1    0.04    0.29
   5  -8  -1    0.28    0.28
  -5   8   1    0.13    0.19
  -5   8   1    0.05    0.27
  -5   8   1    0.15    0.18
   4  -8  -1    0.02    0.14
   4  -8  -1   -0.39    0.20
   4  -8  -1   -0.14    0.24
  -4   8   1   -0.06    0.18
  -4   8   1    0.00    0.17
   3  -8  -1    0.49    0.20
   3  -8  -1    0.48    0.25
  -3   8   1    1.18    0.29
  -3   8   1    0.22    0.16
   2  -8  -1    0.56    0.31
   2  -8  -1    0.82    0.23
   2  -8  -1    1.16    0.28
  -2   8   1    0.68    0.21
   1  -8  -1   -0.02    0.18
   1  -8  -1   -0.01    0.11
   1  -8  -1    0.03    0.15
   1  -8  -1   -0.10    0.12
   0  -8  -1    0.07    0.15
   0  -8  -1    0.01    0.11
   0  -8  -1    0.09    0.22
   0  -8  -1    0.16    0.17
   0   8   1   -0.02    0.22
  -1  -8  -1   18.94    0.87
  -1  -8  -1   19.40    0.86
  -1  -8  -1   18.98    0.93
   1   8   1   20.41    1.21
  -2  -8  -1    0.00    0.13
  -2  -8  -1    0.05    0.13
  -2  -8  -1   -0.07    0.13
   2   8   1    0.04    0.26
  -3  -8  -1    0.70    0.33
  -3  -8  -1    0.44    0.21
  -3  -8  -1    0.67    0.22
   3   8   1    0.50    0.30
  -4  -8  -1    0.02    0.22
  -4  -8  -1   -0.29    0.15
   4   8   1   -0.14    0.28
   6  -9  -1    4.42    0.61
   6  -9  -1    5.16    0.88
   5  -9  -1   18.00    0.97
   4  -9  -1   -0.04    0.33
   4  -9  -1    0.03    0.19
  -4   9   1   -0.16    0.17
   3  -9  -1    0.54    0.24
  -3   9   1    0.25    0.19
   2  -9  -1    0.03    0.17
   2  -9  -1    0.10    0.20
   1  -9  -1   -0.02    0.17
   1  -9  -1   -0.02    0.15
   0  -9  -1    0.14    0.19
   0  -9  -1   -0.06    0.18
   0  -9  -1    0.05    0.17
  -1  -9  -1   -0.06    0.14
  -1  -9  -1   -0.06    0.19
  -1  -9  -1    0.03    0.17
   1   9   1   -0.25    0.26
  -2  -9  -1    0.65    0.23
  -2  -9  -1    0.19    0.22
   2   9   1   -0.09    0.30
  -3  -9  -1   13.53    0.81
   3   9   1   12.08    1.21
   4 -10  -1    0.67    0.31
   3 -10  -1    0.40    0.27
   2 -10  -1    0.09    0.23
   1 -10  -1   -0.13    0.16
   0 -10  -1    0.22    0.22
  -1 -10  -1    0.09    0.23
   1  10   1    0.21    0.46
   2  10  -2   -0.23    0.34
  -2 -10   2   -0.07    0.21
   1  10  -2    2.20    0.61
  -1 -10   2    3.00    0.49
   0 -10   2    9.45    0.71
   1 -10   2    0.12    0.21
   1 -10   2    0.21    0.22
   2 -10   2    0.01    0.20
   2 -10   2   -0.11    0.20
   3 -10   2   -0.14    0.18
   4 -10   2   -0.12    0.18
   5 -10   2   -0.33    0.19
  -4  -9   2   -0.05    0.19
   3   9  -2    0.12    0.30
  -3  -9   2    0.28    0.19
  -3  -9   2    0.29    0.22
   2   9  -2   -0.41    0.26
  -2  -9   2   -0.07    0.18
  -2  -9   2   -0.19    0.16
   1   9  -2    0.98    0.41
  -1  -9   2    0.85    0.26
  -1  -9   2    1.24    0.32
  -1  -9   2    0.66    0.23
   0   9  -2   13.79    1.29
   0  -9   2   14.54    0.81
   0  -9   2   13.05    0.75
   0  -9   2   13.27    0.81
   1  -9   2    0.21    0.18
   1  -9   2    0.22    0.18
   1  -9   2    0.02    0.16
   2  -9   2    0.35    0.18
   2  -9   2   -0.10    0.15
  -3   9  -2    0.00    0.16
   3  -9   2    0.11    0.18
  -4   9  -2    0.22    0.19
   4  -9   2    0.09    0.17
   5  -9   2    0.36    0.25
   6  -9   2    0.15    0.23
   6  -9   2    0.31    0.37
  -5  -8   2    0.63    0.25
   4   8  -2    0.26    0.26
  -4  -8   2    0.06    0.18
   3   8  -2   -0.21    0.22
  -3  -8   2   -0.09    0.13
  -3  -8   2   -0.13    0.13
  -3  -8   2    0.04    0.14
   2   8  -2    0.80    0.32
  -2  -8   2    0.63    0.22
  -2  -8   2    0.35    0.20
  -2  -8   2    0.62    0.20
   1   8  -2    0.15    0.23
  -1  -8   2   -0.06    0.12
  -1  -8   2    0.25    0.28
  -1  -8   2    0.08    0.13
  -1  -8   2    0.08    0.15
   0   8  -2    0.19    0.21
   0  -8   2   -0.01    0.13
   0  -8   2    0.19    0.20
   0  -8   2    0.15    0.16
   0  -8   2    0.15    0.15
  -1   8  -2    5.15    0.73
   1  -8   2    4.16    0.60
   1  -8   2    6.02    0.56
   1  -8   2    4.69    0.51
   1  -8   2    4.84    0.51
  -2   8  -2    7.52    0.46
   2  -8   2    9.16    0.60
   2  -8   2    9.98    0.75
   2  -8   2    8.76    0.55
  -3   8  -2    0.28    0.17
  -3   8  -2    0.05    0.16
   3  -8   2    0.26    0.20
   3  -8   2    0.56    0.26
   3  -8   2    0.15    0.16
  -4   8  -2    0.73    0.24
  -4   8  -2    1.14    0.29
   4  -8   2    1.17    0.40
   4  -8   2    1.12    0.30
   4  -8   2    1.42    0.43
  -5   8  -2    0.15    0.19
  -5   8  -2   -0.05    0.15
  -5   8  -2    0.11    0.24
   5  -8   2   -0.11    0.17
   5  -8   2   -0.07    0.25
  -6   8  -2   -0.01    0.27
  -6   8  -2   -0.22    0.19
   6  -8   2    0.23    0.27
   6  -8   2   -0.10    0.16
  -7   8  -2   -0.16    0.28
   7  -8   2   -0.21    0.26
   7  -8   2   -0.13    0.19
  -6  -7   2    2.53    0.39
   5   7  -2    4.83    0.59
  -5  -7   2    6.71    0.59
  -5  -7   2    6.78    0.45
   4   7  -2    2.17    0.43
  -4  -7   2    3.06    0.39
  -4  -7   2    2.45    0.33
   3   7  -2    0.08    0.17
  -3  -7   2    0.00    0.11
  -3  -7   2   -0.10    0.10
  -3  -7   2   -0.01    0.09
   2   7  -2    0.03    0.19
  -2  -7   2   -0.05    0.11
  -2  -7   2   -0.14    0.09
  -2  -7   2    0.07    0.11
  -2  -7   2    0.08    0.18
   1   7  -2    0.27    0.20
  -1  -7   2    0.70    0.19
  -1  -7   2    1.12    0.32
  -1  -7   2    0.98    0.22
  -1  -7   2    0.68    0.20
   0   7  -2    0.82    0.28
   0  -7   2    0.31    0.15
   0  -7   2    0.06    0.13
   0  -7   2    0.10    0.13
   0  -7   2    0.21    0.19
  -1   7  -2    4.16    0.28
  -1   7  -2    3.38    0.53
   1  -7   2    3.66    0.39
   1  -7   2    3.72    0.42
   1  -7   2    4.31    0.45
   1  -7   2    4.15    0.55
   1  -7   2    3.70    0.42
  -2   7  -2    1.31    0.23
  -2   7  -2    1.57    0.27
   2  -7   2    0.97    0.23
   2  -7   2    0.89    0.29
   2  -7   2    0.80    0.20
   2  -7   2    1.08    0.29
   2  -7   2    1.23    0.26
   2  -7   2    1.19    0.35
  -3   7  -2    9.35    0.55
  -3   7  -2   10.59    0.71
  -3   7  -2   10.35    0.54
   3  -7   2   11.25    0.75
   3  -7   2    9.05    0.56
   3  -7   2    9.32    0.92
   3  -7   2    9.77    0.71
  -4   7  -2   -0.09    0.16
  -4   7  -2   -0.14    0.12
  -4   7  -2   -0.06    0.12
   4  -7   2    0.00    0.20
   4  -7   2   -0.01    0.11
   4  -7   2    0.19    0.19
   4  -7   2    0.30    0.22
  -5   7  -2    0.66    0.22
  -5   7  -2    0.82    0.24
  -5   7  -2    1.32    0.34
   5  -7   2    0.67    0.22
   5  -7   2    1.02    0.35
  -6   7  -2   -0.08    0.17
  -6   7  -2    0.29    0.24
  -6   7  -2   -0.09    0.18
   6  -7   2    0.05    0.21
   6  -7   2   -0.21    0.14
  -7   7  -2    0.09    0.22
  -7   7  -2   -0.10    0.28
   7  -7   2   -0.02    0.20
   7  -7   2    0.62    0.34
   8  -7   2    0.44    0.27
  -7  -6   2    0.09    0.18
   6   6  -2   -0.10    0.16
  -6  -6   2   -0.02    0.14
  -6  -6   2    0.13    0.17
   5   6  -2    3.26    0.45
  -5  -6   2    3.52    0.40
  -5  -6   2    4.25    0.49
   4   6  -2   14.16    0.80
  -4  -6   2   15.14    0.55
  -4  -6   2   14.60    0.73
  -4  -6   2   15.52    0.68
   3   6  -2    1.15    0.30
  -3  -6   2    0.81    0.22
  -3  -6   2    0.92    0.18
  -3  -6   2    1.39    0.24
   2   6  -2   -0.10    0.14
  -2  -6   2   -0.03    0.13
  -2  -6   2    0.02    0.09
  -2  -6   2   -0.03    0.08
  -2  -6   2    0.01    0.08
   1   6  -2    1.25    0.32
  -1  -6   2    1.26    0.22
  -1  -6   2    0.78    0.18
  -1  -6   2    1.45    0.22
  -1  -6   2    1.07    0.27
   0   6  -2    0.97    0.11
   0   6  -2    0.79    0.27
   0  -6   2    0.61    0.21
   0  -6   2    0.94    0.20
   0  -6   2    0.98    0.21
   0  -6   2    0.86    0.18
   0  -6   2    1.22    0.22
  -1   6  -2   -0.05    0.12
  -1   6  -2    0.06    0.11
  -1   6  -2   -0.06    0.08
  -1   6  -2   -0.10    0.07
   1  -6   2    0.00    0.13
   1  -6   2    0.10    0.09
   1  -6   2   -0.04    0.07
   1  -6   2    0.21    0.10
   1  -6   2   -0.03    0.12
   1  -6   2    0.00    0.09
  -2   6  -2    2.70    0.30
  -2   6  -2    3.16    0.51
  -2   6  -2    3.11    0.34
  -2   6  -2    2.59    0.38
   2  -6   2    2.65    0.41
   2  -6   2    3.16    0.33
   2  -6   2    2.93    0.40
   2  -6   2    2.71    0.44
   2  -6   2    2.60    0.32
   2  -6   2    3.28    0.36
  -3   6  -2    7.79    0.56
  -3   6  -2    7.45    0.45
  -3   6  -2    7.47    0.47
   3  -6   2    8.54    0.50
   3  -6   2    7.24    0.73
   3  -6   2    7.24    0.57
   3  -6   2    7.83    0.34
   3  -6   2    7.37    0.68
  -4   6  -2   24.16    0.91
  -4   6  -2   22.45    0.84
  -4   6  -2   25.45    1.07
   4  -6   2   25.70    1.08
   4  -6   2   24.80    1.16
   4  -6   2   24.16    0.93
  -5   6  -2    0.59    0.21
  -5   6  -2    1.10    0.30
  -5   6  -2    0.75    0.21
   5  -6   2    0.88    0.26
   5  -6   2    0.94    0.23
   5  -6   2    0.60    0.25
  -6   6  -2    0.01    0.16
  -6   6  -2   -0.07    0.14
  -6   6  -2    0.00    0.20
   6  -6   2    0.20    0.17
   6  -6   2   -0.16    0.17
  -7   6  -2    0.61    0.28
  -7   6  -2    0.25    0.20
   7  -6   2    0.40    0.26
   7  -6   2    0.22    0.16
   8  -6   2   -0.07    0.19
   8  -6   2   -0.06    0.24
  -7  -5   2    0.01    0.14
  -7  -5   2    0.22    0.15
   6   5  -2    0.29    0.16
   6   5  -2   -0.01    0.12
  -6  -5   2    0.09    0.13
  -6  -5   2    0.19    0.12
   5   5  -2    0.92    0.19
   5   5  -2    0.81    0.21
  -5  -5   2    1.01    0.21
  -5  -5   2    0.65    0.19
   4   5  -2   -0.01    0.11
  -4  -5   2    0.04    0.09
  -4  -5   2   -0.02    0.09
   3   5  -2    7.74    0.53
  -3  -5   2    8.02    0.32
  -3  -5   2    6.93    0.45
  -3  -5   2    8.07    0.42
   2   5  -2    3.18    0.42
  -2  -5   2    2.50    0.19
  -2  -5   2    2.52    0.26
  -2  -5   2    2.75    0.26
  -2  -5   2    2.33    0.30
  -2  -5   2    2.52    0.19
   1   5  -2    0.91    0.26
  -1  -5   2    0.66    0.14
  -1  -5   2    0.81    0.16
  -1  -5   2    0.66    0.14
  -1  -5   2    0.79    0.20
  -1  -5   2    0.64    0.12
   0   5  -2    4.84    0.35
   0   5  -2    4.42    0.19
   0   5  -2    4.50    0.21
   0   5  -2    4.59    0.23
   0   5  -2    4.95    0.55
   0   5  -2    4.43    0.18
   0  -5   2    4.12    0.28
   0  -5   2    5.38    0.56
   0  -5   2    4.40    0.31
   0  -5   2    4.40    0.29
   0  -5   2    3.28    0.39
   0  -5   2    4.55    0.29
  -1   5  -2    1.65    0.27
  -1   5  -2    0.92    0.25
  -1   5  -2    1.64    0.19
  -1   5  -2    1.27    0.19
   1  -5   2    1.77    0.23
   1  -5   2    1.67    0.22
   1  -5   2    1.78    0.24
   1  -5   2    2.05    0.29
   1  -5   2    1.73    0.30
   1  -5   2    1.23    0.27
  -2   5  -2    5.66    0.47
  -2   5  -2    5.30    0.41
  -2   5  -2    6.08    0.63
  -2   5  -2    6.88    0.38
  -2   5  -2    5.68    0.33
   2  -5   2    5.66    0.54
   2  -5   2    5.43    0.55
   2  -5   2    6.04    0.35
   2  -5   2    5.82    0.33
   2  -5   2    5.21    0.35
   2  -5   2    5.41    0.42
  -3   5  -2    0.09    0.12
  -3   5  -2    0.07    0.09
  -3   5  -2   -0.02    0.08
   3  -5   2    0.27    0.12
   3  -5   2    0.05    0.11
   3  -5   2   -0.05    0.09
   3  -5   2    0.08    0.14
  -4   5  -2   15.52    0.77
  -4   5  -2   15.66    0.60
  -4   5  -2   15.49    0.64
   4  -5   2   14.14    0.80
   4  -5   2   14.83    0.66
   4  -5   2   15.22    0.78
  -5   5  -2    2.26    0.30
  -5   5  -2    2.76    0.32
  -5   5  -2    2.42    0.36
   5  -5   2    3.25    0.46
   5  -5   2    2.51    0.35
   5  -5   2    3.28    0.45
  -6   5  -2    1.34    0.30
  -6   5  -2    1.74    0.29
  -6   5  -2    1.42    0.24
   6  -5   2    1.44    0.32
   6  -5   2    1.74    0.36
   6  -5   2    1.31    0.27
  -7   5  -2    0.13    0.20
  -7   5  -2    0.36    0.18
   7  -5   2    0.02    0.16
   7  -5   2    0.01    0.19
  -8   5  -2    0.24    0.27
  -8   5  -2    0.83    0.25
   8  -5   2    0.15    0.20
   8  -5   2    0.96    0.32
   9  -5   2    0.05    0.20
  -8  -4   2   -0.17    0.14
  -8  -4   2   -0.01    0.14
   7   4  -2    0.61    0.18
  -7  -4   2    0.72    0.16
  -7  -4   2    0.24    0.15
   6   4  -2   -0.01    0.07
   6   4  -2   -0.13    0.11
   6   4  -2   -0.06    0.09
  -6  -4   2   -0.13    0.07
  -6  -4   2    0.09    0.11
   5   4  -2    0.13    0.10
   5   4  -2    0.10    0.11
  -5  -4   2    0.00    0.08
  -5  -4   2    0.12    0.08
   4   4  -2    4.18    0.39
  -4  -4   2    3.92    0.28
  -4  -4   2    4.11    0.27
   3   4  -2    2.82    0.34
   3   4  -2    2.48    0.30
  -3  -4   2    2.81    0.28
  -3  -4   2    3.03    0.28
  -3  -4   2    3.23    0.22
   2   4  -2   29.44    1.01
   2   4  -2   29.94    0.99
  -2  -4   2   29.12    0.81
  -2  -4   2   29.04    0.65
  -2  -4   2   28.13    0.87
  -2  -4   2   31.60    0.91
  -2  -4   2   29.33    0.70
  -2  -4   2   30.94    0.71
   1   4  -2   11.41    0.42
   1   4  -2   11.66    0.58
   1   4  -2   10.75    0.58
  -1  -4   2   10.69    0.36
  -1  -4   2   10.89    0.38
  -1  -4   2   11.48    0.43
  -1  -4   2   10.75    0.41
  -1  -4   2   10.60    0.55
   0   4  -2    0.01    0.04
   0   4  -2    0.02    0.04
   0   4  -2    0.03    0.11
   0   4  -2    0.12    0.05
   0   4  -2    0.09    0.09
   0   4  -2    0.03    0.05
   0  -4   2    0.11    0.06
   0  -4   2    0.03    0.06
   0  -4   2    0.14    0.11
   0  -4   2    0.11    0.07
   0  -4   2    0.04    0.06
   0  -4   2    0.25    0.12
  -1   4  -2    5.49    0.27
  -1   4  -2    5.61    0.42
  -1   4  -2    5.39    0.30
  -1   4  -2    4.99    0.34
  -1   4  -2    5.37    0.32
   1  -4   2    5.20    0.31
   1  -4   2    5.45    0.33
   1  -4   2    5.71    0.31
   1  -4   2    5.38    0.41
   1  -4   2    5.22    0.30
   1  -4   2    5.24    0.36
  -2   4  -2    0.15    0.08
  -2   4  -2    0.09    0.11
  -2   4  -2    0.29    0.13
  -2   4  -2    0.13    0.10
  -2   4  -2    0.14    0.09
   2  -4   2    0.18    0.09
   2  -4   2    0.17    0.07
   2  -4   2    0.09    0.09
   2  -4   2    0.23    0.12
   2  -4   2    0.39    0.16
  -3   4  -2    1.00    0.22
  -3   4  -2    1.01    0.16
  -3   4  -2    1.64    0.26
  -3   4  -2    1.01    0.17
   3  -4   2    0.96    0.21
   3  -4   2    1.48    0.27
   3  -4   2    1.32    0.20
   3  -4   2    1.13    0.25
  -4   4  -2    0.25    0.11
  -4   4  -2    0.16    0.13
  -4   4  -2    0.42    0.11
   4  -4   2    0.10    0.13
   4  -4   2    0.20    0.11
   4  -4   2    0.25    0.15
  -5   4  -2    4.22    0.30
  -5   4  -2    3.98    0.44
  -5   4  -2    4.06    0.27
   5  -4   2    4.35    0.43
   5  -4   2    3.54    0.44
   5  -4   2    4.78    0.54
  -6   4  -2   20.46    0.71
  -6   4  -2   19.78    0.88
   6  -4   2   21.61    0.95
   6  -4   2   20.52    0.99
   6  -4   2   22.25    0.87
  -7   4  -2    0.23    0.14
  -7   4  -2    0.51    0.21
   7  -4   2    0.06    0.16
   7  -4   2    0.51    0.21
  -8   4  -2   -0.11    0.19
   8  -4   2    0.01    0.15
   8  -4   2    0.07    0.16
   9  -4   2    0.11    0.21
   8   3  -2    7.10    0.51
  -8  -3   2    6.78    0.48
  -8  -3   2    6.05    0.28
   7   3  -2   -0.11    0.11
  -7  -3   2   -0.02    0.06
  -7  -3   2   -0.11    0.11
   6   3  -2   -0.05    0.10
   6   3  -2   -0.08    0.09
  -6  -3   2    0.06    0.05
  -6  -3   2   -0.13    0.08
   5   3  -2    0.40    0.10
   5   3  -2    0.29    0.09
   5   3  -2    0.43    0.13
   5   3  -2    0.33    0.12
  -5  -3   2    0.25    0.07
  -5  -3   2    0.28    0.07
  -5  -3   2    0.27    0.11
   4   3  -2    0.35    0.11
   4   3  -2    0.36    0.11
   4   3  -2    0.29    0.11
   4   3  -2    0.27    0.10
  -4  -3   2    0.38    0.14
  -4  -3   2    0.25    0.09
  -4  -3   2    0.55    0.08
  -4  -3   2    0.37    0.08
   3   3  -2    0.71    0.14
   3   3  -2    0.41    0.12
  -3  -3   2    0.39    0.09
  -3  -3   2    0.14    0.07
  -3  -3   2    0.33    0.08
  -3  -3   2    0.52    0.12
   2   3  -2    0.20    0.11
   2   3  -2    0.38    0.12
  -2  -3   2    0.24    0.08
  -2  -3   2    0.27    0.08
  -2  -3   2    0.35    0.07
  -2  -3   2    0.26    0.09
   1   3  -2  103.36    2.31
   1   3  -2  105.36    2.05
   1   3  -2  106.37    2.31
  -1  -3   2  103.66    2.28
  -1  -3   2  104.31    2.03
  -1  -3   2  103.13    2.02
  -1  -3   2  109.47    2.18
  -1  -3   2  108.79    2.04
  -1  -3   2  103.98    1.98
  -1  -3   2  103.28    2.04
   0   3  -2    0.10    0.04
   0   3  -2    0.20    0.05
   0   3  -2    0.00    0.07
   0   3  -2    0.12    0.05
   0   3  -2    0.18    0.07
   0   3  -2    0.15    0.05
   0   3  -2    0.17    0.05
   0  -3   2    0.25    0.08
   0  -3   2    0.01    0.06
   0  -3   2    0.21    0.07
   0  -3   2    0.27    0.11
   0  -3   2    0.12    0.05
   0  -3   2    0.25    0.08
  -1   3  -2   12.90    0.51
  -1   3  -2   13.81    0.45
  -1   3  -2   12.85    0.52
  -1   3  -2   13.26    0.58
  -1   3  -2   13.18    0.42
   1  -3   2   13.58    0.45
   1  -3   2   13.52    0.50
   1  -3   2   13.07    0.57
   1  -3   2   13.11    0.54
   1  -3   2   14.24    0.46
   1  -3   2   13.51    0.46
  -2   3  -2   24.20    0.68
  -2   3  -2   24.54    0.64
  -2   3  -2   24.63    0.77
  -2   3  -2   24.17    0.83
   2  -3   2   24.79    0.59
   2  -3   2   23.48    0.80
   2  -3   2   23.29    0.83
   2  -3   2   24.28    0.56
   2  -3   2   22.47    0.82
  -3   3  -2    3.66    0.23
  -3   3  -2    3.68    0.35
  -3   3  -2    3.66    0.21
  -3   3  -2    3.59    0.34
   3  -3   2    3.29    0.35
   3  -3   2    3.70    0.37
   3  -3   2    4.17    0.27
   3  -3   2    3.82    0.38
  -4   3  -2    5.48    0.24
  -4   3  -2    5.22    0.26
  -4   3  -2    4.98    0.36
  -4   3  -2    5.24    0.26
   4  -3   2    5.35    0.39
   4  -3   2    5.46    0.41
   4  -3   2    5.86    0.43
   4  -3   2    4.97    0.34
  -5   3  -2    1.97    0.28
  -5   3  -2    2.00    0.19
   5  -3   2    1.33    0.29
   5  -3   2    2.54    0.34
   5  -3   2    1.80    0.25
  -6   3  -2    1.16    0.14
  -6   3  -2    1.24    0.26
   6  -3   2    1.48    0.26
   6  -3   2    1.11    0.23
  -7   3  -2   13.73    0.69
   7  -3   2   14.91    0.69
   7  -3   2   13.82    0.71
  -8   3  -2   -0.18    0.17
   8  -3   2   -0.04    0.14
   8  -3   2   -0.01    0.13
   9  -3   2    0.07    0.17
   9  -3   2    0.04    0.15
   8   2  -2    0.65    0.19
  -8  -2   2    0.52    0.19
   7   2  -2   22.37    0.83
   7   2  -2   22.89    0.94
  -7  -2   2   22.58    0.80
   6   2  -2    1.74    0.25
   6   2  -2    1.52    0.23
  -6  -2   2    1.38    0.21
   5   2  -2    2.15    0.25
   5   2  -2    2.17    0.25
  -5  -2   2    2.15    0.23
   4   2  -2    3.05    0.27
   4   2  -2    2.78    0.21
   4   2  -2    2.54    0.14
  -4  -2   2    3.02    0.21
  -4  -2   2    2.96    0.36
   3   2  -2    0.00    0.05
   3   2  -2    0.08    0.06
   3   2  -2    0.05    0.05
   3   2  -2    0.02    0.05
  -3  -2   2    0.09    0.08
  -3  -2   2    0.07    0.05
   2   2  -2    8.15    0.33
   2   2  -2    8.26    0.28
   2   2  -2    8.81    0.33
   2   2  -2    8.74    0.34
  -2  -2   2    8.23    0.33
  -2  -2   2    8.40    0.24
  -2  -2   2    8.30    0.29
  -2  -2   2    8.44    0.23
   1   2  -2    0.28    0.09
   1   2  -2    0.47    0.06
   1   2  -2    0.63    0.11
  -1  -2   2    0.55    0.11
  -1  -2   2    0.48    0.04
  -1  -2   2    0.63    0.06
  -1  -2   2    0.65    0.09
  -1  -2   2    0.50    0.08
   0   2  -2  953.16   18.15
   0   2  -2  979.74   18.16
   0   2  -2  959.43   17.77
   0   2  -2 1000.00   18.11
   0   2  -2  985.75   18.19
   0   2  -2  977.72   17.97
   0  -2   2  989.75   18.50
   0  -2   2  935.65   18.29
   0  -2   2  998.15   18.11
   0  -2   2  989.42   18.45
   0  -2   2  988.23   18.02
   0  -2   2  962.84   17.75
   0  -2   2  990.14   17.13
  -1   2  -2   94.15    2.00
  -1   2  -2   92.79    1.91
  -1   2  -2   95.74    1.96
  -1   2  -2   93.17    1.97
  -1   2  -2   92.46    1.81
  -1   2  -2   94.68    1.86
   1  -2   2   93.48    1.80
   1  -2   2   93.10    1.97
   1  -2   2   95.00    1.85
   1  -2   2   89.90    1.99
  -2   2  -2    0.34    0.10
  -2   2  -2    0.29    0.10
  -2   2  -2    0.39    0.07
  -2   2  -2    0.63    0.09
  -2   2  -2    0.38    0.08
  -2   2  -2    0.39    0.11
   2  -2   2    0.38    0.11
   2  -2   2    0.26    0.08
   2  -2   2    0.34    0.10
   2  -2   2    0.30    0.11
  -3   2  -2    0.10    0.03
  -3   2  -2   -0.05    0.06
  -3   2  -2    0.10    0.04
  -3   2  -2    0.10    0.04
   3  -2   2    0.06    0.08
   3  -2   2    0.09    0.07
   3  -2   2    0.13    0.09
   3  -2   2    0.08    0.07
  -4   2  -2    1.43    0.19
   4  -2   2    1.91    0.24
   4  -2   2    1.66    0.22
   4  -2   2    1.61    0.24
   4  -2   2    2.08    0.31
   5  -2   2    1.35    0.22
   5  -2   2    1.16    0.21
   5  -2   2    0.62    0.17
  -6   2  -2    2.19    0.27
   6  -2   2    2.69    0.29
   6  -2   2    1.97    0.27
  -7   2  -2    1.23    0.23
   7  -2   2    1.51    0.27
   7  -2   2    1.73    0.24
  -8   2  -2   17.74    0.75
   8  -2   2   17.23    0.83
   8  -2   2   16.16    0.60
   9  -2   2   -0.01    0.17
   8   1  -2    1.16    0.25
  -8  -1   2    0.86    0.20
   7   1  -2   15.56    0.68
   7   1  -2   15.90    0.67
   6   1  -2    0.92    0.18
   6   1  -2    0.69    0.17
   5   1  -2    3.82    0.26
   5   1  -2    3.79    0.27
   4   1  -2    2.57    0.19
   4   1  -2    2.64    0.25
   3   1  -2    8.95    0.45
   3   1  -2    9.75    0.23
   3   1  -2    9.65    0.33
   3   1  -2   10.16    0.37
  -3  -1   2   10.18    0.50
   2   1  -2    1.53    0.10
   2   1  -2    1.64    0.15
   2   1  -2    1.50    0.17
   2   1  -2    1.71    0.11
   2   1  -2    1.47    0.10
  -2  -1   2    1.30    0.16
  -2  -1   2    1.50    0.10
  -2  -1   2    1.52    0.18
   1   1  -2    5.01    0.20
   1   1  -2    5.07    0.18
   1   1  -2    5.46    0.20
   1   1  -2    5.17    0.21
   1   1  -2    5.22    0.21
  -1  -1   2    5.51    0.15
  -1  -1   2    5.10    0.18
  -1  -1   2    5.37    0.20
  -1  -1   2    5.22    0.16
   0   1  -2    2.72    0.16
   0   1  -2    2.61    0.13
   0   1  -2    2.92    0.14
   0   1  -2    2.66    0.11
   0   1  -2    3.23    0.17
   0   1  -2    2.72    0.12
   0   1  -2    2.55    0.11
   0   1  -2    2.69    0.10
   0  -1   2    2.67    0.13
   0  -1   2    2.63    0.11
   0  -1   2    2.55    0.15
   0  -1   2    2.77    0.13
   0  -1   2    2.78    0.11
   0  -1   2    2.72    0.16
   0  -1   2    2.76    0.12
  -1   1  -2  293.47    5.29
  -1   1  -2  296.97    5.40
  -1   1  -2  294.38    5.45
  -1   1  -2  296.38    5.36
  -1   1  -2  295.64    5.38
  -1   1  -2  296.65    5.39
   1  -1   2  301.49    5.22
   1  -1   2  295.51    5.24
   1  -1   2  302.97    5.48
   1  -1   2  300.45    5.24
   1  -1   2  288.76    5.35
   1  -1   2  300.58    5.44
   1  -1   2  291.40    5.46
   1  -1   2  298.80    5.35
  -2   1  -2    9.08    0.31
  -2   1  -2    8.89    0.40
   2  -1   2    9.24    0.33
   2  -1   2    8.60    0.40
   2  -1   2    9.84    0.37
   2  -1   2    9.48    0.36
  -3   1  -2   16.56    0.49
   3  -1   2   17.46    0.54
   3  -1   2   17.31    0.66
   3  -1   2   16.77    0.56
   3  -1   2   16.74    0.54
  -4   1  -2    2.23    0.15
   4  -1   2    1.97    0.22
   4  -1   2    1.95    0.23
   4  -1   2    1.74    0.19
   5  -1   2    5.79    0.31
   5  -1   2    6.15    0.37
   5  -1   2    5.64    0.34
  -6   1  -2    0.24    0.10
   6  -1   2    0.43    0.11
   6  -1   2    0.34    0.14
  -7   1  -2   -0.02    0.10
   7  -1   2    0.03    0.11
   7  -1   2    0.03    0.08
  -8   1  -2    0.31    0.16
   8  -1   2    0.13    0.17
  -9   1  -2   23.59    0.89
   9  -1   2   21.47    1.00
   8   0  -2   -0.01    0.12
   7   0  -2    0.29    0.15
   7   0  -2    0.28    0.14
   6   0  -2   86.14    1.99
   6   0  -2   87.31    1.94
   5   0  -2   13.81    0.51
   5   0  -2   13.10    0.53
   4   0  -2    9.20    0.39
   4   0  -2    8.42    0.34
   3   0  -2    0.99    0.19
   3   0  -2    0.72    0.11
   3   0  -2    0.62    0.07
   3   0  -2    0.60    0.06
   3   0  -2    0.83    0.11
  -3   0   2    0.52    0.14
   2   0  -2    1.99    0.11
   2   0  -2    2.06    0.11
   2   0  -2    2.08    0.11
   2   0  -2    1.33    0.17
   2   0  -2    1.68    0.19
   2   0  -2    1.86    0.13
   2   0  -2    1.91    0.22
  -2   0   2    2.04    0.23
   1   0  -2    0.31    0.05
   1   0  -2    0.22    0.06
   1   0  -2    0.31    0.07
   1   0  -2    0.46    0.06
   1   0  -2    0.26    0.05
   1   0  -2    0.53    0.08
  -1   0   2    0.36    0.06
  -1   0   2    0.41    0.08
  -1   0   2    0.41    0.07
  -1   0   2    0.38    0.05
   0   0  -2    1.20    0.09
   0   0  -2    1.32    0.07
   0   0  -2    1.34    0.13
   0   0  -2    1.11    0.08
   0   0  -2    1.29    0.08
   0   0  -2    1.26    0.06
   0   0  -2    1.26    0.06
   0   0  -2    1.28    0.10
   0   0  -2    1.27    0.08
   0   0  -2    1.15    0.07
   0   0   2    1.12    0.08
   0   0   2    1.25    0.08
   0   0   2    1.24    0.07
   0   0   2    1.17    0.07
   0   0   2    1.28    0.12
   0   0   2    1.14    0.08
   0   0   2    1.35    0.09
  -1   0  -2    0.11    0.02
  -1   0  -2    0.12    0.02
  -1   0  -2    0.18    0.06
  -1   0  -2    0.12    0.04
  -1   0  -2    0.09    0.03
  -1   0  -2    0.13    0.05
   1   0   2    0.16    0.04
   1   0   2    0.15    0.06
   1   0   2    0.07    0.04
   1   0   2    0.10    0.06
   1   0   2    0.06    0.04
  -2   0  -2  318.04    5.66
  -2   0  -2  317.42    5.93
  -2   0  -2  319.24    5.67
   2   0   2  316.96    5.80
   2   0   2  318.96    5.52
   2   0   2  313.95    5.63
   2   0   2  316.72    5.82
  -3   0  -2    2.40    0.13
  -3   0  -2    2.78    0.13
   3   0   2    2.65    0.13
   3   0   2    2.57    0.17
   3   0   2    2.64    0.18
   3   0   2    2.63    0.19
  -4   0  -2    1.01    0.11
  -4   0  -2    1.20    0.12
   4   0   2    0.96    0.14
   4   0   2    1.15    0.13
   4   0   2    1.10    0.14
   4   0   2    0.86    0.16
  -5   0  -2    0.13    0.07
  -5   0  -2    0.03    0.06
   5   0   2   -0.06    0.07
   5   0   2    0.11    0.07
   5   0   2    0.10    0.07
   5   0   2    0.14    0.10
  -6   0  -2    3.33    0.22
   6   0   2    3.41    0.22
   6   0   2    3.42    0.37
   6   0   2    3.54    0.24
  -7   0  -2    0.18    0.10
   7   0   2    0.26    0.16
  -8   0  -2    0.20    0.12
   8   0   2    0.35    0.18
  -9   0  -2    0.38    0.35
   9   0   2    0.12    0.19
   8  -1  -2    0.00    0.12
  -8   1   2    0.03    0.11
   7  -1  -2    1.40    0.24
  -7   1   2    1.58    0.17
   6  -1  -2   -0.06    0.09
   6  -1  -2    0.05    0.06
   6  -1  -2    0.04    0.05
   6  -1  -2    0.16    0.10
  -6   1   2    0.05    0.06
   5  -1  -2   29.86    0.89
   5  -1  -2   29.97    0.76
   5  -1  -2   30.61    0.85
   5  -1  -2   30.44    0.79
  -5   1   2   30.32    0.63
   4  -1  -2    1.74    0.21
   4  -1  -2    1.71    0.18
   4  -1  -2    1.81    0.18
   4  -1  -2    2.00    0.32
   4  -1  -2    2.01    0.32
   4  -1  -2    1.78    0.19
   4  -1  -2    1.91    0.18
  -4   1   2    2.14    0.10
  -4   1   2    1.86    0.23
   3  -1  -2   28.44    0.74
   3  -1  -2   29.33    0.97
   3  -1  -2   27.90    0.74
   3  -1  -2   27.17    0.68
   3  -1  -2   28.24    0.72
   3  -1  -2   27.58    0.93
   3  -1  -2   27.29    0.72
  -3   1   2   28.65    0.74
  -3   1   2   29.43    1.01
  -3   1   2   27.61    0.60
   2  -1  -2    0.77    0.12
   2  -1  -2    0.64    0.15
   2  -1  -2    0.62    0.08
   2  -1  -2    0.65    0.14
   2  -1  -2    0.51    0.09
   2  -1  -2    0.77    0.12
   2  -1  -2    0.96    0.13
   2  -1  -2    0.83    0.16
  -2   1   2    0.74    0.09
  -2   1   2    0.72    0.09
   1  -1  -2   44.69    1.01
   1  -1  -2   45.12    0.86
   1  -1  -2   43.62    0.85
   1  -1  -2   44.19    1.11
   1  -1  -2   44.79    0.82
   1  -1  -2   45.32    0.95
   1  -1  -2   43.97    0.86
   1  -1  -2   44.73    1.02
   1  -1  -2   43.85    0.82
   1  -1  -2   42.65    1.04
   1  -1  -2   45.59    0.82
  -1   1   2   46.36    0.92
  -1   1   2   45.36    1.10
  -1   1   2   43.94    0.90
  -1   1   2   44.62    0.95
  -1   1   2   46.05    0.96
  -1   1   2   42.37    1.00
  -1   1   2   44.71    0.88
  -1   1   2   44.66    1.02
   0  -1  -2    0.05    0.04
   0  -1  -2    0.05    0.04
   0  -1  -2    0.06    0.03
   0  -1  -2    0.11    0.04
   0  -1  -2    0.04    0.03
   0  -1  -2    0.06    0.03
   0  -1  -2    0.11    0.04
   0  -1  -2    0.03    0.05
   0   1   2    0.07    0.05
   0   1   2    0.17    0.05
   0   1   2    0.04    0.03
   0   1   2    0.11    0.05
  -1  -1  -2    1.74    0.15
  -1  -1  -2    1.64    0.11
  -1  -1  -2    1.36    0.07
  -1  -1  -2    1.72    0.11
  -1  -1  -2    1.74    0.16
  -1  -1  -2    1.65    0.07
  -1  -1  -2    1.76    0.09
  -1  -1  -2    1.95    0.13
  -1  -1  -2    1.62    0.08
   1   1   2    1.78    0.13
   1   1   2    1.52    0.12
   1   1   2    1.83    0.17
   1   1   2    1.65    0.16
  -2  -1  -2    0.20    0.06
  -2  -1  -2    0.24    0.08
  -2  -1  -2    0.21    0.05
   2   1   2    0.42    0.09
   2   1   2    0.45    0.09
   2   1   2    0.41    0.09
  -3  -1  -2  142.07    2.64
  -3  -1  -2  135.30    2.58
  -3  -1  -2  141.14    2.87
   3   1   2  139.15    2.72
   3   1   2  142.12    2.58
   3   1   2  140.12    2.75
   3   1   2  141.80    2.76
  -4  -1  -2    1.73    0.15
  -4  -1  -2    1.41    0.11
   4   1   2    1.52    0.15
   4   1   2    1.29    0.16
   4   1   2    1.46    0.19
  -5  -1  -2    0.54    0.09
  -5  -1  -2    0.73    0.12
   5   1   2    0.76    0.13
   5   1   2    0.64    0.13
   5   1   2    0.72    0.15
   5   1   2    0.48    0.11
  -6  -1  -2    0.62    0.11
   6   1   2    0.59    0.12
   6   1   2    0.57    0.16
   6   1   2    0.68    0.13
   6   1   2    0.78    0.12
  -7  -1  -2    0.11    0.19
  -7  -1  -2    0.01    0.08
   7   1   2   -0.06    0.10
  -8  -1  -2    0.42    0.12
   8   1   2    0.45    0.19
  -9  -1  -2    0.18    0.18
   9   1   2   -0.12    0.17
  -9   2   2    0.23    0.20
   8  -2  -2   -0.05    0.11
  -8   2   2   -0.12    0.14
   7  -2  -2    0.12    0.12
   7  -2  -2    0.06    0.09
  -7   2   2    0.30    0.13
   6  -2  -2    1.48    0.23
   6  -2  -2    1.26    0.21
  -6   2   2    1.43    0.20
   5  -2  -2    1.92    0.25
   5  -2  -2    1.48    0.21
   5  -2  -2    1.73    0.25
   5  -2  -2    1.95    0.23
  -5   2   2    1.80    0.20
   4  -2  -2   15.89    0.60
   4  -2  -2   15.39    0.53
   4  -2  -2   15.55    0.79
   4  -2  -2   13.59    0.72
   4  -2  -2   15.24    0.61
  -4   2   2   16.63    0.57
  -4   2   2   15.21    0.51
   3  -2  -2    1.54    0.21
   3  -2  -2    1.31    0.15
   3  -2  -2    2.03    0.30
   3  -2  -2    1.51    0.17
   3  -2  -2    1.40    0.23
   3  -2  -2    1.58    0.22
  -3   2   2    1.50    0.07
  -3   2   2    1.62    0.18
  -3   2   2    1.50    0.18
   2  -2  -2    1.57    0.24
   2  -2  -2    2.39    0.16
   2  -2  -2    2.21    0.14
   2  -2  -2    2.27    0.25
   2  -2  -2    2.48    0.29
   2  -2  -2    2.04    0.24
   2  -2  -2    2.59    0.27
  -2   2   2    2.45    0.19
  -2   2   2    2.29    0.15
  -2   2   2    1.85    0.22
  -2   2   2    2.59    0.14
  -2   2   2    2.56    0.14
  -2   2   2    2.30    0.23
  -2   2   2    2.37    0.14
  -2   2   2    2.35    0.28
   1  -2  -2    0.11    0.08
   1  -2  -2    0.15    0.07
   1  -2  -2    0.04    0.05
   1  -2  -2    0.06    0.04
   1  -2  -2    0.05    0.05
   1  -2  -2    0.14    0.07
   1  -2  -2    0.25    0.09
   1  -2  -2    0.07    0.08
   1  -2  -2    0.03    0.04
  -1   2   2    0.10    0.05
  -1   2   2   -0.03    0.06
  -1   2   2    0.01    0.05
  -1   2   2    0.07    0.07
  -1   2   2    0.04    0.04
   0  -2  -2   10.14    0.32
   0  -2  -2   10.14    0.43
   0  -2  -2   10.67    0.39
   0  -2  -2   10.23    0.32
   0  -2  -2   10.55    0.32
   0  -2  -2    9.66    0.33
   0  -2  -2    9.87    0.37
   0   2   2   10.64    0.34
   0   2   2   10.02    0.31
   0   2   2    9.94    0.43
   0   2   2   11.10    0.41
  -1  -2  -2    0.19    0.08
  -1  -2  -2    0.34    0.07
  -1  -2  -2    0.40    0.11
  -1  -2  -2    0.23    0.05
  -1  -2  -2    0.31    0.07
  -1  -2  -2    0.33    0.06
  -1  -2  -2    0.30    0.08
  -1  -2  -2    0.22    0.05
   1   2   2    0.19    0.09
   1   2   2    0.45    0.11
   1   2   2    0.39    0.12
   1   2   2    0.33    0.07
   1   2   2    0.34    0.08
  -2  -2  -2    7.05    0.32
  -2  -2  -2    6.61    0.27
  -2  -2  -2    6.11    0.26
  -2  -2  -2    6.25    0.28
   2   2   2    6.05    0.32
   2   2   2    6.37    0.28
   2   2   2    6.77    0.33
   2   2   2    6.20    0.32
  -3  -2  -2    8.37    0.38
  -3  -2  -2    8.73    0.36
  -3  -2  -2    8.89    0.31
  -3  -2  -2    9.36    0.37
   3   2   2    8.15    0.38
   3   2   2    8.05    0.36
   3   2   2    8.95    0.39
   3   2   2    8.34    0.39
  -4  -2  -2    0.83    0.14
  -4  -2  -2    0.82    0.18
  -4  -2  -2    0.78    0.14
  -4  -2  -2    0.89    0.12
   4   2   2    0.68    0.15
   4   2   2    0.84    0.15
   4   2   2    0.99    0.16
   4   2   2    0.76    0.12
   4   2   2    0.83    0.16
  -5  -2  -2    1.02    0.22
  -5  -2  -2    0.68    0.12
  -5  -2  -2    0.94    0.18
   5   2   2    1.24    0.21
   5   2   2    0.68    0.16
   5   2   2    0.62    0.13
  -6  -2  -2    0.08    0.13
  -6  -2  -2   -0.04    0.08
  -6  -2  -2   -0.06    0.06
   6   2   2   -0.07    0.07
   6   2   2   -0.05    0.08
  -7  -2  -2    0.84    0.20
  -7  -2  -2    0.74    0.14
   7   2   2    0.84    0.21
  -8  -2  -2    0.25    0.18
  -8  -2  -2    0.07    0.11
   8   2   2   -0.01    0.16
   9  -3  -2    0.12    0.12
   8  -3  -2    0.05    0.14
   8  -3  -2    0.15    0.14
  -8   3   2    0.25    0.17
   7  -3  -2    0.53    0.18
   7  -3  -2    0.49    0.17
  -7   3   2    0.31    0.17
   6  -3  -2    0.85    0.21
   6  -3  -2    1.26    0.22
  -6   3   2    0.81    0.21
   5  -3  -2    2.14    0.26
   5  -3  -2    2.30    0.42
   5  -3  -2    2.17    0.32
  -5   3   2    2.32    0.14
  -5   3   2    2.18    0.29
   4  -3  -2    0.48    0.19
   4  -3  -2    0.12    0.08
   4  -3  -2    0.18    0.09
   4  -3  -2    0.01    0.12
   4  -3  -2   -0.05    0.11
   4  -3  -2    0.22    0.14
  -4   3   2    0.16    0.07
  -4   3   2    0.19    0.07
  -4   3   2    0.21    0.09
  -4   3   2    0.20    0.07
  -4   3   2    0.18    0.10
   3  -3  -2   23.04    0.84
   3  -3  -2   22.92    0.66
   3  -3  -2   21.01    0.85
   3  -3  -2   22.06    0.83
   3  -3  -2   21.85    0.66
   3  -3  -2   21.02    0.89
  -3   3   2   21.58    0.81
  -3   3   2   21.68    0.59
  -3   3   2   23.00    0.63
  -3   3   2   21.11    0.60
  -3   3   2   20.02    0.73
   2  -3  -2   69.51    1.86
   2  -3  -2   70.54    1.78
   2  -3  -2   68.55    1.73
   2  -3  -2   68.70    1.47
   2  -3  -2   67.98    1.39
   2  -3  -2   67.13    1.33
   2  -3  -2   68.35    1.46
   2  -3  -2   66.99    1.65
  -2   3   2   65.97    1.45
  -2   3   2   68.31    1.62
  -2   3   2   68.73    1.50
  -2   3   2   69.94    1.81
  -2   3   2   68.78    1.73
   1  -3  -2    8.52    0.41
   1  -3  -2    8.48    0.38
   1  -3  -2    8.09    0.46
   1  -3  -2    8.25    0.43
   1  -3  -2    8.91    0.34
   1  -3  -2    9.21    0.34
   1  -3  -2    8.94    0.44
   1  -3  -2    9.23    0.37
   1  -3  -2    9.17    0.37
  -1   3   2    8.59    0.34
  -1   3   2    9.09    0.48
  -1   3   2    7.94    0.39
  -1   3   2    8.81    0.36
  -1   3   2    8.39    0.42
   0  -3  -2   11.23    0.40
   0  -3  -2   11.04    0.38
   0  -3  -2   10.63    0.37
   0  -3  -2   11.56    0.53
   0  -3  -2   10.38    0.45
   0  -3  -2   10.92    0.45
   0  -3  -2   10.90    0.38
   0  -3  -2   10.80    0.43
   0   3   2   10.45    0.46
   0   3   2   11.11    0.52
   0   3   2   11.67    0.39
   0   3   2   11.47    0.36
  -1  -3  -2    0.82    0.17
  -1  -3  -2    0.98    0.13
  -1  -3  -2    0.65    0.09
  -1  -3  -2    0.79    0.14
  -1  -3  -2    1.06    0.13
  -1  -3  -2    0.80    0.10
  -1  -3  -2    1.02    0.14
   1   3   2    1.00    0.19
   1   3   2    0.74    0.13
   1   3   2    0.93    0.19
  -2  -3  -2    2.53    0.14
  -2  -3  -2    2.17    0.15
  -2  -3  -2    1.92    0.19
  -2  -3  -2    2.26    0.23
  -2  -3  -2    1.98    0.11
  -2  -3  -2    2.37    0.15
  -2  -3  -2    2.10    0.25
   2   3   2    2.69    0.31
   2   3   2    2.41    0.28
   2   3   2    2.19    0.21
  -3  -3  -2    0.21    0.08
  -3  -3  -2    0.35    0.09
  -3  -3  -2    0.31    0.12
  -3  -3  -2    0.30    0.09
   3   3   2    0.17    0.08
   3   3   2    0.22    0.11
   3   3   2    0.16    0.11
  -4  -3  -2    3.53    0.24
  -4  -3  -2    3.62    0.27
  -4  -3  -2    4.22    0.29
   4   3   2    4.41    0.31
   4   3   2    4.12    0.38
  -5  -3  -2    8.39    0.44
  -5  -3  -2    7.55    0.36
   5   3   2    8.28    0.46
   5   3   2    6.87    0.43
  -6  -3  -2    0.88    0.19
  -6  -3  -2    1.10    0.18
   6   3   2    0.83    0.18
   6   3   2    0.97    0.22
  -7  -3  -2    0.13    0.15
  -7  -3  -2   -0.04    0.10
   7   3   2    0.14    0.16
  -8  -3  -2    0.03    0.14
  -8  -3  -2    0.07    0.16
   8   3   2    0.00    0.16
   9  -4  -2    1.06    0.28
   8  -4  -2    0.57    0.23
   8  -4  -2    0.37    0.17
  -8   4   2    0.49    0.26
   7  -4  -2    0.06    0.14
   7  -4  -2    0.15    0.14
  -7   4   2    0.28    0.17
  -7   4   2    0.15    0.11
   6  -4  -2    1.11    0.36
   6  -4  -2    0.83    0.24
   6  -4  -2    0.29    0.14
  -6   4   2    0.70    0.22
  -6   4   2    0.48    0.14
   5  -4  -2   -0.02    0.14
   5  -4  -2    0.26    0.17
   5  -4  -2    0.70    0.18
  -5   4   2    0.29    0.11
  -5   4   2    0.60    0.20
  -5   4   2    0.25    0.12
   4  -4  -2    1.33    0.31
   4  -4  -2    1.78    0.24
   4  -4  -2    1.17    0.20
   4  -4  -2    1.51    0.30
   4  -4  -2    0.97    0.27
  -4   4   2    1.53    0.27
  -4   4   2    1.48    0.20
  -4   4   2    1.51    0.22
  -4   4   2    1.15    0.18
   3  -4  -2   11.12    0.47
   3  -4  -2   10.52    0.62
   3  -4  -2   10.66    0.46
   3  -4  -2   10.29    0.65
   3  -4  -2   10.61    0.60
  -3   4   2   10.72    0.44
  -3   4   2   10.72    0.61
  -3   4   2    9.77    0.53
  -3   4   2   10.33    0.43
  -3   4   2    9.58    0.44
   2  -4  -2   12.66    0.66
   2  -4  -2   12.02    0.50
   2  -4  -2   13.56    0.67
   2  -4  -2   12.14    0.64
   2  -4  -2   12.98    0.59
   2  -4  -2   12.84    0.46
   2  -4  -2   12.11    0.47
   2  -4  -2   11.90    0.43
  -2   4   2   11.17    0.45
  -2   4   2   11.78    0.49
  -2   4   2   11.89    0.59
  -2   4   2   12.97    0.66
   1  -4  -2   15.17    0.72
   1  -4  -2   14.58    0.52
   1  -4  -2   15.50    0.53
   1  -4  -2   14.66    0.64
   1  -4  -2   15.26    0.56
   1  -4  -2   15.36    0.59
   1  -4  -2   14.98    0.65
   1  -4  -2   15.47    0.57
  -1   4   2   14.38    0.53
  -1   4   2   14.60    0.50
  -1   4   2   15.01    0.64
  -1   4   2   15.06    0.72
  -1   4   2   15.03    0.59
   0  -4  -2    0.09    0.10
   0  -4  -2    0.20    0.09
   0  -4  -2    0.10    0.08
   0  -4  -2    0.51    0.13
   0  -4  -2    0.44    0.11
   0  -4  -2    0.42    0.17
   0  -4  -2    0.18    0.08
   0  -4  -2    0.15    0.07
   0   4   2    0.35    0.15
   0   4   2    0.21    0.11
   0   4   2    0.09    0.07
   0   4   2    0.15    0.06
  -1  -4  -2    6.48    0.29
  -1  -4  -2    6.71    0.47
  -1  -4  -2    6.66    0.33
  -1  -4  -2    5.84    0.32
  -1  -4  -2    6.27    0.25
  -1  -4  -2    6.55    0.32
  -1  -4  -2    6.01    0.38
   1   4   2    6.39    0.46
   1   4   2    6.30    0.37
  -2  -4  -2    0.16    0.07
  -2  -4  -2    0.20    0.07
  -2  -4  -2    0.07    0.05
  -2  -4  -2    0.05    0.07
  -2  -4  -2    0.02    0.09
   2   4   2    0.04    0.09
  -3  -4  -2    2.02    0.15
  -3  -4  -2    2.17    0.25
  -3  -4  -2    1.68    0.23
   3   4   2    1.99    0.31
  -4  -4  -2    0.08    0.09
  -4  -4  -2   -0.05    0.08
  -4  -4  -2    0.05    0.05
   4   4   2    0.01    0.08
   4   4   2    0.04    0.11
  -5  -4  -2   -0.03    0.09
  -5  -4  -2   -0.03    0.08
   5   4   2    0.17    0.15
   5   4   2   -0.03    0.11
  -6  -4  -2    0.60    0.20
  -6  -4  -2    0.61    0.17
   6   4   2    0.76    0.20
   6   4   2    0.84    0.22
  -7  -4  -2    6.39    0.42
  -7  -4  -2    4.66    0.47
   7   4   2    5.23    0.52
   8  -5  -2    5.98    0.67
   8  -5  -2    5.06    0.56
  -8   5   2    6.10    0.55
   7  -5  -2    0.85    0.31
   7  -5  -2    0.67    0.22
  -7   5   2    0.68    0.21
  -7   5   2    0.68    0.28
   6  -5  -2    0.60    0.30
   6  -5  -2    0.29    0.20
   6  -5  -2    0.25    0.15
  -6   5   2    0.28    0.15
  -6   5   2    0.35    0.23
   5  -5  -2    0.04    0.16
   5  -5  -2    0.08    0.16
   5  -5  -2   -0.10    0.09
  -5   5   2    0.01    0.10
  -5   5   2    0.01    0.12
  -5   5   2   -0.01    0.10
   4  -5  -2    4.88    0.36
   4  -5  -2    3.76    0.50
   4  -5  -2    4.70    0.59
  -4   5   2    4.89    0.34
  -4   5   2    4.65    0.43
  -4   5   2    4.98    0.54
   3  -5  -2   -0.05    0.09
   3  -5  -2    0.02    0.08
   3  -5  -2   -0.08    0.13
   3  -5  -2   -0.12    0.09
   3  -5  -2   -0.09    0.12
  -3   5   2    0.07    0.09
  -3   5   2    0.19    0.10
  -3   5   2    0.14    0.12
   2  -5  -2    1.04    0.23
   2  -5  -2    0.83    0.24
   2  -5  -2    0.76    0.20
   2  -5  -2    1.30    0.28
   2  -5  -2    1.26    0.20
   2  -5  -2    1.03    0.18
   2  -5  -2    0.86    0.17
   2  -5  -2    1.00    0.21
  -2   5   2    1.15    0.29
  -2   5   2    0.99    0.24
  -2   5   2    1.08    0.19
  -2   5   2    1.01    0.19
   1  -5  -2   27.04    0.94
   1  -5  -2   28.39    0.88
   1  -5  -2   27.68    0.89
   1  -5  -2   27.43    0.99
   1  -5  -2   28.28    1.13
   1  -5  -2   27.28    1.00
   1  -5  -2   27.64    0.85
   1  -5  -2   27.06    0.83
  -1   5   2   25.87    0.84
  -1   5   2   27.37    1.11
  -1   5   2   27.68    0.90
  -1   5   2   27.00    0.80
  -1   5   2   28.54    1.02
   0  -5  -2   12.74    0.52
   0  -5  -2   11.70    0.70
   0  -5  -2   12.75    0.65
   0  -5  -2   11.85    0.54
   0  -5  -2   11.82    0.55
   0  -5  -2   11.30    0.44
   0  -5  -2   12.02    0.50
   0  -5  -2   12.49    0.59
   0   5   2   12.02    0.61
   0   5   2   11.90    0.40
   0   5   2   11.93    0.70
   0   5   2   11.63    0.44
  -1  -5  -2    1.20    0.19
  -1  -5  -2    1.16    0.24
  -1  -5  -2    1.00    0.17
  -1  -5  -2    1.00    0.18
  -1  -5  -2    0.95    0.19
  -1  -5  -2    1.16    0.19
   1   5   2    1.30    0.29
  -2  -5  -2    0.11    0.07
  -2  -5  -2   -0.17    0.07
  -2  -5  -2    0.00    0.07
  -2  -5  -2   -0.01    0.10
  -2  -5  -2    0.03    0.07
   2   5   2    0.15    0.13
  -3  -5  -2    0.47    0.11
  -3  -5  -2    0.31    0.15
  -3  -5  -2    0.47    0.15
  -3  -5  -2    0.37    0.11
   3   5   2    0.41    0.19
  -4  -5  -2    0.34    0.16
  -4  -5  -2    0.64    0.13
  -4  -5  -2    0.52    0.17
   4   5   2    0.36    0.20
  -5  -5  -2   -0.11    0.12
  -5  -5  -2    0.20    0.15
   5   5   2   -0.01    0.15
  -6  -5  -2    0.41    0.17
  -6  -5  -2    0.45    0.20
   6   5   2    0.23    0.18
  -7  -5  -2    8.62    0.62
   7   5   2   10.16    0.56
   8  -6  -2    0.78    0.34
   8  -6  -2    0.20    0.21
   7  -6  -2    4.34    0.51
   7  -6  -2    4.01    0.62
  -7   6   2    3.64    0.47
  -7   6   2    3.38    0.52
   6  -6  -2    0.23    0.17
   6  -6  -2    0.29    0.26
   6  -6  -2    0.52    0.31
  -6   6   2    0.05    0.20
  -6   6   2    0.31    0.19
  -6   6   2    0.34    0.19
   5  -6  -2    0.46    0.26
   5  -6  -2    0.56    0.27
   5  -6  -2    0.63    0.20
  -5   6   2    0.70    0.22
  -5   6   2    0.36    0.23
  -5   6   2    0.83    0.24
   4  -6  -2    0.25    0.20
   4  -6  -2    0.10    0.11
   4  -6  -2   -0.03    0.15
  -4   6   2    0.08    0.13
  -4   6   2    0.10    0.16
  -4   6   2    0.15    0.12
   3  -6  -2    4.13    0.58
   3  -6  -2    4.69    0.44
   3  -6  -2    5.43    0.51
   3  -6  -2    5.76    0.67
  -3   6   2    5.11    0.47
  -3   6   2    4.70    0.54
  -3   6   2    4.30    0.40
   2  -6  -2    2.97    0.33
   2  -6  -2    3.13    0.35
   2  -6  -2    4.03    0.51
   2  -6  -2    2.88    0.37
   2  -6  -2    3.41    0.37
   2  -6  -2    2.45    0.34
   2  -6  -2    3.61    0.55
  -2   6   2    2.70    0.32
  -2   6   2    2.22    0.41
  -2   6   2    2.73    0.33
  -2   6   2    3.03    0.45
   1  -6  -2    1.23    0.23
   1  -6  -2    1.50    0.30
   1  -6  -2    1.52    0.27
   1  -6  -2    1.88    0.33
   1  -6  -2    1.29    0.26
   1  -6  -2    0.93    0.20
   1  -6  -2    1.72    0.38
   1  -6  -2    1.66    0.27
  -1   6   2    1.73    0.40
  -1   6   2    1.38    0.22
  -1   6   2    1.68    0.23
   0  -6  -2    0.05    0.10
   0  -6  -2    0.01    0.10
   0  -6  -2   -0.10    0.10
   0  -6  -2   -0.03    0.08
   0  -6  -2    0.20    0.11
   0  -6  -2    0.12    0.10
   0  -6  -2    0.21    0.15
   0   6   2    0.12    0.15
  -1  -6  -2   23.01    0.85
  -1  -6  -2   23.01    0.80
  -1  -6  -2   22.49    0.99
  -1  -6  -2   21.94    0.80
  -1  -6  -2   23.63    0.91
   1   6   2   22.84    1.08
  -2  -6  -2    2.97    0.34
  -2  -6  -2    3.34    0.46
  -2  -6  -2    2.56    0.30
  -2  -6  -2    3.58    0.35
  -2  -6  -2    3.01    0.37
   2   6   2    2.33    0.42
  -3  -6  -2   -0.04    0.08
  -3  -6  -2    0.15    0.13
  -3  -6  -2    0.06    0.13
  -3  -6  -2   -0.03    0.07
   3   6   2    0.04    0.16
  -4  -6  -2    0.04    0.10
  -4  -6  -2    0.07    0.14
  -4  -6  -2    0.13    0.15
  -5  -6  -2    0.01    0.17
  -5  -6  -2   -0.05    0.10
  -5  -6  -2    0.12    0.14
   5   6   2    0.13    0.20
  -6  -6  -2    0.37    0.20
   6   6   2   -0.08    0.22
   8  -7  -2    0.17    0.21
   7  -7  -2    0.38    0.30
   7  -7  -2    0.18    0.19
  -7   7   2    0.64    0.24
  -7   7   2    0.22    0.30
   6  -7  -2    0.07    0.23
   6  -7  -2   -0.02    0.15
   6  -7  -2    0.13    0.28
  -6   7   2    0.16    0.19
  -6   7   2   -0.23    0.20
  -6   7   2    0.01    0.19
   5  -7  -2    0.11    0.27
   5  -7  -2    0.21    0.17
   5  -7  -2   -0.24    0.19
  -5   7   2    0.13    0.14
  -5   7   2    0.11    0.22
  -5   7   2    0.17    0.17
   4  -7  -2    1.30    0.35
   4  -7  -2    0.64    0.22
   4  -7  -2    1.73    0.44
  -4   7   2    0.82    0.30
  -4   7   2    0.94    0.26
  -4   7   2    1.23    0.27
   3  -7  -2   -0.04    0.12
   3  -7  -2    0.22    0.21
   3  -7  -2    0.11    0.19
  -3   7   2    0.46    0.22
  -3   7   2    0.30    0.17
  -3   7   2    0.29    0.16
   2  -7  -2    0.07    0.11
   2  -7  -2    0.06    0.18
   2  -7  -2    0.04    0.13
   2  -7  -2    0.11    0.15
  -2   7   2   -0.03    0.12
  -2   7   2    0.05    0.12
   1  -7  -2    1.52    0.29
   1  -7  -2    1.38    0.27
   1  -7  -2    1.08    0.23
   1  -7  -2    1.21    0.30
   1  -7  -2    1.32    0.33
  -1   7   2    1.88    0.25
  -1   7   2    1.42    0.38
   0  -7  -2    0.80    0.20
   0  -7  -2    0.77    0.22
   0  -7  -2    0.55    0.19
   0  -7  -2    0.88    0.28
   0  -7  -2    0.22    0.18
   0   7   2    0.51    0.27
  -1  -7  -2   11.24    0.60
  -1  -7  -2   10.54    0.58
  -1  -7  -2   11.54    0.78
  -1  -7  -2   11.01    0.73
  -1  -7  -2   11.61    0.68
  -1  -7  -2   11.54    0.64
   1   7   2   11.23    0.82
  -2  -7  -2   18.44    0.81
  -2  -7  -2   21.74    1.05
  -2  -7  -2   20.10    0.80
  -2  -7  -2   19.79    0.85
   2   7   2   18.78    1.07
  -3  -7  -2    0.47    0.18
  -3  -7  -2    0.22    0.14
  -3  -7  -2    0.78    0.23
  -3  -7  -2    0.17    0.20
   3   7   2    0.65    0.29
  -4  -7  -2    0.31    0.17
  -4  -7  -2    0.16    0.21
  -4  -7  -2    0.14    0.17
   4   7   2    0.06    0.22
  -5  -7  -2   -0.18    0.16
   5   7   2    0.25    0.25
   7  -8  -2    0.34    0.24
   7  -8  -2    0.17    0.32
   6  -8  -2    0.11    0.17
   6  -8  -2    0.28    0.30
  -6   8   2    0.20    0.21
  -6   8   2   -0.06    0.31
   5  -8  -2   24.71    1.45
   5  -8  -2   21.89    1.01
   5  -8  -2   22.21    1.37
  -5   8   2   23.48    1.38
  -5   8   2   21.61    0.97
  -5   8   2   21.83    1.03
   4  -8  -2    0.26    0.26
   4  -8  -2    0.38    0.30
   4  -8  -2    0.23    0.19
  -4   8   2    0.08    0.17
  -4   8   2   -0.08    0.17
   3  -8  -2    0.39    0.28
   3  -8  -2    0.54    0.22
  -3   8   2    0.53    0.23
  -3   8   2    0.52    0.22
   2  -8  -2    0.47    0.20
   2  -8  -2    0.51    0.19
   2  -8  -2    0.11    0.20
  -2   8   2    0.28    0.16
   1  -8  -2    0.03    0.14
   1  -8  -2    0.05    0.20
   1  -8  -2    0.02    0.20
   1  -8  -2    0.18    0.17
   1  -8  -2    0.13    0.17
   0  -8  -2    0.10    0.15
   0  -8  -2   -0.06    0.19
   0  -8  -2    0.29    0.18
   0  -8  -2    0.06    0.17
   0   8   2    0.33    0.27
  -1  -8  -2    2.43    0.36
  -1  -8  -2    1.91    0.34
  -1  -8  -2    1.94    0.37
   1   8   2    1.41    0.39
  -2  -8  -2    0.13    0.17
  -2  -8  -2   -0.11    0.13
  -2  -8  -2   -0.08    0.15
   2   8   2    0.18    0.24
  -3  -8  -2   -0.01    0.16
  -3  -8  -2    0.02    0.25
  -3  -8  -2   -0.03    0.14
   3   8   2   -0.04    0.26
  -4  -8  -2    0.12    0.20
   4   8   2    0.22    0.28
   6  -9  -2    1.48    0.38
   6  -9  -2    1.10    0.49
   5  -9  -2    0.42    0.23
   4  -9  -2    3.41    0.51
   4  -9  -2    2.87    0.61
  -4   9   2    3.29    0.45
   3  -9  -2    2.44    0.42
  -3   9   2    2.14    0.36
   2  -9  -2   -0.25    0.15
   2  -9  -2   -0.05    0.18
   1  -9  -2    0.17    0.20
   1  -9  -2   -0.15    0.15
   0  -9  -2   -0.01    0.16
   0  -9  -2   -0.38    0.14
   0  -9  -2    0.08    0.20
  -1  -9  -2   -0.14    0.18
  -1  -9  -2    0.10    0.18
   1   9   2    0.71    0.38
  -2  -9  -2   -0.01    0.19
   2   9   2    0.16    0.29
  -3  -9  -2    3.18    0.48
   4 -10  -2    0.03    0.22
   3 -10  -2    0.70    0.31
   2 -10  -2    4.18    0.60
   1 -10  -2    0.07    0.22
   0 -10  -2    0.02    0.20
  -1 -10  -2    0.17    0.21
   2  10  -3    0.24    0.38
  -2 -10   3    0.01    0.23
   1  10  -3   -0.37    0.32
  -1 -10   3    0.21    0.21
   0 -10   3    0.73    0.28
   1 -10   3    7.96    0.77
   1 -10   3    8.72    0.79
   2 -10   3   -0.02    0.21
   2 -10   3    0.32    0.23
   3 -10   3   -0.11    0.20
   4 -10   3    0.26    0.24
   5 -10   3   -0.06    0.21
  -4  -9   3    0.08    0.21
   3   9  -3    0.15    0.29
  -3  -9   3    0.02    0.19
  -3  -9   3   -0.18    0.19
   2   9  -3   -0.15    0.27
  -2  -9   3    0.17    0.18
  -2  -9   3    0.09    0.16
   1   9  -3    1.22    0.43
  -1  -9   3    0.75    0.25
  -1  -9   3    0.44    0.25
  -1  -9   3    0.48    0.22
   0   9  -3    1.28    0.42
   0  -9   3    1.73    0.33
   0  -9   3    1.70    0.39
   0  -9   3    1.59    0.35
   1  -9   3   -0.27    0.16
   1  -9   3    0.22    0.19
   1  -9   3    0.16    0.19
   2  -9   3   17.70    0.91
   2  -9   3   18.68    0.87
  -3   9  -3    1.04    0.26
   3  -9   3    0.46    0.22
  -4   9  -3   -0.09    0.17
   4  -9   3   -0.04    0.17
   5  -9   3    0.00    0.18
   6  -9   3    0.11    0.32
   6  -9   3    0.06    0.20
  -5  -8   3    5.32    0.57
   4   8  -3    0.51    0.32
  -4  -8   3    0.26    0.21
   3   8  -3   -0.11    0.21
  -3  -8   3   -0.02    0.14
  -3  -8   3    0.09    0.13
  -3  -8   3   -0.05    0.14
   2   8  -3    0.98    0.36
  -2  -8   3    0.62    0.21
  -2  -8   3    0.95    0.26
  -2  -8   3    1.13    0.28
   1   8  -3   -0.29    0.18
  -1  -8   3   -0.05    0.12
  -1  -8   3    0.15    0.14
  -1  -8   3   -0.01    0.12
   0   8  -3   -0.19    0.18
   0  -8   3    0.08    0.14
   0  -8   3    0.17    0.20
   0  -8   3    0.01    0.14
   0  -8   3   -0.01    0.13
  -1   8  -3    0.33    0.25
   1  -8   3    0.49    0.24
   1  -8   3    0.81    0.24
   1  -8   3    0.88    0.26
   1  -8   3    0.45    0.20
   1  -8   3    0.51    0.20
  -2   8  -3    0.48    0.17
   2  -8   3    0.09    0.14
   2  -8   3    0.55    0.30
   2  -8   3    0.27    0.18
  -3   8  -3   31.50    1.10
  -3   8  -3   27.58    0.99
   3  -8   3   28.94    1.37
   3  -8   3   28.65    1.12
  -4   8  -3    1.74    0.31
  -4   8  -3    1.97    0.36
   4  -8   3    1.82    0.48
   4  -8   3    1.07    0.28
   4  -8   3    1.11    0.34
  -5   8  -3    0.02    0.16
  -5   8  -3    0.24    0.24
  -5   8  -3    0.01    0.17
   5  -8   3   -0.07    0.25
   5  -8   3   -0.02    0.16
  -6   8  -3    0.77    0.36
  -6   8  -3    0.23    0.22
   6  -8   3    0.24    0.25
   6  -8   3   -0.05    0.24
  -7   8  -3    0.12    0.28
   7  -8   3    0.00    0.28
   7  -8   3    0.13    0.19
  -6  -7   3    0.66    0.24
   5   7  -3    0.03    0.21
  -5  -7   3    0.05    0.13
  -5  -7   3    0.05    0.15
   4   7  -3    4.25    0.56
  -4  -7   3    4.49    0.46
  -4  -7   3    4.85    0.44
   3   7  -3    0.18    0.21
  -3  -7   3   -0.08    0.10
  -3  -7   3    0.08    0.13
   2   7  -3   -0.04    0.19
  -2  -7   3    0.01    0.11
  -2  -7   3    0.07    0.11
  -2  -7   3    0.15    0.12
  -2  -7   3    0.01    0.16
   1   7  -3    0.23    0.22
  -1  -7   3    0.23    0.14
  -1  -7   3    0.29    0.14
  -1  -7   3    0.60    0.24
  -1  -7   3    0.36    0.16
   0   7  -3    0.73    0.28
   0  -7   3   -0.05    0.12
   0  -7   3    0.05    0.11
   0  -7   3    0.18    0.12
   0  -7   3    0.57    0.20
  -1   7  -3    1.96    0.44
  -1   7  -3    2.10    0.23
   1  -7   3    2.27    0.40
   1  -7   3    1.44    0.27
   1  -7   3    1.88    0.28
   1  -7   3    2.16    0.31
  -2   7  -3    0.09    0.14
  -2   7  -3    0.11    0.12
   2  -7   3   -0.03    0.11
   2  -7   3    0.14    0.13
   2  -7   3    0.13    0.21
   2  -7   3    0.35    0.17
   2  -7   3    0.13    0.16
   2  -7   3   -0.06    0.13
  -3   7  -3    3.73    0.50
  -3   7  -3    3.79    0.42
  -3   7  -3    4.11    0.41
   3  -7   3    3.52    0.55
   3  -7   3    3.60    0.52
   3  -7   3    4.76    0.67
   3  -7   3    4.02    0.44
  -4   7  -3   26.55    0.96
  -4   7  -3   22.52    1.12
  -4   7  -3   27.17    1.02
   4  -7   3   27.84    1.23
   4  -7   3   27.19    1.06
   4  -7   3   26.04    1.31
  -5   7  -3    1.88    0.40
  -5   7  -3    2.10    0.36
  -5   7  -3    1.61    0.32
   5  -7   3    1.14    0.28
   5  -7   3    2.05    0.45
   5  -7   3    1.94    0.44
  -6   7  -3   -0.26    0.17
  -6   7  -3   -0.11    0.23
  -6   7  -3   -0.07    0.19
   6  -7   3    0.18    0.23
   6  -7   3    0.02    0.14
  -7   7  -3   -0.03    0.29
  -7   7  -3   -0.02    0.21
   7  -7   3   -0.14    0.22
   7  -7   3    0.02    0.18
   8  -7   3    0.04    0.23
  -7  -6   3   -0.19    0.18
   6   6  -3    0.36    0.19
   6   6  -3   -0.02    0.15
  -6  -6   3    0.00    0.16
  -6  -6   3    0.04    0.14
   5   6  -3    1.21    0.29
   5   6  -3    0.80    0.24
  -5  -6   3    0.72    0.21
  -5  -6   3    1.12    0.25
   4   6  -3   -0.01    0.15
  -4  -6   3    0.02    0.08
  -4  -6   3   -0.03    0.10
   3   6  -3   12.29    0.75
  -3  -6   3   14.22    0.62
  -3  -6   3   14.76    0.57
   2   6  -3    0.17    0.18
  -2  -6   3    0.45    0.13
  -2  -6   3    0.25    0.12
  -2  -6   3    0.39    0.19
  -2  -6   3    0.23    0.11
   1   6  -3    1.47    0.33
  -1  -6   3    1.57    0.23
  -1  -6   3    2.03    0.38
  -1  -6   3    1.44    0.23
  -1  -6   3    1.88    0.28
   0   6  -3    0.81    0.27
   0  -6   3    1.20    0.23
   0  -6   3    1.79    0.25
   0  -6   3    1.70    0.26
   0  -6   3    0.86    0.23
   0  -6   3    1.50    0.20
  -1   6  -3    0.12    0.09
  -1   6  -3    0.35    0.17
  -1   6  -3    0.22    0.19
  -1   6  -3    0.39    0.13
  -1   6  -3    0.37    0.11
   1  -6   3    0.02    0.16
   1  -6   3    0.40    0.14
   1  -6   3    0.35    0.15
   1  -6   3    0.39    0.17
   1  -6   3    0.35    0.14
   1  -6   3    0.12    0.11
  -2   6  -3    2.07    0.42
  -2   6  -3    1.83    0.25
  -2   6  -3    1.94    0.33
  -2   6  -3    1.27    0.23
   2  -6   3    1.27    0.26
   2  -6   3    1.51    0.23
   2  -6   3    1.22    0.23
   2  -6   3    1.48    0.25
   2  -6   3    1.18    0.29
   2  -6   3    1.49    0.36
  -3   6  -3    2.16    0.28
  -3   6  -3    2.55    0.33
  -3   6  -3    1.58    0.32
   3  -6   3    1.53    0.18
   3  -6   3    1.78    0.29
   3  -6   3    2.07    0.39
   3  -6   3    1.65    0.35
  -4   6  -3    3.63    0.41
  -4   6  -3    4.22    0.43
  -4   6  -3    3.54    0.48
   4  -6   3    3.81    0.58
   4  -6   3    2.70    0.35
   4  -6   3    3.44    0.51
  -5   6  -3   53.37    1.74
  -5   6  -3   55.68    1.57
  -5   6  -3   53.00    1.48
   5  -6   3   52.19    1.84
   5  -6   3   51.90    1.58
   5  -6   3   52.21    1.78
  -6   6  -3   -0.24    0.15
  -6   6  -3    0.12    0.18
  -6   6  -3    0.04    0.20
   6  -6   3    0.04    0.18
   6  -6   3   -0.05    0.15
  -7   6  -3    0.25    0.22
  -7   6  -3    0.39    0.27
   7  -6   3    0.47    0.27
   7  -6   3    0.87    0.27
   8  -6   3    0.28    0.21
   8  -6   3    0.06    0.26
  -7  -5   3    0.17    0.16
  -7  -5   3    0.18    0.16
   6   5  -3   -0.06    0.11
   6   5  -3   -0.02    0.13
  -6  -5   3    0.07    0.13
  -6  -5   3   -0.02    0.14
   5   5  -3    0.28    0.15
   5   5  -3    0.34    0.16
  -5  -5   3    0.88    0.19
  -5  -5   3    0.19    0.14
   4   5  -3    0.35    0.15
  -4  -5   3    0.13    0.11
  -4  -5   3    0.47    0.15
   3   5  -3   -0.02    0.11
  -3  -5   3    0.05    0.09
  -3  -5   3    0.00    0.05
   2   5  -3  114.24    2.78
  -2  -5   3  117.57    2.43
  -2  -5   3  117.46    2.42
  -2  -5   3  114.66    2.36
  -2  -5   3  116.14    2.85
  -2  -5   3  118.46    2.33
   1   5  -3    3.80    0.45
  -1  -5   3    3.14    0.24
  -1  -5   3    3.17    0.20
  -1  -5   3    3.39    0.33
  -1  -5   3    2.64    0.36
  -1  -5   3    3.55    0.26
   0   5  -3    2.27    0.16
   0   5  -3    2.44    0.29
   0   5  -3    2.48    0.38
   0   5  -3    2.33    0.14
   0   5  -3    2.64    0.15
   0   5  -3    2.37    0.14
   0  -5   3    2.66    0.28
   0  -5   3    2.83    0.21
   0  -5   3    2.87    0.32
   0  -5   3    2.35    0.36
   0  -5   3    2.58    0.37
   0  -5   3    2.51    0.27
  -1   5  -3    0.56    0.13
  -1   5  -3    0.67    0.14
  -1   5  -3    1.13    0.23
  -1   5  -3    0.93    0.26
  -1   5  -3    0.73    0.14
   1  -5   3    0.45    0.15
   1  -5   3    0.70    0.15
   1  -5   3    0.64    0.16
   1  -5   3    0.81    0.16
   1  -5   3    0.68    0.23
   1  -5   3    0.59    0.16
   1  -5   3    0.75    0.17
  -2   5  -3    8.67    0.52
  -2   5  -3    9.22    0.61
  -2   5  -3    9.26    0.45
  -2   5  -3    8.05    0.40
   2  -5   3    8.69    0.56
   2  -5   3    9.07    0.43
   2  -5   3    8.26    0.57
   2  -5   3    8.78    0.45
   2  -5   3    8.79    0.52
  -3   5  -3   -0.02    0.08
  -3   5  -3    0.06    0.12
  -3   5  -3    0.10    0.10
   3  -5   3    0.05    0.13
   3  -5   3    0.19    0.15
   3  -5   3    0.18    0.11
  -4   5  -3    4.72    0.49
  -4   5  -3    5.63    0.38
  -4   5  -3    4.67    0.34
   4  -5   3    4.59    0.53
   4  -5   3    5.70    0.60
   4  -5   3    4.58    0.42
  -5   5  -3    1.03    0.25
  -5   5  -3    0.95    0.21
  -5   5  -3    0.94    0.20
   5  -5   3    0.51    0.22
   5  -5   3    0.57    0.24
   5  -5   3    0.65    0.19
  -6   5  -3    0.13    0.18
  -6   5  -3    0.06    0.13
  -6   5  -3    0.25    0.15
   6  -5   3    0.14    0.14
   6  -5   3    0.23    0.19
   6  -5   3    0.25    0.20
  -7   5  -3    0.51    0.26
  -7   5  -3    0.56    0.22
   7  -5   3    0.60    0.22
   7  -5   3    0.25    0.20
  -8   5  -3    0.23    0.25
   8  -5   3    0.45    0.24
   8  -5   3    0.24    0.20
  -8  -4   3    0.70    0.17
  -8  -4   3    0.64    0.23
  -7  -4   3    0.41    0.14
  -7  -4   3    0.64    0.18
   6   4  -3    0.06    0.14
  -6  -4   3    0.04    0.11
  -6  -4   3    0.06    0.08
   5   4  -3    0.21    0.11
   5   4  -3    0.53    0.17
  -5  -4   3    0.23    0.10
  -5  -4   3    0.18    0.11
   4   4  -3    1.55    0.23
  -4  -4   3    2.01    0.23
  -4  -4   3    1.56    0.20
   3   4  -3    2.30    0.30
   3   4  -3    2.28    0.30
  -3  -4   3    1.90    0.24
  -3  -4   3    2.47    0.25
   2   4  -3    4.34    0.42
   2   4  -3    3.24    0.36
  -2  -4   3    3.78    0.24
  -2  -4   3    4.37    0.31
  -2  -4   3    4.10    0.19
  -2  -4   3    4.30    0.20
  -2  -4   3    4.01    0.17
   1   4  -3  335.69    5.98
   1   4  -3  325.55    6.38
   1   4  -3  324.43    6.38
  -1  -4   3  323.77    6.32
  -1  -4   3  321.29    6.02
  -1  -4   3  317.88    6.30
  -1  -4   3  323.13    5.94
  -1  -4   3  324.83    5.87
  -1  -4   3  323.46    6.09
   0   4  -3    0.03    0.09
   0   4  -3    0.06    0.07
   0   4  -3    0.07    0.05
   0   4  -3    0.06    0.05
   0   4  -3    0.04    0.04
   0   4  -3    0.08    0.05
   0   4  -3    0.01    0.04
   0  -4   3    0.00    0.06
   0  -4   3    0.02    0.05
   0  -4   3   -0.01    0.06
   0  -4   3    0.01    0.05
   0  -4   3    0.01    0.07
   0  -4   3    0.04    0.09
  -1   4  -3   10.42    0.40
  -1   4  -3   11.23    0.44
  -1   4  -3   10.67    0.43
  -1   4  -3    9.48    0.55
  -1   4  -3   10.53    0.50
   1  -4   3   10.01    0.44
   1  -4   3   10.61    0.46
   1  -4   3   10.08    0.43
   1  -4   3    9.39    0.42
   1  -4   3   10.53    0.55
   1  -4   3   10.71    0.57
  -2   4  -3    0.07    0.08
  -2   4  -3   -0.02    0.10
  -2   4  -3    0.03    0.06
  -2   4  -3    0.11    0.08
   2  -4   3    0.09    0.09
   2  -4   3   -0.11    0.08
   2  -4   3   -0.05    0.05
   2  -4   3    0.12    0.09
  -3   4  -3    0.26    0.10
  -3   4  -3    0.09    0.12
  -3   4  -3    0.36    0.14
  -3   4  -3    0.22    0.10
   3  -4   3    0.35    0.15
   3  -4   3    0.38    0.17
   3  -4   3    0.17    0.10
  -4   4  -3    0.11    0.11
  -4   4  -3    0.10    0.08
  -4   4  -3    0.14    0.09
   4  -4   3    0.12    0.10
   4  -4   3    0.06    0.11
   4  -4   3    0.14    0.12
  -5   4  -3    0.48    0.15
  -5   4  -3    0.47    0.13
  -5   4  -3    0.37    0.17
   5  -4   3    0.13    0.12
   5  -4   3    0.40    0.15
   5  -4   3    0.58    0.23
  -6   4  -3    0.54    0.17
  -6   4  -3    0.35    0.19
   6  -4   3   -0.09    0.16
   6  -4   3    0.12    0.14
   6  -4   3    0.11    0.17
  -7   4  -3   77.11    2.11
  -7   4  -3   72.88    1.82
   7  -4   3   74.86    2.10
   7  -4   3   77.15    2.05
  -8   4  -3    0.04    0.18
  -8   4  -3    0.09    0.19
   8  -4   3    0.03    0.15
   8  -4   3    0.12    0.17
   9  -4   3   -0.06    0.18
  -8  -3   3   15.70    0.46
  -8  -3   3   16.82    0.75
   7   3  -3    0.60    0.18
   7   3  -3    0.57    0.21
  -7  -3   3    0.77    0.19
   6   3  -3    0.24    0.14
   6   3  -3    0.10    0.11
  -6  -3   3    0.14    0.10
   5   3  -3    0.08    0.06
   5   3  -3    0.17    0.07
   5   3  -3    0.17    0.10
   5   3  -3    0.09    0.10
  -5  -3   3    0.13    0.05
  -5  -3   3    0.22    0.11
  -5  -3   3    0.11    0.05
   4   3  -3    1.21    0.17
   4   3  -3    1.51    0.19
   4   3  -3    1.26    0.20
   4   3  -3    1.40    0.19
  -4  -3   3    1.15    0.17
  -4  -3   3    1.26    0.13
  -4  -3   3    1.18    0.12
  -4  -3   3    1.46    0.24
   3   3  -3   -0.01    0.06
   3   3  -3    0.00    0.08
  -3  -3   3   -0.02    0.04
  -3  -3   3    0.02    0.06
  -3  -3   3    0.02    0.04
  -3  -3   3    0.00    0.05
   2   3  -3    0.08    0.06
   2   3  -3    0.03    0.07
   2   3  -3    0.05    0.08
  -2  -3   3    0.15    0.06
  -2  -3   3    0.02    0.06
  -2  -3   3    0.11    0.04
  -2  -3   3    0.10    0.06
  -2  -3   3    0.06    0.06
   1   3  -3    1.10    0.19
   1   3  -3    1.40    0.14
   1   3  -3    1.20    0.09
   1   3  -3    0.87    0.16
  -1  -3   3    1.33    0.18
  -1  -3   3    0.96    0.16
  -1  -3   3    1.43    0.15
  -1  -3   3    1.35    0.14
  -1  -3   3    1.39    0.12
  -1  -3   3    1.10    0.19
  -1  -3   3    1.40    0.13
   0   3  -3    0.47    0.08
   0   3  -3    0.13    0.07
   0   3  -3    0.45    0.14
   0   3  -3    0.38    0.08
   0   3  -3    0.40    0.07
   0   3  -3    0.43    0.07
   0  -3   3    0.39    0.12
   0  -3   3    0.24    0.11
   0  -3   3    0.40    0.10
   0  -3   3    0.64    0.11
   0  -3   3    0.34    0.09
  -1   3  -3   58.21    1.41
  -1   3  -3   59.26    1.32
  -1   3  -3   59.64    1.53
  -1   3  -3   60.36    1.29
  -1   3  -3   59.38    1.35
   1  -3   3   59.63    1.32
   1  -3   3   60.51    1.31
   1  -3   3   60.99    1.50
   1  -3   3   60.18    1.52
   1  -3   3   62.60    1.36
  -2   3  -3   19.04    0.57
  -2   3  -3   18.93    0.67
  -2   3  -3   19.87    0.75
  -2   3  -3   19.59    0.60
   2  -3   3   19.67    0.62
   2  -3   3   19.75    0.50
   2  -3   3   18.54    0.72
   2  -3   3   19.00    0.73
   2  -3   3   20.15    0.52
  -3   3  -3    2.33    0.27
  -3   3  -3    2.63    0.32
  -3   3  -3    2.89    0.19
  -3   3  -3    2.54    0.20
   3  -3   3    2.23    0.31
   3  -3   3    3.02    0.29
   3  -3   3    3.11    0.34
   3  -3   3    2.56    0.35
  -4   3  -3   10.06    0.36
  -4   3  -3   10.63    0.40
  -4   3  -3   10.27    0.51
   4  -3   3    9.63    0.53
   4  -3   3   10.42    0.49
   4  -3   3    9.70    0.58
  -5   3  -3    0.81    0.19
  -5   3  -3    1.09    0.15
   5  -3   3    0.79    0.18
   5  -3   3    1.10    0.23
   5  -3   3    0.69    0.24
  -6   3  -3    0.57    0.18
  -6   3  -3    1.36    0.17
   6  -3   3    1.89    0.30
   6  -3   3    0.97    0.22
  -7   3  -3    0.32    0.18
   7  -3   3    0.22    0.14
   7  -3   3    0.24    0.14
  -8   3  -3   16.28    0.82
   8  -3   3   17.87    0.87
   8  -3   3   16.74    0.76
   9  -3   3    0.72    0.20
   9  -3   3    0.35    0.20
  -8  -2   3   -0.04    0.12
   7   2  -3   35.51    1.07
   7   2  -3   36.46    1.16
  -7  -2   3   33.51    1.03
   6   2  -3   16.18    0.62
   6   2  -3   15.75    0.66
  -6  -2   3   15.72    0.59
   5   2  -3    2.48    0.27
   5   2  -3    2.76    0.26
  -5  -2   3    2.67    0.25
   4   2  -3    2.27    0.14
   4   2  -3    2.00    0.13
   4   2  -3    2.34    0.22
   4   2  -3    2.05    0.24
  -4  -2   3    2.42    0.32
  -4  -2   3    2.23    0.20
   3   2  -3    0.28    0.08
   3   2  -3    0.33    0.09
   3   2  -3    0.44    0.12
   3   2  -3    0.23    0.09
   3   2  -3    0.34    0.08
  -3  -2   3    0.26    0.10
  -3  -2   3    0.40    0.08
   2   2  -3    5.63    0.28
   2   2  -3    5.50    0.27
   2   2  -3    4.98    0.26
  -2  -2   3    6.01    0.24
  -2  -2   3    5.50    0.21
  -2  -2   3    5.10    0.21
  -2  -2   3    5.33    0.19
  -2  -2   3    5.33    0.25
   1   2  -3    0.16    0.05
   1   2  -3    0.19    0.05
   1   2  -3    0.16    0.07
   1   2  -3    0.00    0.05
   1   2  -3    0.12    0.05
  -1  -2   3    0.06    0.04
  -1  -2   3    0.14    0.03
  -1  -2   3    0.10    0.02
  -1  -2   3    0.15    0.02
  -1  -2   3    0.07    0.05
  -1  -2   3    0.16    0.02
  -1  -2   3    0.13    0.07
  -1  -2   3    0.09    0.03
  -1  -2   3    0.17    0.07
   0   2  -3   29.77    0.73
   0   2  -3   29.45    0.68
   0   2  -3   30.19    0.65
   0   2  -3   29.64    0.66
   0   2  -3   30.26    0.66
   0   2  -3   29.76    0.84
   0  -2   3   30.83    0.83
   0  -2   3   30.55    0.73
   0  -2   3   30.35    0.71
   0  -2   3   30.16    0.67
   0  -2   3   30.23    0.82
  -1   2  -3  585.32   10.44
  -1   2  -3  576.01   10.35
  -1   2  -3  570.79   10.39
  -1   2  -3  600.80   10.54
  -1   2  -3  585.27   10.63
   1  -2   3  578.65   10.14
   1  -2   3  571.64   10.36
   1  -2   3  586.97   10.64
   1  -2   3  578.32   10.52
   1  -2   3  577.10   10.52
  -2   2  -3    3.06    0.18
  -2   2  -3    3.01    0.22
  -2   2  -3    3.56    0.33
  -2   2  -3    3.15    0.17
  -2   2  -3    2.35    0.24
   2  -2   3    2.93    0.30
   2  -2   3    3.64    0.26
   2  -2   3    3.10    0.21
   2  -2   3    3.01    0.32
  -3   2  -3    0.20    0.06
  -3   2  -3    0.04    0.07
  -3   2  -3    0.15    0.05
   3  -2   3    0.12    0.08
   3  -2   3   -0.02    0.07
   3  -2   3   -0.03    0.08
   3  -2   3    0.15    0.09
  -4   2  -3    0.29    0.11
  -4   2  -3    0.36    0.06
  -4   2  -3    0.46    0.06
   4  -2   3    0.33    0.15
   4  -2   3    0.42    0.14
   4  -2   3    0.50    0.14
   4  -2   3    0.56    0.16
  -5   2  -3    1.09    0.19
   5  -2   3    1.37    0.23
   5  -2   3    1.23    0.20
  -6   2  -3    2.87    0.33
   6  -2   3    2.49    0.30
   6  -2   3    1.89    0.28
  -7   2  -3    0.15    0.14
   7  -2   3    0.16    0.13
   7  -2   3    0.15    0.11
  -8   2  -3   -0.13    0.13
   8  -2   3    0.05    0.15
   8  -2   3    0.04    0.12
   9  -2   3    2.10    0.39
  -8  -1   3    0.25    0.15
   7   1  -3    1.04    0.20
   7   1  -3    1.07    0.24
  -7  -1   3    1.11    0.19
   6   1  -3    2.20    0.25
   6   1  -3    2.21    0.29
   5   1  -3   46.75    1.13
   5   1  -3   46.44    1.21
   4   1  -3    2.06    0.30
   4   1  -3    2.35    0.25
   4   1  -3    2.12    0.19
   3   1  -3    7.14    0.24
   3   1  -3    7.48    0.40
   3   1  -3    6.93    0.31
   3   1  -3    6.93    0.26
   3   1  -3    6.92    0.23
  -3  -1   3    6.80    0.40
   2   1  -3    5.99    0.23
   2   1  -3    5.75    0.23
   2   1  -3    5.97    0.19
   2   1  -3    6.18    0.30
   2   1  -3    5.54    0.25
   2   1  -3    5.31    0.27
   2   1  -3    5.28    0.31
  -2  -1   3    5.72    0.30
  -2  -1   3    6.18    0.28
  -2  -1   3    5.85    0.19
   1   1  -3    5.98    0.25
   1   1  -3    6.48    0.23
   1   1  -3    6.03    0.19
   1   1  -3    6.22    0.24
   1   1  -3    5.77    0.25
   1   1  -3    6.09    0.25
   1   1  -3    5.89    0.21
  -1  -1   3    5.92    0.19
  -1  -1   3    6.41    0.17
  -1  -1   3    5.92    0.26
  -1  -1   3    6.66    0.25
  -1  -1   3    6.32    0.20
  -1  -1   3    6.08    0.25
   0   1  -3    1.27    0.14
   0   1  -3    2.01    0.18
   0   1  -3    1.76    0.09
   0   1  -3    1.70    0.12
   0   1  -3    1.78    0.10
   0  -1   3    1.73    0.09
   0  -1   3    1.74    0.12
   0  -1   3    1.76    0.12
   0  -1   3    1.78    0.10
   0  -1   3    1.66    0.16
   0  -1   3    1.72    0.17
  -1   1  -3    1.20    0.13
  -1   1  -3    1.22    0.12
  -1   1  -3    1.67    0.18
  -1   1  -3    0.85    0.10
  -1   1  -3    0.98    0.10
  -1   1  -3    1.05    0.13
   1  -1   3    1.56    0.17
   1  -1   3    1.30    0.17
   1  -1   3    1.04    0.11
   1  -1   3    1.29    0.09
   1  -1   3    1.41    0.10
   1  -1   3    1.25    0.15
  -2   1  -3   28.23    0.63
  -2   1  -3   28.66    0.73
  -2   1  -3   29.21    0.78
  -2   1  -3   28.90    0.62
  -2   1  -3   30.27    0.88
  -2   1  -3   29.79    0.59
  -2   1  -3   28.59    0.83
   2  -1   3   29.97    0.68
   2  -1   3   29.34    0.72
   2  -1   3   28.98    0.78
   2  -1   3   28.82    0.88
   2  -1   3   29.16    0.80
  -3   1  -3   56.69    1.25
   3  -1   3   55.32    1.48
   3  -1   3   55.66    1.32
   3  -1   3   56.42    1.28
   3  -1   3   58.62    1.37
  -4   1  -3    1.71    0.18
   4  -1   3    1.73    0.21
   4  -1   3    1.77    0.23
   4  -1   3    2.21    0.26
  -5   1  -3    6.62    0.33
   5  -1   3    6.13    0.38
   5  -1   3    6.24    0.39
   5  -1   3    6.74    0.36
  -6   1  -3    0.32    0.13
   6  -1   3    0.33    0.12
   6  -1   3    0.18    0.11
  -7   1  -3    0.11    0.12
   7  -1   3    0.46    0.18
   7  -1   3   -0.13    0.08
  -8   1  -3    0.15    0.14
  -8   1  -3    0.24    0.31
   8  -1   3    0.16    0.18
   8  -1   3    0.33    0.12
  -9   1  -3   -0.06    0.31
   9  -1   3    0.08    0.20
   8   0  -3   -0.18    0.15
  -8   0   3    0.04    0.06
   7   0  -3    0.07    0.10
   7   0  -3   -0.09    0.12
   6   0  -3    7.09    0.39
   6   0  -3    8.60    0.46
   5   0  -3    6.16    0.31
   5   0  -3    5.98    0.36
   4   0  -3   25.37    0.66
   4   0  -3   25.51    0.75
   4   0  -3   25.27    0.60
   4   0  -3   26.50    0.97
   4   0  -3   25.07    0.57
   3   0  -3    1.07    0.11
   3   0  -3    1.07    0.11
   3   0  -3    1.00    0.11
   3   0  -3    1.16    0.16
   3   0  -3    0.93    0.18
   3   0  -3    0.78    0.18
  -3   0   3    1.21    0.22
   2   0  -3    7.97    0.28
   2   0  -3    8.46    0.39
   2   0  -3    7.72    0.28
   2   0  -3    7.92    0.41
   2   0  -3    7.83    0.37
   2   0  -3    8.48    0.23
   2   0  -3    8.19    0.30
  -2   0   3    8.58    0.40
  -2   0   3    8.20    0.22
   1   0  -3    0.65    0.10
   1   0  -3    0.56    0.09
   1   0  -3    0.64    0.11
   1   0  -3    0.48    0.06
   1   0  -3    0.58    0.08
   1   0  -3    0.55    0.07
   1   0  -3    0.36    0.08
   1   0  -3    0.64    0.10
  -1   0   3    0.43    0.05
  -1   0   3    0.53    0.09
  -1   0   3    0.50    0.06
  -1   0   3    0.65    0.08
  -1   0   3    0.45    0.08
  -1   0   3    0.54    0.05
  -1   0   3    0.37    0.07
   0   0  -3    3.52    0.13
   0   0  -3    3.55    0.17
   0   0  -3    3.49    0.16
   0   0  -3    3.42    0.13
   0   0  -3    3.77    0.18
   0   0  -3    3.81    0.14
   0   0  -3    3.98    0.20
   0   0   3    3.52    0.19
   0   0   3    3.56    0.16
   0   0   3    3.68    0.12
   0   0   3    3.62    0.16
   0   0   3    3.33    0.14
   0   0   3    3.65    0.18
   0   0   3    3.85    0.18
  -1   0  -3    0.48    0.06
  -1   0  -3    0.36    0.10
  -1   0  -3    0.43    0.07
  -1   0  -3    0.57    0.10
  -1   0  -3    0.50    0.06
  -1   0  -3    0.70    0.10
  -1   0  -3    0.47    0.09
  -1   0  -3    0.46    0.07
   1   0   3    0.46    0.03
   1   0   3    0.65    0.12
   1   0   3    0.50    0.05
   1   0   3    0.61    0.09
   1   0   3    0.20    0.08
   1   0   3    0.42    0.05
   1   0   3    0.77    0.09
   1   0   3    0.78    0.12
  -2   0  -3   53.89    1.12
  -2   0  -3   50.76    1.10
  -2   0  -3   53.27    1.24
   2   0   3   53.11    1.13
   2   0   3   50.85    1.19
   2   0   3   53.37    1.21
  -3   0  -3    1.85    0.25
  -3   0  -3    1.65    0.15
  -3   0  -3    1.95    0.17
   3   0   3    1.82    0.19
   3   0   3    1.68    0.10
   3   0   3    2.15    0.22
   3   0   3    1.82    0.21
  -4   0  -3    6.54    0.28
  -4   0  -3    7.03    0.29
   4   0   3    6.86    0.36
   4   0   3    6.97    0.34
   4   0   3    6.74    0.35
   4   0   3    6.66    0.25
  -5   0  -3    0.30    0.09
  -5   0  -3    0.20    0.10
   5   0   3    0.27    0.11
   5   0   3    0.48    0.13
   5   0   3    0.46    0.12
  -6   0  -3    2.21    0.22
   6   0   3    2.26    0.24
   6   0   3    2.32    0.29
  -7   0  -3   -0.01    0.10
  -7   0  -3    0.16    0.19
   7   0   3    0.06    0.08
   7   0   3    0.05    0.11
  -8   0  -3   -0.02    0.24
  -8   0  -3    0.13    0.12
   8   0   3    0.20    0.15
  -9   0  -3    0.31    0.28
   9   0   3    0.24    0.20
  -9   1   3   -0.08    0.14
  -8   1   3    0.11    0.11
   7  -1  -3    0.95    0.19
   6  -1  -3    0.30    0.08
   6  -1  -3    0.18    0.09
   6  -1  -3    0.09    0.12
   6  -1  -3    0.22    0.08
  -6   1   3    0.30    0.08
   5  -1  -3    0.10    0.07
   5  -1  -3    0.12    0.10
   5  -1  -3    0.04    0.07
   5  -1  -3    0.06    0.06
   5  -1  -3    0.02    0.14
  -5   1   3   -0.03    0.04
   4  -1  -3    1.11    0.16
   4  -1  -3    1.38    0.16
   4  -1  -3    1.34    0.16
   4  -1  -3    1.28    0.19
   4  -1  -3    0.85    0.21
   4  -1  -3    1.07    0.23
  -4   1   3    1.27    0.19
  -4   1   3    1.41    0.12
   3  -1  -3  222.90    3.96
   3  -1  -3  223.08    4.57
   3  -1  -3  214.96    4.10
   3  -1  -3  218.52    4.16
   3  -1  -3  219.35    4.41
   3  -1  -3  220.32    4.85
   3  -1  -3  219.17    4.19
  -3   1   3  221.44    4.00
  -3   1   3  217.29    4.05
   2  -1  -3    0.28    0.09
   2  -1  -3    0.27    0.11
   2  -1  -3    0.52    0.10
   2  -1  -3    0.18    0.09
   2  -1  -3    0.37    0.12
   2  -1  -3    0.47    0.10
   2  -1  -3    0.45    0.07
  -2   1   3    0.38    0.05
  -2   1   3    0.31    0.08
  -2   1   3    0.38    0.08
   1  -1  -3   36.47    0.90
   1  -1  -3   36.99    0.72
   1  -1  -3   35.82    0.91
   1  -1  -3   36.52    0.92
   1  -1  -3   34.77    0.73
   1  -1  -3   36.04    0.98
   1  -1  -3   35.49    0.89
   1  -1  -3   36.72    0.84
   1  -1  -3   36.02    0.69
   1  -1  -3   36.28    0.76
   1  -1  -3   36.28    0.73
  -1   1   3   36.32    0.91
  -1   1   3   37.02    0.84
  -1   1   3   37.20    0.84
  -1   1   3   37.47    0.80
  -1   1   3   35.78    0.78
  -1   1   3   38.16    0.80
   0  -1  -3    0.04    0.04
   0  -1  -3    0.00    0.03
   0  -1  -3    0.01    0.04
   0  -1  -3    0.07    0.04
   0  -1  -3    0.01    0.04
   0  -1  -3    0.15    0.06
   0  -1  -3    0.03    0.07
   0   1   3    0.05    0.06
   0   1   3    0.08    0.04
   0   1   3    0.08    0.05
   0   1   3    0.06    0.05
   0   1   3    0.02    0.05
  -1  -1  -3    2.77    0.21
  -1  -1  -3    3.40    0.20
  -1  -1  -3    3.18    0.14
  -1  -1  -3    2.99    0.15
  -1  -1  -3    3.09    0.17
  -1  -1  -3    3.04    0.16
  -1  -1  -3    2.92    0.16
  -1  -1  -3    2.80    0.13
   1   1   3    3.15    0.22
   1   1   3    2.89    0.20
   1   1   3    3.24    0.19
   1   1   3    2.94    0.16
  -2  -1  -3    0.50    0.11
  -2  -1  -3    0.59    0.11
  -2  -1  -3    0.55    0.09
   2   1   3    0.51    0.10
   2   1   3    0.40    0.11
   2   1   3    0.48    0.11
  -3  -1  -3    7.45    0.39
  -3  -1  -3    7.65    0.29
  -3  -1  -3    8.46    0.34
   3   1   3    7.89    0.24
   3   1   3    7.73    0.35
   3   1   3    7.74    0.37
   3   1   3    7.50    0.36
  -4  -1  -3    5.62    0.38
  -4  -1  -3    5.36    0.24
  -4  -1  -3    5.64    0.28
   4   1   3    5.60    0.23
   4   1   3    5.46    0.32
   4   1   3    5.69    0.32
   4   1   3    5.34    0.31
  -5  -1  -3   -0.08    0.10
  -5  -1  -3   -0.04    0.05
   5   1   3    0.10    0.07
   5   1   3   -0.04    0.08
   5   1   3   -0.01    0.08
  -6  -1  -3    0.67    0.24
  -6  -1  -3    0.47    0.11
   6   1   3    0.79    0.19
   6   1   3    0.78    0.15
  -7  -1  -3    0.23    0.19
  -7  -1  -3    0.05    0.08
   7   1   3    0.05    0.11
   7   1   3    0.01    0.09
  -8  -1  -3    0.02    0.10
   8   1   3    0.34    0.19
  -9   2   3    0.26    0.20
  -8   2   3    0.66    0.20
   7  -2  -3    0.05    0.10
   7  -2  -3    0.29    0.13
  -7   2   3    0.02    0.11
   6  -2  -3   -0.08    0.08
   6  -2  -3   -0.08    0.09
  -6   2   3   -0.08    0.09
   5  -2  -3    1.04    0.20
   5  -2  -3    1.34    0.21
   5  -2  -3    1.28    0.19
   5  -2  -3    1.03    0.29
   5  -2  -3    0.60    0.23
  -5   2   3    1.03    0.16
   4  -2  -3   16.25    0.53
   4  -2  -3   15.29    0.62
   4  -2  -3   16.52    0.61
   4  -2  -3   14.43    0.75
   4  -2  -3   16.23    0.82
  -4   2   3   15.47    0.53
  -4   2   3   16.06    0.53
   3  -2  -3    0.08    0.12
   3  -2  -3    0.28    0.12
   3  -2  -3    0.22    0.10
   3  -2  -3    0.25    0.08
   3  -2  -3    0.24    0.13
   3  -2  -3    0.03    0.10
  -3   2   3    0.16    0.05
  -3   2   3    0.21    0.09
  -3   2   3    0.24    0.05
  -3   2   3    0.14    0.05
  -3   2   3    0.12    0.06
  -3   2   3    0.13    0.07
   2  -2  -3    3.07    0.13
   2  -2  -3    2.31    0.29
   2  -2  -3    2.73    0.31
   2  -2  -3    3.06    0.29
   2  -2  -3    3.06    0.17
   2  -2  -3    3.73    0.27
   2  -2  -3    3.42    0.33
  -2   2   3    3.30    0.20
  -2   2   3    3.14    0.23
  -2   2   3    3.35    0.34
  -2   2   3    3.20    0.31
  -2   2   3    3.06    0.17
  -2   2   3    3.38    0.23
  -2   2   3    3.03    0.17
   1  -2  -3    0.33    0.10
   1  -2  -3    0.44    0.11
   1  -2  -3    0.50    0.08
   1  -2  -3    0.37    0.08
   1  -2  -3    0.37    0.11
   1  -2  -3    0.34    0.11
   1  -2  -3    0.36    0.11
   1  -2  -3    0.39    0.08
  -1   2   3    0.51    0.10
  -1   2   3    0.24    0.07
  -1   2   3    0.38    0.10
  -1   2   3    0.58    0.14
   0  -2  -3    5.47    0.33
   0  -2  -3    5.20    0.28
   0  -2  -3    5.25    0.28
   0  -2  -3    5.59    0.24
   0  -2  -3    5.01    0.21
   0  -2  -3    5.49    0.23
   0  -2  -3    5.29    0.24
   0   2   3    5.78    0.33
   0   2   3    5.58    0.24
   0   2   3    5.39    0.33
   0   2   3    5.68    0.30
   0   2   3    5.70    0.23
  -1  -2  -3    3.58    0.17
  -1  -2  -3    3.84    0.20
  -1  -2  -3    3.89    0.19
  -1  -2  -3    3.44    0.22
  -1  -2  -3    3.71    0.16
  -1  -2  -3    3.87    0.28
  -1  -2  -3    4.14    0.28
   1   2   3    3.56    0.23
   1   2   3    3.37    0.26
   1   2   3    3.56    0.19
   1   2   3    3.84    0.27
  -2  -2  -3    2.60    0.12
  -2  -2  -3    3.23    0.24
  -2  -2  -3    3.07    0.16
  -2  -2  -3    2.90    0.13
  -2  -2  -3    2.69    0.19
  -2  -2  -3    3.05    0.20
  -2  -2  -3    3.08    0.20
   2   2   3    2.87    0.20
   2   2   3    2.89    0.28
   2   2   3    3.33    0.31
  -3  -2  -3    8.23    0.34
  -3  -2  -3    8.95    0.40
  -3  -2  -3    7.63    0.35
  -3  -2  -3    9.57    0.41
   3   2   3    8.96    0.39
   3   2   3    8.67    0.42
   3   2   3    8.45    0.41
  -4  -2  -3    1.15    0.19
  -4  -2  -3    1.51    0.22
  -4  -2  -3    1.40    0.17
   4   2   3    1.11    0.20
   4   2   3    1.37    0.15
   4   2   3    1.31    0.20
   4   2   3    1.37    0.21
  -5  -2  -3    0.74    0.20
  -5  -2  -3    0.61    0.15
  -5  -2  -3    0.74    0.13
   5   2   3    0.73    0.18
   5   2   3    0.80    0.18
   5   2   3    0.64    0.15
  -6  -2  -3    2.38    0.24
  -6  -2  -3    1.61    0.30
  -6  -2  -3    1.75    0.26
   6   2   3    2.55    0.32
   6   2   3    2.44    0.27
  -7  -2  -3    0.22    0.11
  -7  -2  -3    0.02    0.13
   7   2   3    0.25    0.12
   7   2   3    0.23    0.14
  -8  -2  -3    0.07    0.15
  -8  -2  -3    0.12    0.12
   8   2   3   -0.08    0.15
   9  -3  -3   12.57    0.47
   8  -3  -3    0.03    0.14
  -8   3   3    0.15    0.17
   7  -3  -3    0.94    0.22
   7  -3  -3    0.74    0.19
  -7   3   3    1.09    0.24
   6  -3  -3    0.19    0.14
   6  -3  -3    0.58    0.25
   6  -3  -3    0.13    0.11
  -6   3   3    0.16    0.14
   5  -3  -3    5.54    0.51
   5  -3  -3    5.23    0.33
   5  -3  -3    5.66    0.63
   5  -3  -3    5.16    0.59
  -5   3   3    5.15    0.23
   4  -3  -3    1.00    0.22
   4  -3  -3    0.85    0.25
   4  -3  -3    1.18    0.16
   4  -3  -3    0.90    0.23
   4  -3  -3    0.93    0.17
  -4   3   3    1.60    0.23
  -4   3   3    1.21    0.16
  -4   3   3    1.38    0.16
  -4   3   3    1.18    0.15
   3  -3  -3    3.26    0.37
   3  -3  -3    3.07    0.19
   3  -3  -3    2.29    0.31
   3  -3  -3    2.93    0.26
   3  -3  -3    2.46    0.31
   3  -3  -3    3.30    0.38
   3  -3  -3    2.52    0.34
   3  -3  -3    3.08    0.42
  -3   3   3    2.86    0.20
  -3   3   3    2.76    0.34
  -3   3   3    2.76    0.19
  -3   3   3    3.02    0.18
  -3   3   3    2.95    0.32
   2  -3  -3    4.85    0.35
   2  -3  -3    5.14    0.40
   2  -3  -3    4.67    0.22
   2  -3  -3    5.61    0.21
   2  -3  -3    5.72    0.41
   2  -3  -3    5.72    0.26
   2  -3  -3    5.22    0.26
   2  -3  -3    5.50    0.38
  -2   3   3    4.85    0.26
  -2   3   3    4.58    0.33
  -2   3   3    5.47    0.28
  -2   3   3    5.41    0.39
   1  -3  -3    3.98    0.25
   1  -3  -3    4.22    0.29
   1  -3  -3    4.22    0.30
   1  -3  -3    4.08    0.40
   1  -3  -3    4.51    0.24
   1  -3  -3    3.91    0.22
   1  -3  -3    4.30    0.32
   1  -3  -3    3.96    0.31
  -1   3   3    4.71    0.45
  -1   3   3    4.35    0.29
  -1   3   3    3.89    0.23
  -1   3   3    3.98    0.30
  -1   3   3    4.22    0.25
   0  -3  -3   19.38    0.66
   0  -3  -3   18.13    0.73
   0  -3  -3   18.01    0.64
   0  -3  -3   18.50    0.54
   0  -3  -3   19.30    0.66
   0  -3  -3   19.23    0.56
   0  -3  -3   18.51    0.53
   0  -3  -3   17.48    0.57
   0   3   3   18.58    0.73
   0   3   3   18.38    0.52
   0   3   3   19.10    0.56
   0   3   3   18.38    0.66
  -1  -3  -3    0.90    0.12
  -1  -3  -3    0.80    0.13
  -1  -3  -3    0.80    0.11
  -1  -3  -3    0.88    0.15
  -1  -3  -3    0.68    0.12
  -1  -3  -3    0.77    0.17
  -1  -3  -3    0.94    0.13
   1   3   3    0.53    0.15
   1   3   3    0.70    0.14
  -2  -3  -3    1.62    0.15
  -2  -3  -3    1.70    0.17
  -2  -3  -3    1.62    0.12
  -2  -3  -3    1.23    0.18
  -2  -3  -3    1.74    0.20
  -2  -3  -3    1.69    0.25
   2   3   3    1.30    0.23
   2   3   3    1.48    0.19
   2   3   3    1.37    0.23
  -3  -3  -3    0.16    0.08
  -3  -3  -3    0.21    0.06
  -3  -3  -3    0.16    0.08
  -3  -3  -3    0.20    0.09
  -3  -3  -3    0.10    0.04
   3   3   3    0.13    0.09
   3   3   3    0.20    0.11
  -4  -3  -3    1.56    0.20
  -4  -3  -3    2.13    0.24
  -4  -3  -3    1.70    0.22
   4   3   3    1.32    0.23
   4   3   3    1.40    0.21
  -5  -3  -3    0.03    0.08
  -5  -3  -3    0.00    0.08
   5   3   3   -0.11    0.08
   5   3   3    0.10    0.12
  -6  -3  -3    1.85    0.27
  -6  -3  -3    2.31    0.27
   6   3   3    2.13    0.31
   6   3   3    1.99    0.28
  -7  -3  -3    0.02    0.10
  -7  -3  -3    0.00    0.12
   7   3   3   -0.08    0.12
  -8  -3  -3    0.11    0.17
   8   3   3   -0.06    0.16
   8  -4  -3    2.27    0.38
  -8   4   3    1.89    0.36
   7  -4  -3    0.10    0.12
   7  -4  -3    0.09    0.18
  -7   4   3   -0.09    0.17
  -7   4   3    0.10    0.12
   6  -4  -3    0.30    0.23
   6  -4  -3    0.90    0.20
   6  -4  -3    0.58    0.23
  -6   4   3    0.90    0.26
  -6   4   3    0.86    0.17
   5  -4  -3   -0.16    0.15
   5  -4  -3    0.08    0.14
   5  -4  -3    0.13    0.10
   5  -4  -3    0.36    0.21
  -5   4   3   -0.01    0.11
  -5   4   3   -0.05    0.08
  -5   4   3   -0.10    0.07
   4  -4  -3    0.78    0.23
   4  -4  -3    1.30    0.18
   4  -4  -3    1.10    0.19
   4  -4  -3    1.01    0.27
   4  -4  -3    1.52    0.32
  -4   4   3    1.50    0.28
  -4   4   3    1.28    0.19
  -4   4   3    0.97    0.18
   3  -4  -3   16.06    0.58
   3  -4  -3   18.12    0.89
   3  -4  -3   15.70    0.76
   3  -4  -3   16.50    0.80
   3  -4  -3   17.20    0.56
   3  -4  -3   15.95    0.83
  -3   4   3   16.21    0.60
  -3   4   3   16.78    0.80
  -3   4   3   15.71    0.70
  -3   4   3   15.10    0.56
   2  -4  -3    0.46    0.18
   2  -4  -3    0.47    0.17
   2  -4  -3    0.34    0.11
   2  -4  -3    0.32    0.10
   2  -4  -3    0.25    0.08
   2  -4  -3    0.52    0.12
   2  -4  -3    0.80    0.23
   2  -4  -3    0.58    0.17
  -2   4   3    0.45    0.13
  -2   4   3    0.61    0.19
  -2   4   3    0.47    0.17
  -2   4   3    0.31    0.11
   1  -4  -3    1.39    0.24
   1  -4  -3    1.46    0.21
   1  -4  -3    2.07    0.25
   1  -4  -3    1.78    0.21
   1  -4  -3    1.58    0.23
   1  -4  -3    1.60    0.19
   1  -4  -3    1.40    0.24
   1  -4  -3    1.49    0.25
   1  -4  -3    1.09    0.24
  -1   4   3    2.03    0.29
  -1   4   3    1.66    0.23
  -1   4   3    1.81    0.22
  -1   4   3    1.51    0.19
  -1   4   3    1.62    0.30
   0  -4  -3    9.03    0.42
   0  -4  -3    9.91    0.41
   0  -4  -3    9.48    0.47
   0  -4  -3    9.50    0.40
   0  -4  -3    9.22    0.48
   0  -4  -3    9.41    0.40
   0  -4  -3    9.37    0.50
   0  -4  -3    9.69    0.57
   0   4   3    9.06    0.38
   0   4   3   10.03    0.58
   0   4   3    9.40    0.36
   0   4   3    9.92    0.51
  -1  -4  -3    3.40    0.40
  -1  -4  -3    3.61    0.23
  -1  -4  -3    3.93    0.25
  -1  -4  -3    3.94    0.25
  -1  -4  -3    3.67    0.26
  -1  -4  -3    3.92    0.22
  -1  -4  -3    3.53    0.35
   1   4   3    3.60    0.41
  -2  -4  -3    0.88    0.14
  -2  -4  -3    0.95    0.16
  -2  -4  -3    0.91    0.13
  -2  -4  -3    1.23    0.14
  -2  -4  -3    0.97    0.19
   2   4   3    0.88    0.23
  -3  -4  -3    0.35    0.11
  -3  -4  -3    0.17    0.07
  -3  -4  -3    0.10    0.10
  -3  -4  -3    0.35    0.09
   3   4   3    0.19    0.12
  -4  -4  -3    0.07    0.10
  -4  -4  -3    0.03    0.06
  -4  -4  -3   -0.01    0.08
   4   4   3    0.13    0.11
   4   4   3   -0.09    0.11
  -5  -4  -3    0.29    0.13
  -5  -4  -3    0.13    0.14
   5   4   3    0.29    0.15
   5   4   3    0.10    0.15
  -6  -4  -3    0.63    0.20
  -6  -4  -3    0.40    0.18
   6   4   3    0.59    0.21
   6   4   3    0.13    0.15
  -7  -4  -3   13.23    0.66
  -7  -4  -3   13.00    0.71
   7   4   3   14.21    0.76
   8  -5  -3    0.03    0.22
  -8   5   3   -0.11    0.20
  -8   5   3   -0.13    0.16
   7  -5  -3    8.24    0.54
   7  -5  -3    8.18    0.80
  -7   5   3    9.37    0.69
  -7   5   3    8.35    0.52
   6  -5  -3    0.05    0.19
   6  -5  -3   -0.05    0.16
   6  -5  -3   -0.04    0.11
  -6   5   3   -0.13    0.10
  -6   5   3   -0.15    0.16
   5  -5  -3    0.15    0.12
   5  -5  -3   -0.13    0.17
   5  -5  -3    0.01    0.15
  -5   5   3    0.08    0.11
  -5   5   3   -0.04    0.10
  -5   5   3   -0.15    0.13
   4  -5  -3    3.95    0.52
   4  -5  -3    5.65    0.66
   4  -5  -3    6.14    0.64
   4  -5  -3    4.70    0.35
  -4   5   3    4.42    0.35
  -4   5   3    5.10    0.54
  -4   5   3    4.49    0.34
   3  -5  -3   -0.10    0.07
   3  -5  -3   -0.03    0.13
   3  -5  -3    0.06    0.13
   3  -5  -3   -0.15    0.11
   3  -5  -3   -0.12    0.08
  -3   5   3    0.11    0.10
  -3   5   3   -0.08    0.12
  -3   5   3    0.00    0.08
   2  -5  -3    1.01    0.22
   2  -5  -3    0.48    0.13
   2  -5  -3    0.53    0.13
   2  -5  -3    0.56    0.21
   2  -5  -3    0.68    0.17
   2  -5  -3    0.79    0.17
   2  -5  -3    0.90    0.25
   2  -5  -3    0.28    0.18
  -2   5   3    0.91    0.27
  -2   5   3    1.14    0.21
  -2   5   3    0.54    0.14
  -2   5   3    0.62    0.22
   1  -5  -3    4.93    0.35
   1  -5  -3    5.24    0.36
   1  -5  -3    5.08    0.33
   1  -5  -3    5.20    0.41
   1  -5  -3    5.42    0.59
   1  -5  -3    4.43    0.45
   1  -5  -3    5.16    0.38
   1  -5  -3    4.26    0.31
  -1   5   3    5.60    0.35
  -1   5   3    4.86    0.31
  -1   5   3    5.45    0.61
  -1   5   3    5.24    0.51
   0  -5  -3    2.28    0.27
   0  -5  -3    2.79    0.43
   0  -5  -3    2.25    0.26
   0  -5  -3    2.24    0.35
   0  -5  -3    2.95    0.37
   0  -5  -3    2.67    0.27
   0  -5  -3    1.77    0.25
   0  -5  -3    2.43    0.31
   0   5   3    2.48    0.19
   0   5   3    2.40    0.23
   0   5   3    2.03    0.37
  -1  -5  -3    8.18    0.43
  -1  -5  -3    8.03    0.41
  -1  -5  -3    8.21    0.40
  -1  -5  -3    8.16    0.44
  -1  -5  -3    8.97    0.53
  -1  -5  -3    8.03    0.48
   1   5   3    9.04    0.62
  -2  -5  -3    0.13    0.10
  -2  -5  -3    0.19    0.14
  -2  -5  -3    0.15    0.08
  -2  -5  -3    0.20    0.11
  -2  -5  -3    0.07    0.09
   2   5   3    0.07    0.12
  -3  -5  -3    0.86    0.20
  -3  -5  -3    0.73    0.14
  -3  -5  -3    0.95    0.23
  -3  -5  -3    0.91    0.17
   3   5   3    0.64    0.23
  -4  -5  -3    0.12    0.09
  -4  -5  -3    0.11    0.12
  -4  -5  -3    0.11    0.12
   4   5   3    0.13    0.17
  -5  -5  -3    0.04    0.09
  -5  -5  -3   -0.01    0.12
  -5  -5  -3    0.08    0.14
   5   5   3    0.09    0.18
  -6  -5  -3    0.34    0.17
  -6  -5  -3    0.12    0.16
   6   5   3    0.66    0.26
  -7  -5  -3   -0.12    0.17
   8  -6  -3    0.47    0.29
   7  -6  -3    1.19    0.37
   7  -6  -3    0.61    0.22
  -7   6   3    1.20    0.38
  -7   6   3    0.87    0.29
   6  -6  -3    0.82    0.24
   6  -6  -3    0.96    0.33
   6  -6  -3    0.97    0.41
  -6   6   3    1.44    0.38
  -6   6   3    1.22    0.27
  -6   6   3    1.18    0.28
   5  -6  -3    1.96    0.33
   5  -6  -3    1.64    0.40
   5  -6  -3    1.44    0.42
  -5   6   3    1.82    0.31
  -5   6   3    2.16    0.33
  -5   6   3    1.38    0.33
   4  -6  -3    0.15    0.14
   4  -6  -3    0.19    0.18
   4  -6  -3    0.25    0.20
  -4   6   3    0.33    0.20
  -4   6   3    0.06    0.13
  -4   6   3   -0.01    0.12
   3  -6  -3    2.82    0.42
   3  -6  -3    3.64    0.38
   3  -6  -3    3.90    0.56
   3  -6  -3    3.05    0.51
  -3   6   3    3.12    0.38
  -3   6   3    3.76    0.39
  -3   6   3    4.30    0.54
   2  -6  -3    0.62    0.21
   2  -6  -3    0.53    0.20
   2  -6  -3    0.55    0.17
   2  -6  -3    0.41    0.15
   2  -6  -3    0.86    0.27
   2  -6  -3    0.67    0.16
   2  -6  -3    0.40    0.18
   2  -6  -3    0.11    0.18
  -2   6   3    0.64    0.17
  -2   6   3    0.70    0.20
  -2   6   3    0.65    0.23
   1  -6  -3    2.00    0.34
   1  -6  -3    2.18    0.42
   1  -6  -3    2.41    0.31
   1  -6  -3    2.25    0.29
   1  -6  -3    2.77    0.40
   1  -6  -3    2.75    0.38
   1  -6  -3    2.65    0.34
   1  -6  -3    3.32    0.36
  -1   6   3    2.44    0.30
  -1   6   3    2.42    0.46
  -1   6   3    2.76    0.31
   0  -6  -3    0.29    0.16
   0  -6  -3   -0.05    0.09
   0  -6  -3    0.18    0.12
   0  -6  -3    0.01    0.11
   0  -6  -3    0.02    0.09
   0  -6  -3    0.17    0.14
   0  -6  -3    0.06    0.13
   0   6   3    0.33    0.20
  -1  -6  -3   16.40    0.71
  -1  -6  -3   16.25    0.84
  -1  -6  -3   16.31    0.66
  -1  -6  -3   16.87    0.78
  -1  -6  -3   15.96    0.67
   1   6   3   16.38    0.92
  -2  -6  -3    2.54    0.39
  -2  -6  -3    3.38    0.39
  -2  -6  -3    2.51    0.29
  -2  -6  -3    2.68    0.32
  -2  -6  -3    2.94    0.34
   2   6   3    2.74    0.46
  -3  -6  -3    0.25    0.12
  -3  -6  -3    0.21    0.15
  -3  -6  -3    0.30    0.17
  -3  -6  -3    0.02    0.10
   3   6   3    0.50    0.26
  -4  -6  -3    0.24    0.19
  -4  -6  -3   -0.06    0.13
  -4  -6  -3    0.25    0.12
   4   6   3    0.14    0.20
  -5  -6  -3    0.02    0.11
  -5  -6  -3   -0.23    0.15
  -5  -6  -3    0.05    0.15
   5   6   3   -0.10    0.17
  -6  -6  -3    0.44    0.22
   6   6   3   -0.16    0.25
   7  -7  -3    0.96    0.30
   7  -7  -3    0.53    0.33
  -7   7   3    0.42    0.32
  -7   7   3    0.52    0.24
   6  -7  -3    0.63    0.34
   6  -7  -3    1.32    0.32
  -6   7   3    1.71    0.45
  -6   7   3    1.65    0.33
  -6   7   3    1.84    0.38
   5  -7  -3   22.17    1.27
   5  -7  -3   23.45    1.38
   5  -7  -3   21.54    0.94
  -5   7   3   21.20    0.96
  -5   7   3   23.00    0.93
  -5   7   3   23.11    1.18
   4  -7  -3    5.91    0.74
   4  -7  -3    5.22    0.51
   4  -7  -3    4.78    0.67
  -4   7   3    4.29    0.59
  -4   7   3    4.63    0.52
  -4   7   3    4.80    0.48
   3  -7  -3    0.01    0.22
   3  -7  -3   -0.11    0.18
   3  -7  -3    0.17    0.13
  -3   7   3   -0.03    0.11
  -3   7   3    0.11    0.16
   2  -7  -3    0.04    0.11
   2  -7  -3    0.11    0.12
   2  -7  -3    0.03    0.18
  -2   7   3   -0.06    0.11
  -2   7   3   -0.08    0.12
   1  -7  -3    0.01    0.11
   1  -7  -3    0.40    0.20
   1  -7  -3    0.28    0.19
   1  -7  -3    0.20    0.15
   1  -7  -3    0.23    0.15
  -1   7   3    0.19    0.22
  -1   7   3    0.45    0.15
   0  -7  -3   -0.03    0.11
   0  -7  -3    0.22    0.14
   0  -7  -3    0.07    0.12
   0  -7  -3   -0.01    0.16
   0  -7  -3   -0.04    0.14
   0   7   3    0.08    0.18
  -1  -7  -3    1.04    0.24
  -1  -7  -3    0.99    0.26
  -1  -7  -3    0.20    0.19
  -1  -7  -3    0.69    0.20
  -1  -7  -3    0.90    0.24
   1   7   3    0.66    0.28
  -2  -7  -3    1.40    0.28
  -2  -7  -3    1.46    0.28
  -2  -7  -3    0.53    0.26
  -2  -7  -3    1.20    0.23
   2   7   3    1.50    0.41
  -3  -7  -3   18.08    0.76
  -3  -7  -3   18.21    0.83
  -3  -7  -3   16.40    0.95
  -3  -7  -3   17.78    0.82
   3   7   3   20.10    1.11
  -4  -7  -3    0.18    0.22
  -4  -7  -3    0.12    0.19
   4   7   3    0.00    0.21
  -5  -7  -3    1.12    0.29
   5   7   3    0.38    0.35
   7  -8  -3   -0.02    0.20
   6  -8  -3   -0.02    0.15
   6  -8  -3   -0.27    0.27
  -6   8   3    0.17    0.30
   5  -8  -3    0.79    0.24
   5  -8  -3    0.47    0.41
   5  -8  -3    0.22    0.28
  -5   8   3    0.87    0.27
  -5   8   3    0.87    0.29
   4  -8  -3    1.15    0.37
   4  -8  -3    0.66    0.23
   4  -8  -3    1.62    0.50
  -4   8   3    1.16    0.31
  -4   8   3    0.94    0.25
   3  -8  -3    2.63    0.42
   3  -8  -3    2.71    0.55
  -3   8   3    2.14    0.35
  -3   8   3    2.73    0.43
   2  -8  -3    0.37    0.18
   2  -8  -3    0.19    0.16
   2  -8  -3    0.27    0.25
  -2   8   3    0.36    0.17
   1  -8  -3    0.38    0.20
   1  -8  -3   -0.02    0.15
   1  -8  -3    0.35    0.20
   1  -8  -3   -0.06    0.20
   0  -8  -3   -0.02    0.15
   0  -8  -3    0.22    0.16
   0  -8  -3   -0.06    0.15
   0  -8  -3    0.17    0.23
   0   8   3    0.02    0.22
  -1  -8  -3    0.59    0.20
  -1  -8  -3    0.40    0.18
  -1  -8  -3    0.48    0.21
   1   8   3    0.35    0.26
  -2  -8  -3   -0.04    0.14
  -2  -8  -3    0.06    0.16
  -2  -8  -3   -0.15    0.21
  -2  -8  -3    0.10    0.15
   2   8   3    0.11    0.26
  -3  -8  -3    2.53    0.40
  -3  -8  -3    2.75    0.42
  -3  -8  -3    1.43    0.42
   3   8   3    2.21    0.50
  -4  -8  -3    5.33    0.58
   6  -9  -3    0.36    0.28
   5  -9  -3    0.01    0.20
   4  -9  -3   -0.18    0.15
  -4   9   3   -0.03    0.22
   3  -9  -3   20.05    1.00
   3  -9  -3   20.96    1.33
  -3   9   3   22.93    0.93
   2  -9  -3    1.08    0.32
   2  -9  -3    1.09    0.31
   1  -9  -3   -0.14    0.16
   1  -9  -3   -0.07    0.15
   0  -9  -3    0.13    0.19
   0  -9  -3   -0.12    0.16
   0  -9  -3   -0.04    0.17
  -1  -9  -3    0.02    0.20
   1   9   3   -0.14    0.29
  -2  -9  -3   -0.03    0.20
   2   9   3    0.16    0.33
  -3  -9  -3   -0.06    0.19
   3 -10  -3    0.66    0.30
   2 -10  -3    4.97    0.63
   1 -10  -3    0.13    0.22
   0 -10  -3   -0.30    0.17
   2  10  -4    0.52    0.37
  -2 -10   4    0.08    0.19
   1  10  -4   -0.29    0.32
  -1 -10   4   -0.05    0.20
   0 -10   4    0.47    0.24
   1 -10   4    0.42    0.25
   1 -10   4   -0.13    0.18
   2 -10   4    2.17    0.42
   2 -10   4    1.75    0.38
   3 -10   4    0.41    0.23
   4 -10   4   -0.11    0.20
   5 -10   4    0.34    0.25
  -4  -9   4    0.98    0.30
   3   9  -4    0.26    0.30
  -3  -9   4   -0.30    0.15
  -3  -9   4   -0.15    0.20
   2   9  -4    0.15    0.30
  -2  -9   4   -0.04    0.15
  -2  -9   4    0.10    0.19
   1   9  -4    0.66    0.34
  -1  -9   4    0.46    0.22
  -1  -9   4    0.37    0.22
  -1  -9   4    0.59    0.25
   0   9  -4    0.18    0.30
   0  -9   4    0.06    0.16
   0  -9   4    0.25    0.19
   0  -9   4    0.12    0.15
   1  -9   4    0.03    0.17
   1  -9   4    0.09    0.19
   1  -9   4    0.04    0.20
   2  -9   4    3.50    0.49
   2  -9   4    4.18    0.50
  -3   9  -4    6.15    0.47
   3  -9   4    6.09    0.64
  -4   9  -4    0.02    0.19
   4  -9   4   -0.02    0.17
   5  -9   4    0.66    0.28
   6  -9   4    0.15    0.36
   6  -9   4    0.14    0.23
  -5  -8   4    0.33    0.23
   4   8  -4   -0.13    0.23
  -4  -8   4    0.01    0.14
   3   8  -4    5.87    0.73
  -3  -8   4    7.00    0.50
  -3  -8   4    5.34    0.57
  -3  -8   4    5.88    0.54
   2   8  -4    0.24    0.24
  -2  -8   4    0.20    0.16
  -2  -8   4    0.52    0.22
  -2  -8   4    0.48    0.20
   1   8  -4   -0.07    0.18
  -1  -8   4   -0.01    0.12
  -1  -8   4   -0.06    0.12
  -1  -8   4   -0.09    0.13
   0   8  -4    0.16    0.23
   0  -8   4    0.04    0.12
   0  -8   4   -0.10    0.18
   0  -8   4    0.21    0.16
   0  -8   4    0.11    0.14
  -1   8  -4    0.08    0.23
   1  -8   4    0.14    0.13
   1  -8   4   -0.16    0.17
   1  -8   4    0.16    0.17
   1  -8   4   -0.33    0.12
  -2   8  -4   -0.03    0.11
   2  -8   4    0.00    0.19
   2  -8   4   -0.17    0.12
   2  -8   4   -0.01    0.13
  -3   8  -4    8.93    0.54
  -3   8  -4    8.55    0.58
   3  -8   4    8.63    0.60
   3  -8   4    7.11    0.82
  -4   8  -4   18.90    0.85
  -4   8  -4   21.21    0.93
   4  -8   4   22.45    1.28
   4  -8   4   20.74    1.16
   4  -8   4   20.08    0.96
  -5   8  -4    0.39    0.23
  -5   8  -4    0.18    0.19
  -5   8  -4    0.37    0.28
   5  -8   4    0.29    0.19
   5  -8   4   -0.11    0.24
  -6   8  -4   -0.05    0.18
  -6   8  -4    0.47    0.34
   6  -8   4    0.06    0.31
   6  -8   4    0.07    0.20
  -7   8  -4   -0.09    0.32
   7  -8   4   -0.06    0.20
   7  -8   4   -0.43    0.29
   6   7  -4    0.09    0.20
  -6  -7   4    0.36    0.21
   5   7  -4   -0.14    0.13
   5   7  -4   -0.09    0.19
  -5  -7   4   -0.09    0.13
  -5  -7   4    0.09    0.13
   4   7  -4   -0.09    0.19
  -4  -7   4   -0.05    0.12
  -4  -7   4    0.11    0.15
   3   7  -4   19.13    1.01
  -3  -7   4   18.44    0.78
  -3  -7   4   17.30    0.75
   2   7  -4    0.89    0.28
  -2  -7   4    1.24    0.35
  -2  -7   4    1.44    0.27
  -2  -7   4    1.14    0.24
  -2  -7   4    1.15    0.23
   1   7  -4    0.09    0.18
  -1  -7   4   -0.06    0.08
  -1  -7   4   -0.04    0.17
  -1  -7   4   -0.11    0.10
  -1  -7   4    0.06    0.10
   0   7  -4    0.05    0.18
   0  -7   4    0.29    0.14
   0  -7   4    0.10    0.12
   0  -7   4    0.12    0.13
   0  -7   4    0.13    0.18
  -1   7  -4    3.21    0.29
  -1   7  -4    2.54    0.48
   1  -7   4    2.61    0.46
   1  -7   4    2.95    0.37
   1  -7   4    2.61    0.35
   1  -7   4    3.09    0.39
  -2   7  -4    0.18    0.11
  -2   7  -4    0.03    0.13
   2  -7   4   -0.18    0.12
   2  -7   4   -0.07    0.10
   2  -7   4    0.14    0.12
   2  -7   4    0.00    0.11
   2  -7   4    0.19    0.23
  -3   7  -4    1.03    0.24
  -3   7  -4    0.97    0.29
  -3   7  -4    0.56    0.18
  -3   7  -4    0.93    0.26
   3  -7   4    0.74    0.23
   3  -7   4    1.50    0.40
   3  -7   4    0.89    0.30
  -4   7  -4    3.04    0.48
  -4   7  -4    2.90    0.37
  -4   7  -4    3.76    0.45
   4  -7   4    3.23    0.56
   4  -7   4    2.99    0.40
   4  -7   4    3.76    0.56
  -5   7  -4    1.84    0.34
  -5   7  -4    1.47    0.37
  -5   7  -4    1.54    0.28
   5  -7   4    1.41    0.39
   5  -7   4    1.99    0.35
   5  -7   4    1.43    0.40
  -6   7  -4   -0.01    0.19
  -6   7  -4    0.13    0.25
  -6   7  -4    0.05    0.19
   6  -7   4   -0.21    0.20
   6  -7   4   -0.04    0.14
  -7   7  -4   -0.13    0.22
  -7   7  -4   -0.11    0.24
   7  -7   4    0.01    0.19
   7  -7   4   -0.06    0.23
   8  -7   4    0.46    0.25
  -7  -6   4    0.15    0.18
   6   6  -4    0.15    0.15
   6   6  -4    0.32    0.19
  -6  -6   4   -0.01    0.14
   5   6  -4   -0.07    0.14
   5   6  -4    0.05    0.13
  -5  -6   4    0.16    0.14
   4   6  -4    0.08    0.16
  -4  -6   4    0.02    0.11
  -4  -6   4   -0.03    0.07
   3   6  -4    3.19    0.45
  -3  -6   4    3.27    0.51
  -3  -6   4    3.67    0.35
  -3  -6   4    3.05    0.33
   2   6  -4   55.45    1.74
  -2  -6   4   53.29    1.43
  -2  -6   4   56.31    1.37
  -2  -6   4   50.50    1.74
  -2  -6   4   53.99    1.40
   1   6  -4   10.94    0.71
  -1  -6   4   10.58    0.70
  -1  -6   4   10.57    0.51
  -1  -6   4    9.95    0.52
  -1  -6   4   10.65    0.51
   0   6  -4    1.45    0.33
   0  -6   4    1.55    0.25
   0  -6   4    1.12    0.20
   0  -6   4    0.88    0.20
   0  -6   4    0.74    0.23
  -1   6  -4    0.81    0.27
  -1   6  -4    0.63    0.15
  -1   6  -4    0.80    0.14
  -1   6  -4    0.95    0.16
   1  -6   4    0.54    0.17
   1  -6   4    0.69    0.17
   1  -6   4    0.39    0.16
   1  -6   4    0.32    0.20
   1  -6   4    0.73    0.24
  -2   6  -4   -0.05    0.09
  -2   6  -4    0.27    0.13
  -2   6  -4    0.10    0.13
  -2   6  -4    0.21    0.17
  -2   6  -4   -0.05    0.15
   2  -6   4    0.57    0.16
   2  -6   4    0.15    0.16
   2  -6   4    0.27    0.13
   2  -6   4    0.21    0.12
   2  -6   4    0.10    0.17
  -3   6  -4    0.72    0.18
  -3   6  -4    0.56    0.21
  -3   6  -4    0.50    0.16
   3  -6   4    0.45    0.16
   3  -6   4    0.41    0.23
   3  -6   4    0.57    0.22
   3  -6   4    0.43    0.12
  -4   6  -4    0.34    0.15
  -4   6  -4    0.24    0.16
  -4   6  -4    0.48    0.16
   4  -6   4    0.36    0.17
   4  -6   4    0.41    0.21
   4  -6   4    0.33    0.20
  -5   6  -4    0.31    0.19
  -5   6  -4   -0.26    0.12
  -5   6  -4   -0.06    0.14
   5  -6   4    0.06    0.18
   5  -6   4   -0.17    0.09
   5  -6   4    0.04    0.17
  -6   6  -4   11.46    0.67
  -6   6  -4   13.10    0.67
  -6   6  -4   12.22    0.79
   6  -6   4   13.88    0.90
   6  -6   4   11.54    0.70
   6  -6   4   11.33    0.85
  -7   6  -4    2.08    0.42
  -7   6  -4    1.95    0.35
  -7   6  -4    2.71    0.41
   7  -6   4    1.91    0.36
   7  -6   4    3.32    0.56
   8  -6   4    0.03    0.18
   8  -6   4    0.04    0.25
  -7  -5   4    0.32    0.18
   6   5  -4    0.12    0.15
   6   5  -4   -0.01    0.11
  -6  -5   4    0.28    0.15
  -6  -5   4   -0.06    0.12
   5   5  -4    0.91    0.22
   5   5  -4    0.54    0.19
  -5  -5   4    0.66    0.18
   4   5  -4    0.76    0.21
  -4  -5   4    0.67    0.17
   3   5  -4   -0.11    0.08
  -3  -5   4    0.00    0.06
  -3  -5   4   -0.09    0.07
   2   5  -4    0.24    0.15
  -2  -5   4    0.18    0.15
  -2  -5   4    0.24    0.11
  -2  -5   4    0.17    0.09
  -2  -5   4    0.23    0.08
   1   5  -4    2.37    0.37
  -1  -5   4    3.79    0.47
  -1  -5   4    2.74    0.27
  -1  -5   4    3.09    0.29
  -1  -5   4    1.99    0.25
   0   5  -4    3.46    0.19
   0   5  -4    3.13    0.19
   0   5  -4    3.46    0.33
   0   5  -4    3.44    0.42
   0   5  -4    3.47    0.19
   0   5  -4    3.48    0.17
   0  -5   4    3.14    0.30
   0  -5   4    2.96    0.31
   0  -5   4    3.52    0.34
   0  -5   4    3.29    0.43
   0  -5   4    3.03    0.41
  -1   5  -4    0.14    0.11
  -1   5  -4    0.07    0.07
  -1   5  -4   -0.08    0.06
  -1   5  -4    0.00    0.06
  -1   5  -4    0.04    0.12
   1  -5   4    0.20    0.13
   1  -5   4    0.01    0.09
   1  -5   4    0.01    0.11
   1  -5   4   -0.02    0.07
   1  -5   4   -0.04    0.07
  -2   5  -4    7.49    0.69
  -2   5  -4    6.77    0.42
  -2   5  -4    7.79    0.50
  -2   5  -4    6.25    0.36
  -2   5  -4    6.96    0.39
   2  -5   4    7.06    0.52
   2  -5   4    6.28    0.36
   2  -5   4    7.40    0.54
   2  -5   4    7.21    0.40
  -3   5  -4    1.05    0.25
  -3   5  -4    1.03    0.20
  -3   5  -4    0.85    0.17
   3  -5   4    1.09    0.27
   3  -5   4    0.68    0.17
   3  -5   4    0.93    0.23
  -4   5  -4    2.54    0.32
  -4   5  -4    2.57    0.37
  -4   5  -4    1.80    0.26
   4  -5   4    1.65    0.26
   4  -5   4    2.48    0.41
   4  -5   4    2.84    0.44
  -5   5  -4    0.15    0.12
  -5   5  -4    0.16    0.14
  -5   5  -4    0.04    0.15
   5  -5   4    0.07    0.15
   5  -5   4    0.13    0.11
   5  -5   4    0.10    0.16
  -6   5  -4    0.46    0.17
  -6   5  -4    0.35    0.18
  -6   5  -4    0.50    0.23
   6  -5   4    0.31    0.18
   6  -5   4    0.35    0.24
   6  -5   4    0.46    0.23
  -7   5  -4    0.95    0.30
  -7   5  -4    1.17    0.27
   7  -5   4    1.16    0.33
   7  -5   4    1.26    0.29
  -8   5  -4    1.83    0.44
   8  -5   4    1.89    0.36
   8  -5   4    2.26    0.43
  -8  -4   4   10.52    0.49
   7   4  -4   25.91    1.03
  -7  -4   4   25.44    0.81
  -7  -4   4   26.63    0.93
   6   4  -4    0.13    0.14
  -6  -4   4    0.22    0.13
  -6  -4   4    0.21    0.11
   5   4  -4    0.62    0.18
   5   4  -4    0.63    0.15
  -5  -4   4    0.70    0.16
  -5  -4   4    0.45    0.14
   4   4  -4    1.15    0.20
   4   4  -4    1.34    0.23
  -4  -4   4    1.09    0.17
  -4  -4   4    0.96    0.17
   3   4  -4    1.67    0.26
  -3  -4   4    1.37    0.18
   2   4  -4    4.81    0.45
   2   4  -4    4.87    0.45
   2   4  -4    4.42    0.21
  -2  -4   4    4.87    0.20
  -2  -4   4    5.03    0.22
  -2  -4   4    4.60    0.32
  -2  -4   4    4.13    0.43
  -2  -4   4    4.26    0.21
  -2  -4   4    4.60    0.26
   1   4  -4   14.29    0.47
   1   4  -4   14.19    0.65
   1   4  -4   13.47    0.37
   1   4  -4   13.87    0.65
  -1  -4   4   13.13    0.46
  -1  -4   4   12.49    0.63
  -1  -4   4   13.95    0.62
  -1  -4   4   14.41    0.48
  -1  -4   4   13.28    0.49
   0   4  -4    1.31    0.26
   0   4  -4    1.47    0.14
   0   4  -4    1.22    0.13
   0   4  -4    1.27    0.19
   0   4  -4    1.33    0.13
   0   4  -4    1.44    0.13
   0  -4   4    0.96    0.16
   0  -4   4    1.58    0.26
   0  -4   4    1.05    0.20
   0  -4   4    1.37    0.19
   0  -4   4    1.57    0.18
  -1   4  -4  108.92    2.21
  -1   4  -4  104.81    2.33
  -1   4  -4  109.91    2.54
  -1   4  -4  105.28    2.20
  -1   4  -4  104.74    2.15
   1  -4   4  102.53    2.23
   1  -4   4  106.47    2.19
   1  -4   4  104.53    2.45
   1  -4   4  105.42    2.49
   1  -4   4  104.41    2.27
  -2   4  -4    0.48    0.11
  -2   4  -4    0.60    0.15
  -2   4  -4    0.39    0.14
  -2   4  -4    0.79    0.15
  -2   4  -4    1.04    0.25
   2  -4   4    0.56    0.12
   2  -4   4    0.76    0.21
   2  -4   4    0.34    0.16
   2  -4   4    0.38    0.11
   2  -4   4    0.55    0.12
  -3   4  -4   -0.04    0.07
  -3   4  -4    0.00    0.12
  -3   4  -4   -0.06    0.08
  -3   4  -4   -0.02    0.07
   3  -4   4   -0.01    0.11
   3  -4   4    0.08    0.09
   3  -4   4    0.03    0.09
  -4   4  -4    0.27    0.13
  -4   4  -4    0.20    0.14
  -4   4  -4    0.09    0.09
   4  -4   4    0.26    0.16
   4  -4   4    0.35    0.16
   4  -4   4    0.41    0.15
  -5   4  -4    0.82    0.22
  -5   4  -4    0.75    0.16
  -5   4  -4    1.11    0.21
   5  -4   4    0.53    0.22
   5  -4   4    0.84    0.20
   5  -4   4    0.60    0.20
  -6   4  -4    0.16    0.16
  -6   4  -4    0.51    0.16
   6  -4   4    0.37    0.19
   6  -4   4    0.46    0.26
   6  -4   4    0.28    0.16
  -7   4  -4   -0.15    0.15
  -7   4  -4   -0.04    0.13
   7  -4   4   -0.08    0.14
   7  -4   4   -0.07    0.13
  -8   4  -4    0.34    0.20
  -8   4  -4    0.01    0.20
   8  -4   4    0.24    0.19
   8  -4   4    0.11    0.18
   9  -4   4    0.31    0.22
   7   3  -4    5.95    0.55
   7   3  -4    6.82    0.43
  -7  -3   4    7.01    0.42
   6   3  -4    1.34    0.26
   6   3  -4    1.36    0.22
  -6  -3   4    1.14    0.20
  -6  -3   4    1.25    0.12
   5   3  -4    0.08    0.07
   5   3  -4    0.08    0.07
   5   3  -4    0.16    0.13
   5   3  -4    0.15    0.10
  -5  -3   4    0.08    0.05
  -5  -3   4    0.31    0.11
  -5  -3   4    0.08    0.05
   4   3  -4    0.32    0.12
   4   3  -4    0.18    0.10
   4   3  -4    0.16    0.09
  -4  -3   4    0.47    0.11
  -4  -3   4    0.29    0.12
  -4  -3   4    0.43    0.08
  -4  -3   4    0.48    0.10
   3   3  -4    0.09    0.09
   3   3  -4    0.02    0.07
   3   3  -4    0.14    0.08
  -3  -3   4    0.05    0.08
  -3  -3   4    0.14    0.06
  -3  -3   4    0.19    0.07
  -3  -3   4    0.07    0.05
   2   3  -4   -0.05    0.06
   2   3  -4    0.01    0.07
   2   3  -4   -0.03    0.05
  -2  -3   4   -0.04    0.05
  -2  -3   4    0.06    0.08
  -2  -3   4   -0.05    0.03
  -2  -3   4    0.03    0.05
   1   3  -4    2.69    0.17
   1   3  -4    2.95    0.30
   1   3  -4    2.50    0.27
   1   3  -4    2.64    0.15
   1   3  -4    2.80    0.14
  -1  -3   4    2.79    0.16
  -1  -3   4    3.41    0.32
  -1  -3   4    2.69    0.30
  -1  -3   4    2.64    0.17
  -1  -3   4    3.34    0.23
  -1  -3   4    2.26    0.15
  -1  -3   4    2.93    0.18
   0   3  -4    5.63    0.22
   0   3  -4    5.37    0.22
   0   3  -4    5.66    0.29
   0   3  -4    5.55    0.24
   0   3  -4    5.43    0.21
   0   3  -4    5.82    0.37
   0  -3   4    5.25    0.34
   0  -3   4    5.65    0.28
   0  -3   4    5.49    0.25
   0  -3   4    5.23    0.28
   0  -3   4    5.53    0.35
  -1   3  -4   27.31    0.73
  -1   3  -4   27.13    0.81
  -1   3  -4   28.23    0.77
  -1   3  -4   27.76    0.71
  -1   3  -4   27.36    0.91
   1  -3   4   27.33    0.90
   1  -3   4   28.05    0.73
   1  -3   4   27.97    0.76
   1  -3   4   26.49    0.90
  -2   3  -4   94.03    1.98
  -2   3  -4   92.37    2.06
  -2   3  -4   94.57    2.10
  -2   3  -4   92.40    1.91
  -2   3  -4   90.57    2.16
   2  -3   4   89.91    2.18
   2  -3   4   93.63    1.94
   2  -3   4   93.83    2.19
   2  -3   4   93.32    1.86
  -3   3  -4    2.37    0.24
  -3   3  -4    2.46    0.29
  -3   3  -4    2.18    0.21
  -3   3  -4    2.88    0.35
   3  -3   4    2.26    0.25
   3  -3   4    2.45    0.32
   3  -3   4    1.70    0.27
   3  -3   4    2.59    0.35
  -4   3  -4    9.64    0.50
  -4   3  -4   11.12    0.44
  -4   3  -4   10.79    0.40
   4  -3   4    9.92    0.55
   4  -3   4   10.98    0.65
   4  -3   4   10.75    0.51
  -5   3  -4    0.89    0.16
  -5   3  -4    0.61    0.17
   5  -3   4    1.02    0.23
   5  -3   4    0.79    0.19
   5  -3   4    0.45    0.20
  -6   3  -4    0.13    0.10
  -6   3  -4    0.15    0.14
   6  -3   4    0.06    0.12
   6  -3   4    0.11    0.12
   6  -3   4    0.18    0.18
  -7   3  -4    0.10    0.16
  -7   3  -4    0.37    0.14
   7  -3   4    0.29    0.18
   7  -3   4    0.05    0.14
  -8   3  -4    0.06    0.17
   8  -3   4    0.02    0.14
   8  -3   4    0.23    0.19
   7   2  -4    1.30    0.22
   7   2  -4    1.81    0.29
  -7  -2   4    1.73    0.24
   6   2  -4    4.67    0.31
   6   2  -4    5.56    0.40
  -6  -2   4    4.76    0.30
   5   2  -4   81.82    1.75
   5   2  -4   80.61    1.89
  -5  -2   4   81.75    1.73
   4   2  -4    2.54    0.16
   4   2  -4    2.32    0.17
   4   2  -4    2.34    0.18
   4   2  -4    2.33    0.32
   4   2  -4    2.61    0.27
  -4  -2   4    2.34    0.17
   3   2  -4    3.82    0.19
   3   2  -4    3.61    0.33
   3   2  -4    3.78    0.23
   3   2  -4    3.83    0.25
   3   2  -4    3.55    0.22
  -3  -2   4    4.08    0.15
  -3  -2   4    3.80    0.19
  -3  -2   4    3.89    0.16
  -3  -2   4    4.11    0.28
   2   2  -4    4.50    0.26
   2   2  -4    4.49    0.26
   2   2  -4    4.60    0.27
   2   2  -4    4.74    0.28
  -2  -2   4    5.09    0.20
  -2  -2   4    5.30    0.20
  -2  -2   4    4.79    0.21
  -2  -2   4    4.95    0.25
   1   2  -4    0.32    0.10
   1   2  -4    0.26    0.07
   1   2  -4    0.39    0.07
   1   2  -4    0.23    0.08
   1   2  -4    0.28    0.07
  -1  -2   4    0.28    0.06
  -1  -2   4    0.25    0.06
  -1  -2   4    0.36    0.06
  -1  -2   4    0.37    0.06
  -1  -2   4    0.57    0.13
  -1  -2   4    0.35    0.09
  -1  -2   4    0.31    0.08
   0   2  -4    3.95    0.26
   0   2  -4    3.58    0.20
   0   2  -4    3.59    0.16
   0   2  -4    3.67    0.16
   0   2  -4    3.50    0.19
   0  -2   4    3.94    0.18
   0  -2   4    3.63    0.25
   0  -2   4    3.76    0.21
   0  -2   4    3.49    0.25
   0  -2   4    3.64    0.20
  -1   2  -4   55.90    1.23
  -1   2  -4   57.74    1.20
  -1   2  -4   57.89    1.29
  -1   2  -4   57.15    1.38
  -1   2  -4   55.82    1.28
   1  -2   4   55.46    1.37
   1  -2   4   56.25    1.22
   1  -2   4   56.05    1.20
   1  -2   4   56.70    1.22
   1  -2   4   58.02    1.42
  -2   2  -4   41.41    0.93
  -2   2  -4   40.28    1.10
  -2   2  -4   41.60    0.97
  -2   2  -4   40.83    1.10
  -2   2  -4   39.55    1.03
   2  -2   4   41.15    0.81
   2  -2   4   40.52    1.18
   2  -2   4   41.42    0.99
   2  -2   4   40.58    1.11
   2  -2   4   41.58    1.16
  -3   2  -4    2.35    0.17
  -3   2  -4    2.22    0.15
  -3   2  -4    2.39    0.16
  -3   2  -4    2.93    0.31
  -3   2  -4    2.57    0.26
   3  -2   4    2.88    0.36
   3  -2   4    2.49    0.30
   3  -2   4    2.09    0.23
   3  -2   4    1.94    0.26
  -4   2  -4    0.06    0.05
  -4   2  -4    0.08    0.06
  -4   2  -4   -0.04    0.08
  -4   2  -4    0.02    0.05
   4  -2   4    0.12    0.10
   4  -2   4    0.12    0.12
   4  -2   4    0.11    0.09
   4  -2   4    0.20    0.11
  -5   2  -4    0.84    0.18
  -5   2  -4    0.87    0.11
   5  -2   4    0.79    0.23
   5  -2   4    0.54    0.14
   5  -2   4    1.05    0.21
  -6   2  -4    1.85    0.26
   6  -2   4    2.53    0.33
   6  -2   4    1.85    0.27
  -7   2  -4   -0.11    0.12
   7  -2   4    0.16    0.15
   7  -2   4    0.13    0.12
  -8   2  -4    0.04    0.23
  -8   2  -4    0.22    0.15
   8  -2   4    0.03    0.14
   8  -2   4   -0.05    0.11
   9  -2   4    0.17    0.14
   9  -2   4    0.19    0.21
   8   1  -4   -0.16    0.15
   7   1  -4    0.62    0.20
   7   1  -4    0.12    0.11
  -7  -1   4    0.15    0.10
   6   1  -4    0.75    0.20
   6   1  -4    0.47    0.13
  -6  -1   4    0.56    0.13
   5   1  -4    2.34    0.27
   5   1  -4    2.38    0.37
   5   1  -4    2.34    0.23
   4   1  -4   44.74    0.95
   4   1  -4   46.00    0.96
   4   1  -4   45.35    1.15
   4   1  -4   45.26    1.36
   4   1  -4   46.45    1.02
  -4  -1   4   45.08    0.99
   3   1  -4    7.05    0.27
   3   1  -4    6.90    0.27
   3   1  -4    6.74    0.40
   3   1  -4    7.48    0.33
   3   1  -4    6.82    0.24
   3   1  -4    7.01    0.39
  -3  -1   4    7.18    0.24
  -3  -1   4    6.16    0.38
   2   1  -4    4.93    0.16
   2   1  -4    4.95    0.24
   2   1  -4    4.87    0.28
   2   1  -4    5.25    0.27
   2   1  -4    4.50    0.30
   2   1  -4    5.19    0.25
   2   1  -4    5.35    0.25
  -2  -1   4    5.37    0.25
  -2  -1   4    5.13    0.18
  -2  -1   4    5.14    0.28
  -2  -1   4    5.01    0.16
   1   1  -4   13.50    0.46
   1   1  -4   13.79    0.46
   1   1  -4   14.07    0.40
   1   1  -4   14.09    0.44
   1   1  -4   14.42    0.45
   1   1  -4   14.04    0.37
   1   1  -4   14.36    0.40
   1   1  -4   13.74    0.46
  -1  -1   4   13.17    0.38
  -1  -1   4   13.69    0.32
  -1  -1   4   13.62    0.45
  -1  -1   4   14.35    0.33
  -1  -1   4   13.88    0.35
  -1  -1   4   13.62    0.45
  -1  -1   4   14.30    0.44
   0   1  -4    0.72    0.14
   0   1  -4    0.85    0.13
   0   1  -4    0.96    0.10
   0   1  -4    0.88    0.11
   0   1  -4    0.95    0.12
   0   1  -4    0.89    0.09
   0  -1   4    0.72    0.13
   0  -1   4    1.13    0.12
   0  -1   4    1.30    0.17
   0  -1   4    0.75    0.10
   0  -1   4    1.10    0.09
  -1   1  -4    2.39    0.16
  -1   1  -4    2.18    0.14
  -1   1  -4    2.05    0.20
  -1   1  -4    2.22    0.14
  -1   1  -4    2.59    0.25
   1  -1   4    2.27    0.17
   1  -1   4    2.35    0.15
   1  -1   4    2.76    0.26
   1  -1   4    2.26    0.14
   1  -1   4    2.31    0.13
   1  -1   4    2.17    0.23
  -2   1  -4    1.67    0.12
  -2   1  -4    1.57    0.12
  -2   1  -4    1.48    0.14
  -2   1  -4    1.29    0.19
  -2   1  -4    1.69    0.17
  -2   1  -4    1.47    0.19
   2  -1   4    2.25    0.20
   2  -1   4    1.82    0.17
   2  -1   4    1.47    0.23
   2  -1   4    1.53    0.19
   2  -1   4    1.51    0.19
  -3   1  -4   89.46    1.70
  -3   1  -4   87.21    1.72
  -3   1  -4   86.28    1.85
  -3   1  -4   89.43    2.07
  -3   1  -4   90.15    1.63
   3  -1   4   85.16    1.95
   3  -1   4   89.39    2.00
   3  -1   4   89.76    1.86
   3  -1   4   90.07    2.15
  -4   1  -4    6.17    0.45
  -4   1  -4    5.87    0.31
   4  -1   4    5.83    0.35
   4  -1   4    6.19    0.35
   4  -1   4    6.28    0.38
  -5   1  -4    3.74    0.45
  -5   1  -4    3.92    0.28
   5  -1   4    3.95    0.30
   5  -1   4    3.31    0.33
  -6   1  -4    0.14    0.10
  -6   1  -4    0.18    0.16
   6  -1   4    0.10    0.11
   6  -1   4    0.04    0.09
  -7   1  -4   -0.10    0.10
  -7   1  -4    0.08    0.17
   7  -1   4    0.14    0.14
   7  -1   4   -0.02    0.09
  -8   1  -4   -0.01    0.25
  -8   1  -4   -0.02    0.14
   8  -1   4    0.14    0.12
   8  -1   4    0.28    0.19
   9  -1   4    0.07    0.18
  -9   0   4   -0.01    0.11
   8   0  -4    0.13    0.18
   7   0  -4    0.60    0.21
   7   0  -4    0.74    0.17
   6   0  -4    2.52    0.31
   6   0  -4    2.28    0.24
   5   0  -4    4.78    0.19
   5   0  -4    4.91    0.27
   5   0  -4    5.03    0.34
   5   0  -4    4.95    0.22
   5   0  -4    5.55    0.59
   4   0  -4    3.20    0.39
   4   0  -4    3.37    0.39
   4   0  -4    3.45    0.18
   4   0  -4    3.43    0.31
   4   0  -4    3.33    0.20
   4   0  -4    3.26    0.19
   3   0  -4    8.44    0.36
   3   0  -4    8.62    0.47
   3   0  -4    8.50    0.46
   3   0  -4    7.83    0.31
   3   0  -4    8.40    0.26
   3   0  -4    7.73    0.49
   3   0  -4    8.47    0.33
  -3   0   4    8.69    0.48
  -3   0   4    7.99    0.24
   2   0  -4   10.95    0.39
   2   0  -4   11.94    0.41
   2   0  -4   11.09    0.51
   2   0  -4   12.02    0.48
   2   0  -4   11.84    0.48
   2   0  -4   12.32    0.27
   2   0  -4   11.66    0.39
  -2   0   4   12.22    0.50
  -2   0   4   12.33    0.35
  -2   0   4   11.86    0.35
   1   0  -4    0.00    0.05
   1   0  -4    0.04    0.06
   1   0  -4   -0.02    0.05
   1   0  -4   -0.09    0.04
   1   0  -4    0.04    0.04
   1   0  -4    0.04    0.05
   1   0  -4   -0.05    0.04
   1   0  -4    0.04    0.04
  -1   0   4   -0.07    0.03
  -1   0   4   -0.03    0.04
  -1   0   4   -0.01    0.04
  -1   0   4   -0.02    0.05
  -1   0   4    0.08    0.04
  -1   0   4   -0.05    0.04
  -1   0   4    0.01    0.05
   0   0  -4    9.72    0.27
   0   0  -4    9.54    0.28
   0   0  -4   10.16    0.33
   0   0  -4    9.16    0.38
   0   0  -4    9.62    0.29
   0   0  -4    9.68    0.35
   0   0   4   10.05    0.35
   0   0   4    9.97    0.25
   0   0   4   10.06    0.39
   0   0   4    9.98    0.35
   0   0   4   10.23    0.33
   0   0   4    9.86    0.32
  -1   0  -4    0.85    0.12
  -1   0  -4    0.47    0.09
  -1   0  -4    0.66    0.12
  -1   0  -4    0.37    0.07
  -1   0  -4    0.50    0.08
   1   0   4    0.73    0.07
   1   0   4    0.79    0.14
   1   0   4    0.88    0.16
   1   0   4    0.63    0.11
   1   0   4    0.82    0.10
   1   0   4    0.66    0.08
   1   0   4    0.57    0.13
  -2   0  -4   36.33    0.86
  -2   0  -4   37.07    0.79
  -2   0  -4   38.47    0.90
  -2   0  -4   36.67    0.76
  -2   0  -4   37.20    0.96
  -2   0  -4   36.58    0.97
   2   0   4   36.15    0.87
   2   0   4   36.86    1.06
   2   0   4   36.41    0.97
   2   0   4   36.10    0.95
  -3   0  -4    0.24    0.11
  -3   0  -4    0.25    0.07
  -3   0  -4    0.30    0.09
   3   0   4    0.48    0.12
   3   0   4    0.45    0.12
   3   0   4    0.18    0.08
  -4   0  -4    1.73    0.20
  -4   0  -4    1.19    0.22
  -4   0  -4    1.30    0.16
   4   0   4    1.42    0.20
   4   0   4    1.23    0.19
   4   0   4    1.80    0.24
  -5   0  -4    0.54    0.12
  -5   0  -4    0.42    0.19
   5   0   4    0.26    0.12
   5   0   4    0.82    0.16
  -6   0  -4    0.17    0.17
  -6   0  -4    0.41    0.13
   6   0   4    0.33    0.15
   6   0   4    0.47    0.14
  -7   0  -4    0.21    0.11
  -7   0  -4    0.45    0.21
   7   0   4    0.10    0.13
   7   0   4    0.23    0.11
  -8   0  -4    0.51    0.28
  -8   0  -4    0.14    0.13
   8   0   4    0.27    0.12
   8   0   4    0.41    0.20
   9   0   4    0.08    0.19
  -9   1   4    2.41    0.30
  -8   1   4   -0.09    0.10
   7  -1  -4    0.02    0.09
   7  -1  -4   -0.04    0.13
  -7   1   4    0.14    0.09
   6  -1  -4    0.84    0.20
   6  -1  -4    0.79    0.12
   6  -1  -4    0.85    0.15
   6  -1  -4    0.51    0.12
  -6   1   4    0.69    0.12
   5  -1  -4    3.36    0.33
   5  -1  -4    3.63    0.23
   5  -1  -4    3.61    0.47
   5  -1  -4    3.87    0.24
   5  -1  -4    3.58    0.48
   5  -1  -4    4.13    0.27
  -5   1   4    3.91    0.20
   4  -1  -4    0.32    0.11
   4  -1  -4    0.70    0.11
   4  -1  -4    0.66    0.13
   4  -1  -4    0.64    0.20
   4  -1  -4    0.53    0.12
   4  -1  -4    0.43    0.18
  -4   1   4    0.72    0.13
  -4   1   4    0.47    0.09
   3  -1  -4   34.24    1.18
   3  -1  -4   32.00    1.05
   3  -1  -4   33.42    0.88
   3  -1  -4   32.75    0.73
   3  -1  -4   33.72    1.10
   3  -1  -4   32.72    0.88
   3  -1  -4   32.80    0.91
  -3   1   4   34.05    0.74
  -3   1   4   32.72    0.79
  -3   1   4   31.97    0.81
   2  -1  -4    0.33    0.11
   2  -1  -4    0.23    0.09
   2  -1  -4    0.40    0.13
   2  -1  -4    0.21    0.11
   2  -1  -4    0.32    0.10
   2  -1  -4    0.47    0.10
   2  -1  -4    0.26    0.06
  -2   1   4    0.41    0.07
  -2   1   4    0.26    0.05
  -2   1   4    0.29    0.06
  -2   1   4    0.45    0.09
  -2   1   4    0.20    0.09
  -2   1   4    0.36    0.11
  -2   1   4    0.40    0.09
   1  -1  -4   37.90    0.95
   1  -1  -4   37.30    0.78
   1  -1  -4   37.26    1.04
   1  -1  -4   37.63    0.99
   1  -1  -4   37.90    0.73
   1  -1  -4   36.64    0.97
   1  -1  -4   38.69    0.90
   1  -1  -4   37.93    0.76
   1  -1  -4   37.48    0.82
  -1   1   4   36.97    0.90
  -1   1   4   36.55    0.84
  -1   1   4   38.08    0.98
  -1   1   4   35.36    0.84
   0  -1  -4    0.08    0.06
   0  -1  -4    0.13    0.04
   0  -1  -4    0.21    0.09
   0  -1  -4    0.05    0.05
   0  -1  -4    0.07    0.05
   0  -1  -4    0.08    0.04
   0  -1  -4    0.05    0.04
   0  -1  -4    0.11    0.06
   0   1   4    0.07    0.05
   0   1   4    0.05    0.05
   0   1   4    0.08    0.04
   0   1   4    0.10    0.06
   0   1   4   -0.02    0.05
  -1  -1  -4    1.12    0.18
  -1  -1  -4    0.81    0.12
  -1  -1  -4    1.37    0.19
  -1  -1  -4    0.96    0.10
  -1  -1  -4    1.00    0.11
  -1  -1  -4    1.00    0.13
  -1  -1  -4    0.89    0.10
   1   1   4    1.15    0.15
   1   1   4    1.02    0.06
   1   1   4    0.69    0.08
   1   1   4    0.92    0.11
   1   1   4    1.14    0.17
   1   1   4    1.02    0.17
  -2  -1  -4    1.40    0.10
  -2  -1  -4    1.36    0.13
  -2  -1  -4    1.41    0.18
  -2  -1  -4    1.60    0.19
  -2  -1  -4    1.66    0.21
  -2  -1  -4    1.13    0.09
  -2  -1  -4    1.30    0.15
   2   1   4    1.32    0.18
   2   1   4    1.27    0.15
   2   1   4    1.32    0.19
  -3  -1  -4    1.12    0.14
  -3  -1  -4    1.15    0.19
  -3  -1  -4    1.20    0.17
   3   1   4    1.07    0.16
   3   1   4    1.13    0.08
   3   1   4    1.33    0.21
   3   1   4    1.10    0.18
  -4  -1  -4    2.02    0.19
  -4  -1  -4    2.06    0.29
  -4  -1  -4    1.98    0.22
   4   1   4    2.32    0.27
   4   1   4    1.54    0.22
   4   1   4    1.86    0.22
  -5  -1  -4    0.22    0.15
  -5  -1  -4    0.17    0.08
   5   1   4    0.18    0.10
   5   1   4    0.07    0.09
  -6  -1  -4    1.09    0.17
  -6  -1  -4    1.21    0.27
   6   1   4    1.37    0.21
   6   1   4    1.34    0.24
  -7  -1  -4    0.01    0.18
  -7  -1  -4    0.23    0.12
   7   1   4    0.25    0.15
   7   1   4    0.09    0.11
   7   1   4    0.09    0.12
  -8  -1  -4    0.06    0.12
  -8  -1  -4    0.26    0.17
   8   1   4   -0.21    0.13
  -9   2   4    0.25    0.21
   8  -2  -4    1.36    0.17
  -8   2   4    0.98    0.22
   7  -2  -4    0.08    0.11
   7  -2  -4    0.03    0.11
  -7   2   4    0.15    0.13
   6  -2  -4    0.24    0.14
   6  -2  -4    0.71    0.16
   6  -2  -4    0.43    0.23
  -6   2   4    0.55    0.15
   5  -2  -4    0.28    0.17
   5  -2  -4    0.05    0.08
   5  -2  -4    0.17    0.11
   5  -2  -4    0.05    0.14
  -5   2   4    0.04    0.08
   4  -2  -4   17.95    0.71
   4  -2  -4   20.04    0.89
   4  -2  -4   20.21    0.92
   4  -2  -4   19.18    0.58
   4  -2  -4   19.81    0.70
  -4   2   4   19.68    0.66
  -4   2   4   18.52    0.62
  -4   2   4   21.00    0.56
   3  -2  -4    0.68    0.19
   3  -2  -4    0.90    0.22
   3  -2  -4    0.60    0.17
   3  -2  -4    0.68    0.16
   3  -2  -4    0.99    0.13
   3  -2  -4    0.71    0.16
  -3   2   4    0.87    0.12
  -3   2   4    0.98    0.12
  -3   2   4    0.73    0.14
  -3   2   4    0.92    0.11
  -3   2   4    0.78    0.15
   2  -2  -4   17.87    0.75
   2  -2  -4   15.82    0.65
   2  -2  -4   16.96    0.69
   2  -2  -4   17.05    0.46
   2  -2  -4   16.60    0.63
   2  -2  -4   16.74    0.65
  -2   2   4   16.77    0.49
  -2   2   4   17.45    0.70
  -2   2   4   16.85    0.58
  -2   2   4   16.66    0.49
  -2   2   4   16.99    0.65
   1  -2  -4   20.04    0.66
   1  -2  -4   19.53    0.72
   1  -2  -4   20.04    0.54
   1  -2  -4   20.95    0.58
   1  -2  -4   19.72    0.64
   1  -2  -4   20.73    0.74
   1  -2  -4   19.85    0.51
   1  -2  -4   20.84    0.71
  -1   2   4   20.86    0.58
  -1   2   4   20.42    0.66
  -1   2   4   20.36    0.58
  -1   2   4   20.73    0.72
  -1   2   4   21.92    0.73
  -1   2   4   20.33    0.69
   0  -2  -4    2.39    0.15
   0  -2  -4    2.77    0.22
   0  -2  -4    2.32    0.23
   0  -2  -4    2.07    0.25
   0  -2  -4    2.53    0.17
   0  -2  -4    2.35    0.21
   0  -2  -4    2.44    0.16
   0   2   4    2.40    0.16
   0   2   4    2.54    0.18
   0   2   4    2.62    0.25
   0   2   4    2.20    0.26
  -1  -2  -4    7.63    0.31
  -1  -2  -4    7.41    0.29
  -1  -2  -4    8.03    0.29
  -1  -2  -4    7.53    0.35
  -1  -2  -4    7.81    0.28
   1   2   4    7.91    0.30
   1   2   4    7.82    0.23
   1   2   4    7.59    0.36
   1   2   4    7.76    0.42
  -2  -2  -4    0.21    0.07
  -2  -2  -4    0.35    0.10
  -2  -2  -4    0.12    0.05
  -2  -2  -4    0.11    0.07
  -2  -2  -4    0.32    0.13
  -2  -2  -4    0.25    0.08
  -2  -2  -4    0.15    0.10
  -2  -2  -4    0.15    0.06
   2   2   4    0.06    0.06
   2   2   4    0.13    0.09
   2   2   4    0.33    0.12
  -3  -2  -4    4.69    0.28
  -3  -2  -4    4.07    0.18
  -3  -2  -4    4.93    0.32
  -3  -2  -4    4.16    0.16
  -3  -2  -4    5.17    0.22
  -3  -2  -4    4.20    0.25
  -3  -2  -4    4.73    0.30
   3   2   4    4.26    0.32
   3   2   4    4.56    0.29
   3   2   4    4.81    0.34
  -4  -2  -4    3.10    0.29
  -4  -2  -4    3.50    0.35
  -4  -2  -4    3.10    0.23
   4   2   4    2.61    0.30
   4   2   4    2.92    0.30
  -5  -2  -4    0.02    0.08
  -5  -2  -4   -0.04    0.06
  -5  -2  -4    0.03    0.11
   5   2   4   -0.06    0.07
   5   2   4    0.07    0.10
  -6  -2  -4    7.76    0.41
  -6  -2  -4    8.08    0.55
  -6  -2  -4    8.10    0.48
   6   2   4    7.87    0.50
   6   2   4    8.39    0.48
  -7  -2  -4    5.10    0.47
  -7  -2  -4    6.79    0.39
   7   2   4    6.57    0.49
   7   2   4    5.48    0.38
  -8  -2  -4   -0.07    0.13
  -8  -2  -4    0.00    0.14
   8   2   4   -0.09    0.17
   9  -3  -4    0.64    0.16
   8  -3  -4    1.67    0.28
  -8   3   4    2.31    0.37
   7  -3  -4    1.08    0.25
  -7   3   4    1.04    0.25
   6  -3  -4   -0.12    0.07
   6  -3  -4    0.02    0.18
   6  -3  -4    0.02    0.12
  -6   3   4    0.04    0.12
  -6   3   4    0.12    0.07
   5  -3  -4    3.79    0.44
   5  -3  -4    4.07    0.29
   5  -3  -4    3.54    0.54
   5  -3  -4    4.06    0.56
  -5   3   4    4.15    0.23
  -5   3   4    4.05    0.40
   4  -3  -4    3.69    0.48
   4  -3  -4    3.60    0.41
   4  -3  -4    4.41    0.27
   4  -3  -4    3.16    0.45
  -4   3   4    3.55    0.22
  -4   3   4    3.46    0.36
  -4   3   4    3.42    0.22
   3  -3  -4    0.18    0.12
   3  -3  -4    0.12    0.12
   3  -3  -4    0.16    0.06
   3  -3  -4    0.07    0.07
   3  -3  -4    0.25    0.14
   3  -3  -4    0.02    0.09
   3  -3  -4    0.05    0.10
  -3   3   4    0.26    0.11
  -3   3   4    0.06    0.10
  -3   3   4    0.31    0.10
  -3   3   4    0.22    0.08
   2  -3  -4    1.57    0.14
   2  -3  -4    1.87    0.30
   2  -3  -4    1.48    0.27
   2  -3  -4    1.41    0.26
   2  -3  -4    1.62    0.24
   2  -3  -4    1.81    0.14
   2  -3  -4    1.41    0.15
   2  -3  -4    1.22    0.15
  -2   3   4    1.65    0.20
  -2   3   4    1.74    0.19
  -2   3   4    1.23    0.24
  -2   3   4    1.75    0.25
   1  -3  -4   21.81    0.67
   1  -3  -4   21.72    0.76
   1  -3  -4   22.40    0.85
   1  -3  -4   21.34    0.72
   1  -3  -4   22.43    0.83
   1  -3  -4   21.13    0.63
   1  -3  -4   21.84    0.60
   1  -3  -4   21.46    0.80
  -1   3   4   21.52    0.76
  -1   3   4   21.69    0.67
  -1   3   4   22.56    0.79
  -1   3   4   21.84    0.64
  -1   3   4   22.69    0.85
   0  -3  -4   69.80    1.66
   0  -3  -4   67.75    1.54
   0  -3  -4   67.12    1.45
   0  -3  -4   69.60    1.50
   0  -3  -4   70.65    1.69
   0  -3  -4   67.44    1.53
   0  -3  -4   71.98    1.74
   0  -3  -4   70.76    1.80
   0   3   4   69.79    1.52
   0   3   4   68.07    1.46
   0   3   4   69.93    1.67
   0   3   4   69.97    1.80
  -1  -3  -4    1.16    0.20
  -1  -3  -4    0.76    0.12
  -1  -3  -4    1.21    0.18
  -1  -3  -4    0.84    0.13
  -1  -3  -4    1.13    0.15
  -1  -3  -4    1.40    0.17
  -1  -3  -4    0.97    0.21
   1   3   4    0.66    0.07
   1   3   4    1.13    0.20
   1   3   4    1.05    0.21
   1   3   4    0.73    0.07
   1   3   4    1.29    0.25
  -2  -3  -4    1.99    0.18
  -2  -3  -4    1.71    0.16
  -2  -3  -4    1.93    0.19
  -2  -3  -4    1.59    0.21
  -2  -3  -4    1.76    0.20
  -2  -3  -4    1.83    0.28
   2   3   4    2.00    0.30
   2   3   4    1.84    0.30
   2   3   4    1.53    0.26
   2   3   4    1.52    0.19
  -3  -3  -4    0.10    0.07
  -3  -3  -4    0.03    0.07
  -3  -3  -4   -0.05    0.05
  -3  -3  -4   -0.01    0.05
  -3  -3  -4   -0.04    0.07
   3   3   4    0.08    0.08
   3   3   4    0.05    0.09
   3   3   4    0.09    0.11
  -4  -3  -4    0.36    0.08
  -4  -3  -4    0.27    0.12
  -4  -3  -4    0.50    0.14
  -4  -3  -4    0.69    0.17
   4   3   4    0.44    0.17
   4   3   4    0.35    0.13
   4   3   4    0.31    0.14
  -5  -3  -4    0.07    0.10
  -5  -3  -4    0.01    0.09
   5   3   4    0.03    0.10
   5   3   4    0.08    0.12
  -6  -3  -4    0.22    0.13
  -6  -3  -4    0.39    0.15
   6   3   4    0.17    0.14
   6   3   4    0.34    0.15
  -7  -3  -4    0.74    0.22
  -7  -3  -4    0.80    0.20
   7   3   4    0.86    0.22
   7   3   4    1.17    0.26
  -8  -3  -4   23.04    0.99
   8   3   4   21.53    1.01
   8  -4  -4    1.06    0.28
  -8   4   4    1.18    0.35
   7  -4  -4    5.54    0.61
  -7   4   4    5.03    0.35
  -7   4   4    4.86    0.54
   6  -4  -4    1.87    0.29
   6  -4  -4    1.54    0.41
   6  -4  -4    1.66    0.33
  -6   4   4    2.05    0.27
  -6   4   4    2.19    0.35
   5  -4  -4    0.27    0.17
   5  -4  -4    0.23    0.21
   5  -4  -4    0.29    0.13
   5  -4  -4    0.16    0.21
  -5   4   4    0.04    0.09
  -5   4   4    0.21    0.15
  -5   4   4   -0.01    0.09
   4  -4  -4    0.36    0.18
   4  -4  -4    0.77    0.24
   4  -4  -4    0.22    0.10
   4  -4  -4    0.25    0.19
  -4   4   4    0.22    0.11
  -4   4   4    0.00    0.11
  -4   4   4    0.48    0.14
   3  -4  -4    9.69    0.43
   3  -4  -4    9.69    0.37
   3  -4  -4    9.36    0.64
   3  -4  -4    8.78    0.65
   3  -4  -4    8.43    0.59
   3  -4  -4   10.70    0.62
  -3   4   4   10.25    0.44
  -3   4   4    9.77    0.56
  -3   4   4   10.11    0.46
   2  -4  -4    0.09    0.07
   2  -4  -4    0.26    0.14
   2  -4  -4    0.24    0.14
   2  -4  -4    0.06    0.11
   2  -4  -4    0.16    0.08
   2  -4  -4    0.13    0.13
   2  -4  -4    0.14    0.09
   2  -4  -4    0.25    0.09
  -2   4   4    0.24    0.14
  -2   4   4    0.08    0.09
  -2   4   4    0.24    0.10
  -2   4   4    0.19    0.12
   1  -4  -4    0.93    0.18
   1  -4  -4    1.09    0.21
   1  -4  -4    0.88    0.15
   1  -4  -4    0.94    0.22
   1  -4  -4    0.90    0.21
   1  -4  -4    0.67    0.19
   1  -4  -4    0.63    0.14
   1  -4  -4    0.89    0.24
  -1   4   4    0.80    0.16
  -1   4   4    0.78    0.15
  -1   4   4    0.54    0.20
  -1   4   4    0.35    0.14
   0  -4  -4    2.85    0.32
   0  -4  -4    2.93    0.28
   0  -4  -4    2.38    0.23
   0  -4  -4    2.87    0.22
   0  -4  -4    2.63    0.33
   0  -4  -4    1.88    0.23
   0  -4  -4    2.62    0.38
   0  -4  -4    2.36    0.29
   0   4   4    3.25    0.23
   0   4   4    2.76    0.33
   0   4   4    2.74    0.20
   0   4   4    2.43    0.38
  -1  -4  -4   40.17    1.14
  -1  -4  -4   39.51    0.99
  -1  -4  -4   39.79    1.31
  -1  -4  -4   39.11    0.97
  -1  -4  -4   35.73    1.14
  -1  -4  -4   38.07    1.00
  -1  -4  -4   38.00    1.02
   1   4   4   38.80    1.31
  -2  -4  -4    1.41    0.20
  -2  -4  -4    1.48    0.18
  -2  -4  -4    1.43    0.18
  -2  -4  -4    1.58    0.19
  -2  -4  -4    1.70    0.26
   2   4   4    1.24    0.27
  -3  -4  -4    0.18    0.09
  -3  -4  -4    0.02    0.06
  -3  -4  -4    0.07    0.09
  -3  -4  -4    0.10    0.07
   3   4   4    0.04    0.12
   3   4   4   -0.09    0.06
  -4  -4  -4    0.04    0.09
  -4  -4  -4   -0.01    0.08
  -4  -4  -4    0.01    0.07
   4   4   4    0.21    0.17
   4   4   4    0.20    0.12
  -5  -4  -4    0.27    0.14
  -5  -4  -4    0.06    0.08
  -5  -4  -4    0.12    0.13
   5   4   4    0.25    0.17
   5   4   4    0.39    0.16
  -6  -4  -4    0.49    0.18
  -6  -4  -4    0.20    0.15
   6   4   4    0.19    0.20
   6   4   4    0.37    0.18
  -7  -4  -4    0.02    0.16
   7   4   4   -0.02    0.17
   7   4   4    0.13    0.17
   8  -5  -4   -0.12    0.20
  -8   5   4    0.29    0.24
   7  -5  -4    0.13    0.31
   7  -5  -4    0.16    0.22
  -7   5   4    0.37    0.19
  -7   5   4   -0.10    0.21
   6  -5  -4   12.55    0.99
   6  -5  -4   11.53    0.60
   6  -5  -4   10.98    0.77
  -6   5   4    9.60    0.55
  -6   5   4   10.03    0.70
  -6   5   4   10.82    0.58
   5  -5  -4   -0.06    0.16
   5  -5  -4    0.07    0.11
   5  -5  -4    0.14    0.21
   5  -5  -4    0.06    0.17
  -5   5   4   -0.01    0.10
  -5   5   4   -0.02    0.11
  -5   5   4    0.14    0.16
   4  -5  -4    5.05    0.62
   4  -5  -4    4.22    0.39
   4  -5  -4    5.00    0.63
   4  -5  -4    3.95    0.53
  -4   5   4    4.55    0.43
  -4   5   4    4.60    0.42
  -4   5   4    5.12    0.56
   3  -5  -4    0.07    0.09
   3  -5  -4   -0.06    0.13
   3  -5  -4    0.20    0.17
   3  -5  -4    0.23    0.15
   3  -5  -4    0.01    0.14
  -3   5   4    0.03    0.10
  -3   5   4    0.06    0.12
  -3   5   4    0.06    0.12
   2  -5  -4   -0.02    0.09
   2  -5  -4    0.02    0.10
   2  -5  -4    0.04    0.15
   2  -5  -4   -0.01    0.08
   2  -5  -4    0.02    0.07
   2  -5  -4    0.06    0.09
   2  -5  -4    0.10    0.12
   2  -5  -4    0.05    0.12
  -2   5   4    0.20    0.13
  -2   5   4    0.07    0.08
  -2   5   4   -0.08    0.12
  -2   5   4    0.09    0.12
   1  -5  -4    1.96    0.25
   1  -5  -4    2.12    0.26
   1  -5  -4    2.62    0.38
   1  -5  -4    2.69    0.46
   1  -5  -4    2.23    0.30
   1  -5  -4    2.32    0.31
   1  -5  -4    2.32    0.36
   1  -5  -4    1.84    0.31
   1  -5  -4    2.39    0.30
  -1   5   4    2.19    0.35
  -1   5   4    2.61    0.45
  -1   5   4    2.25    0.26
  -1   5   4    2.65    0.29
   0  -5  -4    0.68    0.16
   0  -5  -4    0.59    0.19
   0  -5  -4    0.80    0.21
   0  -5  -4    0.57    0.14
   0  -5  -4    0.24    0.18
   0  -5  -4    0.63    0.17
   0  -5  -4    0.25    0.13
   0  -5  -4    0.41    0.13
   0   5   4    0.31    0.11
   0   5   4    0.53    0.22
   0   5   4    0.75    0.13
  -1  -5  -4    3.90    0.32
  -1  -5  -4    3.52    0.34
  -1  -5  -4    4.41    0.32
  -1  -5  -4    3.42    0.40
  -1  -5  -4    3.88    0.35
  -1  -5  -4    4.31    0.43
   1   5   4    4.14    0.52
  -2  -5  -4  120.47    2.61
  -2  -5  -4  120.22    2.52
  -2  -5  -4  120.63    2.83
  -2  -5  -4  118.94    2.57
  -2  -5  -4  122.29    2.80
   2   5   4  118.58    3.03
  -3  -5  -4    0.78    0.15
  -3  -5  -4    0.74    0.19
  -3  -5  -4    0.35    0.12
  -3  -5  -4    0.71    0.22
   3   5   4    0.75    0.25
  -4  -5  -4    0.48    0.17
  -4  -5  -4    0.33    0.16
  -4  -5  -4    0.46    0.13
   4   5   4    0.81    0.26
  -5  -5  -4    0.05    0.13
  -5  -5  -4    0.03    0.09
  -5  -5  -4   -0.08    0.13
   5   5   4   -0.03    0.17
  -6  -5  -4    0.27    0.19
  -6  -5  -4    0.10    0.15
   6   5   4    0.43    0.24
  -7  -5  -4    0.01    0.16
   7  -6  -4    0.01    0.25
  -7   6   4    0.79    0.31
   6  -6  -4    0.02    0.22
   6  -6  -4    0.09    0.15
   6  -6  -4    0.58    0.36
  -6   6   4    0.34    0.17
  -6   6   4    0.30    0.24
  -6   6   4   -0.04    0.16
   5  -6  -4   25.54    1.38
   5  -6  -4   27.86    1.33
   5  -6  -4   24.90    0.95
  -5   6   4   24.78    0.99
  -5   6   4   25.22    0.93
  -5   6   4   26.48    1.20
   4  -6  -4    0.23    0.14
   4  -6  -4    0.08    0.18
   4  -6  -4    0.02    0.23
   4  -6  -4    0.20    0.22
  -4   6   4    0.18    0.15
  -4   6   4    0.19    0.15
  -4   6   4    0.63    0.26
   3  -6  -4    2.33    0.45
   3  -6  -4    2.09    0.39
   3  -6  -4    2.44    0.48
   3  -6  -4    2.34    0.46
   3  -6  -4    1.82    0.29
  -3   6   4    2.68    0.37
  -3   6   4    2.31    0.38
  -3   6   4    2.72    0.35
   2  -6  -4    0.10    0.13
   2  -6  -4    0.13    0.12
   2  -6  -4    0.27    0.19
   2  -6  -4    0.03    0.09
   2  -6  -4    0.00    0.18
   2  -6  -4    0.09    0.15
  -2   6   4    0.27    0.13
  -2   6   4    0.27    0.14
  -2   6   4    0.28    0.18
   1  -6  -4    3.01    0.39
   1  -6  -4    3.36    0.39
   1  -6  -4    3.09    0.44
   1  -6  -4    2.68    0.34
   1  -6  -4    3.04    0.37
   1  -6  -4    2.36    0.31
   1  -6  -4    3.49    0.46
  -1   6   4    2.79    0.32
  -1   6   4    2.58    0.45
  -1   6   4    3.20    0.33
   0  -6  -4    0.09    0.10
   0  -6  -4    0.12    0.14
   0  -6  -4    0.12    0.14
   0  -6  -4    0.06    0.11
   0  -6  -4   -0.01    0.10
   0  -6  -4    0.00    0.08
   0   6   4    0.01    0.16
  -1  -6  -4    4.05    0.42
  -1  -6  -4    5.60    0.54
  -1  -6  -4    3.84    0.39
  -1  -6  -4    4.21    0.53
  -1  -6  -4    4.33    0.40
   1   6   4    3.32    0.53
  -2  -6  -4    2.78    0.33
  -2  -6  -4    3.41    0.37
  -2  -6  -4    3.29    0.45
  -2  -6  -4    3.28    0.41
  -2  -6  -4    3.56    0.35
   2   6   4    3.44    0.53
  -3  -6  -4    1.60    0.26
  -3  -6  -4    1.74    0.34
  -3  -6  -4    0.93    0.24
  -3  -6  -4    1.74    0.26
   3   6   4    1.20    0.34
  -4  -6  -4    0.07    0.18
  -4  -6  -4    0.34    0.15
  -4  -6  -4    0.94    0.24
   4   6   4   -0.17    0.16
  -5  -6  -4    0.22    0.21
  -5  -6  -4    0.35    0.19
  -5  -6  -4    0.43    0.17
   5   6   4    0.15    0.24
  -6  -6  -4   -0.05    0.15
   7  -7  -4    0.11    0.32
  -7   7   4    0.07    0.23
  -7   7   4    0.87    0.40
   6  -7  -4    0.61    0.22
   6  -7  -4    0.89    0.37
  -6   7   4    0.31    0.20
  -6   7   4    0.75    0.34
   5  -7  -4    0.40    0.28
   5  -7  -4    0.71    0.35
   5  -7  -4    0.15    0.17
  -5   7   4    0.15    0.18
  -5   7   4    0.07    0.15
  -5   7   4    0.30    0.26
   4  -7  -4   44.91    1.88
   4  -7  -4   47.07    1.94
   4  -7  -4   45.99    1.41
  -4   7   4   46.57    1.49
  -4   7   4   44.92    1.69
  -4   7   4   44.22    1.38
   3  -7  -4    4.65    0.65
   3  -7  -4    3.72    0.52
   3  -7  -4    3.71    0.43
   3  -7  -4    2.74    0.54
  -3   7   4    3.62    0.44
  -3   7   4    4.76    0.48
   2  -7  -4    0.51    0.26
   2  -7  -4    0.39    0.18
   2  -7  -4    0.86    0.21
  -2   7   4    0.56    0.20
  -2   7   4    0.23    0.17
   1  -7  -4    0.11    0.11
   1  -7  -4   -0.05    0.11
   1  -7  -4    0.12    0.18
   1  -7  -4    0.18    0.14
  -1   7   4    0.09    0.11
   0  -7  -4   -0.10    0.11
   0  -7  -4    0.00    0.12
   0  -7  -4   -0.04    0.12
   0  -7  -4   -0.08    0.17
   0  -7  -4    0.01    0.14
   0  -7  -4    0.13    0.17
   0   7   4   -0.27    0.16
  -1  -7  -4    0.82    0.22
  -1  -7  -4    0.40    0.19
  -1  -7  -4    0.43    0.22
  -1  -7  -4    1.05    0.24
  -1  -7  -4    0.84    0.29
   1   7   4    0.37    0.26
  -2  -7  -4   -0.17    0.10
  -2  -7  -4    0.00    0.19
  -2  -7  -4   -0.10    0.12
  -2  -7  -4    0.13    0.13
   2   7   4    0.14    0.22
  -3  -7  -4    0.56    0.21
  -3  -7  -4    0.89    0.25
  -3  -7  -4    0.48    0.26
  -3  -7  -4    0.57    0.20
   3   7   4    1.03    0.38
  -4  -7  -4   11.74    0.81
  -4  -7  -4   11.31    0.70
   4   7   4   10.35    0.98
  -5  -7  -4    4.60    0.55
   6  -8  -4   -0.13    0.18
   6  -8  -4    0.10    0.34
  -6   8   4    0.12    0.32
   5  -8  -4   -0.12    0.30
   5  -8  -4    0.11    0.18
  -5   8   4    0.13    0.24
  -5   8   4    0.44    0.22
   4  -8  -4    0.66    0.35
   4  -8  -4    0.33    0.19
  -4   8   4    0.54    0.25
  -4   8   4    0.05    0.19
   3  -8  -4    0.09    0.24
   3  -8  -4   -0.13    0.13
  -3   8   4   -0.12    0.15
   2  -8  -4    1.82    0.31
   2  -8  -4    1.83    0.33
   2  -8  -4    2.27    0.49
  -2   8   4    2.28    0.33
   1  -8  -4    1.45    0.31
   1  -8  -4    0.97    0.35
   1  -8  -4    1.15    0.28
   0  -8  -4   -0.04    0.15
   0  -8  -4    0.03    0.14
   0  -8  -4   -0.11    0.14
   0   8   4   -0.02    0.23
  -1  -8  -4    0.25    0.20
  -1  -8  -4    0.31    0.21
  -1  -8  -4    0.51    0.22
  -1  -8  -4    0.51    0.29
   1   8   4    0.44    0.30
  -2  -8  -4   -0.03    0.23
  -2  -8  -4    0.18    0.19
  -2  -8  -4    0.13    0.16
   2   8   4   -0.03    0.25
  -3  -8  -4    0.54    0.22
  -3  -8  -4    0.14    0.20
  -3  -8  -4    0.26    0.32
   3   8   4    0.36    0.31
  -4  -8  -4    0.60    0.27
   5  -9  -4    0.00    0.22
   4  -9  -4   -0.09    0.17
   3  -9  -4   -0.03    0.36
   3  -9  -4    1.02    0.30
  -3   9   4    0.64    0.27
   2  -9  -4    2.33    0.41
   1  -9  -4    3.07    0.47
   1  -9  -4    2.84    0.43
   0  -9  -4   -0.21    0.17
   0  -9  -4    0.24    0.21
   0  -9  -4   -0.02    0.19
  -1  -9  -4   -0.20    0.17
   1   9   4    0.02    0.34
  -2  -9  -4   -0.04    0.19
   2   9   4    0.10    0.33
   3 -10  -4    0.62    0.28
   2 -10  -4   -0.05    0.22
   1 -10  -4    0.35    0.25
   2  10  -5    0.04    0.34
  -2 -10   5    0.16    0.19
   1  10  -5   -0.15    0.31
  -1 -10   5   -0.03    0.19
   0 -10   5   -0.03    0.18
   1 -10   5   -0.13    0.18
   1 -10   5   -0.12    0.17
   2 -10   5    5.97    0.65
   3 -10   5   30.33    1.32
   4 -10   5    1.15    0.36
  -4  -9   5   10.49    0.71
   3   9  -5    0.34    0.32
  -3  -9   5    0.37    0.20
  -3  -9   5    0.34    0.23
   2   9  -5    0.00    0.28
  -2  -9   5   -0.06    0.18
  -2  -9   5    0.14    0.19
   1   9  -5    0.65    0.32
  -1  -9   5    0.28    0.20
  -1  -9   5    0.12    0.18
  -1  -9   5   -0.04    0.15
   0   9  -5    0.65    0.31
   0  -9   5    0.28    0.20
   0  -9   5    0.33    0.20
   0  -9   5   -0.02    0.14
   1  -9   5    0.27    0.22
   1  -9   5   -0.14    0.14
   1  -9   5    0.20    0.19
   2  -9   5    1.46    0.31
   2  -9   5    1.16    0.29
  -3   9  -5    2.42    0.36
   3  -9   5    2.85    0.47
  -4   9  -5    4.82    0.51
   4  -9   5    3.94    0.54
   5  -9   5    0.84    0.28
   6  -9   5    0.16    0.40
   6  -9   5    0.18    0.25
   5   8  -5    0.05    0.19
  -5  -8   5    0.42    0.21
   4   8  -5    1.32    0.38
  -4  -8   5    1.52    0.31
   3   8  -5   38.22    1.61
  -3  -8   5   37.58    1.27
  -3  -8   5   37.98    1.34
  -3  -8   5   37.24    1.25
   2   8  -5    1.08    0.34
  -2  -8   5    0.87    0.24
  -2  -8   5    0.68    0.21
  -2  -8   5    0.73    0.24
   1   8  -5    0.01    0.21
  -1  -8   5   -0.01    0.14
  -1  -8   5    0.19    0.14
  -1  -8   5   -0.14    0.12
   0   8  -5    0.92    0.34
   0  -8   5    0.26    0.17
   0  -8   5    0.69    0.28
   0  -8   5    0.63    0.23
   0  -8   5    0.28    0.18
  -1   8  -5    0.15    0.23
   1  -8   5    0.08    0.15
   1  -8   5    0.00    0.18
   1  -8   5    0.00    0.22
   1  -8   5   -0.05    0.12
  -2   8  -5    0.05    0.12
   2  -8   5   -0.07    0.20
   2  -8   5    0.12    0.13
   2  -8   5    0.01    0.13
  -3   8  -5    2.74    0.36
  -3   8  -5    2.24    0.35
   3  -8   5    2.43    0.38
   3  -8   5    2.74    0.54
  -4   8  -5    0.06    0.18
  -4   8  -5    0.11    0.16
   4  -8   5   -0.19    0.11
   4  -8   5    0.04    0.23
   4  -8   5   -0.01    0.24
  -5   8  -5    0.03    0.25
  -5   8  -5    0.31    0.20
  -5   8  -5    0.20    0.22
   5  -8   5    0.09    0.28
   5  -8   5    0.35    0.22
  -6   8  -5    3.09    0.59
  -6   8  -5    3.01    0.58
  -6   8  -5    2.29    0.41
   6  -8   5    1.79    0.50
   6  -8   5    2.35    0.45
   7  -8   5   -0.06    0.19
   7  -8   5   -0.34    0.32
   6   7  -5    0.03    0.21
  -6  -7   5    0.04    0.18
   5   7  -5   -0.15    0.18
   5   7  -5    0.15    0.18
  -5  -7   5   -0.11    0.13
  -5  -7   5    0.00    0.13
   4   7  -5    0.19    0.23
  -4  -7   5    0.17    0.15
  -4  -7   5    0.40    0.17
   3   7  -5    0.23    0.21
  -3  -7   5    0.15    0.14
  -3  -7   5    0.23    0.16
   2   7  -5   25.45    1.18
  -2  -7   5   22.74    1.18
  -2  -7   5   25.10    0.94
  -2  -7   5   22.78    0.87
  -2  -7   5   23.75    0.89
   1   7  -5    2.97    0.48
  -1  -7   5    3.35    0.53
  -1  -7   5    2.68    0.36
  -1  -7   5    3.42    0.41
  -1  -7   5    2.50    0.32
   0   7  -5   -0.09    0.16
   0  -7   5    0.40    0.17
   0  -7   5    0.30    0.22
   0  -7   5    0.19    0.12
   0  -7   5    0.20    0.14
  -1   7  -5    2.53    0.48
  -1   7  -5    2.73    0.27
   1  -7   5    2.35    0.32
   1  -7   5    1.96    0.34
   1  -7   5    2.05    0.40
   1  -7   5    1.84    0.31
  -2   7  -5   -0.08    0.10
  -2   7  -5   -0.09    0.10
   2  -7   5    0.08    0.18
   2  -7   5    0.10    0.13
   2  -7   5   -0.05    0.09
  -3   7  -5    0.20    0.18
  -3   7  -5    0.23    0.14
  -3   7  -5    0.19    0.15
  -3   7  -5    0.73    0.26
   3  -7   5    0.26    0.22
   3  -7   5    0.00    0.18
   3  -7   5    0.08    0.13
  -4   7  -5    1.08    0.24
  -4   7  -5    1.52    0.38
  -4   7  -5    1.85    0.37
   4  -7   5    0.75    0.31
   4  -7   5    1.87    0.44
   4  -7   5    1.31    0.29
  -5   7  -5   -0.04    0.18
  -5   7  -5    0.24    0.17
  -5   7  -5   -0.28    0.18
  -5   7  -5    0.07    0.15
   5  -7   5   -0.23    0.17
   5  -7   5   -0.09    0.22
   5  -7   5   -0.10    0.11
  -6   7  -5    0.48    0.22
  -6   7  -5    0.76    0.33
  -6   7  -5    1.32    0.41
  -6   7  -5    0.78    0.27
   6  -7   5    0.63    0.25
   6  -7   5    0.40    0.29
  -7   7  -5    0.16    0.22
  -7   7  -5    0.05    0.28
  -7   7  -5    0.57    0.34
   7  -7   5    0.48    0.23
   7  -7   5    0.66    0.33
   7   6  -5   -0.15    0.20
   6   6  -5    0.03    0.15
   6   6  -5    0.05    0.15
  -6  -6   5    0.02    0.14
   5   6  -5    0.15    0.16
   5   6  -5    0.41    0.18
  -5  -6   5    0.07    0.12
   4   6  -5    0.49    0.21
  -4  -6   5    0.02    0.19
  -4  -6   5    0.15    0.12
  -4  -6   5   -0.03    0.08
   3   6  -5    2.98    0.44
  -3  -6   5    3.66    0.34
  -3  -6   5    3.41    0.34
  -3  -6   5    2.87    0.46
   2   6  -5    0.26    0.17
  -2  -6   5    0.08    0.10
  -2  -6   5   -0.09    0.12
  -2  -6   5    0.00    0.09
  -2  -6   5    0.21    0.11
   1   6  -5   15.38    0.85
  -1  -6   5   15.46    0.86
  -1  -6   5   18.32    0.67
  -1  -6   5   14.77    0.67
  -1  -6   5   17.95    0.69
   0   6  -5   23.38    1.08
   0  -6   5   23.95    0.86
   0  -6   5   24.99    0.91
   0  -6   5   23.86    0.82
   0  -6   5   25.01    1.08
  -1   6  -5    1.54    0.20
  -1   6  -5    1.41    0.20
  -1   6  -5    1.60    0.22
  -1   6  -5    0.82    0.26
   1  -6   5    1.55    0.24
   1  -6   5    1.01    0.29
   1  -6   5    0.86    0.21
   1  -6   5    0.76    0.20
   1  -6   5    1.24    0.30
  -2   6  -5    0.00    0.11
  -2   6  -5   -0.04    0.08
  -2   6  -5   -0.02    0.09
  -2   6  -5    0.09    0.17
  -2   6  -5   -0.05    0.10
   2  -6   5   -0.09    0.12
   2  -6   5   -0.09    0.13
   2  -6   5    0.02    0.09
   2  -6   5    0.07    0.10
  -3   6  -5    0.49    0.17
  -3   6  -5    0.53    0.16
  -3   6  -5    0.26    0.16
  -3   6  -5    0.43    0.21
   3  -6   5    0.33    0.21
   3  -6   5    0.57    0.22
   3  -6   5    0.70    0.20
  -4   6  -5    0.13    0.17
  -4   6  -5    0.32    0.16
  -4   6  -5    0.39    0.22
  -4   6  -5    0.38    0.15
   4  -6   5    0.62    0.25
   4  -6   5    0.51    0.20
   4  -6   5    0.10    0.19
  -5   6  -5    0.10    0.14
  -5   6  -5   -0.07    0.17
  -5   6  -5    0.06    0.13
   5  -6   5    0.23    0.20
   5  -6   5   -0.01    0.17
   5  -6   5    0.12    0.13
  -6   6  -5   -0.09    0.20
  -6   6  -5   -0.09    0.14
  -6   6  -5   -0.09    0.16
   6  -6   5   -0.08    0.20
   6  -6   5    0.03    0.15
   6  -6   5   -0.11    0.23
  -7   6  -5   34.03    1.24
  -7   6  -5   37.14    1.67
  -7   6  -5   36.37    1.49
   7  -6   5   35.07    1.53
   7  -6   5   36.35    1.38
   8  -6   5    3.03    0.52
   7   5  -5    0.79    0.25
   6   5  -5    0.23    0.15
   6   5  -5    0.26    0.13
  -6  -5   5    0.12    0.13
   5   5  -5    0.18    0.14
   5   5  -5    0.16    0.15
  -5  -5   5    0.13    0.12
   4   5  -5    0.41    0.17
  -4  -5   5    0.13    0.11
   3   5  -5    0.01    0.12
  -3  -5   5   -0.06    0.12
  -3  -5   5    0.08    0.06
  -3  -5   5    0.06    0.08
   2   5  -5    0.08    0.13
  -2  -5   5   -0.01    0.11
  -2  -5   5    0.04    0.07
  -2  -5   5    0.02    0.07
  -2  -5   5    0.29    0.10
   1   5  -5    1.13    0.13
   1   5  -5    0.91    0.24
  -1  -5   5    1.62    0.22
  -1  -5   5    1.42    0.21
  -1  -5   5    0.97    0.24
  -1  -5   5    1.66    0.22
   0   5  -5    2.92    0.42
   0   5  -5    3.36    0.33
   0   5  -5    3.69    0.19
   0   5  -5    3.57    0.17
   0   5  -5    3.27    0.20
   0  -5   5    3.20    0.32
   0  -5   5    2.56    0.30
   0  -5   5    3.76    0.27
   0  -5   5    3.12    0.40
   0  -5   5    3.38    0.42
  -1   5  -5    3.48    0.45
  -1   5  -5    4.76    0.45
  -1   5  -5    4.16    0.26
  -1   5  -5    3.95    0.27
  -1   5  -5    4.20    0.27
   1  -5   5    4.18    0.49
   1  -5   5    4.45    0.51
   1  -5   5    4.45    0.33
   1  -5   5    4.17    0.30
   1  -5   5    4.14    0.39
  -2   5  -5    6.76    0.39
  -2   5  -5    6.64    0.64
  -2   5  -5    5.45    0.38
  -2   5  -5    6.56    0.45
  -2   5  -5    6.11    0.35
   2  -5   5    5.89    0.60
   2  -5   5    6.68    0.52
   2  -5   5    6.45    0.37
   2  -5   5    6.03    0.36
   2  -5   5    6.62    0.40
  -3   5  -5    1.51    0.25
  -3   5  -5    1.67    0.29
  -3   5  -5    1.19    0.25
   3  -5   5    1.30    0.23
   3  -5   5    1.19    0.28
   3  -5   5    1.74    0.35
  -4   5  -5    2.71    0.39
  -4   5  -5    2.64    0.40
  -4   5  -5    3.14    0.33
  -4   5  -5    3.31    0.36
   4  -5   5    4.08    0.52
   4  -5   5    3.92    0.52
   4  -5   5    2.50    0.32
  -5   5  -5    0.16    0.15
  -5   5  -5    0.27    0.21
  -5   5  -5    0.23    0.15
   5  -5   5    0.42    0.21
   5  -5   5    0.36    0.15
   5  -5   5   -0.12    0.13
  -6   5  -5    0.45    0.25
  -6   5  -5   -0.12    0.15
  -6   5  -5    0.13    0.16
   6  -5   5    0.66    0.26
   6  -5   5    0.33    0.19
   6  -5   5    0.19    0.20
  -7   5  -5   -0.11    0.22
  -7   5  -5   -0.18    0.19
  -7   5  -5   -0.05    0.19
   7  -5   5    0.39    0.20
   7  -5   5    0.16    0.18
  -8   5  -5   21.46    1.46
  -8   5  -5   22.36    1.18
   8  -5   5   23.74    1.14
   8  -5   5   24.08    1.11
   7   4  -5    7.46    0.65
   6   4  -5    4.88    0.47
  -6  -4   5    5.17    0.36
   5   4  -5    0.18    0.11
   5   4  -5    0.03    0.11
  -5  -4   5    0.26    0.11
   4   4  -5    0.28    0.12
   4   4  -5    0.35    0.14
  -4  -4   5    0.40    0.12
   3   4  -5    2.14    0.29
   3   4  -5    1.72    0.23
  -3  -4   5    2.03    0.33
  -3  -4   5    1.96    0.21
   2   4  -5    3.46    0.21
   2   4  -5    3.56    0.39
   2   4  -5    3.51    0.39
  -2  -4   5    3.41    0.21
  -2  -4   5    3.20    0.18
  -2  -4   5    3.04    0.31
  -2  -4   5    3.03    0.18
  -2  -4   5    2.63    0.35
  -2  -4   5    3.58    0.23
   1   4  -5    3.33    0.39
   1   4  -5    3.31    0.39
   1   4  -5    3.01    0.21
   1   4  -5    3.41    0.15
   1   4  -5    2.91    0.18
  -1  -4   5    2.44    0.34
  -1  -4   5    3.49    0.23
  -1  -4   5    3.71    0.39
  -1  -4   5    3.31    0.24
  -1  -4   5    2.94    0.22
   0   4  -5    0.18    0.09
   0   4  -5    0.11    0.06
   0   4  -5    0.04    0.05
   0   4  -5    0.06    0.05
   0   4  -5    0.07    0.05
   0   4  -5    0.02    0.11
   0  -4   5    0.04    0.06
   0  -4   5   -0.02    0.07
   0  -4   5    0.12    0.08
   0  -4   5    0.19    0.13
   0  -4   5    0.18    0.08
  -1   4  -5  178.73    3.54
  -1   4  -5  178.68    3.91
  -1   4  -5  178.98    3.66
  -1   4  -5  181.71    3.54
  -1   4  -5  187.08    3.48
   1  -4   5  179.11    3.58
   1  -4   5  177.28    3.47
   1  -4   5  187.17    3.65
   1  -4   5  183.72    3.87
   1  -4   5  176.01    3.87
  -2   4  -5   26.42    1.01
  -2   4  -5   27.61    0.80
  -2   4  -5   29.48    0.95
  -2   4  -5   27.60    0.85
  -2   4  -5   27.43    0.90
   2  -4   5   27.14    0.77
   2  -4   5   27.18    1.02
   2  -4   5   27.00    1.04
   2  -4   5   28.33    0.78
   2  -4   5   28.38    0.85
  -3   4  -5    0.22    0.10
  -3   4  -5    0.50    0.17
  -3   4  -5    0.35    0.15
  -3   4  -5    0.49    0.13
  -3   4  -5    0.37    0.14
   3  -4   5    0.93    0.24
   3  -4   5    0.36    0.17
   3  -4   5    0.46    0.14
  -4   4  -5    0.55    0.18
  -4   4  -5    0.11    0.12
  -4   4  -5    0.13    0.14
  -4   4  -5    0.10    0.10
   4  -4   5    0.05    0.13
   4  -4   5    0.31    0.14
   4  -4   5    0.68    0.24
  -5   4  -5    1.39    0.22
  -5   4  -5    1.06    0.21
  -5   4  -5    0.71    0.22
   5  -4   5    1.16    0.24
   5  -4   5    0.47    0.21
   5  -4   5    1.40    0.36
  -6   4  -5    0.35    0.16
  -6   4  -5    0.32    0.19
   6  -4   5    0.01    0.18
   6  -4   5    0.18    0.14
   6  -4   5    0.32    0.18
  -7   4  -5    0.24    0.19
  -7   4  -5   -0.27    0.13
  -7   4  -5    0.08    0.22
   7  -4   5   -0.12    0.12
   7  -4   5   -0.05    0.14
  -8   4  -5    0.11    0.19
  -8   4  -5    0.04    0.25
  -8   4  -5    0.12    0.21
   8  -4   5    0.13    0.18
   8  -4   5    0.09    0.18
   8   3  -5    0.21    0.23
   7   3  -5    0.02    0.15
  -7  -3   5    0.03    0.08
   6   3  -5    0.23    0.15
   6   3  -5    0.40    0.12
  -6  -3   5    0.12    0.08
  -6  -3   5    0.08    0.08
   5   3  -5    9.98    0.52
   5   3  -5   10.90    0.41
   5   3  -5   10.43    0.38
  -5  -3   5   10.68    0.37
  -5  -3   5   10.37    0.43
   4   3  -5   -0.08    0.07
   4   3  -5   -0.04    0.06
   4   3  -5   -0.02    0.10
   4   3  -5    0.01    0.08
  -4  -3   5    0.05    0.05
  -4  -3   5   -0.01    0.06
   3   3  -5    0.00    0.09
   3   3  -5   -0.03    0.05
   3   3  -5    0.03    0.08
   3   3  -5    0.09    0.08
  -3  -3   5    0.07    0.06
  -3  -3   5    0.16    0.07
  -3  -3   5    0.11    0.07
  -3  -3   5    0.15    0.07
   2   3  -5    1.58    0.18
   2   3  -5    1.85    0.26
   2   3  -5    1.61    0.19
   2   3  -5    1.83    0.25
  -2  -3   5    1.90    0.11
  -2  -3   5    1.71    0.19
  -2  -3   5    1.62    0.16
  -2  -3   5    1.66    0.09
  -2  -3   5    1.52    0.25
   1   3  -5    1.94    0.17
   1   3  -5    1.81    0.18
   1   3  -5    1.67    0.25
   1   3  -5    1.77    0.25
   1   3  -5    1.74    0.14
  -1  -3   5    2.08    0.16
  -1  -3   5    1.67    0.18
  -1  -3   5    1.57    0.16
  -1  -3   5    1.77    0.21
  -1  -3   5    1.46    0.21
  -1  -3   5    1.56    0.25
   0   3  -5    6.93    0.25
   0   3  -5    7.29    0.27
   0   3  -5    6.66    0.29
   0   3  -5    6.94    0.25
   0   3  -5    6.65    0.33
   0   3  -5    5.92    0.39
   0  -3   5    6.97    0.34
   0  -3   5    7.43    0.30
   0  -3   5    7.33    0.42
   0  -3   5    6.84    0.33
   0  -3   5    6.77    0.42
  -1   3  -5    1.53    0.17
  -1   3  -5    1.47    0.19
  -1   3  -5    1.16    0.17
  -1   3  -5    1.42    0.23
  -1   3  -5    1.48    0.16
   1  -3   5    1.04    0.21
   1  -3   5    1.52    0.25
   1  -3   5    1.32    0.16
   1  -3   5    2.04    0.22
  -2   3  -5   72.88    1.54
  -2   3  -5   62.72    1.56
  -2   3  -5   71.37    1.79
  -2   3  -5   69.76    1.69
  -2   3  -5   70.19    1.67
   2  -3   5   71.49    1.56
   2  -3   5   72.32    1.84
   2  -3   5   71.73    1.80
   2  -3   5   71.51    1.48
  -3   3  -5   15.52    0.69
  -3   3  -5   15.59    0.56
  -3   3  -5   15.74    0.53
  -3   3  -5   16.46    0.65
  -3   3  -5   15.92    0.71
   3  -3   5   16.26    0.61
   3  -3   5   16.44    0.72
   3  -3   5   16.74    0.78
  -4   3  -5    8.49    0.41
  -4   3  -5    8.12    0.47
  -4   3  -5    8.13    0.37
  -4   3  -5    7.49    0.53
   4  -3   5    8.16    0.51
   4  -3   5    8.63    0.59
  -5   3  -5    0.99    0.22
  -5   3  -5    1.36    0.21
  -5   3  -5    1.08    0.30
  -5   3  -5    1.07    0.17
   5  -3   5    0.75    0.26
   5  -3   5    1.30    0.23
   5  -3   5    1.19    0.25
  -6   3  -5    0.26    0.19
  -6   3  -5    0.59    0.21
   6  -3   5    0.10    0.17
   6  -3   5    0.40    0.15
   6  -3   5    0.25    0.14
  -7   3  -5    0.27    0.23
  -7   3  -5    0.22    0.19
   7  -3   5    0.32    0.18
   7  -3   5    0.54    0.20
  -8   3  -5   -0.20    0.24
  -8   3  -5    0.08    0.18
   8  -3   5    0.12    0.18
   8  -3   5    0.45    0.22
   9  -3   5    0.14    0.21
   8   2  -5    0.03    0.19
   7   2  -5    0.12    0.15
   6   2  -5    0.17    0.14
   6   2  -5    0.07    0.08
  -6  -2   5    0.12    0.08
   5   2  -5    8.95    0.38
   5   2  -5    8.82    0.28
   5   2  -5    8.40    0.46
   5   2  -5    8.70    0.59
  -5  -2   5    8.53    0.36
   4   2  -5    0.02    0.08
   4   2  -5   -0.05    0.05
   4   2  -5    0.00    0.07
   4   2  -5   -0.05    0.08
   4   2  -5   -0.06    0.05
  -4  -2   5    0.00    0.04
  -4  -2   5    0.05    0.03
   3   2  -5    5.92    0.37
   3   2  -5    5.73    0.38
   3   2  -5    6.07    0.32
   3   2  -5    5.84    0.31
   3   2  -5    5.83    0.30
  -3  -2   5    5.94    0.22
  -3  -2   5    5.27    0.22
  -3  -2   5    5.86    0.34
   2   2  -5    4.33    0.22
   2   2  -5    4.06    0.27
   2   2  -5    4.47    0.29
   2   2  -5    4.44    0.27
   2   2  -5    4.86    0.26
   2   2  -5    5.27    0.29
  -2  -2   5    4.36    0.25
  -2  -2   5    4.55    0.18
  -2  -2   5    4.26    0.19
  -2  -2   5    4.41    0.21
  -2  -2   5    4.56    0.31
   1   2  -5    1.22    0.15
   1   2  -5    0.97    0.13
   1   2  -5    0.95    0.17
   1   2  -5    1.32    0.13
   1   2  -5    1.04    0.18
   1   2  -5    1.33    0.20
   1   2  -5    1.12    0.09
  -1  -2   5    1.14    0.12
  -1  -2   5    1.03    0.13
  -1  -2   5    1.21    0.11
  -1  -2   5    0.93    0.17
  -1  -2   5    1.34    0.19
  -1  -2   5    1.27    0.15
  -1  -2   5    1.25    0.11
   0   2  -5    0.24    0.09
   0   2  -5    0.06    0.05
   0   2  -5    0.17    0.05
   0   2  -5    0.19    0.05
   0   2  -5    0.10    0.06
   0   2  -5    0.12    0.09
   0  -2   5    0.15    0.07
   0  -2   5    0.12    0.06
   0  -2   5    0.08    0.08
   0  -2   5   -0.01    0.06
   0  -2   5    0.10    0.07
  -1   2  -5   27.83    0.85
  -1   2  -5   27.19    0.76
  -1   2  -5   27.95    0.68
  -1   2  -5   28.24    0.76
  -1   2  -5   26.81    0.69
   1  -2   5   27.45    0.70
   1  -2   5   26.94    0.70
   1  -2   5   24.99    0.82
   1  -2   5   25.86    0.86
   1  -2   5   25.45    0.67
  -2   2  -5   11.87    0.40
  -2   2  -5   12.08    0.47
  -2   2  -5    9.42    0.40
  -2   2  -5   11.37    0.52
  -2   2  -5   10.88    0.49
   2  -2   5   12.26    0.33
   2  -2   5   11.78    0.28
   2  -2   5   11.54    0.57
   2  -2   5   11.37    0.28
   2  -2   5   11.16    0.42
   2  -2   5   11.19    0.51
  -3   2  -5    6.43    0.28
  -3   2  -5    6.42    0.42
  -3   2  -5    5.97    0.38
  -3   2  -5    6.67    0.36
  -3   2  -5    6.57    0.31
   3  -2   5    5.76    0.33
   3  -2   5    6.89    0.44
   3  -2   5    5.97    0.39
   3  -2   5    5.86    0.54
  -4   2  -5    6.79    0.29
  -4   2  -5    5.37    0.52
  -4   2  -5    6.56    0.31
  -4   2  -5    6.98    0.39
   4  -2   5    6.74    0.38
   4  -2   5    6.18    0.40
   4  -2   5    6.14    0.60
  -5   2  -5    0.19    0.15
  -5   2  -5    0.34    0.14
  -5   2  -5    0.20    0.09
   5  -2   5    0.26    0.13
   5  -2   5    0.18    0.15
   5  -2   5    0.46    0.16
  -6   2  -5    1.60    0.34
  -6   2  -5    1.63    0.20
  -6   2  -5    2.21    0.30
   6  -2   5    1.58    0.26
   6  -2   5    2.22    0.32
  -7   2  -5    0.18    0.15
  -7   2  -5    0.20    0.22
   7  -2   5   -0.01    0.12
   7  -2   5    0.56    0.20
  -8   2  -5    0.09    0.23
  -8   2  -5   -0.04    0.17
   8  -2   5    0.08    0.16
   8  -2   5    0.24    0.14
   9  -2   5    0.04    0.19
   8   1  -5   -0.35    0.14
   7   1  -5    0.50    0.20
   6   1  -5    2.62    0.32
   6   1  -5    3.16    0.28
  -6  -1   5    2.55    0.24
   5   1  -5    0.06    0.09
   5   1  -5   -0.09    0.11
   5   1  -5   -0.03    0.06
   5   1  -5    0.00    0.04
   5   1  -5   -0.01    0.05
  -5  -1   5    0.07    0.06
   4   1  -5   17.34    0.78
   4   1  -5   19.12    0.51
   4   1  -5   17.72    0.53
   4   1  -5   18.69    0.54
   4   1  -5   18.46    0.65
  -4  -1   5   19.57    0.50
   3   1  -5   91.05    1.88
   3   1  -5   88.66    2.09
   3   1  -5   92.00    2.29
   3   1  -5   89.32    1.87
   3   1  -5   92.06    1.69
   3   1  -5   89.99    1.91
   3   1  -5   90.89    2.09
  -3  -1   5   90.51    1.73
  -3  -1   5   90.52    2.17
  -3  -1   5   89.93    1.68
   2   1  -5    2.97    0.21
   2   1  -5    3.13    0.20
   2   1  -5    2.58    0.25
   2   1  -5    3.02    0.22
   2   1  -5    3.11    0.26
   2   1  -5    2.90    0.21
  -2  -1   5    3.20    0.23
  -2  -1   5    3.01    0.16
  -2  -1   5    3.09    0.11
  -2  -1   5    2.99    0.21
   1   1  -5   13.68    0.47
   1   1  -5   13.28    0.49
   1   1  -5   14.14    0.50
   1   1  -5   13.43    0.50
   1   1  -5   14.31    0.42
   1   1  -5   13.51    0.46
   1   1  -5   14.23    0.40
   1   1  -5   13.62    0.42
  -1  -1   5   14.08    0.36
  -1  -1   5   14.01    0.48
  -1  -1   5   13.99    0.49
  -1  -1   5   13.07    0.42
  -1  -1   5   12.94    0.38
   0   1  -5    0.13    0.08
   0   1  -5    0.06    0.05
   0   1  -5    0.03    0.04
   0   1  -5    0.09    0.05
   0   1  -5    0.16    0.06
   0   1  -5    0.04    0.04
   0   1  -5    0.12    0.09
   0  -1   5    0.09    0.07
   0  -1   5    0.16    0.07
   0  -1   5    0.02    0.06
   0  -1   5    0.08    0.04
   0  -1   5    0.03    0.06
  -1   1  -5    5.70    0.29
  -1   1  -5    5.89    0.33
  -1   1  -5    5.90    0.28
  -1   1  -5    5.62    0.34
  -1   1  -5    6.04    0.24
  -1   1  -5    4.97    0.24
   1  -1   5    6.11    0.35
   1  -1   5    5.10    0.31
   1  -1   5    5.84    0.29
   1  -1   5    5.55    0.23
   1  -1   5    6.11    0.25
   1  -1   5    5.99    0.24
  -2   1  -5    0.03    0.06
  -2   1  -5    0.02    0.05
  -2   1  -5    0.04    0.06
  -2   1  -5    0.07    0.06
  -2   1  -5    0.08    0.09
   2  -1   5    0.00    0.08
   2  -1   5    0.01    0.05
   2  -1   5   -0.03    0.06
   2  -1   5    0.01    0.08
   2  -1   5    0.06    0.07
  -3   1  -5   11.04    0.54
  -3   1  -5   11.02    0.38
  -3   1  -5   11.60    0.37
  -3   1  -5   11.14    0.45
  -3   1  -5   11.53    0.35
   3  -1   5   11.76    0.61
   3  -1   5   11.10    0.45
   3  -1   5   10.97    0.53
   3  -1   5   10.38    0.49
  -4   1  -5    2.08    0.12
  -4   1  -5    2.12    0.24
  -4   1  -5    2.00    0.15
  -4   1  -5    2.99    0.36
   4  -1   5    1.81    0.23
   4  -1   5    2.01    0.34
   4  -1   5    1.87    0.26
  -5   1  -5    0.73    0.10
  -5   1  -5    0.67    0.22
  -5   1  -5    0.61    0.16
   5  -1   5    0.39    0.14
   5  -1   5    0.69    0.18
  -6   1  -5    0.02    0.16
  -6   1  -5    0.03    0.10
   6  -1   5    0.29    0.15
   6  -1   5    0.04    0.11
  -7   1  -5    0.18    0.13
  -7   1  -5    0.18    0.20
   7  -1   5    0.11    0.12
   7  -1   5    0.00    0.13
  -8   1  -5    0.17    0.16
  -8   1  -5    0.23    0.26
   8  -1   5    0.02    0.17
   8  -1   5   -0.05    0.13
   9  -1   5    0.01    0.18
   9  -1   5    0.07    0.12
  -9   0   5    0.11    0.14
   8   0  -5    0.75    0.25
  -8   0   5    0.30    0.11
   7   0  -5    0.21    0.16
   6   0  -5    0.13    0.18
   6   0  -5    0.32    0.11
   6   0  -5    0.17    0.12
   5   0  -5    3.94    0.24
   5   0  -5    4.08    0.50
   5   0  -5    4.62    0.34
   5   0  -5    3.70    0.21
   5   0  -5    4.36    0.24
   4   0  -5    4.30    0.30
   4   0  -5    3.92    0.23
   4   0  -5    3.59    0.42
   4   0  -5    3.84    0.43
   4   0  -5    4.34    0.21
  -4   0   5    4.26    0.20
   3   0  -5    2.78    0.32
   3   0  -5    2.59    0.24
   3   0  -5    3.20    0.34
   3   0  -5    3.43    0.40
   3   0  -5    3.27    0.23
   3   0  -5    3.34    0.21
   3   0  -5    3.00    0.14
  -3   0   5    3.38    0.18
   2   0  -5    0.94    0.14
   2   0  -5    0.92    0.13
   2   0  -5    0.73    0.16
   2   0  -5    1.05    0.17
   2   0  -5    0.71    0.15
   2   0  -5    1.03    0.15
  -2   0   5    0.87    0.10
  -2   0   5    0.91    0.07
  -2   0   5    0.80    0.12
  -2   0   5    0.99    0.17
  -2   0   5    0.94    0.06
   1   0  -5    0.05    0.05
   1   0  -5    0.15    0.04
   1   0  -5   -0.03    0.04
   1   0  -5    0.16    0.06
   1   0  -5    0.06    0.02
   1   0  -5    0.06    0.02
   1   0  -5    0.05    0.07
   1   0  -5    0.02    0.05
   1   0  -5    0.03    0.07
   1   0  -5    0.04    0.05
   1   0  -5    0.16    0.07
  -1   0   5    0.06    0.06
  -1   0   5    0.05    0.05
  -1   0   5    0.20    0.06
  -1   0   5    0.12    0.06
  -1   0   5    0.06    0.05
  -1   0   5    0.06    0.05
  -1   0   5    0.03    0.06
   0   0  -5   11.90    0.41
   0   0  -5   11.93    0.35
   0   0  -5   11.01    0.41
   0   0  -5   11.55    0.39
   0   0  -5   11.71    0.33
   0   0  -5   11.83    0.34
   0   0  -5   11.72    0.47
   0   0   5   11.90    0.43
   0   0   5   11.45    0.47
   0   0   5   11.85    0.38
   0   0   5   11.58    0.42
   0   0   5   12.08    0.30
   0   0   5   11.38    0.38
  -1   0  -5    0.03    0.04
  -1   0  -5   -0.04    0.07
  -1   0  -5    0.08    0.05
  -1   0  -5    0.01    0.07
  -1   0  -5    0.20    0.07
  -1   0  -5    0.06    0.06
   1   0   5    0.06    0.05
   1   0   5   -0.03    0.05
   1   0   5    0.12    0.05
   1   0   5    0.20    0.10
   1   0   5    0.20    0.06
   1   0   5    0.15    0.08
  -2   0  -5   18.18    0.62
  -2   0  -5   18.15    0.64
  -2   0  -5   18.12    0.49
  -2   0  -5   17.26    0.48
  -2   0  -5   18.27    0.56
  -2   0  -5   18.67    0.58
   2   0   5   17.28    0.63
   2   0   5   17.82    0.54
   2   0   5   18.24    0.71
   2   0   5   19.93    0.68
   2   0   5   17.96    0.54
  -3   0  -5    0.36    0.09
  -3   0  -5    0.35    0.12
  -3   0  -5    0.27    0.07
  -3   0  -5    0.48    0.13
  -3   0  -5    0.43    0.07
  -3   0  -5    0.28    0.07
   3   0   5    0.51    0.14
   3   0   5    0.39    0.11
   3   0   5    0.23    0.11
  -4   0  -5    0.89    0.15
  -4   0  -5    0.57    0.08
  -4   0  -5    0.76    0.20
   4   0   5    0.60    0.14
   4   0   5    0.88    0.18
  -5   0  -5    0.48    0.17
  -5   0  -5    0.80    0.16
   5   0   5    0.60    0.16
   5   0   5    0.44    0.13
  -6   0  -5   12.01    0.73
  -6   0  -5   11.58    0.51
   6   0   5   11.79    0.57
   6   0   5   12.23    0.61
  -7   0  -5    0.15    0.22
  -7   0  -5    0.05    0.11
   7   0   5    0.28    0.15
   7   0   5    0.35    0.15
  -8   0  -5    1.08    0.37
  -8   0  -5    1.20    0.23
   8   0   5    1.04    0.28
   8   0   5    0.76    0.19
  -9   1   5   11.95    0.57
  -8   1   5    0.01    0.12
   7  -1  -5   -0.05    0.14
   7  -1  -5    0.18    0.08
   7  -1  -5    0.10    0.07
  -7   1   5    0.12    0.10
   6  -1  -5    0.44    0.13
   6  -1  -5    0.55    0.19
   6  -1  -5    0.30    0.10
   6  -1  -5    0.29    0.11
   6  -1  -5    0.41    0.25
  -6   1   5    0.27    0.10
   5  -1  -5    8.98    0.43
   5  -1  -5    8.69    0.41
   5  -1  -5    8.57    0.64
   5  -1  -5    8.01    0.61
   5  -1  -5    9.20    0.49
   5  -1  -5    8.97    0.36
  -5   1   5    8.04    0.34
  -5   1   5    9.23    0.38
   4  -1  -5    0.00    0.11
   4  -1  -5    0.16    0.13
   4  -1  -5    0.21    0.10
   4  -1  -5    0.17    0.06
   4  -1  -5    0.08    0.09
   4  -1  -5    0.08    0.08
   4  -1  -5    0.04    0.11
  -4   1   5    0.09    0.06
  -4   1   5    0.12    0.08
  -4   1   5    0.03    0.05
   3  -1  -5    7.96    0.53
   3  -1  -5    6.61    0.35
   3  -1  -5    7.26    0.25
   3  -1  -5    7.10    0.36
   3  -1  -5    7.23    0.47
   3  -1  -5    7.60    0.48
   3  -1  -5    8.00    0.40
  -3   1   5    7.31    0.33
  -3   1   5    7.06    0.32
  -3   1   5    7.34    0.21
   2  -1  -5    0.05    0.07
   2  -1  -5    0.06    0.06
   2  -1  -5   -0.04    0.07
   2  -1  -5   -0.01    0.05
   2  -1  -5    0.08    0.04
   2  -1  -5    0.00    0.05
   2  -1  -5   -0.05    0.06
   2  -1  -5   -0.07    0.06
  -2   1   5   -0.03    0.04
  -2   1   5    0.01    0.05
  -2   1   5   -0.02    0.06
  -2   1   5    0.07    0.05
  -2   1   5   -0.01    0.05
  -2   1   5    0.02    0.07
  -2   1   5    0.00    0.04
   1  -1  -5   33.10    0.94
   1  -1  -5   33.36    1.01
   1  -1  -5   33.79    0.75
   1  -1  -5   34.43    0.79
   1  -1  -5   34.91    0.93
   1  -1  -5   33.57    0.81
   1  -1  -5   35.31    0.75
   1  -1  -5   33.53    0.96
   1  -1  -5   34.36    0.88
   1  -1  -5   33.79    0.68
  -1   1   5   35.02    0.82
  -1   1   5   34.58    0.97
  -1   1   5   34.96    0.83
  -1   1   5   32.91    0.88
   0  -1  -5    0.07    0.06
   0  -1  -5    0.20    0.05
   0  -1  -5    0.10    0.06
   0  -1  -5    0.13    0.10
   0  -1  -5    0.18    0.06
   0  -1  -5    0.12    0.06
   0  -1  -5    0.14    0.07
   0  -1  -5    0.20    0.06
   0   1   5    0.20    0.07
   0   1   5    0.33    0.06
   0   1   5    0.30    0.10
   0   1   5    0.22    0.08
   0   1   5    0.19    0.09
  -1  -1  -5    0.61    0.15
  -1  -1  -5    0.79    0.10
  -1  -1  -5    0.68    0.12
  -1  -1  -5    0.66    0.12
  -1  -1  -5    0.71    0.15
  -1  -1  -5    0.65    0.10
  -1  -1  -5    0.66    0.10
   1   1   5    0.61    0.10
   1   1   5    0.57    0.15
   1   1   5    0.79    0.09
   1   1   5    0.87    0.15
   1   1   5    0.63    0.09
  -2  -1  -5    0.66    0.10
  -2  -1  -5    1.43    0.20
  -2  -1  -5    1.68    0.24
  -2  -1  -5    1.44    0.19
  -2  -1  -5    1.24    0.13
  -2  -1  -5    1.13    0.16
   2   1   5    1.56    0.24
   2   1   5    1.29    0.21
   2   1   5    1.13    0.15
  -3  -1  -5    0.00    0.07
  -3  -1  -5    0.09    0.06
  -3  -1  -5    0.02    0.05
  -3  -1  -5    0.22    0.09
  -3  -1  -5    0.05    0.05
  -3  -1  -5    0.02    0.06
   3   1   5   -0.02    0.08
   3   1   5    0.07    0.03
   3   1   5    0.12    0.09
   3   1   5    0.10    0.08
  -4  -1  -5    0.56    0.17
  -4  -1  -5    0.56    0.13
   4   1   5    0.52    0.14
   4   1   5    0.83    0.18
  -5  -1  -5    0.19    0.13
  -5  -1  -5    0.08    0.07
   5   1   5    0.22    0.12
   5   1   5    0.01    0.10
  -6  -1  -5    0.77    0.16
  -6  -1  -5    0.98    0.24
   6   1   5    0.60    0.17
   6   1   5    0.81    0.19
  -7  -1  -5   11.03    0.53
  -7  -1  -5   12.16    0.77
   7   1   5   11.10    0.56
   7   1   5   12.05    0.67
  -8  -1  -5   -0.02    0.14
  -8  -1  -5    0.01    0.14
   8   1   5   -0.04    0.13
   8   1   5   -0.08    0.15
   8  -2  -5    0.03    0.09
  -8   2   5   -0.06    0.14
   7  -2  -5    0.11    0.13
  -7   2   5    0.14    0.12
   6  -2  -5    1.21    0.34
   6  -2  -5    0.79    0.19
   6  -2  -5    0.94    0.18
   6  -2  -5    1.64    0.40
  -6   2   5    0.83    0.18
   5  -2  -5   -0.02    0.09
   5  -2  -5    0.22    0.20
   5  -2  -5    0.22    0.15
   5  -2  -5   -0.01    0.07
  -5   2   5    0.01    0.08
   4  -2  -5    9.45    0.64
   4  -2  -5   10.65    0.72
   4  -2  -5    9.85    0.63
   4  -2  -5    9.69    0.49
   4  -2  -5   10.54    0.38
   4  -2  -5   10.25    0.54
  -4   2   5    9.58    0.45
  -4   2   5   10.02    0.48
  -4   2   5   10.14    0.32
  -4   2   5   10.36    0.28
   3  -2  -5    2.09    0.16
   3  -2  -5    2.57    0.32
   3  -2  -5    2.31    0.34
   3  -2  -5    1.45    0.28
   3  -2  -5    1.97    0.25
   3  -2  -5    1.93    0.29
  -3   2   5    2.28    0.23
  -3   2   5    2.20    0.20
  -3   2   5    2.16    0.33
  -3   2   5    2.06    0.24
  -3   2   5    2.15    0.19
  -3   2   5    2.19    0.26
   2  -2  -5    0.90    0.18
   2  -2  -5    1.62    0.26
   2  -2  -5    0.86    0.20
   2  -2  -5    1.31    0.19
   2  -2  -5    0.92    0.21
   2  -2  -5    1.24    0.13
  -2   2   5    1.30    0.22
  -2   2   5    1.43    0.18
  -2   2   5    1.62    0.26
  -2   2   5    1.31    0.16
  -2   2   5    1.37    0.21
   1  -2  -5   -0.01    0.07
   1  -2  -5    0.10    0.05
   1  -2  -5   -0.04    0.06
   1  -2  -5    0.03    0.06
   1  -2  -5    0.00    0.08
   1  -2  -5    0.08    0.08
   1  -2  -5    0.08    0.05
   1  -2  -5   -0.03    0.04
   1  -2  -5    0.09    0.08
  -1   2   5    0.08    0.08
  -1   2   5   -0.03    0.07
  -1   2   5    0.14    0.07
  -1   2   5    0.03    0.08
  -1   2   5    0.12    0.06
   0  -2  -5  153.40    3.01
   0  -2  -5  149.48    3.34
   0  -2  -5  153.41    2.93
   0  -2  -5  153.35    3.26
   0  -2  -5  154.74    3.02
   0  -2  -5  154.27    2.82
   0  -2  -5  152.21    3.07
   0   2   5  150.50    3.11
   0   2   5  154.58    2.94
   0   2   5  155.31    3.24
   0   2   5  153.71    3.02
  -1  -2  -5    9.26    0.33
  -1  -2  -5    9.54    0.38
  -1  -2  -5    8.95    0.49
  -1  -2  -5    9.23    0.41
  -1  -2  -5    8.80    0.33
  -1  -2  -5    8.99    0.33
   1   2   5    9.24    0.26
   1   2   5    8.63    0.47
   1   2   5    9.25    0.30
   1   2   5    8.93    0.34
   1   2   5    8.24    0.42
  -2  -2  -5    0.07    0.05
  -2  -2  -5    0.08    0.10
  -2  -2  -5    0.09    0.06
  -2  -2  -5    0.00    0.05
  -2  -2  -5    0.08    0.08
  -2  -2  -5    0.07    0.07
   2   2   5    0.15    0.10
   2   2   5    0.04    0.06
   2   2   5    0.12    0.08
  -3  -2  -5    1.65    0.22
  -3  -2  -5    1.00    0.13
  -3  -2  -5    0.94    0.16
  -3  -2  -5    1.09    0.17
  -3  -2  -5    0.85    0.11
   3   2   5    1.55    0.25
   3   2   5    1.02    0.16
  -4  -2  -5    3.40    0.18
  -4  -2  -5    2.99    0.29
  -4  -2  -5    3.17    0.34
  -4  -2  -5    3.07    0.29
   4   2   5    3.27    0.36
   4   2   5    2.88    0.30
  -5  -2  -5    0.05    0.08
  -5  -2  -5    0.18    0.13
  -5  -2  -5    0.05    0.09
   5   2   5    0.02    0.09
   5   2   5   -0.01    0.10
  -6  -2  -5    0.95    0.19
  -6  -2  -5    0.87    0.24
  -6  -2  -5    1.38    0.26
   6   2   5    1.24    0.25
   6   2   5    0.94    0.22
   6   2   5    1.34    0.27
  -7  -2  -5    2.11    0.33
  -7  -2  -5    1.88    0.28
   7   2   5    2.27    0.37
   7   2   5    1.37    0.26
  -8  -2  -5    4.12    0.48
   8   2   5    4.37    0.52
   8   2   5    3.67    0.31
   9  -3  -5    0.84    0.20
   8  -3  -5    0.04    0.14
  -8   3   5    0.11    0.18
   7  -3  -5    0.04    0.13
  -7   3   5    0.09    0.15
   6  -3  -5    0.88    0.31
   6  -3  -5    0.54    0.20
   6  -3  -5    0.53    0.17
   6  -3  -5    0.79    0.31
  -6   3   5    0.72    0.20
  -6   3   5    0.61    0.12
   5  -3  -5    2.23    0.25
   5  -3  -5    2.56    0.48
   5  -3  -5    2.40    0.37
   5  -3  -5    1.62    0.35
  -5   3   5    2.45    0.32
  -5   3   5    2.04    0.21
   4  -3  -5    3.66    0.48
   4  -3  -5    3.20    0.47
   4  -3  -5    4.12    0.26
   4  -3  -5    4.43    0.58
   4  -3  -5    3.93    0.44
  -4   3   5    4.08    0.40
  -4   3   5    3.84    0.25
  -4   3   5    3.45    0.24
   3  -3  -5    1.68    0.31
   3  -3  -5    1.63    0.31
   3  -3  -5    1.64    0.19
   3  -3  -5    1.75    0.30
   3  -3  -5    1.57    0.31
  -3   3   5    1.55    0.26
  -3   3   5    1.84    0.31
  -3   3   5    2.32    0.24
  -3   3   5    2.01    0.22
   2  -3  -5    0.48    0.08
   2  -3  -5    0.56    0.17
   2  -3  -5    0.76    0.21
   2  -3  -5    0.69    0.18
   2  -3  -5    0.97    0.20
   2  -3  -5    0.66    0.10
   2  -3  -5    0.71    0.20
   2  -3  -5    0.37    0.09
   2  -3  -5    0.66    0.12
  -2   3   5    0.81    0.14
  -2   3   5    0.74    0.14
  -2   3   5    0.65    0.20
  -2   3   5    0.78    0.18
   1  -3  -5    5.76    0.32
   1  -3  -5    6.25    0.31
   1  -3  -5    6.66    0.43
   1  -3  -5    6.62    0.40
   1  -3  -5    7.34    0.30
   1  -3  -5    6.28    0.42
   1  -3  -5    6.86    0.47
   1  -3  -5    6.34    0.37
  -1   3   5    6.17    0.44
  -1   3   5    6.53    0.34
  -1   3   5    5.85    0.39
  -1   3   5    6.37    0.32
   0  -3  -5    2.65    0.26
   0  -3  -5    2.71    0.36
   0  -3  -5    2.91    0.28
   0  -3  -5    2.41    0.30
   0  -3  -5    2.45    0.21
   0  -3  -5    2.58    0.30
   0  -3  -5    2.79    0.20
   0   3   5    2.32    0.29
   0   3   5    2.34    0.34
   0   3   5    2.51    0.24
   0   3   5    1.95    0.29
   0   3   5    2.53    0.22
  -1  -3  -5   47.34    1.10
  -1  -3  -5   46.80    1.14
  -1  -3  -5   47.62    1.14
  -1  -3  -5   48.38    1.27
  -1  -3  -5   47.71    1.11
  -1  -3  -5   47.44    1.30
  -1  -3  -5   48.94    1.43
   1   3   5   47.62    1.28
   1   3   5   49.45    1.43
   1   3   5   46.86    1.40
   1   3   5   45.85    1.00
  -2  -3  -5    1.26    0.17
  -2  -3  -5    1.58    0.19
  -2  -3  -5    1.32    0.17
  -2  -3  -5    1.47    0.16
  -2  -3  -5    1.66    0.24
   2   3   5    1.75    0.30
   2   3   5    1.62    0.28
   2   3   5    1.37    0.19
  -3  -3  -5    0.08    0.06
  -3  -3  -5    0.13    0.10
  -3  -3  -5    0.29    0.08
  -3  -3  -5    0.18    0.10
  -3  -3  -5    0.17    0.09
   3   3   5    0.07    0.10
   3   3   5    0.06    0.10
   3   3   5    0.05    0.10
  -4  -3  -5   -0.09    0.07
  -4  -3  -5    0.00    0.09
  -4  -3  -5    0.04    0.06
  -4  -3  -5   -0.05    0.09
   4   3   5   -0.06    0.10
   4   3   5   -0.05    0.07
   4   3   5    0.00    0.12
  -5  -3  -5    0.04    0.08
  -5  -3  -5    0.11    0.11
  -5  -3  -5    0.04    0.11
   5   3   5    0.02    0.14
   5   3   5    0.08    0.11
  -6  -3  -5    0.42    0.18
  -6  -3  -5    0.50    0.17
   6   3   5    0.55    0.22
   6   3   5    0.18    0.16
  -7  -3  -5    0.15    0.12
  -7  -3  -5    0.00    0.15
   7   3   5   -0.08    0.17
   7   3   5    0.15    0.17
   8  -4  -5    1.13    0.33
  -8   4   5    0.69    0.28
   7  -4  -5    2.08    0.53
   7  -4  -5    1.75    0.36
  -7   4   5    2.14    0.29
  -7   4   5    1.98    0.36
   6  -4  -5   13.78    0.67
   6  -4  -5   14.01    0.83
   6  -4  -5   15.68    1.05
   6  -4  -5   12.77    0.94
  -6   4   5   14.04    0.59
  -6   4   5   13.80    0.76
   5  -4  -5    1.50    0.39
   5  -4  -5    1.00    0.31
   5  -4  -5    1.49    0.23
   5  -4  -5    1.28    0.32
  -5   4   5    1.17    0.21
  -5   4   5    1.13    0.29
  -5   4   5    1.47    0.22
   4  -4  -5    0.03    0.14
   4  -4  -5    0.12    0.16
   4  -4  -5   -0.04    0.13
   4  -4  -5    0.06    0.09
   4  -4  -5    0.06    0.13
  -4   4   5    0.05    0.08
  -4   4   5   -0.04    0.11
  -4   4   5   -0.04    0.08
   3  -4  -5    6.57    0.51
   3  -4  -5    6.82    0.53
   3  -4  -5    7.48    0.60
   3  -4  -5    5.98    0.63
   3  -4  -5    6.70    0.36
  -3   4   5    6.76    0.37
  -3   4   5    5.79    0.37
  -3   4   5    6.62    0.48
   2  -4  -5    1.38    0.19
   2  -4  -5    1.56    0.29
   2  -4  -5    1.36    0.26
   2  -4  -5    1.87    0.35
   2  -4  -5    1.65    0.19
   2  -4  -5    1.52    0.19
   2  -4  -5    2.00    0.23
   2  -4  -5    1.73    0.31
  -2   4   5    1.95    0.25
  -2   4   5    2.18    0.35
  -2   4   5    1.21    0.27
  -2   4   5    1.36    0.21
   1  -4  -5    4.28    0.31
   1  -4  -5    3.83    0.25
   1  -4  -5    3.47    0.38
   1  -4  -5    3.63    0.27
   1  -4  -5    4.38    0.47
   1  -4  -5    4.41    0.34
   1  -4  -5    4.31    0.45
   1  -4  -5    3.43    0.45
  -1   4   5    3.43    0.39
  -1   4   5    3.61    0.27
  -1   4   5    4.04    0.30
  -1   4   5    4.58    0.53
   0  -4  -5    1.50    0.22
   0  -4  -5    1.78    0.28
   0  -4  -5    1.85    0.21
   0  -4  -5    1.50    0.20
   0  -4  -5    2.66    0.41
   0  -4  -5    1.78    0.23
   0  -4  -5    1.40    0.25
   0  -4  -5    1.95    0.28
   0   4   5    1.92    0.30
   0   4   5    1.39    0.29
   0   4   5    2.18    0.24
   0   4   5    1.96    0.20
  -1  -4  -5    1.37    0.21
  -1  -4  -5    1.22    0.18
  -1  -4  -5    1.43    0.19
  -1  -4  -5    1.66    0.25
  -1  -4  -5    1.71    0.21
  -1  -4  -5    1.57    0.26
   1   4   5    1.46    0.31
  -2  -4  -5   15.13    0.53
  -2  -4  -5   14.32    0.51
  -2  -4  -5   13.64    0.55
  -2  -4  -5   14.78    0.66
  -2  -4  -5   13.73    0.53
   2   4   5   14.87    0.77
  -3  -4  -5    0.13    0.07
  -3  -4  -5   -0.02    0.06
  -3  -4  -5    0.18    0.11
  -3  -4  -5    0.01    0.08
   3   4   5   -0.11    0.12
   3   4   5    0.11    0.09
  -4  -4  -5    1.39    0.24
  -4  -4  -5    1.22    0.24
  -4  -4  -5    0.74    0.15
   4   4   5    1.00    0.26
   4   4   5    0.91    0.21
  -5  -4  -5    0.27    0.15
  -5  -4  -5    0.24    0.11
  -5  -4  -5    0.26    0.16
   5   4   5    0.29    0.15
   5   4   5    0.09    0.16
  -6  -4  -5    0.12    0.16
  -6  -4  -5    0.18    0.15
   6   4   5    0.09    0.19
   6   4   5    0.21    0.17
  -7  -4  -5    0.01    0.18
   7   4   5   -0.21    0.15
   7   4   5    0.07    0.22
   8  -5  -5    0.13    0.23
  -8   5   5    0.21    0.30
   7  -5  -5   -0.04    0.19
  -7   5   5    0.00    0.16
  -7   5   5    0.11    0.20
   6  -5  -5    2.05    0.45
   6  -5  -5    2.48    0.53
   6  -5  -5    1.93    0.49
  -6   5   5    3.15    0.48
  -6   5   5    2.81    0.35
  -6   5   5    2.56    0.35
   5  -5  -5    0.16    0.13
   5  -5  -5   -0.24    0.15
   5  -5  -5   -0.03    0.14
   5  -5  -5    0.23    0.22
  -5   5   5    0.11    0.12
  -5   5   5    0.03    0.15
  -5   5   5    0.15    0.13
   4  -5  -5   28.38    1.37
   4  -5  -5   28.28    0.91
   4  -5  -5   26.86    1.23
   4  -5  -5   27.36    1.23
   4  -5  -5   29.43    1.35
  -4   5   5   27.05    0.96
  -4   5   5   30.37    0.95
  -4   5   5   27.64    1.13
   3  -5  -5    0.92    0.30
   3  -5  -5    0.87    0.29
   3  -5  -5    1.55    0.34
   3  -5  -5    1.10    0.20
   3  -5  -5    1.40    0.34
  -3   5   5    1.04    0.23
  -3   5   5    1.43    0.24
  -3   5   5    1.26    0.30
   2  -5  -5    0.61    0.16
   2  -5  -5    0.43    0.22
   2  -5  -5    0.59    0.15
   2  -5  -5    0.71    0.22
   2  -5  -5    0.20    0.18
   2  -5  -5    0.56    0.15
   2  -5  -5    0.49    0.21
   2  -5  -5    0.84    0.17
  -2   5   5    0.69    0.18
  -2   5   5    0.33    0.19
  -2   5   5    0.54    0.17
  -2   5   5    0.68    0.22
   1  -5  -5    1.24    0.24
   1  -5  -5    0.99    0.20
   1  -5  -5    1.02    0.27
   1  -5  -5    1.26    0.23
   1  -5  -5    1.05    0.18
   1  -5  -5    0.87    0.27
   1  -5  -5    1.73    0.29
   1  -5  -5    1.16    0.26
   1  -5  -5    1.28    0.31
  -1   5   5    0.85    0.29
  -1   5   5    1.08    0.27
  -1   5   5    1.11    0.19
  -1   5   5    1.42    0.23
   0  -5  -5   -0.02    0.11
   0  -5  -5   -0.03    0.09
   0  -5  -5    0.03    0.09
   0  -5  -5    0.15    0.09
   0  -5  -5    0.13    0.13
   0  -5  -5   -0.03    0.08
   0  -5  -5   -0.02    0.10
   0   5   5    0.01    0.09
   0   5   5    0.24    0.17
  -1  -5  -5    1.79    0.30
  -1  -5  -5    1.71    0.29
  -1  -5  -5    1.12    0.26
  -1  -5  -5    1.37    0.21
  -1  -5  -5    1.30    0.22
  -1  -5  -5    1.36    0.21
   1   5   5    1.60    0.34
  -2  -5  -5    0.00    0.09
  -2  -5  -5    0.03    0.09
  -2  -5  -5    0.22    0.14
  -2  -5  -5    0.03    0.11
  -2  -5  -5    0.06    0.11
   2   5   5    0.19    0.16
  -3  -5  -5    1.20    0.19
  -3  -5  -5    1.41    0.24
  -3  -5  -5    1.25    0.29
  -3  -5  -5    1.00    0.19
   3   5   5    1.11    0.29
  -4  -5  -5    5.52    0.56
  -4  -5  -5    4.27    0.33
  -4  -5  -5    4.40    0.43
   4   5   5    4.31    0.58
  -5  -5  -5    1.21    0.28
  -5  -5  -5    0.88    0.18
  -5  -5  -5    1.15    0.27
   5   5   5    1.06    0.31
  -6  -5  -5    0.18    0.18
  -6  -5  -5    0.27    0.20
   6   5   5    0.08    0.22
   7  -6  -5    0.09    0.24
  -7   6   5    0.41    0.28
   6  -6  -5    0.04    0.23
   6  -6  -5    0.11    0.34
  -6   6   5    0.04    0.21
  -6   6   5   -0.01    0.17
  -6   6   5    0.13    0.18
   5  -6  -5    1.23    0.38
   5  -6  -5    1.80    0.43
   5  -6  -5    1.47    0.39
   5  -6  -5    1.56    0.28
  -5   6   5    1.11    0.36
  -5   6   5    1.29    0.28
  -5   6   5    1.38    0.29
   4  -6  -5   10.75    0.86
   4  -6  -5    8.86    0.87
   4  -6  -5   10.78    0.79
   4  -6  -5    9.39    0.53
  -4   6   5    9.57    0.72
  -4   6   5    9.81    0.55
  -4   6   5   10.14    0.60
   3  -6  -5    5.99    0.72
   3  -6  -5    6.37    0.72
   3  -6  -5    6.93    0.77
   3  -6  -5    5.97    0.42
   3  -6  -5    6.30    0.67
  -3   6   5    6.97    0.44
  -3   6   5    6.00    0.64
  -3   6   5    5.53    0.54
   2  -6  -5    0.01    0.15
   2  -6  -5   -0.04    0.17
   2  -6  -5    0.00    0.09
   2  -6  -5    0.16    0.18
   2  -6  -5    0.34    0.20
   2  -6  -5    0.22    0.12
  -2   6   5    0.09    0.12
  -2   6   5    0.15    0.13
   1  -6  -5    2.98    0.35
   1  -6  -5    3.19    0.36
   1  -6  -5    3.34    0.49
   1  -6  -5    3.08    0.37
   1  -6  -5    3.54    0.49
   1  -6  -5    2.71    0.38
   1  -6  -5    3.44    0.40
  -1   6   5    2.88    0.51
  -1   6   5    3.16    0.33
   0  -6  -5    0.04    0.17
   0  -6  -5    0.09    0.11
   0  -6  -5    0.03    0.10
   0  -6  -5    0.02    0.14
   0  -6  -5    0.05    0.15
   0  -6  -5   -0.03    0.10
   0   6   5   -0.01    0.16
  -1  -6  -5    2.57    0.42
  -1  -6  -5    1.93    0.34
  -1  -6  -5    2.28    0.29
  -1  -6  -5    1.87    0.27
  -1  -6  -5    2.35    0.33
   1   6   5    1.72    0.38
  -2  -6  -5    1.59    0.31
  -2  -6  -5    1.26    0.24
  -2  -6  -5    1.67    0.26
  -2  -6  -5    1.59    0.26
  -2  -6  -5    1.49    0.34
   2   6   5    1.65    0.38
  -3  -6  -5    0.71    0.20
  -3  -6  -5    0.10    0.19
  -3  -6  -5    0.52    0.21
  -3  -6  -5    0.56    0.17
   3   6   5    0.73    0.30
  -4  -6  -5    2.06    0.42
  -4  -6  -5    2.27    0.34
  -4  -6  -5    1.55    0.26
   4   6   5    2.54    0.49
  -5  -6  -5    8.72    0.61
  -5  -6  -5    7.76    0.73
   5   6   5    8.63    0.86
  -6  -6  -5    0.18    0.20
   7  -7  -5   -0.06    0.29
  -7   7   5   -0.09    0.26
   6  -7  -5   -0.05    0.28
  -6   7   5   -0.08    0.19
  -6   7   5    0.05    0.24
   5  -7  -5    0.57    0.31
   5  -7  -5   -0.07    0.15
   5  -7  -5    0.14    0.28
  -5   7   5    0.14    0.22
  -5   7   5    0.32    0.27
  -5   7   5    0.10    0.16
   4  -7  -5    2.70    0.37
   4  -7  -5    2.73    0.50
   4  -7  -5    2.38    0.54
   4  -7  -5    2.48    0.53
  -4   7   5    3.57    0.44
  -4   7   5    3.29    0.55
  -4   7   5    3.45    0.47
   3  -7  -5    3.92    0.62
   3  -7  -5    4.32    0.47
   3  -7  -5    3.07    0.57
   3  -7  -5    3.77    0.65
   3  -7  -5    4.02    0.57
  -3   7   5    5.04    0.54
  -3   7   5    4.18    0.45
   2  -7  -5    5.95    0.44
   2  -7  -5    5.75    0.71
   2  -7  -5    6.10    0.43
  -2   7   5    6.62    0.45
   1  -7  -5    0.13    0.16
   1  -7  -5    0.27    0.17
   1  -7  -5    0.03    0.19
   1  -7  -5    0.07    0.13
  -1   7   5   -0.04    0.11
   0  -7  -5   -0.02    0.10
   0  -7  -5    0.07    0.18
   0  -7  -5    0.11    0.17
   0  -7  -5   -0.16    0.11
   0  -7  -5    0.12    0.14
   0   7   5    0.01    0.18
  -1  -7  -5    0.13    0.15
  -1  -7  -5    0.39    0.18
  -1  -7  -5    0.04    0.14
  -1  -7  -5    0.26    0.24
  -1  -7  -5    0.79    0.26
   1   7   5    0.18    0.23
  -2  -7  -5    0.08    0.13
  -2  -7  -5    0.03    0.12
  -2  -7  -5    0.19    0.17
  -2  -7  -5    0.20    0.21
  -2  -7  -5    0.19    0.22
   2   7   5   -0.05    0.19
  -3  -7  -5    0.03    0.14
  -3  -7  -5    0.06    0.20
  -3  -7  -5    0.20    0.17
   3   7   5   -0.04    0.21
  -4  -7  -5   -0.25    0.16
  -4  -7  -5   -0.01    0.22
  -4  -7  -5    0.02    0.15
   4   7   5   -0.08    0.24
  -5  -7  -5    4.19    0.53
   6  -8  -5    0.53    0.39
   5  -8  -5    0.61    0.25
   5  -8  -5    0.48    0.34
  -5   8   5   -0.10    0.20
   4  -8  -5    0.43    0.22
   4  -8  -5    0.60    0.41
  -4   8   5    0.51    0.27
  -4   8   5    0.24    0.20
   3  -8  -5   -0.12    0.15
   3  -8  -5   -0.11    0.24
  -3   8   5    0.04    0.16
   2  -8  -5    5.69    0.52
   2  -8  -5    4.93    0.54
   2  -8  -5    6.66    0.83
  -2   8   5    5.54    0.50
   1  -8  -5   15.59    0.80
   1  -8  -5   14.97    0.77
   1  -8  -5   16.99    1.06
   0  -8  -5    0.02    0.15
   0  -8  -5   -0.01    0.24
   0  -8  -5    0.12    0.19
   0  -8  -5   -0.07    0.16
  -1  -8  -5    0.39    0.21
  -1  -8  -5    0.10    0.18
  -1  -8  -5   -0.11    0.15
   1   8   5    0.12    0.29
  -2  -8  -5   -0.03    0.18
  -2  -8  -5    0.18    0.18
  -2  -8  -5    0.27    0.29
   2   8   5    0.16    0.29
  -3  -8  -5   -0.04    0.29
  -3  -8  -5    0.20    0.22
   3   8   5    0.54    0.36
   5  -9  -5    0.05    0.22
   4  -9  -5    0.01    0.17
   3  -9  -5    0.41    0.21
  -3   9   5    0.37    0.21
   2  -9  -5    0.16    0.19
   1  -9  -5    1.01    0.29
   1  -9  -5    1.34    0.32
   0  -9  -5   16.71    0.89
  -1  -9  -5    0.13    0.24
  -2  -9  -5    0.32    0.23
   2   9   5    0.17    0.38
   2  10  -6    0.82    0.49
  -2 -10   6    0.67    0.27
   1  10  -6    0.14    0.36
  -1 -10   6    0.02    0.20
   0 -10   6    0.12    0.23
   1 -10   6   -0.14    0.17
   1 -10   6    0.06    0.22
   2 -10   6    0.94    0.30
   3 -10   6    0.71    0.31
   4 -10   6   -0.08    0.21
  -4  -9   6    0.06    0.20
   3   9  -6    6.97    0.85
  -3  -9   6    6.19    0.61
  -3  -9   6    7.96    0.75
   2   9  -6    0.60    0.37
  -2  -9   6    0.49    0.22
  -2  -9   6    0.46    0.24
   1   9  -6    0.17    0.29
  -1  -9   6    0.19    0.19
  -1  -9   6    0.23    0.18
  -1  -9   6    0.19    0.17
   0   9  -6    0.10    0.28
   0  -9   6    0.15    0.19
   0  -9   6    0.66    0.23
   0  -9   6   -0.06    0.21
   1  -9   6    0.58    0.23
   1  -9   6   -0.13    0.13
   1  -9   6    0.18    0.20
   2  -9   6    0.20    0.17
  -3   9  -6    0.55    0.21
   3  -9   6    0.62    0.23
  -4   9  -6    0.08    0.19
   4  -9   6    0.07    0.21
   5  -9   6    5.74    0.69
   6  -9   6    0.20    0.24
   6  -9   6    0.61    0.42
   5   8  -6    0.29    0.21
  -5  -8   6    0.14    0.19
   4   8  -6    0.52    0.32
  -4  -8   6    0.68    0.22
   3   8  -6   -0.02    0.23
  -3  -8   6   -0.02    0.15
  -3  -8   6   -0.25    0.12
  -3  -8   6   -0.13    0.13
   2   8  -6    6.72    0.81
  -2  -8   6    5.53    0.58
  -2  -8   6    5.80    0.54
  -2  -8   6    6.75    0.62
   1   8  -6   -0.10    0.21
  -1  -8   6   -0.05    0.13
  -1  -8   6   -0.18    0.11
  -1  -8   6    0.18    0.14
   0   8  -6    0.34    0.30
   0  -8   6    0.08    0.14
   0  -8   6    0.16    0.16
   0  -8   6    0.48    0.24
   0  -8   6    0.07    0.12
  -1   8  -6    0.16    0.27
   1  -8   6   -0.04    0.21
   1  -8   6   -0.02    0.17
   1  -8   6    0.12    0.15
   1  -8   6    0.15    0.16
  -2   8  -6    0.24    0.14
   2  -8   6   -0.01    0.12
   2  -8   6    0.08    0.21
  -3   8  -6    0.72    0.24
  -3   8  -6    1.04    0.25
   3  -8   6    0.83    0.24
   3  -8   6    0.86    0.33
  -4   8  -6   -0.03    0.16
  -4   8  -6   -0.22    0.15
   4  -8   6    0.18    0.20
  -5   8  -6    0.53    0.27
  -5   8  -6    0.29    0.20
  -5   8  -6    0.30    0.24
   5  -8   6    0.51    0.34
   5  -8   6   -0.19    0.13
  -6   8  -6   27.11    1.38
  -6   8  -6   26.34    1.34
   6  -8   6   27.31    1.24
   6  -8   6   26.55    1.51
   7  -8   6   -0.22    0.20
   6   7  -6    0.20    0.21
   5   7  -6    0.23    0.22
   5   7  -6    0.08    0.16
  -5  -7   6   -0.10    0.14
  -5  -7   6   -0.12    0.20
   4   7  -6    0.50    0.26
  -4  -7   6    0.34    0.18
  -4  -7   6    0.35    0.17
   3   7  -6    0.23    0.23
  -3  -7   6    0.13    0.12
  -3  -7   6    0.15    0.14
   2   7  -6   -0.07    0.16
  -2  -7   6   -0.01    0.11
  -2  -7   6    0.23    0.23
  -2  -7   6    0.30    0.17
  -2  -7   6   -0.06    0.11
   1   7  -6    4.68    0.62
  -1  -7   6    3.84    0.40
  -1  -7   6    2.97    0.38
  -1  -7   6    3.74    0.43
  -1  -7   6    2.61    0.46
   0   7  -6    3.48    0.56
   0  -7   6    3.04    0.40
   0  -7   6    4.04    0.58
   0  -7   6    4.21    0.47
   0  -7   6    3.73    0.43
   0  -7   6    3.53    0.39
  -1   7  -6    0.50    0.24
  -1   7  -6    0.79    0.15
   1  -7   6    0.49    0.20
   1  -7   6    1.17    0.27
   1  -7   6    1.11    0.24
   1  -7   6    0.47    0.25
  -2   7  -6    0.06    0.11
  -2   7  -6    0.18    0.13
   2  -7   6    0.01    0.13
   2  -7   6   -0.02    0.12
   2  -7   6    0.11    0.19
  -3   7  -6    0.70    0.19
  -3   7  -6    0.74    0.23
  -3   7  -6    0.83    0.23
   3  -7   6    0.49    0.24
   3  -7   6    0.75    0.30
   3  -7   6    0.44    0.18
  -4   7  -6    0.69    0.24
  -4   7  -6    0.70    0.27
  -4   7  -6    0.88    0.23
  -4   7  -6    0.76    0.26
   4  -7   6    0.69    0.23
   4  -7   6    1.66    0.46
   4  -7   6    1.13    0.37
  -5   7  -6    0.02    0.16
  -5   7  -6    0.25    0.16
  -5   7  -6    0.28    0.23
  -5   7  -6   -0.11    0.19
   5  -7   6    0.03    0.25
   5  -7   6    0.29    0.18
   5  -7   6   -0.03    0.23
  -6   7  -6    0.12    0.25
  -6   7  -6    0.21    0.28
  -6   7  -6    0.39    0.22
   6  -7   6    0.12    0.16
   6  -7   6    0.07    0.25
  -7   7  -6    0.80    0.29
  -7   7  -6    0.32    0.34
  -7   7  -6    0.71    0.35
   7  -7   6    0.96    0.30
   7  -7   6    0.11    0.32
   7   6  -6    2.85    0.47
   6   6  -6    1.00    0.24
   6   6  -6    0.51    0.21
   5   6  -6    0.09    0.16
   5   6  -6   -0.06    0.13
  -5  -6   6   -0.09    0.12
   4   6  -6    0.04    0.15
  -4  -6   6    0.05    0.11
  -4  -6   6    0.19    0.19
  -4  -6   6    0.08    0.12
   3   6  -6    1.16    0.29
  -3  -6   6    2.18    0.28
  -3  -6   6    1.41    0.34
  -3  -6   6    1.46    0.24
   2   6  -6    0.18    0.18
  -2  -6   6    0.16    0.11
  -2  -6   6    0.22    0.11
  -2  -6   6    0.44    0.20
   1   6  -6    1.32    0.33
  -1  -6   6    1.23    0.20
  -1  -6   6    1.82    0.35
  -1  -6   6    1.79    0.27
  -1  -6   6    1.36    0.24
   0   6  -6   30.46    1.29
   0  -6   6   33.98    1.01
   0  -6   6   33.77    1.09
   0  -6   6   32.48    1.08
   0  -6   6   32.67    1.29
   0  -6   6   31.45    1.04
  -1   6  -6   16.57    0.60
  -1   6  -6   17.38    0.59
  -1   6  -6   15.83    0.59
  -1   6  -6   17.10    0.94
   1  -6   6   16.19    0.89
   1  -6   6   15.94    0.72
   1  -6   6   15.19    0.87
   1  -6   6   17.36    0.70
   1  -6   6   18.07    0.73
  -2   6  -6    0.17    0.19
  -2   6  -6   -0.10    0.09
  -2   6  -6    0.04    0.10
  -2   6  -6    0.18    0.15
  -2   6  -6    0.21    0.13
   2  -6   6   -0.02    0.17
   2  -6   6   -0.04    0.11
   2  -6   6    0.15    0.18
   2  -6   6    0.11    0.12
  -3   6  -6    0.58    0.20
  -3   6  -6    0.53    0.21
  -3   6  -6    0.85    0.20
  -3   6  -6    0.92    0.23
   3  -6   6    0.68    0.19
   3  -6   6    0.39    0.19
   3  -6   6    0.55    0.25
  -4   6  -6    0.62    0.19
  -4   6  -6    0.26    0.19
  -4   6  -6    0.68    0.25
  -4   6  -6    0.32    0.18
   4  -6   6    0.27    0.22
   4  -6   6    0.17    0.20
   4  -6   6    0.29    0.17
  -5   6  -6    0.25    0.18
  -5   6  -6    0.03    0.16
  -5   6  -6    0.06    0.16
  -5   6  -6    0.04    0.14
   5  -6   6    0.29    0.19
   5  -6   6    0.06    0.13
   5  -6   6    0.12    0.20
  -6   6  -6    0.21    0.18
  -6   6  -6    0.34    0.24
  -6   6  -6    0.31    0.19
  -6   6  -6    0.03    0.22
   6  -6   6    0.18    0.18
   6  -6   6    0.12    0.23
  -7   6  -6    0.18    0.28
  -7   6  -6    0.50    0.30
  -7   6  -6    0.37    0.23
   7  -6   6    0.21    0.23
   7  -6   6    1.18    0.37
   8  -6   6    8.36    0.78
   7   5  -6    0.46    0.24
   6   5  -6    1.73    0.32
   6   5  -6    2.26    0.26
   5   5  -6    0.20    0.15
   5   5  -6    0.03    0.13
  -5  -5   6    0.15    0.11
  -5  -5   6   -0.01    0.18
   4   5  -6    0.92    0.21
   4   5  -6    0.26    0.16
  -4  -5   6    0.72    0.16
  -4  -5   6    0.71    0.26
  -4  -5   6    0.79    0.12
   3   5  -6    0.11    0.15
  -3  -5   6   -0.01    0.12
  -3  -5   6    0.09    0.08
  -3  -5   6    0.18    0.10
   2   5  -6   -0.04    0.11
  -2  -5   6    0.04    0.08
  -2  -5   6   -0.06    0.06
  -2  -5   6   -0.03    0.07
  -2  -5   6   -0.02    0.13
   1   5  -6    2.95    0.19
   1   5  -6    3.02    0.43
  -1  -5   6    2.96    0.32
  -1  -5   6    2.69    0.27
  -1  -5   6    3.68    0.35
  -1  -5   6    3.73    0.47
   0   5  -6    1.71    0.16
   0   5  -6    1.57    0.18
   0   5  -6    1.83    0.13
   0   5  -6    1.34    0.28
   0  -5   6    1.30    0.27
   0  -5   6    1.51    0.29
   0  -5   6    1.87    0.24
   0  -5   6    1.73    0.25
   0  -5   6    2.37    0.30
  -1   5  -6    1.44    0.25
  -1   5  -6    1.70    0.22
  -1   5  -6    1.42    0.29
  -1   5  -6    2.28    0.24
  -1   5  -6    1.77    0.21
   1  -5   6    1.62    0.32
   1  -5   6    1.41    0.23
   1  -5   6    2.36    0.39
   1  -5   6    1.63    0.24
   1  -5   6    1.59    0.23
  -2   5  -6  101.16    2.34
  -2   5  -6  100.71    2.29
  -2   5  -6  103.58    2.45
  -2   5  -6  108.03    2.70
  -2   5  -6  104.08    2.24
   2  -5   6  102.91    2.28
   2  -5   6  100.60    2.64
   2  -5   6  108.10    2.71
   2  -5   6  102.55    2.29
   2  -5   6  104.85    2.25
  -3   5  -6    0.34    0.17
  -3   5  -6    0.95    0.19
  -3   5  -6    0.54    0.16
  -3   5  -6    0.52    0.19
   3  -5   6    0.45    0.20
   3  -5   6    0.07    0.17
   3  -5   6    0.84    0.20
  -4   5  -6    3.10    0.37
  -4   5  -6    3.04    0.42
  -4   5  -6    3.42    0.35
  -4   5  -6    2.48    0.37
   4  -5   6    3.67    0.54
   4  -5   6    3.43    0.53
   4  -5   6    2.81    0.35
  -5   5  -6   -0.08    0.10
  -5   5  -6    0.09    0.17
  -5   5  -6   -0.01    0.16
  -5   5  -6    0.01    0.12
   5  -5   6    0.16    0.18
   5  -5   6   -0.04    0.11
   5  -5   6    0.06    0.17
  -6   5  -6    0.34    0.18
  -6   5  -6    0.03    0.18
  -6   5  -6   -0.14    0.19
  -6   5  -6    0.12    0.16
   6  -5   6    0.17    0.23
   6  -5   6   -0.08    0.10
   6  -5   6   -0.01    0.17
  -7   5  -6    0.32    0.23
  -7   5  -6    0.02    0.19
  -7   5  -6    0.27    0.29
   7  -5   6    0.36    0.24
   7  -5   6    0.20    0.20
   8  -5   6    0.63    0.30
   8  -5   6    0.34    0.23
   8   4  -6    0.25    0.21
   7   4  -6    0.37    0.19
   6   4  -6    1.00    0.24
   6   4  -6    1.53    0.16
   5   4  -6   46.77    1.22
   5   4  -6   45.97    1.35
  -5  -4   6   47.00    1.19
   4   4  -6    2.20    0.28
   4   4  -6    2.14    0.28
  -4  -4   6    2.94    0.27
  -4  -4   6    2.70    0.40
   3   4  -6    2.06    0.25
   3   4  -6    2.89    0.33
  -3  -4   6    2.94    0.22
  -3  -4   6    2.44    0.38
  -3  -4   6    2.74    0.15
   2   4  -6    3.24    0.21
   2   4  -6    3.18    0.23
   2   4  -6    4.18    0.42
  -2  -4   6    2.83    0.21
  -2  -4   6    3.98    0.45
  -2  -4   6    3.50    0.21
  -2  -4   6    2.98    0.22
   1   4  -6    0.80    0.21
   1   4  -6    0.80    0.24
   1   4  -6    0.95    0.13
   1   4  -6    1.06    0.16
   1   4  -6    0.99    0.13
  -1  -4   6    1.02    0.23
  -1  -4   6    1.00    0.15
  -1  -4   6    0.26    0.14
  -1  -4   6    0.85    0.16
  -1  -4   6    1.40    0.20
   0   4  -6    0.48    0.09
   0   4  -6    0.39    0.10
   0   4  -6    0.48    0.09
   0   4  -6    0.38    0.17
   0   4  -6    0.53    0.08
   0   4  -6    0.72    0.15
   0  -4   6    0.45    0.18
   0  -4   6    0.51    0.12
   0  -4   6    0.33    0.15
   0  -4   6    0.56    0.14
   0  -4   6    0.44    0.13
  -1   4  -6   35.26    1.21
  -1   4  -6   36.70    0.96
  -1   4  -6   38.06    0.95
  -1   4  -6   35.89    1.00
  -1   4  -6   38.22    1.09
   1  -4   6   38.02    1.24
   1  -4   6   36.19    0.98
   1  -4   6   37.70    1.04
   1  -4   6   37.35    1.25
  -2   4  -6    3.28    0.40
  -2   4  -6    3.99    0.39
  -2   4  -6    4.11    0.29
  -2   4  -6    4.31    0.28
  -2   4  -6    3.77    0.37
   2  -4   6    3.66    0.25
   2  -4   6    3.90    0.45
   2  -4   6    4.12    0.47
   2  -4   6    3.61    0.26
   2  -4   6    3.82    0.34
  -3   4  -6    0.70    0.18
  -3   4  -6    1.00    0.22
  -3   4  -6    0.82    0.18
  -3   4  -6    0.91    0.17
   3  -4   6    0.88    0.25
   3  -4   6    0.81    0.18
   3  -4   6    0.91    0.23
  -4   4  -6    0.00    0.12
  -4   4  -6    0.01    0.10
  -4   4  -6   -0.07    0.12
  -4   4  -6    0.09    0.11
   4  -4   6    0.09    0.14
   4  -4   6   -0.08    0.13
   4  -4   6    0.05    0.10
  -5   4  -6    0.57    0.20
  -5   4  -6    0.71    0.18
  -5   4  -6    1.31    0.33
  -5   4  -6    0.55    0.18
   5  -4   6    0.91    0.25
   5  -4   6    0.89    0.21
   5  -4   6    0.63    0.27
  -6   4  -6    0.00    0.15
  -6   4  -6    0.09    0.12
  -6   4  -6    0.24    0.24
   6  -4   6   -0.02    0.20
   6  -4   6    0.37    0.20
   6  -4   6    0.04    0.13
  -7   4  -6    0.03    0.16
  -7   4  -6    0.07    0.17
  -7   4  -6   -0.09    0.21
   7  -4   6    0.08    0.15
   7  -4   6    0.03    0.18
  -8   4  -6    0.34    0.29
  -8   4  -6    0.01    0.20
   8  -4   6   -0.09    0.18
   8  -4   6    0.16    0.19
   8   3  -6   -0.34    0.16
   7   3  -6   -0.01    0.14
   6   3  -6    0.11    0.13
   5   3  -6    3.85    0.40
   5   3  -6    4.33    0.48
   5   3  -6    3.27    0.24
   5   3  -6    3.23    0.30
  -5  -3   6    3.69    0.24
   4   3  -6   86.08    2.06
   4   3  -6   82.21    1.92
   4   3  -6   80.06    1.91
   4   3  -6   82.08    1.86
  -4  -3   6   84.96    1.72
   3   3  -6    0.01    0.09
   3   3  -6    0.09    0.08
   3   3  -6   -0.03    0.08
   3   3  -6    0.03    0.07
  -3  -3   6    0.03    0.06
  -3  -3   6    0.05    0.06
  -3  -3   6   -0.02    0.08
  -3  -3   6    0.09    0.08
   2   3  -6    1.74    0.26
   2   3  -6    1.83    0.21
   2   3  -6    1.33    0.21
   2   3  -6    1.70    0.20
  -2  -3   6    1.56    0.16
  -2  -3   6    1.90    0.12
  -2  -3   6    2.12    0.22
  -2  -3   6    1.91    0.12
  -2  -3   6    1.45    0.25
  -2  -3   6    1.65    0.16
   1   3  -6    1.88    0.28
   1   3  -6    1.68    0.18
   1   3  -6    1.38    0.16
   1   3  -6    1.85    0.19
   1   3  -6    1.87    0.27
  -1  -3   6    1.81    0.17
  -1  -3   6    1.23    0.22
  -1  -3   6    1.82    0.19
  -1  -3   6    1.56    0.23
  -1  -3   6    1.54    0.18
   0   3  -6    6.62    0.25
   0   3  -6    6.97    0.34
   0   3  -6    6.34    0.26
   0   3  -6    6.39    0.31
   0   3  -6    6.42    0.41
   0  -3   6    6.21    0.33
   0  -3   6    6.20    0.41
   0  -3   6    7.27    0.43
   0  -3   6    6.70    0.29
   0  -3   6    6.30    0.34
  -1   3  -6   -0.03    0.06
  -1   3  -6   -0.02    0.10
  -1   3  -6    0.06    0.08
  -1   3  -6   -0.02    0.06
  -1   3  -6   -0.04    0.06
   1  -3   6    0.02    0.07
   1  -3   6    0.04    0.08
   1  -3   6   -0.01    0.06
   1  -3   6   -0.02    0.06
   1  -3   6   -0.02    0.08
  -2   3  -6    5.40    0.41
  -2   3  -6    5.83    0.36
  -2   3  -6    5.46    0.36
  -2   3  -6    5.66    0.32
  -2   3  -6    6.19    0.31
   2  -3   6    5.76    0.33
   2  -3   6    5.73    0.28
   2  -3   6    4.98    0.50
   2  -3   6    6.14    0.42
   2  -3   6    5.87    0.27
  -3   3  -6    4.83    0.46
  -3   3  -6    4.92    0.30
  -3   3  -6    5.29    0.30
  -3   3  -6    4.68    0.45
  -3   3  -6    5.56    0.37
   3  -3   6    4.51    0.31
   3  -3   6    5.64    0.42
   3  -3   6    4.49    0.53
  -4   3  -6   29.95    0.91
  -4   3  -6   30.77    1.14
  -4   3  -6   31.62    1.02
  -4   3  -6   30.64    0.87
   4  -3   6   30.86    1.09
   4  -3   6   31.48    1.25
   4  -3   6   30.86    0.97
  -5   3  -6    0.58    0.22
  -5   3  -6    0.85    0.18
  -5   3  -6    0.54    0.19
  -5   3  -6    0.97    0.19
   5  -3   6    0.37    0.15
   5  -3   6    0.77    0.22
   5  -3   6    1.20    0.31
  -6   3  -6    0.57    0.24
  -6   3  -6    0.84    0.20
  -6   3  -6    0.37    0.17
   6  -3   6    0.77    0.23
   6  -3   6    0.61    0.27
   6  -3   6    0.62    0.19
  -7   3  -6    0.02    0.16
  -7   3  -6    0.05    0.16
  -7   3  -6    0.12    0.20
   7  -3   6    0.25    0.17
   7  -3   6    0.11    0.13
  -8   3  -6    0.05    0.23
  -8   3  -6   -0.20    0.17
   8  -3   6    0.21    0.19
   8  -3   6   -0.01    0.16
   8   2  -6    0.27    0.22
   7   2  -6    0.01    0.14
   6   2  -6   -0.09    0.10
   5   2  -6    3.78    0.37
   5   2  -6    5.05    0.25
   5   2  -6    4.29    0.26
   5   2  -6    4.83    0.26
   5   2  -6    5.54    0.57
  -5  -2   6    4.87    0.20
  -5  -2   6    5.30    0.27
   4   2  -6    0.61    0.19
   4   2  -6    0.39    0.12
   4   2  -6    0.26    0.10
   4   2  -6    0.31    0.10
  -4  -2   6    0.29    0.08
  -4  -2   6    0.39    0.07
   3   2  -6   15.78    0.69
   3   2  -6   15.61    0.58
   3   2  -6   15.78    0.57
   3   2  -6   16.85    0.59
   3   2  -6   15.70    0.57
   3   2  -6   15.95    0.66
  -3  -2   6   16.16    0.47
  -3  -2   6   16.23    0.43
  -3  -2   6   16.46    0.65
  -3  -2   6   16.00    0.61
   2   2  -6    9.67    0.47
   2   2  -6   10.48    0.39
   2   2  -6   10.71    0.46
   2   2  -6   10.63    0.41
   2   2  -6   10.21    0.48
   2   2  -6    9.98    0.46
  -2  -2   6   10.35    0.27
  -2  -2   6   10.77    0.42
  -2  -2   6   10.04    0.30
  -2  -2   6   10.68    0.49
  -2  -2   6   10.26    0.24
  -2  -2   6   10.39    0.38
  -2  -2   6   10.63    0.30
   1   2  -6    0.05    0.08
   1   2  -6    0.07    0.06
   1   2  -6    0.26    0.11
   1   2  -6    0.04    0.06
   1   2  -6    0.07    0.05
   1   2  -6    0.29    0.08
  -1  -2   6    0.12    0.06
  -1  -2   6    0.30    0.11
  -1  -2   6    0.17    0.05
  -1  -2   6    0.12    0.06
  -1  -2   6    0.25    0.10
   0   2  -6    0.25    0.08
   0   2  -6    0.30    0.07
   0   2  -6    0.16    0.10
   0   2  -6    0.12    0.06
   0   2  -6    0.24    0.06
   0  -2   6    0.21    0.06
   0  -2   6    0.01    0.07
   0  -2   6    0.23    0.11
   0  -2   6    0.12    0.07
  -1   2  -6   12.38    0.47
  -1   2  -6   12.62    0.42
  -1   2  -6   12.61    0.49
  -1   2  -6   12.33    0.42
  -1   2  -6   12.45    0.55
   1  -2   6   10.69    0.54
   1  -2   6   11.95    0.54
   1  -2   6   12.32    0.44
   1  -2   6   11.57    0.40
   1  -2   6   12.04    0.43
  -2   2  -6    6.00    0.37
  -2   2  -6    7.10    0.43
  -2   2  -6    6.01    0.30
  -2   2  -6    6.45    0.35
  -2   2  -6    6.78    0.31
   2  -2   6    7.09    0.36
   2  -2   6    6.26    0.22
   2  -2   6    6.31    0.32
   2  -2   6    6.19    0.25
   2  -2   6    6.30    0.44
   2  -2   6    6.59    0.41
  -3   2  -6    4.70    0.36
  -3   2  -6    6.02    0.36
  -3   2  -6    6.01    0.30
  -3   2  -6    6.25    0.41
  -3   2  -6    5.41    0.30
   3  -2   6    5.21    0.52
   3  -2   6    5.06    0.48
   3  -2   6    5.55    0.33
   3  -2   6    5.72    0.39
  -4   2  -6    3.67    0.26
  -4   2  -6    4.33    0.26
  -4   2  -6    3.67    0.43
  -4   2  -6    4.12    0.32
   4  -2   6    4.39    0.52
   4  -2   6    4.56    0.33
   4  -2   6    4.60    0.46
  -5   2  -6    0.75    0.15
  -5   2  -6    0.36    0.18
  -5   2  -6    0.49    0.16
   5  -2   6    0.64    0.23
   5  -2   6    0.65    0.18
   5  -2   6    0.34    0.14
  -6   2  -6    0.68    0.19
  -6   2  -6    0.82    0.18
  -6   2  -6    1.08    0.30
   6  -2   6    0.38    0.16
   6  -2   6    0.61    0.19
  -7   2  -6    0.30    0.21
  -7   2  -6    0.50    0.19
  -7   2  -6    0.27    0.17
   7  -2   6    0.39    0.19
   7  -2   6    0.32    0.16
  -8   2  -6    0.06    0.17
  -8   2  -6   -0.22    0.20
   8  -2   6   -0.07    0.13
   8  -2   6   -0.02    0.16
   8   1  -6   -0.06    0.16
   7   1  -6    0.15    0.15
   6   1  -6    5.84    0.68
   6   1  -6    4.03    0.42
   5   1  -6    0.71    0.24
   5   1  -6    0.17    0.12
   5   1  -6    0.29    0.09
   5   1  -6    0.39    0.10
  -5  -1   6    0.23    0.08
  -5  -1   6    0.16    0.06
   4   1  -6    5.34    0.29
   4   1  -6    4.30    0.30
   4   1  -6    4.76    0.52
   4   1  -6    4.18    0.26
   4   1  -6    4.06    0.45
   4   1  -6    4.94    0.39
   4   1  -6    4.74    0.21
  -4  -1   6    4.59    0.21
  -4  -1   6    4.73    0.20
   3   1  -6    0.18    0.08
   3   1  -6    0.14    0.10
   3   1  -6    0.06    0.07
   3   1  -6    0.14    0.08
   3   1  -6    0.12    0.08
   3   1  -6    0.07    0.09
  -3  -1   6   -0.03    0.05
  -3  -1   6    0.03    0.05
  -3  -1   6    0.14    0.04
   2   1  -6   93.56    2.05
   2   1  -6   93.33    2.07
   2   1  -6   95.09    2.07
   2   1  -6   94.22    2.08
   2   1  -6   93.57    1.93
   2   1  -6   92.43    2.26
  -2  -1   6   92.90    1.72
  -2  -1   6   99.16    2.20
  -2  -1   6   94.41    1.90
  -2  -1   6   95.04    1.99
  -2  -1   6   94.36    1.81
  -2  -1   6   96.57    1.79
   1   1  -6   19.96    0.59
   1   1  -6   20.99    0.57
   1   1  -6   21.13    0.70
   1   1  -6   20.43    0.68
   1   1  -6   20.20    0.68
   1   1  -6   21.36    0.65
   1   1  -6   20.56    0.57
  -1  -1   6   21.36    0.65
  -1  -1   6   20.23    0.58
  -1  -1   6   20.52    0.57
  -1  -1   6   21.47    0.69
   0   1  -6   -0.03    0.06
   0   1  -6    0.05    0.05
   0   1  -6    0.00    0.04
   0   1  -6    0.03    0.04
   0   1  -6    0.02    0.05
   0   1  -6    0.00    0.04
   0   1  -6    0.02    0.07
   0  -1   6   -0.05    0.05
   0  -1   6    0.07    0.07
   0  -1   6    0.01    0.03
   0  -1   6   -0.01    0.05
   0  -1   6   -0.01    0.06
  -1   1  -6    3.98    0.21
  -1   1  -6    3.94    0.15
  -1   1  -6    3.80    0.30
  -1   1  -6    3.75    0.25
  -1   1  -6    3.68    0.23
  -1   1  -6    3.78    0.21
   1  -1   6    4.00    0.26
   1  -1   6    3.83    0.37
   1  -1   6    3.88    0.20
   1  -1   6    3.75    0.29
   1  -1   6    4.12    0.22
   1  -1   6    3.55    0.20
  -2   1  -6    0.72    0.12
  -2   1  -6    0.50    0.10
  -2   1  -6    0.60    0.05
  -2   1  -6    0.54    0.17
  -2   1  -6    0.63    0.15
  -2   1  -6    0.25    0.09
   2  -1   6    0.48    0.10
   2  -1   6    0.54    0.06
   2  -1   6    0.78    0.17
   2  -1   6    0.57    0.13
   2  -1   6    0.58    0.18
  -3   1  -6    2.13    0.28
  -3   1  -6    1.37    0.19
  -3   1  -6    1.74    0.18
  -3   1  -6    1.45    0.23
  -3   1  -6    0.93    0.14
   3  -1   6    2.05    0.33
   3  -1   6    1.58    0.19
   3  -1   6    1.61    0.24
   3  -1   6    1.55    0.24
  -4   1  -6    0.18    0.08
  -4   1  -6    0.12    0.08
  -4   1  -6    0.28    0.12
  -4   1  -6    0.43    0.16
   4  -1   6    0.26    0.12
   4  -1   6    0.30    0.12
   4  -1   6    0.21    0.15
  -5   1  -6    0.80    0.16
  -5   1  -6    0.96    0.26
  -5   1  -6    0.92    0.14
   5  -1   6    0.41    0.16
   5  -1   6    0.95    0.20
  -6   1  -6    4.02    0.53
  -6   1  -6    3.22    0.33
  -6   1  -6    3.44    0.25
   6  -1   6    3.96    0.43
   6  -1   6    2.70    0.34
  -7   1  -6    0.22    0.16
  -7   1  -6    0.00    0.19
   7  -1   6    0.17    0.15
   7  -1   6    0.08    0.13
  -8   1  -6   -0.22    0.22
  -8   1  -6   -0.09    0.13
   8  -1   6   -0.02    0.17
   8  -1   6   -0.03    0.14
  -9   0   6    0.46    0.17
   8   0  -6    2.17    0.39
   7   0  -6    0.31    0.19
  -7   0   6    0.44    0.11
   6   0  -6   -0.11    0.18
   6   0  -6   -0.01    0.10
   6   0  -6    0.01    0.08
   6   0  -6    0.08    0.07
   5   0  -6    1.15    0.27
   5   0  -6    1.39    0.18
   5   0  -6    1.09    0.28
   5   0  -6    1.26    0.19
   5   0  -6    1.26    0.23
  -5   0   6    1.44    0.16
   4   0  -6    7.41    0.57
   4   0  -6    7.40    0.40
   4   0  -6    6.97    0.35
   4   0  -6    8.24    0.55
   4   0  -6    8.07    0.53
   4   0  -6    7.57    0.26
   4   0  -6    6.58    0.37
  -4   0   6    7.39    0.31
   3   0  -6    0.23    0.12
   3   0  -6    0.08    0.09
   3   0  -6   -0.01    0.06
   3   0  -6    0.01    0.09
   3   0  -6    0.01    0.03
   3   0  -6    0.00    0.07
   3   0  -6   -0.02    0.06
  -3   0   6    0.01    0.05
  -3   0   6   -0.02    0.05
   2   0  -6   19.81    0.70
   2   0  -6   19.40    0.71
   2   0  -6   19.88    0.60
   2   0  -6   19.25    0.66
   2   0  -6   19.95    0.78
   2   0  -6   21.17    0.69
  -2   0   6   20.47    0.51
  -2   0   6   19.98    0.67
  -2   0   6   20.70    0.61
  -2   0   6   20.47    0.59
  -2   0   6   20.68    0.51
  -2   0   6   20.83    0.54
  -2   0   6   19.96    0.53
  -2   0   6   19.99    0.72
   1   0  -6   18.51    0.62
   1   0  -6   18.04    0.64
   1   0  -6   18.68    0.43
   1   0  -6   19.19    0.57
   1   0  -6   18.80    0.53
   1   0  -6   19.17    0.47
   1   0  -6   18.81    0.61
   1   0  -6   18.61    0.67
   1   0  -6   18.63    0.54
  -1   0   6   18.47    0.55
  -1   0   6   17.64    0.54
  -1   0   6   18.67    0.66
  -1   0   6   18.08    0.59
  -1   0   6   18.51    0.54
   0   0  -6   17.83    0.55
   0   0  -6   18.37    0.65
   0   0  -6   17.61    0.57
   0   0  -6   17.81    0.48
   0   0  -6   17.96    0.50
   0   0  -6   17.55    0.46
   0   0   6   18.25    0.43
   0   0   6   17.71    0.65
   0   0   6   17.14    0.58
   0   0   6   18.35    0.53
   0   0   6   17.82    0.54
   0   0   6   17.63    0.59
  -1   0  -6   -0.01    0.04
  -1   0  -6    0.05    0.07
  -1   0  -6    0.03    0.06
  -1   0  -6   -0.01    0.05
  -1   0  -6   -0.05    0.04
   1   0   6    0.11    0.07
   1   0   6    0.03    0.04
   1   0   6   -0.09    0.04
   1   0   6    0.01    0.04
   1   0   6   -0.01    0.07
   1   0   6    0.09    0.08
  -2   0  -6    4.23    0.31
  -2   0  -6    4.27    0.30
  -2   0  -6    3.96    0.21
  -2   0  -6    4.06    0.25
   2   0   6    3.89    0.38
   2   0   6    3.46    0.22
   2   0   6    3.72    0.24
   2   0   6    4.55    0.41
   2   0   6    3.47    0.36
  -3   0  -6    0.40    0.09
  -3   0  -6    0.50    0.12
  -3   0  -6    0.69    0.17
  -3   0  -6    0.62    0.11
  -3   0  -6    0.60    0.15
   3   0   6    0.62    0.14
   3   0   6    0.79    0.19
   3   0   6    0.72    0.17
  -4   0  -6    4.88    0.23
  -4   0  -6    4.73    0.46
  -4   0  -6    4.63    0.30
   4   0   6    5.04    0.38
   4   0   6    4.56    0.32
  -5   0  -6    0.25    0.09
  -5   0  -6    0.41    0.13
  -5   0  -6    0.32    0.16
   5   0   6    0.53    0.18
   5   0   6    0.41    0.15
  -6   0  -6    4.60    0.34
  -6   0  -6    4.90    0.56
   6   0   6    4.54    0.46
   6   0   6    5.77    0.43
  -7   0  -6   -0.04    0.12
  -7   0  -6    0.27    0.21
   7   0   6   -0.13    0.12
   7   0   6    0.14    0.15
  -8   0  -6    1.27    0.40
  -8   0  -6    0.60    0.20
   8   0   6    1.73    0.28
   8   0   6    0.78    0.25
  -9   1   6   -0.03    0.16
  -8   1   6    1.57    0.24
   7  -1  -6    0.32    0.12
   7  -1  -6   -0.09    0.14
   7  -1  -6   -0.03    0.20
  -7   1   6    0.04    0.11
   6  -1  -6   -0.09    0.08
   6  -1  -6   -0.08    0.18
   6  -1  -6   -0.10    0.09
   6  -1  -6    0.02    0.17
  -6   1   6    0.03    0.09
   5  -1  -6    7.95    0.64
   5  -1  -6    8.26    0.48
   5  -1  -6    8.69    0.47
   5  -1  -6    7.75    0.73
  -5   1   6    9.36    0.40
   4  -1  -6    0.19    0.11
   4  -1  -6    0.22    0.13
   4  -1  -6    0.29    0.13
   4  -1  -6    0.28    0.15
   4  -1  -6    0.05    0.13
   4  -1  -6    0.13    0.11
   4  -1  -6    0.33    0.07
  -4   1   6    0.43    0.11
  -4   1   6    0.26    0.07
  -4   1   6    0.12    0.09
  -4   1   6    0.33    0.07
   3  -1  -6    1.12    0.23
   3  -1  -6    0.94    0.23
   3  -1  -6    1.08    0.10
   3  -1  -6    1.48    0.21
   3  -1  -6    0.80    0.17
   3  -1  -6    1.18    0.23
   3  -1  -6    1.05    0.19
  -3   1   6    1.18    0.13
  -3   1   6    1.15    0.13
  -3   1   6    1.49    0.19
  -3   1   6    1.50    0.19
   2  -1  -6   -0.04    0.07
   2  -1  -6    0.20    0.12
   2  -1  -6    0.06    0.08
   2  -1  -6    0.02    0.06
   2  -1  -6   -0.01    0.07
   2  -1  -6    0.09    0.07
   2  -1  -6    0.00    0.03
   2  -1  -6   -0.01    0.07
  -2   1   6   -0.02    0.05
  -2   1   6    0.05    0.06
  -2   1   6    0.03    0.07
  -2   1   6    0.04    0.07
  -2   1   6    0.04    0.05
   1  -1  -6   25.13    0.63
   1  -1  -6   25.17    0.61
   1  -1  -6   25.78    0.80
   1  -1  -6   24.27    0.77
   1  -1  -6   24.39    0.53
   1  -1  -6   25.27    0.83
   1  -1  -6   24.94    0.73
   1  -1  -6   23.70    0.85
   1  -1  -6   24.31    0.64
   1  -1  -6   25.17    0.67
  -1   1   6   25.99    0.69
  -1   1   6   24.38    0.75
  -1   1   6   25.23    0.83
  -1   1   6   25.00    0.69
   0  -1  -6    0.07    0.07
   0  -1  -6    0.08    0.07
   0  -1  -6    0.15    0.06
   0  -1  -6    0.02    0.09
   0  -1  -6    0.13    0.05
   0  -1  -6    0.00    0.05
   0  -1  -6    0.12    0.08
   0  -1  -6    0.06    0.06
   0   1   6    0.12    0.07
   0   1   6    0.15    0.05
   0   1   6    0.07    0.08
   0   1   6    0.29    0.08
   0   1   6    0.22    0.10
  -1  -1  -6    0.31    0.09
  -1  -1  -6    0.41    0.09
  -1  -1  -6    0.42    0.09
  -1  -1  -6    0.33    0.11
  -1  -1  -6    0.32    0.09
  -1  -1  -6    0.30    0.12
   1   1   6    0.41    0.09
   1   1   6    0.26    0.13
   1   1   6    0.49    0.10
   1   1   6    0.35    0.08
   1   1   6    0.40    0.11
  -2  -1  -6    0.95    0.13
  -2  -1  -6    0.71    0.18
  -2  -1  -6    0.81    0.15
  -2  -1  -6    0.78    0.14
  -2  -1  -6    1.02    0.14
   2   1   6    0.99    0.20
   2   1   6    0.82    0.15
   2   1   6    0.96    0.21
   2   1   6    0.83    0.13
  -3  -1  -6    0.92    0.13
  -3  -1  -6    1.28    0.19
  -3  -1  -6    0.53    0.09
  -3  -1  -6    1.04    0.20
   3   1   6    1.04    0.21
   3   1   6    1.36    0.20
  -4  -1  -6    0.20    0.08
  -4  -1  -6    0.18    0.09
  -4  -1  -6    0.32    0.13
   4   1   6    0.07    0.09
   4   1   6    0.13    0.11
  -5  -1  -6    0.60    0.19
  -5  -1  -6    0.36    0.10
  -5  -1  -6    0.39    0.13
   5   1   6    0.55    0.16
   5   1   6    0.94    0.21
  -6  -1  -6    0.15    0.16
  -6  -1  -6    0.10    0.12
   6   1   6    0.04    0.13
   6   1   6    0.14    0.13
  -7  -1  -6   -0.11    0.17
  -7  -1  -6    0.06    0.13
   7   1   6    0.23    0.15
   7   1   6    0.38    0.18
  -8  -1  -6    5.17    0.52
   8   1   6    4.67    0.44
   8   1   6    5.47    0.58
   8  -2  -6    2.00    0.26
  -8   2   6    2.07    0.31
   7  -2  -6   -0.05    0.12
   7  -2  -6   -0.16    0.21
  -7   2   6    0.15    0.15
   6  -2  -6    7.31    0.49
   6  -2  -6    7.10    0.80
   6  -2  -6    6.84    0.77
  -6   2   6    7.07    0.43
   5  -2  -6    0.35    0.21
   5  -2  -6    0.04    0.10
   5  -2  -6    0.14    0.17
  -5   2   6    0.02    0.09
  -5   2   6    0.10    0.06
   4  -2  -6    4.00    0.22
   4  -2  -6    3.81    0.48
   4  -2  -6    3.72    0.39
   4  -2  -6    3.59    0.51
   4  -2  -6    3.59    0.47
  -4   2   6    3.35    0.20
  -4   2   6    4.13    0.30
  -4   2   6    3.59    0.21
   3  -2  -6    0.69    0.21
   3  -2  -6    0.55    0.16
   3  -2  -6    0.65    0.21
   3  -2  -6    1.00    0.12
   3  -2  -6    0.52    0.19
   3  -2  -6    0.79    0.19
  -3   2   6    0.74    0.16
  -3   2   6    0.68    0.16
  -3   2   6    0.84    0.14
  -3   2   6    0.47    0.15
  -3   2   6    0.69    0.13
   2  -2  -6    1.97    0.28
   2  -2  -6    2.29    0.15
   2  -2  -6    2.32    0.33
   2  -2  -6    2.81    0.29
   2  -2  -6    2.23    0.34
   2  -2  -6    2.25    0.29
   2  -2  -6    2.29    0.11
  -2   2   6    2.85    0.31
  -2   2   6    3.04    0.27
  -2   2   6    2.25    0.31
  -2   2   6    2.44    0.32
  -2   2   6    2.29    0.23
   1  -2  -6    0.05    0.06
   1  -2  -6    0.06    0.06
   1  -2  -6    0.16    0.10
   1  -2  -6    0.06    0.05
   1  -2  -6    0.29    0.11
   1  -2  -6    0.01    0.08
   1  -2  -6    0.21    0.11
   1  -2  -6    0.10    0.07
   1  -2  -6    0.20    0.13
  -1   2   6    0.16    0.08
  -1   2   6    0.17    0.10
  -1   2   6    0.04    0.08
  -1   2   6    0.02    0.07
   0  -2  -6    0.16    0.13
   0  -2  -6    0.05    0.08
   0  -2  -6    0.03    0.05
   0  -2  -6    0.13    0.08
   0  -2  -6    0.11    0.07
   0  -2  -6    0.02    0.05
   0  -2  -6    0.09    0.07
   0  -2  -6    0.17    0.10
   0   2   6    0.11    0.10
   0   2   6    0.09    0.07
   0   2   6    0.07    0.09
   0   2   6    0.13    0.08
  -1  -2  -6    8.69    0.51
  -1  -2  -6    9.06    0.39
  -1  -2  -6    8.25    0.34
  -1  -2  -6    8.16    0.35
  -1  -2  -6    8.40    0.42
  -1  -2  -6    8.70    0.33
   1   2   6    8.98    0.45
   1   2   6    8.11    0.27
   1   2   6    8.31    0.31
   1   2   6    7.88    0.33
   1   2   6    9.26    0.51
  -2  -2  -6    1.23    0.24
  -2  -2  -6    2.41    0.23
  -2  -2  -6    1.54    0.17
  -2  -2  -6    2.29    0.17
  -2  -2  -6    1.44    0.20
  -2  -2  -6    1.78    0.23
   2   2   6    2.08    0.22
   2   2   6    2.03    0.30
  -3  -2  -6    0.00    0.07
  -3  -2  -6   -0.04    0.06
  -3  -2  -6    0.01    0.06
  -3  -2  -6   -0.05    0.06
  -3  -2  -6   -0.01    0.06
   3   2   6    0.04    0.07
   3   2   6    0.01    0.09
  -4  -2  -6    2.31    0.27
  -4  -2  -6    2.66    0.33
  -4  -2  -6    2.65    0.20
  -4  -2  -6    2.67    0.29
   4   2   6    2.52    0.34
   4   2   6    2.39    0.28
  -5  -2  -6    0.19    0.11
  -5  -2  -6    0.16    0.08
  -5  -2  -6   -0.08    0.10
  -5  -2  -6    0.30    0.12
   5   2   6    0.14    0.12
   5   2   6    0.23    0.13
  -6  -2  -6    0.46    0.18
  -6  -2  -6    0.31    0.20
  -6  -2  -6    0.93    0.22
   6   2   6    0.57    0.20
   6   2   6    0.89    0.23
  -7  -2  -6   -0.02    0.11
  -7  -2  -6    0.07    0.16
   7   2   6    0.17    0.16
   7   2   6   -0.07    0.17
  -8  -2  -6    6.28    0.59
   8   2   6    4.95    0.58
   9  -3  -6    0.78    0.20
   8  -3  -6    0.07    0.16
  -8   3   6    0.05    0.20
   7  -3  -6    0.67    0.23
   7  -3  -6    0.76    0.34
   7  -3  -6    0.06    0.25
  -7   3   6    1.13    0.27
   6  -3  -6    2.20    0.37
   6  -3  -6    1.58    0.40
   6  -3  -6    2.42    0.48
  -6   3   6    1.83    0.32
  -6   3   6    2.63    0.26
   5  -3  -6   10.72    0.79
   5  -3  -6   11.41    0.79
   5  -3  -6   12.36    0.70
  -5   3   6   11.79    0.47
  -5   3   6   11.78    0.61
   4  -3  -6    2.60    0.24
   4  -3  -6    2.70    0.43
   4  -3  -6    2.11    0.34
   4  -3  -6    2.16    0.40
   4  -3  -6    3.43    0.55
  -4   3   6    2.86    0.28
  -4   3   6    2.68    0.27
  -4   3   6    1.93    0.30
   3  -3  -6    4.61    0.50
   3  -3  -6    6.24    0.59
   3  -3  -6    4.97    0.57
   3  -3  -6    4.00    0.45
   3  -3  -6    5.16    0.27
  -3   3   6    5.91    0.41
  -3   3   6    4.96    0.31
  -3   3   6    5.38    0.32
   2  -3  -6    0.01    0.10
   2  -3  -6    0.02    0.05
   2  -3  -6   -0.05    0.09
   2  -3  -6    0.00    0.09
   2  -3  -6    0.14    0.10
   2  -3  -6    0.00    0.04
   2  -3  -6   -0.02    0.04
   2  -3  -6    0.02    0.09
   2  -3  -6   -0.01    0.05
   2  -3  -6   -0.02    0.05
  -2   3   6    0.02    0.10
  -2   3   6    0.07    0.07
  -2   3   6   -0.07    0.06
  -2   3   6   -0.10    0.08
   1  -3  -6    1.28    0.15
   1  -3  -6    1.39    0.22
   1  -3  -6    1.22    0.24
   1  -3  -6    0.66    0.20
   1  -3  -6    1.05    0.21
   1  -3  -6    1.18    0.19
   1  -3  -6    1.35    0.24
   1  -3  -6    1.44    0.18
  -1   3   6    1.31    0.25
  -1   3   6    1.22    0.26
  -1   3   6    1.20    0.19
  -1   3   6    1.20    0.18
  -1   3   6    1.01    0.23
   0  -3  -6    0.57    0.16
   0  -3  -6    0.78    0.13
   0  -3  -6    0.32    0.12
   0  -3  -6    0.68    0.13
   0  -3  -6    0.59    0.18
   0  -3  -6    0.68    0.14
   0  -3  -6    0.48    0.15
   0   3   6    0.87    0.20
   0   3   6    0.70    0.13
   0   3   6    0.42    0.16
   0   3   6    0.66    0.20
   0   3   6    0.72    0.14
  -1  -3  -6    8.18    0.46
  -1  -3  -6    9.47    0.48
  -1  -3  -6    8.31    0.40
  -1  -3  -6    9.63    0.39
  -1  -3  -6    8.80    0.39
  -1  -3  -6    9.64    0.39
  -1  -3  -6   10.38    0.60
   1   3   6    9.71    0.51
   1   3   6    8.99    0.26
   1   3   6    8.86    0.32
   1   3   6    8.67    0.54
  -2  -3  -6   97.45    1.97
  -2  -3  -6   97.87    2.06
  -2  -3  -6   92.49    2.00
  -2  -3  -6   93.21    2.00
  -2  -3  -6   94.98    2.19
   2   3   6   90.83    2.00
   2   3   6   93.65    2.37
  -3  -3  -6    5.83    0.35
  -3  -3  -6    6.06    0.32
  -3  -3  -6    5.92    0.30
  -3  -3  -6    6.75    0.42
  -3  -3  -6    5.44    0.36
   3   3   6    6.38    0.38
   3   3   6    4.19    0.47
  -4  -3  -6    1.85    0.28
  -4  -3  -6    1.77    0.21
  -4  -3  -6    2.13    0.29
  -4  -3  -6    1.59    0.24
   4   3   6    1.32    0.23
   4   3   6    2.37    0.36
   4   3   6    1.35    0.29
  -5  -3  -6    0.19    0.09
  -5  -3  -6    0.08    0.11
  -5  -3  -6    0.14    0.13
   5   3   6    0.00    0.12
   5   3   6    0.05    0.13
   5   3   6    0.14    0.18
  -6  -3  -6    0.58    0.19
  -6  -3  -6    0.44    0.17
   6   3   6    0.23    0.16
   6   3   6    0.37    0.20
  -7  -3  -6   -0.10    0.12
  -7  -3  -6    0.13    0.18
   7   3   6    0.03    0.15
   7   3   6    0.23    0.19
   8  -4  -6    0.28    0.24
  -8   4   6    0.36    0.24
   7  -4  -6    0.97    0.30
   7  -4  -6    2.53    0.57
  -7   4   6    1.45    0.36
  -7   4   6    0.89    0.21
   6  -4  -6    1.34    0.46
   6  -4  -6    1.07    0.39
   6  -4  -6    2.06    0.40
  -6   4   6    1.55    0.32
  -6   4   6    1.72    0.27
   5  -4  -6    7.37    0.81
   5  -4  -6    6.89    0.68
   5  -4  -6    6.73    0.43
   5  -4  -6    7.86    0.80
  -5   4   6    7.46    0.42
  -5   4   6    7.44    0.55
  -5   4   6    7.32    0.43
   4  -4  -6    1.45    0.37
   4  -4  -6    1.77    0.39
   4  -4  -6    2.54    0.27
   4  -4  -6    1.35    0.32
   4  -4  -6    2.41    0.43
  -4   4   6    2.75    0.40
  -4   4   6    2.00    0.26
  -4   4   6    2.21    0.29
   3  -4  -6    1.93    0.37
   3  -4  -6    2.44    0.26
   3  -4  -6    2.29    0.38
   3  -4  -6    2.28    0.41
   3  -4  -6    2.42    0.39
  -3   4   6    2.66    0.30
  -3   4   6    2.28    0.34
  -3   4   6    2.08    0.26
   2  -4  -6    3.58    0.25
   2  -4  -6    3.12    0.29
   2  -4  -6    3.21    0.42
   2  -4  -6    2.66    0.40
   2  -4  -6    4.26    0.53
   2  -4  -6    2.51    0.24
   2  -4  -6    2.42    0.35
   2  -4  -6    2.44    0.23
  -2   4   6    2.99    0.31
  -2   4   6    2.66    0.41
  -2   4   6    3.16    0.35
  -2   4   6    3.71    0.44
   1  -4  -6    3.63    0.43
   1  -4  -6    4.65    0.54
   1  -4  -6    4.57    0.43
   1  -4  -6    4.47    0.30
   1  -4  -6    3.93    0.26
   1  -4  -6    3.38    0.39
   1  -4  -6    4.25    0.31
   1  -4  -6    3.73    0.43
  -1   4   6    4.81    0.49
  -1   4   6    4.09    0.29
  -1   4   6    4.51    0.32
  -1   4   6    5.08    0.57
   0  -4  -6    1.98    0.30
   0  -4  -6    1.72    0.24
   0  -4  -6    1.88    0.22
   0  -4  -6    1.62    0.27
   0  -4  -6    1.70    0.29
   0  -4  -6    1.29    0.20
   0  -4  -6    1.76    0.24
   0  -4  -6    1.22    0.29
   0   4   6    1.64    0.22
   0   4   6    1.01    0.26
   0   4   6    1.82    0.31
   0   4   6    1.65    0.20
  -1  -4  -6    0.10    0.08
  -1  -4  -6   -0.01    0.11
  -1  -4  -6    0.16    0.10
  -1  -4  -6    0.15    0.10
  -1  -4  -6    0.38    0.14
  -1  -4  -6    0.21    0.10
   1   4   6    0.07    0.13
  -2  -4  -6    2.06    0.26
  -2  -4  -6    2.39    0.27
  -2  -4  -6    2.07    0.25
  -2  -4  -6    2.05    0.28
  -2  -4  -6    1.90    0.22
  -2  -4  -6    2.53    0.33
   2   4   6    1.42    0.31
  -3  -4  -6    8.00    0.41
  -3  -4  -6    8.08    0.44
  -3  -4  -6    7.94    0.39
  -3  -4  -6    7.91    0.50
   3   4   6    8.58    0.45
   3   4   6    8.78    0.62
  -4  -4  -6    6.99    0.49
  -4  -4  -6    7.83    0.41
  -4  -4  -6    8.86    0.50
   4   4   6    7.22    0.47
   4   4   6    8.43    0.63
  -5  -4  -6    0.92    0.18
  -5  -4  -6    0.87    0.22
  -5  -4  -6    1.08    0.26
   5   4   6    1.52    0.35
   5   4   6    1.13    0.24
  -6  -4  -6    0.06    0.16
  -6  -4  -6    0.08    0.15
  -6  -4  -6    0.12    0.13
   6   4   6    0.27    0.19
   6   4   6    0.06    0.19
  -7  -4  -6    0.10    0.18
   7   4   6    0.04    0.18
   8  -5  -6   -0.13    0.25
   7  -5  -6    0.02    0.23
  -7   5   6    0.07    0.16
  -7   5   6    0.03    0.23
   6  -5  -6    0.24    0.30
   6  -5  -6    0.73    0.33
   6  -5  -6    0.40    0.24
  -6   5   6    0.44    0.17
  -6   5   6    0.09    0.14
  -6   5   6    0.56    0.26
   5  -5  -6    0.24    0.22
   5  -5  -6    0.07    0.19
   5  -5  -6    0.50    0.27
   5  -5  -6    0.25    0.14
  -5   5   6    0.26    0.21
  -5   5   6    0.12    0.15
  -5   5   6    0.36    0.16
   4  -5  -6   58.92    2.09
   4  -5  -6   58.45    1.48
   4  -5  -6   57.50    1.93
   4  -5  -6   56.60    1.96
   4  -5  -6   57.96    2.16
  -4   5   6   58.17    1.61
  -4   5   6   57.90    1.81
  -4   5   6   59.56    1.55
   3  -5  -6    6.52    0.72
   3  -5  -6    6.85    0.67
   3  -5  -6    7.24    0.76
   3  -5  -6    6.41    0.39
   3  -5  -6    5.56    0.63
  -3   5   6    7.38    0.68
  -3   5   6    6.20    0.43
  -3   5   6    6.55    0.43
   2  -5  -6    1.95    0.39
   2  -5  -6    2.51    0.42
   2  -5  -6    2.12    0.26
   2  -5  -6    2.69    0.40
   2  -5  -6    1.67    0.36
   2  -5  -6    1.72    0.23
  -2   5   6    2.10    0.28
  -2   5   6    2.47    0.41
  -2   5   6    2.26    0.31
   1  -5  -6    0.34    0.12
   1  -5  -6    0.38    0.19
   1  -5  -6    0.76    0.24
   1  -5  -6    0.54    0.23
   1  -5  -6    0.30    0.13
   1  -5  -6    0.53    0.20
   1  -5  -6    0.51    0.17
   1  -5  -6    0.00    0.13
  -1   5   6    0.41    0.23
  -1   5   6    0.72    0.18
  -1   5   6    0.58    0.16
  -1   5   6    0.98    0.30
   0  -5  -6    0.07    0.10
   0  -5  -6    0.29    0.14
   0  -5  -6    0.02    0.08
   0  -5  -6   -0.07    0.07
   0  -5  -6   -0.02    0.09
   0  -5  -6    0.20    0.14
   0  -5  -6    0.17    0.14
   0   5   6    0.05    0.09
   0   5   6   -0.04    0.14
  -1  -5  -6    1.17    0.25
  -1  -5  -6    0.78    0.18
  -1  -5  -6    1.15    0.23
  -1  -5  -6    0.83    0.24
  -1  -5  -6    0.39    0.19
  -1  -5  -6    1.13    0.19
   1   5   6    0.43    0.24
  -2  -5  -6   -0.07    0.09
  -2  -5  -6    0.33    0.18
  -2  -5  -6   -0.02    0.09
  -2  -5  -6    0.07    0.09
  -2  -5  -6    0.00    0.09
   2   5   6    0.01    0.15
  -3  -5  -6    0.18    0.11
  -3  -5  -6    0.10    0.13
  -3  -5  -6   -0.01    0.15
  -3  -5  -6    0.16    0.10
   3   5   6    0.10    0.17
  -4  -5  -6   40.45    1.25
  -4  -5  -6   37.98    1.15
  -4  -5  -6   37.94    1.36
   4   5   6   37.83    1.50
  -5  -5  -6    8.37    0.61
  -5  -5  -6    8.03    0.56
  -5  -5  -6    9.05    0.50
   5   5   6    7.57    0.77
  -6  -5  -6    0.09    0.18
   6   5   6    0.06    0.26
   7  -6  -6   -0.21    0.25
  -7   6   6   -0.38    0.25
   6  -6  -6   -0.05    0.24
   6  -6  -6   -0.01    0.25
  -6   6   6   -0.10    0.16
  -6   6   6   -0.22    0.21
  -6   6   6    0.16    0.18
   5  -6  -6    0.82    0.35
   5  -6  -6    1.73    0.48
   5  -6  -6    0.28    0.29
  -5   6   6    1.77    0.35
  -5   6   6    1.39    0.36
  -5   6   6    0.87    0.25
   4  -6  -6   -0.05    0.19
   4  -6  -6    0.23    0.13
   4  -6  -6   -0.02    0.21
   4  -6  -6    0.30    0.19
   4  -6  -6    0.26    0.27
  -4   6   6    0.13    0.16
  -4   6   6    0.18    0.20
  -4   6   6    0.06    0.13
   3  -6  -6    1.75    0.37
   3  -6  -6    2.04    0.47
   3  -6  -6    1.76    0.40
   3  -6  -6    1.60    0.41
   3  -6  -6    1.84    0.28
  -3   6   6    2.30    0.37
  -3   6   6    2.06    0.31
  -3   6   6    1.70    0.37
   2  -6  -6    2.18    0.30
   2  -6  -6    2.64    0.31
   2  -6  -6    2.39    0.45
   2  -6  -6    2.14    0.43
   2  -6  -6    1.90    0.41
   2  -6  -6    2.08    0.38
  -2   6   6    2.82    0.37
  -2   6   6    2.30    0.31
   1  -6  -6    2.03    0.28
   1  -6  -6    2.17    0.40
   1  -6  -6    2.21    0.35
   1  -6  -6    2.09    0.33
   1  -6  -6    2.11    0.30
   1  -6  -6    2.22    0.42
  -1   6   6    2.61    0.31
  -1   6   6    3.97    0.68
   0  -6  -6   -0.09    0.13
   0  -6  -6   -0.07    0.10
   0  -6  -6    0.00    0.10
   0  -6  -6   -0.03    0.16
   0  -6  -6    0.01    0.16
   0  -6  -6   -0.05    0.10
   0   6   6   -0.10    0.15
  -1  -6  -6    1.36    0.26
  -1  -6  -6    2.08    0.37
  -1  -6  -6    1.76    0.27
  -1  -6  -6    1.47    0.25
  -1  -6  -6    1.00    0.28
   1   6   6    1.89    0.43
  -2  -6  -6    0.55    0.25
  -2  -6  -6    0.73    0.26
  -2  -6  -6    0.35    0.16
  -2  -6  -6    0.20    0.15
  -2  -6  -6    0.32    0.17
   2   6   6    0.77    0.31
  -3  -6  -6   -0.05    0.14
  -3  -6  -6    0.19    0.15
  -3  -6  -6    0.18    0.22
  -3  -6  -6    0.41    0.17
   3   6   6    0.34    0.26
  -4  -6  -6    0.41    0.20
  -4  -6  -6    0.52    0.19
  -4  -6  -6    0.73    0.29
   4   6   6    0.33    0.25
  -5  -6  -6   19.55    0.92
   5   6   6   18.22    1.11
   7  -7  -6    0.04    0.32
   6  -7  -6    0.17    0.30
  -6   7   6   -0.18    0.17
  -6   7   6    0.25    0.28
   5  -7  -6   -0.26    0.23
   5  -7  -6    0.20    0.26
  -5   7   6    0.11    0.19
  -5   7   6    0.34    0.21
  -5   7   6    0.38    0.27
   4  -7  -6    0.83    0.23
   4  -7  -6    0.83    0.37
   4  -7  -6    0.75    0.37
   4  -7  -6    0.67    0.36
  -4   7   6    1.16    0.29
  -4   7   6    0.68    0.23
   3  -7  -6    0.76    0.35
   3  -7  -6    0.52    0.24
   3  -7  -6    1.12    0.38
   3  -7  -6    0.85    0.24
  -3   7   6    1.90    0.32
  -3   7   6    0.92    0.25
   2  -7  -6   14.59    0.70
   2  -7  -6   14.67    0.99
   2  -7  -6   13.64    0.66
  -2   7   6   13.90    0.67
   1  -7  -6   15.74    0.97
   1  -7  -6   14.64    0.71
   1  -7  -6   14.40    0.83
   1  -7  -6   14.75    0.72
  -1   7   6   15.17    0.67
   0  -7  -6   -0.01    0.14
   0  -7  -6   -0.02    0.11
   0  -7  -6    0.34    0.19
   0  -7  -6    0.46    0.25
   0   7   6    0.65    0.32
  -1  -7  -6    0.73    0.27
  -1  -7  -6    0.29    0.17
  -1  -7  -6   -0.03    0.13
  -1  -7  -6    0.24    0.17
  -1  -7  -6    0.06    0.24
   1   7   6    0.03    0.21
  -2  -7  -6   -0.10    0.11
  -2  -7  -6    0.12    0.22
  -2  -7  -6    0.10    0.16
  -2  -7  -6   -0.10    0.13
  -2  -7  -6    0.00    0.21
   2   7   6    0.31    0.26
  -3  -7  -6   -0.15    0.18
  -3  -7  -6    0.10    0.16
  -3  -7  -6   -0.08    0.13
   3   7   6    0.06    0.25
  -4  -7  -6    0.04    0.20
  -4  -7  -6   -0.06    0.25
  -4  -7  -6    0.40    0.21
   4   7   6    0.01    0.27
   6  -8  -6   -0.14    0.35
   5  -8  -6    0.38    0.40
   4  -8  -6    0.65    0.23
  -4   8   6    0.24    0.19
  -4   8   6    0.26    0.24
   3  -8  -6   -0.20    0.15
   3  -8  -6   -0.05    0.30
  -3   8   6    0.06    0.17
   2  -8  -6    0.07    0.27
   2  -8  -6    0.04    0.15
  -2   8   6   -0.09    0.16
   1  -8  -6    4.01    0.49
   1  -8  -6    5.26    0.56
   1  -8  -6    3.96    0.64
   0  -8  -6   16.04    0.90
   0  -8  -6   15.53    0.80
   0  -8  -6   16.14    0.83
   0  -8  -6   13.95    0.97
  -1  -8  -6    0.37    0.20
  -1  -8  -6    0.12    0.20
  -1  -8  -6    0.02    0.17
   1   8   6    0.01    0.29
  -2  -8  -6    0.15    0.31
  -2  -8  -6   -0.17    0.15
   2   8   6    0.02    0.29
  -3  -8  -6    0.40    0.39
  -3  -8  -6    0.09    0.22
   3   8   6    0.09    0.33
   4  -9  -6   -0.03    0.20
   3  -9  -6    0.13    0.21
  -3   9   6    0.13    0.21
   2  -9  -6    0.22    0.22
   1  -9  -6    0.71    0.28
   1  -9  -6    1.60    0.36
   0  -9  -6    3.27    0.49
  -1  -9  -6    0.01    0.20
  -2 -10   7    1.22    0.34
   1  10  -7    0.16    0.39
  -1 -10   7   -0.20    0.18
   0 -10   7   -0.14    0.18
   1 -10   7    0.22    0.20
   2 -10   7    0.18    0.24
   3 -10   7    0.23    0.26
   4 -10   7    0.30    0.26
  -4  -9   7    0.45    0.24
   3   9  -7   -0.15    0.27
  -3  -9   7   -0.06    0.21
  -3  -9   7   -0.08    0.17
   2   9  -7    1.07    0.43
  -2  -9   7    0.47    0.26
  -2  -9   7    1.08    0.30
   1   9  -7    1.54    0.51
  -1  -9   7    1.61    0.34
  -1  -9   7    1.53    0.36
  -1  -9   7    2.04    0.39
   0   9  -7    0.36    0.32
   0  -9   7    0.36    0.25
   0  -9   7    0.21    0.21
   0  -9   7    0.05    0.18
   1  -9   7    0.12    0.21
   1  -9   7   -0.05    0.14
   1  -9   7    0.11    0.22
   2  -9   7    0.07    0.18
  -3   9  -7    0.18    0.18
   3  -9   7   -0.12    0.15
  -4   9  -7   -0.01    0.16
   4  -9   7    0.03    0.19
   5  -9   7   -0.12    0.19
   5   8  -7   -0.04    0.18
   4   8  -7    0.03    0.23
  -4  -8   7    0.03    0.17
   3   8  -7    0.53    0.31
  -3  -8   7    0.56    0.23
  -3  -8   7    0.62    0.23
  -3  -8   7    0.44    0.20
   2   8  -7    0.00    0.24
  -2  -8   7    0.08    0.17
  -2  -8   7   -0.09    0.12
  -2  -8   7    0.14    0.16
   1   8  -7    3.08    0.59
  -1  -8   7    2.69    0.40
  -1  -8   7    3.04    0.39
  -1  -8   7    1.99    0.35
   0   8  -7   22.08    1.27
   0  -8   7   25.09    1.07
   0  -8   7   25.73    1.07
   0  -8   7   26.06    1.01
   1  -8   7    0.09    0.18
   1  -8   7    0.38    0.19
   1  -8   7    0.49    0.20
  -2   8  -7    0.14    0.14
   2  -8   7    0.17    0.16
  -3   8  -7    0.54    0.20
   3  -8   7    0.92    0.26
  -4   8  -7   -0.17    0.17
  -4   8  -7   -0.08    0.16
   4  -8   7   -0.01    0.13
  -5   8  -7   -0.13    0.19
  -5   8  -7   -0.24    0.17
  -5   8  -7    0.14    0.21
   5  -8   7    0.10    0.19
   5  -8   7   -0.17    0.27
  -6   8  -7    0.61    0.34
   6  -8   7    0.38    0.25
   6  -8   7    0.26    0.35
   6   7  -7    0.43    0.24
   5   7  -7    0.18    0.18
   5   7  -7    0.13    0.20
  -5  -7   7   -0.01    0.15
   4   7  -7    0.57    0.26
  -4  -7   7    0.52    0.20
  -4  -7   7    0.35    0.17
   3   7  -7   -0.09    0.17
  -3  -7   7   -0.10    0.11
  -3  -7   7    0.20    0.14
   2   7  -7   -0.02    0.17
  -2  -7   7    0.23    0.15
  -2  -7   7    0.04    0.13
  -2  -7   7    0.23    0.23
  -2  -7   7    0.05    0.12
   1   7  -7    0.76    0.30
  -1  -7   7    1.32    0.35
  -1  -7   7    0.65    0.22
  -1  -7   7    1.03    0.25
  -1  -7   7    0.97    0.22
   0   7  -7    3.92    0.59
   0  -7   7    4.74    0.50
   0  -7   7    4.34    0.62
   0  -7   7    5.48    0.55
   0  -7   7    4.86    0.47
  -1   7  -7    5.52    0.31
  -1   7  -7    4.11    0.60
   1  -7   7    4.90    0.65
   1  -7   7    4.51    0.48
   1  -7   7    5.01    0.47
   1  -7   7    5.36    0.53
  -2   7  -7   -0.10    0.10
  -2   7  -7    0.00    0.12
   2  -7   7    0.13    0.21
   2  -7   7   -0.03    0.09
  -3   7  -7    0.32    0.17
  -3   7  -7    0.58    0.19
  -3   7  -7    0.72    0.24
   3  -7   7    0.74    0.31
   3  -7   7    0.43    0.31
   3  -7   7    0.14    0.15
  -4   7  -7    0.49    0.20
  -4   7  -7    0.37    0.20
  -4   7  -7    0.53    0.23
  -4   7  -7    0.20    0.21
   4  -7   7    0.48    0.30
   4  -7   7    0.41    0.28
   4  -7   7    0.12    0.15
  -5   7  -7    0.33    0.23
  -5   7  -7    0.17    0.17
  -5   7  -7   -0.11    0.19
  -5   7  -7    0.04    0.19
   5  -7   7    0.05    0.22
   5  -7   7    0.06    0.16
  -6   7  -7   -0.11    0.19
  -6   7  -7   -0.06    0.23
  -6   7  -7    0.11    0.24
   6  -7   7    0.12    0.24
   6  -7   7   -0.23    0.15
  -7   7  -7    0.11    0.30
   7  -7   7    0.44    0.25
   7  -7   7    0.01    0.26
   7   6  -7   -0.25    0.19
   6   6  -7   20.99    0.97
   6   6  -7   21.30    0.84
   5   6  -7    0.59    0.22
   5   6  -7   -0.04    0.17
   4   6  -7   -0.07    0.15
  -4  -6   7    0.07    0.19
  -4  -6   7    0.05    0.12
  -4  -6   7    0.07    0.11
   3   6  -7    1.84    0.36
  -3  -6   7    1.23    0.35
  -3  -6   7    1.85    0.26
  -3  -6   7    2.00    0.28
   2   6  -7    0.04    0.16
  -2  -6   7    0.14    0.11
  -2  -6   7   -0.01    0.16
  -2  -6   7    0.07    0.10
  -2  -6   7    0.04    0.09
   1   6  -7    0.60    0.25
  -1  -6   7    0.57    0.18
  -1  -6   7    0.40    0.15
  -1  -6   7    0.50    0.17
  -1  -6   7    0.45    0.22
   0   6  -7    6.20    0.69
   0  -6   7    4.57    0.47
   0  -6   7    4.75    0.60
   0  -6   7    5.65    0.51
   0  -6   7    4.90    0.35
  -1   6  -7    9.72    0.44
  -1   6  -7   10.26    0.43
  -1   6  -7    9.95    0.72
  -1   6  -7   10.22    0.48
   1  -6   7    9.70    0.55
   1  -6   7    9.17    0.68
   1  -6   7   11.15    0.54
   1  -6   7   10.11    0.55
  -2   6  -7   47.92    1.49
  -2   6  -7   48.73    1.38
  -2   6  -7   49.26    1.28
  -2   6  -7   49.29    1.31
  -2   6  -7   48.62    1.76
   2  -6   7   47.86    1.34
   2  -6   7   49.04    1.71
   2  -6   7   48.32    1.74
   2  -6   7   49.46    1.36
   2  -6   7   47.94    1.38
  -3   6  -7    1.55    0.25
  -3   6  -7    2.00    0.33
  -3   6  -7    1.95    0.30
  -3   6  -7    1.96    0.36
   3  -6   7    1.74    0.28
   3  -6   7    2.09    0.42
   3  -6   7    1.64    0.39
  -4   6  -7    0.25    0.16
  -4   6  -7    0.21    0.19
  -4   6  -7    0.42    0.21
  -4   6  -7    0.37    0.20
   4  -6   7    0.42    0.23
   4  -6   7    0.12    0.14
   4  -6   7    0.40    0.23
  -5   6  -7   -0.01    0.17
  -5   6  -7   -0.22    0.12
  -5   6  -7    0.24    0.20
  -5   6  -7   -0.05    0.14
   5  -6   7    0.09    0.22
   5  -6   7    0.11    0.20
   5  -6   7    0.00    0.14
  -6   6  -7    0.45    0.25
  -6   6  -7    0.07    0.18
  -6   6  -7    0.03    0.19
  -6   6  -7    0.45    0.24
   6  -6   7    0.58    0.27
   6  -6   7   -0.09    0.15
  -7   6  -7    0.01    0.23
  -7   6  -7    0.20    0.21
  -7   6  -7    0.21    0.26
   7  -6   7   -0.01    0.25
   7  -6   7    0.01    0.17
   8  -6   7    0.10    0.21
   7   5  -7    0.04    0.18
   6   5  -7    1.34    0.22
   6   5  -7    1.59    0.33
   5   5  -7    0.91    0.23
   5   5  -7    1.19    0.24
  -5  -5   7    0.91    0.31
   4   5  -7    6.44    0.47
   4   5  -7    6.60    0.45
  -4  -5   7    5.99    0.30
  -4  -5   7    5.91    0.35
  -4  -5   7    5.97    0.66
   3   5  -7   -0.11    0.12
  -3  -5   7   -0.04    0.08
  -3  -5   7    0.02    0.08
  -3  -5   7    0.00    0.15
   2   5  -7   -0.03    0.11
  -2  -5   7    0.15    0.15
  -2  -5   7    0.12    0.09
  -2  -5   7    0.02    0.08
  -2  -5   7    0.03    0.08
   1   5  -7    3.06    0.42
   1   5  -7    2.81    0.21
  -1  -5   7    2.65    0.28
  -1  -5   7    3.22    0.45
  -1  -5   7    2.22    0.29
  -1  -5   7    3.07    0.34
   0   5  -7    1.05    0.27
   0   5  -7    1.74    0.14
   0   5  -7    1.45    0.19
   0  -5   7    1.52    0.22
   0  -5   7    1.59    0.30
   0  -5   7    1.45    0.24
   0  -5   7    2.00    0.35
   0  -5   7    1.25    0.24
  -1   5  -7    0.16    0.12
  -1   5  -7    0.02    0.08
  -1   5  -7    0.18    0.09
  -1   5  -7    0.07    0.14
  -1   5  -7    0.08    0.08
   1  -5   7    0.15    0.10
   1  -5   7    0.14    0.11
   1  -5   7    0.10    0.15
   1  -5   7   -0.17    0.12
  -2   5  -7   12.42    0.64
  -2   5  -7   13.96    0.57
  -2   5  -7   13.29    0.62
  -2   5  -7   14.09    0.79
  -2   5  -7   13.19    0.54
   2  -5   7   14.03    0.61
   2  -5   7   13.87    0.80
   2  -5   7   13.50    0.57
   2  -5   7   12.28    0.74
   2  -5   7   13.69    0.57
  -3   5  -7    9.19    0.57
  -3   5  -7    8.82    0.49
  -3   5  -7    8.63    0.46
  -3   5  -7    9.16    0.56
   3  -5   7    8.64    0.63
   3  -5   7    9.12    0.50
   3  -5   7    6.68    0.68
  -4   5  -7    2.38    0.32
  -4   5  -7    2.37    0.30
  -4   5  -7    2.12    0.36
  -4   5  -7    1.89    0.35
   4  -5   7    1.79    0.30
   4  -5   7    1.67    0.38
   4  -5   7    2.21    0.42
  -5   5  -7    0.11    0.13
  -5   5  -7   -0.02    0.16
  -5   5  -7   -0.01    0.16
   5  -5   7    0.23    0.20
   5  -5   7   -0.06    0.09
   5  -5   7    0.03    0.19
  -6   5  -7    0.08    0.15
  -6   5  -7    0.00    0.16
  -6   5  -7    0.16    0.18
  -6   5  -7    0.30    0.21
   6  -5   7    0.05    0.17
   6  -5   7   -0.09    0.11
  -7   5  -7    0.13    0.21
  -7   5  -7    0.16    0.20
  -7   5  -7    0.19    0.23
   7  -5   7    0.03    0.19
   7  -5   7   -0.10    0.14
   8  -5   7   -0.13    0.19
   8   4  -7    0.05    0.21
   7   4  -7    0.27    0.19
   6   4  -7    0.83    0.14
   6   4  -7    0.53    0.20
  -6  -4   7    0.77    0.30
   5   4  -7    0.71    0.20
   5   4  -7    0.80    0.17
  -5  -4   7    0.67    0.26
   4   4  -7   25.33    0.90
   4   4  -7   25.42    0.91
  -4  -4   7   27.83    1.13
  -4  -4   7   27.57    0.76
   3   4  -7    6.86    0.41
   3   4  -7    7.72    0.48
   3   4  -7    8.52    0.45
  -3  -4   7    7.11    0.33
  -3  -4   7    7.05    0.53
  -3  -4   7    7.79    0.32
   2   4  -7    1.51    0.27
   2   4  -7    1.93    0.23
   2   4  -7    1.52    0.20
  -2  -4   7    1.60    0.29
  -2  -4   7    2.23    0.23
  -2  -4   7    1.75    0.19
  -2  -4   7    1.65    0.21
   1   4  -7    0.15    0.12
   1   4  -7    0.14    0.07
   1   4  -7    0.18    0.08
  -1  -4   7    0.19    0.09
  -1  -4   7    0.13    0.07
  -1  -4   7    0.05    0.10
  -1  -4   7    0.20    0.10
  -1  -4   7    0.05    0.11
   0   4  -7    0.56    0.18
   0   4  -7    0.32    0.10
   0   4  -7    0.29    0.09
   0   4  -7    0.42    0.08
   0   4  -7    0.67    0.15
   0   4  -7    0.62    0.11
   0  -4   7    0.64    0.13
   0  -4   7    0.49    0.13
   0  -4   7    0.51    0.15
   0  -4   7    0.59    0.20
   0  -4   7    0.37    0.18
  -1   4  -7   15.38    0.53
  -1   4  -7   15.70    0.76
  -1   4  -7   14.23    0.58
  -1   4  -7   16.03    0.53
  -1   4  -7   16.35    0.65
   1  -4   7   16.82    0.78
   1  -4   7   14.20    0.76
   1  -4   7   15.45    0.57
   1  -4   7   16.11    0.61
  -2   4  -7    1.43    0.25
  -2   4  -7    1.17    0.18
  -2   4  -7    1.61    0.22
  -2   4  -7    1.16    0.22
  -2   4  -7    1.87    0.33
   2  -4   7    1.17    0.18
   2  -4   7    1.60    0.31
   2  -4   7    1.30    0.19
   2  -4   7    0.98    0.26
   2  -4   7    0.98    0.18
  -3   4  -7    0.08    0.11
  -3   4  -7   -0.08    0.08
  -3   4  -7    0.07    0.10
  -3   4  -7    0.06    0.10
   3  -4   7   -0.11    0.13
   3  -4   7    0.01    0.10
   3  -4   7   -0.06    0.08
  -4   4  -7   20.87    0.86
  -4   4  -7   21.57    0.95
  -4   4  -7   21.02    0.77
  -4   4  -7   20.68    0.74
   4  -4   7   19.37    1.01
   4  -4   7   20.22    0.80
   4  -4   7   20.13    0.93
  -5   4  -7    0.10    0.18
  -5   4  -7   -0.11    0.12
  -5   4  -7    0.08    0.12
  -5   4  -7    0.22    0.13
   5  -4   7   -0.11    0.17
   5  -4   7    0.17    0.18
   5  -4   7    0.07    0.11
  -6   4  -7   -0.05    0.16
  -6   4  -7    0.07    0.14
  -6   4  -7    0.00    0.20
  -6   4  -7    0.11    0.14
   6  -4   7    0.05    0.12
   6  -4   7    0.11    0.23
   6  -4   7    0.01    0.13
  -7   4  -7    0.13    0.18
  -7   4  -7    0.36    0.20
  -7   4  -7   -0.04    0.21
   7  -4   7    0.48    0.24
   7  -4   7    0.42    0.22
   8  -4   7   -0.03    0.15
   8  -4   7    0.04    0.18
   8   3  -7    0.22    0.22
   7   3  -7    0.21    0.17
   6   3  -7    1.05    0.14
   6   3  -7    0.95    0.12
   6   3  -7    0.78    0.21
   5   3  -7    0.41    0.17
   5   3  -7    0.70    0.22
   5   3  -7    0.64    0.14
  -5  -3   7    0.54    0.22
   4   3  -7    1.33    0.21
   4   3  -7    2.00    0.27
   4   3  -7    2.16    0.33
  -4  -3   7    1.93    0.19
  -4  -3   7    2.10    0.33
   3   3  -7    0.38    0.14
   3   3  -7    0.68    0.17
   3   3  -7    0.62    0.16
   3   3  -7    0.82    0.17
  -3  -3   7    0.77    0.08
  -3  -3   7    0.50    0.18
  -3  -3   7    0.77    0.12
  -3  -3   7    0.78    0.15
   2   3  -7    0.50    0.12
   2   3  -7    0.84    0.19
   2   3  -7    0.84    0.17
   2   3  -7    0.68    0.18
   2   3  -7    0.93    0.17
  -2  -3   7    0.80    0.20
  -2  -3   7    0.87    0.15
  -2  -3   7    0.61    0.11
  -2  -3   7    0.52    0.10
  -2  -3   7    0.74    0.11
  -2  -3   7    0.74    0.13
   1   3  -7    2.17    0.29
   1   3  -7    2.22    0.22
   1   3  -7    2.50    0.21
   1   3  -7    2.38    0.13
   1   3  -7    2.50    0.19
  -1  -3   7    2.46    0.25
  -1  -3   7    2.23    0.31
  -1  -3   7    2.06    0.18
  -1  -3   7    2.87    0.33
  -1  -3   7    2.20    0.24
   0   3  -7    1.88    0.14
   0   3  -7    2.32    0.32
   0   3  -7    2.45    0.24
   0   3  -7    1.93    0.15
   0   3  -7    2.06    0.23
   0  -3   7    2.25    0.26
   0  -3   7    1.99    0.27
   0  -3   7    2.06    0.30
   0  -3   7    1.93    0.23
   0  -3   7    2.25    0.20
  -1   3  -7    0.06    0.07
  -1   3  -7    0.12    0.08
  -1   3  -7    0.23    0.13
  -1   3  -7   -0.11    0.06
  -1   3  -7    0.00    0.06
   1  -3   7   -0.09    0.09
   1  -3   7   -0.05    0.05
   1  -3   7   -0.02    0.10
   1  -3   7    0.04    0.09
   1  -3   7    0.00    0.07
  -2   3  -7    0.19    0.10
  -2   3  -7    0.28    0.12
  -2   3  -7    0.12    0.07
  -2   3  -7    0.13    0.13
  -2   3  -7    0.24    0.11
   2  -3   7    0.15    0.08
   2  -3   7    0.21    0.12
   2  -3   7    0.08    0.07
   2  -3   7    0.17    0.07
   2  -3   7    0.15    0.12
  -3   3  -7    0.76    0.18
  -3   3  -7    0.98    0.19
  -3   3  -7    0.92    0.17
  -3   3  -7    0.81    0.20
   3  -3   7    1.25    0.20
   3  -3   7    1.05    0.24
   3  -3   7    1.08    0.28
  -4   3  -7    0.22    0.11
  -4   3  -7    0.40    0.13
  -4   3  -7    0.49    0.19
  -4   3  -7    0.10    0.13
   4  -3   7    0.16    0.11
   4  -3   7    0.54    0.20
   4  -3   7    0.30    0.22
  -5   3  -7    9.78    0.50
  -5   3  -7    9.73    0.47
  -5   3  -7   10.53    0.58
  -5   3  -7   10.68    0.70
   5  -3   7    9.94    0.63
   5  -3   7    9.33    0.53
   5  -3   7    8.25    0.80
  -6   3  -7    0.63    0.19
  -6   3  -7    0.99    0.29
  -6   3  -7    0.83    0.24
   6  -3   7    0.15    0.20
   6  -3   7    0.96    0.24
   6  -3   7    1.02    0.25
  -7   3  -7   -0.02    0.16
  -7   3  -7   -0.03    0.14
  -7   3  -7    0.10    0.24
   7  -3   7    0.05    0.12
   7  -3   7    0.14    0.17
  -8   3  -7   -0.16    0.17
  -8   3  -7   -0.03    0.26
   8  -3   7   -0.03    0.16
   8  -3   7   -0.08    0.18
   8   2  -7   -0.12    0.16
   7   2  -7    0.70    0.25
   6   2  -7   -0.19    0.18
   6   2  -7   -0.11    0.10
   5   2  -7    4.96    0.29
   5   2  -7    5.93    0.40
   5   2  -7    4.98    0.31
   5   2  -7    5.54    0.59
   4   2  -7    0.02    0.08
   4   2  -7    0.03    0.12
   4   2  -7   -0.04    0.08
   4   2  -7    0.03    0.11
   4   2  -7    0.07    0.09
  -4  -2   7    0.03    0.04
  -4  -2   7    0.01    0.10
  -4  -2   7   -0.03    0.06
   3   2  -7   11.34    0.52
   3   2  -7   10.56    0.54
   3   2  -7   11.29    0.49
   3   2  -7   10.84    0.48
   3   2  -7   11.16    0.59
   3   2  -7   11.42    0.50
  -3  -2   7   10.78    0.53
  -3  -2   7   11.55    0.42
  -3  -2   7   10.95    0.32
   2   2  -7   29.45    0.93
   2   2  -7   26.34    0.85
   2   2  -7   28.47    0.91
   2   2  -7   27.47    0.78
   2   2  -7   26.65    0.77
   2   2  -7   27.06    0.87
  -2  -2   7   27.48    0.88
  -2  -2   7   27.12    0.76
  -2  -2   7   28.43    0.65
  -2  -2   7   28.35    0.67
  -2  -2   7   28.10    0.61
  -2  -2   7   28.12    0.72
   1   2  -7   -0.08    0.05
   1   2  -7    0.00    0.08
   1   2  -7    0.02    0.05
   1   2  -7    0.03    0.05
   1   2  -7   -0.01    0.04
   1   2  -7    0.00    0.06
  -1  -2   7    0.00    0.04
  -1  -2   7   -0.08    0.05
  -1  -2   7   -0.04    0.07
  -1  -2   7    0.02    0.07
  -1  -2   7    0.03    0.08
   0   2  -7    0.78    0.19
   0   2  -7    0.84    0.11
   0   2  -7    0.72    0.14
   0   2  -7    1.01    0.12
   0   2  -7    0.88    0.15
   0  -2   7    1.01    0.19
   0  -2   7    0.52    0.12
   0  -2   7    0.96    0.20
   0  -2   7    0.97    0.12
   0  -2   7    0.94    0.16
  -1   2  -7    1.60    0.22
  -1   2  -7    2.20    0.24
  -1   2  -7    1.90    0.19
  -1   2  -7    1.44    0.17
  -1   2  -7    1.86    0.28
   1  -2   7    1.95    0.29
   1  -2   7    1.31    0.18
   1  -2   7    1.66    0.17
   1  -2   7    2.13    0.31
   1  -2   7    1.70    0.19
  -2   2  -7    2.96    0.21
  -2   2  -7    2.77    0.31
  -2   2  -7    4.36    0.43
  -2   2  -7    2.70    0.21
  -2   2  -7    2.59    0.27
   2  -2   7    2.52    0.17
   2  -2   7    2.34    0.23
   2  -2   7    2.95    0.37
   2  -2   7    3.34    0.31
   2  -2   7    2.71    0.16
   2  -2   7    3.67    0.40
  -3   2  -7    8.30    0.40
  -3   2  -7    8.98    0.58
  -3   2  -7    7.94    0.49
  -3   2  -7    9.83    0.41
  -3   2  -7    9.62    0.47
   3  -2   7    8.17    0.41
   3  -2   7    8.64    0.59
   3  -2   7    9.09    0.52
  -4   2  -7    0.36    0.14
  -4   2  -7    0.20    0.10
  -4   2  -7    0.46    0.17
  -4   2  -7    0.79    0.16
   4  -2   7    0.22    0.14
   4  -2   7    0.34    0.12
   4  -2   7    0.59    0.23
  -5   2  -7    0.40    0.13
  -5   2  -7    0.45    0.22
  -5   2  -7    0.38    0.13
  -5   2  -7    0.52    0.18
   5  -2   7    0.49    0.16
   5  -2   7    0.87    0.26
   5  -2   7    0.42    0.17
  -6   2  -7    9.22    0.70
  -6   2  -7    9.22    0.48
  -6   2  -7    8.91    0.54
   6  -2   7    8.54    0.54
   6  -2   7    9.67    0.60
  -7   2  -7    0.96    0.23
  -7   2  -7    0.71    0.28
  -7   2  -7    1.07    0.22
   7  -2   7    1.19    0.27
   7  -2   7    1.32    0.30
  -8   2  -7    0.62    0.31
  -8   2  -7    0.44    0.22
   8  -2   7    0.85    0.27
   8  -2   7    0.44    0.21
   9   1  -7    0.76    0.31
  -9  -1   7    0.58    0.17
   8   1  -7    1.73    0.38
   7   1  -7   -0.03    0.15
   6   1  -7    2.63    0.19
   6   1  -7    3.34    0.53
   6   1  -7    2.33    0.33
   6   1  -7    2.74    0.20
   5   1  -7    0.52    0.14
   5   1  -7    0.52    0.16
   5   1  -7    0.24    0.20
   5   1  -7    0.65    0.14
   4   1  -7    0.25    0.18
   4   1  -7    0.74    0.15
   4   1  -7    0.32    0.16
   4   1  -7    0.28    0.12
   4   1  -7    0.56    0.20
   4   1  -7    0.31    0.11
  -4  -1   7    0.62    0.12
  -4  -1   7    0.58    0.09
  -4  -1   7    0.56    0.15
   3   1  -7    0.01    0.10
   3   1  -7    0.21    0.09
   3   1  -7    0.15    0.12
   3   1  -7   -0.03    0.08
   3   1  -7    0.27    0.10
   3   1  -7    0.01    0.08
  -3  -1   7    0.18    0.10
  -3  -1   7    0.17    0.07
  -3  -1   7    0.07    0.03
   2   1  -7    1.47    0.24
   2   1  -7    1.89    0.21
   2   1  -7    2.40    0.28
   2   1  -7    2.09    0.26
   2   1  -7    2.07    0.24
   2   1  -7    2.27    0.27
  -2  -1   7    1.62    0.21
  -2  -1   7    2.01    0.26
  -2  -1   7    2.02    0.13
  -2  -1   7    1.87    0.23
  -2  -1   7    1.98    0.21
  -2  -1   7    2.12    0.15
   1   1  -7    3.16    0.21
   1   1  -7    3.07    0.14
   1   1  -7    2.93    0.28
   1   1  -7    3.21    0.20
   1   1  -7    4.55    0.41
   1   1  -7    2.62    0.27
   1   1  -7    3.41    0.22
  -1  -1   7    3.34    0.33
  -1  -1   7    2.79    0.21
  -1  -1   7    3.47    0.23
  -1  -1   7    2.64    0.27
   0   1  -7    0.16    0.07
   0   1  -7    0.11    0.10
   0   1  -7    0.25    0.07
   0   1  -7    0.10    0.11
   0   1  -7    0.16    0.06
   0   1  -7    0.17    0.07
   0   1  -7    0.06    0.06
   0  -1   7    0.06    0.07
   0  -1   7    0.30    0.09
   0  -1   7    0.13    0.10
   0  -1   7    0.02    0.07
   0  -1   7    0.09    0.08
   0  -1   7    0.20    0.05
  -1   1  -7    3.00    0.29
  -1   1  -7    3.29    0.24
  -1   1  -7    3.14    0.20
  -1   1  -7    3.45    0.21
  -1   1  -7    3.26    0.35
  -1   1  -7    3.31    0.15
   1  -1   7    3.49    0.27
   1  -1   7    3.19    0.19
   1  -1   7    3.97    0.38
   1  -1   7    3.41    0.21
   1  -1   7    3.09    0.35
   1  -1   7    3.29    0.22
  -2   1  -7    1.01    0.15
  -2   1  -7    1.43    0.17
  -2   1  -7    1.22    0.18
  -2   1  -7    1.30    0.06
  -2   1  -7    1.46    0.26
  -2   1  -7    1.31    0.22
   2  -1   7    1.50    0.11
   2  -1   7    1.36    0.24
   2  -1   7    1.23    0.07
   2  -1   7    1.22    0.25
   2  -1   7    1.56    0.21
   2  -1   7    1.35    0.07
   2  -1   7    1.30    0.17
  -3   1  -7    0.01    0.06
  -3   1  -7   -0.05    0.06
  -3   1  -7   -0.05    0.07
  -3   1  -7    0.02    0.07
   3  -1   7    0.06    0.11
   3  -1   7    0.12    0.08
   3  -1   7    0.00    0.08
  -4   1  -7    0.27    0.11
  -4   1  -7    0.07    0.12
  -4   1  -7    0.13    0.08
  -4   1  -7    0.32    0.11
   4  -1   7    0.02    0.07
   4  -1   7    0.29    0.14
   4  -1   7    0.13    0.16
  -5   1  -7    0.05    0.10
  -5   1  -7   -0.04    0.08
  -5   1  -7   -0.01    0.11
   5  -1   7   -0.06    0.08
   5  -1   7    0.07    0.11
  -6   1  -7    0.17    0.13
  -6   1  -7   -0.02    0.15
   6  -1   7    0.12    0.13
   6  -1   7    0.07    0.14
  -7   1  -7   13.44    0.66
  -7   1  -7   15.96    0.94
   7  -1   7   13.50    0.73
   7  -1   7   12.71    0.73
  -8   1  -7    0.32    0.31
   8  -1   7    0.28    0.20
   8  -1   7    0.86    0.28
   9   0  -7    1.11    0.33
   8   0  -7    1.00    0.29
  -8   0   7    0.91    0.18
   7   0  -7    0.73    0.24
   7   0  -7    1.52    0.40
  -7   0   7    1.04    0.18
   6   0  -7    0.13    0.10
   6   0  -7    0.08    0.16
   6   0  -7   -0.02    0.11
  -6   0   7    0.11    0.09
   5   0  -7    0.00    0.15
   5   0  -7    0.14    0.10
   5   0  -7    0.30    0.14
   5   0  -7    0.14    0.15
   4   0  -7    3.35    0.40
   4   0  -7    4.22    0.48
   4   0  -7    3.57    0.32
   4   0  -7    3.68    0.50
   4   0  -7    4.45    0.39
  -4   0   7    4.07    0.25
  -4   0   7    3.99    0.24
   3   0  -7    2.12    0.25
   3   0  -7    1.73    0.27
   3   0  -7    1.82    0.25
   3   0  -7    2.12    0.35
   3   0  -7    2.18    0.32
   3   0  -7    1.78    0.22
  -3   0   7    2.24    0.20
  -3   0   7    2.40    0.11
  -3   0   7    2.29    0.23
  -3   0   7    1.82    0.12
  -3   0   7    2.24    0.23
   2   0  -7    8.50    0.38
   2   0  -7    7.92    0.45
   2   0  -7    8.60    0.44
   2   0  -7    8.73    0.44
   2   0  -7    8.28    0.50
   2   0  -7    9.69    0.47
  -2   0   7    9.17    0.34
  -2   0   7    8.86    0.45
  -2   0   7    8.93    0.39
  -2   0   7    8.63    0.34
  -2   0   7    8.81    0.40
   1   0  -7    1.84    0.23
   1   0  -7    2.07    0.22
   1   0  -7    2.40    0.29
   1   0  -7    1.83    0.18
   1   0  -7    1.84    0.20
   1   0  -7    2.14    0.12
   1   0  -7    1.26    0.20
   1   0  -7    2.00    0.14
   1   0  -7    1.84    0.22
  -1   0   7    1.82    0.19
  -1   0   7    2.02    0.21
  -1   0   7    2.32    0.25
  -1   0   7    2.44    0.23
  -1   0   7    1.84    0.26
   0   0  -7  141.71    2.91
   0   0  -7  142.32    3.07
   0   0  -7  144.77    2.89
   0   0  -7  140.36    2.76
   0   0  -7  145.67    2.82
   0   0  -7  146.46    2.69
   0   0  -7  144.84    2.94
   0   0   7  143.25    2.95
   0   0   7  146.54    2.97
   0   0   7  144.66    2.85
   0   0   7  145.10    2.89
   0   0   7  147.94    3.10
   0   0   7  148.07    2.63
  -1   0  -7    2.81    0.27
  -1   0  -7    2.65    0.27
  -1   0  -7    2.38    0.21
  -1   0  -7    2.26    0.29
  -1   0  -7    2.44    0.17
   1   0   7    2.75    0.34
   1   0   7    2.98    0.18
   1   0   7    2.42    0.30
   1   0   7    2.84    0.29
   1   0   7    2.28    0.18
   1   0   7    2.21    0.20
  -2   0  -7    0.06    0.06
  -2   0  -7    0.16    0.10
  -2   0  -7    0.09    0.07
  -2   0  -7    0.04    0.09
  -2   0  -7   -0.03    0.05
   2   0   7   -0.04    0.07
   2   0   7    0.08    0.09
   2   0   7    0.03    0.06
   2   0   7    0.00    0.07
  -3   0  -7    0.29    0.10
  -3   0  -7    0.56    0.12
  -3   0  -7    0.35    0.10
  -3   0  -7    0.47    0.14
   3   0   7    0.75    0.20
   3   0   7    0.59    0.13
  -4   0  -7    5.72    0.30
  -4   0  -7    6.31    0.45
  -4   0  -7    5.59    0.30
  -4   0  -7    6.05    0.36
   4   0   7    6.07    0.38
   4   0   7    5.99    0.44
  -5   0  -7    0.22    0.11
  -5   0  -7    0.24    0.11
  -5   0  -7    0.50    0.21
   5   0   7    0.23    0.12
   5   0   7    0.63    0.21
  -6   0  -7    0.76    0.19
  -6   0  -7    0.40    0.20
  -6   0  -7    0.34    0.14
   6   0   7    0.66    0.20
   6   0   7    0.85    0.22
  -7   0  -7    0.70    0.19
  -7   0  -7    0.37    0.25
   7   0   7    1.07    0.26
   7   0   7    0.59    0.21
  -8   0  -7    6.70    0.75
   8   0   7    6.22    0.63
   8   0   7    6.64    0.50
  -8   1   7    0.20    0.15
   7  -1  -7    0.36    0.14
   7  -1  -7    0.29    0.29
   7  -1  -7    0.51    0.21
  -7   1   7    0.12    0.12
   6  -1  -7    0.27    0.21
   6  -1  -7    0.04    0.09
   6  -1  -7    0.27    0.15
   6  -1  -7    0.22    0.20
  -6   1   7    0.32    0.12
   5  -1  -7    4.20    0.56
   5  -1  -7    5.14    0.38
   5  -1  -7    5.78    0.70
   5  -1  -7    5.13    0.46
   5  -1  -7    5.86    0.66
  -5   1   7    4.56    0.31
   4  -1  -7    0.77    0.27
   4  -1  -7    0.64    0.17
   4  -1  -7    0.82    0.23
   4  -1  -7    0.78    0.18
   4  -1  -7    1.30    0.30
  -4   1   7    0.69    0.10
  -4   1   7    0.66    0.15
   3  -1  -7    1.09    0.24
   3  -1  -7    1.35    0.29
   3  -1  -7    0.88    0.19
   3  -1  -7    0.77    0.21
   3  -1  -7    1.02    0.08
   3  -1  -7    1.10    0.20
   3  -1  -7    1.15    0.19
  -3   1   7    1.04    0.14
  -3   1   7    0.92    0.17
  -3   1   7    0.86    0.13
  -3   1   7    1.21    0.18
   2  -1  -7    0.17    0.04
   2  -1  -7    0.15    0.09
   2  -1  -7    0.25    0.13
   2  -1  -7    0.14    0.10
   2  -1  -7    0.28    0.09
   2  -1  -7    0.15    0.10
   2  -1  -7    0.20    0.11
   2  -1  -7    0.07    0.12
  -2   1   7    0.02    0.07
  -2   1   7    0.27    0.11
  -2   1   7    0.11    0.10
  -2   1   7    0.23    0.08
   1  -1  -7   11.48    0.52
   1  -1  -7   10.05    0.37
   1  -1  -7   10.51    0.54
   1  -1  -7   10.30    0.53
   1  -1  -7    9.69    0.48
   1  -1  -7   10.54    0.40
   1  -1  -7   10.80    0.46
   1  -1  -7   10.46    0.39
   1  -1  -7   10.34    0.35
   1  -1  -7   10.83    0.29
  -1   1   7   10.89    0.43
  -1   1   7   10.71    0.42
  -1   1   7   10.00    0.47
  -1   1   7   11.75    0.56
   0  -1  -7    0.26    0.10
   0  -1  -7    0.27    0.08
   0  -1  -7    0.24    0.11
   0  -1  -7    0.49    0.17
   0  -1  -7    0.31    0.11
   0  -1  -7    0.39    0.09
   0  -1  -7    0.24    0.06
   0  -1  -7    0.12    0.08
   0   1   7    0.21    0.09
   0   1   7    0.17    0.10
   0   1   7    0.21    0.08
   0   1   7    0.21    0.11
   0   1   7    0.32    0.07
  -1  -1  -7  148.82    3.01
  -1  -1  -7  145.73    2.94
  -1  -1  -7  149.34    3.03
  -1  -1  -7  147.23    2.79
  -1  -1  -7  148.38    2.87
  -1  -1  -7  150.04    3.22
   1   1   7  148.51    2.83
   1   1   7  148.80    3.07
   1   1   7  150.76    2.92
   1   1   7  149.78    2.82
   1   1   7  149.29    3.25
  -2  -1  -7    0.25    0.08
  -2  -1  -7    0.16    0.10
  -2  -1  -7    0.24    0.12
  -2  -1  -7    0.18    0.09
  -2  -1  -7    0.15    0.08
   2   1   7    0.17    0.10
   2   1   7    0.13    0.08
   2   1   7    0.39    0.15
  -3  -1  -7    7.02    0.33
  -3  -1  -7    6.98    0.32
  -3  -1  -7    7.22    0.43
  -3  -1  -7    7.13    0.39
   3   1   7    7.47    0.49
   3   1   7    7.16    0.38
  -4  -1  -7   -0.02    0.12
  -4  -1  -7   -0.15    0.06
  -4  -1  -7    0.04    0.08
  -4  -1  -7   -0.01    0.07
   4   1   7    0.09    0.10
   4   1   7    0.05    0.09
  -5  -1  -7    0.74    0.17
  -5  -1  -7    0.80    0.22
  -5  -1  -7    0.39    0.12
   5   1   7    1.23    0.23
   5   1   7    0.81    0.22
  -6  -1  -7    0.21    0.14
  -6  -1  -7    0.07    0.17
  -6  -1  -7   -0.11    0.09
   6   1   7    0.16    0.16
   6   1   7    0.09    0.13
  -7  -1  -7   -0.07    0.12
  -7  -1  -7    0.15    0.22
   7   1   7    0.16    0.15
   7   1   7   -0.13    0.13
  -8  -1  -7    0.98    0.26
   8   1   7    0.67    0.27
   8  -2  -7    1.99    0.29
  -8   2   7    1.67    0.30
   7  -2  -7    0.05    0.14
   7  -2  -7    0.21    0.23
   7  -2  -7   -0.21    0.21
  -7   2   7    0.13    0.15
   6  -2  -7   15.84    1.02
   6  -2  -7   17.15    0.79
   6  -2  -7   16.70    1.04
  -6   2   7   16.79    0.70
   5  -2  -7    0.44    0.21
   5  -2  -7    0.17    0.18
   5  -2  -7    0.29    0.15
   5  -2  -7    0.06    0.16
  -5   2   7    0.30    0.10
  -5   2   7    0.40    0.15
   4  -2  -7    0.04    0.11
   4  -2  -7   -0.09    0.12
   4  -2  -7    0.21    0.17
   4  -2  -7   -0.13    0.12
  -4   2   7    0.10    0.08
  -4   2   7    0.18    0.11
  -4   2   7    0.02    0.07
   3  -2  -7    0.45    0.17
   3  -2  -7    0.17    0.14
   3  -2  -7    0.21    0.14
   3  -2  -7    0.30    0.08
   3  -2  -7    0.06    0.14
  -3   2   7    0.32    0.10
  -3   2   7    0.19    0.11
  -3   2   7    0.43    0.12
   2  -2  -7    5.90    0.41
   2  -2  -7    4.70    0.46
   2  -2  -7    5.75    0.45
   2  -2  -7    5.64    0.21
   2  -2  -7    5.82    0.44
   2  -2  -7    5.35    0.23
   2  -2  -7    5.88    0.37
  -2   2   7    6.09    0.43
  -2   2   7    6.33    0.33
  -2   2   7    5.88    0.38
  -2   2   7    5.16    0.30
   1  -2  -7    0.05    0.07
   1  -2  -7    0.10    0.06
   1  -2  -7    0.09    0.07
   1  -2  -7   -0.04    0.07
   1  -2  -7    0.00    0.10
   1  -2  -7    0.22    0.11
   1  -2  -7    0.08    0.09
   1  -2  -7    0.14    0.10
   1  -2  -7    0.19    0.07
  -1   2   7    0.07    0.11
  -1   2   7    0.04    0.07
  -1   2   7    0.13    0.10
  -1   2   7    0.11    0.08
   0  -2  -7    0.10    0.06
   0  -2  -7    0.02    0.08
   0  -2  -7    0.12    0.07
   0  -2  -7    0.08    0.08
   0  -2  -7    0.10    0.06
   0  -2  -7    0.08    0.11
   0  -2  -7    0.19    0.10
   0   2   7   -0.13    0.07
   0   2   7    0.02    0.09
   0   2   7    0.02    0.06
   0   2   7    0.02    0.07
  -1  -2  -7    0.02    0.07
  -1  -2  -7    0.00    0.08
  -1  -2  -7    0.07    0.07
  -1  -2  -7   -0.01    0.05
  -1  -2  -7    0.04    0.06
  -1  -2  -7    0.22    0.14
   1   2   7    0.15    0.06
   1   2   7    0.04    0.10
   1   2   7    0.05    0.07
   1   2   7    0.14    0.07
   1   2   7    0.00    0.08
  -2  -2  -7   20.76    0.75
  -2  -2  -7   21.88    0.74
  -2  -2  -7   21.15    0.63
  -2  -2  -7   21.13    0.66
  -2  -2  -7   21.28    0.65
   2   2   7   21.55    0.88
   2   2   7   21.55    0.67
  -3  -2  -7    0.41    0.14
  -3  -2  -7    0.66    0.13
  -3  -2  -7    0.89    0.19
  -3  -2  -7    0.22    0.10
  -3  -2  -7    0.58    0.12
   3   2   7    0.36    0.12
   3   2   7    0.72    0.22
  -4  -2  -7    3.63    0.36
  -4  -2  -7    4.22    0.42
  -4  -2  -7    4.44    0.38
  -4  -2  -7    4.19    0.26
   4   2   7    3.93    0.45
   4   2   7    4.48    0.41
  -5  -2  -7    0.24    0.11
  -5  -2  -7    0.21    0.11
  -5  -2  -7    0.37    0.18
  -5  -2  -7    0.14    0.13
   5   2   7    0.21    0.12
   5   2   7    0.05    0.13
  -6  -2  -7    0.33    0.16
  -6  -2  -7    0.58    0.24
  -6  -2  -7    0.66    0.20
  -6  -2  -7    0.36    0.13
   6   2   7    0.41    0.18
   6   2   7    0.31    0.18
  -7  -2  -7   -0.18    0.14
  -7  -2  -7    0.16    0.14
   7   2   7   -0.02    0.16
   7   2   7    0.11    0.17
   7   2   7    0.16    0.21
   8  -3  -7   -0.11    0.17
  -8   3   7    0.14    0.21
   7  -3  -7    0.97    0.40
   7  -3  -7   -0.02    0.17
   7  -3  -7    0.12    0.26
  -7   3   7    0.32    0.20
   6  -3  -7    0.40    0.26
   6  -3  -7    0.79    0.25
   6  -3  -7    0.58    0.33
  -6   3   7    0.48    0.14
  -6   3   7    0.59    0.21
   5  -3  -7   16.29    0.97
   5  -3  -7   15.70    1.03
   5  -3  -7   14.23    0.78
   5  -3  -7   15.23    0.96
  -5   3   7   14.60    0.73
  -5   3   7   15.81    0.59
   4  -3  -7   20.59    1.11
   4  -3  -7   16.95    0.96
   4  -3  -7   16.95    0.91
   4  -3  -7   16.57    0.85
  -4   3   7   17.49    0.78
  -4   3   7   18.67    0.64
  -4   3   7   18.26    0.65
   3  -3  -7   10.47    0.65
   3  -3  -7    7.95    0.65
   3  -3  -7    9.91    0.62
   3  -3  -7    8.33    0.62
   3  -3  -7    8.90    0.36
  -3   3   7    8.58    0.44
  -3   3   7    9.13    0.45
  -3   3   7    9.20    0.54
   2  -3  -7    0.18    0.08
   2  -3  -7    0.02    0.05
   2  -3  -7    0.12    0.13
   2  -3  -7    0.14    0.15
   2  -3  -7    0.24    0.07
   2  -3  -7    0.14    0.07
   2  -3  -7    0.20    0.13
   2  -3  -7    0.19    0.14
  -2   3   7    0.16    0.11
  -2   3   7    0.08    0.09
  -2   3   7    0.02    0.12
  -2   3   7    0.19    0.10
  -2   3   7    0.19    0.14
   1  -3  -7    0.62    0.19
   1  -3  -7    1.85    0.28
   1  -3  -7    1.26    0.16
   1  -3  -7    0.95    0.17
   1  -3  -7    0.83    0.15
   1  -3  -7    1.12    0.27
   1  -3  -7    0.90    0.21
   1  -3  -7    1.02    0.22
  -1   3   7    0.81    0.23
  -1   3   7    1.28    0.20
  -1   3   7    1.03    0.18
  -1   3   7    0.79    0.19
  -1   3   7    0.93    0.23
   0  -3  -7    0.05    0.07
   0  -3  -7    0.00    0.09
   0  -3  -7    0.07    0.06
   0  -3  -7    0.02    0.12
   0  -3  -7    0.12    0.09
   0  -3  -7   -0.02    0.06
   0  -3  -7    0.02    0.08
   0   3   7    0.09    0.08
   0   3   7    0.12    0.09
   0   3   7    0.01    0.11
   0   3   7    0.12    0.12
  -1  -3  -7    6.91    0.34
  -1  -3  -7    7.02    0.65
  -1  -3  -7    5.86    0.40
  -1  -3  -7    5.57    0.40
  -1  -3  -7    5.90    0.36
  -1  -3  -7    6.76    0.35
  -1  -3  -7    6.19    0.32
   1   3   7    6.94    0.51
   1   3   7    6.27    0.23
  -2  -3  -7    1.71    0.20
  -2  -3  -7    2.10    0.23
  -2  -3  -7    2.47    0.25
  -2  -3  -7    2.78    0.29
  -2  -3  -7    1.65    0.25
   2   3   7    2.45    0.37
   2   3   7    2.28    0.24
  -3  -3  -7   82.52    1.87
  -3  -3  -7   84.18    1.83
  -3  -3  -7   84.79    1.96
  -3  -3  -7   83.10    2.05
  -3  -3  -7   82.48    1.89
   3   3   7   82.42    1.92
   3   3   7   84.73    2.26
  -4  -3  -7   16.04    0.70
  -4  -3  -7   17.55    0.69
  -4  -3  -7   16.91    0.74
  -4  -3  -7   17.81    0.63
   4   3   7   18.67    0.88
   4   3   7   16.30    0.70
  -5  -3  -7    0.02    0.13
  -5  -3  -7   -0.04    0.09
  -5  -3  -7    0.15    0.15
   5   3   7   -0.07    0.15
   5   3   7   -0.01    0.14
   5   3   7    0.01    0.14
  -6  -3  -7    0.37    0.16
  -6  -3  -7    0.58    0.22
  -6  -3  -7    0.26    0.16
   6   3   7    0.50    0.24
   6   3   7    0.37    0.19
  -7  -3  -7    0.30    0.19
   7   3   7    0.43    0.20
   7   3   7    0.36    0.25
   8  -4  -7    0.13    0.19
  -8   4   7    0.08    0.24
  -8   4   7    0.30    0.20
   7  -4  -7    0.10    0.31
   7  -4  -7    0.27    0.34
   7  -4  -7    0.46    0.26
  -7   4   7    0.49    0.26
  -7   4   7    0.27    0.17
   6  -4  -7    1.52    0.43
   6  -4  -7    1.67    0.44
   6  -4  -7    1.79    0.40
  -6   4   7    1.48    0.32
  -6   4   7    2.04    0.30
   5  -4  -7    1.99    0.39
   5  -4  -7    2.03    0.47
   5  -4  -7    1.68    0.39
   5  -4  -7    2.53    0.51
  -5   4   7    2.29    0.39
  -5   4   7    1.99    0.27
  -5   4   7    2.35    0.31
   4  -4  -7    9.53    0.68
   4  -4  -7   11.23    0.52
   4  -4  -7    9.50    0.88
   4  -4  -7   10.99    0.84
   4  -4  -7   10.38    0.79
  -4   4   7    8.53    0.60
  -4   4   7   10.02    0.52
  -4   4   7    9.78    0.50
   3  -4  -7    9.11    0.67
   3  -4  -7   10.22    0.76
   3  -4  -7    9.97    0.72
   3  -4  -7    9.61    0.66
   3  -4  -7    9.89    0.44
  -3   4   7    9.59    0.51
  -3   4   7    9.00    0.60
  -3   4   7    9.51    0.48
   2  -4  -7    2.78    0.39
   2  -4  -7    3.17    0.24
   2  -4  -7    2.62    0.26
   2  -4  -7    3.45    0.49
   2  -4  -7    3.08    0.45
   2  -4  -7    3.23    0.49
  -2   4   7    2.88    0.40
  -2   4   7    3.67    0.38
  -2   4   7    3.02    0.32
   1  -4  -7    4.41    0.49
   1  -4  -7    4.97    0.35
   1  -4  -7    5.05    0.30
   1  -4  -7    4.68    0.50
   1  -4  -7    5.79    0.54
   1  -4  -7    5.32    0.33
   1  -4  -7    4.82    0.55
   1  -4  -7    5.02    0.48
  -1   4   7    5.19    0.33
  -1   4   7    5.86    0.56
  -1   4   7    4.82    0.43
  -1   4   7    5.54    0.60
   0  -4  -7    1.66    0.23
   0  -4  -7    1.86    0.31
   0  -4  -7    1.67    0.28
   0  -4  -7    2.29    0.31
   0  -4  -7    1.81    0.26
   0  -4  -7    1.63    0.34
   0  -4  -7    1.90    0.22
   0  -4  -7    2.10    0.34
   0   4   7    2.32    0.24
   0   4   7    1.95    0.25
   0   4   7    2.37    0.43
   0   4   7    1.76    0.34
  -1  -4  -7    0.61    0.17
  -1  -4  -7    0.56    0.18
  -1  -4  -7    0.33    0.11
  -1  -4  -7    0.62    0.20
  -1  -4  -7    0.28    0.12
  -1  -4  -7    0.56    0.13
   1   4   7    0.45    0.19
   1   4   7    0.42    0.22
  -2  -4  -7    2.28    0.26
  -2  -4  -7    2.21    0.32
  -2  -4  -7    2.39    0.29
  -2  -4  -7    1.72    0.29
  -2  -4  -7    2.83    0.31
  -2  -4  -7    1.83    0.24
   2   4   7    2.32    0.43
   2   4   7    2.53    0.41
  -3  -4  -7    0.01    0.10
  -3  -4  -7    0.02    0.08
  -3  -4  -7    0.00    0.08
  -3  -4  -7    0.08    0.11
   3   4   7    0.03    0.13
   3   4   7    0.05    0.09
   3   4   7   -0.10    0.14
  -4  -4  -7    2.22    0.27
  -4  -4  -7    1.42    0.21
  -4  -4  -7    1.64    0.32
  -4  -4  -7    2.38    0.33
   4   4   7    1.13    0.31
   4   4   7    1.79    0.28
  -5  -4  -7   18.03    0.88
  -5  -4  -7   19.12    0.82
  -5  -4  -7   18.64    0.72
   5   4   7   19.25    1.01
   5   4   7   18.89    0.83
  -6  -4  -7    0.05    0.18
  -6  -4  -7    0.06    0.17
   6   4   7   -0.24    0.19
   6   4   7    0.02    0.15
   7  -5  -7   -0.31    0.20
   7  -5  -7   -0.07    0.27
  -7   5   7    0.06    0.22
   6  -5  -7    0.31    0.24
   6  -5  -7    0.03    0.28
   6  -5  -7    0.14    0.26
  -6   5   7    0.16    0.15
  -6   5   7    0.12    0.14
  -6   5   7   -0.06    0.18
   5  -5  -7    0.27    0.24
   5  -5  -7    0.25    0.22
   5  -5  -7    0.22    0.30
  -5   5   7    0.41    0.18
  -5   5   7    0.98    0.30
  -5   5   7   -0.01    0.13
   4  -5  -7   10.80    0.80
   4  -5  -7   12.65    0.92
   4  -5  -7   10.97    0.91
   4  -5  -7   12.47    0.85
   4  -5  -7   10.45    0.52
  -4   5   7   10.22    0.73
  -4   5   7   11.15    0.61
  -4   5   7   12.14    0.60
   3  -5  -7   10.44    0.51
   3  -5  -7   10.04    0.69
   3  -5  -7   10.24    0.79
   3  -5  -7   11.47    0.84
   3  -5  -7    9.50    0.73
  -3   5   7   10.85    0.59
  -3   5   7   10.20    0.55
  -3   5   7   10.48    0.70
   2  -5  -7   46.00    1.53
   2  -5  -7   49.65    1.71
   2  -5  -7   47.13    1.74
   2  -5  -7   45.42    1.21
   2  -5  -7   46.62    1.23
   2  -5  -7   46.03    1.71
  -2   5   7   48.03    1.31
  -2   5   7   46.66    1.38
  -2   5   7   45.69    1.55
   1  -5  -7    0.25    0.15
   1  -5  -7    0.58    0.22
   1  -5  -7    0.82    0.29
   1  -5  -7    0.41    0.14
   1  -5  -7    0.53    0.15
   1  -5  -7    0.29    0.15
   1  -5  -7    0.20    0.16
  -1   5   7    0.13    0.12
  -1   5   7    0.52    0.24
  -1   5   7    0.65    0.17
   0  -5  -7   -0.02    0.09
   0  -5  -7   -0.02    0.09
   0  -5  -7    0.05    0.11
   0  -5  -7   -0.01    0.10
   0  -5  -7    0.03    0.15
   0  -5  -7    0.08    0.11
   0  -5  -7    0.04    0.14
   0   5   7    0.18    0.18
   0   5   7    0.10    0.10
  -1  -5  -7    0.73    0.19
  -1  -5  -7    0.65    0.18
  -1  -5  -7    0.68    0.18
  -1  -5  -7    0.74    0.25
  -1  -5  -7    0.58    0.22
  -1  -5  -7    0.70    0.23
   1   5   7    1.11    0.30
  -2  -5  -7   -0.06    0.08
  -2  -5  -7    0.11    0.13
  -2  -5  -7    0.07    0.11
  -2  -5  -7   -0.01    0.11
  -2  -5  -7    0.05    0.14
   2   5   7   -0.03    0.15
  -3  -5  -7   -0.01    0.13
  -3  -5  -7   -0.05    0.09
  -3  -5  -7    0.04    0.10
  -3  -5  -7    0.06    0.12
   3   5   7    0.16    0.20
  -4  -5  -7    0.48    0.20
  -4  -5  -7    0.63    0.18
  -4  -5  -7    0.67    0.19
  -4  -5  -7    0.63    0.26
   4   5   7    0.20    0.24
  -5  -5  -7    0.21    0.19
  -5  -5  -7   -0.08    0.16
   5   5   7   -0.19    0.19
  -6  -5  -7    0.41    0.23
   7  -6  -7    0.16    0.26
  -7   6   7    0.22    0.22
  -7   6   7   -0.16    0.24
   6  -6  -7    0.18    0.29
   6  -6  -7   -0.14    0.23
  -6   6   7    0.08    0.18
  -6   6   7    0.33    0.25
   5  -6  -7    0.17    0.32
   5  -6  -7    0.74    0.32
   5  -6  -7    0.45    0.31
  -5   6   7    0.74    0.31
  -5   6   7    0.15    0.18
  -5   6   7    0.26    0.21
   4  -6  -7    0.21    0.24
   4  -6  -7   -0.01    0.11
   4  -6  -7    0.11    0.23
   4  -6  -7   -0.12    0.20
  -4   6   7    0.15    0.18
  -4   6   7    0.18    0.20
  -4   6   7    0.01    0.15
   3  -6  -7    0.20    0.24
   3  -6  -7   -0.08    0.18
   3  -6  -7   -0.19    0.16
   3  -6  -7    0.03    0.10
   3  -6  -7   -0.04    0.19
  -3   6   7   -0.12    0.12
  -3   6   7    0.09    0.17
  -3   6   7    0.01    0.13
   2  -6  -7    0.52    0.25
   2  -6  -7    0.16    0.12
   2  -6  -7    0.08    0.20
   2  -6  -7    0.85    0.26
   2  -6  -7    0.56    0.17
  -2   6   7    0.43    0.17
  -2   6   7    0.69    0.22
   1  -6  -7   59.92    1.58
   1  -6  -7   60.05    1.72
   1  -6  -7   61.72    1.63
   1  -6  -7   59.49    2.01
   1  -6  -7   62.99    2.07
  -1   6   7   60.23    1.54
   0  -6  -7    0.02    0.11
   0  -6  -7    0.22    0.15
   0  -6  -7    0.14    0.16
   0  -6  -7    0.13    0.12
   0  -6  -7    0.14    0.15
   0   6   7    0.01    0.21
  -1  -6  -7    1.05    0.32
  -1  -6  -7    1.07    0.30
  -1  -6  -7    0.80    0.22
  -1  -6  -7    1.00    0.22
  -1  -6  -7    0.96    0.21
   1   6   7    0.37    0.26
  -2  -6  -7    0.15    0.21
  -2  -6  -7    1.57    0.36
  -2  -6  -7    0.46    0.18
  -2  -6  -7    0.43    0.17
  -2  -6  -7    0.48    0.17
   2   6   7    0.48    0.28
  -3  -6  -7    0.56    0.20
  -3  -6  -7    0.19    0.15
  -3  -6  -7    0.19    0.24
  -3  -6  -7    0.47    0.20
   3   6   7    0.18    0.27
  -4  -6  -7    0.16    0.15
  -4  -6  -7    0.33    0.18
  -4  -6  -7    0.36    0.25
   4   6   7    0.08    0.26
  -5  -6  -7    0.26    0.21
   6  -7  -7    0.42    0.37
  -6   7   7    0.96    0.41
   5  -7  -7    0.45    0.35
   5  -7  -7    0.10    0.27
  -5   7   7    0.27    0.28
  -5   7   7   -0.24    0.17
   4  -7  -7   -0.05    0.25
   4  -7  -7    0.06    0.26
   4  -7  -7    0.10    0.30
  -4   7   7    0.59    0.21
  -4   7   7    0.12    0.20
   3  -7  -7    0.17    0.27
   3  -7  -7    0.63    0.22
  -3   7   7    0.40    0.23
  -3   7   7    0.54    0.20
   2  -7  -7    4.60    0.65
   2  -7  -7    4.28    0.45
   2  -7  -7    3.52    0.41
  -2   7   7    4.83    0.48
   1  -7  -7   -0.28    0.20
   1  -7  -7   -0.01    0.12
   1  -7  -7    0.04    0.14
   0  -7  -7    8.43    0.54
   0  -7  -7    6.61    0.62
   0  -7  -7    7.43    0.54
   0  -7  -7    9.40    0.86
  -1  -7  -7   -0.04    0.16
  -1  -7  -7   -0.10    0.12
  -1  -7  -7    0.04    0.14
  -1  -7  -7    0.10    0.22
   1   7   7    0.18    0.25
  -2  -7  -7    0.06    0.14
  -2  -7  -7   -0.11    0.14
  -2  -7  -7    0.37    0.26
  -2  -7  -7    0.16    0.18
  -2  -7  -7    0.17    0.24
   2   7   7   -0.23    0.22
  -3  -7  -7    0.16    0.17
  -3  -7  -7    0.18    0.26
  -3  -7  -7   -0.12    0.14
   3   7   7   -0.23    0.26
  -4  -7  -7   -0.14    0.20
   6  -8  -7    1.28    0.48
  -4   8   7    0.04    0.19
  -4   8   7    0.08    0.23
   3  -8  -7    0.03    0.16
  -3   8   7    0.26    0.19
   2  -8  -7    0.44    0.33
   2  -8  -7    0.13    0.16
   1  -8  -7    0.18    0.17
   1  -8  -7    0.14    0.18
   1  -8  -7   -0.16    0.26
   0  -8  -7   -0.07    0.16
   0  -8  -7    0.64    0.36
   0  -8  -7    0.34    0.22
  -1  -8  -7    2.18    0.40
   1   8   7    2.32    0.60
  -2  -8  -7    0.59    0.25
   2   8   7    0.04    0.30
   3  -9  -7    0.20    0.21
   2  -9  -7   -0.18    0.19
   1  -9  -7    1.53    0.36
   0  -9  -7   -0.17    0.18
  -2 -10   8    0.66    0.28
   1  10  -8    1.81    0.56
  -1 -10   8    1.74    0.40
   0 -10   8   -0.22    0.17
   1 -10   8    0.03    0.18
   2 -10   8   -0.02    0.21
   3 -10   8    0.25    0.24
   4 -10   8    0.09    0.22
   3   9  -8    0.18    0.29
  -3  -9   8    0.23    0.19
  -3  -9   8    0.14    0.22
   2   9  -8   -0.04    0.29
  -2  -9   8    0.13    0.21
  -2  -9   8    0.00    0.17
   1   9  -8    5.64    0.83
  -1  -9   8    5.52    0.64
  -1  -9   8    5.42    0.56
   0   9  -8    0.26    0.33
   0  -9   8    0.52    0.24
   0  -9   8    0.36    0.25
   0  -9   8    0.19    0.18
   1  -9   8    0.02    0.20
   1  -9   8   -0.01    0.15
   2  -9   8    0.60    0.27
   2  -9   8   -0.04    0.15
  -3   9  -8    0.11    0.19
   3  -9   8    0.11    0.20
  -4   9  -8   -0.04    0.20
   4  -9   8    0.14    0.19
   5  -9   8   -0.01    0.21
   5   8  -8   -0.01    0.18
   4   8  -8    0.16    0.26
   3   8  -8    0.61    0.31
  -3  -8   8    0.02    0.16
  -3  -8   8    0.47    0.23
   2   8  -8    0.02    0.23
  -2  -8   8    0.19    0.16
  -2  -8   8   -0.01    0.16
  -2  -8   8   -0.18    0.12
   1   8  -8    0.00    0.23
  -1  -8   8    0.18    0.17
  -1  -8   8    0.13    0.19
  -1  -8   8   -0.04    0.13
  -1  -8   8    0.20    0.16
   0   8  -8    8.96    0.98
   0  -8   8    8.48    0.63
   0  -8   8    7.28    0.52
   0  -8   8    7.93    0.58
   1  -8   8    1.95    0.34
   1  -8   8    1.38    0.32
   1  -8   8    1.80    0.35
  -2   8  -8   -0.03    0.12
   2  -8   8   -0.06    0.12
   2  -8   8    0.06    0.18
  -3   8  -8    1.08    0.25
   3  -8   8    1.10    0.28
  -4   8  -8    0.02    0.17
  -4   8  -8    0.01    0.15
   4  -8   8    0.00    0.17
  -5   8  -8    0.11    0.23
  -5   8  -8    0.06    0.20
  -5   8  -8    0.01    0.20
   5  -8   8    0.02    0.19
   5  -8   8    0.05    0.29
  -6   8  -8    0.12    0.26
   6  -8   8    0.32    0.39
   6  -8   8    0.39    0.26
   6   7  -8    0.25    0.23
   5   7  -8    0.98    0.32
   5   7  -8    0.99    0.29
  -5  -7   8    0.91    0.25
   4   7  -8    0.78    0.28
  -4  -7   8    0.60    0.20
   3   7  -8   -0.06    0.18
  -3  -7   8   -0.04    0.13
  -3  -7   8   -0.10    0.10
  -3  -7   8    0.11    0.15
   2   7  -8    0.26    0.20
  -2  -7   8   -0.06    0.12
  -2  -7   8    0.13    0.22
  -2  -7   8    0.18    0.15
  -2  -7   8   -0.07    0.09
   1   7  -8    0.44    0.26
  -1  -7   8    0.63    0.20
  -1  -7   8    1.17    0.28
  -1  -7   8    0.62    0.19
  -1  -7   8    0.45    0.19
  -1  -7   8    0.67    0.28
   0   7  -8    0.21    0.24
   0  -7   8    0.16    0.13
   0  -7   8    0.37    0.23
   0  -7   8    0.50    0.18
   0  -7   8    0.40    0.21
  -1   7  -8    0.93    0.17
  -1   7  -8    0.80    0.31
   1  -7   8    1.15    0.34
   1  -7   8    1.71    0.33
   1  -7   8    0.85    0.23
   1  -7   8    1.63    0.27
  -2   7  -8   26.27    0.88
   2  -7   8   25.68    0.99
   2  -7   8   24.22    0.94
   2  -7   8   25.41    1.31
  -3   7  -8    0.03    0.16
  -3   7  -8    0.33    0.17
  -3   7  -8    0.23    0.16
   3  -7   8    0.10    0.14
   3  -7   8    0.17    0.22
  -4   7  -8    0.29    0.20
  -4   7  -8    0.15    0.18
  -4   7  -8    0.20    0.19
   4  -7   8    0.33    0.26
   4  -7   8    0.10    0.16
  -5   7  -8   -0.29    0.20
  -5   7  -8    0.22    0.21
  -5   7  -8   -0.23    0.16
  -5   7  -8   -0.10    0.15
   5  -7   8   -0.20    0.20
   5  -7   8   -0.07    0.14
  -6   7  -8    0.24    0.22
  -6   7  -8   -0.38    0.23
  -6   7  -8    0.13    0.25
   6  -7   8   -0.17    0.23
   6  -7   8    0.08    0.19
   7  -7   8   -0.19    0.27
   7  -7   8    0.43    0.25
   6   6  -8    0.99    0.23
   6   6  -8    0.35    0.20
   5   6  -8    1.59    0.31
   5   6  -8    1.01    0.28
   4   6  -8    3.17    0.41
   4   6  -8    4.27    0.52
  -4  -6   8    4.06    0.39
   3   6  -8    2.15    0.39
  -3  -6   8    0.71    0.19
  -3  -6   8    1.75    0.25
  -3  -6   8    1.31    0.35
   2   6  -8   -0.07    0.14
  -2  -6   8    0.10    0.13
  -2  -6   8    0.07    0.11
  -2  -6   8    0.49    0.24
  -2  -6   8    0.47    0.15
   1   6  -8    0.12    0.16
  -1  -6   8    0.25    0.16
  -1  -6   8    0.14    0.17
  -1  -6   8    0.06    0.11
  -1  -6   8    0.08    0.11
  -1  -6   8    0.27    0.14
   0   6  -8    2.31    0.46
   0  -6   8    1.77    0.30
   0  -6   8    2.02    0.33
   0  -6   8    2.00    0.28
   0  -6   8    2.17    0.41
  -1   6  -8    4.28    0.59
  -1   6  -8    3.32    0.25
  -1   6  -8    3.52    0.34
   1  -6   8    3.21    0.35
   1  -6   8    3.71    0.41
   1  -6   8    3.27    0.50
  -2   6  -8    2.72    0.30
  -2   6  -8    2.09    0.27
  -2   6  -8    2.18    0.30
   2  -6   8    1.92    0.28
   2  -6   8    1.96    0.30
   2  -6   8    2.52    0.47
   2  -6   8    2.21    0.41
   2  -6   8    1.77    0.27
  -3   6  -8   16.73    0.69
  -3   6  -8   16.68    0.80
  -3   6  -8   16.63    0.84
  -3   6  -8   14.34    0.68
   3  -6   8   15.62    0.73
   3  -6   8   15.22    0.94
   3  -6   8   16.33    0.98
  -4   6  -8    0.18    0.19
  -4   6  -8    0.30    0.17
  -4   6  -8    0.41    0.20
  -4   6  -8    0.16    0.14
   4  -6   8    0.14    0.21
   4  -6   8    0.26    0.22
   4  -6   8    0.28    0.15
  -5   6  -8   -0.01    0.16
  -5   6  -8   -0.01    0.15
  -5   6  -8   -0.05    0.17
  -5   6  -8   -0.22    0.17
   5  -6   8   -0.08    0.13
   5  -6   8   -0.11    0.19
  -6   6  -8   -0.02    0.21
  -6   6  -8   -0.19    0.19
  -6   6  -8   -0.50    0.17
  -6   6  -8    0.08    0.18
   6  -6   8    0.00    0.16
   6  -6   8   -0.15    0.17
  -7   6  -8    0.18    0.23
  -7   6  -8   -0.02    0.27
  -7   6  -8    0.06    0.22
   7  -6   8   -0.08    0.17
   7  -6   8    0.00    0.24
   7   5  -8    0.11    0.19
   6   5  -8    0.01    0.13
   6   5  -8    0.27    0.17
   5   5  -8    2.34    0.35
   5   5  -8    2.43    0.34
  -5  -5   8    2.69    0.48
   4   5  -8   26.85    1.00
   4   5  -8   27.96    1.05
  -4  -5   8   28.02    1.24
  -4  -5   8   27.52    0.82
   3   5  -8    1.34    0.27
  -3  -5   8    2.92    0.30
  -3  -5   8    2.51    0.42
  -3  -5   8    3.21    0.30
   2   5  -8    0.03    0.14
  -2  -5   8    0.10    0.09
  -2  -5   8    0.09    0.10
  -2  -5   8   -0.01    0.12
  -2  -5   8   -0.01    0.08
   1   5  -8    1.18    0.18
   1   5  -8    1.42    0.31
  -1  -5   8    1.03    0.27
  -1  -5   8    1.22    0.19
  -1  -5   8    1.25    0.24
  -1  -5   8    1.21    0.22
   0   5  -8    1.87    0.34
   0   5  -8    1.56    0.14
   0   5  -8    1.38    0.20
   0  -5   8    1.51    0.32
   0  -5   8    1.42    0.21
   0  -5   8    1.61    0.26
   0  -5   8    1.37    0.25
  -1   5  -8    0.39    0.12
  -1   5  -8    0.58    0.14
  -1   5  -8    0.48    0.15
  -1   5  -8    0.32    0.18
  -1   5  -8    0.52    0.18
   1  -5   8    0.70    0.25
   1  -5   8    0.46    0.22
   1  -5   8    0.32    0.14
   1  -5   8    0.54    0.15
  -2   5  -8    2.22    0.27
  -2   5  -8    2.40    0.31
  -2   5  -8    2.39    0.40
  -2   5  -8    2.74    0.31
  -2   5  -8    2.74    0.36
   2  -5   8    1.85    0.37
   2  -5   8    2.66    0.29
   2  -5   8    2.34    0.41
   2  -5   8    2.61    0.30
   2  -5   8    2.60    0.32
  -3   5  -8   -0.02    0.11
  -3   5  -8   -0.05    0.11
  -3   5  -8   -0.06    0.10
  -3   5  -8    0.11    0.12
   3  -5   8   -0.03    0.10
   3  -5   8    0.17    0.17
   3  -5   8    0.08    0.17
  -4   5  -8    5.85    0.41
  -4   5  -8    4.44    0.52
  -4   5  -8    5.79    0.58
  -4   5  -8    4.58    0.44
   4  -5   8    4.23    0.59
   4  -5   8    6.05    0.68
   4  -5   8    5.36    0.51
  -5   5  -8    0.28    0.19
  -5   5  -8    0.26    0.19
  -5   5  -8   -0.13    0.15
  -5   5  -8    0.09    0.15
   5  -5   8    0.14    0.20
   5  -5   8    0.14    0.18
   5  -5   8    0.22    0.16
  -6   5  -8    0.70    0.22
  -6   5  -8    0.56    0.22
  -6   5  -8    0.64    0.25
  -6   5  -8   -0.22    0.19
   6  -5   8    0.45    0.25
   6  -5   8    0.50    0.22
  -7   5  -8   -0.24    0.22
  -7   5  -8   -0.02    0.20
  -7   5  -8    0.10    0.21
   7  -5   8    0.05    0.18
   7  -5   8    0.01    0.22
   8  -5   8   -0.04    0.19
   8   4  -8   -0.04    0.19
   7   4  -8   -0.01    0.17
   6   4  -8    0.51    0.14
   6   4  -8    0.29    0.19
  -6  -4   8    0.59    0.28
   5   4  -8    0.24    0.14
   5   4  -8    0.09    0.12
  -5  -4   8    0.42    0.23
   4   4  -8    1.42    0.26
   4   4  -8    1.76    0.27
  -4  -4   8    1.73    0.35
  -4  -4   8    2.02    0.18
   3   4  -8    0.55    0.19
   3   4  -8    0.66    0.17
   3   4  -8    0.62    0.17
  -3  -4   8    0.43    0.12
  -3  -4   8    0.25    0.16
  -3  -4   8    0.66    0.13
   2   4  -8    6.14    0.37
   2   4  -8    6.22    0.37
   2   4  -8    5.46    0.43
  -2  -4   8    6.63    0.49
  -2  -4   8    6.64    0.31
  -2  -4   8    6.40    0.36
  -2  -4   8    6.72    0.35
   1   4  -8    0.07    0.08
   1   4  -8    0.00    0.06
   1   4  -8    0.18    0.15
  -1  -4   8    0.09    0.07
  -1  -4   8    0.04    0.09
  -1  -4   8    0.06    0.08
  -1  -4   8    0.12    0.14
   0   4  -8    0.02    0.06
   0   4  -8    0.03    0.08
   0   4  -8    0.04    0.12
   0   4  -8   -0.03    0.05
   0   4  -8    0.04    0.07
   0  -4   8    0.12    0.11
   0  -4   8   -0.08    0.07
   0  -4   8    0.10    0.10
   0  -4   8   -0.11    0.09
   0  -4   8   -0.11    0.06
  -1   4  -8    6.08    0.40
  -1   4  -8    6.07    0.33
  -1   4  -8    4.87    0.51
  -1   4  -8    6.15    0.38
  -1   4  -8    6.34    0.32
   1  -4   8    6.32    0.38
   1  -4   8    7.16    0.53
   1  -4   8    6.60    0.39
   1  -4   8    6.33    0.35
   1  -4   8    6.81    0.50
  -2   4  -8    2.12    0.25
  -2   4  -8    1.71    0.27
  -2   4  -8    1.45    0.22
  -2   4  -8    2.19    0.36
  -2   4  -8    1.88    0.29
   2  -4   8    1.50    0.20
   2  -4   8    1.44    0.30
   2  -4   8    1.98    0.24
   2  -4   8    2.20    0.34
   2  -4   8    2.23    0.27
  -3   4  -8    0.46    0.14
  -3   4  -8    0.67    0.19
  -3   4  -8    0.46    0.18
  -3   4  -8    0.50    0.15
   3  -4   8    0.33    0.16
   3  -4   8    0.53    0.16
   3  -4   8    0.23    0.19
  -4   4  -8    3.49    0.45
  -4   4  -8    2.11    0.34
  -4   4  -8    2.31    0.30
  -4   4  -8    1.74    0.27
   4  -4   8    2.71    0.41
   4  -4   8    2.15    0.29
   4  -4   8    2.55    0.44
  -5   4  -8    0.57    0.19
  -5   4  -8    0.62    0.19
  -5   4  -8    0.98    0.28
  -5   4  -8    0.57    0.21
   5  -4   8    0.48    0.22
   5  -4   8    0.43    0.27
   5  -4   8    1.32    0.27
  -6   4  -8    0.03    0.14
  -6   4  -8    0.03    0.15
  -6   4  -8    0.05    0.18
  -6   4  -8   -0.05    0.18
   6  -4   8    0.11    0.15
   6  -4   8   -0.17    0.16
  -7   4  -8    0.88    0.26
  -7   4  -8    0.70    0.27
  -7   4  -8    0.96    0.35
   7  -4   8    1.38    0.32
   7  -4   8    0.99    0.31
   8  -4   8   -0.07    0.16
   8   3  -8   -0.14    0.21
   7   3  -8    0.06    0.16
   6   3  -8    0.99    0.23
   6   3  -8    1.60    0.19
   5   3  -8    0.02    0.11
   5   3  -8    0.00    0.15
   5   3  -8    0.10    0.09
  -5  -3   8    0.11    0.15
   4   3  -8    1.21    0.22
   4   3  -8    1.27    0.27
   4   3  -8    1.21    0.22
  -4  -3   8    1.19    0.27
   3   3  -8    0.28    0.14
   3   3  -8    0.37    0.15
   3   3  -8    0.15    0.11
   3   3  -8    0.15    0.09
  -3  -3   8    0.17    0.15
  -3  -3   8    0.29    0.08
  -3  -3   8    0.29    0.08
   2   3  -8   18.80    0.53
   2   3  -8   19.74    0.78
   2   3  -8   19.12    0.65
   2   3  -8   18.94    0.72
   2   3  -8   18.65    0.69
  -2  -3   8   19.49    0.52
  -2  -3   8   19.44    0.63
  -2  -3   8   17.48    0.76
  -2  -3   8   18.74    0.59
   1   3  -8   14.06    0.50
   1   3  -8   14.55    0.43
   1   3  -8   13.92    0.66
   1   3  -8   14.09    0.54
   1   3  -8   13.84    0.55
  -1  -3   8   13.77    0.43
  -1  -3   8   14.72    0.55
  -1  -3   8   15.10    0.68
  -1  -3   8   14.62    0.66
  -1  -3   8   12.13    0.53
   0   3  -8    0.80    0.15
   0   3  -8    1.01    0.13
   0   3  -8    1.42    0.27
   0   3  -8    0.84    0.11
   0   3  -8    0.71    0.15
   0  -3   8    1.09    0.22
   0  -3   8    0.60    0.14
   0  -3   8    0.99    0.23
   0  -3   8    1.07    0.15
  -1   3  -8   -0.11    0.05
  -1   3  -8    0.03    0.07
  -1   3  -8    0.07    0.11
  -1   3  -8    0.02    0.08
  -1   3  -8    0.08    0.08
   1  -3   8   -0.03    0.06
   1  -3   8   -0.03    0.07
   1  -3   8    0.06    0.10
   1  -3   8    0.07    0.09
   1  -3   8   -0.01    0.09
  -2   3  -8    0.85    0.19
  -2   3  -8    1.12    0.21
  -2   3  -8    1.11    0.25
  -2   3  -8    0.82    0.16
  -2   3  -8    0.87    0.16
   2  -3   8    0.88    0.23
   2  -3   8    1.02    0.16
   2  -3   8    0.90    0.14
   2  -3   8    1.08    0.27
   2  -3   8    0.74    0.14
  -3   3  -8    0.14    0.12
  -3   3  -8    0.04    0.09
  -3   3  -8    0.22    0.14
  -3   3  -8    0.08    0.09
   3  -3   8    0.03    0.14
   3  -3   8    0.16    0.12
   3  -3   8    0.23    0.10
  -4   3  -8    0.33    0.13
  -4   3  -8    0.09    0.12
  -4   3  -8    0.26    0.16
  -4   3  -8    0.38    0.16
   4  -3   8    0.34    0.15
   4  -3   8    0.35    0.23
   4  -3   8    0.29    0.18
  -5   3  -8    1.67    0.26
  -5   3  -8    0.94    0.22
  -5   3  -8    1.61    0.32
  -5   3  -8    1.88    0.30
   5  -3   8    1.63    0.31
   5  -3   8    1.80    0.40
   5  -3   8    1.89    0.29
  -6   3  -8    7.99    0.77
  -6   3  -8    8.11    0.56
  -6   3  -8    8.13    0.51
   6  -3   8    8.06    0.55
   6  -3   8    7.70    0.60
  -7   3  -8    0.46    0.26
  -7   3  -8    0.04    0.17
  -7   3  -8    0.08    0.16
   7  -3   8    0.13    0.13
   7  -3   8    0.20    0.20
   8  -3   8    0.78    0.26
   8  -3   8    0.09    0.20
   8   2  -8    5.81    0.63
   7   2  -8    0.17    0.17
   6   2  -8    0.04    0.19
   6   2  -8    0.28    0.10
   6   2  -8    0.00    0.13
   5   2  -8    1.74    0.27
   5   2  -8    1.64    0.22
   5   2  -8    1.91    0.37
  -5  -2   8    2.40    0.35
   4   2  -8    0.13    0.10
   4   2  -8    0.46    0.18
   4   2  -8    0.21    0.10
   4   2  -8    0.13    0.13
   4   2  -8   -0.02    0.14
  -4  -2   8    0.33    0.15
   3   2  -8    3.12    0.37
   3   2  -8    3.27    0.40
   3   2  -8    3.46    0.37
   3   2  -8    3.55    0.27
   3   2  -8    2.98    0.30
  -3  -2   8    3.85    0.39
  -3  -2   8    3.61    0.19
   2   2  -8    0.41    0.13
   2   2  -8    0.45    0.13
   2   2  -8    0.51    0.17
   2   2  -8    0.65    0.16
   2   2  -8    0.64    0.17
   2   2  -8    0.64    0.13
  -2  -2   8    0.48    0.11
  -2  -2   8    0.45    0.12
  -2  -2   8    0.68    0.08
  -2  -2   8    0.49    0.12
  -2  -2   8    0.44    0.14
  -2  -2   8    0.33    0.15
   1   2  -8   29.34    0.87
   1   2  -8   30.22    0.94
   1   2  -8   30.86    0.80
   1   2  -8   29.77    0.79
   1   2  -8   29.03    0.79
   1   2  -8   28.12    0.97
  -1  -2   8   28.34    0.83
  -1  -2   8   30.14    0.65
  -1  -2   8   29.09    0.96
  -1  -2   8   28.32    0.95
   0   2  -8    1.72    0.27
   0   2  -8    1.59    0.15
   0   2  -8    1.69    0.21
   0   2  -8    1.44    0.16
   0   2  -8    1.50    0.16
   0   2  -8    1.95    0.24
   0  -2   8    1.61    0.15
   0  -2   8    1.30    0.19
   0  -2   8    1.38    0.19
   0  -2   8    1.40    0.24
   0  -2   8    1.64    0.27
  -1   2  -8    0.28    0.12
  -1   2  -8    0.15    0.09
  -1   2  -8    0.18    0.08
  -1   2  -8   -0.02    0.09
  -1   2  -8    0.28    0.07
  -1   2  -8    0.10    0.07
   1  -2   8    0.32    0.13
   1  -2   8    0.22    0.10
   1  -2   8    0.12    0.07
   1  -2   8    0.15    0.11
   1  -2   8    0.14    0.09
   1  -2   8    0.13    0.11
  -2   2  -8    0.65    0.13
  -2   2  -8    0.53    0.13
  -2   2  -8    0.70    0.17
  -2   2  -8    0.35    0.16
  -2   2  -8    0.83    0.17
   2  -2   8    0.82    0.18
   2  -2   8    0.57    0.11
   2  -2   8    0.47    0.10
   2  -2   8    0.60    0.19
   2  -2   8    0.58    0.19
   2  -2   8    0.50    0.11
  -3   2  -8    9.52    0.43
  -3   2  -8    9.48    0.42
  -3   2  -8    9.68    0.49
  -3   2  -8    9.77    0.55
   3  -2   8    9.38    0.57
   3  -2   8    8.94    0.44
   3  -2   8    9.27    0.65
  -4   2  -8    0.17    0.11
  -4   2  -8   -0.03    0.09
  -4   2  -8   -0.05    0.08
  -4   2  -8   -0.11    0.09
   4  -2   8    0.07    0.14
   4  -2   8    0.04    0.07
   4  -2   8    0.17    0.15
  -5   2  -8    0.23    0.13
  -5   2  -8    0.32    0.19
  -5   2  -8    0.04    0.11
  -5   2  -8    0.21    0.15
   5  -2   8    0.17    0.12
   5  -2   8   -0.04    0.18
   5  -2   8    0.18    0.14
  -6   2  -8    0.25    0.22
  -6   2  -8    0.28    0.18
  -6   2  -8    0.19    0.15
   6  -2   8    0.12    0.13
   6  -2   8    0.12    0.16
  -7   2  -8    7.51    0.82
  -7   2  -8    6.38    0.58
   7  -2   8    7.04    0.67
   7  -2   8    7.70    0.57
  -8   2  -8    2.03    0.57
   8  -2   8    2.16    0.40
   8  -2   8    2.51    0.42
   8   1  -8    1.27    0.31
  -8  -1   8    1.26    0.19
   7   1  -8    1.96    0.36
   7   1  -8    3.05    0.57
   6   1  -8    1.25    0.26
   6   1  -8    2.23    0.44
   6   1  -8    0.88    0.17
   5   1  -8    0.34    0.20
   5   1  -8    0.51    0.15
   5   1  -8    0.24    0.12
   5   1  -8    0.55    0.20
   4   1  -8    0.71    0.23
   4   1  -8    0.71    0.16
   4   1  -8    0.92    0.26
   4   1  -8    1.20    0.25
   4   1  -8    1.05    0.19
  -4  -1   8    1.02    0.21
   3   1  -8    0.03    0.09
   3   1  -8    0.11    0.12
   3   1  -8    0.06    0.08
   3   1  -8   -0.04    0.08
   3   1  -8    0.04    0.07
   3   1  -8   -0.04    0.08
  -3  -1   8    0.00    0.05
  -3  -1   8    0.07    0.07
  -3  -1   8    0.01    0.04
  -3  -1   8   -0.01    0.05
  -3  -1   8    0.09    0.07
   2   1  -8    0.04    0.07
   2   1  -8    0.03    0.09
   2   1  -8    0.07    0.07
   2   1  -8    0.21    0.11
   2   1  -8   -0.04    0.07
   2   1  -8    0.07    0.08
  -2  -1   8    0.14    0.11
  -2  -1   8    0.08    0.07
  -2  -1   8    0.02    0.07
  -2  -1   8    0.05    0.08
  -2  -1   8    0.08    0.07
   1   1  -8    7.96    0.26
   1   1  -8    7.57    0.45
   1   1  -8    7.38    0.37
   1   1  -8    7.56    0.23
   1   1  -8    8.21    0.41
   1   1  -8    8.33    0.35
   1   1  -8    6.93    0.39
   1   1  -8    7.71    0.22
   1   1  -8    7.85    0.36
   1   1  -8    7.78    0.44
  -1  -1   8    8.43    0.42
  -1  -1   8    8.01    0.38
  -1  -1   8    7.85    0.20
  -1  -1   8    7.56    0.36
  -1  -1   8    8.34    0.46
   0   1  -8   51.37    1.23
   0   1  -8   50.47    1.09
   0   1  -8   50.46    1.12
   0   1  -8   50.10    1.10
   0   1  -8   49.34    1.41
   0   1  -8   48.08    1.25
   0  -1   8   49.34    1.29
   0  -1   8   49.39    1.21
   0  -1   8   50.08    1.03
   0  -1   8   50.64    1.39
   0  -1   8   48.45    1.21
   0  -1   8   49.21    1.35
  -1   1  -8    7.16    0.46
  -1   1  -8    6.49    0.24
  -1   1  -8    6.21    0.31
  -1   1  -8    5.92    0.36
  -1   1  -8    7.08    0.37
  -1   1  -8    6.75    0.30
   1  -1   8    6.85    0.33
   1  -1   8    7.22    0.33
   1  -1   8    5.48    0.40
   1  -1   8    6.22    0.38
   1  -1   8    6.44    0.44
   1  -1   8    6.34    0.28
  -2   1  -8    3.22    0.30
  -2   1  -8    3.69    0.25
  -2   1  -8    4.10    0.25
  -2   1  -8    4.41    0.33
  -2   1  -8    4.08    0.13
  -2   1  -8    4.77    0.48
   2  -1   8    4.53    0.48
   2  -1   8    3.76    0.16
   2  -1   8    4.83    0.47
   2  -1   8    4.07    0.30
   2  -1   8    4.13    0.26
   2  -1   8    4.04    0.20
  -3   1  -8    0.99    0.19
  -3   1  -8    0.65    0.14
  -3   1  -8    0.53    0.16
  -3   1  -8    0.32    0.11
   3  -1   8    0.81    0.21
   3  -1   8    0.70    0.22
   3  -1   8    0.40    0.12
  -4   1  -8   -0.07    0.09
  -4   1  -8    0.10    0.11
  -4   1  -8    0.09    0.09
  -4   1  -8    0.00    0.08
   4  -1   8    0.14    0.11
   4  -1   8   -0.03    0.06
   4  -1   8    0.18    0.16
  -5   1  -8    0.02    0.10
  -5   1  -8   -0.07    0.13
  -5   1  -8    0.05    0.11
   5  -1   8   -0.01    0.08
   5  -1   8   -0.07    0.11
  -6   1  -8    0.14    0.14
  -6   1  -8    0.36    0.15
  -6   1  -8    0.19    0.20
   6  -1   8    0.08    0.15
   6  -1   8    0.05    0.16
  -7   1  -8   -0.28    0.19
  -7   1  -8    0.04    0.14
  -7   1  -8    0.04    0.14
   7  -1   8   -0.08    0.13
   7  -1   8   -0.02    0.15
  -8   1  -8    6.90    0.79
   8  -1   8    7.08    0.72
   8  -1   8    7.06    0.68
   9   0  -8    0.65    0.29
   8   0  -8    0.02    0.21
  -8   0   8    0.07    0.13
   7   0  -8    1.29    0.43
   7   0  -8    1.44    0.30
   7   0  -8    1.35    0.20
   7   0  -8    1.37    0.20
  -7   0   8    1.16    0.21
   6   0  -8    7.14    0.75
   6   0  -8    5.21    0.67
   6   0  -8    4.81    0.49
   6   0  -8    5.75    0.38
  -6   0   8    5.33    0.33
   5   0  -8    0.01    0.16
   5   0  -8    0.04    0.10
   5   0  -8    0.13    0.12
   5   0  -8    0.17    0.18
   5   0  -8    0.23    0.18
  -5   0   8    0.18    0.10
   4   0  -8    1.36    0.29
   4   0  -8    1.56    0.33
   4   0  -8    1.95    0.27
   4   0  -8    2.02    0.35
   4   0  -8    1.81    0.27
  -4   0   8    1.53    0.19
  -4   0   8    1.40    0.13
  -4   0   8    1.82    0.22
   3   0  -8    3.11    0.35
   3   0  -8    3.81    0.42
   3   0  -8    3.04    0.30
   3   0  -8    3.75    0.44
   3   0  -8    3.05    0.42
  -3   0   8    2.94    0.19
  -3   0   8    3.55    0.21
  -3   0   8    3.41    0.26
  -3   0   8    2.94    0.20
  -3   0   8    3.04    0.30
   2   0  -8    0.17    0.10
   2   0  -8    0.69    0.18
   2   0  -8    0.70    0.18
   2   0  -8    0.30    0.09
   2   0  -8    0.41    0.11
   2   0  -8    0.48    0.14
   2   0  -8    0.12    0.09
   2   0  -8    0.54    0.12
  -2   0   8    0.25    0.12
  -2   0   8    0.51    0.12
  -2   0   8    0.63    0.13
  -2   0   8    0.23    0.09
  -2   0   8    0.59    0.13
   1   0  -8    1.78    0.17
   1   0  -8    2.24    0.30
   1   0  -8    1.60    0.18
   1   0  -8    1.59    0.22
   1   0  -8    1.64    0.08
   1   0  -8    1.49    0.20
   1   0  -8    1.18    0.19
   1   0  -8    1.18    0.22
   1   0  -8    1.36    0.12
  -1   0   8    1.42    0.22
  -1   0   8    1.40    0.23
  -1   0   8    1.53    0.21
  -1   0   8    2.04    0.23
  -1   0   8    1.49    0.19
   0   0  -8    6.56    0.30
   0   0  -8    6.48    0.27
   0   0  -8    6.73    0.37
   0   0  -8    7.29    0.38
   0   0  -8    7.10    0.29
   0   0  -8    6.93    0.43
   0   0   8    5.88    0.37
   0   0   8    6.39    0.23
   0   0   8    6.78    0.40
   0   0   8    5.60    0.32
   0   0   8    5.75    0.41
   0   0   8    6.20    0.32
  -1   0  -8   13.66    0.64
  -1   0  -8   14.10    0.57
  -1   0  -8   14.23    0.55
  -1   0  -8   14.14    0.49
  -1   0  -8   13.90    0.47
   1   0   8   13.89    0.64
   1   0   8   13.79    0.66
   1   0   8   14.09    0.47
   1   0   8   14.48    0.45
   1   0   8   13.46    0.58
   1   0   8   14.38    0.49
  -2   0  -8    7.36    0.47
  -2   0  -8    6.86    0.33
  -2   0  -8    7.15    0.33
  -2   0  -8    6.45    0.37
  -2   0  -8    7.14    0.41
   2   0   8    7.56    0.50
   2   0   8    6.99    0.43
   2   0   8    6.56    0.47
   2   0   8    6.74    0.34
  -3   0  -8    1.46    0.19
  -3   0  -8    0.77    0.17
  -3   0  -8    0.90    0.15
  -3   0  -8    0.97    0.21
   3   0   8    0.80    0.21
   3   0   8    0.96    0.17
  -4   0  -8    4.56    0.30
  -4   0  -8    5.43    0.51
  -4   0  -8    4.50    0.29
  -4   0  -8    4.91    0.35
   4   0   8    3.80    0.36
   4   0   8    5.33    0.54
  -5   0  -8    0.17    0.11
  -5   0  -8    0.03    0.15
  -5   0  -8    0.42    0.15
   5   0   8    0.29    0.15
   5   0   8    0.46    0.18
  -6   0  -8    0.13    0.12
  -6   0  -8    0.19    0.19
  -6   0  -8    0.34    0.16
   6   0   8    0.09    0.14
   6   0   8    0.48    0.21
  -7   0  -8    0.55    0.26
  -7   0  -8    0.22    0.16
  -7   0  -8    0.52    0.20
   7   0   8    0.18    0.18
   7   0   8    0.23    0.18
  -8   0  -8    1.96    0.47
   8   0   8    1.65    0.34
   8  -1  -8   -0.13    0.09
  -8   1   8   -0.10    0.16
   7  -1  -8    0.00    0.17
   7  -1  -8    0.15    0.28
   7  -1  -8    0.19    0.15
  -7   1   8    0.08    0.13
   6  -1  -8    2.33    0.37
   6  -1  -8    3.50    0.56
   6  -1  -8    2.08    0.31
   6  -1  -8    3.08    0.54
  -6   1   8    2.24    0.30
   5  -1  -8   29.12    1.02
   5  -1  -8   28.48    1.39
   5  -1  -8   27.39    1.23
   5  -1  -8   30.44    1.30
   5  -1  -8   27.96    1.02
  -5   1   8   28.90    0.70
  -5   1   8   28.38    0.92
   4  -1  -8    0.61    0.19
   4  -1  -8    0.69    0.18
   4  -1  -8    0.83    0.26
   4  -1  -8    0.66    0.25
   4  -1  -8    0.52    0.22
  -4   1   8    0.59    0.12
  -4   1   8    0.96    0.19
  -4   1   8    0.86    0.14
   3  -1  -8    4.61    0.49
   3  -1  -8    4.01    0.49
   3  -1  -8    4.84    0.33
   3  -1  -8    5.01    0.47
   3  -1  -8    4.19    0.45
  -3   1   8    4.28    0.32
  -3   1   8    4.27    0.27
  -3   1   8    4.72    0.28
   2  -1  -8   -0.03    0.08
   2  -1  -8    0.04    0.03
   2  -1  -8    0.03    0.07
   2  -1  -8    0.01    0.08
   2  -1  -8    0.07    0.10
   2  -1  -8   -0.01    0.04
   2  -1  -8    0.16    0.11
   2  -1  -8   -0.09    0.09
  -2   1   8   -0.02    0.08
  -2   1   8    0.01    0.08
  -2   1   8    0.10    0.07
  -2   1   8   -0.03    0.06
   1  -1  -8    2.11    0.20
   1  -1  -8    2.26    0.16
   1  -1  -8    2.70    0.32
   1  -1  -8    2.09    0.12
   1  -1  -8    1.85    0.24
   1  -1  -8    1.86    0.26
   1  -1  -8    2.11    0.22
   1  -1  -8    2.59    0.33
   1  -1  -8    2.18    0.31
  -1   1   8    2.04    0.30
  -1   1   8    1.77    0.22
  -1   1   8    2.42    0.31
  -1   1   8    2.53    0.26
   0  -1  -8    0.57    0.15
   0  -1  -8    0.76    0.13
   0  -1  -8    0.78    0.13
   0  -1  -8    1.03    0.11
   0  -1  -8    0.70    0.18
   0  -1  -8    0.72    0.19
   0  -1  -8    0.65    0.16
   0   1   8    0.74    0.14
   0   1   8    0.69    0.19
   0   1   8    0.56    0.16
   0   1   8    0.82    0.11
   0   1   8    0.66    0.13
  -1  -1  -8   25.17    0.74
  -1  -1  -8   26.68    0.97
  -1  -1  -8   26.08    0.83
  -1  -1  -8   25.15    0.84
  -1  -1  -8   26.50    0.68
  -1  -1  -8   25.05    0.71
   1   1   8   27.15    0.88
   1   1   8   25.26    0.68
   1   1   8   25.87    0.73
   1   1   8   26.37    0.98
   1   1   8   24.73    0.68
  -2  -1  -8    0.11    0.08
  -2  -1  -8    0.03    0.06
  -2  -1  -8    0.05    0.07
  -2  -1  -8   -0.02    0.08
   2   1   8    0.01    0.06
   2   1   8    0.03    0.11
  -3  -1  -8   59.63    1.54
  -3  -1  -8   58.73    1.38
  -3  -1  -8   60.36    1.58
  -3  -1  -8   58.50    1.37
   3   1   8   58.13    1.71
   3   1   8   59.67    1.45
  -4  -1  -8    0.14    0.10
  -4  -1  -8    0.11    0.10
  -4  -1  -8    0.22    0.14
  -4  -1  -8    0.06    0.10
   4   1   8    0.25    0.14
   4   1   8    0.03    0.14
  -5  -1  -8    0.69    0.19
  -5  -1  -8    0.45    0.20
  -5  -1  -8    0.56    0.13
   5   1   8    0.48    0.21
   5   1   8    0.40    0.14
  -6  -1  -8    0.17    0.19
  -6  -1  -8   -0.22    0.11
  -6  -1  -8    0.11    0.13
   6   1   8    0.36    0.15
   6   1   8    0.04    0.15
  -7  -1  -8    0.23    0.23
  -7  -1  -8    0.09    0.16
  -7  -1  -8   -0.02    0.13
   7   1   8   -0.01    0.16
   7   1   8   -0.06    0.13
   8  -2  -8    0.98    0.25
  -8   2   8    1.08    0.30
   7  -2  -8   -0.26    0.23
   7  -2  -8    0.04    0.15
   7  -2  -8    0.11    0.27
  -7   2   8   -0.12    0.13
   6  -2  -8    5.96    0.75
   6  -2  -8    6.46    0.50
   6  -2  -8    5.28    0.70
  -6   2   8    4.70    0.29
  -6   2   8    5.26    0.49
   5  -2  -8    0.07    0.13
   5  -2  -8   -0.08    0.17
   5  -2  -8    0.17    0.20
   5  -2  -8    0.12    0.18
  -5   2   8    0.06    0.12
  -5   2   8    0.19    0.09
   4  -2  -8    2.12    0.42
   4  -2  -8    1.79    0.36
   4  -2  -8    1.74    0.36
   4  -2  -8    2.32    0.35
  -4   2   8    1.85    0.28
  -4   2   8    2.33    0.26
  -4   2   8    1.90    0.23
   3  -2  -8    0.03    0.13
   3  -2  -8    0.06    0.13
   3  -2  -8    0.05    0.11
   3  -2  -8   -0.03    0.10
  -3   2   8    0.04    0.11
  -3   2   8    0.10    0.09
  -3   2   8    0.08    0.08
   2  -2  -8    9.43    0.59
   2  -2  -8    9.39    0.61
   2  -2  -8    9.12    0.54
   2  -2  -8    9.28    0.31
   2  -2  -8    9.30    0.57
  -2   2   8    8.81    0.55
  -2   2   8    9.01    0.51
  -2   2   8    9.45    0.44
  -2   2   8    9.08    0.43
   1  -2  -8   -0.01    0.08
   1  -2  -8    0.02    0.07
   1  -2  -8    0.15    0.13
   1  -2  -8    0.10    0.07
   1  -2  -8    0.07    0.05
   1  -2  -8    0.03    0.09
   1  -2  -8    0.06    0.07
   1  -2  -8   -0.02    0.08
   1  -2  -8   -0.06    0.08
  -1   2   8    0.01    0.07
  -1   2   8    0.02    0.07
  -1   2   8    0.17    0.11
  -1   2   8    0.01    0.10
   0  -2  -8    0.43    0.19
   0  -2  -8    0.18    0.10
   0  -2  -8    0.24    0.12
   0  -2  -8    0.35    0.11
   0  -2  -8    0.26    0.12
   0  -2  -8    0.25    0.08
   0  -2  -8    0.18    0.09
   0   2   8    0.34    0.14
   0   2   8    0.31    0.11
   0   2   8    0.55    0.14
   0   2   8    0.30    0.14
  -1  -2  -8    0.54    0.11
  -1  -2  -8    0.40    0.13
  -1  -2  -8    0.26    0.16
  -1  -2  -8    0.42    0.12
  -1  -2  -8    0.36    0.10
  -1  -2  -8    0.55    0.16
   1   2   8    0.25    0.09
   1   2   8    0.33    0.09
   1   2   8    0.32    0.13
   1   2   8    0.39    0.10
   1   2   8    0.25    0.15
  -2  -2  -8    0.08    0.10
  -2  -2  -8    0.09    0.08
  -2  -2  -8    0.11    0.11
  -2  -2  -8    0.12    0.08
  -2  -2  -8    0.03    0.07
   2   2   8    0.07    0.08
   2   2   8    0.02    0.10
  -3  -2  -8    6.23    0.35
  -3  -2  -8    7.44    0.46
  -3  -2  -8    6.43    0.44
  -3  -2  -8    6.74    0.38
  -3  -2  -8    6.68    0.34
   3   2   8    6.53    0.51
   3   2   8    5.89    0.37
  -4  -2  -8   34.90    0.99
  -4  -2  -8   36.11    1.15
  -4  -2  -8   35.05    1.06
  -4  -2  -8   35.95    0.97
  -4  -2  -8   34.44    1.11
   4   2   8   34.70    1.08
   4   2   8   33.48    1.26
  -5  -2  -8    0.30    0.16
  -5  -2  -8    0.01    0.14
  -5  -2  -8    0.15    0.13
  -5  -2  -8    0.37    0.13
   5   2   8    0.17    0.15
   5   2   8    0.10    0.11
  -6  -2  -8    0.34    0.17
  -6  -2  -8    0.00    0.14
  -6  -2  -8    0.22    0.13
   6   2   8    0.34    0.18
   6   2   8    0.33    0.20
  -7  -2  -8   -0.09    0.14
   7   2   8   -0.15    0.14
   7   2   8   -0.15    0.17
   7   2   8    0.09    0.19
   8  -3  -8   -0.18    0.17
  -8   3   8    0.09    0.24
   7  -3  -8    0.03    0.17
   7  -3  -8   -0.03    0.25
   7  -3  -8   -0.24    0.26
  -7   3   8   -0.05    0.19
  -7   3   8    0.04    0.12
   6  -3  -8    0.17    0.21
   6  -3  -8    0.02    0.17
   6  -3  -8   -0.02    0.20
  -6   3   8    0.08    0.11
  -6   3   8   -0.01    0.15
   5  -3  -8    5.03    0.66
   5  -3  -8    5.44    0.60
   5  -3  -8    6.65    0.78
   5  -3  -8    5.24    0.76
  -5   3   8    5.41    0.36
  -5   3   8    5.15    0.53
  -5   3   8    6.27    0.38
   4  -3  -8    6.02    0.60
   4  -3  -8    6.06    0.69
   4  -3  -8    6.91    0.78
   4  -3  -8    6.62    0.70
  -4   3   8    6.30    0.38
  -4   3   8    6.56    0.39
  -4   3   8    5.69    0.53
   3  -3  -8  147.60    3.77
   3  -3  -8  148.87    3.55
   3  -3  -8  135.39    3.35
   3  -3  -8  136.66    3.36
  -3   3   8  140.67    2.97
  -3   3   8  135.75    3.00
  -3   3   8  142.56    3.21
   2  -3  -8    0.14    0.12
   2  -3  -8    0.10    0.07
   2  -3  -8    0.16    0.14
   2  -3  -8    0.57    0.19
   2  -3  -8    0.48    0.21
   2  -3  -8    0.18    0.07
  -2   3   8    0.30    0.12
  -2   3   8    0.30    0.16
  -2   3   8    0.26    0.11
   1  -3  -8    0.54    0.19
   1  -3  -8    0.73    0.15
   1  -3  -8    0.95    0.17
   1  -3  -8    0.91    0.23
   1  -3  -8    0.53    0.11
   1  -3  -8    0.43    0.18
   1  -3  -8    0.73    0.23
   1  -3  -8    0.42    0.15
  -1   3   8    0.47    0.14
  -1   3   8    0.69    0.22
  -1   3   8    0.39    0.13
  -1   3   8    0.73    0.24
  -1   3   8    0.43    0.18
   0  -3  -8    0.32    0.10
   0  -3  -8    0.16    0.11
   0  -3  -8    0.62    0.18
   0  -3  -8    0.29    0.11
   0  -3  -8    0.41    0.19
   0  -3  -8    0.24    0.13
   0  -3  -8    0.38    0.12
   0   3   8    0.53    0.14
   0   3   8    0.30    0.18
   0   3   8    0.22    0.14
   0   3   8    0.26    0.10
  -1  -3  -8    1.73    0.23
  -1  -3  -8    1.72    0.29
  -1  -3  -8    1.85    0.21
  -1  -3  -8    2.38    0.26
  -1  -3  -8    1.52    0.25
  -1  -3  -8    1.67    0.25
   1   3   8    2.12    0.36
   1   3   8    2.14    0.15
  -2  -3  -8    0.60    0.14
  -2  -3  -8    0.67    0.17
  -2  -3  -8    0.93    0.22
  -2  -3  -8    0.81    0.16
  -2  -3  -8    0.88    0.17
   2   3   8    0.87    0.25
   2   3   8    0.60    0.14
  -3  -3  -8    4.45    0.45
  -3  -3  -8    4.62    0.42
  -3  -3  -8    5.13    0.35
  -3  -3  -8    4.92    0.31
  -3  -3  -8    5.05    0.33
   3   3   8    4.87    0.55
   3   3   8    5.37    0.37
  -4  -3  -8   15.66    0.62
  -4  -3  -8   15.81    0.67
  -4  -3  -8   15.66    0.75
  -4  -3  -8   16.71    0.74
  -4  -3  -8   16.58    0.61
   4   3   8   14.98    0.69
   4   3   8   15.96    0.87
  -5  -3  -8    0.84    0.24
  -5  -3  -8    0.54    0.18
  -5  -3  -8    0.53    0.16
   5   3   8    0.84    0.21
   5   3   8    0.35    0.21
   5   3   8    0.75    0.27
  -6  -3  -8    0.02    0.14
  -6  -3  -8    0.03    0.14
  -6  -3  -8    0.10    0.16
   6   3   8   -0.02    0.17
   6   3   8    0.12    0.22
   6   3   8   -0.01    0.14
  -7  -3  -8    0.17    0.15
   7   3   8   -0.01    0.14
   8  -4  -8   -0.15    0.21
   7  -4  -8    0.13    0.24
   7  -4  -8   -0.08    0.24
  -7   4   8    0.20    0.24
  -7   4   8    0.18    0.17
   6  -4  -8    1.02    0.40
   6  -4  -8    0.93    0.32
   6  -4  -8    1.31    0.39
  -6   4   8    0.95    0.23
  -6   4   8    0.64    0.28
   5  -4  -8    2.44    0.43
   5  -4  -8    1.56    0.42
   5  -4  -8    2.40    0.55
  -5   4   8    2.38    0.41
  -5   4   8    2.99    0.36
  -5   4   8    2.34    0.32
   4  -4  -8    2.54    0.49
   4  -4  -8    3.30    0.58
   4  -4  -8    1.85    0.40
   4  -4  -8    3.24    0.53
  -4   4   8    2.54    0.33
  -4   4   8    2.67    0.34
  -4   4   8    2.62    0.43
   3  -4  -8    3.60    0.32
   3  -4  -8    2.77    0.49
   3  -4  -8    3.21    0.47
   3  -4  -8    2.69    0.44
   3  -4  -8    2.78    0.45
  -3   4   8    2.57    0.40
  -3   4   8    2.48    0.31
  -3   4   8    3.64    0.40
   2  -4  -8   54.17    1.64
   2  -4  -8   52.47    1.84
   2  -4  -8   50.65    1.24
   2  -4  -8   50.05    1.75
   2  -4  -8   50.92    1.73
   2  -4  -8   53.67    1.26
  -2   4   8   50.97    1.44
  -2   4   8   51.71    1.39
  -2   4   8   53.50    1.64
   1  -4  -8    2.28    0.37
   1  -4  -8    2.72    0.36
   1  -4  -8    1.67    0.25
   1  -4  -8    2.54    0.26
   1  -4  -8    2.23    0.37
   1  -4  -8    2.45    0.40
   1  -4  -8    2.34    0.27
  -1   4   8    2.57    0.30
  -1   4   8    2.07    0.35
  -1   4   8    1.68    0.36
  -1   4   8    2.64    0.32
   0  -4  -8    1.67    0.26
   0  -4  -8    1.29    0.25
   0  -4  -8    1.70    0.23
   0  -4  -8    1.32    0.28
   0  -4  -8    1.64    0.21
   0  -4  -8    1.90    0.32
   0  -4  -8    1.52    0.30
   0   4   8    1.13    0.30
   0   4   8    1.47    0.20
   0   4   8    1.72    0.37
  -1  -4  -8    0.39    0.13
  -1  -4  -8    0.01    0.12
  -1  -4  -8    0.33    0.13
  -1  -4  -8    0.17    0.11
  -1  -4  -8    0.31    0.12
  -1  -4  -8    0.36    0.17
   1   4   8    0.30    0.18
   1   4   8   -0.02    0.15
  -2  -4  -8    1.55    0.23
  -2  -4  -8    1.62    0.23
  -2  -4  -8    1.95    0.28
  -2  -4  -8    1.61    0.30
  -2  -4  -8    1.95    0.33
  -2  -4  -8    1.65    0.24
   2   4   8    2.44    0.43
   2   4   8    2.04    0.42
  -3  -4  -8   -0.01    0.09
  -3  -4  -8    0.05    0.13
  -3  -4  -8   -0.01    0.09
  -3  -4  -8    0.04    0.10
   3   4   8   -0.08    0.15
   3   4   8    0.07    0.16
   3   4   8    0.15    0.09
  -4  -4  -8    0.26    0.14
  -4  -4  -8    0.53    0.20
  -4  -4  -8    0.22    0.16
  -4  -4  -8    0.28    0.12
   4   4   8   -0.18    0.17
   4   4   8    0.54    0.26
   4   4   8    0.16    0.14
  -5  -4  -8   20.10    0.96
  -5  -4  -8   19.23    0.84
  -5  -4  -8   18.74    0.77
   5   4   8   19.94    0.88
   5   4   8   20.44    1.08
  -6  -4  -8    0.44    0.22
   6   4   8    0.49    0.28
   6   4   8    0.56    0.24
   7  -5  -8    0.15    0.36
   7  -5  -8   -0.04    0.23
  -7   5   8    0.11    0.24
   6  -5  -8   -0.02    0.26
   6  -5  -8    0.03    0.24
   6  -5  -8    0.04    0.26
  -6   5   8    0.12    0.16
  -6   5   8   -0.05    0.21
  -6   5   8   -0.04    0.15
   5  -5  -8    0.24    0.32
   5  -5  -8    0.28    0.27
   5  -5  -8   -0.05    0.22
  -5   5   8    0.34    0.26
  -5   5   8    0.15    0.16
  -5   5   8    0.21    0.16
   4  -5  -8    3.76    0.61
   4  -5  -8    3.42    0.56
   4  -5  -8    3.76    0.56
  -4   5   8    4.23    0.47
  -4   5   8    4.04    0.57
  -4   5   8    4.60    0.48
   3  -5  -8    1.73    0.42
   3  -5  -8    2.59    0.51
   3  -5  -8    2.17    0.28
   3  -5  -8    2.81    0.51
   3  -5  -8    2.13    0.41
  -3   5   8    3.29    0.41
  -3   5   8    2.93    0.48
  -3   5   8    2.88    0.37
   2  -5  -8    6.92    0.40
   2  -5  -8    6.95    0.39
   2  -5  -8    5.98    0.69
   2  -5  -8    7.83    0.84
   2  -5  -8    8.42    0.75
   2  -5  -8    6.67    0.74
  -2   5   8    6.80    0.44
  -2   5   8    6.44    0.47
  -2   5   8    7.23    0.69
   1  -5  -8    4.51    0.56
   1  -5  -8    5.32    0.59
   1  -5  -8    4.81    0.33
   1  -5  -8    3.56    0.37
   1  -5  -8    4.73    0.46
   1  -5  -8    4.29    0.48
  -1   5   8    4.15    0.43
  -1   5   8    3.63    0.37
   0  -5  -8   -0.01    0.12
   0  -5  -8   -0.06    0.09
   0  -5  -8    0.11    0.14
   0  -5  -8    0.10    0.11
   0  -5  -8    0.06    0.14
   0  -5  -8    0.31    0.18
   0  -5  -8    0.13    0.15
   0   5   8    0.15    0.11
   0   5   8    0.01    0.18
  -1  -5  -8    0.67    0.19
  -1  -5  -8    0.38    0.23
  -1  -5  -8    0.74    0.25
  -1  -5  -8    0.76    0.19
  -1  -5  -8    0.44    0.15
  -1  -5  -8    0.52    0.23
   1   5   8    1.02    0.35
  -2  -5  -8    0.04    0.11
  -2  -5  -8    0.17    0.20
  -2  -5  -8    0.07    0.11
  -2  -5  -8    0.18    0.13
   2   5   8   -0.01    0.17
  -3  -5  -8   -0.14    0.10
  -3  -5  -8    0.06    0.11
  -3  -5  -8   -0.03    0.16
  -3  -5  -8    0.02    0.10
   3   5   8    0.11    0.22
  -4  -5  -8    0.27    0.18
  -4  -5  -8    0.63    0.26
  -4  -5  -8    0.25    0.16
  -4  -5  -8    0.16    0.13
   4   5   8    0.38    0.24
  -5  -5  -8    0.00    0.15
  -5  -5  -8    0.18    0.19
   5   5   8    0.05    0.22
   7  -6  -8    2.15    0.56
  -7   6   8    3.65    0.51
   6  -6  -8    0.18    0.29
   6  -6  -8   -0.46    0.25
  -6   6   8    0.03    0.24
  -6   6   8    0.08    0.19
   5  -6  -8    0.11    0.22
   5  -6  -8   -0.22    0.29
   5  -6  -8   -0.05    0.27
  -5   6   8    0.11    0.18
  -5   6   8   -0.18    0.16
  -5   6   8   -0.09    0.22
   4  -6  -8   -0.02    0.24
   4  -6  -8    0.13    0.25
   4  -6  -8    0.35    0.28
  -4   6   8    0.04    0.15
  -4   6   8   -0.08    0.23
  -4   6   8    0.18    0.19
   3  -6  -8    0.36    0.26
   3  -6  -8    0.74    0.32
   3  -6  -8    0.76    0.21
   3  -6  -8    0.49    0.29
  -3   6   8    0.67    0.22
  -3   6   8    1.08    0.27
   2  -6  -8    0.10    0.13
   2  -6  -8    0.02    0.21
   2  -6  -8    0.17    0.22
   2  -6  -8   -0.11    0.18
   2  -6  -8    0.15    0.12
  -2   6   8    0.14    0.15
  -2   6   8   -0.07    0.14
   1  -6  -8    6.12    0.42
   1  -6  -8    3.60    0.56
   1  -6  -8    5.24    0.49
   1  -6  -8    4.49    0.60
  -1   6   8    5.10    0.38
   0  -6  -8    1.31    0.38
   0  -6  -8    1.32    0.33
   0  -6  -8    1.44    0.26
   0  -6  -8    1.72    0.30
   0  -6  -8    1.49    0.30
   0   6   8    1.41    0.37
  -1  -6  -8    0.10    0.13
  -1  -6  -8    0.13    0.13
  -1  -6  -8    0.21    0.21
  -1  -6  -8    0.15    0.20
  -1  -6  -8    0.17    0.15
   1   6   8    0.20    0.22
  -2  -6  -8    0.23    0.24
  -2  -6  -8    0.37    0.17
  -2  -6  -8    0.50    0.23
  -2  -6  -8    0.45    0.20
  -2  -6  -8    0.57    0.20
   2   6   8    0.20    0.23
  -3  -6  -8   -0.09    0.23
  -3  -6  -8    0.21    0.19
  -3  -6  -8    0.12    0.14
   3   6   8    0.12    0.23
  -4  -6  -8   -0.04    0.20
  -4  -6  -8   -0.03    0.18
  -4  -6  -8   -0.01    0.15
   4   6   8   -0.21    0.24
  -5  -6  -8    0.51    0.26
   6  -7  -8    1.77    0.58
   6  -7  -8    1.78    0.56
  -6   7   8    2.09    0.52
   5  -7  -8    0.58    0.35
   5  -7  -8    0.11    0.31
  -5   7   8    0.08    0.21
   4  -7  -8    0.04    0.26
   4  -7  -8    0.29    0.23
  -4   7   8    0.21    0.17
  -4   7   8   -0.02    0.21
   3  -7  -8    0.68    0.37
  -3   7   8    0.39    0.21
  -3   7   8    0.14    0.17
   2  -7  -8    2.40    0.53
   2  -7  -8    2.64    0.38
  -2   7   8    2.21    0.34
   1  -7  -8    0.24    0.17
   1  -7  -8   -0.03    0.23
   1  -7  -8    0.05    0.15
   0  -7  -8    0.59    0.21
   0  -7  -8    0.30    0.26
   0  -7  -8    0.63    0.22
   0  -7  -8    0.60    0.25
  -1  -7  -8    4.94    0.65
  -1  -7  -8    3.83    0.46
  -1  -7  -8    4.12    0.52
  -1  -7  -8    5.21    0.51
   1   7   8    3.57    0.67
  -2  -7  -8    0.33    0.23
  -2  -7  -8    0.51    0.20
  -2  -7  -8    0.41    0.27
  -2  -7  -8    0.76    0.31
   2   7   8    1.30    0.45
  -3  -7  -8    0.01    0.26
  -3  -7  -8   -0.11    0.16
   3   7   8   -0.05    0.28
  -3   8   8    0.20    0.22
   2  -8  -8    0.28    0.18
   1  -8  -8   -0.04    0.18
   1  -8  -8    0.13    0.17
   0  -8  -8    0.07    0.20
   0  -8  -8   -0.10    0.18
  -1  -8  -8    2.60    0.42
  -2  -8  -8   11.88    0.74
   2   8   8   11.82    1.24
   2  -9  -8    0.15    0.22
   1  -9  -8    0.90    0.31
   1  10  -9    2.41    0.63
  -1 -10   9    2.44    0.42
   0 -10   9    4.65    0.59
   1 -10   9    0.80    0.29
   2 -10   9    0.06    0.20
   3 -10   9   -0.04    0.22
   3   9  -9   -0.31    0.27
   2   9  -9    0.00    0.29
  -2  -9   9    0.22    0.19
  -2  -9   9   -0.03    0.20
   1   9  -9    0.95    0.36
  -1  -9   9    0.81    0.28
  -1  -9   9    0.59    0.25
   0   9  -9    1.25    0.43
   0  -9   9    1.14    0.29
   0  -9   9    1.06    0.31
   0  -9   9    1.14    0.33
   1  -9   9    7.41    0.68
   2  -9   9    0.16    0.23
   2  -9   9    0.33    0.21
  -3   9  -9   -0.17    0.15
   3  -9   9    0.04    0.18
  -4   9  -9   -0.16    0.20
   4  -9   9   -0.02    0.22
   5  -9   9   -0.07    0.19
   5   8  -9    2.23    0.44
   4   8  -9   -0.09    0.15
   4   8  -9   -0.32    0.22
   3   8  -9    0.46    0.30
  -3  -8   9    0.16    0.19
  -3  -8   9    0.83    0.27
   2   8  -9   -0.31    0.20
  -2  -8   9   -0.04    0.15
  -2  -8   9    0.06    0.14
  -2  -8   9    0.36    0.22
   1   8  -9    0.06    0.24
  -1  -8   9   -0.13    0.17
  -1  -8   9    0.23    0.18
  -1  -8   9    0.08    0.14
   0   8  -9    1.68    0.45
   0  -8   9    1.46    0.31
   0  -8   9    0.76    0.26
   0  -8   9    1.46    0.30
   1  -8   9   -0.08    0.17
   1  -8   9   -0.02    0.13
  -2   8  -9    8.67    0.47
   2  -8   9   10.05    0.63
   2  -8   9    8.93    0.62
  -3   8  -9    6.09    0.53
   3  -8   9    5.93    0.62
  -4   8  -9   -0.01    0.16
  -4   8  -9   -0.03    0.17
   4  -8   9   -0.08    0.16
  -5   8  -9   -0.13    0.24
   5  -8   9   -0.07    0.18
  -6   8  -9    0.09    0.28
   6  -8   9    0.12    0.33
   6  -8   9   -0.06    0.21
   5   7  -9    4.55    0.56
   5   7  -9    2.97    0.46
   4   7  -9    2.58    0.46
   4   7  -9    2.75    0.40
  -4  -7   9    3.44    0.43
   3   7  -9    0.02    0.19
  -3  -7   9    0.03    0.15
  -3  -7   9   -0.04    0.12
  -3  -7   9    0.12    0.14
   2   7  -9   -0.09    0.18
  -2  -7   9    0.16    0.16
  -2  -7   9   -0.09    0.11
  -2  -7   9    0.20    0.15
   1   7  -9    1.01    0.34
  -1  -7   9    0.91    0.26
  -1  -7   9    0.92    0.35
  -1  -7   9    0.72    0.20
  -1  -7   9    1.52    0.30
   0   7  -9   -0.14    0.18
   0  -7   9    0.15    0.16
   0  -7   9    0.07    0.12
   0  -7   9   -0.20    0.16
   0  -7   9    0.14    0.15
  -1   7  -9   -0.03    0.22
   1  -7   9   -0.08    0.12
   1  -7   9   -0.17    0.20
   1  -7   9   -0.12    0.13
  -2   7  -9   -0.01    0.10
   2  -7   9    0.11    0.17
   2  -7   9    0.06    0.21
   2  -7   9    0.27    0.16
  -3   7  -9   19.70    0.89
  -3   7  -9   19.81    0.82
  -3   7  -9   20.08    0.81
   3  -7   9   18.95    0.86
  -4   7  -9    0.81    0.25
  -4   7  -9    0.63    0.22
  -4   7  -9    0.52    0.24
   4  -7   9    0.54    0.33
   4  -7   9    0.51    0.23
  -5   7  -9    0.02    0.17
  -5   7  -9   -0.06    0.24
  -5   7  -9   -0.01    0.22
  -5   7  -9   -0.19    0.16
   5  -7   9   -0.23    0.20
   5  -7   9   -0.02    0.15
  -6   7  -9   -0.04    0.24
  -6   7  -9    0.14    0.29
  -6   7  -9    0.10    0.20
   6  -7   9    0.27    0.21
   6  -7   9    0.13    0.27
   7  -7   9    0.23    0.24
   6   6  -9    0.18    0.18
   6   6  -9    0.31    0.24
   5   6  -9   -0.04    0.16
   5   6  -9    0.00    0.12
   4   6  -9   14.16    0.73
   4   6  -9   13.56    0.79
  -4  -6   9   13.53    0.64
   3   6  -9   19.66    0.97
  -3  -6   9   18.70    0.71
  -3  -6   9   18.52    1.04
  -3  -6   9   17.44    0.76
   2   6  -9    0.21    0.18
  -2  -6   9    0.52    0.23
  -2  -6   9    0.09    0.11
  -2  -6   9    0.27    0.14
  -2  -6   9    0.18    0.15
   1   6  -9    0.13    0.18
  -1  -6   9    0.23    0.19
  -1  -6   9    0.05    0.10
  -1  -6   9    0.05    0.12
  -1  -6   9    0.03    0.14
   0   6  -9    0.46    0.23
   0  -6   9    1.06    0.21
   0  -6   9    0.77    0.22
   0  -6   9    1.22    0.26
   0  -6   9    0.63    0.28
  -1   6  -9    0.86    0.19
  -1   6  -9    1.18    0.18
  -1   6  -9    0.75    0.27
   1  -6   9    1.12    0.24
   1  -6   9    1.18    0.24
   1  -6   9    1.14    0.34
  -2   6  -9    1.52    0.23
  -2   6  -9    1.77    0.25
  -2   6  -9    1.90    0.30
   2  -6   9    1.79    0.29
   2  -6   9    1.49    0.37
   2  -6   9    2.01    0.29
  -3   6  -9    2.22    0.31
  -3   6  -9    2.06    0.29
  -3   6  -9    1.78    0.33
  -3   6  -9    1.45    0.31
   3  -6   9    1.24    0.39
   3  -6   9    1.48    0.39
   3  -6   9    1.82    0.30
  -4   6  -9   17.04    0.90
  -4   6  -9   17.46    0.78
  -4   6  -9   18.88    0.79
  -4   6  -9   16.69    0.90
   4  -6   9   16.20    0.80
   4  -6   9   16.71    1.09
   4  -6   9   17.04    1.01
  -5   6  -9    0.57    0.26
  -5   6  -9    0.60    0.23
  -5   6  -9    0.75    0.22
  -5   6  -9    0.67    0.27
   5  -6   9    0.60    0.23
   5  -6   9    0.65    0.31
  -6   6  -9    0.03    0.20
  -6   6  -9    0.07    0.23
  -6   6  -9    0.21    0.27
   6  -6   9    0.29    0.26
   6  -6   9    0.05    0.18
  -7   6  -9    0.19    0.26
   7  -6   9   -0.15    0.17
   7  -6   9    0.52    0.32
   7   5  -9    0.21    0.21
   6   5  -9    0.21    0.19
   6   5  -9    0.00    0.14
   5   5  -9    0.89    0.22
   5   5  -9    0.92    0.25
  -5  -5   9    0.88    0.32
   4   5  -9    0.83    0.21
   4   5  -9    0.62    0.21
  -4  -5   9    0.47    0.14
  -4  -5   9    0.59    0.26
   3   5  -9   10.00    0.55
   3   5  -9   11.17    0.67
  -3  -5   9    9.24    0.69
  -3  -5   9   11.48    0.53
   2   5  -9    0.95    0.26
  -2  -5   9    0.74    0.23
  -2  -5   9    0.93    0.17
  -2  -5   9    1.01    0.21
  -2  -5   9    1.07    0.21
   1   5  -9    1.36    0.21
   1   5  -9    1.18    0.29
  -1  -5   9    1.29    0.31
  -1  -5   9    1.01    0.22
  -1  -5   9    1.42    0.21
  -1  -5   9    1.21    0.24
   0   5  -9    0.28    0.12
   0   5  -9    0.39    0.09
   0   5  -9    0.32    0.17
   0  -5   9    0.60    0.14
   0  -5   9    0.51    0.18
   0  -5   9    0.67    0.19
   0  -5   9    0.39    0.21
  -1   5  -9    1.42    0.24
  -1   5  -9    1.08    0.17
  -1   5  -9    1.39    0.33
  -1   5  -9    1.03    0.16
   1  -5   9    0.95    0.27
   1  -5   9    0.63    0.25
   1  -5   9    1.68    0.25
   1  -5   9    1.52    0.26
   1  -5   9    1.23    0.24
  -2   5  -9    0.15    0.10
  -2   5  -9    0.33    0.15
  -2   5  -9    0.23    0.13
  -2   5  -9    0.50    0.18
   2  -5   9    0.10    0.13
   2  -5   9    0.22    0.12
   2  -5   9    0.38    0.21
   2  -5   9    0.08    0.15
   2  -5   9    0.02    0.11
  -3   5  -9    0.11    0.12
  -3   5  -9    0.01    0.12
  -3   5  -9   -0.12    0.10
  -3   5  -9   -0.05    0.14
   3  -5   9    0.11    0.13
   3  -5   9   -0.03    0.10
   3  -5   9   -0.07    0.15
  -4   5  -9    1.14    0.23
  -4   5  -9    1.04    0.23
  -4   5  -9    1.13    0.29
  -4   5  -9    1.14    0.27
   4  -5   9    0.84    0.20
   4  -5   9    1.19    0.33
   4  -5   9    0.89    0.30
  -5   5  -9   31.78    1.33
  -5   5  -9   30.25    1.23
  -5   5  -9   30.92    1.08
   5  -5   9   30.60    1.15
   5  -5   9   32.83    1.38
  -6   5  -9    1.38    0.35
  -6   5  -9    1.56    0.40
  -6   5  -9    1.39    0.30
  -6   5  -9    1.31    0.31
   6  -5   9    1.55    0.37
   6  -5   9    1.83    0.35
  -7   5  -9   -0.04    0.22
  -7   5  -9    0.07    0.22
  -7   5  -9    0.21    0.25
   7  -5   9   -0.07    0.14
   7  -5   9    0.06    0.23
   7   4  -9    0.04    0.15
   6   4  -9    0.08    0.11
   6   4  -9    0.06    0.15
   5   4  -9    0.37    0.18
   5   4  -9    0.40    0.16
  -5  -4   9    0.15    0.20
   4   4  -9    0.16    0.13
   4   4  -9    0.12    0.12
  -4  -4   9    0.03    0.16
  -4  -4   9   -0.01    0.08
   3   4  -9    2.18    0.28
   3   4  -9    3.07    0.36
   3   4  -9    3.46    0.40
  -3  -4   9    3.04    0.44
  -3  -4   9    3.19    0.30
   2   4  -9   31.78    0.97
   2   4  -9   31.19    1.14
   2   4  -9   31.82    0.99
   2   4  -9   32.27    1.03
  -2  -4   9   33.01    0.95
  -2  -4   9   32.81    0.84
  -2  -4   9   33.58    1.21
  -2  -4   9   31.27    0.97
   1   4  -9    3.31    0.32
   1   4  -9    3.14    0.31
   1   4  -9    4.25    0.48
  -1  -4   9    2.64    0.31
  -1  -4   9    3.26    0.42
  -1  -4   9    3.59    0.24
  -1  -4   9    3.58    0.36
   0   4  -9   -0.08    0.12
   0   4  -9    0.01    0.07
   0   4  -9   -0.03    0.04
   0   4  -9    0.02    0.06
   0  -4   9   -0.04    0.07
   0  -4   9   -0.03    0.12
   0  -4   9    0.02    0.12
   0  -4   9    0.02    0.10
  -1   4  -9    0.92    0.24
  -1   4  -9    1.50    0.25
  -1   4  -9    1.61    0.20
  -1   4  -9    1.46    0.19
  -1   4  -9    0.95    0.20
   1  -4   9    1.64    0.21
   1  -4   9    2.04    0.38
   1  -4   9    1.35    0.22
   1  -4   9    1.29    0.22
   1  -4   9    1.36    0.31
  -2   4  -9    1.71    0.28
  -2   4  -9    2.47    0.34
  -2   4  -9    1.70    0.24
  -2   4  -9    2.10    0.36
  -2   4  -9    2.34    0.26
   2  -4   9    2.34    0.28
   2  -4   9    2.59    0.41
   2  -4   9    2.19    0.26
   2  -4   9    2.46    0.42
   2  -4   9    1.82    0.23
  -3   4  -9    2.24    0.28
  -3   4  -9    1.64    0.31
  -3   4  -9    2.10    0.33
  -3   4  -9    1.82    0.26
   3  -4   9    1.21    0.30
   3  -4   9    1.62    0.25
   3  -4   9    1.78    0.38
  -4   4  -9    1.10    0.22
  -4   4  -9    1.44    0.31
  -4   4  -9    0.94    0.23
  -4   4  -9    0.98    0.21
   4  -4   9    0.59    0.25
   4  -4   9    0.90    0.21
   4  -4   9    0.80    0.24
  -5   4  -9    0.10    0.13
  -5   4  -9    0.00    0.14
  -5   4  -9    0.06    0.15
  -5   4  -9    0.19    0.19
   5  -4   9   -0.12    0.15
   5  -4   9    0.00    0.21
   5  -4   9   -0.03    0.11
  -6   4  -9    0.18    0.19
  -6   4  -9    0.18    0.17
  -6   4  -9    0.06    0.15
  -6   4  -9    0.23    0.22
   6  -4   9    0.16    0.14
   6  -4   9    0.12    0.20
  -7   4  -9    4.01    0.53
  -7   4  -9    4.09    0.63
   7  -4   9    4.20    0.51
   7  -4   9    5.85    0.69
   8  -4   9   -0.06    0.16
   8   3  -9    0.50    0.26
   7   3  -9   -0.11    0.13
   6   3  -9    0.87    0.25
   6   3  -9    1.17    0.20
   5   3  -9    0.19    0.12
   5   3  -9   -0.01    0.17
   5   3  -9    0.11    0.12
  -5  -3   9    0.29    0.17
   4   3  -9    0.17    0.11
   4   3  -9    0.09    0.13
   4   3  -9    0.31    0.19
  -4  -3   9    0.59    0.21
  -4  -3   9    0.26    0.08
   3   3  -9    0.45    0.15
   3   3  -9    0.19    0.14
   3   3  -9    0.47    0.19
   3   3  -9    0.32    0.14
  -3  -3   9    0.22    0.09
  -3  -3   9    0.40    0.16
  -3  -3   9    0.24    0.11
   2   3  -9    6.36    0.37
   2   3  -9    6.59    0.46
   2   3  -9    6.35    0.41
   2   3  -9    6.82    0.32
   2   3  -9    5.98    0.40
  -2  -3   9    8.04    0.51
  -2  -3   9    6.31    0.36
  -2  -3   9    6.77    0.27
  -2  -3   9    6.47    0.37
   1   3  -9   62.67    1.38
   1   3  -9   61.17    1.72
   1   3  -9   62.14    1.44
   1   3  -9   63.09    1.63
   1   3  -9   61.85    1.53
  -1  -3   9   60.14    1.52
  -1  -3   9   61.14    1.71
  -1  -3   9   59.75    1.30
  -1  -3   9   66.01    1.72
  -1  -3   9   62.11    1.51
   0   3  -9   -0.01    0.09
   0   3  -9    0.01    0.07
   0   3  -9    0.00    0.06
   0   3  -9    0.02    0.06
   0   3  -9    0.15    0.13
   0  -3   9    0.02    0.05
   0  -3   9   -0.06    0.07
   0  -3   9    0.20    0.13
   0  -3   9    0.01    0.10
   0  -3   9   -0.13    0.07
  -1   3  -9    0.03    0.11
  -1   3  -9    0.21    0.11
  -1   3  -9    0.13    0.08
  -1   3  -9    0.06    0.07
  -1   3  -9    0.11    0.10
   1  -3   9    0.02    0.12
   1  -3   9    0.14    0.08
   1  -3   9    0.14    0.14
   1  -3   9    0.07    0.10
   1  -3   9    0.15    0.11
  -2   3  -9    2.00    0.34
  -2   3  -9    2.31    0.30
  -2   3  -9    1.83    0.26
  -2   3  -9    2.01    0.24
  -2   3  -9    2.00    0.23
   2  -3   9    2.24    0.24
   2  -3   9    1.96    0.38
   2  -3   9    2.02    0.35
   2  -3   9    2.53    0.27
   2  -3   9    2.03    0.22
  -3   3  -9    0.02    0.11
  -3   3  -9    0.16    0.13
  -3   3  -9    0.07    0.09
  -3   3  -9   -0.08    0.08
   3  -3   9   -0.08    0.10
   3  -3   9    0.17    0.15
   3  -3   9   -0.02    0.08
  -4   3  -9    0.33    0.14
  -4   3  -9    0.15    0.13
  -4   3  -9    0.53    0.19
  -4   3  -9    0.18    0.14
   4  -3   9    0.25    0.23
   4  -3   9    0.73    0.23
   4  -3   9    0.45    0.15
  -5   3  -9    0.28    0.15
  -5   3  -9    0.19    0.16
  -5   3  -9    0.43    0.23
  -5   3  -9    0.36    0.16
   5  -3   9    0.43    0.25
   5  -3   9    0.13    0.15
   5  -3   9    0.22    0.14
  -6   3  -9    0.75    0.24
  -6   3  -9    0.57    0.21
  -6   3  -9    1.01    0.25
  -6   3  -9    0.89    0.29
   6  -3   9    1.04    0.24
   6  -3   9    0.78    0.28
  -7   3  -9   -0.05    0.18
  -7   3  -9   -0.12    0.21
  -7   3  -9   -0.14    0.18
   7  -3   9    0.30    0.21
   7  -3   9    0.07    0.20
   8  -3   9    4.18    0.53
   8   2  -9    2.19    0.42
   7   2  -9    0.30    0.21
   6   2  -9    0.26    0.21
   6   2  -9    0.02    0.14
   6   2  -9    0.06    0.10
   5   2  -9    0.43    0.13
   5   2  -9    0.44    0.16
   5   2  -9    0.19    0.19
   4   2  -9    0.18    0.11
   4   2  -9    0.14    0.15
   4   2  -9    0.07    0.11
   4   2  -9    0.11    0.17
  -4  -2   9    0.29    0.07
  -4  -2   9    0.23    0.15
   3   2  -9   -0.04    0.07
   3   2  -9   -0.09    0.08
   3   2  -9    0.02    0.10
   3   2  -9    0.09    0.12
   3   2  -9   -0.08    0.08
  -3  -2   9   -0.02    0.06
  -3  -2   9    0.01    0.06
  -3  -2   9    0.01    0.10
   2   2  -9    1.40    0.23
   2   2  -9    1.35    0.19
   2   2  -9    1.21    0.23
   2   2  -9    1.34    0.20
   2   2  -9    1.73    0.29
  -2  -2   9    1.57    0.20
  -2  -2   9    1.35    0.19
  -2  -2   9    1.46    0.25
   1   2  -9    9.16    0.40
   1   2  -9    7.64    0.45
   1   2  -9    7.67    0.37
   1   2  -9    7.72    0.36
   1   2  -9    8.36    0.51
   1   2  -9    9.04    0.45
   1   2  -9    8.53    0.24
  -1  -2   9    8.52    0.50
  -1  -2   9    7.91    0.40
  -1  -2   9    7.84    0.48
  -1  -2   9    8.66    0.27
   0   2  -9   13.10    0.45
   0   2  -9   12.83    0.45
   0   2  -9   13.65    0.67
   0   2  -9   13.28    0.54
   0   2  -9   12.62    0.55
   0   2  -9   13.19    0.43
   0  -2   9   14.13    0.66
   0  -2   9   13.26    0.53
   0  -2   9   12.74    0.54
   0  -2   9   13.82    0.42
   0  -2   9   13.92    0.66
  -1   2  -9   19.24    0.53
  -1   2  -9   19.72    0.60
  -1   2  -9   19.20    0.70
  -1   2  -9   19.47    0.62
  -1   2  -9   19.26    0.73
  -1   2  -9   18.63    0.83
   1  -2   9   19.95    0.75
   1  -2   9   19.98    0.68
   1  -2   9   19.19    0.58
   1  -2   9   18.45    0.64
   1  -2   9   18.67    0.84
   1  -2   9   19.94    0.83
  -2   2  -9   -0.06    0.08
  -2   2  -9    0.30    0.11
  -2   2  -9   -0.01    0.12
  -2   2  -9    0.08    0.05
  -2   2  -9    0.13    0.10
  -2   2  -9    0.02    0.08
   2  -2   9    0.02    0.10
   2  -2   9    0.08    0.07
   2  -2   9    0.13    0.13
   2  -2   9    0.13    0.12
   2  -2   9    0.10    0.08
   2  -2   9    0.04    0.07
  -3   2  -9    6.84    0.43
  -3   2  -9    6.40    0.46
  -3   2  -9    6.27    0.37
  -3   2  -9    5.54    0.35
   3  -2   9    6.62    0.50
   3  -2   9    5.55    0.61
   3  -2   9    6.13    0.37
  -4   2  -9    0.06    0.11
  -4   2  -9    0.22    0.13
  -4   2  -9    0.20    0.12
  -4   2  -9    0.18    0.14
   4  -2   9    0.27    0.15
   4  -2   9    0.53    0.23
   4  -2   9    0.19    0.11
  -5   2  -9    0.12    0.15
  -5   2  -9    0.03    0.11
  -5   2  -9    0.33    0.14
  -5   2  -9    0.29    0.15
   5  -2   9    0.11    0.13
   5  -2   9    0.13    0.17
   5  -2   9    0.21    0.23
  -6   2  -9   -0.01    0.14
  -6   2  -9    0.18    0.15
  -6   2  -9    0.11    0.17
   6  -2   9    0.12    0.14
   6  -2   9    0.04    0.15
  -7   2  -9    0.56    0.29
  -7   2  -9    0.11    0.17
  -7   2  -9    0.75    0.23
   7  -2   9    0.76    0.25
   7  -2   9    0.94    0.27
   8  -2   9    5.15    0.59
   8   1  -9    0.12    0.21
  -8  -1   9    0.60    0.18
   7   1  -9    7.38    0.90
   7   1  -9    7.67    0.56
   7   1  -9    6.97    0.34
   6   1  -9    5.16    0.51
   6   1  -9    4.43    0.62
   5   1  -9    0.17    0.12
   5   1  -9    0.61    0.26
   5   1  -9    0.44    0.22
   5   1  -9    0.24    0.19
   5   1  -9    0.23    0.15
   4   1  -9    2.62    0.36
   4   1  -9    3.39    0.36
   4   1  -9    3.57    0.50
   4   1  -9    3.12    0.44
   4   1  -9    2.71    0.31
  -4  -1   9    3.46    0.19
  -4  -1   9    3.83    0.36
   3   1  -9    0.01    0.11
   3   1  -9    0.17    0.10
   3   1  -9    0.08    0.11
   3   1  -9    0.01    0.10
   3   1  -9   -0.01    0.06
  -3  -1   9    0.00    0.06
  -3  -1   9    0.08    0.07
  -3  -1   9    0.00    0.08
   2   1  -9    0.51    0.14
   2   1  -9    0.21    0.14
   2   1  -9    0.29    0.13
   2   1  -9    0.41    0.16
   2   1  -9    0.24    0.10
   2   1  -9    0.37    0.13
  -2  -1   9    0.61    0.16
  -2  -1   9    0.46    0.12
  -2  -1   9    0.61    0.18
   1   1  -9    5.10    0.31
   1   1  -9    5.21    0.28
   1   1  -9    4.75    0.34
   1   1  -9    5.02    0.32
   1   1  -9    4.93    0.18
   1   1  -9    4.13    0.34
   1   1  -9    5.16    0.22
   1   1  -9    5.02    0.47
  -1  -1   9    4.68    0.30
  -1  -1   9    4.47    0.33
  -1  -1   9    5.68    0.34
  -1  -1   9    4.82    0.34
  -1  -1   9    4.95    0.15
  -1  -1   9    4.11    0.42
   0   1  -9   13.18    0.44
   0   1  -9   12.99    0.43
   0   1  -9   12.68    0.55
   0   1  -9   12.77    0.52
   0   1  -9   13.33    0.45
   0   1  -9   12.37    0.63
   0  -1   9   12.95    0.53
   0  -1   9   13.15    0.52
   0  -1   9   11.79    0.59
   0  -1   9   13.02    0.63
   0  -1   9   13.52    0.59
   0  -1   9   13.45    0.39
  -1   1  -9   24.45    0.94
  -1   1  -9   24.17    0.58
  -1   1  -9   23.57    0.70
  -1   1  -9   24.42    0.68
  -1   1  -9   22.73    0.78
  -1   1  -9   22.72    0.81
   1  -1   9   23.52    0.65
   1  -1   9   22.50    0.69
   1  -1   9   24.82    0.93
   1  -1   9   23.72    0.91
   1  -1   9   21.93    0.81
   1  -1   9   23.24    0.72
  -2   1  -9   29.33    0.94
  -2   1  -9   29.27    0.84
  -2   1  -9   31.07    1.10
  -2   1  -9   30.18    0.99
  -2   1  -9   31.21    0.86
   2  -1   9   29.40    1.14
   2  -1   9   29.45    1.07
   2  -1   9   29.83    0.84
   2  -1   9   31.07    0.80
   2  -1   9   30.34    0.70
  -3   1  -9    4.40    0.30
  -3   1  -9    3.82    0.28
  -3   1  -9    4.09    0.43
  -3   1  -9    4.28    0.39
   3  -1   9    5.05    0.56
   3  -1   9    4.47    0.31
   3  -1   9    4.74    0.48
  -4   1  -9   -0.12    0.08
  -4   1  -9    0.02    0.09
  -4   1  -9   -0.07    0.08
  -4   1  -9    0.04    0.12
   4  -1   9   -0.08    0.15
   4  -1   9    0.06    0.13
   4  -1   9   -0.01    0.08
  -5   1  -9    0.38    0.15
  -5   1  -9    0.04    0.11
  -5   1  -9    0.24    0.13
  -5   1  -9    0.35    0.18
   5  -1   9    0.46    0.20
   5  -1   9    0.13    0.13
  -6   1  -9    0.13    0.15
  -6   1  -9    0.03    0.14
  -6   1  -9    0.00    0.17
   6  -1   9    0.13    0.14
   6  -1   9    0.02    0.15
  -7   1  -9    0.06    0.17
  -7   1  -9    0.15    0.16
  -7   1  -9    0.21    0.22
   7  -1   9    0.16    0.20
   7  -1   9    0.12    0.16
   8  -1   9    0.21    0.22
   8   0  -9   -0.19    0.17
   8   0  -9    0.56    0.41
  -8   0   9    0.13    0.18
   7   0  -9    1.16    0.43
   7   0  -9    0.74    0.24
   7   0  -9    0.58    0.17
  -7   0   9    1.01    0.21
   6   0  -9    7.78    0.53
   6   0  -9    8.72    0.90
   6   0  -9    8.01    0.50
   6   0  -9    8.19    0.82
  -6   0   9    7.46    0.44
   5   0  -9    5.69    0.41
   5   0  -9    6.81    0.73
   5   0  -9    8.07    0.87
   5   0  -9    5.99    0.65
  -5   0   9    6.33    0.39
   4   0  -9    0.01    0.09
   4   0  -9    0.10    0.15
   4   0  -9   -0.05    0.12
   4   0  -9    0.03    0.16
   4   0  -9    0.21    0.13
  -4   0   9    0.25    0.11
  -4   0   9    0.27    0.09
   3   0  -9    2.94    0.37
   3   0  -9    3.31    0.33
   3   0  -9    3.71    0.50
   3   0  -9    3.30    0.41
   3   0  -9    3.09    0.37
  -3   0   9    3.44    0.22
  -3   0   9    3.51    0.24
  -3   0   9    3.20    0.32
   2   0  -9    0.09    0.08
   2   0  -9    0.00    0.09
   2   0  -9    0.07    0.09
   2   0  -9    0.05    0.11
   2   0  -9   -0.01    0.08
   2   0  -9    0.05    0.07
  -2   0   9    0.05    0.10
  -2   0   9    0.01    0.07
  -2   0   9    0.10    0.08
  -2   0   9    0.05    0.07
  -2   0   9    0.01    0.07
   1   0  -9    0.08    0.07
   1   0  -9    0.35    0.09
   1   0  -9    0.17    0.10
   1   0  -9    0.22    0.04
   1   0  -9    0.17    0.06
   1   0  -9    0.21    0.12
   1   0  -9    0.37    0.15
   1   0  -9    0.16    0.09
   1   0  -9    0.07    0.08
   1   0  -9    0.30    0.10
  -1   0   9    0.14    0.11
  -1   0   9    0.13    0.09
  -1   0   9    0.37    0.13
  -1   0   9    0.38    0.12
  -1   0   9    0.22    0.13
   0   0  -9    3.29    0.32
   0   0  -9    3.44    0.34
   0   0  -9    3.61    0.21
   0   0  -9    3.79    0.22
   0   0  -9    3.29    0.38
   0   0  -9    3.77    0.24
   0   0   9    4.01    0.27
   0   0   9    3.81    0.18
   0   0   9    3.93    0.39
   0   0   9    3.87    0.42
   0   0   9    3.63    0.27
   0   0   9    3.47    0.35
  -1   0  -9    1.15    0.16
  -1   0  -9    0.97    0.19
  -1   0  -9    1.27    0.17
  -1   0  -9    1.14    0.20
  -1   0  -9    1.05    0.23
   1   0   9    1.32    0.28
   1   0   9    1.22    0.17
   1   0   9    0.94    0.22
   1   0   9    0.95    0.15
   1   0   9    0.98    0.14
   1   0   9    1.50    0.25
  -2   0  -9   13.92    0.60
  -2   0  -9   14.04    0.51
  -2   0  -9   14.63    0.54
  -2   0  -9   14.49    0.64
   2   0   9   14.45    0.53
   2   0   9   13.43    0.71
   2   0   9   14.18    0.73
  -3   0  -9    3.72    0.27
  -3   0  -9    4.10    0.29
  -3   0  -9    3.04    0.37
  -3   0  -9    4.20    0.38
   3   0   9    4.58    0.49
   3   0   9    3.17    0.32
  -4   0  -9    3.04    0.29
  -4   0  -9    4.44    0.42
  -4   0  -9    4.06    0.45
  -4   0  -9    4.54    0.31
   4   0   9    4.60    0.42
   4   0   9    3.58    0.46
  -5   0  -9    0.09    0.13
  -5   0  -9   -0.10    0.13
  -5   0  -9    0.08    0.11
   5   0   9    0.01    0.12
   5   0   9    0.18    0.17
  -6   0  -9   -0.03    0.13
  -6   0  -9    0.43    0.22
  -6   0  -9    0.28    0.14
   6   0   9    0.28    0.14
   6   0   9   -0.02    0.17
  -7   0  -9    0.37    0.20
  -7   0  -9    0.60    0.29
  -7   0  -9    0.27    0.16
   7   0   9    0.19    0.20
   7   0   9    0.29    0.19
   8  -1  -9    0.32    0.15
   8  -1  -9    0.39    0.35
  -8   1   9    0.10    0.18
   7  -1  -9   -0.01    0.25
   7  -1  -9    0.09    0.16
   7  -1  -9    0.08    0.15
   7  -1  -9    0.08    0.26
  -7   1   9   -0.04    0.13
   6  -1  -9    0.94    0.26
   6  -1  -9    0.76    0.21
   6  -1  -9    0.91    0.37
   6  -1  -9    1.05    0.35
  -6   1   9    0.81    0.20
   5  -1  -9    3.98    0.44
   5  -1  -9    4.15    0.56
   5  -1  -9    2.84    0.38
   5  -1  -9    3.72    0.60
   5  -1  -9    4.07    0.57
  -5   1   9    3.66    0.40
  -5   1   9    4.51    0.27
   4  -1  -9   17.76    0.92
   4  -1  -9   17.63    0.72
   4  -1  -9   15.62    0.89
   4  -1  -9   16.86    0.80
   4  -1  -9   16.65    0.99
  -4   1   9   17.26    0.71
  -4   1   9   17.42    0.59
  -4   1   9   16.50    0.58
   3  -1  -9    5.24    0.53
   3  -1  -9    4.65    0.46
   3  -1  -9    4.72    0.35
   3  -1  -9    5.12    0.52
   3  -1  -9    5.50    0.63
  -3   1   9    5.64    0.33
  -3   1   9    5.00    0.37
  -3   1   9    5.49    0.33
   2  -1  -9    0.01    0.06
   2  -1  -9   -0.06    0.08
   2  -1  -9    0.11    0.10
   2  -1  -9    0.15    0.11
   2  -1  -9   -0.08    0.09
   2  -1  -9    0.05    0.09
  -2   1   9    0.04    0.12
  -2   1   9   -0.01    0.07
  -2   1   9    0.00    0.07
  -2   1   9    0.05    0.10
   1  -1  -9    0.82    0.19
   1  -1  -9    0.56    0.11
   1  -1  -9    0.70    0.17
   1  -1  -9    0.81    0.21
   1  -1  -9    1.02    0.23
   1  -1  -9    0.93    0.10
   1  -1  -9    0.57    0.12
   1  -1  -9    0.95    0.18
  -1   1   9    0.93    0.17
  -1   1   9    1.00    0.20
  -1   1   9    1.17    0.19
  -1   1   9    0.76    0.22
   0  -1  -9    0.55    0.19
   0  -1  -9    0.47    0.16
   0  -1  -9    0.32    0.14
   0  -1  -9    0.41    0.13
   0  -1  -9    0.34    0.10
   0  -1  -9    0.26    0.09
   0  -1  -9    0.39    0.08
   0   1   9    0.34    0.11
   0   1   9    0.33    0.14
   0   1   9    0.23    0.14
   0   1   9    0.46    0.09
   0   1   9    0.35    0.11
  -1  -1  -9   14.52    0.47
  -1  -1  -9   14.14    0.61
  -1  -1  -9   14.49    0.52
  -1  -1  -9   14.88    0.74
  -1  -1  -9   14.30    0.53
  -1  -1  -9   14.83    0.62
   1   1   9   14.49    0.65
   1   1   9   14.46    0.74
   1   1   9   14.75    0.48
   1   1   9   13.64    0.48
   1   1   9   14.78    0.53
  -2  -1  -9    0.37    0.13
  -2  -1  -9    0.19    0.10
  -2  -1  -9    0.13    0.08
  -2  -1  -9    0.44    0.14
   2   1   9    0.29    0.11
   2   1   9    0.46    0.19
  -3  -1  -9  108.30    2.37
  -3  -1  -9  111.68    2.32
  -3  -1  -9  110.00    2.56
  -3  -1  -9  112.67    2.51
   3   1   9  108.04    2.75
   3   1   9  109.54    2.37
  -4  -1  -9    0.98    0.25
  -4  -1  -9    1.53    0.22
  -4  -1  -9    1.71    0.24
  -4  -1  -9    1.20    0.24
   4   1   9    1.28    0.30
   4   1   9    1.77    0.27
  -5  -1  -9   -0.14    0.10
  -5  -1  -9    0.11    0.14
  -5  -1  -9   -0.02    0.12
   5   1   9    0.02    0.16
   5   1   9    0.12    0.12
  -6  -1  -9    0.01    0.12
  -6  -1  -9    0.29    0.17
  -6  -1  -9    0.18    0.23
   6   1   9   -0.06    0.15
   6   1   9    0.09    0.15
  -7  -1  -9   -0.09    0.13
  -7  -1  -9    0.20    0.26
   7   1   9   -0.02    0.18
   7   1   9    0.12    0.18
   8  -2  -9    0.33    0.21
   8  -2  -9    0.38    0.36
  -8   2   9    0.62    0.28
   7  -2  -9   -0.03    0.27
   7  -2  -9   -0.11    0.15
   7  -2  -9    0.09    0.23
  -7   2   9   -0.14    0.14
   6  -2  -9    4.51    0.53
   6  -2  -9    4.75    0.69
   6  -2  -9    5.16    0.72
  -6   2   9    5.00    0.51
   5  -2  -9   -0.13    0.18
   5  -2  -9   -0.05    0.13
   5  -2  -9    0.07    0.16
   5  -2  -9    0.00    0.18
  -5   2   9    0.04    0.13
  -5   2   9    0.00    0.09
   4  -2  -9    4.24    0.61
   4  -2  -9    3.45    0.45
   4  -2  -9    3.43    0.49
   4  -2  -9    3.13    0.49
  -4   2   9    3.49    0.34
  -4   2   9    3.53    0.41
  -4   2   9    4.00    0.31
   3  -2  -9    0.30    0.20
   3  -2  -9    0.25    0.18
   3  -2  -9    0.31    0.17
   3  -2  -9    0.24    0.19
  -3   2   9    0.60    0.15
  -3   2   9    0.35    0.14
  -3   2   9    0.04    0.12
   2  -2  -9    3.21    0.40
   2  -2  -9    3.34    0.42
   2  -2  -9    2.71    0.41
   2  -2  -9    2.55    0.37
  -2   2   9    4.11    0.30
  -2   2   9    3.72    0.34
  -2   2   9    4.01    0.44
   1  -2  -9    0.12    0.08
   1  -2  -9    0.17    0.09
   1  -2  -9    0.23    0.17
   1  -2  -9    0.12    0.11
   1  -2  -9    0.18    0.06
   1  -2  -9    0.20    0.12
   1  -2  -9    0.28    0.14
   1  -2  -9    0.11    0.10
  -1   2   9    0.46    0.18
  -1   2   9    0.21    0.15
  -1   2   9    0.00    0.08
  -1   2   9    0.02    0.08
   0  -2  -9    0.90    0.15
   0  -2  -9    0.86    0.13
   0  -2  -9    1.02    0.23
   0  -2  -9    0.50    0.15
   0  -2  -9    0.93    0.17
   0  -2  -9    0.90    0.25
   0  -2  -9    1.07    0.22
   0   2   9    1.06    0.18
   0   2   9    0.64    0.20
   0   2   9    0.64    0.18
   0   2   9    0.64    0.15
  -1  -2  -9    0.01    0.07
  -1  -2  -9    0.06    0.07
  -1  -2  -9    0.21    0.14
  -1  -2  -9    0.09    0.10
  -1  -2  -9    0.28    0.11
   1   2   9   -0.03    0.07
   1   2   9    0.07    0.07
   1   2   9    0.06    0.12
  -2  -2  -9    0.10    0.09
  -2  -2  -9   -0.04    0.06
  -2  -2  -9    0.02    0.09
  -2  -2  -9   -0.06    0.09
  -2  -2  -9   -0.03    0.07
   2   2   9    0.07    0.13
   2   2   9    0.04    0.08
  -3  -2  -9    0.11    0.10
  -3  -2  -9    0.04    0.09
  -3  -2  -9    0.10    0.09
  -3  -2  -9    0.01    0.12
  -3  -2  -9    0.18    0.14
   3   2   9    0.23    0.11
   3   2   9   -0.04    0.13
  -4  -2  -9   14.99    0.62
  -4  -2  -9   15.60    0.59
  -4  -2  -9   16.55    0.75
  -4  -2  -9   14.58    0.65
  -4  -2  -9   16.74    0.77
   4   2   9   14.64    0.67
   4   2   9   16.71    0.88
  -5  -2  -9    6.19    0.58
  -5  -2  -9    6.14    0.55
  -5  -2  -9    6.69    0.42
  -5  -2  -9    5.99    0.44
   5   2   9    6.68    0.47
   5   2   9    6.93    0.68
  -6  -2  -9    0.22    0.18
  -6  -2  -9    0.23    0.15
  -6  -2  -9    0.00    0.15
   6   2   9    0.26    0.20
   6   2   9   -0.09    0.14
  -7  -2  -9   -0.10    0.14
   7   2   9   -0.08    0.16
   8  -3  -9   -0.12    0.19
   7  -3  -9    0.00    0.27
   7  -3  -9    0.06    0.27
   7  -3  -9    0.08    0.21
  -7   3   9    0.07    0.14
  -7   3   9   -0.04    0.20
   6  -3  -9    0.18    0.19
   6  -3  -9   -0.14    0.18
   6  -3  -9   -0.14    0.21
  -6   3   9   -0.09    0.12
  -6   3   9    0.20    0.19
   5  -3  -9    2.01    0.45
   5  -3  -9    2.39    0.49
   5  -3  -9    3.09    0.49
  -5   3   9    2.58    0.32
  -5   3   9    2.33    0.39
  -5   3   9    3.00    0.33
   4  -3  -9    2.33    0.42
   4  -3  -9    2.62    0.53
   4  -3  -9    2.45    0.43
   4  -3  -9    2.56    0.48
  -4   3   9    2.04    0.27
  -4   3   9    2.60    0.40
  -4   3   9    1.46    0.24
   3  -3  -9   18.70    1.05
   3  -3  -9   19.83    0.97
   3  -3  -9   20.09    0.99
   3  -3  -9   19.05    1.00
  -3   3   9   19.79    0.75
  -3   3   9   19.68    0.76
  -3   3   9   19.41    0.88
   2  -3  -9   21.83    1.05
   2  -3  -9   21.89    0.61
   2  -3  -9   21.41    1.00
   2  -3  -9   21.80    1.07
   2  -3  -9   21.90    0.95
  -2   3   9   22.57    0.82
  -2   3   9   24.03    0.98
  -2   3   9   21.23    0.78
   1  -3  -9    1.39    0.22
   1  -3  -9    0.84    0.23
   1  -3  -9    1.15    0.19
   1  -3  -9    1.33    0.17
   1  -3  -9    1.24    0.25
   1  -3  -9    1.63    0.36
   1  -3  -9    0.97    0.27
  -1   3   9    1.15    0.28
  -1   3   9    1.12    0.27
  -1   3   9    1.03    0.20
  -1   3   9    1.09    0.21
   0  -3  -9    0.51    0.18
   0  -3  -9    0.38    0.11
   0  -3  -9    0.38    0.13
   0  -3  -9    0.31    0.12
   0  -3  -9    0.43    0.18
   0  -3  -9    0.19    0.13
   0  -3  -9   -0.01    0.17
   0   3   9    0.50    0.15
   0   3   9    0.54    0.14
   0   3   9    0.42    0.19
  -1  -3  -9    1.23    0.27
  -1  -3  -9    1.25    0.21
  -1  -3  -9    0.90    0.21
  -1  -3  -9    1.45    0.28
  -1  -3  -9    1.05    0.19
  -1  -3  -9    0.84    0.16
   1   3   9    0.58    0.21
  -2  -3  -9    0.02    0.12
  -2  -3  -9    0.10    0.10
  -2  -3  -9    0.07    0.09
  -2  -3  -9    0.14    0.11
  -2  -3  -9    0.01    0.09
   2   3   9   -0.02    0.08
   2   3   9    0.13    0.14
  -3  -3  -9    1.73    0.31
  -3  -3  -9    2.00    0.25
  -3  -3  -9    1.59    0.23
  -3  -3  -9    2.00    0.30
  -3  -3  -9    2.13    0.27
   3   3   9    2.19    0.27
   3   3   9    2.03    0.40
  -4  -3  -9    0.78    0.25
  -4  -3  -9    1.34    0.22
  -4  -3  -9    1.17    0.22
  -4  -3  -9    1.06    0.20
  -4  -3  -9    1.44    0.27
   4   3   9    1.17    0.23
   4   3   9    1.20    0.32
  -5  -3  -9    3.94    0.38
  -5  -3  -9    4.98    0.48
  -5  -3  -9    4.79    0.53
   5   3   9    5.71    0.54
   5   3   9    4.33    0.58
   5   3   9    5.57    0.64
  -6  -3  -9    0.66    0.22
  -6  -3  -9    0.13    0.20
   6   3   9    0.38    0.20
   6   3   9    0.09    0.26
   6   3   9    0.08    0.21
   7  -4  -9   -0.02    0.29
   7  -4  -9   -0.01    0.23
  -7   4   9    0.23    0.24
  -7   4   9    0.05    0.17
   6  -4  -9    0.63    0.33
   6  -4  -9    0.36    0.25
   6  -4  -9    0.34    0.29
  -6   4   9    0.35    0.19
  -6   4   9    0.44    0.25
   5  -4  -9    1.65    0.42
   5  -4  -9    1.33    0.40
   5  -4  -9    0.95    0.28
  -5   4   9    1.21    0.26
  -5   4   9    1.37    0.25
  -5   4   9    1.40    0.33
   4  -4  -9    2.39    0.45
   4  -4  -9    2.54    0.46
   4  -4  -9    2.48    0.49
   4  -4  -9    1.95    0.45
  -4   4   9    2.69    0.35
  -4   4   9    2.44    0.35
  -4   4   9    2.23    0.39
   3  -4  -9    0.12    0.22
   3  -4  -9    0.06    0.15
   3  -4  -9    0.15    0.17
   3  -4  -9    0.34    0.23
  -3   4   9    0.32    0.22
  -3   4   9   -0.05    0.10
  -3   4   9    0.05    0.11
   2  -4  -9    1.46    0.32
   2  -4  -9    0.82    0.27
   2  -4  -9    1.42    0.20
   2  -4  -9    1.33    0.34
   2  -4  -9    1.14    0.33
   2  -4  -9    1.30    0.19
  -2   4   9    1.06    0.23
  -2   4   9    0.60    0.22
  -2   4   9    1.00    0.23
   1  -4  -9   52.62    1.83
   1  -4  -9   54.14    1.27
   1  -4  -9   51.18    1.58
   1  -4  -9   53.47    1.74
   1  -4  -9   49.74    1.34
   1  -4  -9   56.27    1.82
   1  -4  -9   53.84    1.44
  -1   4   9   52.49    1.38
  -1   4   9   50.33    1.44
  -1   4   9   43.11    1.91
   0  -4  -9    0.39    0.14
   0  -4  -9    0.63    0.21
   0  -4  -9    0.76    0.16
   0  -4  -9    0.18    0.14
   0  -4  -9    0.53    0.17
   0  -4  -9    0.34    0.19
   0  -4  -9    1.03    0.27
   0   4   9    1.13    0.33
   0   4   9    0.82    0.18
   0   4   9    0.33    0.23
  -1  -4  -9    0.60    0.17
  -1  -4  -9    0.61    0.15
  -1  -4  -9    0.26    0.17
  -1  -4  -9    0.33    0.12
  -1  -4  -9    0.54    0.17
  -1  -4  -9    0.12    0.13
   1   4   9    0.34    0.20
   1   4   9    0.17    0.17
  -2  -4  -9    1.43    0.24
  -2  -4  -9    1.12    0.26
  -2  -4  -9    1.38    0.25
  -2  -4  -9    1.47    0.24
  -2  -4  -9    1.24    0.22
  -2  -4  -9    1.02    0.28
   2   4   9    1.28    0.33
   2   4   9    1.56    0.38
  -3  -4  -9   -0.05    0.10
  -3  -4  -9   -0.01    0.09
  -3  -4  -9   -0.09    0.12
  -3  -4  -9   -0.10    0.11
   3   4   9    0.02    0.15
   3   4   9   -0.03    0.17
  -4  -4  -9    0.00    0.11
  -4  -4  -9    0.44    0.21
  -4  -4  -9    0.33    0.14
  -4  -4  -9    0.21    0.18
   4   4   9    0.27    0.24
   4   4   9    0.50    0.26
   4   4   9    0.10    0.14
  -5  -4  -9    0.51    0.21
  -5  -4  -9    0.26    0.22
   5   4   9    0.79    0.25
   5   4   9    0.86    0.31
  -6  -4  -9    0.78    0.25
   6   4   9    0.61    0.25
   7  -5  -9    0.87    0.39
   7  -5  -9    0.57    0.46
  -7   5   9    1.03    0.37
   6  -5  -9   -0.02    0.23
   6  -5  -9   -0.05    0.24
  -6   5   9    0.03    0.17
  -6   5   9    0.13    0.22
  -6   5   9    0.03    0.18
   5  -5  -9    0.14    0.26
   5  -5  -9    0.05    0.28
   5  -5  -9   -0.06    0.24
  -5   5   9    0.16    0.21
  -5   5   9    0.08    0.17
  -5   5   9    0.18    0.17
   4  -5  -9    0.28    0.26
   4  -5  -9    0.73    0.32
   4  -5  -9    1.22    0.38
  -4   5   9    0.94    0.25
  -4   5   9    0.83    0.24
  -4   5   9    0.45    0.26
   3  -5  -9    1.25    0.41
   3  -5  -9    1.27    0.36
   3  -5  -9    1.03    0.34
   3  -5  -9    1.12    0.33
  -3   5   9    1.12    0.26
  -3   5   9    0.78    0.22
  -3   5   9    1.03    0.33
   2  -5  -9    6.16    0.71
   2  -5  -9    5.41    0.64
   2  -5  -9    5.54    0.72
   2  -5  -9    5.21    0.35
   2  -5  -9    5.35    0.69
  -2   5   9    6.31    0.48
  -2   5   9    5.19    0.48
   1  -5  -9    0.36    0.21
   1  -5  -9    0.31    0.13
   1  -5  -9    0.14    0.13
   1  -5  -9    0.19    0.20
   1  -5  -9    0.49    0.20
  -1   5   9    0.27    0.15
   0  -5  -9   -0.07    0.13
   0  -5  -9   -0.02    0.11
   0  -5  -9   -0.07    0.10
   0  -5  -9    0.18    0.17
   0  -5  -9    0.04    0.11
   0  -5  -9    0.15    0.16
   0   5   9   -0.04    0.21
  -1  -5  -9    1.43    0.25
  -1  -5  -9    0.67    0.19
  -1  -5  -9    1.31    0.23
  -1  -5  -9    0.87    0.27
  -1  -5  -9    1.66    0.35
  -1  -5  -9    0.93    0.28
   1   5   9    0.92    0.33
  -2  -5  -9    0.19    0.14
  -2  -5  -9   -0.03    0.17
  -2  -5  -9    0.03    0.12
  -2  -5  -9    0.20    0.14
   2   5   9   -0.10    0.18
  -3  -5  -9   -0.02    0.12
  -3  -5  -9   -0.02    0.11
  -3  -5  -9    0.17    0.20
  -3  -5  -9    0.13    0.14
   3   5   9   -0.13    0.21
  -4  -5  -9    0.13    0.21
  -4  -5  -9   -0.09    0.13
  -4  -5  -9    0.01    0.14
   4   5   9    0.35    0.28
  -5  -5  -9   -0.02    0.18
   5   5   9    0.05    0.32
   6  -6  -9    0.01    0.26
   6  -6  -9    0.19    0.33
  -6   6   9   -0.18    0.24
  -6   6   9    0.16    0.21
   5  -6  -9    0.10    0.27
   5  -6  -9   -0.08    0.24
  -5   6   9    0.26    0.21
  -5   6   9   -0.14    0.16
  -5   6   9   -0.05    0.23
   4  -6  -9   -0.03    0.29
   4  -6  -9    0.01    0.27
   4  -6  -9    0.31    0.28
  -4   6   9   -0.08    0.21
  -4   6   9    0.12    0.16
  -4   6   9    0.39    0.21
   3  -6  -9    1.14    0.37
   3  -6  -9    1.43    0.46
   3  -6  -9    0.59    0.28
  -3   6   9    0.94    0.26
  -3   6   9    1.05    0.28
   2  -6  -9    0.15    0.22
   2  -6  -9    0.02    0.23
   2  -6  -9    0.19    0.13
  -2   6   9   -0.05    0.12
   1  -6  -9    0.92    0.34
   1  -6  -9    0.92    0.22
   1  -6  -9    1.20    0.25
   1  -6  -9    1.02    0.33
  -1   6   9    0.98    0.22
   0  -6  -9    0.01    0.19
   0  -6  -9   -0.04    0.14
   0  -6  -9    0.26    0.17
   0  -6  -9   -0.08    0.12
  -1  -6  -9    6.03    0.45
  -1  -6  -9    6.05    0.58
  -1  -6  -9    6.55    0.48
  -1  -6  -9    7.29    0.73
   1   6   9    7.49    0.88
  -2  -6  -9    0.95    0.23
  -2  -6  -9    1.68    0.32
  -2  -6  -9    2.34    0.34
  -2  -6  -9    1.99    0.42
  -2  -6  -9    1.34    0.37
   2   6   9    1.78    0.48
  -3  -6  -9    0.10    0.16
  -3  -6  -9    0.01    0.19
  -3  -6  -9   -0.09    0.23
   3   6   9    0.49    0.30
  -4  -6  -9    0.18    0.21
  -4  -6  -9    0.14    0.29
   4   6   9    0.39    0.34
   6  -7  -9    1.09    0.47
  -6   7   9    0.49    0.41
   5  -7  -9    0.76    0.43
   5  -7  -9   -0.22    0.29
   4  -7  -9   -0.10    0.25
  -4   7   9    0.28    0.20
  -4   7   9   -0.11    0.19
  -3   7   9    0.00    0.16
   2  -7  -9    1.77    0.48
   2  -7  -9    1.79    0.34
  -2   7   9    1.96    0.33
   1  -7  -9    0.55    0.32
   1  -7  -9    0.62    0.22
   1  -7  -9    0.65    0.22
   0  -7  -9   -0.04    0.15
   0  -7  -9    0.24    0.18
   0  -7  -9    0.21    0.29
  -1  -7  -9   -0.01    0.18
  -1  -7  -9    0.18    0.18
  -1  -7  -9    0.26    0.20
  -2  -7  -9   -0.06    0.17
   2   7   9   -0.25    0.26
  -3  -7  -9   -0.06    0.20
  -3  -7  -9   -0.18    0.29
   3   7   9    0.39    0.36
  -3   8   9   -0.23    0.21
   1  -8  -9    0.17    0.19
   1  -8  -9   -0.13    0.16
   0  -8  -9    0.30    0.23
  -1  -8  -9    0.01    0.20
   1  10 -10    0.16    0.41
  -1 -10  10    0.06    0.20
   0 -10  10    0.08    0.20
   1 -10  10    5.24    0.62
   2 -10  10    0.48    0.27
   3 -10  10    1.11    0.38
   2   9 -10    0.17    0.29
   1   9 -10   -0.14    0.33
  -1  -9  10    0.11    0.16
  -1  -9  10    0.38    0.24
   0  -9  10   -0.05    0.20
   0  -9  10    0.22    0.19
   0  -9  10   -0.05    0.23
   1  -9  10   -0.05    0.15
   2  -9  10    1.31    0.36
   2  -9  10    1.56    0.34
   3  -9  10    0.97    0.32
   4  -9  10    0.43    0.24
   5  -9  10    0.17    0.24
   4   8 -10   -0.05    0.26
   4   8 -10    0.10    0.17
   3   8 -10    0.23    0.26
  -3  -8  10    0.05    0.18
   2   8 -10   -0.13    0.23
  -2  -8  10    0.19    0.24
  -2  -8  10    0.07    0.16
  -2  -8  10    0.12    0.18
   1   8 -10    0.24    0.27
  -1  -8  10   -0.05    0.13
  -1  -8  10    0.19    0.21
  -1  -8  10    0.19    0.18
   0   8 -10    0.47    0.31
   0  -8  10    0.30    0.22
   0  -8  10    0.41    0.19
   0  -8  10    0.16    0.19
   1  -8  10    0.04    0.18
   1  -8  10    0.20    0.15
   2  -8  10    0.36    0.21
   2  -8  10    0.01    0.22
  -3   8 -10   38.27    1.20
   3  -8  10   36.45    1.35
  -4   8 -10    0.66    0.23
   4  -8  10    0.43    0.23
  -5   8 -10    0.29    0.25
   5  -8  10    0.17    0.19
   6  -8  10    0.19    0.35
   6  -8  10    0.18    0.22
   5   7 -10    0.02    0.21
   5   7 -10    0.30    0.18
   4   7 -10    1.54    0.31
   4   7 -10    1.88    0.40
  -4  -7  10    1.75    0.34
   3   7 -10    9.55    0.88
  -3  -7  10    8.39    0.58
  -3  -7  10    8.51    0.60
   2   7 -10   -0.05    0.20
  -2  -7  10    0.04    0.12
  -2  -7  10    0.10    0.16
  -2  -7  10    0.17    0.19
   1   7 -10    0.58    0.27
  -1  -7  10    0.35    0.21
  -1  -7  10    0.37    0.19
  -1  -7  10    0.26    0.16
   0   7 -10   -0.06    0.18
   0  -7  10    0.07    0.17
   0  -7  10   -0.03    0.24
   0  -7  10    0.08    0.11
   0  -7  10   -0.15    0.13
   1  -7  10   -0.02    0.21
   1  -7  10    0.31    0.15
   1  -7  10   -0.13    0.14
  -2   7 -10    0.21    0.15
   2  -7  10   -0.12    0.16
   2  -7  10    0.24    0.15
  -3   7 -10    0.44    0.22
  -3   7 -10    0.52    0.20
  -3   7 -10    0.77    0.22
   3  -7  10    0.59    0.23
  -4   7 -10    6.97    0.52
  -4   7 -10    5.72    0.63
  -4   7 -10    6.85    0.50
   4  -7  10    7.66    0.57
   4  -7  10    5.99    0.83
  -5   7 -10    0.12    0.23
  -5   7 -10   -0.11    0.18
  -5   7 -10    0.10    0.19
   5  -7  10    0.00    0.18
   5  -7  10    0.35    0.31
  -6   7 -10    0.35    0.33
  -6   7 -10    0.01    0.29
   6  -7  10    0.21    0.20
   6  -7  10    0.45    0.33
   6   6 -10    0.04    0.19
   6   6 -10    0.41    0.22
   5   6 -10    0.27    0.20
   5   6 -10   -0.09    0.16
  -5  -6  10   -0.05    0.14
   4   6 -10    2.71    0.39
   4   6 -10    2.35    0.40
  -4  -6  10    2.82    0.38
   3   6 -10   20.63    0.87
   3   6 -10   21.00    1.02
  -3  -6  10   19.62    0.81
  -3  -6  10   19.95    0.86
  -3  -6  10   21.16    1.13
   2   6 -10   -0.11    0.16
  -2  -6  10    0.17    0.13
  -2  -6  10    0.22    0.20
  -2  -6  10    0.11    0.12
  -2  -6  10    0.29    0.17
   1   6 -10    0.36    0.20
  -1  -6  10   -0.14    0.14
  -1  -6  10    0.00    0.17
  -1  -6  10    0.13    0.13
  -1  -6  10    0.20    0.12
   0   6 -10    0.20    0.20
   0  -6  10   -0.02    0.12
   0  -6  10    0.09    0.19
   0  -6  10    0.00    0.14
   0  -6  10   -0.07    0.10
  -1   6 -10    0.33    0.22
  -1   6 -10    0.17    0.10
  -1   6 -10    0.10    0.12
   1  -6  10    0.40    0.15
   1  -6  10    0.05    0.13
   1  -6  10    0.20    0.16
   1  -6  10   -0.11    0.21
  -2   6 -10    1.92    0.27
  -2   6 -10    2.08    0.33
  -2   6 -10    1.54    0.24
   2  -6  10    2.32    0.32
   2  -6  10    2.97    0.36
   2  -6  10    1.35    0.35
  -3   6 -10    0.56    0.19
  -3   6 -10    0.37    0.21
  -3   6 -10    0.53    0.18
   3  -6  10    0.55    0.27
   3  -6  10    0.28    0.21
   3  -6  10    0.50    0.19
  -4   6 -10    0.15    0.16
  -4   6 -10   -0.03    0.15
  -4   6 -10    0.04    0.16
  -4   6 -10    0.15    0.16
   4  -6  10    0.13    0.14
   4  -6  10    0.17    0.25
  -5   6 -10    1.00    0.30
  -5   6 -10    1.57    0.30
  -5   6 -10    1.33    0.30
  -5   6 -10    1.89    0.41
   5  -6  10    1.56    0.33
   5  -6  10    1.28    0.39
  -6   6 -10    0.32    0.27
  -6   6 -10    0.08    0.24
  -6   6 -10    0.72    0.27
   6  -6  10    0.28    0.19
   6  -6  10    0.30    0.26
   7  -6  10    0.21    0.23
   7   5 -10   -0.01    0.20
   6   5 -10    0.01    0.14
   6   5 -10    0.02    0.18
   5   5 -10    0.09    0.15
   5   5 -10    0.09    0.15
  -5  -5  10   -0.01    0.22
   4   5 -10   -0.13    0.12
   4   5 -10    0.11    0.13
  -4  -5  10   -0.30    0.16
  -4  -5  10    0.02    0.11
   3   5 -10    0.60    0.22
   3   5 -10    0.56    0.17
  -3  -5  10    1.10    0.23
  -3  -5  10    0.76    0.20
  -3  -5  10    0.88    0.28
   2   5 -10    5.47    0.57
  -2  -5  10    5.27    0.40
  -2  -5  10    6.73    0.70
  -2  -5  10    5.98    0.39
  -2  -5  10    5.83    0.42
   1   5 -10   12.48    0.76
   1   5 -10   12.16    0.56
  -1  -5  10   13.39    0.53
  -1  -5  10   13.64    0.82
  -1  -5  10   13.68    0.64
   0   5 -10    0.07    0.16
   0   5 -10    0.09    0.10
   0  -5  10    0.03    0.16
   0  -5  10   -0.08    0.11
   0  -5  10    0.20    0.12
  -1   5 -10    1.21    0.23
  -1   5 -10    1.30    0.19
  -1   5 -10    0.79    0.28
  -1   5 -10    1.22    0.19
   1  -5  10    1.08    0.23
   1  -5  10    1.17    0.21
   1  -5  10    1.16    0.23
   1  -5  10    1.53    0.36
  -2   5 -10   -0.03    0.09
  -2   5 -10    0.23    0.14
  -2   5 -10    0.06    0.11
  -2   5 -10    0.11    0.14
   2  -5  10    0.05    0.18
   2  -5  10    0.04    0.14
   2  -5  10   -0.06    0.11
   2  -5  10    0.10    0.12
  -3   5 -10   -0.06    0.11
  -3   5 -10   -0.05    0.13
  -3   5 -10   -0.10    0.12
  -3   5 -10    0.11    0.13
   3  -5  10    0.16    0.20
   3  -5  10    0.01    0.10
   3  -5  10    0.05    0.19
  -4   5 -10    0.01    0.12
  -4   5 -10    0.29    0.18
  -4   5 -10    0.22    0.17
  -4   5 -10   -0.05    0.12
   4  -5  10    0.06    0.11
   4  -5  10   -0.02    0.19
   4  -5  10   -0.01    0.17
  -5   5 -10    0.03    0.18
  -5   5 -10    0.21    0.18
  -5   5 -10   -0.07    0.17
  -5   5 -10   -0.18    0.13
   5  -5  10    0.42    0.25
   5  -5  10   -0.15    0.14
  -6   5 -10    0.20    0.23
  -6   5 -10    0.64    0.24
  -6   5 -10    0.90    0.33
   6  -5  10    0.18    0.18
   6  -5  10    0.51    0.29
  -7   5 -10    1.37    0.32
  -7   5 -10    1.78    0.41
   7  -5  10    1.40    0.35
   7  -5  10    1.45    0.43
   7   4 -10    0.15    0.22
   6   4 -10    0.03    0.16
   6   4 -10    0.22    0.13
   5   4 -10   -0.06    0.12
   5   4 -10    0.07    0.14
  -5  -4  10   -0.26    0.18
   4   4 -10    0.51    0.20
   4   4 -10    0.71    0.21
  -4  -4  10    0.20    0.12
  -4  -4  10    0.44    0.23
   3   4 -10    2.97    0.39
   3   4 -10    3.77    0.45
   3   4 -10    3.32    0.38
  -3  -4  10    2.63    0.42
  -3  -4  10    3.03    0.31
  -3  -4  10    2.92    0.32
   2   4 -10    2.41    0.33
   2   4 -10    3.09    0.41
   2   4 -10    2.78    0.31
   2   4 -10    3.00    0.35
  -2  -4  10    2.89    0.43
  -2  -4  10    3.12    0.34
  -2  -4  10    3.92    0.39
   1   4 -10    3.14    0.33
   1   4 -10    2.96    0.32
   1   4 -10    2.51    0.37
  -1  -4  10    2.24    0.29
  -1  -4  10    2.70    0.25
  -1  -4  10    2.41    0.41
  -1  -4  10    2.87    0.35
   0   4 -10    0.10    0.10
   0   4 -10    0.07    0.06
   0   4 -10    0.22    0.15
   0  -4  10    0.11    0.16
   0  -4  10    0.12    0.12
   0  -4  10    0.25    0.13
   0  -4  10    0.11    0.09
  -1   4 -10    0.00    0.11
  -1   4 -10    0.02    0.08
  -1   4 -10    0.01    0.09
  -1   4 -10    0.10    0.14
  -1   4 -10   -0.02    0.08
   1  -4  10   -0.02    0.12
   1  -4  10   -0.08    0.11
   1  -4  10    0.11    0.10
   1  -4  10   -0.09    0.09
   1  -4  10   -0.01    0.12
  -2   4 -10    1.97    0.26
  -2   4 -10    1.30    0.26
  -2   4 -10    1.46    0.22
  -2   4 -10    1.37    0.26
   2  -4  10    1.63    0.24
   2  -4  10    1.59    0.38
   2  -4  10    1.14    0.20
   2  -4  10    1.44    0.22
   2  -4  10    1.77    0.34
  -3   4 -10    2.41    0.36
  -3   4 -10    2.55    0.31
  -3   4 -10    2.78    0.37
  -3   4 -10    1.98    0.28
   3  -4  10    1.91    0.41
   3  -4  10    2.97    0.34
   3  -4  10    2.79    0.43
  -4   4 -10    0.95    0.27
  -4   4 -10    0.23    0.15
  -4   4 -10    0.87    0.21
  -4   4 -10    1.04    0.25
   4  -4  10    0.55    0.19
   4  -4  10    0.67    0.26
   4  -4  10    0.44    0.25
  -5   4 -10    0.08    0.15
  -5   4 -10    0.07    0.15
  -5   4 -10    0.03    0.17
  -5   4 -10    0.17    0.19
   5  -4  10    0.14    0.14
   5  -4  10   -0.08    0.16
  -6   4 -10   -0.06    0.19
  -6   4 -10   -0.02    0.17
  -6   4 -10    0.31    0.20
  -6   4 -10    0.18    0.22
   6  -4  10    0.40    0.18
   6  -4  10    0.01    0.19
  -7   4 -10   13.70    0.86
  -7   4 -10   13.36    0.98
   7  -4  10   15.23    0.85
   7  -4  10   14.12    0.94
   8   3 -10    1.47    0.38
   7   3 -10   12.47    0.76
   6   3 -10    0.55    0.22
   6   3 -10    0.49    0.16
   5   3 -10    0.75    0.26
   5   3 -10    0.48    0.17
   5   3 -10    0.73    0.21
   4   3 -10    0.05    0.11
   4   3 -10   -0.06    0.11
   4   3 -10   -0.08    0.14
  -4  -3  10    0.04    0.13
  -4  -3  10   -0.07    0.08
   3   3 -10    0.55    0.17
   3   3 -10    0.60    0.16
   3   3 -10    0.32    0.15
   3   3 -10    0.67    0.21
  -3  -3  10    0.37    0.17
  -3  -3  10    0.72    0.15
  -3  -3  10    0.39    0.13
   2   3 -10    1.28    0.26
   2   3 -10    2.37    0.31
   2   3 -10    1.90    0.29
   2   3 -10    2.18    0.27
  -2  -3  10    2.34    0.36
  -2  -3  10    2.41    0.29
  -2  -3  10    1.64    0.24
   1   3 -10    1.82    0.20
   1   3 -10    2.46    0.35
   1   3 -10    1.66    0.21
   1   3 -10    1.52    0.25
   1   3 -10    2.14    0.27
  -1  -3  10    1.83    0.17
  -1  -3  10    2.05    0.26
  -1  -3  10    1.76    0.32
   0   3 -10    6.17    0.28
   0   3 -10    5.54    0.37
   0   3 -10    6.84    0.63
   0   3 -10    5.77    0.41
   0   3 -10    5.85    0.31
   0   3 -10    6.46    0.30
   0  -3  10    5.16    0.28
   0  -3  10    5.51    0.37
   0  -3  10    7.12    0.63
   0  -3  10    5.69    0.39
   0  -3  10    5.90    0.57
  -1   3 -10    1.68    0.32
  -1   3 -10    1.66    0.18
  -1   3 -10    2.16    0.24
  -1   3 -10    1.90    0.28
  -1   3 -10    1.82    0.21
  -1   3 -10    2.00    0.28
   1  -3  10    2.07    0.26
   1  -3  10    1.57    0.31
   1  -3  10    1.55    0.24
   1  -3  10    2.14    0.23
   1  -3  10    1.92    0.34
  -2   3 -10    6.25    0.43
  -2   3 -10    5.59    0.42
  -2   3 -10    6.28    0.37
  -2   3 -10    6.02    0.64
  -2   3 -10    5.95    0.36
   2  -3  10    5.94    0.32
   2  -3  10    5.62    0.34
   2  -3  10    4.96    0.53
   2  -3  10    5.90    0.35
   2  -3  10    6.50    0.66
  -3   3 -10   -0.15    0.10
  -3   3 -10    0.17    0.11
  -3   3 -10   -0.07    0.11
  -3   3 -10    0.15    0.12
   3  -3  10   -0.18    0.07
   3  -3  10    0.04    0.16
   3  -3  10    0.17    0.16
  -4   3 -10    0.38    0.17
  -4   3 -10    0.38    0.15
  -4   3 -10    0.31    0.18
  -4   3 -10    0.45    0.16
   4  -3  10    0.19    0.11
   4  -3  10    0.15    0.16
   4  -3  10    0.11    0.17
  -5   3 -10    0.23    0.15
  -5   3 -10    0.08    0.14
  -5   3 -10    0.29    0.15
  -5   3 -10    0.21    0.18
   5  -3  10   -0.02    0.11
   5  -3  10    0.01    0.15
  -6   3 -10    0.45    0.19
  -6   3 -10    0.91    0.24
  -6   3 -10    1.30    0.36
  -6   3 -10    1.03    0.27
   6  -3  10    1.27    0.27
   6  -3  10    1.20    0.32
  -7   3 -10    0.11    0.28
  -7   3 -10    0.30    0.20
   7  -3  10    0.35    0.24
   7  -3  10    0.07    0.18
   8   2 -10    0.39    0.23
   7   2 -10    1.30    0.32
   7   2 -10    1.00    0.17
   6   2 -10    0.17    0.14
   6   2 -10    0.74    0.22
   6   2 -10    0.68    0.32
   5   2 -10   -0.01    0.17
   5   2 -10    0.25    0.20
   5   2 -10    0.21    0.13
   5   2 -10   -0.05    0.12
   4   2 -10    0.55    0.22
   4   2 -10    0.22    0.13
   4   2 -10    0.24    0.18
   4   2 -10    0.49    0.17
  -4  -2  10    0.27    0.10
  -4  -2  10    0.25    0.13
   3   2 -10    0.41    0.16
   3   2 -10    0.42    0.16
   3   2 -10    0.40    0.14
   3   2 -10    0.31    0.17
   3   2 -10    0.39    0.19
  -3  -2  10    0.42    0.12
  -3  -2  10    0.37    0.13
  -3  -2  10    0.24    0.14
   2   2 -10    1.15    0.20
   2   2 -10    0.86    0.17
   2   2 -10    1.53    0.26
   2   2 -10    1.02    0.24
   2   2 -10    0.96    0.24
  -2  -2  10    1.01    0.18
  -2  -2  10    0.97    0.23
   1   2 -10    7.62    0.39
   1   2 -10    7.78    0.45
   1   2 -10    8.28    0.38
   1   2 -10    6.88    0.52
   1   2 -10    7.37    0.46
  -1  -2  10    7.69    0.41
  -1  -2  10    7.40    0.42
  -1  -2  10    7.47    0.48
  -1  -2  10    8.22    0.26
  -1  -2  10    6.91    0.49
   0   2 -10    1.60    0.31
   0   2 -10    1.77    0.25
   0   2 -10    1.19    0.16
   0   2 -10    1.14    0.15
   0   2 -10    1.14    0.20
   0   2 -10    1.01    0.15
   0  -2  10    1.27    0.15
   0  -2  10    1.62    0.23
   0  -2  10    1.76    0.30
   0  -2  10    1.32    0.24
   0  -2  10    1.32    0.28
   0  -2  10    1.20    0.20
  -1   2 -10   31.00    0.85
  -1   2 -10   30.85    0.99
  -1   2 -10   31.09    0.77
  -1   2 -10   32.58    0.90
  -1   2 -10   31.50    1.18
  -1   2 -10   32.36    1.04
   1  -2  10   30.94    0.94
   1  -2  10   31.39    0.92
   1  -2  10   32.99    1.19
   1  -2  10   32.11    1.15
   1  -2  10   32.33    0.84
   1  -2  10   32.51    1.05
  -2   2 -10    2.96    0.29
  -2   2 -10    3.60    0.39
  -2   2 -10    3.82    0.56
  -2   2 -10    3.77    0.28
  -2   2 -10    3.75    0.39
   2  -2  10    2.76    0.40
   2  -2  10    3.25    0.22
   2  -2  10    4.10    0.28
   2  -2  10    3.84    0.47
  -3   2 -10    3.55    0.38
  -3   2 -10    3.37    0.32
  -3   2 -10    4.04    0.31
  -3   2 -10    4.12    0.46
   3  -2  10    3.70    0.45
   3  -2  10    3.71    0.35
   3  -2  10    4.91    0.62
  -4   2 -10    0.23    0.15
  -4   2 -10    0.22    0.14
  -4   2 -10    0.41    0.14
  -4   2 -10    0.28    0.15
   4  -2  10    0.45    0.23
   4  -2  10    0.23    0.12
   4  -2  10    0.36    0.20
  -5   2 -10    0.28    0.17
  -5   2 -10    0.60    0.18
  -5   2 -10    0.62    0.19
  -5   2 -10    0.57    0.23
   5  -2  10    0.57    0.28
   5  -2  10    0.60    0.18
   5  -2  10    0.45    0.22
  -6   2 -10   -0.20    0.17
  -6   2 -10    0.17    0.15
  -6   2 -10   -0.11    0.14
   6  -2  10    0.00    0.11
   6  -2  10   -0.05    0.17
  -7   2 -10    0.90    0.35
  -7   2 -10    0.51    0.23
   7  -2  10    0.55    0.28
   7  -2  10    0.30    0.22
   8   1 -10   -0.07    0.33
   8   1 -10   -0.24    0.19
  -8  -1  10    0.09    0.16
   7   1 -10    1.16    0.21
   7   1 -10    1.59    0.33
   7   1 -10    2.00    0.49
  -7  -1  10    0.77    0.20
   6   1 -10    0.83    0.33
   6   1 -10    0.37    0.19
   6   1 -10    0.78    0.21
   5   1 -10    1.48    0.39
   5   1 -10    2.27    0.33
   5   1 -10    2.43    0.46
   5   1 -10    1.80    0.28
   5   1 -10    1.70    0.39
   4   1 -10    2.02    0.30
   4   1 -10    2.02    0.35
   4   1 -10    1.36    0.32
   4   1 -10    2.56    0.34
   4   1 -10    1.67    0.36
  -4  -1  10    1.33    0.17
   3   1 -10    0.30    0.20
   3   1 -10    0.20    0.14
   3   1 -10    0.18    0.15
   3   1 -10    0.06    0.11
   3   1 -10    0.24    0.11
  -3  -1  10   -0.01    0.09
  -3  -1  10    0.29    0.11
   2   1 -10    0.09    0.12
   2   1 -10    0.16    0.14
   2   1 -10   -0.03    0.08
   2   1 -10    0.04    0.10
   2   1 -10   -0.08    0.05
  -2  -1  10    0.02    0.08
  -2  -1  10   -0.02    0.07
  -2  -1  10    0.00    0.09
  -2  -1  10   -0.05    0.07
   1   1 -10    2.17    0.23
   1   1 -10    2.04    0.12
   1   1 -10    2.29    0.27
   1   1 -10    1.76    0.29
   1   1 -10    2.25    0.30
   1   1 -10    1.78    0.29
   1   1 -10    1.89    0.15
  -1  -1  10    1.85    0.28
  -1  -1  10    2.68    0.37
  -1  -1  10    2.50    0.28
  -1  -1  10    2.81    0.33
  -1  -1  10    1.94    0.25
   0   1 -10    8.92    0.36
   0   1 -10    8.78    0.56
   0   1 -10    9.15    0.39
   0   1 -10    9.27    0.36
   0   1 -10    8.93    0.48
   0   1 -10    8.89    0.45
   0  -1  10    8.54    0.44
   0  -1  10    9.78    0.58
   0  -1  10    8.81    0.52
   0  -1  10    8.93    0.31
   0  -1  10   10.04    0.53
   0  -1  10    9.27    0.45
  -1   1 -10    6.48    0.42
  -1   1 -10    6.30    0.57
  -1   1 -10    6.49    0.26
  -1   1 -10    5.78    0.32
  -1   1 -10    6.78    0.34
  -1   1 -10    5.67    0.38
   1  -1  10    6.03    0.29
   1  -1  10    6.28    0.35
   1  -1  10    6.35    0.49
   1  -1  10    6.83    0.50
   1  -1  10    6.28    0.35
   1  -1  10    7.09    0.45
  -2   1 -10   44.76    1.34
  -2   1 -10   45.29    1.29
  -2   1 -10   44.78    1.14
  -2   1 -10   44.57    1.18
   2  -1  10   44.21    1.13
   2  -1  10   43.53    0.99
   2  -1  10   46.66    1.53
   2  -1  10   45.44    1.47
  -3   1 -10   61.10    1.52
  -3   1 -10   59.81    1.73
  -3   1 -10   63.74    1.52
  -3   1 -10   63.64    1.66
   3  -1  10   60.94    1.96
   3  -1  10   64.27    1.87
   3  -1  10   62.81    1.53
  -4   1 -10    0.31    0.14
  -4   1 -10    0.17    0.12
  -4   1 -10    0.18    0.15
  -4   1 -10    0.15    0.14
   4  -1  10    0.11    0.10
   4  -1  10    0.17    0.15
  -5   1 -10    0.26    0.18
  -5   1 -10    0.27    0.16
  -5   1 -10    0.36    0.17
  -5   1 -10    0.38    0.16
   5  -1  10    0.16    0.18
   5  -1  10    0.27    0.15
  -6   1 -10   -0.22    0.12
  -6   1 -10    0.02    0.18
  -6   1 -10    0.13    0.16
   6  -1  10   -0.08    0.15
   6  -1  10   -0.01    0.12
  -7   1 -10    0.09    0.23
  -7   1 -10    0.03    0.18
   7  -1  10    0.13    0.17
   7  -1  10    0.06    0.21
   8   0 -10    0.24    0.37
   8   0 -10    0.47    0.26
  -8   0  10    0.19    0.17
   7   0 -10    1.68    0.44
   7   0 -10    0.89    0.28
   7   0 -10    1.60    0.29
  -7   0  10    1.32    0.26
   6   0 -10    2.97    0.53
   6   0 -10    1.92    0.31
   6   0 -10    1.89    0.45
   6   0 -10    2.54    0.39
  -6   0  10    3.04    0.36
   5   0 -10    0.23    0.22
   5   0 -10    0.55    0.24
   5   0 -10    0.64    0.29
   5   0 -10    0.67    0.20
   5   0 -10    0.34    0.15
  -5   0  10    0.51    0.12
  -5   0  10    0.22    0.15
   4   0 -10    2.90    0.44
   4   0 -10    3.16    0.36
   4   0 -10    3.65    0.49
   4   0 -10    3.14    0.39
   4   0 -10    4.23    0.57
  -4   0  10    3.62    0.26
  -4   0  10    3.51    0.37
   3   0 -10    1.19    0.27
   3   0 -10    0.81    0.22
   3   0 -10    0.96    0.19
   3   0 -10    1.23    0.27
   3   0 -10    0.67    0.25
  -3   0  10    1.20    0.23
  -3   0  10    0.93    0.18
  -3   0  10    1.10    0.18
   2   0 -10    0.57    0.17
   2   0 -10    0.27    0.16
   2   0 -10    0.59    0.20
   2   0 -10    0.55    0.14
   2   0 -10    0.79    0.21
  -2   0  10    0.94    0.18
  -2   0  10    0.63    0.14
  -2   0  10    0.90    0.17
  -2   0  10    0.74    0.18
   1   0 -10    0.00    0.07
   1   0 -10    0.02    0.08
   1   0 -10   -0.08    0.08
   1   0 -10    0.01    0.06
   1   0 -10   -0.05    0.04
   1   0 -10   -0.04    0.06
   1   0 -10    0.08    0.12
   1   0 -10    0.04    0.06
  -1   0  10    0.05    0.09
  -1   0  10    0.04    0.10
  -1   0  10    0.04    0.09
  -1   0  10    0.21    0.10
  -1   0  10   -0.01    0.09
   0   0 -10    0.83    0.19
   0   0 -10    0.81    0.17
   0   0 -10    1.08    0.24
   0   0 -10    0.91    0.11
   0   0 -10    0.43    0.11
   0   0 -10    0.80    0.13
   0   0 -10    0.90    0.22
   0   0 -10    0.75    0.14
   0   0  10    0.62    0.14
   0   0  10    0.68    0.18
   0   0  10    0.65    0.10
   0   0  10    0.64    0.15
   0   0  10    0.90    0.22
   0   0  10    0.76    0.20
  -1   0 -10    0.61    0.14
  -1   0 -10    0.55    0.17
  -1   0 -10    0.78    0.19
  -1   0 -10    0.59    0.13
  -1   0 -10    1.05    0.25
   1   0  10    0.81    0.15
   1   0  10    0.48    0.19
   1   0  10    0.44    0.10
   1   0  10    0.54    0.14
   1   0  10    0.46    0.19
   1   0  10    0.33    0.14
  -2   0 -10    0.99    0.22
  -2   0 -10    1.18    0.19
  -2   0 -10    0.96    0.21
  -2   0 -10    1.18    0.19
   2   0  10    1.60    0.21
   2   0  10    0.92    0.25
   2   0  10    1.12    0.29
  -3   0 -10    0.19    0.12
  -3   0 -10    0.14    0.11
  -3   0 -10    0.43    0.17
  -3   0 -10    0.14    0.11
   3   0  10    0.29    0.12
   3   0  10    0.15    0.16
  -4   0 -10   46.71    1.42
  -4   0 -10   49.52    1.30
  -4   0 -10   50.22    1.57
  -4   0 -10   51.18    1.33
   4   0  10   49.08    1.66
   4   0  10   49.97    1.39
  -5   0 -10    0.19    0.14
  -5   0 -10    0.28    0.16
  -5   0 -10    0.12    0.14
  -5   0 -10    0.03    0.15
   5   0  10    0.14    0.18
   5   0  10    0.10    0.11
  -6   0 -10    0.10    0.14
  -6   0 -10   -0.05    0.20
  -6   0 -10    0.16    0.16
   6   0  10    0.14    0.15
   6   0  10    0.09    0.19
  -7   0 -10    0.01    0.24
   7   0  10    0.36    0.22
   7   0  10    0.03    0.16
   8  -1 -10    0.40    0.40
   8  -1 -10    0.02    0.17
  -8   1  10    0.08    0.21
   7  -1 -10   -0.23    0.23
   7  -1 -10    0.02    0.16
   7  -1 -10    0.27    0.29
   7  -1 -10   -0.03    0.19
  -7   1  10   -0.02    0.16
   6  -1 -10    0.33    0.30
   6  -1 -10    0.27    0.26
   6  -1 -10    0.87    0.26
   6  -1 -10    0.03    0.15
  -6   1  10    0.35    0.17
  -6   1  10    0.22    0.12
   5  -1 -10    2.45    0.48
   5  -1 -10    1.44    0.36
   5  -1 -10    2.27    0.34
   5  -1 -10    2.15    0.48
   5  -1 -10    1.74    0.33
  -5   1  10    2.42    0.27
  -5   1  10    2.64    0.35
   4  -1 -10    1.77    0.42
   4  -1 -10    2.88    0.46
   4  -1 -10    1.80    0.29
   4  -1 -10    1.81    0.37
  -4   1  10    2.02    0.26
  -4   1  10    1.87    0.30
   3  -1 -10  194.44    4.38
   3  -1 -10  194.10    4.29
   3  -1 -10  200.08    4.75
   3  -1 -10  192.95    4.26
   3  -1 -10  191.42    3.90
  -3   1  10  192.05    3.87
  -3   1  10  192.47    3.93
  -3   1  10  188.33    4.03
   2  -1 -10   -0.11    0.11
   2  -1 -10    0.15    0.12
   2  -1 -10    0.16    0.15
   2  -1 -10    0.06    0.11
   2  -1 -10    0.02    0.08
  -2   1  10   -0.07    0.10
  -2   1  10    0.02    0.08
  -2   1  10   -0.01    0.09
   1  -1 -10    0.38    0.10
   1  -1 -10    0.46    0.15
   1  -1 -10    0.31    0.11
   1  -1 -10    0.16    0.14
   1  -1 -10    0.20    0.12
   1  -1 -10    0.27    0.15
   1  -1 -10    0.45    0.16
  -1   1  10    0.57    0.20
  -1   1  10    0.39    0.17
  -1   1  10    0.27    0.12
  -1   1  10    0.40    0.13
   0  -1 -10    0.21    0.09
   0  -1 -10    0.33    0.14
   0  -1 -10    0.45    0.19
   0  -1 -10    0.40    0.12
   0  -1 -10    0.44    0.09
   0  -1 -10    0.35    0.15
   0  -1 -10    0.13    0.10
   0   1  10    0.36    0.13
   0   1  10    0.42    0.17
   0   1  10    0.48    0.09
   0   1  10    0.10    0.14
   0   1  10    0.66    0.16
  -1  -1 -10    4.63    0.31
  -1  -1 -10    4.92    0.54
  -1  -1 -10    5.14    0.39
  -1  -1 -10    4.73    0.26
  -1  -1 -10    5.26    0.32
  -1  -1 -10    4.95    0.45
   1   1  10    5.17    0.29
   1   1  10    4.58    0.27
   1   1  10    4.58    0.30
   1   1  10    6.01    0.62
  -2  -1 -10    0.62    0.18
  -2  -1 -10    0.43    0.13
  -2  -1 -10    0.72    0.19
  -2  -1 -10    0.64    0.14
  -2  -1 -10    0.47    0.14
   2   1  10    0.58    0.14
   2   1  10    0.60    0.23
  -3  -1 -10   14.97    0.73
  -3  -1 -10   16.31    0.61
  -3  -1 -10   16.06    0.63
  -3  -1 -10   16.12    0.72
   3   1  10   16.45    0.87
   3   1  10   15.91    0.64
  -4  -1 -10    0.89    0.19
  -4  -1 -10    1.44    0.23
  -4  -1 -10    1.34    0.26
  -4  -1 -10    1.75    0.32
   4   1  10    1.55    0.34
   4   1  10    1.91    0.29
  -5  -1 -10    3.26    0.33
  -5  -1 -10    3.13    0.45
  -5  -1 -10    2.79    0.37
   5   1  10    3.32    0.39
   5   1  10    4.61    0.58
  -6  -1 -10   -0.04    0.13
  -6  -1 -10    0.08    0.14
  -6  -1 -10    0.10    0.14
  -6  -1 -10   -0.08    0.18
   6   1  10    0.10    0.19
   6   1  10    0.09    0.16
  -7  -1 -10    0.11    0.19
   7   1  10   -0.04    0.20
   8  -2 -10    0.78    0.27
   7  -2 -10    0.04    0.19
   7  -2 -10    0.15    0.32
   7  -2 -10    0.28    0.26
  -7   2  10   -0.06    0.17
   6  -2 -10    2.82    0.44
   6  -2 -10    3.56    0.60
   6  -2 -10    3.83    0.66
  -6   2  10    3.80    0.46
  -6   2  10    2.59    0.31
   5  -2 -10    0.24    0.20
   5  -2 -10   -0.19    0.12
   5  -2 -10    0.02    0.22
  -5   2  10   -0.06    0.13
  -5   2  10   -0.04    0.10
   4  -2 -10    2.76    0.52
   4  -2 -10    2.53    0.45
   4  -2 -10    2.64    0.46
   4  -2 -10    2.28    0.38
  -4   2  10    2.98    0.38
  -4   2  10    2.96    0.33
  -4   2  10    3.07    0.33
   3  -2 -10   -0.03    0.13
   3  -2 -10   -0.07    0.11
   3  -2 -10    0.04    0.16
   3  -2 -10    0.04    0.14
  -3   2  10    0.08    0.11
  -3   2  10   -0.04    0.11
  -3   2  10    0.10    0.10
   2  -2 -10  126.09    3.09
   2  -2 -10  122.61    2.93
   2  -2 -10  121.12    3.23
   2  -2 -10  126.59    3.04
  -2   2  10  121.63    2.69
  -2   2  10  118.12    2.66
  -2   2  10  117.59    2.84
   1  -2 -10   -0.02    0.09
   1  -2 -10   -0.03    0.05
   1  -2 -10   -0.05    0.08
   1  -2 -10   -0.02    0.14
   1  -2 -10    0.13    0.10
   1  -2 -10   -0.01    0.06
   1  -2 -10   -0.02    0.12
  -1   2  10   -0.02    0.08
  -1   2  10    0.09    0.10
  -1   2  10   -0.06    0.10
  -1   2  10    0.04    0.13
   0  -2 -10    2.35    0.27
   0  -2 -10    2.20    0.24
   0  -2 -10    1.86    0.32
   0  -2 -10    2.76    0.45
   0  -2 -10    2.39    0.33
   0  -2 -10    2.46    0.21
   0  -2 -10    2.71    0.34
   0   2  10    1.52    0.30
   0   2  10    2.40    0.28
   0   2  10    2.34    0.28
   0   2  10    2.40    0.41
  -1  -2 -10    0.17    0.11
  -1  -2 -10    0.39    0.16
  -1  -2 -10    0.12    0.10
  -1  -2 -10    0.14    0.09
  -1  -2 -10    0.02    0.07
  -1  -2 -10    0.00    0.12
   1   2  10    0.10    0.08
   1   2  10   -0.10    0.07
   1   2  10    0.20    0.16
  -2  -2 -10   -0.03    0.11
  -2  -2 -10    0.27    0.14
  -2  -2 -10    0.32    0.12
  -2  -2 -10    0.12    0.10
  -2  -2 -10    0.16    0.10
   2   2  10    0.09    0.14
   2   2  10    0.28    0.12
  -3  -2 -10    0.15    0.12
  -3  -2 -10    0.15    0.11
  -3  -2 -10    0.13    0.10
  -3  -2 -10    0.05    0.09
  -3  -2 -10    0.14    0.13
   3   2  10    0.03    0.09
   3   2  10   -0.01    0.15
  -4  -2 -10    0.75    0.24
  -4  -2 -10    1.16    0.22
  -4  -2 -10    0.46    0.15
  -4  -2 -10    0.97    0.25
  -4  -2 -10    0.97    0.20
   4   2  10    1.17    0.23
   4   2  10    1.23    0.31
  -5  -2 -10    3.70    0.40
  -5  -2 -10    3.46    0.36
  -5  -2 -10    4.50    0.49
  -5  -2 -10    3.03    0.42
   5   2  10    3.71    0.53
   5   2  10    3.29    0.39
  -6  -2 -10   20.09    0.89
  -6  -2 -10   20.45    0.97
   6   2  10   20.90    1.10
   6   2  10   20.41    0.95
   7  -3 -10    0.06    0.21
   7  -3 -10    0.10    0.29
  -7   3  10    0.18    0.22
  -7   3  10    0.19    0.17
   6  -3 -10    0.00    0.22
   6  -3 -10    0.02    0.26
   6  -3 -10    0.11    0.19
  -6   3  10   -0.03    0.13
  -6   3  10    0.24    0.19
   5  -3 -10    0.51    0.24
   5  -3 -10    0.81    0.33
   5  -3 -10    0.65    0.33
  -5   3  10    0.48    0.23
  -5   3  10    0.68    0.20
  -5   3  10    0.80    0.21
   4  -3 -10    1.16    0.37
   4  -3 -10    1.14    0.36
   4  -3 -10    0.55    0.27
   4  -3 -10    0.73    0.27
  -4   3  10    0.86    0.21
  -4   3  10    0.80    0.20
  -4   3  10    0.75    0.26
   3  -3 -10   11.91    0.76
   3  -3 -10   12.62    0.82
   3  -3 -10   11.39    0.77
   3  -3 -10   12.43    0.87
  -3   3  10   11.24    0.58
  -3   3  10   10.29    0.67
  -3   3  10   11.58    0.58
   2  -3 -10   -0.08    0.10
   2  -3 -10   -0.15    0.14
   2  -3 -10    0.15    0.17
   2  -3 -10    0.11    0.16
  -2   3  10   -0.13    0.09
  -2   3  10    0.05    0.11
  -2   3  10    0.08    0.13
   1  -3 -10    9.15    0.59
   1  -3 -10    8.74    0.47
   1  -3 -10    7.88    0.41
   1  -3 -10    7.78    0.59
   1  -3 -10    8.78    0.68
   1  -3 -10    8.42    0.63
   1  -3 -10    7.92    0.36
  -1   3  10    8.44    0.47
  -1   3  10    9.19    0.51
  -1   3  10    8.48    0.59
   0  -3 -10    0.06    0.11
   0  -3 -10    0.36    0.11
   0  -3 -10    0.38    0.18
   0  -3 -10    0.03    0.10
   0  -3 -10    0.37    0.13
   0  -3 -10    0.22    0.16
   0  -3 -10    0.36    0.17
   0   3  10    0.43    0.14
   0   3  10    0.39    0.15
   0   3  10    0.35    0.19
  -1  -3 -10    0.39    0.13
  -1  -3 -10    0.17    0.15
  -1  -3 -10    0.27    0.18
  -1  -3 -10    0.35    0.16
  -1  -3 -10    0.08    0.09
  -1  -3 -10    0.35    0.13
   1   3  10    0.06    0.14
  -2  -3 -10   -0.08    0.12
  -2  -3 -10   -0.03    0.08
  -2  -3 -10   -0.05    0.09
  -2  -3 -10    0.03    0.11
  -2  -3 -10   -0.03    0.09
   2   3  10    0.04    0.09
   2   3  10   -0.02    0.16
  -3  -3 -10    0.12    0.11
  -3  -3 -10    0.38    0.15
  -3  -3 -10    0.32    0.13
  -3  -3 -10    0.65    0.23
  -3  -3 -10    0.29    0.16
   3   3  10    0.52    0.26
   3   3  10    0.41    0.14
  -4  -3 -10    0.55    0.16
  -4  -3 -10    0.10    0.18
  -4  -3 -10    0.28    0.15
  -4  -3 -10    0.86    0.23
  -4  -3 -10    0.46    0.16
   4   3  10    0.21    0.23
   4   3  10    0.33    0.16
  -5  -3 -10    1.19    0.27
  -5  -3 -10    1.18    0.31
   5   3  10    0.47    0.20
   5   3  10    0.71    0.28
  -6  -3 -10    0.02    0.15
   6   3  10    0.22    0.22
   7  -4 -10    2.12    0.57
   7  -4 -10    2.57    0.53
  -7   4  10    2.06    0.45
   6  -4 -10   -0.15    0.28
   6  -4 -10    0.09    0.25
   6  -4 -10    0.01    0.22
  -6   4  10    0.26    0.24
  -6   4  10    0.09    0.18
  -6   4  10    0.21    0.18
   5  -4 -10    0.05    0.24
   5  -4 -10    0.30    0.26
   5  -4 -10    0.10    0.28
  -5   4  10    0.33    0.22
  -5   4  10    0.08    0.15
  -5   4  10    0.17    0.16
   4  -4 -10    1.67    0.41
   4  -4 -10    0.78    0.33
   4  -4 -10    1.32    0.40
  -4   4  10    1.72    0.30
  -4   4  10    1.95    0.33
  -4   4  10    1.66    0.39
   3  -4 -10    0.30    0.21
   3  -4 -10    0.12    0.19
   3  -4 -10    0.37    0.26
   3  -4 -10    0.23    0.23
  -3   4  10   -0.04    0.11
  -3   4  10   -0.09    0.12
  -3   4  10    0.34    0.21
   2  -4 -10    0.09    0.17
   2  -4 -10    0.42    0.29
   2  -4 -10    0.09    0.15
   2  -4 -10    0.07    0.17
  -2   4  10    0.08    0.13
  -2   4  10    0.50    0.22
  -2   4  10    0.32    0.17
   1  -4 -10    0.62    0.16
   1  -4 -10    1.18    0.31
   1  -4 -10    0.58    0.15
   1  -4 -10    0.57    0.23
   1  -4 -10    0.72    0.25
  -1   4  10    0.58    0.18
  -1   4  10    0.73    0.20
   0  -4 -10   20.45    1.00
   0  -4 -10   21.99    0.79
   0  -4 -10   20.93    0.83
   0  -4 -10   21.84    0.72
   0  -4 -10   21.65    0.93
   0  -4 -10   20.81    1.04
   0   4  10   22.07    1.15
   0   4  10   20.68    0.72
   0   4  10   21.36    1.11
  -1  -4 -10   -0.06    0.11
  -1  -4 -10    0.06    0.10
  -1  -4 -10    0.17    0.17
  -1  -4 -10    0.02    0.10
  -1  -4 -10    0.07    0.12
  -1  -4 -10    0.03    0.14
   1   4  10   -0.02    0.14
   1   4  10    0.21    0.20
  -2  -4 -10    0.98    0.21
  -2  -4 -10    1.12    0.21
  -2  -4 -10    1.36    0.32
  -2  -4 -10    1.28    0.31
  -2  -4 -10    1.07    0.22
  -2  -4 -10    0.73    0.22
   2   4  10    1.15    0.35
   2   4  10    1.14    0.33
  -3  -4 -10    0.47    0.20
  -3  -4 -10    0.18    0.13
  -3  -4 -10    0.01    0.12
  -3  -4 -10   -0.05    0.10
   3   4  10    0.07    0.20
   3   4  10   -0.07    0.18
  -4  -4 -10    0.24    0.21
  -4  -4 -10    0.24    0.17
  -4  -4 -10    0.24    0.17
  -4  -4 -10    0.10    0.14
   4   4  10    0.15    0.15
   4   4  10    0.06    0.21
   4   4  10   -0.04    0.20
  -5  -4 -10    0.06    0.16
  -5  -4 -10    0.05    0.20
   5   4  10    0.31    0.18
   5   4  10    0.26    0.29
   7  -5 -10    0.20    0.30
   6  -5 -10    0.81    0.36
   6  -5 -10    0.82    0.39
  -6   5  10    0.40    0.31
  -6   5  10    0.75    0.26
   5  -5 -10    0.03    0.31
   5  -5 -10    0.22    0.26
   5  -5 -10   -0.16    0.26
  -5   5  10    0.42    0.22
  -5   5  10    0.03    0.22
  -5   5  10    0.57    0.22
   4  -5 -10   -0.11    0.26
   4  -5 -10    0.12    0.22
   4  -5 -10    0.37    0.29
  -4   5  10   -0.03    0.22
  -4   5  10    0.08    0.16
  -4   5  10   -0.05    0.15
   3  -5 -10    0.63    0.30
   3  -5 -10    0.80    0.28
   3  -5 -10    0.92    0.32
  -3   5  10    0.75    0.24
  -3   5  10    0.62    0.21
  -3   5  10    0.59    0.29
   2  -5 -10    4.83    0.65
   2  -5 -10    5.84    0.67
  -2   5  10    5.23    0.49
  -2   5  10    4.77    0.51
   1  -5 -10    0.11    0.21
   1  -5 -10    0.33    0.13
   1  -5 -10    0.38    0.19
   1  -5 -10    0.02    0.12
   1  -5 -10    0.11    0.20
  -1   5  10    0.36    0.16
   0  -5 -10    1.46    0.36
   0  -5 -10    1.62    0.28
   0  -5 -10    1.31    0.27
   0  -5 -10    1.71    0.33
   0  -5 -10    1.66    0.39
   0  -5 -10    1.93    0.28
  -1  -5 -10    5.54    0.43
  -1  -5 -10    5.38    0.62
  -1  -5 -10    6.15    0.48
  -1  -5 -10    5.76    0.75
  -1  -5 -10    5.17    0.62
  -1  -5 -10    5.10    0.38
   1   5  10    5.86    0.78
  -2  -5 -10    0.18    0.15
  -2  -5 -10    0.17    0.13
  -2  -5 -10   -0.17    0.11
  -2  -5 -10   -0.08    0.19
   2   5  10    0.09    0.24
  -3  -5 -10    0.01    0.13
  -3  -5 -10    0.16    0.16
  -3  -5 -10   -0.02    0.16
  -3  -5 -10   -0.11    0.21
   3   5  10   -0.16    0.23
  -4  -5 -10   -0.15    0.15
  -4  -5 -10    0.01    0.16
  -4  -5 -10    0.09    0.24
   4   5  10    0.33    0.31
  -5  -5 -10    0.15    0.22
   6  -6 -10    0.50    0.39
   6  -6 -10    0.39    0.38
  -6   6  10    0.91    0.39
   5  -6 -10    1.37    0.46
   5  -6 -10    1.51    0.50
  -5   6  10    0.99    0.31
  -5   6  10    1.33    0.42
   4  -6 -10   -0.10    0.24
   4  -6 -10   -0.03    0.30
  -4   6  10   -0.06    0.18
  -4   6  10    0.09    0.18
   3  -6 -10    0.80    0.32
   3  -6 -10    0.84    0.37
  -3   6  10    0.75    0.25
  -3   6  10    1.24    0.32
   2  -6 -10   -0.20    0.21
   2  -6 -10   -0.04    0.24
  -2   6  10   -0.03    0.13
   1  -6 -10    0.15    0.15
   1  -6 -10    0.60    0.28
   1  -6 -10    0.03    0.15
  -1   6  10    0.08    0.15
   0  -6 -10    0.23    0.22
   0  -6 -10   -0.12    0.13
   0  -6 -10    0.18    0.18
   0  -6 -10   -0.09    0.13
  -1  -6 -10    1.77    0.30
  -1  -6 -10    2.18    0.45
  -1  -6 -10    1.62    0.31
  -1  -6 -10    1.69    0.32
   1   6  10    1.97    0.51
  -2  -6 -10   14.74    0.75
  -2  -6 -10   13.74    0.72
   2   6  10   13.96    1.09
  -3  -6 -10   -0.15    0.25
  -3  -6 -10   -0.02    0.18
   3   6  10   -0.04    0.26
  -4  -6 -10    0.27    0.22
   5  -7 -10    3.48    0.67
   5  -7 -10    2.40    0.60
   4  -7 -10    0.16    0.33
  -3   7  10   -0.05    0.17
  -2   7  10    0.33    0.21
   1  -7 -10    0.51    0.21
   0  -7 -10    0.87    0.25
   0  -7 -10    0.13    0.17
  -1  -7 -10   -0.07    0.18
  -2  -7 -10   -0.03    0.19
   2   7  10    0.41    0.40
   0  -8 -10    0.23    0.25
   0 -10  11    0.04    0.19
   1 -10  11   -0.16    0.18
   2 -10  11    0.93    0.32
   2   9 -11   -0.08    0.31
   1   9 -11   -0.38    0.28
  -1  -9  11    0.16    0.19
   0  -9  11    0.19    0.19
   0  -9  11    0.06    0.25
   1  -9  11    0.15    0.19
   1  -9  11    0.09    0.25
   2  -9  11    0.21    0.21
   3  -9  11    3.51    0.51
   4  -9  11    2.93    0.51
   4   8 -11    0.35    0.21
   3   8 -11   19.39    1.16
  -3  -8  11   19.92    0.98
   2   8 -11    0.32    0.31
  -2  -8  11    0.01    0.18
   1   8 -11   -0.08    0.22
  -1  -8  11   -0.03    0.13
  -1  -8  11    0.22    0.19
  -1  -8  11    0.47    0.24
   0   8 -11    0.06    0.28
   0  -8  11   -0.02    0.13
   0  -8  11    0.13    0.19
   1  -8  11   -0.06    0.21
   1  -8  11    0.06    0.17
   2  -8  11    0.05    0.15
   2  -8  11    0.16    0.21
  -3   8 -11    0.13    0.17
   3  -8  11    0.25    0.20
  -4   8 -11    0.56    0.24
   4  -8  11    0.29    0.23
  -5   8 -11    1.84    0.42
   5  -8  11    3.05    0.49
   5   7 -11    0.07    0.21
   4   7 -11    0.18    0.21
   4   7 -11    0.21    0.21
   3   7 -11    0.76    0.29
   3   7 -11    0.63    0.23
  -3  -7  11    1.23    0.30
  -3  -7  11    0.73    0.25
   2   7 -11   11.77    0.85
  -2  -7  11   10.95    0.69
  -2  -7  11    9.67    0.67
   1   7 -11    0.50    0.31
  -1  -7  11    0.41    0.17
  -1  -7  11    0.32    0.20
  -1  -7  11    0.46    0.20
   0   7 -11   -0.03    0.21
   0  -7  11   -0.06    0.13
   0  -7  11   -0.04    0.15
   1  -7  11    0.64    0.21
   1  -7  11    0.34    0.20
   1  -7  11    0.42    0.21
  -2   7 -11   -0.07    0.11
   2  -7  11    0.04    0.13
   2  -7  11    0.24    0.19
  -3   7 -11    0.09    0.14
  -3   7 -11   -0.05    0.15
   3  -7  11    0.09    0.17
  -4   7 -11   -0.08    0.18
  -4   7 -11    0.22    0.18
  -4   7 -11    0.14    0.20
   4  -7  11    0.10    0.17
  -5   7 -11    8.07    0.81
   5  -7  11    8.45    0.76
   5  -7  11    7.54    0.93
   6  -7  11    6.51    0.71
   6  -7  11    5.89    0.81
   6   6 -11    0.07    0.23
   5   6 -11    0.02    0.18
   5   6 -11    0.25    0.19
  -5  -6  11    0.07    0.16
   4   6 -11    0.68    0.25
   4   6 -11    0.98    0.30
  -4  -6  11    0.72    0.22
   3   6 -11    0.28    0.17
   3   6 -11   -0.02    0.17
  -3  -6  11    0.08    0.17
  -3  -6  11    0.51    0.21
  -3  -6  11    0.15    0.20
   2   6 -11    6.67    0.73
  -2  -6  11    8.00    0.56
  -2  -6  11    6.23    0.72
  -2  -6  11    7.00    0.52
   1   6 -11    6.11    0.68
  -1  -6  11    6.32    0.58
  -1  -6  11    6.40    0.41
  -1  -6  11    5.99    0.70
   0   6 -11    0.18    0.22
   0  -6  11   -0.06    0.14
   0  -6  11    0.24    0.22
   0  -6  11   -0.06    0.09
  -1   6 -11   -0.03    0.11
  -1   6 -11    0.01    0.09
  -1   6 -11   -0.02    0.21
   1  -6  11   -0.05    0.14
   1  -6  11    0.09    0.11
   1  -6  11    0.09    0.15
   1  -6  11    0.01    0.20
  -2   6 -11    2.56    0.36
  -2   6 -11    1.31    0.23
   2  -6  11    2.16    0.32
   2  -6  11    2.23    0.48
   2  -6  11    2.33    0.34
  -3   6 -11    0.01    0.13
  -3   6 -11    0.13    0.14
  -3   6 -11    0.05    0.15
   3  -6  11    0.18    0.14
  -4   6 -11    0.17    0.18
  -4   6 -11   -0.08    0.14
  -4   6 -11    0.28    0.18
   4  -6  11   -0.11    0.21
   4  -6  11    0.31    0.18
  -5   6 -11    0.23    0.20
  -5   6 -11   -0.18    0.15
  -5   6 -11    0.36    0.25
  -5   6 -11    0.02    0.19
   5  -6  11   -0.18    0.13
   5  -6  11    0.03    0.21
  -6   6 -11    2.41    0.51
  -6   6 -11    2.47    0.49
   6  -6  11    2.53    0.56
   6  -6  11    2.33    0.43
   7   5 -11    0.08    0.23
   6   5 -11   -0.01    0.14
   6   5 -11    0.07    0.20
   5   5 -11   -0.04    0.16
   5   5 -11    0.31    0.19
  -5  -5  11    0.27    0.16
   4   5 -11    0.00    0.12
   4   5 -11   -0.13    0.12
  -4  -5  11   -0.16    0.11
  -4  -5  11    0.28    0.23
   3   5 -11    0.00    0.10
   3   5 -11    0.06    0.16
  -3  -5  11    0.07    0.13
  -3  -5  11    0.11    0.14
  -3  -5  11    0.17    0.18
   2   5 -11    0.31    0.15
   2   5 -11    0.14    0.16
  -2  -5  11    0.28    0.17
  -2  -5  11    0.38    0.23
  -2  -5  11    0.14    0.14
   1   5 -11   18.55    0.97
   1   5 -11   19.27    0.76
  -1  -5  11   19.44    1.03
  -1  -5  11   19.82    0.83
  -1  -5  11   20.39    0.69
   0   5 -11    6.90    0.44
   0   5 -11    8.66    0.81
   0  -5  11    8.89    0.44
   0  -5  11    6.43    0.72
   0  -5  11    7.80    0.51
  -1   5 -11    2.20    0.32
  -1   5 -11    2.91    0.49
  -1   5 -11    2.21    0.24
   1  -5  11    2.22    0.28
   1  -5  11    3.22    0.51
   1  -5  11    2.40    0.34
   1  -5  11    1.89    0.30
  -2   5 -11    0.11    0.12
  -2   5 -11    0.18    0.13
  -2   5 -11    0.24    0.15
   2  -5  11    0.24    0.19
   2  -5  11    0.27    0.12
   2  -5  11    0.27    0.16
   2  -5  11    0.27    0.21
  -3   5 -11   -0.04    0.14
  -3   5 -11   -0.01    0.12
  -3   5 -11    0.01    0.12
  -3   5 -11    0.10    0.15
   3  -5  11   -0.06    0.16
   3  -5  11   -0.13    0.19
   3  -5  11    0.20    0.12
  -4   5 -11   -0.18    0.15
  -4   5 -11    0.02    0.15
  -4   5 -11    0.00    0.13
  -4   5 -11    0.15    0.18
   4  -5  11    0.09    0.21
   4  -5  11    0.05    0.12
  -5   5 -11    0.00    0.22
  -5   5 -11   -0.06    0.14
  -5   5 -11    0.15    0.16
  -5   5 -11    0.00    0.18
   5  -5  11   -0.20    0.19
   5  -5  11    0.12    0.15
  -6   5 -11    0.60    0.30
  -6   5 -11    0.88    0.27
  -6   5 -11    1.03    0.36
   6  -5  11    0.97    0.36
   6  -5  11    0.84    0.27
   7  -5  11   12.39    0.82
   7   4 -11    0.15    0.22
   6   4 -11    0.24    0.16
   6   4 -11    0.51    0.21
   5   4 -11   -0.11    0.10
   5   4 -11    0.07    0.14
   4   4 -11    0.27    0.17
   4   4 -11    0.47    0.17
  -4  -4  11    0.79    0.27
  -4  -4  11    0.42    0.16
   3   4 -11    1.62    0.31
   3   4 -11    1.21    0.26
   3   4 -11    1.26    0.24
  -3  -4  11    1.47    0.26
  -3  -4  11    1.00    0.27
  -3  -4  11    1.60    0.27
   2   4 -11    0.93    0.26
   2   4 -11    1.30    0.24
   2   4 -11    1.40    0.26
  -2  -4  11    1.33    0.32
  -2  -4  11    1.11    0.22
  -2  -4  11    1.49    0.25
   1   4 -11    0.94    0.21
   1   4 -11    1.02    0.27
   1   4 -11    0.81    0.20
   1   4 -11    1.24    0.21
  -1  -4  11    1.35    0.32
  -1  -4  11    1.11    0.22
   0   4 -11   -0.03    0.16
   0   4 -11    0.28    0.09
   0   4 -11    0.31    0.13
   0  -4  11    0.38    0.11
   0  -4  11    0.30    0.18
   0  -4  11    0.45    0.17
   0  -4  11    0.57    0.18
  -1   4 -11   17.36    0.92
  -1   4 -11   17.21    0.76
  -1   4 -11   18.31    0.65
  -1   4 -11   16.33    0.59
   1  -4  11   18.26    0.96
   1  -4  11   17.06    0.64
   1  -4  11   18.23    0.72
   1  -4  11   16.89    0.72
   1  -4  11   18.00    0.91
  -2   4 -11    2.33    0.36
  -2   4 -11    1.97    0.31
  -2   4 -11    1.25    0.22
  -2   4 -11    1.57    0.23
   2  -4  11    1.35    0.33
   2  -4  11    1.54    0.38
   2  -4  11    1.78    0.26
   2  -4  11    1.28    0.22
  -3   4 -11    2.72    0.38
  -3   4 -11    2.67    0.32
  -3   4 -11    2.10    0.37
  -3   4 -11    1.85    0.26
   3  -4  11    2.29    0.31
   3  -4  11    2.49    0.41
   3  -4  11    2.06    0.42
  -4   4 -11    0.63    0.21
  -4   4 -11    0.41    0.22
  -4   4 -11    0.50    0.18
  -4   4 -11    0.62    0.22
   4  -4  11    0.25    0.16
   4  -4  11    0.52    0.24
   4  -4  11    0.52    0.28
  -5   4 -11    0.38    0.19
  -5   4 -11    0.04    0.16
  -5   4 -11   -0.10    0.13
  -5   4 -11    0.19    0.20
   5  -4  11   -0.07    0.20
   5  -4  11    0.09    0.12
  -6   4 -11    0.16    0.20
  -6   4 -11    0.13    0.17
  -6   4 -11    0.13    0.20
   6  -4  11    0.03    0.14
   6  -4  11    0.16    0.24
  -7   4 -11    0.32    0.24
  -7   4 -11    0.42    0.27
   7  -4  11    0.30    0.28
   7  -4  11    0.04    0.19
   7   3 -11    3.89    0.51
   6   3 -11   -0.04    0.12
   6   3 -11   -0.07    0.14
   5   3 -11    0.18    0.20
   5   3 -11    0.30    0.16
   5   3 -11    0.19    0.13
   4   3 -11    0.08    0.13
   4   3 -11    0.10    0.16
   4   3 -11    0.38    0.14
  -4  -3  11    0.40    0.14
  -4  -3  11    0.21    0.16
   3   3 -11   -0.04    0.12
   3   3 -11    0.05    0.13
   3   3 -11    0.09    0.15
   3   3 -11    0.04    0.11
  -3  -3  11    0.05    0.10
  -3  -3  11    0.08    0.15
  -3  -3  11    0.10    0.12
   2   3 -11    0.19    0.12
   2   3 -11    0.49    0.18
   2   3 -11    0.14    0.12
   2   3 -11    0.27    0.16
  -2  -3  11   -0.03    0.13
  -2  -3  11    0.18    0.12
  -2  -3  11    0.13    0.11
   1   3 -11    0.09    0.11
   1   3 -11    0.13    0.11
   1   3 -11    0.08    0.08
   1   3 -11    0.19    0.10
   1   3 -11    0.14    0.14
  -1  -3  11    0.06    0.11
  -1  -3  11    0.10    0.11
  -1  -3  11    0.20    0.15
   0   3 -11    4.41    0.25
   0   3 -11    3.75    0.27
   0   3 -11    4.32    0.52
   0   3 -11    5.09    0.37
   0  -3  11    4.70    0.35
   0  -3  11    4.36    0.40
   0  -3  11    3.97    0.50
   0  -3  11    3.94    0.24
  -1   3 -11    7.48    0.37
  -1   3 -11    7.08    0.47
  -1   3 -11    8.49    0.62
  -1   3 -11    8.14    0.40
  -1   3 -11    8.24    0.36
  -1   3 -11    6.82    0.46
   1  -3  11    8.01    0.52
   1  -3  11    7.90    0.45
   1  -3  11    7.78    0.38
   1  -3  11    8.90    0.64
   1  -3  11    8.71    0.47
   1  -3  11    7.67    0.58
  -2   3 -11   83.18    2.05
  -2   3 -11   79.76    2.07
  -2   3 -11   82.36    1.88
  -2   3 -11   78.41    1.84
   2  -3  11   81.06    2.27
   2  -3  11   80.35    1.83
   2  -3  11   78.76    2.34
   2  -3  11   80.96    1.79
  -3   3 -11    0.06    0.11
  -3   3 -11   -0.02    0.12
  -3   3 -11    0.05    0.13
  -3   3 -11    0.04    0.11
   3  -3  11   -0.11    0.16
   3  -3  11    0.08    0.14
   3  -3  11    0.05    0.09
  -4   3 -11    0.48    0.16
  -4   3 -11    0.27    0.17
  -4   3 -11   -0.01    0.13
  -4   3 -11    0.12    0.14
   4  -3  11    0.30    0.23
   4  -3  11    0.24    0.13
   4  -3  11    0.60    0.30
  -5   3 -11    0.04    0.14
  -5   3 -11    0.17    0.16
  -5   3 -11    0.02    0.15
  -5   3 -11    0.19    0.16
   5  -3  11    0.18    0.14
   5  -3  11    0.14    0.18
  -6   3 -11    0.41    0.20
  -6   3 -11    0.40    0.20
  -6   3 -11    0.44    0.27
  -6   3 -11    0.34    0.19
   6  -3  11    0.32    0.24
   6  -3  11    0.63    0.23
  -7   3 -11    0.09    0.22
   7  -3  11    0.25    0.21
   7  -3  11    0.16    0.23
   8   2 -11    0.25    0.24
   7   2 -11    0.39    0.17
   7   2 -11    0.49    0.25
   6   2 -11    0.64    0.23
   6   2 -11    0.55    0.32
   6   2 -11    0.62    0.19
   5   2 -11   17.29    0.80
   5   2 -11   17.14    0.77
   5   2 -11   17.26    1.15
   5   2 -11   18.28    1.01
  -5  -2  11   17.46    0.60
   4   2 -11    0.07    0.16
   4   2 -11    0.32    0.15
   4   2 -11    0.21    0.14
   4   2 -11    0.45    0.23
  -4  -2  11    0.15    0.10
   3   2 -11    1.29    0.31
   3   2 -11    0.59    0.19
   3   2 -11    1.62    0.26
   3   2 -11    1.13    0.26
  -3  -2  11    1.23    0.26
  -3  -2  11    0.92    0.18
  -3  -2  11    1.27    0.21
   2   2 -11    1.11    0.21
   2   2 -11    0.73    0.22
   2   2 -11    1.44    0.23
   2   2 -11    0.98    0.23
   2   2 -11    0.97    0.24
  -2  -2  11    0.64    0.16
  -2  -2  11    0.85    0.22
  -2  -2  11    0.65    0.16
   1   2 -11    2.94    0.41
   1   2 -11    3.16    0.30
   1   2 -11    3.68    0.38
   1   2 -11    3.53    0.33
   1   2 -11    3.21    0.40
  -1  -2  11    2.99    0.33
  -1  -2  11    3.52    0.41
  -1  -2  11    2.88    0.31
   0   2 -11    0.23    0.13
   0   2 -11    0.30    0.10
   0   2 -11    0.49    0.11
   0   2 -11    0.30    0.17
   0   2 -11    0.35    0.11
   0  -2  11    0.22    0.12
   0  -2  11    0.22    0.16
   0  -2  11    0.34    0.09
   0  -2  11    0.39    0.16
   0  -2  11    0.50    0.16
   0  -2  11    0.12    0.14
  -1   2 -11    5.61    0.40
  -1   2 -11    5.59    0.60
  -1   2 -11    5.40    0.31
  -1   2 -11    5.52    0.27
  -1   2 -11    5.09    0.39
  -1   2 -11    5.63    0.33
   1  -2  11    6.08    0.38
   1  -2  11    7.34    0.69
   1  -2  11    7.55    0.69
   1  -2  11    5.27    0.29
   1  -2  11    5.26    0.49
   1  -2  11    5.10    0.35
  -2   2 -11    6.76    0.48
  -2   2 -11    6.61    0.37
  -2   2 -11    6.79    0.40
  -2   2 -11    5.95    0.44
   2  -2  11    6.90    0.64
   2  -2  11    6.50    0.66
   2  -2  11    7.41    0.34
   2  -2  11    6.53    0.36
  -3   2 -11   10.95    0.52
  -3   2 -11   11.44    0.61
  -3   2 -11   10.16    0.62
  -3   2 -11    9.52    0.49
   3  -2  11    9.38    0.49
   3  -2  11   10.55    0.77
   3  -2  11    9.60    0.67
  -4   2 -11    0.10    0.13
  -4   2 -11    0.00    0.14
  -4   2 -11    0.24    0.15
  -4   2 -11    0.12    0.12
   4  -2  11    0.11    0.16
   4  -2  11   -0.02    0.18
   4  -2  11   -0.04    0.10
  -5   2 -11    0.79    0.20
  -5   2 -11    0.56    0.24
  -5   2 -11    0.06    0.15
  -5   2 -11    0.10    0.15
   5  -2  11    0.57    0.18
   5  -2  11    0.94    0.29
  -6   2 -11    0.03    0.19
  -6   2 -11   -0.04    0.15
  -6   2 -11    0.01    0.16
  -6   2 -11    0.08    0.17
   6  -2  11    0.02    0.17
   6  -2  11   -0.03    0.13
  -7   2 -11    0.30    0.30
   7  -2  11    0.23    0.18
   7  -2  11    0.19    0.23
   8   1 -11   -0.05    0.21
   8   1 -11    0.11    0.34
   7   1 -11    0.18    0.16
   7   1 -11    0.44    0.28
   7   1 -11    0.31    0.20
  -7  -1  11    0.13    0.15
   6   1 -11    0.42    0.21
   6   1 -11    0.76    0.36
   6   1 -11    0.16    0.15
  -6  -1  11    0.37    0.18
   5   1 -11    0.90    0.23
   5   1 -11    1.43    0.36
   5   1 -11    0.75    0.22
   5   1 -11    1.33    0.35
  -5  -1  11    1.32    0.25
  -5  -1  11    1.06    0.18
   4   1 -11  103.56    2.71
   4   1 -11  102.95    2.96
   4   1 -11  100.67    2.62
   4   1 -11   97.18    2.34
   4   1 -11  100.32    2.49
  -4  -1  11  100.92    2.21
  -4  -1  11   97.79    2.35
   3   1 -11   -0.04    0.13
   3   1 -11    0.03    0.14
   3   1 -11    0.12    0.14
   3   1 -11    0.32    0.14
   3   1 -11    0.10    0.12
  -3  -1  11    0.00    0.09
  -3  -1  11    0.15    0.11
  -3  -1  11    0.11    0.11
   2   1 -11    0.06    0.09
   2   1 -11    0.04    0.12
   2   1 -11   -0.06    0.11
   2   1 -11   -0.07    0.10
   2   1 -11    0.02    0.09
  -2  -1  11   -0.02    0.09
  -2  -1  11    0.01    0.09
  -2  -1  11    0.09    0.10
  -2  -1  11    0.06    0.10
   1   1 -11    0.75    0.19
   1   1 -11    1.01    0.17
   1   1 -11    1.15    0.21
   1   1 -11    0.91    0.10
   1   1 -11    0.82    0.20
   1   1 -11    0.78    0.23
  -1  -1  11    1.13    0.23
  -1  -1  11    1.15    0.21
  -1  -1  11    1.09    0.21
  -1  -1  11    1.13    0.24
   0   1 -11    3.06    0.23
   0   1 -11    2.77    0.33
   0   1 -11    2.99    0.22
   0   1 -11    3.01    0.22
   0   1 -11    3.27    0.46
   0   1 -11    2.74    0.31
   0  -1  11    3.72    0.43
   0  -1  11    3.12    0.33
   0  -1  11    2.99    0.18
   0  -1  11    3.63    0.39
   0  -1  11    2.81    0.31
   0  -1  11    2.50    0.37
  -1   1 -11    3.23    0.24
  -1   1 -11    2.66    0.42
  -1   1 -11    2.87    0.35
  -1   1 -11    3.38    0.26
  -1   1 -11    3.39    0.20
  -1   1 -11    2.99    0.33
   1  -1  11    3.36    0.44
   1  -1  11    2.34    0.27
   1  -1  11    3.05    0.30
   1  -1  11    3.72    0.48
   1  -1  11    2.73    0.36
   1  -1  11    2.83    0.21
  -2   1 -11   10.13    0.48
  -2   1 -11    9.74    0.46
  -2   1 -11   10.00    0.56
  -2   1 -11   11.04    0.61
   2  -1  11   10.75    0.70
   2  -1  11   10.44    0.39
   2  -1  11   10.29    0.67
   2  -1  11   10.03    0.45
  -3   1 -11   24.99    0.99
  -3   1 -11   23.31    0.81
  -3   1 -11   23.18    0.92
  -3   1 -11   25.24    0.82
   3  -1  11   24.40    0.83
   3  -1  11   25.07    1.09
   3  -1  11   21.72    1.11
  -4   1 -11   23.03    0.83
  -4   1 -11   23.02    1.02
  -4   1 -11   24.44    0.95
  -4   1 -11   22.55    0.82
   4  -1  11   21.98    0.85
   4  -1  11   23.54    1.10
  -5   1 -11   -0.11    0.11
  -5   1 -11   -0.07    0.16
  -5   1 -11   -0.16    0.14
  -5   1 -11   -0.01    0.14
   5  -1  11    0.25    0.15
   5  -1  11    0.21    0.19
  -6   1 -11   -0.12    0.16
  -6   1 -11    0.08    0.23
  -6   1 -11    0.12    0.15
   6  -1  11    0.18    0.24
   6  -1  11    0.15    0.17
  -7   1 -11   -0.05    0.27
   7  -1  11   -0.10    0.15
   7  -1  11   -0.06    0.23
   8   0 -11    0.45    0.19
   8   0 -11    0.60    0.28
   8   0 -11    0.27    0.43
   7   0 -11    1.14    0.45
   7   0 -11    0.95    0.31
   7   0 -11    1.53    0.30
  -7   0  11    0.24    0.19
   6   0 -11    1.34    0.32
   6   0 -11    1.26    0.28
   6   0 -11    1.01    0.40
  -6   0  11    1.29    0.29
   5   0 -11    0.57    0.19
   5   0 -11    0.53    0.26
   5   0 -11    0.58    0.28
   5   0 -11    0.89    0.24
   5   0 -11    0.82    0.34
  -5   0  11    0.98    0.22
  -5   0  11    0.75    0.17
   4   0 -11    4.15    0.46
   4   0 -11    3.71    0.41
   4   0 -11    2.95    0.44
   4   0 -11    4.75    0.59
   4   0 -11    3.92    0.57
  -4   0  11    3.55    0.34
  -4   0  11    3.25    0.38
  -4   0  11    2.67    0.28
   3   0 -11    9.96    0.51
   3   0 -11   11.67    0.68
   3   0 -11   10.05    0.63
   3   0 -11   10.08    0.71
   3   0 -11   10.15    0.66
  -3   0  11    9.86    0.56
  -3   0  11   10.34    0.51
  -3   0  11   10.26    0.50
   2   0 -11    0.39    0.12
   2   0 -11    0.72    0.23
   2   0 -11    0.23    0.15
   2   0 -11    0.40    0.19
   2   0 -11    0.50    0.19
  -2   0  11    0.34    0.14
  -2   0  11    0.83    0.21
  -2   0  11    0.17    0.13
  -2   0  11    0.25    0.11
   1   0 -11    0.27    0.11
   1   0 -11    0.49    0.18
   1   0 -11    0.18    0.07
   1   0 -11    0.27    0.14
   1   0 -11    0.14    0.12
   1   0 -11    0.60    0.21
  -1   0  11    0.35    0.13
  -1   0  11    0.14    0.13
  -1   0  11    0.35    0.14
  -1   0  11    0.17    0.13
   0   0 -11    0.06    0.09
   0   0 -11    0.25    0.15
   0   0 -11    0.16    0.09
   0   0 -11    0.36    0.11
   0   0 -11    0.35    0.11
   0   0 -11    0.07    0.10
   0   0 -11    0.33    0.08
   0   0 -11    0.32    0.17
   0   0  11    0.31    0.15
   0   0  11    0.14    0.12
   0   0  11    0.26    0.07
   0   0  11    0.00    0.09
   0   0  11    0.13    0.13
   0   0  11    0.24    0.12
  -1   0 -11    0.42    0.19
  -1   0 -11    0.19    0.13
  -1   0 -11    0.20    0.10
  -1   0 -11    0.30    0.15
  -1   0 -11    0.08    0.09
   1   0  11    0.16    0.15
   1   0  11    0.22    0.17
   1   0  11    0.12    0.11
   1   0  11    0.18    0.08
  -2   0 -11    0.25    0.11
  -2   0 -11    0.55    0.15
  -2   0 -11    0.72    0.21
  -2   0 -11    0.52    0.16
   2   0  11    0.61    0.24
   2   0  11    0.51    0.13
  -3   0 -11    0.03    0.09
  -3   0 -11   -0.01    0.11
  -3   0 -11    0.21    0.11
  -3   0 -11    0.01    0.14
   3   0  11    0.06    0.10
   3   0  11    0.11    0.16
  -4   0 -11   10.75    0.65
  -4   0 -11    9.09    0.50
  -4   0 -11   10.84    0.52
  -4   0 -11   10.20    0.61
   4   0  11   10.07    0.55
   4   0  11   11.04    0.75
  -5   0 -11    8.71    0.50
  -5   0 -11    9.89    0.52
  -5   0 -11    8.74    0.60
  -5   0 -11    9.08    0.66
   5   0  11    9.02    0.70
   5   0  11    8.42    0.55
  -6   0 -11    0.11    0.22
  -6   0 -11   -0.03    0.16
   6   0  11    0.07    0.14
   6   0  11   -0.08    0.16
  -7   0 -11    0.20    0.27
   7   0  11    0.12    0.19
   8  -1 -11    0.03    0.18
   7  -1 -11    0.05    0.29
   7  -1 -11   -0.11    0.15
   7  -1 -11   -0.13    0.30
   7  -1 -11   -0.05    0.17
  -7   1  11   -0.07    0.17
   6  -1 -11   -0.18    0.14
   6  -1 -11   -0.31    0.20
   6  -1 -11    0.02    0.24
   6  -1 -11    0.20    0.17
  -6   1  11    0.03    0.15
  -6   1  11   -0.05    0.10
   5  -1 -11    0.82    0.31
   5  -1 -11    0.66    0.27
   5  -1 -11    1.12    0.27
   5  -1 -11    0.53    0.23
  -5   1  11    0.95    0.21
  -5   1  11    0.89    0.24
   4  -1 -11    1.65    0.36
   4  -1 -11    2.21    0.46
   4  -1 -11    2.43    0.45
   4  -1 -11    1.97    0.30
   4  -1 -11    1.20    0.28
  -4   1  11    1.72    0.31
  -4   1  11    1.78    0.26
  -4   1  11    1.98    0.28
   3  -1 -11    0.75    0.28
   3  -1 -11    0.84    0.21
   3  -1 -11    0.69    0.24
   3  -1 -11    0.71    0.24
   3  -1 -11    1.06    0.28
  -3   1  11    0.68    0.21
  -3   1  11    1.01    0.21
  -3   1  11    0.59    0.17
   2  -1 -11   19.52    0.91
   2  -1 -11   21.38    1.03
   2  -1 -11   20.96    0.97
   2  -1 -11   19.36    0.90
   2  -1 -11   20.30    0.74
  -2   1  11   20.04    0.77
  -2   1  11   19.71    0.75
  -2   1  11   21.42    0.89
   1  -1 -11    0.50    0.12
   1  -1 -11    0.70    0.22
   1  -1 -11    0.77    0.21
   1  -1 -11    0.43    0.19
   1  -1 -11    0.86    0.23
  -1   1  11    0.58    0.16
  -1   1  11    0.59    0.17
  -1   1  11    1.15    0.26
   0  -1 -11    0.06    0.10
   0  -1 -11    0.31    0.17
   0  -1 -11    0.19    0.12
   0  -1 -11    0.14    0.09
   0  -1 -11    0.09    0.13
   0  -1 -11    0.33    0.08
   0  -1 -11    0.21    0.13
   0   1  11    0.30    0.19
   0   1  11    0.13    0.11
   0   1  11    0.02    0.11
   0   1  11    0.11    0.06
   0   1  11    0.13    0.11
  -1  -1 -11    1.28    0.26
  -1  -1 -11    1.46    0.27
  -1  -1 -11    1.24    0.19
  -1  -1 -11    1.08    0.19
  -1  -1 -11    1.22    0.17
   1   1  11    1.56    0.21
   1   1  11    1.23    0.32
   1   1  11    1.47    0.19
  -2  -1 -11    0.46    0.15
  -2  -1 -11    0.34    0.12
  -2  -1 -11    0.32    0.15
  -2  -1 -11    0.69    0.20
  -2  -1 -11    0.63    0.15
   2   1  11    0.21    0.11
   2   1  11    0.48    0.23
  -3  -1 -11    5.60    0.53
  -3  -1 -11    6.51    0.49
  -3  -1 -11    6.49    0.39
  -3  -1 -11    7.22    0.41
  -3  -1 -11    6.10    0.40
   3   1  11    6.47    0.41
   3   1  11    7.95    0.78
  -4  -1 -11    0.24    0.13
  -4  -1 -11    0.28    0.13
  -4  -1 -11    0.17    0.15
  -4  -1 -11    0.38    0.18
  -4  -1 -11    0.33    0.15
   4   1  11    0.41    0.21
   4   1  11    0.20    0.15
  -5  -1 -11    1.77    0.36
  -5  -1 -11    2.63    0.32
  -5  -1 -11    3.76    0.48
  -5  -1 -11    3.27    0.38
  -5  -1 -11    2.66    0.33
   5   1  11    2.54    0.44
   5   1  11    2.70    0.37
  -6  -1 -11   -0.14    0.14
  -6  -1 -11    0.02    0.16
  -6  -1 -11    0.10    0.19
   6   1  11   -0.08    0.18
   6   1  11    0.10    0.20
  -7  -1 -11    0.20    0.19
   7   1  11   -0.28    0.16
   7  -2 -11    0.26    0.21
   7  -2 -11    0.19    0.32
   7  -2 -11    0.19    0.28
  -7   2  11   -0.16    0.18
  -7   2  11    0.02    0.16
   6  -2 -11    0.93    0.36
   6  -2 -11    1.61    0.42
   6  -2 -11    0.94    0.31
  -6   2  11    1.29    0.26
  -6   2  11    1.18    0.30
   5  -2 -11    0.00    0.20
   5  -2 -11    0.08    0.17
   5  -2 -11    0.12    0.22
  -5   2  11   -0.02    0.11
  -5   2  11    0.08    0.14
  -5   2  11    0.12    0.18
   4  -2 -11    6.09    0.79
   4  -2 -11    4.10    0.59
   4  -2 -11    4.57    0.58
   4  -2 -11    3.79    0.56
  -4   2  11    4.06    0.48
  -4   2  11    4.28    0.42
  -4   2  11    4.51    0.44
   3  -2 -11    0.13    0.17
   3  -2 -11    0.34    0.23
   3  -2 -11    0.00    0.16
   3  -2 -11    0.01    0.14
  -3   2  11    0.13    0.12
  -3   2  11   -0.09    0.08
  -3   2  11   -0.15    0.12
   2  -2 -11    0.08    0.15
   2  -2 -11    0.23    0.16
   2  -2 -11    0.23    0.17
   2  -2 -11    0.35    0.19
  -2   2  11    0.24    0.17
  -2   2  11    0.27    0.14
  -2   2  11    0.32    0.14
   1  -2 -11    0.01    0.16
   1  -2 -11    0.18    0.14
   1  -2 -11    0.03    0.12
   1  -2 -11    0.06    0.09
   1  -2 -11   -0.07    0.09
  -1   2  11   -0.12    0.11
  -1   2  11    0.10    0.11
  -1   2  11    0.06    0.10
   0  -2 -11    0.05    0.06
   0  -2 -11   -0.04    0.08
   0  -2 -11    0.10    0.11
   0  -2 -11    0.06    0.09
   0  -2 -11    0.09    0.14
   0  -2 -11    0.10    0.10
   0  -2 -11    0.03    0.16
   0   2  11    0.00    0.11
   0   2  11    0.03    0.13
   0   2  11    0.05    0.11
  -1  -2 -11    0.05    0.09
  -1  -2 -11   -0.09    0.07
  -1  -2 -11    0.04    0.11
  -1  -2 -11    0.16    0.08
  -1  -2 -11   -0.12    0.09
  -1  -2 -11   -0.04    0.12
   1   2  11    0.03    0.07
   1   2  11    0.06    0.14
   1   2  11   -0.01    0.09
  -2  -2 -11    0.22    0.11
  -2  -2 -11    0.16    0.13
  -2  -2 -11    0.12    0.11
  -2  -2 -11    0.28    0.11
  -2  -2 -11    0.10    0.13
   2   2  11    0.12    0.17
   2   2  11    0.05    0.08
  -3  -2 -11    0.06    0.10
  -3  -2 -11   -0.08    0.10
  -3  -2 -11   -0.07    0.14
  -3  -2 -11    0.04    0.10
  -3  -2 -11   -0.03    0.10
   3   2  11    0.15    0.12
   3   2  11   -0.05    0.16
  -4  -2 -11    0.48    0.20
  -4  -2 -11    0.36    0.16
  -4  -2 -11    0.61    0.19
  -4  -2 -11    0.20    0.17
  -4  -2 -11    0.15    0.12
   4   2  11    0.25    0.21
   4   2  11    0.30    0.16
  -5  -2 -11    0.19    0.15
  -5  -2 -11    0.08    0.18
  -5  -2 -11    0.16    0.15
  -5  -2 -11    0.17    0.15
  -5  -2 -11    0.48    0.22
   5   2  11    0.34    0.23
   5   2  11    0.17    0.18
  -6  -2 -11    3.09    0.42
   6   2  11    3.42    0.44
   6   2  11    3.15    0.54
   7  -3 -11    0.09    0.25
   7  -3 -11   -0.03    0.27
  -7   3  11    0.23    0.23
   6  -3 -11    0.27    0.28
   6  -3 -11   -0.02    0.18
   6  -3 -11   -0.23    0.24
  -6   3  11    0.07    0.15
  -6   3  11    0.16    0.22
   5  -3 -11    0.42    0.27
   5  -3 -11   -0.21    0.20
   5  -3 -11    0.18    0.20
  -5   3  11    0.13    0.20
  -5   3  11    0.25    0.17
  -5   3  11    0.16    0.15
   4  -3 -11   -0.14    0.15
   4  -3 -11   -0.06    0.18
   4  -3 -11    0.07    0.21
  -4   3  11   -0.02    0.11
  -4   3  11    0.02    0.13
  -4   3  11    0.06    0.18
   3  -3 -11    7.89    0.76
   3  -3 -11    8.33    0.88
   3  -3 -11    8.61    0.83
   3  -3 -11    7.91    0.80
  -3   3  11    8.25    0.52
  -3   3  11    7.98    0.50
  -3   3  11    8.68    0.64
   2  -3 -11    0.27    0.21
   2  -3 -11    0.36    0.23
   2  -3 -11    0.21    0.18
   2  -3 -11    0.31    0.20
  -2   3  11    0.10    0.18
  -2   3  11    0.23    0.13
  -2   3  11   -0.07    0.09
   1  -3 -11    1.07    0.19
   1  -3 -11    1.11    0.33
   1  -3 -11    1.48    0.36
   1  -3 -11    0.34    0.19
   1  -3 -11    1.35    0.30
  -1   3  11    1.25    0.25
  -1   3  11    1.56    0.26
   0  -3 -11    0.05    0.15
   0  -3 -11    0.02    0.09
   0  -3 -11   -0.09    0.09
   0  -3 -11   -0.13    0.12
   0  -3 -11    0.10    0.11
   0  -3 -11    0.16    0.17
   0   3  11    0.12    0.16
   0   3  11    0.09    0.11
  -1  -3 -11    2.13    0.25
  -1  -3 -11    1.83    0.36
  -1  -3 -11    2.45    0.38
  -1  -3 -11    1.64    0.26
  -1  -3 -11    1.69    0.29
  -1  -3 -11    1.87    0.27
   1   3  11    2.00    0.41
  -2  -3 -11    0.10    0.16
  -2  -3 -11    0.15    0.12
  -2  -3 -11    0.26    0.16
  -2  -3 -11    0.02    0.10
  -2  -3 -11    0.40    0.15
  -2  -3 -11    0.30    0.20
   2   3  11    0.48    0.15
   2   3  11    0.37    0.24
  -3  -3 -11    0.02    0.13
  -3  -3 -11    0.19    0.19
  -3  -3 -11    0.28    0.15
  -3  -3 -11    0.18    0.13
  -3  -3 -11    0.07    0.10
   3   3  11    0.06    0.12
   3   3  11    0.01    0.19
  -4  -3 -11    0.30    0.16
  -4  -3 -11    0.12    0.13
  -4  -3 -11    0.42    0.22
  -4  -3 -11    0.53    0.18
   4   3  11    0.39    0.25
   4   3  11    0.33    0.17
  -5  -3 -11    0.48    0.18
  -5  -3 -11    0.69    0.30
  -5  -3 -11    0.76    0.23
   5   3  11    0.44    0.21
   5   3  11    0.70    0.32
  -6  -3 -11    0.04    0.18
   6   3  11   -0.17    0.17
   7  -4 -11    5.25    0.75
   6  -4 -11    6.68    0.80
   6  -4 -11    5.59    0.83
  -6   4  11    5.30    0.53
  -6   4  11    6.03    0.70
   5  -4 -11    0.20    0.28
   5  -4 -11    0.35    0.25
   5  -4 -11    0.12    0.29
  -5   4  11    0.01    0.16
  -5   4  11   -0.08    0.17
  -5   4  11    0.17    0.18
   4  -4 -11    0.80    0.33
   4  -4 -11    0.50    0.27
   4  -4 -11    0.83    0.34
  -4   4  11    1.30    0.29
  -4   4  11    0.35    0.23
  -4   4  11    1.28    0.28
   3  -4 -11    0.79    0.31
   3  -4 -11    1.03    0.33
   3  -4 -11    0.44    0.26
  -3   4  11    0.95    0.29
  -3   4  11    0.14    0.15
  -3   4  11    0.63    0.21
   2  -4 -11    0.00    0.15
   2  -4 -11   -0.10    0.16
   2  -4 -11    0.09    0.20
  -2   4  11    0.09    0.13
  -2   4  11    0.21    0.14
   1  -4 -11    0.62    0.17
   1  -4 -11    1.10    0.30
   1  -4 -11    0.42    0.21
   1  -4 -11    0.44    0.22
  -1   4  11    0.70    0.23
  -1   4  11    0.53    0.17
   0  -4 -11    0.34    0.20
   0  -4 -11    1.04    0.30
   0  -4 -11    0.52    0.24
   0  -4 -11    0.36    0.16
   0  -4 -11    0.77    0.19
   0  -4 -11    0.67    0.16
   0   4  11    0.45    0.16
  -1  -4 -11   10.14    0.51
  -1  -4 -11   11.71    0.77
  -1  -4 -11    9.80    0.55
  -1  -4 -11    9.28    0.69
  -1  -4 -11   11.81    0.68
  -1  -4 -11   11.62    0.62
   1   4  11   10.89    0.83
   1   4  11   12.41    1.10
  -2  -4 -11    1.83    0.38
  -2  -4 -11    1.44    0.28
  -2  -4 -11    1.75    0.28
  -2  -4 -11    1.93    0.28
  -2  -4 -11    2.54    0.39
   2   4  11    0.85    0.32
   2   4  11    1.41    0.41
  -3  -4 -11   -0.01    0.13
  -3  -4 -11    0.01    0.12
  -3  -4 -11    0.02    0.14
  -3  -4 -11    0.01    0.17
   3   4  11    0.03    0.23
   3   4  11    0.22    0.22
  -4  -4 -11    0.06    0.21
  -4  -4 -11    0.23    0.17
  -4  -4 -11    0.03    0.14
   4   4  11   -0.22    0.23
   4   4  11    0.06    0.22
  -5  -4 -11    0.19    0.19
   5   4  11    0.00    0.17
   6  -5 -11    0.01    0.28
   6  -5 -11   -0.12    0.27
  -6   5  11   -0.10    0.18
  -6   5  11   -0.10    0.26
   5  -5 -11    4.81    0.79
   5  -5 -11    2.95    0.59
  -5   5  11    3.72    0.48
  -5   5  11    4.83    0.69
   4  -5 -11    0.08    0.29
   4  -5 -11   -0.04    0.23
   4  -5 -11    0.13    0.25
  -4   5  11    0.13    0.24
  -4   5  11   -0.07    0.15
  -4   5  11    0.09    0.17
   3  -5 -11    0.30    0.26
   3  -5 -11   -0.18    0.23
   3  -5 -11    0.55    0.32
  -3   5  11    0.20    0.18
  -3   5  11    0.12    0.15
   2  -5 -11    2.83    0.48
   2  -5 -11    3.63    0.60
  -2   5  11    2.56    0.40
  -2   5  11    3.11    0.39
   1  -5 -11    0.06    0.13
   1  -5 -11    0.17    0.18
   1  -5 -11   -0.06    0.21
  -1   5  11    0.23    0.15
   0  -5 -11    0.16    0.20
   0  -5 -11    0.19    0.14
   0  -5 -11   -0.08    0.15
   0  -5 -11    0.05    0.15
   0  -5 -11    0.20    0.16
  -1  -5 -11    0.03    0.12
  -1  -5 -11    0.07    0.15
  -1  -5 -11    0.07    0.13
  -1  -5 -11   -0.02    0.18
   1   5  11    0.34    0.27
  -2  -5 -11    0.26    0.17
  -2  -5 -11    0.13    0.17
  -2  -5 -11   -0.01    0.22
  -2  -5 -11    0.11    0.15
   2   5  11    0.20    0.24
  -3  -5 -11    0.06    0.23
  -3  -5 -11    0.23    0.17
  -3  -5 -11    0.28    0.19
   3   5  11    0.47    0.32
  -4  -5 -11   -0.14    0.25
  -4  -5 -11    0.32    0.20
   4   5  11    0.21    0.30
   6  -6 -11    0.15    0.34
  -6   6  11    0.07    0.32
   5  -6 -11    4.20    0.77
   5  -6 -11    3.97    0.77
   4  -6 -11    6.31    0.82
   4  -6 -11    6.18    0.90
  -4   6  11    5.43    0.58
  -4   6  11    5.45    0.62
   3  -6 -11    0.30    0.29
  -3   6  11    0.40    0.22
  -3   6  11    0.55    0.25
   2  -6 -11    0.06    0.25
  -2   6  11    0.13    0.16
   1  -6 -11    0.06    0.16
   1  -6 -11    0.19    0.27
   0  -6 -11    0.15    0.15
   0  -6 -11    0.16    0.16
  -1  -6 -11    0.33    0.20
  -1  -6 -11    0.07    0.16
  -1  -6 -11    0.07    0.17
  -2  -6 -11    0.22    0.20
   2   6  11    0.71    0.38
  -3  -6 -11    1.29    0.32
   3   6  11    0.72    0.43
  -3   7  11    1.58    0.38
  -1  -7 -11    0.03    0.19
   2   9 -12    0.10    0.33
   1   9 -12   -0.09    0.37
   0  -9  12    0.04    0.19
   1  -9  12    0.05    0.18
   2  -9  12    0.20    0.21
   3  -9  12    1.58    0.36
   4  -9  12    8.51    0.80
   4   8 -12    0.55    0.25
   3   8 -12   15.85    1.08
   3   8 -12   14.02    0.83
  -3  -8  12   12.58    0.83
   2   8 -12    4.62    0.71
  -2  -8  12    7.54    0.73
   1   8 -12    0.26    0.30
  -1  -8  12    0.28    0.23
  -1  -8  12   -0.01    0.24
   0   8 -12   -0.16    0.27
   0  -8  12   -0.18    0.19
   0  -8  12    0.13    0.17
   1  -8  12    0.47    0.21
   1  -8  12    0.24    0.23
   2  -8  12    0.23    0.18
   2  -8  12   -0.19    0.19
  -3   8 -12    0.28    0.19
   3  -8  12    0.28    0.21
   4  -8  12   -0.08    0.16
  -5   8 -12    8.12    0.86
   5  -8  12    7.42    0.75
   5   7 -12    0.05    0.20
   4   7 -12    0.10    0.24
   4   7 -12   -0.11    0.18
   3   7 -12    0.95    0.33
   3   7 -12    0.95    0.27
  -3  -7  12    1.05    0.31
   2   7 -12   12.52    0.91
  -2  -7  12   11.45    0.73
   1   7 -12    1.22    0.43
  -1  -7  12    1.75    0.36
  -1  -7  12    0.96    0.30
   0   7 -12   -0.12    0.37
   0  -7  12   -0.18    0.15
   0  -7  12    0.05    0.13
   1  -7  12    0.60    0.24
   1  -7  12    0.44    0.22
   1  -7  12    0.56    0.20
  -2   7 -12    0.12    0.13
   2  -7  12    0.02    0.18
   2  -7  12    0.15    0.16
  -3   7 -12   -0.07    0.18
  -3   7 -12   -0.16    0.15
   3  -7  12   -0.18    0.13
  -4   7 -12    0.03    0.19
  -4   7 -12   -0.02    0.18
  -4   7 -12    0.07    0.22
   4  -7  12   -0.10    0.18
  -5   7 -12    1.53    0.40
   5  -7  12    2.05    0.40
   6  -7  12   17.10    1.25
   6  -7  12   18.50    1.01
   6   6 -12   -0.33    0.16
   5   6 -12   -0.07    0.18
   5   6 -12    0.02    0.17
   4   6 -12   -0.11    0.19
   4   6 -12    0.28    0.18
  -4  -6  12    0.21    0.20
   3   6 -12    0.27    0.17
   3   6 -12   -0.13    0.17
  -3  -6  12    0.03    0.17
  -3  -6  12    0.29    0.20
   2   6 -12    1.41    0.36
   2   6 -12    1.21    0.25
  -2  -6  12    1.27    0.29
  -2  -6  12    1.06    0.37
   1   6 -12    0.47    0.28
  -1  -6  12    0.61    0.31
  -1  -6  12    0.07    0.15
  -1  -6  12    0.54    0.21
   0   6 -12    0.72    0.33
   0  -6  12    0.29    0.28
   0  -6  12    0.30    0.21
   0  -6  12    0.44    0.17
   0  -6  12    0.55    0.24
  -1   6 -12    0.16    0.13
   1  -6  12   -0.06    0.15
   1  -6  12    0.03    0.11
   1  -6  12    0.16    0.21
   1  -6  12   -0.12    0.14
  -2   6 -12    1.17    0.29
  -2   6 -12    1.51    0.24
   2  -6  12    2.07    0.32
   2  -6  12    1.21    0.25
  -3   6 -12    0.14    0.15
  -3   6 -12    0.13    0.17
  -3   6 -12    0.03    0.16
   3  -6  12    0.07    0.14
  -4   6 -12   -0.04    0.19
  -4   6 -12    0.02    0.15
  -4   6 -12    0.01    0.16
   4  -6  12    0.02    0.15
   4  -6  12    0.30    0.26
  -5   6 -12    0.69    0.24
  -5   6 -12    0.07    0.21
   5  -6  12    0.15    0.16
   5  -6  12    0.02    0.27
  -6   6 -12   -0.24    0.24
   6  -6  12    0.01    0.19
   6  -6  12   -0.06    0.27
   6   5 -12    1.00    0.29
   6   5 -12    1.75    0.33
   5   5 -12    0.15    0.21
   5   5 -12    0.14    0.21
  -5  -5  12    0.18    0.18
   4   5 -12    0.05    0.15
   4   5 -12   -0.07    0.16
  -4  -5  12    0.24    0.17
  -4  -5  12    0.17    0.21
   3   5 -12    0.07    0.11
   3   5 -12   -0.05    0.14
  -3  -5  12    0.10    0.15
  -3  -5  12   -0.10    0.14
  -3  -5  12    0.00    0.19
   2   5 -12    0.35    0.21
   2   5 -12    0.35    0.16
  -2  -5  12    0.08    0.15
  -2  -5  12    0.30    0.22
  -2  -5  12    0.14    0.17
   1   5 -12    4.30    0.55
   1   5 -12    4.52    0.44
   1   5 -12    3.84    0.38
  -1  -5  12    3.05    0.39
  -1  -5  12    3.71    0.56
   0   5 -12   10.93    0.77
   0   5 -12   10.98    0.59
   0  -5  12   11.78    0.82
   0  -5  12   11.74    0.63
   0  -5  12   10.39    0.49
  -1   5 -12   23.12    0.92
  -1   5 -12   23.51    1.17
  -1   5 -12   23.49    0.73
   1  -5  12   22.88    1.18
   1  -5  12   22.75    0.90
   1  -5  12   24.07    0.83
   1  -5  12   23.49    0.92
  -2   5 -12    0.18    0.16
  -2   5 -12    0.38    0.14
  -2   5 -12    0.34    0.15
   2  -5  12    0.46    0.26
   2  -5  12    0.55    0.19
   2  -5  12    0.71    0.18
  -3   5 -12    0.13    0.14
  -3   5 -12   -0.17    0.12
  -3   5 -12    0.08    0.16
   3  -5  12   -0.07    0.22
   3  -5  12    0.07    0.13
  -4   5 -12   -0.06    0.15
  -4   5 -12   -0.03    0.13
  -4   5 -12   -0.04    0.18
  -4   5 -12    0.18    0.18
   4  -5  12    0.00    0.18
   4  -5  12   -0.07    0.10
  -5   5 -12   -0.12    0.19
  -5   5 -12    0.22    0.20
  -5   5 -12    0.18    0.19
  -5   5 -12    0.08    0.18
   5  -5  12   -0.09    0.13
   5  -5  12   -0.03    0.23
  -6   5 -12    0.64    0.27
  -6   5 -12    0.61    0.28
  -6   5 -12    1.03    0.33
   6  -5  12    0.13    0.28
   6  -5  12    1.23    0.33
   7   4 -12    0.87    0.30
   7   4 -12    0.06    0.16
   6   4 -12    0.59    0.27
   6   4 -12    0.45    0.19
   5   4 -12    0.13    0.15
   5   4 -12    0.27    0.16
  -5  -4  12    0.02    0.14
   4   4 -12    0.23    0.17
   4   4 -12    0.48    0.20
  -4  -4  12    0.75    0.22
  -4  -4  12    0.76    0.22
   3   4 -12    0.43    0.20
   3   4 -12    0.68    0.20
   3   4 -12    0.34    0.20
  -3  -4  12    0.47    0.18
  -3  -4  12    0.47    0.18
  -3  -4  12    0.54    0.24
   2   4 -12    0.23    0.15
   2   4 -12    0.18    0.17
   2   4 -12    0.09    0.11
  -2  -4  12    0.13    0.14
  -2  -4  12    0.08    0.17
  -2  -4  12    0.04    0.12
   1   4 -12    1.78    0.26
   1   4 -12    1.51    0.28
   1   4 -12    2.28    0.39
   1   4 -12    1.71    0.29
  -1  -4  12    1.74    0.29
  -1  -4  12    1.35    0.35
  -1  -4  12    0.95    0.23
   0   4 -12    0.38    0.21
   0   4 -12    0.00    0.08
   0   4 -12    0.19    0.13
   0  -4  12    0.07    0.09
   0  -4  12    0.25    0.15
   0  -4  12    0.20    0.15
   0  -4  12    0.32    0.19
  -1   4 -12   21.77    0.70
  -1   4 -12   22.29    0.71
  -1   4 -12   22.22    0.90
  -1   4 -12   21.59    1.06
  -1   4 -12   22.46    0.77
   1  -4  12   22.12    0.74
   1  -4  12   22.37    1.11
   1  -4  12   22.78    0.86
   1  -4  12   22.33    0.84
  -2   4 -12    2.13    0.28
  -2   4 -12    2.28    0.36
  -2   4 -12    2.20    0.29
   2  -4  12    2.83    0.48
   2  -4  12    1.90    0.26
   2  -4  12    2.36    0.29
   2  -4  12    2.15    0.44
  -3   4 -12    0.49    0.21
  -3   4 -12    0.77    0.20
  -3   4 -12    0.72    0.24
  -3   4 -12    0.72    0.21
   3  -4  12    0.72    0.30
   3  -4  12    0.56    0.17
   3  -4  12    1.02    0.33
  -4   4 -12    0.55    0.20
  -4   4 -12    0.48    0.21
  -4   4 -12    0.45    0.19
  -4   4 -12    0.21    0.20
   4  -4  12    0.21    0.17
   4  -4  12    0.32    0.22
  -5   4 -12   -0.13    0.16
  -5   4 -12   -0.03    0.16
  -5   4 -12    0.13    0.17
  -5   4 -12    0.24    0.19
   5  -4  12    0.40    0.25
   5  -4  12    0.07    0.14
  -6   4 -12   -0.07    0.21
  -6   4 -12   -0.03    0.19
  -6   4 -12    0.33    0.20
   6  -4  12   -0.01    0.15
   6  -4  12    0.21    0.24
   7  -4  12   -0.07    0.20
   7   3 -12    2.24    0.43
   6   3 -12    1.67    0.34
   6   3 -12    0.94    0.25
   5   3 -12   14.70    0.77
   5   3 -12   13.41    0.90
   5   3 -12   15.57    0.76
  -5  -3  12   14.09    0.62
  -5  -3  12   14.06    0.62
   4   3 -12    0.37    0.23
   4   3 -12    0.10    0.14
   4   3 -12    0.33    0.17
  -4  -3  12    0.13    0.14
   3   3 -12    0.11    0.11
   3   3 -12    0.13    0.14
   3   3 -12    0.08    0.18
   3   3 -12   -0.13    0.12
  -3  -3  12    0.01    0.12
  -3  -3  12   -0.11    0.10
  -3  -3  12   -0.07    0.14
   2   3 -12   -0.16    0.10
   2   3 -12   -0.12    0.10
   2   3 -12   -0.18    0.12
   2   3 -12   -0.02    0.09
  -2  -3  12   -0.05    0.10
  -2  -3  12   -0.13    0.13
   1   3 -12    0.00    0.11
   1   3 -12   -0.20    0.13
   1   3 -12    0.22    0.11
   1   3 -12   -0.06    0.09
  -1  -3  12   -0.03    0.13
  -1  -3  12    0.02    0.12
  -1  -3  12    0.13    0.14
   0   3 -12    2.88    0.43
   0   3 -12    3.82    0.28
   0   3 -12    4.34    0.45
   0   3 -12    3.95    0.23
   0  -3  12    3.61    0.48
   0  -3  12    3.27    0.36
   0  -3  12    3.29    0.37
  -1   3 -12    0.97    0.16
  -1   3 -12    1.08    0.16
  -1   3 -12    1.21    0.19
  -1   3 -12    1.46    0.36
  -1   3 -12    1.26    0.26
   1  -3  12    0.73    0.19
   1  -3  12    1.15    0.32
   1  -3  12    0.97    0.22
   1  -3  12    1.03    0.17
   1  -3  12    1.09    0.31
  -2   3 -12   24.23    0.97
  -2   3 -12   23.85    0.82
  -2   3 -12   22.02    0.76
  -2   3 -12   23.13    0.92
   2  -3  12   22.97    1.13
   2  -3  12   21.60    1.04
   2  -3  12   21.92    0.73
   2  -3  12   22.35    0.76
  -3   3 -12    1.20    0.27
  -3   3 -12    0.89    0.25
  -3   3 -12    0.86    0.20
  -3   3 -12    0.79    0.18
   3  -3  12    0.59    0.26
   3  -3  12    0.90    0.19
   3  -3  12    1.19    0.39
  -4   3 -12    0.09    0.16
  -4   3 -12   -0.02    0.12
  -4   3 -12    0.08    0.14
  -4   3 -12    0.18    0.18
   4  -3  12    0.03    0.08
   4  -3  12    0.02    0.15
  -5   3 -12    0.13    0.17
  -5   3 -12    0.04    0.18
  -5   3 -12   -0.06    0.12
  -5   3 -12    0.19    0.20
   5  -3  12   -0.07    0.20
   5  -3  12    0.26    0.17
  -6   3 -12    0.12    0.19
  -6   3 -12    0.36    0.22
  -6   3 -12   -0.19    0.18
   6  -3  12    0.18    0.23
   6  -3  12    0.03    0.18
   7  -3  12   -0.15    0.16
   7   2 -12    0.51    0.26
   7   2 -12    0.50    0.21
   6   2 -12    0.07    0.18
   6   2 -12    0.11    0.26
   6   2 -12    0.10    0.15
   5   2 -12    1.63    0.29
   5   2 -12    2.81    0.50
   5   2 -12    1.47    0.30
  -5  -2  12    1.81    0.25
   4   2 -12    5.86    0.44
   4   2 -12    6.24    0.72
   4   2 -12    5.42    0.54
   4   2 -12    5.49    0.61
  -4  -2  12    5.81    0.39
   3   2 -12    0.12    0.15
   3   2 -12    0.00    0.14
   3   2 -12   -0.02    0.11
   3   2 -12    0.16    0.14
  -3  -2  12   -0.09    0.10
   2   2 -12    0.89    0.24
   2   2 -12    0.78    0.21
   2   2 -12    0.90    0.24
   2   2 -12    0.93    0.20
   2   2 -12    1.11    0.22
  -2  -2  12    0.79    0.21
  -2  -2  12    0.61    0.18
  -2  -2  12    1.18    0.23
   1   2 -12    1.36    0.27
   1   2 -12    1.08    0.24
   1   2 -12    1.63    0.24
   1   2 -12    1.36    0.22
   1   2 -12    1.04    0.28
  -1  -2  12    1.55    0.26
  -1  -2  12    2.02    0.32
  -1  -2  12    1.63    0.30
  -1  -2  12    1.28    0.24
   0   2 -12   -0.10    0.10
   0   2 -12    0.07    0.07
   0   2 -12    0.09    0.07
   0   2 -12   -0.06    0.07
   0   2 -12   -0.04    0.16
   0  -2  12    0.01    0.11
   0  -2  12    0.02    0.11
   0  -2  12    0.02    0.14
   0  -2  12   -0.14    0.11
  -1   2 -12    2.94    0.30
  -1   2 -12    2.59    0.33
  -1   2 -12    3.13    0.29
  -1   2 -12    2.74    0.45
  -1   2 -12    3.56    0.41
   1  -2  12    2.92    0.44
   1  -2  12    3.15    0.45
   1  -2  12    3.21    0.35
   1  -2  12    2.43    0.24
   1  -2  12    2.99    0.33
  -2   2 -12    1.03    0.23
  -2   2 -12    1.06    0.24
  -2   2 -12    0.74    0.17
  -2   2 -12    0.96    0.18
   2  -2  12    0.65    0.15
   2  -2  12    1.18    0.29
   2  -2  12    0.61    0.14
   2  -2  12    0.78    0.29
  -3   2 -12    0.06    0.11
  -3   2 -12    0.07    0.12
  -3   2 -12   -0.27    0.10
  -3   2 -12    0.13    0.12
   3  -2  12    0.03    0.14
   3  -2  12   -0.09    0.18
   3  -2  12    0.03    0.10
  -4   2 -12   11.06    0.57
  -4   2 -12   11.08    0.58
  -4   2 -12   12.05    0.74
  -4   2 -12   11.43    0.67
   4  -2  12   11.24    0.59
   4  -2  12    9.89    0.99
   4  -2  12   11.82    0.78
  -5   2 -12    0.07    0.16
  -5   2 -12    0.11    0.14
  -5   2 -12    0.04    0.15
  -5   2 -12   -0.05    0.16
   5  -2  12    0.05    0.11
   5  -2  12    0.03    0.19
  -6   2 -12   -0.23    0.21
  -6   2 -12    0.15    0.21
  -6   2 -12    0.01    0.18
   6  -2  12   -0.05    0.13
   6  -2  12   -0.13    0.20
   7  -2  12    0.16    0.22
   8   1 -12    0.11    0.15
   8   1 -12    0.05    0.23
   8   1 -12   -0.05    0.45
   7   1 -12    0.41    0.34
   7   1 -12   -0.16    0.15
   7   1 -12   -0.01    0.16
  -7  -1  12    0.00    0.18
   6   1 -12    0.20    0.25
   6   1 -12    0.13    0.15
   6   1 -12    0.03    0.16
  -6  -1  12    0.24    0.16
   5   1 -12    0.66    0.22
   5   1 -12    0.78    0.23
   5   1 -12    0.34    0.28
   5   1 -12    0.57    0.31
  -5  -1  12    0.75    0.18
  -5  -1  12    0.62    0.21
   4   1 -12    0.40    0.25
   4   1 -12   -0.14    0.16
   4   1 -12   -0.02    0.15
   4   1 -12    0.17    0.20
   4   1 -12    0.13    0.13
  -4  -1  12    0.09    0.13
  -4  -1  12    0.05    0.12
  -4  -1  12    0.18    0.12
   3   1 -12   27.13    1.15
   3   1 -12   28.40    1.25
   3   1 -12   27.41    0.94
   3   1 -12   27.17    1.07
   3   1 -12   26.26    1.08
  -3  -1  12   26.72    0.90
  -3  -1  12   27.54    1.01
  -3  -1  12   26.26    0.91
   2   1 -12    2.37    0.33
   2   1 -12    1.76    0.34
   2   1 -12    2.71    0.39
   2   1 -12    3.11    0.43
   2   1 -12    2.24    0.28
  -2  -1  12    1.73    0.28
  -2  -1  12    1.80    0.29
  -2  -1  12    1.80    0.29
  -2  -1  12    2.11    0.30
   1   1 -12    0.81    0.17
   1   1 -12    0.67    0.22
   1   1 -12    0.49    0.18
   1   1 -12    0.95    0.21
   1   1 -12    0.76    0.23
  -1  -1  12    0.48    0.17
  -1  -1  12    1.11    0.24
  -1  -1  12    0.70    0.18
  -1  -1  12    0.96    0.25
   0   1 -12    1.51    0.31
   0   1 -12    1.12    0.17
   0   1 -12    1.25    0.18
   0   1 -12    1.16    0.18
   0   1 -12    1.41    0.27
   0   1 -12    1.33    0.27
   0  -1  12    1.13    0.27
   0  -1  12    1.32    0.24
   0  -1  12    1.76    0.36
   0  -1  12    1.32    0.24
   0  -1  12    1.30    0.28
  -1   1 -12    1.26    0.25
  -1   1 -12    1.36    0.31
  -1   1 -12    1.15    0.18
  -1   1 -12    1.13    0.22
  -1   1 -12    1.72    0.23
   1  -1  12    1.64    0.34
   1  -1  12    1.03    0.21
   1  -1  12    0.68    0.18
   1  -1  12    1.07    0.31
   1  -1  12    1.20    0.17
  -2   1 -12    6.34    0.40
  -2   1 -12    7.54    0.41
  -2   1 -12    7.09    0.49
  -2   1 -12    7.48    0.52
   2  -1  12    7.71    0.76
   2  -1  12    7.70    0.74
   2  -1  12    7.96    0.41
  -3   1 -12    4.74    0.48
  -3   1 -12    4.91    0.50
  -3   1 -12    5.42    0.38
  -3   1 -12    5.52    0.37
   3  -1  12    6.35    0.74
   3  -1  12    5.22    0.37
   3  -1  12    4.22    0.55
  -4   1 -12    8.42    0.49
  -4   1 -12    7.53    0.57
  -4   1 -12    8.76    0.58
  -4   1 -12    8.59    0.49
   4  -1  12    7.99    0.50
   4  -1  12    8.33    0.82
  -5   1 -12    1.38    0.36
  -5   1 -12    1.57    0.27
  -5   1 -12    1.00    0.23
  -5   1 -12    0.80    0.25
   5  -1  12    1.11    0.32
   5  -1  12    1.39    0.27
  -6   1 -12    0.00    0.19
  -6   1 -12    0.13    0.18
  -6   1 -12   -0.07    0.18
   6  -1  12    0.02    0.14
   6  -1  12    0.23    0.23
   7  -1  12   -0.16    0.16
   8   0 -12   -0.18    0.22
   7   0 -12    0.43    0.25
   7   0 -12    0.13    0.29
   7   0 -12    0.37    0.21
  -7   0  12    0.07    0.17
   6   0 -12    0.79    0.37
   6   0 -12    0.41    0.22
   6   0 -12    0.96    0.28
  -6   0  12    0.78    0.25
  -6   0  12    0.75    0.18
   5   0 -12    1.35    0.28
   5   0 -12    2.12    0.47
   5   0 -12    1.43    0.38
   5   0 -12    1.57    0.32
  -5   0  12    1.85    0.34
  -5   0  12    1.76    0.27
   4   0 -12    2.06    0.45
   4   0 -12    2.66    0.44
   4   0 -12    2.14    0.37
   4   0 -12    2.46    0.34
   4   0 -12    1.51    0.35
  -4   0  12    2.50    0.32
  -4   0  12    2.50    0.31
  -4   0  12    2.60    0.37
   3   0 -12    0.61    0.23
   3   0 -12    0.21    0.17
   3   0 -12    0.64    0.23
   3   0 -12    0.41    0.16
   3   0 -12    0.41    0.20
  -3   0  12    0.55    0.20
  -3   0  12    0.25    0.13
  -3   0  12    0.31    0.13
   2   0 -12   65.26    1.85
   2   0 -12   60.19    1.97
   2   0 -12   60.76    1.88
   2   0 -12   60.45    1.53
   2   0 -12   61.99    1.80
  -2   0  12   58.67    1.58
  -2   0  12   61.02    1.73
   1   0 -12    1.06    0.29
   1   0 -12    0.67    0.16
   1   0 -12    0.65    0.19
   1   0 -12    0.96    0.14
   1   0 -12    0.90    0.24
   1   0 -12    0.75    0.22
  -1   0  12    0.97    0.22
  -1   0  12    1.13    0.23
  -1   0  12    0.99    0.21
  -1   0  12    0.75    0.23
   0   0 -12   -0.03    0.08
   0   0 -12    0.08    0.16
   0   0 -12   -0.03    0.09
   0   0 -12   -0.05    0.07
   0   0 -12   -0.07    0.07
   0   0 -12    0.02    0.13
   0   0  12    0.09    0.15
   0   0  12    0.04    0.14
   0   0  12    0.05    0.12
   0   0  12   -0.10    0.09
   0   0  12   -0.07    0.09
  -1   0 -12    0.09    0.09
  -1   0 -12    0.22    0.13
  -1   0 -12    0.07    0.13
  -1   0 -12    0.12    0.10
   1   0  12    0.10    0.14
   1   0  12    0.13    0.16
   1   0  12    0.01    0.07
   1   0  12    0.04    0.10
  -2   0 -12    0.23    0.11
  -2   0 -12    0.29    0.15
  -2   0 -12    0.21    0.14
  -2   0 -12    0.05    0.10
   2   0  12    0.01    0.13
   2   0  12    0.06    0.08
  -3   0 -12   -0.04    0.11
  -3   0 -12   -0.09    0.08
  -3   0 -12   -0.03    0.09
  -3   0 -12    0.14    0.16
   3   0  12    0.20    0.19
   3   0  12    0.26    0.13
  -4   0 -12    0.93    0.26
  -4   0 -12    0.99    0.23
  -4   0 -12    1.61    0.35
  -4   0 -12    1.65    0.25
   4   0  12    1.24    0.36
   4   0  12    1.56    0.26
  -5   0 -12    0.00    0.14
  -5   0 -12    0.19    0.20
  -5   0 -12   -0.02    0.14
  -5   0 -12    0.26    0.19
   5   0  12    0.08    0.19
   5   0  12    0.34    0.17
  -6   0 -12   26.81    1.23
  -6   0 -12   26.06    1.15
   6   0  12   26.60    1.32
   6   0  12   27.06    1.10
   7  -1 -12    0.14    0.21
   7  -1 -12   -0.11    0.25
  -7   1  12   -0.12    0.15
  -7   1  12    0.07    0.19
   6  -1 -12    0.09    0.25
   6  -1 -12   -0.19    0.17
   6  -1 -12   -0.08    0.22
   6  -1 -12    0.05    0.17
  -6   1  12   -0.09    0.11
  -6   1  12   -0.06    0.15
   5  -1 -12    0.21    0.22
   5  -1 -12    0.16    0.18
   5  -1 -12    0.33    0.19
   5  -1 -12    0.28    0.23
  -5   1  12    0.24    0.19
  -5   1  12    0.40    0.16
   4  -1 -12    1.16    0.35
   4  -1 -12    1.80    0.45
   4  -1 -12    1.61    0.31
   4  -1 -12    1.31    0.35
  -4   1  12    0.98    0.22
  -4   1  12    1.73    0.34
  -4   1  12    1.54    0.26
   3  -1 -12    3.34    0.53
   3  -1 -12    3.77    0.40
   3  -1 -12    2.67    0.44
   3  -1 -12    3.48    0.50
   3  -1 -12    3.03    0.48
  -3   1  12    3.04    0.35
  -3   1  12    2.88    0.40
  -3   1  12    3.90    0.40
   2  -1 -12    0.41    0.21
   2  -1 -12    0.48    0.22
   2  -1 -12    0.40    0.19
   2  -1 -12    0.14    0.16
  -2   1  12    0.43    0.17
  -2   1  12    0.39    0.15
  -2   1  12    0.88    0.25
   1  -1 -12    9.54    0.40
   1  -1 -12   10.81    0.64
   1  -1 -12   10.34    0.69
   1  -1 -12    9.60    0.61
   1  -1 -12   10.05    0.71
  -1   1  12    9.62    0.53
  -1   1  12    9.88    0.62
  -1   1  12    9.33    0.52
   0  -1 -12    0.17    0.13
   0  -1 -12    0.05    0.09
   0  -1 -12    0.10    0.10
   0  -1 -12   -0.10    0.16
   0  -1 -12    0.11    0.14
   0   1  12   -0.08    0.09
   0   1  12   -0.07    0.14
   0   1  12    0.19    0.12
  -1  -1 -12    0.22    0.14
  -1  -1 -12    0.04    0.08
  -1  -1 -12    0.07    0.08
  -1  -1 -12    0.11    0.10
  -1  -1 -12    0.31    0.17
   1   1  12    0.02    0.16
   1   1  12    0.23    0.10
   1   1  12    0.18    0.11
  -2  -1 -12    0.48    0.18
  -2  -1 -12    0.70    0.17
  -2  -1 -12    0.40    0.13
  -2  -1 -12    0.40    0.18
  -2  -1 -12    0.34    0.13
   2   1  12    0.43    0.12
   2   1  12    0.80    0.30
  -3  -1 -12    2.97    0.41
  -3  -1 -12    2.18    0.36
  -3  -1 -12    2.23    0.27
  -3  -1 -12    1.68    0.26
  -3  -1 -12    1.99    0.27
   3   1  12    2.37    0.30
   3   1  12    2.54    0.47
  -4  -1 -12    0.23    0.18
  -4  -1 -12   -0.01    0.12
  -4  -1 -12    0.43    0.17
  -4  -1 -12    0.12    0.18
  -4  -1 -12    0.15    0.12
   4   1  12   -0.03    0.12
   4   1  12    0.11    0.21
  -5  -1 -12    0.61    0.18
  -5  -1 -12    1.33    0.27
  -5  -1 -12    0.84    0.29
  -5  -1 -12    1.40    0.31
   5   1  12    1.31    0.29
   5   1  12    1.17    0.34
  -6  -1 -12    0.76    0.31
  -6  -1 -12    0.71    0.23
   6   1  12    0.69    0.31
   6   1  12    0.54    0.25
   7  -2 -12    0.73    0.41
   7  -2 -12    1.13    0.36
  -7   2  12    1.01    0.32
   6  -2 -12    0.91    0.30
   6  -2 -12    0.33    0.32
   6  -2 -12    0.46    0.28
  -6   2  12    0.64    0.26
  -6   2  12    0.13    0.16
   5  -2 -12   -0.11    0.20
   5  -2 -12   -0.03    0.19
   5  -2 -12   -0.27    0.22
  -5   2  12    0.34    0.18
  -5   2  12    0.10    0.15
  -5   2  12    0.13    0.19
   4  -2 -12    3.28    0.49
   4  -2 -12    3.95    0.60
   4  -2 -12    4.46    0.64
  -4   2  12    5.02    0.47
  -4   2  12    4.23    0.52
  -4   2  12    3.85    0.43
   3  -2 -12   -0.01    0.18
   3  -2 -12   -0.14    0.16
   3  -2 -12   -0.02    0.17
   3  -2 -12    0.16    0.16
  -3   2  12    0.15    0.13
  -3   2  12    0.17    0.13
  -3   2  12    0.03    0.16
   2  -2 -12    0.79    0.27
   2  -2 -12    0.75    0.27
   2  -2 -12    0.62    0.24
   2  -2 -12    1.09    0.30
  -2   2  12    0.73    0.23
  -2   2  12    0.70    0.19
  -2   2  12    0.81    0.20
   1  -2 -12    0.07    0.16
   1  -2 -12    0.09    0.14
   1  -2 -12    0.09    0.09
   1  -2 -12    0.21    0.16
   1  -2 -12    0.10    0.18
  -1   2  12    0.18    0.13
  -1   2  12    0.26    0.16
  -1   2  12    0.05    0.12
   0  -2 -12   59.37    1.72
   0  -2 -12   59.35    1.92
   0  -2 -12   58.95    1.47
   0  -2 -12   56.37    1.52
   0   2  12   52.99    2.05
   0   2  12   58.29    1.50
   0   2  12   58.59    1.57
  -1  -2 -12    0.17    0.12
  -1  -2 -12   -0.05    0.15
  -1  -2 -12    0.11    0.10
  -1  -2 -12    0.02    0.12
  -1  -2 -12    0.14    0.14
  -1  -2 -12    0.02    0.11
   1   2  12   -0.03    0.08
   1   2  12    0.16    0.19
  -2  -2 -12    0.12    0.12
  -2  -2 -12    0.71    0.21
  -2  -2 -12    0.25    0.12
  -2  -2 -12    0.29    0.13
  -2  -2 -12    0.15    0.17
   2   2  12    0.09    0.18
   2   2  12    0.31    0.13
  -3  -2 -12    0.03    0.11
  -3  -2 -12    0.18    0.12
  -3  -2 -12    0.47    0.21
  -3  -2 -12    0.08    0.14
  -3  -2 -12    0.31    0.15
   3   2  12    0.01    0.19
   3   2  12    0.12    0.12
  -4  -2 -12   -0.12    0.11
  -4  -2 -12    0.18    0.22
  -4  -2 -12    0.40    0.16
  -4  -2 -12    0.25    0.19
  -4  -2 -12    0.22    0.14
   4   2  12    0.53    0.19
   4   2  12    0.27    0.24
  -5  -2 -12   -0.10    0.19
  -5  -2 -12    0.18    0.18
  -5  -2 -12    0.16    0.16
  -5  -2 -12    0.13    0.20
   5   2  12    0.27    0.25
   5   2  12    0.44    0.20
  -6  -2 -12    0.28    0.20
   6   2  12    0.59    0.22
   7  -3 -12    0.70    0.34
   6  -3 -12    0.31    0.26
   6  -3 -12   -0.15    0.28
  -6   3  12   -0.06    0.22
  -6   3  12    0.03    0.18
   5  -3 -12   -0.04    0.26
   5  -3 -12    0.10    0.27
   5  -3 -12    0.25    0.23
  -5   3  12   -0.01    0.16
  -5   3  12    0.05    0.21
  -5   3  12    0.04    0.15
   4  -3 -12   -0.01    0.24
   4  -3 -12    0.05    0.20
   4  -3 -12   -0.24    0.21
  -4   3  12   -0.03    0.15
  -4   3  12    0.12    0.20
  -4   3  12   -0.08    0.12
   3  -3 -12    4.11    0.58
   3  -3 -12    4.45    0.64
   3  -3 -12    4.22    0.59
  -3   3  12    4.43    0.57
  -3   3  12    5.55    0.55
  -3   3  12    4.21    0.43
   2  -3 -12    0.13    0.21
   2  -3 -12    1.05    0.30
   2  -3 -12    0.24    0.23
  -2   3  12    0.45    0.18
  -2   3  12    0.61    0.27
  -2   3  12    0.27    0.14
   1  -3 -12    0.06    0.15
   1  -3 -12    0.06    0.17
   1  -3 -12   -0.10    0.09
   1  -3 -12   -0.04    0.17
  -1   3  12   -0.07    0.11
  -1   3  12    0.12    0.15
   0  -3 -12    1.27    0.24
   0  -3 -12    0.90    0.20
   0  -3 -12    0.86    0.26
   0  -3 -12    0.78    0.27
   0  -3 -12    0.57    0.23
   0   3  12    1.32    0.23
  -1  -3 -12    4.04    0.48
  -1  -3 -12    3.12    0.29
  -1  -3 -12    3.31    0.36
  -1  -3 -12    2.70    0.35
   1   3  12    2.05    0.45
  -2  -3 -12    0.10    0.11
  -2  -3 -12    0.02    0.14
  -2  -3 -12    0.11    0.17
  -2  -3 -12    0.22    0.13
  -2  -3 -12    0.02    0.12
   2   3  12    0.04    0.19
  -3  -3 -12    0.05    0.13
  -3  -3 -12    0.07    0.12
  -3  -3 -12   -0.06    0.14
  -3  -3 -12    0.05    0.13
  -3  -3 -12   -0.07    0.18
   3   3  12    0.16    0.13
   3   3  12    0.24    0.26
  -4  -3 -12    0.01    0.13
  -4  -3 -12    0.09    0.15
  -4  -3 -12    0.31    0.22
   4   3  12    0.19    0.15
   4   3  12    0.08    0.24
  -5  -3 -12   -0.02    0.16
  -5  -3 -12    0.27    0.25
  -5  -3 -12    0.14    0.17
   5   3  12   -0.15    0.22
   5   3  12    0.10    0.17
   6  -4 -12   13.55    1.30
   6  -4 -12   11.46    1.10
  -6   4  12   11.86    0.89
  -6   4  12   11.64    0.72
   5  -4 -12    2.59    0.57
   5  -4 -12    1.57    0.42
  -5   4  12    2.28    0.38
  -5   4  12    2.48    0.42
  -5   4  12    1.85    0.41
   4  -4 -12    0.33    0.27
   4  -4 -12    0.15    0.24
   4  -4 -12   -0.05    0.24
  -4   4  12    0.26    0.26
  -4   4  12    0.38    0.19
  -4   4  12    0.20    0.18
   3  -4 -12    0.17    0.26
   3  -4 -12    0.38    0.27
   3  -4 -12    0.24    0.23
  -3   4  12    0.62    0.22
  -3   4  12    0.84    0.24
  -3   4  12    0.13    0.21
   2  -4 -12    0.32    0.22
   2  -4 -12    0.10    0.18
  -2   4  12    0.36    0.17
  -2   4  12   -0.05    0.15
   1  -4 -12    0.39    0.22
   1  -4 -12    0.55    0.17
   1  -4 -12    0.16    0.23
  -1   4  12    0.24    0.16
   0  -4 -12    0.20    0.16
   0  -4 -12   -0.17    0.16
   0  -4 -12    0.08    0.12
   0  -4 -12    0.37    0.24
  -1  -4 -12    1.97    0.30
  -1  -4 -12    1.91    0.31
  -1  -4 -12    2.16    0.28
  -1  -4 -12    2.37    0.40
   1   4  12    2.05    0.46
   1   4  12    1.25    0.38
  -2  -4 -12    0.76    0.28
  -2  -4 -12    0.84    0.24
  -2  -4 -12    0.58    0.20
  -2  -4 -12    0.95    0.22
  -2  -4 -12    0.73    0.29
   2   4  12    0.65    0.31
   2   4  12    0.95    0.35
  -3  -4 -12    0.52    0.28
  -3  -4 -12    0.91    0.23
  -3  -4 -12    0.76    0.23
   3   4  12    1.22    0.42
   3   4  12    0.63    0.31
  -4  -4 -12    0.02    0.21
  -4  -4 -12    0.01    0.16
   4   4  12   -0.19    0.28
   4   4  12    0.16    0.26
   6  -5 -12    0.77    0.40
  -6   5  12    0.71    0.39
   5  -5 -12    2.01    0.56
   5  -5 -12    2.06    0.53
  -5   5  12    1.47    0.35
  -5   5  12    1.74    0.49
   4  -5 -12    0.07    0.27
   4  -5 -12   -0.10    0.25
  -4   5  12    0.10    0.19
  -4   5  12   -0.07    0.18
  -4   5  12    0.10    0.27
   3  -5 -12   -0.15    0.25
   3  -5 -12    0.11    0.25
  -3   5  12    0.11    0.19
  -3   5  12   -0.02    0.17
   2  -5 -12    0.82    0.36
   2  -5 -12    1.96    0.43
  -2   5  12    1.56    0.30
   1  -5 -12    0.32    0.18
   1  -5 -12    0.29    0.23
   1  -5 -12   -0.18    0.21
  -1   5  12    0.43    0.18
   0  -5 -12    0.09    0.20
   0  -5 -12   -0.11    0.13
   0  -5 -12    0.22    0.24
  -1  -5 -12    0.02    0.13
  -1  -5 -12   -0.12    0.12
  -1  -5 -12    0.26    0.19
  -2  -5 -12   -0.08    0.14
  -2  -5 -12   -0.10    0.16
  -2  -5 -12   -0.09    0.16
   2   5  12    0.12    0.29
  -3  -5 -12    3.01    0.54
  -3  -5 -12    5.66    0.54
   3   5  12    3.69    0.65
  -4  -5 -12    0.60    0.25
   5  -6 -12    1.60    0.54
   5  -6 -12    0.90    0.47
   4  -6 -12    5.06    0.78
   3  -6 -12    3.91    0.68
  -3   6  12    4.98    0.56
   2  -6 -12    0.20    0.28
  -2   6  12    0.35    0.20
   0  -6 -12    0.13    0.17
  -1  -6 -12    0.20    0.18
  -2  -6 -12    0.27    0.20
   1   9 -13    0.50    0.41
   1  -9  13    0.00    0.20
   2  -9  13   -0.15    0.19
   3  -9  13    0.05    0.22
   3   8 -13    1.47    0.36
   3   8 -13    0.72    0.35
   2   8 -13    0.19    0.30
   1   8 -13    1.61    0.47
   0  -8  13    0.07    0.23
   1  -8  13   -0.02    0.15
   1  -8  13   -0.14    0.22
   2  -8  13    0.11    0.18
  -3   8 -13    0.17    0.18
   3  -8  13    0.12    0.18
   4  -8  13   -0.21    0.17
   4   7 -13   -0.09    0.14
   4   7 -13   -0.12    0.24
   3   7 -13    0.48    0.23
   3   7 -13    0.32    0.28
  -3  -7  13    0.65    0.25
   2   7 -13    0.94    0.36
   2   7 -13    0.27    0.17
  -2  -7  13    0.59    0.30
  -2  -7  13    0.81    0.29
   1   7 -13    1.31    0.42
  -1  -7  13    0.56    0.25
   0   7 -13   35.46    1.62
   0  -7  13   31.87    1.26
   1  -7  13    0.95    0.29
   1  -7  13    1.26    0.28
   2  -7  13   -0.04    0.17
   2  -7  13   -0.15    0.13
  -3   7 -13   -0.09    0.15
  -3   7 -13    0.14    0.19
   3  -7  13    0.10    0.15
  -4   7 -13    0.01    0.23
  -4   7 -13    0.08    0.18
   4  -7  13    0.02    0.17
  -5   7 -13    0.69    0.35
   5  -7  13    0.97    0.29
   5   6 -13   -0.15    0.16
   5   6 -13    0.09    0.25
   4   6 -13   -0.03    0.21
   4   6 -13    0.03    0.17
   3   6 -13    0.19    0.16
   3   6 -13    0.00    0.21
  -3  -6  13    0.60    0.26
  -3  -6  13    0.49    0.24
   2   6 -13    1.11    0.25
   2   6 -13    0.71    0.31
  -2  -6  13    0.12    0.20
  -2  -6  13    1.18    0.31
   1   6 -13    0.17    0.15
   1   6 -13    0.14    0.24
  -1  -6  13   -0.03    0.16
   0   6 -13    4.55    0.66
   0  -6  13    4.86    0.51
  -1   6 -13   16.96    0.80
   1  -6  13   16.18    0.73
   1  -6  13   16.62    0.82
   1  -6  13   16.75    0.81
  -2   6 -13    1.62    0.33
  -2   6 -13    1.02    0.21
   2  -6  13    0.68    0.20
   2  -6  13    1.62    0.31
  -3   6 -13    0.03    0.14
  -3   6 -13   -0.05    0.14
   3  -6  13    0.16    0.15
  -4   6 -13    0.13    0.18
  -4   6 -13    0.13    0.21
  -4   6 -13    0.31    0.21
   4  -6  13    0.40    0.20
  -5   6 -13   -0.32    0.21
   5  -6  13    0.01    0.17
   5  -6  13   -0.01    0.27
   6  -6  13    0.05    0.18
   6  -6  13   -0.05    0.30
   6   5 -13   14.51    0.88
   5   5 -13    0.20    0.19
   5   5 -13   -0.10    0.17
  -5  -5  13    0.08    0.19
   4   5 -13    0.01    0.15
   4   5 -13   -0.27    0.17
  -4  -5  13   -0.12    0.17
   3   5 -13    0.16    0.14
   3   5 -13   -0.06    0.18
  -3  -5  13   -0.13    0.15
  -3  -5  13    0.08    0.21
  -3  -5  13   -0.02    0.14
   2   5 -13    0.27    0.16
   2   5 -13    0.20    0.21
  -2  -5  13    0.08    0.16
  -2  -5  13    0.31    0.23
   1   5 -13    1.47    0.27
   1   5 -13    1.37    0.35
   1   5 -13    1.56    0.29
  -1  -5  13    1.49    0.42
  -1  -5  13    2.21    0.37
  -1  -5  13    2.45    0.39
   0   5 -13    0.73    0.31
   0   5 -13    0.75    0.19
   0   5 -13    1.24    0.26
   0  -5  13    1.19    0.36
   0  -5  13    0.55    0.22
   0  -5  13    0.80    0.22
  -1   5 -13    9.66    0.60
  -1   5 -13   10.56    0.45
   1  -5  13   11.01    0.53
   1  -5  13    9.72    0.59
   1  -5  13   11.30    0.85
   1  -5  13   11.10    0.62
  -2   5 -13   23.74    0.82
  -2   5 -13   23.83    1.03
   2  -5  13   25.02    0.89
   2  -5  13   23.46    0.86
   2  -5  13   24.29    1.33
  -3   5 -13    0.01    0.13
  -3   5 -13   -0.08    0.12
  -3   5 -13    0.29    0.18
   3  -5  13    0.14    0.15
  -4   5 -13   -0.07    0.16
  -4   5 -13    0.01    0.15
  -4   5 -13    0.03    0.15
   4  -5  13   -0.19    0.20
   4  -5  13    0.05    0.15
  -5   5 -13    0.12    0.19
  -5   5 -13    0.02    0.23
  -5   5 -13    0.24    0.20
   5  -5  13   -0.03    0.16
   5  -5  13   -0.21    0.22
  -6   5 -13    1.26    0.35
   6  -5  13    0.44    0.24
   6  -5  13    0.08    0.31
   6   4 -13    0.03    0.20
   6   4 -13    0.44    0.22
   5   4 -13   17.96    0.93
   5   4 -13   17.38    0.89
  -5  -4  13   19.59    0.83
   4   4 -13    0.65    0.22
   4   4 -13    0.43    0.22
  -4  -4  13    0.65    0.21
   3   4 -13    0.09    0.16
   3   4 -13    0.14    0.19
   3   4 -13    0.02    0.13
  -3  -4  13   -0.04    0.20
  -3  -4  13    0.20    0.17
  -3  -4  13   -0.12    0.13
   2   4 -13    0.25    0.19
   2   4 -13    0.03    0.10
   2   4 -13   -0.01    0.13
  -2  -4  13   -0.15    0.16
  -2  -4  13   -0.01    0.14
   1   4 -13    1.48    0.29
   1   4 -13    1.06    0.26
   1   4 -13    1.27    0.23
   1   4 -13    1.64    0.38
  -1  -4  13    1.62    0.29
  -1  -4  13    0.82    0.22
  -1  -4  13    1.78    0.38
   0   4 -13    0.28    0.15
   0   4 -13    0.31    0.13
   0   4 -13    0.53    0.26
   0   4 -13    0.78    0.21
   0  -4  13    0.65    0.21
   0  -4  13    0.68    0.26
   0  -4  13    0.33    0.17
  -1   4 -13    5.08    0.51
  -1   4 -13    4.88    0.31
  -1   4 -13    4.90    0.32
   1  -4  13    4.59    0.62
   1  -4  13    5.60    0.50
   1  -4  13    4.91    0.47
   1  -4  13    4.99    0.34
  -2   4 -13    1.13    0.28
  -2   4 -13    1.31    0.23
  -2   4 -13    1.15    0.22
   2  -4  13    1.10    0.21
   2  -4  13    1.20    0.38
   2  -4  13    1.13    0.22
  -3   4 -13    4.29    0.42
  -3   4 -13    5.05    0.39
  -3   4 -13    4.94    0.57
   3  -4  13    5.16    0.46
   3  -4  13    4.64    0.63
  -4   4 -13    0.16    0.20
  -4   4 -13    0.05    0.16
  -4   4 -13    0.06    0.15
  -4   4 -13    0.29    0.24
   4  -4  13    0.19    0.15
   4  -4  13    0.44    0.26
  -5   4 -13    0.17    0.17
  -5   4 -13   -0.03    0.20
  -5   4 -13    0.11    0.17
  -5   4 -13    0.07    0.18
   5  -4  13    0.03    0.20
   5  -4  13    0.13    0.17
  -6   4 -13    0.19    0.25
   6  -4  13   -0.08    0.18
   6  -4  13   -0.08    0.24
   7   3 -13    0.13    0.23
   6   3 -13    0.74    0.27
   6   3 -13    0.34    0.20
   5   3 -13    1.49    0.41
   5   3 -13    1.09    0.28
   5   3 -13    0.48    0.23
  -5  -3  13    0.77    0.21
   4   3 -13   53.41    1.76
   4   3 -13   54.20    1.61
   4   3 -13   56.44    1.86
  -4  -3  13   55.82    1.54
   3   3 -13    1.15    0.24
   3   3 -13    1.02    0.29
   3   3 -13    1.24    0.32
   3   3 -13    0.79    0.31
  -3  -3  13    1.00    0.22
   2   3 -13    0.10    0.18
   2   3 -13   -0.09    0.09
   2   3 -13   -0.09    0.15
   2   3 -13    0.17    0.16
  -2  -3  13    0.15    0.15
  -2  -3  13    0.18    0.13
  -2  -3  13    0.08    0.16
   1   3 -13    0.17    0.12
   1   3 -13   -0.03    0.16
   1   3 -13    0.16    0.13
   1   3 -13    0.04    0.13
  -1  -3  13   -0.09    0.12
  -1  -3  13    0.24    0.18
  -1  -3  13   -0.08    0.10
   0   3 -13    1.88    0.32
   0   3 -13    1.83    0.32
   0   3 -13    2.10    0.25
   0   3 -13    2.25    0.42
   0   3 -13    1.80    0.19
   0  -3  13    2.20    0.34
   0  -3  13    1.92    0.30
   0  -3  13    2.65    0.33
   0  -3  13    1.49    0.35
  -1   3 -13    0.58    0.16
  -1   3 -13    1.02    0.19
  -1   3 -13    0.51    0.19
   1  -3  13    0.69    0.20
   1  -3  13    0.64    0.14
   1  -3  13    0.89    0.21
   1  -3  13    0.53    0.25
  -2   3 -13    6.24    0.59
  -2   3 -13    6.95    0.41
  -2   3 -13    6.30    0.42
   2  -3  13    7.19    0.41
   2  -3  13    6.50    0.39
   2  -3  13    7.23    0.75
   2  -3  13    6.12    0.73
  -3   3 -13    0.03    0.12
  -3   3 -13   -0.05    0.16
  -3   3 -13   -0.03    0.11
  -3   3 -13    0.00    0.16
   3  -3  13    0.04    0.09
   3  -3  13   -0.21    0.16
   3  -3  13   -0.31    0.21
  -4   3 -13   45.93    1.36
  -4   3 -13   43.86    1.35
  -4   3 -13   43.62    1.59
  -4   3 -13   43.88    1.50
   4  -3  13   47.96    1.77
   4  -3  13   45.27    1.37
  -5   3 -13    0.52    0.21
  -5   3 -13    0.28    0.23
  -5   3 -13    0.10    0.18
  -5   3 -13    0.24    0.22
   5  -3  13    0.30    0.24
   5  -3  13    0.45    0.19
  -6   3 -13    0.02    0.24
  -6   3 -13    0.38    0.25
  -6   3 -13    0.12    0.20
   6  -3  13   -0.01    0.25
   6  -3  13    0.18    0.17
   7   2 -13    0.40    0.26
   7   2 -13    0.18    0.20
   6   2 -13   -0.20    0.23
   6   2 -13   -0.05    0.15
   6   2 -13   -0.06    0.16
  -6  -2  13    0.15    0.18
   5   2 -13    0.59    0.21
   5   2 -13    1.73    0.45
   5   2 -13    1.48    0.31
  -5  -2  13    2.33    0.31
   4   2 -13    2.73    0.40
   4   2 -13    2.17    0.42
   4   2 -13    2.39    0.35
   4   2 -13    2.19    0.48
  -4  -2  13    2.03    0.30
   3   2 -13   10.39    0.69
   3   2 -13   10.91    0.76
   3   2 -13    8.63    0.63
   3   2 -13    9.69    0.54
  -3  -2  13    8.76    0.51
  -3  -2  13    8.98    0.58
   2   2 -13    2.54    0.39
   2   2 -13    1.98    0.38
   2   2 -13    3.18    0.45
   2   2 -13    2.31    0.30
  -2  -2  13    1.30    0.26
  -2  -2  13    2.92    0.39
  -2  -2  13    2.55    0.33
  -2  -2  13    2.71    0.39
   1   2 -13    0.16    0.16
   1   2 -13    0.25    0.15
   1   2 -13    0.21    0.12
   1   2 -13    0.28    0.14
   1   2 -13    0.45    0.20
  -1  -2  13    0.11    0.13
  -1  -2  13    0.40    0.19
  -1  -2  13    0.03    0.12
  -1  -2  13    0.51    0.18
   0   2 -13   -0.08    0.11
   0   2 -13   -0.15    0.10
   0   2 -13   -0.04    0.14
   0   2 -13   -0.07    0.07
   0   2 -13   -0.03    0.07
   0  -2  13    0.21    0.16
   0  -2  13    0.04    0.12
   0  -2  13    0.04    0.13
   0  -2  13    0.21    0.14
  -1   2 -13    1.09    0.19
  -1   2 -13    1.08    0.20
  -1   2 -13    1.18    0.26
   1  -2  13    0.97    0.21
   1  -2  13    1.07    0.22
   1  -2  13    0.99    0.17
   1  -2  13    1.18    0.29
   1  -2  13    0.81    0.29
  -2   2 -13    0.12    0.15
  -2   2 -13    0.10    0.11
  -2   2 -13    0.00    0.13
  -2   2 -13    0.10    0.11
   2  -2  13    0.16    0.22
   2  -2  13    0.37    0.13
   2  -2  13    0.30    0.19
  -3   2 -13    0.03    0.14
  -3   2 -13    0.06    0.12
  -3   2 -13    0.08    0.12
  -3   2 -13   -0.07    0.14
   3  -2  13    0.33    0.23
   3  -2  13    0.05    0.10
   3  -2  13    0.47    0.25
  -4   2 -13    0.91    0.27
  -4   2 -13    1.08    0.24
  -4   2 -13    0.90    0.26
  -4   2 -13    0.21    0.16
   4  -2  13    0.86    0.32
   4  -2  13    0.73    0.20
  -5   2 -13   50.14    1.64
  -5   2 -13   47.53    1.44
  -5   2 -13   47.48    1.44
  -5   2 -13   47.43    1.73
   5  -2  13   47.65    1.83
   5  -2  13   47.35    1.50
  -6   2 -13   -0.15    0.21
  -6   2 -13    0.00    0.22
  -6   2 -13    0.15    0.20
   6  -2  13   -0.01    0.24
   6  -2  13   -0.04    0.16
   7   1 -13   -0.23    0.17
   7   1 -13   -0.15    0.31
   7   1 -13   -0.15    0.19
  -7  -1  13    0.02    0.18
   6   1 -13    0.05    0.15
   6   1 -13    0.17    0.28
   6   1 -13    0.10    0.15
  -6  -1  13    0.02    0.13
  -6  -1  13   -0.09    0.14
   5   1 -13    0.24    0.26
   5   1 -13    0.39    0.21
   5   1 -13    0.50    0.22
  -5  -1  13    0.61    0.23
  -5  -1  13    0.45    0.17
   4   1 -13    1.05    0.35
   4   1 -13    1.37    0.37
   4   1 -13    0.95    0.25
   4   1 -13    1.08    0.29
  -4  -1  13    1.11    0.23
  -4  -1  13    0.89    0.24
  -4  -1  13    1.06    0.22
   3   1 -13   -0.01    0.14
   3   1 -13    0.33    0.20
   3   1 -13    0.23    0.16
   3   1 -13    0.09    0.12
   3   1 -13    0.23    0.19
  -3  -1  13    0.14    0.15
  -3  -1  13   -0.06    0.11
  -3  -1  13    0.02    0.13
   2   1 -13   70.33    2.17
   2   1 -13   67.69    1.98
   2   1 -13   68.29    1.91
   2   1 -13   70.43    2.07
   2   1 -13   69.10    1.71
  -2  -1  13   65.78    1.89
  -2  -1  13   67.12    1.78
  -2  -1  13   71.79    1.80
   1   1 -13    3.76    0.35
   1   1 -13    4.80    0.56
   1   1 -13    4.45    0.46
   1   1 -13    3.60    0.45
   1   1 -13    4.18    0.50
  -1  -1  13    4.50    0.45
  -1  -1  13    4.76    0.49
  -1  -1  13    3.59    0.40
  -1  -1  13    4.23    0.50
   0   1 -13    0.49    0.24
   0   1 -13    0.07    0.08
   0   1 -13    0.28    0.10
   0   1 -13    0.26    0.14
   0   1 -13    0.10    0.14
   0  -1  13    0.22    0.16
   0  -1  13    0.12    0.13
   0  -1  13    0.13    0.17
   0  -1  13    0.36    0.16
  -1   1 -13    0.41    0.18
  -1   1 -13    0.45    0.14
  -1   1 -13    0.36    0.13
   1  -1  13    0.44    0.21
   1  -1  13    0.70    0.18
   1  -1  13    0.04    0.15
   1  -1  13    0.35    0.12
  -2   1 -13    3.50    0.34
  -2   1 -13    3.52    0.44
  -2   1 -13    2.60    0.31
  -2   1 -13    3.38    0.42
   2  -1  13    2.93    0.30
   2  -1  13    3.76    0.55
   2  -1  13    2.91    0.50
  -3   1 -13    1.47    0.30
  -3   1 -13    1.73    0.26
  -3   1 -13    2.88    0.45
  -3   1 -13    1.21    0.23
   3  -1  13    1.81    0.42
   3  -1  13    1.58    0.37
   3  -1  13    2.01    0.27
  -4   1 -13    2.88    0.35
  -4   1 -13    3.11    0.47
  -4   1 -13    2.64    0.40
  -4   1 -13    2.95    0.34
   4  -1  13    2.85    0.35
   4  -1  13    3.52    0.57
  -5   1 -13    0.03    0.15
  -5   1 -13   -0.01    0.15
  -5   1 -13    0.30    0.20
  -5   1 -13   -0.27    0.15
   5  -1  13    0.19    0.25
   5  -1  13   -0.02    0.14
  -6   1 -13   -0.26    0.15
  -6   1 -13    0.14    0.24
  -6   1 -13   -0.27    0.18
   6  -1  13   -0.13    0.12
   6  -1  13    0.16    0.26
   7   0 -13    0.15    0.20
   7   0 -13   -0.02    0.29
   7   0 -13   -0.08    0.20
  -7   0  13    0.21    0.24
   6   0 -13    0.35    0.23
   6   0 -13    1.01    0.29
   6   0 -13    0.30    0.26
  -6   0  13    0.53    0.25
  -6   0  13    0.42    0.17
   5   0 -13    1.72    0.33
   5   0 -13    1.32    0.41
  -5   0  13    2.05    0.30
  -5   0  13    2.03    0.36
   4   0 -13    2.89    0.45
   4   0 -13    2.09    0.43
   4   0 -13    2.23    0.45
   4   0 -13    1.31    0.26
  -4   0  13    1.52    0.30
  -4   0  13    1.44    0.29
  -4   0  13    2.09    0.31
   3   0 -13    0.17    0.13
   3   0 -13    0.15    0.18
   3   0 -13    0.37    0.21
   3   0 -13    0.15    0.17
   3   0 -13   -0.14    0.16
  -3   0  13    0.56    0.20
  -3   0  13    0.38    0.17
  -3   0  13    0.36    0.16
   2   0 -13    0.24    0.23
   2   0 -13    0.62    0.22
   2   0 -13    0.53    0.17
   2   0 -13    0.38    0.20
   2   0 -13    0.45    0.23
  -2   0  13    0.36    0.16
  -2   0  13    0.69    0.20
  -2   0  13    0.19    0.15
   1   0 -13   42.22    1.42
   1   0 -13   45.66    1.61
   1   0 -13   43.19    1.45
   1   0 -13   43.29    1.58
   1   0 -13   44.32    1.19
  -1   0  13   42.36    1.30
  -1   0  13   45.09    1.29
  -1   0  13   43.66    1.45
   0   0 -13    1.73    0.39
   0   0 -13    1.31    0.26
   0   0 -13    1.21    0.21
   0   0 -13    1.70    0.35
   0   0 -13    1.08    0.18
   0   0  13    1.40    0.25
   0   0  13    1.23    0.23
   0   0  13    1.78    0.33
  -1   0 -13   -0.08    0.08
  -1   0 -13    0.10    0.13
  -1   0 -13   -0.04    0.09
   1   0  13    0.33    0.22
   1   0  13   -0.06    0.10
   1   0  13    0.02    0.15
   1   0  13    0.02    0.08
  -2   0 -13    0.07    0.15
  -2   0 -13    0.06    0.11
  -2   0 -13   -0.02    0.10
  -2   0 -13   -0.14    0.12
   2   0  13    0.44    0.23
   2   0  13    0.18    0.11
  -3   0 -13    0.02    0.11
  -3   0 -13   -0.05    0.08
  -3   0 -13   -0.14    0.12
  -3   0 -13    0.08    0.12
   3   0  13   -0.06    0.20
   3   0  13    0.05    0.10
  -4   0 -13    0.05    0.13
  -4   0 -13    0.12    0.18
  -4   0 -13    0.08    0.15
  -4   0 -13    0.00    0.12
   4   0  13    0.20    0.22
   4   0  13    0.06    0.13
  -5   0 -13    0.26    0.23
  -5   0 -13   -0.03    0.16
  -5   0 -13    0.04    0.13
   5   0  13   -0.14    0.11
   5   0  13   -0.06    0.22
  -6   0 -13    0.44    0.22
  -6   0 -13    0.54    0.28
   6   0  13    0.53    0.31
   6   0  13    0.76    0.27
   7  -1 -13    0.80    0.31
   7  -1 -13    0.94    0.43
   6  -1 -13    0.21    0.22
   6  -1 -13    0.32    0.30
   6  -1 -13    0.21    0.26
   6  -1 -13    0.12    0.18
  -6   1  13   -0.02    0.15
  -6   1  13    0.06    0.20
   5  -1 -13    0.07    0.19
   5  -1 -13    0.53    0.35
   5  -1 -13    0.08    0.18
   5  -1 -13    0.09    0.23
  -5   1  13    0.06    0.17
  -5   1  13   -0.07    0.13
  -5   1  13    0.05    0.16
   4  -1 -13    0.60    0.27
   4  -1 -13    0.56    0.27
   4  -1 -13    0.76    0.23
   4  -1 -13    0.67    0.23
  -4   1  13    0.96    0.25
  -4   1  13    0.47    0.18
  -4   1  13    0.70    0.25
   3  -1 -13    3.87    0.67
   3  -1 -13    3.47    0.51
   3  -1 -13    3.82    0.54
   3  -1 -13    3.44    0.50
  -3   1  13    3.65    0.49
  -3   1  13    3.89    0.43
  -3   1  13    3.61    0.41
   2  -1 -13    0.00    0.13
   2  -1 -13   -0.06    0.15
   2  -1 -13    0.01    0.16
   2  -1 -13   -0.09    0.13
  -2   1  13   -0.06    0.11
  -2   1  13   -0.03    0.11
  -2   1  13   -0.05    0.13
   1  -1 -13    3.87    0.53
   1  -1 -13    4.73    0.53
   1  -1 -13    5.84    0.64
   1  -1 -13    5.63    0.58
   1  -1 -13    4.79    0.29
  -1   1  13    3.70    0.47
  -1   1  13    3.56    0.39
  -1   1  13    5.40    0.42
   0  -1 -13    0.82    0.24
   0  -1 -13    0.74    0.25
   0  -1 -13    0.57    0.15
   0  -1 -13    0.70    0.17
   0   1  13    0.85    0.21
   0   1  13    0.90    0.21
  -1  -1 -13    2.25    0.37
  -1  -1 -13    2.02    0.27
  -1  -1 -13    2.47    0.42
  -1  -1 -13    1.93    0.26
   1   1  13    2.03    0.24
   1   1  13    2.49    0.48
   1   1  13    2.39    0.27
  -2  -1 -13    0.31    0.14
  -2  -1 -13    0.16    0.11
  -2  -1 -13    0.08    0.13
  -2  -1 -13    0.27    0.13
  -2  -1 -13    0.15    0.18
   2   1  13    0.10    0.20
   2   1  13    0.09    0.10
  -3  -1 -13    1.10    0.30
  -3  -1 -13    0.40    0.20
  -3  -1 -13    0.36    0.15
  -3  -1 -13    0.72    0.18
  -3  -1 -13    0.32    0.14
   3   1  13    0.10    0.22
   3   1  13    0.86    0.19
  -4  -1 -13    0.17    0.21
  -4  -1 -13   -0.06    0.16
  -4  -1 -13    0.22    0.14
  -4  -1 -13    0.07    0.12
  -4  -1 -13    0.04    0.13
   4   1  13    0.28    0.16
   4   1  13    0.02    0.20
  -5  -1 -13    0.78    0.28
  -5  -1 -13    0.50    0.20
  -5  -1 -13    0.70    0.21
  -5  -1 -13    1.04    0.29
   5   1  13    0.45    0.31
   5   1  13    0.64    0.23
  -6  -1 -13    0.21    0.19
  -6  -1 -13    0.20    0.27
   6   1  13    0.19    0.18
   7  -2 -13    3.51    0.57
   6  -2 -13   16.87    1.19
   6  -2 -13   12.01    0.88
   6  -2 -13   15.18    1.16
  -6   2  13   16.21    0.92
  -6   2  13   13.92    0.78
   5  -2 -13    0.01    0.19
   5  -2 -13   -0.18    0.21
   5  -2 -13    0.10    0.26
  -5   2  13   -0.05    0.13
  -5   2  13    0.03    0.18
  -5   2  13    0.20    0.18
   4  -2 -13    1.85    0.44
   4  -2 -13    3.06    0.55
  -4   2  13    3.15    0.48
  -4   2  13    2.46    0.36
  -4   2  13    2.58    0.37
   3  -2 -13    0.08    0.22
   3  -2 -13    0.18    0.21
   3  -2 -13    0.00    0.16
  -3   2  13   -0.05    0.15
  -3   2  13   -0.02    0.14
  -3   2  13    0.06    0.14
   2  -2 -13    0.34    0.22
   2  -2 -13    0.12    0.19
   2  -2 -13    0.23    0.21
  -2   2  13    0.19    0.15
  -2   2  13    0.55    0.25
  -2   2  13    0.07    0.14
   1  -2 -13    0.20    0.16
   1  -2 -13   -0.01    0.14
   1  -2 -13    0.06    0.19
   1  -2 -13    0.03    0.10
  -1   2  13    0.17    0.15
  -1   2  13    0.20    0.15
   0  -2 -13    4.01    0.50
   0  -2 -13    4.29    0.51
   0  -2 -13    3.91    0.42
   0  -2 -13    4.50    0.34
   0   2  13    4.99    0.44
  -1  -2 -13    0.01    0.11
  -1  -2 -13    0.18    0.16
  -1  -2 -13   -0.02    0.10
   1   2  13    0.00    0.19
   1   2  13    0.05    0.09
  -2  -2 -13    0.05    0.11
  -2  -2 -13    0.06    0.15
  -2  -2 -13    0.17    0.11
  -2  -2 -13    0.05    0.13
  -2  -2 -13    0.23    0.17
   2   2  13    0.12    0.11
   2   2  13    0.08    0.22
  -3  -2 -13   -0.13    0.11
  -3  -2 -13    0.05    0.19
  -3  -2 -13    0.03    0.13
  -3  -2 -13    0.16    0.16
  -3  -2 -13    0.35    0.15
   3   2  13    0.37    0.25
   3   2  13    0.19    0.12
  -4  -2 -13   -0.09    0.12
  -4  -2 -13    0.06    0.14
  -4  -2 -13    0.03    0.19
  -4  -2 -13   -0.07    0.18
   4   2  13   -0.03    0.23
   4   2  13    0.05    0.14
  -5  -2 -13    0.06    0.16
  -5  -2 -13    0.22    0.23
  -5  -2 -13   -0.01    0.21
  -5  -2 -13   -0.01    0.16
   5   2  13    0.03    0.16
   5   2  13   -0.20    0.22
   6  -3 -13    0.00    0.24
   6  -3 -13   -0.01    0.31
  -6   3  13    0.27    0.22
  -6   3  13    0.14    0.25
   5  -3 -13    4.07    0.71
   5  -3 -13    4.34    0.63
   5  -3 -13    6.98    0.94
  -5   3  13    4.00    0.49
  -5   3  13    5.00    0.54
  -5   3  13    3.67    0.56
   4  -3 -13   -0.13    0.20
   4  -3 -13   -0.18    0.21
   4  -3 -13    0.30    0.27
  -4   3  13   -0.05    0.16
  -4   3  13   -0.09    0.14
  -4   3  13   -0.11    0.20
   3  -3 -13    2.61    0.48
   3  -3 -13    2.34    0.49
   3  -3 -13    1.20    0.38
  -3   3  13    1.83    0.41
  -3   3  13    2.03    0.32
  -3   3  13    2.28    0.36
   2  -3 -13    0.05    0.19
   2  -3 -13    0.14    0.19
   2  -3 -13    0.16    0.26
  -2   3  13    0.23    0.17
  -2   3  13    0.10    0.15
   1  -3 -13    0.30    0.13
   1  -3 -13    0.22    0.19
   1  -3 -13    0.39    0.21
  -1   3  13   -0.03    0.12
  -1   3  13    0.34    0.17
   0  -3 -13    0.32    0.15
   0  -3 -13    0.28    0.19
   0  -3 -13    0.75    0.27
   0   3  13    0.33    0.15
  -1  -3 -13    0.50    0.18
  -1  -3 -13    0.37    0.16
  -1  -3 -13    1.03    0.29
  -2  -3 -13    0.12    0.14
  -2  -3 -13   -0.12    0.10
  -2  -3 -13   -0.11    0.13
  -2  -3 -13    0.06    0.12
   2   3  13   -0.25    0.21
  -3  -3 -13    1.29    0.30
  -3  -3 -13    0.95    0.23
  -3  -3 -13    1.43    0.29
  -3  -3 -13    1.47    0.28
  -3  -3 -13    1.81    0.39
   3   3  13    1.79    0.29
   3   3  13    0.84    0.37
  -4  -3 -13    0.03    0.15
  -4  -3 -13    0.39    0.27
  -4  -3 -13    0.02    0.16
   4   3  13   -0.20    0.13
   4   3  13   -0.08    0.24
  -5  -3 -13    0.16    0.20
   5   3  13    0.20    0.20
   6  -4 -13    1.82    0.48
  -6   4  13    2.13    0.40
  -6   4  13    3.11    0.57
   5  -4 -13    0.96    0.42
   5  -4 -13    0.65    0.38
  -5   4  13    0.53    0.31
  -5   4  13    0.48    0.24
   4  -4 -13   -0.35    0.23
   4  -4 -13   -0.06    0.20
  -4   4  13    0.17    0.17
  -4   4  13   -0.19    0.24
  -4   4  13    0.10    0.17
   3  -4 -13   -0.40    0.21
   3  -4 -13    0.14    0.24
   3  -4 -13   -0.03    0.27
  -3   4  13    0.27    0.18
  -3   4  13    0.18    0.17
   2  -4 -13    0.08    0.21
   2  -4 -13    0.36    0.24
  -2   4  13    0.24    0.19
  -2   4  13    0.47    0.19
   1  -4 -13    0.10    0.24
   1  -4 -13    0.22    0.15
   1  -4 -13    0.34    0.22
  -1   4  13    0.26    0.16
   0  -4 -13    0.07    0.19
   0  -4 -13   -0.06    0.18
   0  -4 -13   -0.13    0.12
  -1  -4 -13   -0.05    0.15
  -1  -4 -13    0.34    0.25
  -1  -4 -13    0.45    0.25
  -1  -4 -13    0.26    0.17
  -2  -4 -13    0.63    0.23
  -2  -4 -13    0.48    0.19
  -2  -4 -13    0.25    0.16
   2   4  13    0.36    0.30
   2   4  13    0.25    0.28
  -3  -4 -13    3.18    0.41
   3   4  13    2.25    0.53
   3   4  13    3.75    0.67
  -4  -4 -13    1.23    0.31
  -4  -4 -13    1.58    0.41
   4   4  13    0.99    0.45
   4   4  13    1.96    0.49
   5  -5 -13    0.27    0.33
   5  -5 -13   -0.24    0.28
  -5   5  13    0.05    0.28
   4  -5 -13   -0.06    0.29
   4  -5 -13    0.23    0.35
  -4   5  13    0.35    0.22
   3  -5 -13    3.37    0.61
  -3   5  13    4.36    0.53
  -3   5  13    3.69    0.48
   2  -5 -13    0.13    0.23
  -2   5  13    0.16    0.19
   1  -5 -13    0.19    0.24
  -1   5  13    0.30    0.20
   0  -5 -13    0.36    0.19
  -1  -5 -13   -0.04    0.16
  -2  -5 -13    0.08    0.16
  -3  -5 -13    0.02    0.19
   3   5  13    0.02    0.29
   5  -6 -13   -0.04    0.39
   4  -6 -13    0.83    0.42
   3  -6 -13    0.63    0.36
  -2   6  13   -0.16    0.19
   0  -6 -13    0.13    0.21
   3   8 -14    0.11    0.20
   2   8 -14    0.15    0.32
   2   8 -14   -0.07    0.17
   1   8 -14    3.21    0.62
   0  -8  14    1.30    0.35
   1  -8  14    0.38    0.26
   2  -8  14    0.04    0.19
   3  -8  14    0.17    0.20
   4  -8  14   -0.15    0.17
   4   7 -14   -0.03    0.17
   3   7 -14    0.14    0.27
   3   7 -14    0.00    0.18
  -3  -7  14    0.34    0.25
   2   7 -14   -0.06    0.27
   2   7 -14    0.03    0.15
   1   7 -14   -0.10    0.24
   1   7 -14    0.10    0.16
  -1  -7  14   -0.01    0.21
   0  -7  14   12.96    0.79
   1  -7  14    8.44    0.65
   2  -7  14    0.04    0.15
  -3   7 -14    0.16    0.23
  -3   7 -14    0.20    0.17
   3  -7  14    0.20    0.20
  -4   7 -14    0.27    0.22
   4  -7  14    0.19    0.17
   5  -7  14    0.06    0.20
   5   6 -14    0.86    0.31
   4   6 -14   -0.04    0.16
   4   6 -14    0.28    0.23
   3   6 -14   -0.05    0.22
   3   6 -14    0.17    0.18
  -3  -6  14    0.50    0.24
   2   6 -14    0.61    0.30
   2   6 -14    0.64    0.25
  -2  -6  14    0.45    0.23
   1   6 -14    0.06    0.12
   1   6 -14   -0.10    0.22
  -1  -6  14    0.06    0.19
  -1  -6  14    0.17    0.23
   0   6 -14    0.70    0.19
   0   6 -14    0.78    0.34
   0  -6  14    0.63    0.24
   0  -6  14    0.52    0.23
  -1   6 -14    6.86    0.64
   1  -6  14    7.66    0.57
  -2   6 -14   -0.07    0.12
  -2   6 -14    0.30    0.21
   2  -6  14   -0.01    0.18
   2  -6  14    0.10    0.15
  -3   6 -14    0.33    0.22
  -3   6 -14    0.56    0.20
   3  -6  14    0.22    0.17
  -4   6 -14   -0.03    0.16
  -4   6 -14    0.23    0.23
  -4   6 -14    0.28    0.20
   4  -6  14   -0.09    0.15
   5  -6  14    0.15    0.19
   6   5 -14    1.69    0.41
   5   5 -14   17.51    0.96
   5   5 -14   17.03    0.93
   4   5 -14    0.34    0.24
   4   5 -14   -0.03    0.16
  -4  -5  14    0.45    0.24
   3   5 -14    0.08    0.20
   3   5 -14   -0.13    0.14
  -3  -5  14   -0.02    0.15
  -3  -5  14    0.10    0.24
  -3  -5  14    0.17    0.19
   2   5 -14    0.05    0.13
   2   5 -14    0.16    0.22
  -2  -5  14   -0.05    0.16
  -2  -5  14   -0.18    0.20
   1   5 -14    0.59    0.18
   1   5 -14    0.34    0.19
   1   5 -14    0.21    0.25
  -1  -5  14    0.41    0.25
  -1  -5  14    0.14    0.18
  -1  -5  14    0.35    0.20
   0   5 -14   -0.08    0.09
   0   5 -14   -0.01    0.14
   0   5 -14    0.17    0.19
   0  -5  14    0.29    0.23
   0  -5  14    0.05    0.16
   0  -5  14    0.23    0.17
  -1   5 -14    2.17    0.38
   1  -5  14    2.22    0.35
   1  -5  14    2.26    0.47
  -2   5 -14    0.58    0.26
  -2   5 -14    0.84    0.20
   2  -5  14    0.67    0.20
   2  -5  14    0.28    0.19
  -3   5 -14   19.63    0.84
  -3   5 -14   20.08    1.01
  -3   5 -14   19.23    0.79
   3  -5  14   19.81    0.84
  -4   5 -14    0.05    0.15
  -4   5 -14    0.34    0.19
  -4   5 -14    0.07    0.17
   4  -5  14    0.16    0.18
  -5   5 -14    0.29    0.26
   5  -5  14    0.72    0.23
   5  -5  14    0.11    0.31
   6  -5  14    0.04    0.19
   6  -5  14    0.19    0.32
   6   4 -14    0.17    0.21
   6   4 -14    0.16    0.19
   5   4 -14    1.20    0.31
   5   4 -14    1.30    0.32
  -5  -4  14    1.18    0.29
   4   4 -14    1.46    0.30
   4   4 -14    1.12    0.32
  -4  -4  14    1.81    0.30
   3   4 -14    2.04    0.32
   3   4 -14    2.51    0.44
   3   4 -14    1.72    0.39
  -3  -4  14    1.11    0.26
   2   4 -14    0.45    0.26
   2   4 -14    0.15    0.14
   2   4 -14    0.36    0.19
  -2  -4  14    0.03    0.17
  -2  -4  14    0.06    0.15
  -2  -4  14   -0.04    0.16
   1   4 -14    0.91    0.21
   1   4 -14    0.92    0.33
   1   4 -14    0.88    0.24
  -1  -4  14    0.81    0.22
  -1  -4  14    1.33    0.34
  -1  -4  14    0.80    0.23
   0   4 -14    0.18    0.15
   0   4 -14    0.39    0.20
   0   4 -14    0.14    0.10
   0   4 -14    0.29    0.23
   0  -4  14    0.34    0.19
   0  -4  14    0.36    0.18
   0  -4  14    0.10    0.18
  -1   4 -14    1.80    0.34
  -1   4 -14    2.02    0.25
   1  -4  14    2.34    0.35
   1  -4  14    1.64    0.41
   1  -4  14    1.97    0.32
  -2   4 -14    0.05    0.12
  -2   4 -14    0.21    0.17
  -2   4 -14    0.02    0.13
   2  -4  14   -0.08    0.16
   2  -4  14    0.14    0.14
   2  -4  14    0.03    0.11
  -3   4 -14    0.53    0.17
  -3   4 -14    0.46    0.18
  -3   4 -14    0.66    0.25
   3  -4  14    0.71    0.20
  -4   4 -14    2.14    0.40
  -4   4 -14    0.78    0.23
  -4   4 -14    1.61    0.30
   4  -4  14    1.56    0.41
   4  -4  14    1.81    0.30
  -5   4 -14    1.57    0.42
  -5   4 -14    1.44    0.30
  -5   4 -14    2.29    0.44
   5  -4  14    1.50    0.42
   5  -4  14    1.51    0.32
  -6   4 -14    0.20    0.26
   6  -4  14    0.19    0.19
   6  -4  14    0.08    0.26
   7   3 -14   -0.17    0.19
   6   3 -14    0.09    0.17
   6   3 -14    0.06    0.17
  -6  -3  14    0.41    0.22
   5   3 -14    1.97    0.38
   5   3 -14    1.39    0.33
   5   3 -14    1.42    0.44
  -5  -3  14    1.62    0.31
   4   3 -14    0.42    0.25
   4   3 -14    0.54    0.23
   4   3 -14    0.86    0.27
  -4  -3  14    0.61    0.19
   3   3 -14    5.45    0.61
   3   3 -14    4.78    0.56
   3   3 -14    5.76    0.52
  -3  -3  14    4.84    0.48
   2   3 -14    1.93    0.30
   2   3 -14    1.97    0.42
   2   3 -14    2.55    0.40
   2   3 -14    2.29    0.42
  -2  -3  14    2.74    0.38
  -2  -3  14    2.76    0.42
   1   3 -14    0.30    0.18
   1   3 -14    0.10    0.21
   1   3 -14    0.33    0.12
   1   3 -14    0.18    0.17
  -1  -3  14    0.47    0.19
  -1  -3  14    0.22    0.19
  -1  -3  14    0.19    0.16
  -1  -3  14    0.06    0.16
   0   3 -14    0.85    0.18
   0   3 -14    0.85    0.25
   0   3 -14    1.44    0.30
   0   3 -14    0.80    0.28
   0  -3  14    0.42    0.21
   0  -3  14    0.69    0.22
   0  -3  14    0.70    0.27
   0  -3  14    0.71    0.22
  -1   3 -14    0.26    0.17
  -1   3 -14    0.13    0.12
   1  -3  14    0.34    0.17
   1  -3  14    0.35    0.22
  -2   3 -14    2.87    0.41
  -2   3 -14    3.08    0.34
  -2   3 -14    2.83    0.33
   2  -3  14    3.52    0.57
   2  -3  14    3.22    0.33
  -3   3 -14   -0.06    0.12
  -3   3 -14    0.07    0.11
  -3   3 -14   -0.06    0.16
   3  -3  14   -0.15    0.18
   3  -3  14   -0.03    0.10
  -4   3 -14    1.55    0.29
  -4   3 -14    0.56    0.28
  -4   3 -14    1.67    0.30
  -4   3 -14    1.18    0.34
   4  -3  14    1.43    0.27
   4  -3  14    1.13    0.36
  -5   3 -14    2.60    0.38
  -5   3 -14    3.11    0.50
  -5   3 -14    2.93    0.49
   5  -3  14    2.61    0.51
   5  -3  14    3.25    0.43
  -6   3 -14   -0.09    0.22
   6  -3  14    0.37    0.23
   6  -3  14    0.18    0.26
   7   2 -14    0.32    0.22
   6   2 -14    0.00    0.18
   6   2 -14    0.44    0.30
   6   2 -14   -0.07    0.19
  -6  -2  14    0.21    0.22
  -6  -2  14    0.00    0.15
   5   2 -14    2.01    0.48
   5   2 -14    0.85    0.27
   5   2 -14    1.38    0.32
  -5  -2  14    1.20    0.26
  -5  -2  14    1.49    0.34
   4   2 -14    1.20    0.30
   4   2 -14    1.47    0.42
   4   2 -14    1.74    0.31
   4   2 -14    1.81    0.41
  -4  -2  14    1.27    0.29
  -4  -2  14    2.06    0.31
   3   2 -14    0.12    0.16
   3   2 -14    0.17    0.17
   3   2 -14    0.13    0.18
   3   2 -14    0.19    0.15
  -3  -2  14   -0.05    0.13
  -3  -2  14   -0.03    0.16
  -3  -2  14    0.10    0.14
   2   2 -14    0.62    0.18
   2   2 -14    0.30    0.20
   2   2 -14    0.46    0.20
   2   2 -14    0.73    0.26
  -2  -2  14    0.75    0.22
  -2  -2  14    0.90    0.23
  -2  -2  14    0.85    0.26
   1   2 -14   16.98    0.77
   1   2 -14   17.43    0.98
   1   2 -14   17.71    0.85
   1   2 -14   17.70    0.68
   1   2 -14   17.98    0.92
  -1  -2  14   16.69    0.76
  -1  -2  14   15.88    0.83
  -1  -2  14   16.06    0.76
  -1  -2  14   16.79    0.86
   0   2 -14    0.13    0.14
   0   2 -14   -0.05    0.21
   0   2 -14   -0.01    0.08
   0   2 -14   -0.04    0.09
   0   2 -14    0.07    0.16
   0  -2  14   -0.09    0.13
   0  -2  14   -0.01    0.13
   0  -2  14    0.11    0.16
  -1   2 -14    0.70    0.17
  -1   2 -14    0.91    0.19
  -1   2 -14    0.67    0.22
   1  -2  14    0.45    0.27
   1  -2  14    0.63    0.18
  -2   2 -14   -0.01    0.10
  -2   2 -14   -0.02    0.13
  -2   2 -14   -0.10    0.09
   2  -2  14   -0.01    0.09
   2  -2  14   -0.05    0.19
   2  -2  14    0.05    0.19
  -3   2 -14    0.11    0.17
  -3   2 -14    0.28    0.21
  -3   2 -14    0.20    0.15
  -3   2 -14    0.14    0.13
   3  -2  14    0.60    0.26
   3  -2  14    0.13    0.12
  -4   2 -14    0.37    0.24
  -4   2 -14    0.25    0.15
  -4   2 -14    0.90    0.27
  -4   2 -14    0.53    0.19
   4  -2  14    0.43    0.19
   4  -2  14    0.23    0.25
  -5   2 -14   -0.09    0.14
  -5   2 -14    0.40    0.24
  -5   2 -14    0.27    0.24
   5  -2  14    0.06    0.27
   5  -2  14   -0.04    0.15
  -6   2 -14    2.70    0.51
   6  -2  14    2.55    0.43
   6  -2  14    3.14    0.59
   7   1 -14   -0.13    0.19
   7   1 -14   -0.14    0.33
   6   1 -14    0.13    0.28
   6   1 -14    0.39    0.21
   6   1 -14    0.07    0.17
  -6  -1  14    0.16    0.19
  -6  -1  14   -0.05    0.15
   5   1 -14    0.07    0.18
   5   1 -14    0.42    0.28
   5   1 -14    0.17    0.15
  -5  -1  14    0.09    0.17
  -5  -1  14    0.24    0.18
   4   1 -14    1.57    0.31
   4   1 -14    1.39    0.37
   4   1 -14    1.11    0.30
  -4  -1  14    0.67    0.21
  -4  -1  14    1.73    0.34
  -4  -1  14    1.73    0.30
   3   1 -14   -0.03    0.12
   3   1 -14   -0.18    0.14
   3   1 -14    0.19    0.20
   3   1 -14    0.04    0.19
  -3  -1  14    0.10    0.14
  -3  -1  14    0.10    0.16
  -3  -1  14    0.01    0.14
   2   1 -14    8.60    0.67
   2   1 -14    8.55    0.64
   2   1 -14    8.68    0.50
   2   1 -14    9.13    0.61
   2   1 -14    9.53    0.72
  -2  -1  14    9.04    0.62
  -2  -1  14    9.10    0.55
  -2  -1  14    9.01    0.56
   1   1 -14    0.17    0.15
   1   1 -14    0.34    0.18
   1   1 -14    0.39    0.13
   1   1 -14    0.12    0.18
   1   1 -14    0.37    0.21
  -1  -1  14    0.38    0.19
  -1  -1  14    0.29    0.16
  -1  -1  14    0.33    0.17
   0   1 -14    0.50    0.27
   0   1 -14    0.19    0.11
   0   1 -14    0.32    0.19
   0   1 -14    0.35    0.19
   0  -1  14    0.27    0.15
   0  -1  14    0.64    0.20
   0  -1  14    0.32    0.20
  -1   1 -14    0.12    0.12
  -1   1 -14    0.11    0.11
  -1   1 -14    0.07    0.14
   1  -1  14    0.05    0.13
   1  -1  14    0.30    0.21
  -2   1 -14    1.65    0.31
  -2   1 -14    1.25    0.24
  -2   1 -14    1.35    0.24
   2  -1  14    2.14    0.44
   2  -1  14    1.54    0.38
   2  -1  14    1.44    0.22
  -3   1 -14    0.98    0.28
  -3   1 -14    0.55    0.23
  -3   1 -14    0.56    0.17
  -3   1 -14    0.79    0.21
   3  -1  14    1.11    0.35
   3  -1  14    0.65    0.19
  -4   1 -14    1.56    0.26
  -4   1 -14    2.03    0.38
  -4   1 -14    1.49    0.33
  -4   1 -14    1.80    0.29
   4  -1  14    1.67    0.42
   4  -1  14    2.31    0.34
  -5   1 -14    0.05    0.15
  -5   1 -14    0.24    0.22
  -5   1 -14    0.17    0.22
   5  -1  14    0.14    0.16
   5  -1  14   -0.06    0.22
   6  -1  14    0.16    0.18
   7   0 -14   21.52    1.12
   6   0 -14    0.06    0.27
   6   0 -14    0.25    0.22
   6   0 -14   -0.01    0.21
  -6   0  14    0.02    0.16
  -6   0  14    0.25    0.22
   5   0 -14    1.01    0.32
   5   0 -14    1.47    0.42
   5   0 -14    1.49    0.32
  -5   0  14    1.84    0.31
  -5   0  14    0.54    0.24
   4   0 -14    1.01    0.35
   4   0 -14    1.27    0.27
   4   0 -14    0.89    0.29
   4   0 -14    0.76    0.29
  -4   0  14    0.71    0.22
  -4   0  14    1.21    0.27
  -4   0  14    0.49    0.23
   3   0 -14   -0.20    0.14
   3   0 -14    0.01    0.13
   3   0 -14   -0.01    0.16
   3   0 -14   -0.08    0.16
  -3   0  14    0.03    0.14
  -3   0  14    0.08    0.14
  -3   0  14    0.03    0.16
   2   0 -14    0.07    0.17
   2   0 -14   -0.10    0.17
   2   0 -14   -0.19    0.13
   2   0 -14    0.07    0.19
   2   0 -14    0.18    0.13
  -2   0  14   -0.03    0.12
  -2   0  14    0.21    0.19
  -2   0  14    0.07    0.12
   1   0 -14    2.72    0.31
   1   0 -14    3.01    0.43
   1   0 -14    2.02    0.41
   1   0 -14    2.84    0.47
   1   0 -14    2.57    0.39
  -1   0  14    2.26    0.31
  -1   0  14    2.43    0.39
  -1   0  14    2.84    0.36
   0   0 -14   16.12    0.95
   0   0 -14   18.58    0.66
   0   0 -14   19.41    0.91
   0   0  14   17.70    0.76
   0   0  14   19.27    0.90
   0   0  14   18.01    0.78
  -1   0 -14    1.19    0.29
  -1   0 -14    1.61    0.24
  -1   0 -14    1.74    0.26
   1   0  14    2.01    0.27
  -2   0 -14    0.19    0.14
  -2   0 -14    0.04    0.11
  -2   0 -14    0.11    0.15
   2   0  14    0.00    0.10
   2   0  14   -0.01    0.19
  -3   0 -14    0.22    0.18
  -3   0 -14    0.11    0.12
  -3   0 -14    0.10    0.17
  -3   0 -14   -0.04    0.10
   3   0  14   -0.10    0.10
   3   0  14   -0.09    0.17
  -4   0 -14    0.02    0.17
  -4   0 -14    0.10    0.12
  -4   0 -14    0.11    0.13
  -4   0 -14    0.06    0.20
   4   0  14    0.16    0.26
   4   0  14    0.08    0.13
  -5   0 -14    0.08    0.19
  -5   0 -14   -0.10    0.13
  -5   0 -14   -0.01    0.22
   5   0  14   -0.25    0.13
   5   0  14   -0.11    0.24
  -6   0 -14    0.36    0.21
   6   0  14    0.47    0.23
   6  -1 -14    0.64    0.36
   6  -1 -14   -0.30    0.17
  -6   1  14    0.13    0.22
   5  -1 -14   -0.03    0.20
   5  -1 -14    0.09    0.25
   5  -1 -14   -0.19    0.24
  -5   1  14   -0.07    0.16
  -5   1  14    0.14    0.19
  -5   1  14    0.08    0.18
   4  -1 -14    0.37    0.23
   4  -1 -14    0.32    0.27
   4  -1 -14    0.15    0.28
  -4   1  14    0.26    0.20
  -4   1  14    0.17    0.17
  -4   1  14    0.27    0.17
   3  -1 -14    2.80    0.46
   3  -1 -14    2.62    0.46
   3  -1 -14    2.36    0.46
  -3   1  14    1.85    0.30
  -3   1  14    2.51    0.36
  -3   1  14    2.29    0.40
   2  -1 -14    0.31    0.20
   2  -1 -14    0.10    0.17
   2  -1 -14   -0.21    0.17
  -2   1  14    0.17    0.19
  -2   1  14    0.15    0.15
  -2   1  14    0.23    0.16
   1  -1 -14    1.07    0.27
   1  -1 -14    0.85    0.30
   1  -1 -14    1.49    0.35
  -1   1  14    0.79    0.21
  -1   1  14    1.49    0.29
   0  -1 -14    0.41    0.14
   0  -1 -14    0.73    0.23
   0   1  14    0.49    0.18
  -1  -1 -14    3.88    0.40
  -1  -1 -14    3.53    0.36
  -1  -1 -14    3.88    0.48
  -2  -1 -14   -0.09    0.13
  -2  -1 -14    0.04    0.12
  -2  -1 -14    0.04    0.13
   2   1  14   -0.05    0.09
   2   1  14    0.02    0.22
  -3  -1 -14    0.11    0.13
  -3  -1 -14   -0.03    0.16
  -3  -1 -14   -0.03    0.10
  -3  -1 -14    0.05    0.19
  -3  -1 -14    0.04    0.14
   3   1  14   -0.06    0.21
   3   1  14    0.13    0.14
  -4  -1 -14    0.18    0.23
  -4  -1 -14    0.04    0.18
  -4  -1 -14    0.06    0.13
  -4  -1 -14    0.10    0.16
   4   1  14   -0.20    0.12
   4   1  14    0.10    0.26
  -5  -1 -14    0.73    0.24
  -5  -1 -14    0.01    0.26
  -5  -1 -14    0.45    0.25
   5   1  14    0.57    0.32
   5   1  14    0.31    0.21
   6  -2 -14    5.01    0.69
   6  -2 -14    6.97    0.96
  -6   2  14    5.24    0.67
   5  -2 -14    3.55    0.70
   5  -2 -14    0.97    0.35
   5  -2 -14    1.43    0.46
  -5   2  14    1.44    0.31
  -5   2  14    2.14    0.36
  -5   2  14    2.54    0.49
   4  -2 -14    0.57    0.32
   4  -2 -14    1.07    0.39
   4  -2 -14    0.18    0.25
  -4   2  14    0.52    0.20
  -4   2  14    0.66    0.28
  -4   2  14    0.60    0.23
   3  -2 -14   -0.11    0.20
   3  -2 -14   -0.01    0.21
   3  -2 -14    0.21    0.22
  -3   2  14   -0.04    0.15
  -3   2  14    0.06    0.20
  -3   2  14    0.03    0.15
   2  -2 -14    0.14    0.17
   2  -2 -14    0.17    0.21
   2  -2 -14    0.49    0.27
  -2   2  14   -0.03    0.13
  -2   2  14    0.01    0.13
  -2   2  14    0.09    0.19
   1  -2 -14    0.02    0.17
   1  -2 -14    0.13    0.20
  -1   2  14    0.22    0.16
  -1   2  14    0.09    0.14
   0  -2 -14    0.43    0.24
   0  -2 -14    0.13    0.18
   0  -2 -14    0.37    0.15
   0   2  14    0.13    0.14
  -1  -2 -14    0.01    0.12
  -1  -2 -14   -0.10    0.14
  -1  -2 -14   -0.02    0.14
  -2  -2 -14    0.24    0.16
  -2  -2 -14    0.21    0.15
  -2  -2 -14    0.16    0.18
   2   2  14    0.10    0.13
   2   2  14    0.38    0.27
  -3  -2 -14   -0.04    0.21
  -3  -2 -14    0.19    0.19
  -3  -2 -14    0.00    0.12
  -3  -2 -14   -0.11    0.12
  -3  -2 -14   -0.08    0.14
   3   2  14   -0.12    0.12
   3   2  14    0.55    0.30
  -4  -2 -14    0.17    0.19
  -4  -2 -14    0.16    0.17
  -4  -2 -14    0.25    0.25
  -4  -2 -14   -0.10    0.15
   4   2  14   -0.01    0.14
   4   2  14   -0.04    0.25
  -5  -2 -14   -0.22    0.16
   5   2  14    0.08    0.15
   6  -3 -14   -0.12    0.28
  -6   3  14    0.34    0.31
  -6   3  14    0.03    0.23
   5  -3 -14    1.26    0.42
   5  -3 -14    3.05    0.65
  -5   3  14    1.21    0.32
  -5   3  14    1.60    0.41
   4  -3 -14   -0.09    0.24
   4  -3 -14   -0.09    0.25
   4  -3 -14    0.11    0.27
  -4   3  14   -0.16    0.21
  -4   3  14    0.01    0.17
  -4   3  14    0.00    0.17
   3  -3 -14    0.04    0.26
   3  -3 -14    0.12    0.23
   3  -3 -14   -0.11    0.24
  -3   3  14    0.08    0.23
  -3   3  14    0.16    0.19
  -3   3  14    0.06    0.16
   2  -3 -14    0.29    0.22
   2  -3 -14   -0.06    0.21
  -2   3  14    0.07    0.18
  -2   3  14    0.22    0.18
   1  -3 -14    0.91    0.28
   1  -3 -14    0.42    0.25
  -1   3  14    0.56    0.21
   0  -3 -14    0.19    0.14
   0  -3 -14   -0.07    0.16
   0  -3 -14    0.13    0.20
  -1  -3 -14    0.59    0.25
  -1  -3 -14    0.57    0.21
  -1  -3 -14    0.71    0.23
  -2  -3 -14    0.05    0.15
  -2  -3 -14   -0.24    0.15
  -2  -3 -14   -0.19    0.15
   2   3  14    0.14    0.25
  -3  -3 -14    5.68    0.65
  -3  -3 -14    4.91    0.51
  -3  -3 -14    6.84    0.48
   3   3  14    7.04    0.92
   3   3  14    6.73    0.47
  -4  -3 -14    0.00    0.29
  -4  -3 -14    0.21    0.20
   4   3  14    0.24    0.34
   4   3  14    0.22    0.19
   5  -4 -14    0.08    0.32
   5  -4 -14    0.45    0.35
  -5   4  14    0.54    0.35
   4  -4 -14    0.32    0.32
   4  -4 -14    0.41    0.34
  -4   4  14    0.78    0.36
  -4   4  14    0.64    0.26
   3  -4 -14    3.56    0.64
  -3   4  14    4.34    0.50
  -3   4  14    4.22    0.52
   2  -4 -14    0.00    0.23
  -2   4  14   -0.15    0.14
   1  -4 -14    0.21    0.22
  -1   4  14    0.07    0.15
   0  -4 -14    0.07    0.15
   0  -4 -14    0.15    0.21
  -1  -4 -14    0.01    0.14
  -1  -4 -14    0.03    0.20
  -3  -4 -14    0.60    0.22
   3   4  14    0.12    0.31
   3   4  14    0.10    0.30
   5  -5 -14   -0.22    0.37
   4  -5 -14    0.06    0.33
   3  -5 -14    2.95    0.61
  -3   5  14    1.69    0.42
   2  -5 -14    0.57    0.34
  -2   5  14    0.61    0.26
   1  -5 -14    0.07    0.24
   0  -5 -14    0.32    0.21
   3  -6 -14    0.45    0.39
   2   8 -15    0.20    0.34
   2   8 -15   -0.14    0.19
   1   8 -15    0.60    0.23
   1   8 -15    1.06    0.45
   3   7 -15    0.14    0.28
   3   7 -15   -0.05    0.17
   2   7 -15    0.29    0.29
   2   7 -15    0.13    0.17
   1   7 -15    0.01    0.14
   1   7 -15   -0.19    0.25
  -1  -7  15    0.14    0.24
   0   7 -15    4.00    0.46
   0  -7  15    2.72    0.44
   0  -7  15    2.75    0.47
   1  -7  15    0.31    0.24
  -3   7 -15    1.19    0.35
  -3   7 -15    1.08    0.25
   3  -7  15    1.11    0.29
   4  -7  15    0.09    0.19
   4   6 -15    0.08    0.18
   4   6 -15    0.33    0.29
   3   6 -15    0.15    0.25
   3   6 -15    0.21    0.18
   2   6 -15    0.46    0.20
   2   6 -15    0.30    0.29
   1   6 -15   -0.14    0.12
   1   6 -15    0.31    0.27
  -1  -6  15    0.23    0.22
  -1  -6  15   -0.01    0.18
   0   6 -15    0.32    0.18
   0  -6  15    0.30    0.23
   0  -6  15    0.38    0.22
  -1   6 -15    1.87    0.36
   1  -6  15    2.01    0.37
  -2   6 -15    0.32    0.21
  -2   6 -15    0.05    0.15
  -3   6 -15   -0.03    0.18
  -3   6 -15    0.10    0.16
   3  -6  15    0.09    0.16
  -4   6 -15    0.08    0.24
   4  -6  15    0.07    0.18
   5  -6  15    0.43    0.24
   5   5 -15    0.20    0.18
   4   5 -15    2.63    0.49
   4   5 -15    2.87    0.43
   3   5 -15    5.33    0.70
   3   5 -15    6.03    0.59
   2   5 -15    0.16    0.15
   2   5 -15   -0.10    0.21
  -2  -5  15    0.20    0.18
  -2  -5  15    0.32    0.24
  -2  -5  15    0.25    0.20
   1   5 -15    0.10    0.13
   1   5 -15    0.37    0.19
   1   5 -15   -0.12    0.22
  -1  -5  15    0.25    0.25
  -1  -5  15   -0.10    0.19
  -1  -5  15    0.36    0.21
   0   5 -15   -0.03    0.11
   0   5 -15    0.19    0.16
   0   5 -15    0.34    0.28
   0  -5  15    0.19    0.20
   0  -5  15   -0.05    0.17
  -1   5 -15    1.09    0.28
   1  -5  15    1.08    0.27
  -2   5 -15    0.31    0.20
  -2   5 -15    0.80    0.20
  -3   5 -15    0.35    0.18
  -3   5 -15    0.20    0.21
   3  -5  15   -0.12    0.14
  -4   5 -15   11.72    0.84
  -4   5 -15   11.15    0.65
  -4   5 -15   11.37    0.68
   4  -5  15   11.75    0.69
   5  -5  15    1.31    0.45
   5  -5  15    1.89    0.37
   6   4 -15    0.11    0.21
   5   4 -15    1.39    0.33
   5   4 -15    1.39    0.34
   4   4 -15    0.29    0.25
   4   4 -15    0.34    0.18
  -4  -4  15    0.44    0.22
   3   4 -15    0.15    0.15
   3   4 -15    0.37    0.27
   3   4 -15    0.38    0.24
  -3  -4  15    0.09    0.18
  -3  -4  15    0.13    0.19
   2   4 -15    0.41    0.17
   2   4 -15    0.18    0.24
   2   4 -15    0.21    0.21
  -2  -4  15    0.45    0.21
  -2  -4  15    0.56    0.22
   1   4 -15    0.40    0.28
   1   4 -15    0.70    0.25
   1   4 -15    0.36    0.16
  -1  -4  15    0.35    0.19
  -1  -4  15    0.41    0.21
  -1  -4  15    0.91    0.34
   0   4 -15    0.11    0.13
   0   4 -15    0.07    0.19
   0   4 -15    0.10    0.25
   0   4 -15    0.09    0.14
   0  -4  15   -0.01    0.18
   0  -4  15    0.24    0.17
   0  -4  15    0.29    0.20
  -1   4 -15    0.89    0.27
  -1   4 -15    0.36    0.14
   1  -4  15    0.35    0.20
   1  -4  15    0.42    0.25
  -2   4 -15    0.15    0.17
  -2   4 -15    0.10    0.13
  -3   4 -15    0.47    0.24
  -3   4 -15    0.43    0.18
  -3   4 -15    0.08    0.15
   3  -4  15    0.48    0.18
  -4   4 -15   -0.05    0.18
  -4   4 -15    0.07    0.22
  -4   4 -15    0.09    0.16
   4  -4  15    0.05    0.26
   4  -4  15    0.07    0.16
   5  -4  15   33.22    1.59
   5  -4  15   30.25    1.19
   6   3 -15   -0.13    0.22
   5   3 -15    0.56    0.33
   5   3 -15    1.53    0.35
   5   3 -15    0.42    0.23
   4   3 -15    0.01    0.16
   4   3 -15   -0.12    0.23
   4   3 -15   -0.07    0.16
  -4  -3  15    0.05    0.20
  -4  -3  15   -0.07    0.15
   3   3 -15    1.71    0.38
   3   3 -15    1.32    0.29
   3   3 -15    0.71    0.31
  -3  -3  15    1.00    0.26
  -3  -3  15    1.54    0.35
  -3  -3  15    0.66    0.23
   2   3 -15   24.20    0.93
   2   3 -15   25.09    1.11
   2   3 -15   27.03    1.25
   2   3 -15   23.54    1.17
  -2  -3  15   26.28    1.04
  -2  -3  15   23.47    1.08
  -2  -3  15   25.52    1.01
   1   3 -15   11.94    0.77
   1   3 -15   11.02    0.56
   1   3 -15   10.72    0.81
   1   3 -15   11.70    0.72
  -1  -3  15   10.12    0.69
  -1  -3  15   10.69    0.76
  -1  -3  15   10.61    0.64
  -1  -3  15   11.92    0.65
   0   3 -15    0.00    0.21
   0   3 -15    0.14    0.17
   0   3 -15    0.07    0.18
   0  -3  15    0.09    0.22
   0  -3  15    0.14    0.16
   0  -3  15    0.18    0.17
  -1   3 -15    0.35    0.19
  -1   3 -15    0.14    0.13
   1  -3  15    0.07    0.15
   1  -3  15    0.24    0.25
  -2   3 -15    2.06    0.39
  -2   3 -15    1.55    0.27
  -2   3 -15    1.82    0.26
   2  -3  15    2.09    0.52
  -3   3 -15    0.10    0.15
  -3   3 -15    0.08    0.14
  -3   3 -15    0.06    0.18
   3  -3  15    0.28    0.15
  -4   3 -15    1.46    0.29
  -4   3 -15    1.99    0.44
  -4   3 -15    1.60    0.30
   4  -3  15    1.74    0.46
   4  -3  15    0.85    0.23
   5  -3  15   -0.15    0.15
   5  -3  15    0.44    0.31
   6   2 -15   -0.30    0.16
   6   2 -15   -0.02    0.29
   6   2 -15   -0.15    0.19
   5   2 -15    0.98    0.29
   5   2 -15    0.72    0.27
   5   2 -15    1.72    0.46
  -5  -2  15    1.19    0.28
  -5  -2  15    1.51    0.34
   4   2 -15    1.09    0.35
   4   2 -15    0.28    0.20
   4   2 -15    0.41    0.22
  -4  -2  15    0.47    0.22
  -4  -2  15    0.10    0.17
  -4  -2  15    0.13    0.19
   3   2 -15   -0.18    0.12
   3   2 -15   -0.02    0.18
   3   2 -15    0.16    0.19
  -3  -2  15    0.08    0.15
  -3  -2  15    0.26    0.19
  -3  -2  15   -0.11    0.14
   2   2 -15    0.09    0.17
   2   2 -15   -0.10    0.19
   2   2 -15    0.31    0.20
   2   2 -15    0.21    0.14
  -2  -2  15    0.14    0.16
  -2  -2  15    0.05    0.13
  -2  -2  15    0.19    0.19
   1   2 -15   44.73    1.69
   1   2 -15   45.75    1.26
   1   2 -15   43.97    1.54
   1   2 -15   43.89    1.64
  -1  -2  15   42.89    1.52
  -1  -2  15   45.61    1.41
  -1  -2  15   42.08    1.40
   0   2 -15    0.35    0.20
   0  -2  15    0.39    0.18
   0  -2  15    0.63    0.25
   0  -2  15    0.15    0.16
  -1   2 -15    0.24    0.17
  -1   2 -15    0.14    0.11
   1  -2  15    0.18    0.16
   1  -2  15   -0.19    0.19
  -2   2 -15    0.06    0.13
  -2   2 -15    0.02    0.16
  -2   2 -15    0.05    0.13
   2  -2  15   -0.01    0.20
  -3   2 -15    0.00    0.13
  -3   2 -15    0.19    0.19
  -3   2 -15    0.11    0.13
   3  -2  15   -0.03    0.10
   3  -2  15   -0.25    0.23
  -4   2 -15    0.17    0.15
  -4   2 -15    0.16    0.15
  -4   2 -15   -0.01    0.21
   4  -2  15    0.05    0.28
   4  -2  15    0.19    0.16
  -5   2 -15    0.23    0.28
  -5   2 -15   -0.18    0.22
   5  -2  15   -0.25    0.14
   5  -2  15    0.27    0.25
   7   1 -15    6.10    0.74
   6   1 -15    0.50    0.24
   6   1 -15    0.62    0.43
   6   1 -15   -0.03    0.18
  -6  -1  15    0.22    0.25
   5   1 -15   -0.03    0.17
   5   1 -15    0.09    0.26
   5   1 -15    0.32    0.19
  -5  -1  15    0.30    0.21
  -5  -1  15    0.09    0.17
   4   1 -15    0.54    0.27
   4   1 -15    0.75    0.24
   4   1 -15    0.40    0.26
  -4  -1  15    1.29    0.32
  -4  -1  15    0.69    0.23
  -4  -1  15    0.37    0.21
   3   1 -15    0.05    0.20
   3   1 -15    0.19    0.13
   3   1 -15   -0.01    0.18
  -3  -1  15    0.24    0.18
  -3  -1  15    0.10    0.15
  -3  -1  15    0.02    0.16
   2   1 -15    1.11    0.23
   2   1 -15    1.19    0.29
   2   1 -15    0.82    0.29
   2   1 -15    0.75    0.29
  -2  -1  15    0.70    0.22
  -2  -1  15    0.89    0.24
  -2  -1  15    1.15    0.30
   1   1 -15   -0.05    0.14
   1   1 -15    0.04    0.13
   1   1 -15    0.16    0.16
   1   1 -15    0.10    0.21
  -1  -1  15    0.19    0.16
  -1  -1  15    0.05    0.17
  -1  -1  15   -0.07    0.14
   0   1 -15   -0.11    0.13
   0   1 -15   -0.02    0.09
   0  -1  15    0.03    0.15
   0  -1  15    0.11    0.18
   0  -1  15    0.12    0.14
  -1   1 -15    3.95    0.37
  -1   1 -15    4.60    0.55
   1  -1  15    4.98    0.45
   1  -1  15    5.01    0.64
  -2   1 -15    0.13    0.13
  -2   1 -15    0.05    0.15
  -2   1 -15   -0.10    0.11
   2  -1  15    0.42    0.26
  -3   1 -15    0.12    0.14
  -3   1 -15    0.00    0.18
  -3   1 -15    0.21    0.15
   3  -1  15    0.01    0.24
   3  -1  15    0.17    0.14
  -4   1 -15    0.74    0.28
  -4   1 -15    0.69    0.20
  -4   1 -15    1.72    0.37
   4  -1  15    0.98    0.23
   4  -1  15    1.06    0.37
  -5   1 -15   -0.16    0.24
  -5   1 -15    0.16    0.23
   5  -1  15    0.00    0.17
   5  -1  15    0.04    0.28
   7   0 -15    6.47    0.73
   6   0 -15    2.19    0.59
   6   0 -15    1.23    0.35
   6   0 -15    1.15    0.35
  -6   0  15    1.57    0.39
   5   0 -15   -0.19    0.16
   5   0 -15   -0.34    0.22
   5   0 -15   -0.08    0.19
  -5   0  15    0.16    0.18
  -5   0  15   -0.01    0.17
  -5   0  15    0.01    0.18
   4   0 -15    0.38    0.30
   4   0 -15    0.61    0.31
   4   0 -15    0.86    0.27
  -4   0  15    0.95    0.26
  -4   0  15    0.45    0.24
  -4   0  15    0.54    0.23
   3   0 -15    0.55    0.26
   3   0 -15    0.48    0.29
   3   0 -15    0.28    0.22
   3   0 -15    0.44    0.20
  -3   0  15    0.28    0.20
  -3   0  15    0.48    0.22
  -3   0  15    0.12    0.14
   2   0 -15    0.20    0.14
   2   0 -15   -0.15    0.16
   2   0 -15   -0.08    0.17
   2   0 -15   -0.13    0.18
  -2   0  15    0.02    0.13
  -2   0  15    0.22    0.17
  -2   0  15    0.51    0.22
   1   0 -15    0.18    0.25
   1   0 -15    0.11    0.16
   1   0 -15   -0.09    0.16
  -1   0  15    0.08    0.15
  -1   0  15    0.08    0.15
   0   0 -15    1.87    0.35
   0   0 -15    2.52    0.28
   0   0  15    2.83    0.36
  -1   0 -15    4.91    0.38
  -1   0 -15    6.29    0.66
  -2   0 -15    1.07    0.23
  -2   0 -15    1.18    0.30
  -2   0 -15    0.41    0.18
  -3   0 -15    0.05    0.14
  -3   0 -15    0.15    0.14
  -3   0 -15    0.29    0.23
   3   0  15   -0.28    0.20
   3   0  15   -0.05    0.12
  -4   0 -15    0.30    0.24
  -4   0 -15    0.16    0.22
  -4   0 -15    0.04    0.14
  -4   0 -15   -0.09    0.14
   4   0  15   -0.09    0.26
   4   0  15    0.15    0.16
  -5   0 -15    0.02    0.22
  -5   0 -15   -0.02    0.16
   5   0  15   -0.27    0.24
   5   0  15    0.16    0.19
   6  -1 -15    0.09    0.24
   6  -1 -15    0.97    0.46
  -6   1  15    0.41    0.28
   5  -1 -15    5.91    0.83
  -5   1  15    4.90    0.63
  -5   1  15    6.63    0.61
   4  -1 -15    0.09    0.24
   4  -1 -15   -0.03    0.25
   4  -1 -15    0.17    0.22
  -4   1  15    0.03    0.17
  -4   1  15    0.00    0.20
  -4   1  15   -0.10    0.16
   3  -1 -15    2.03    0.46
   3  -1 -15    0.64    0.30
   3  -1 -15    1.10    0.32
  -3   1  15    1.53    0.30
  -3   1  15    1.40    0.35
  -3   1  15    1.14    0.28
   2  -1 -15    0.05    0.22
   2  -1 -15    0.26    0.21
   2  -1 -15    0.23    0.24
  -2   1  15    0.09    0.16
  -2   1  15    0.23    0.18
  -2   1  15    0.27    0.21
   1  -1 -15   -0.04    0.15
   1  -1 -15    0.25    0.20
  -1   1  15   -0.11    0.14
  -1   1  15    0.11    0.15
   0  -1 -15    0.15    0.21
   0  -1 -15    0.28    0.21
   0  -1 -15    0.23    0.13
   0   1  15    0.34    0.18
  -1  -1 -15    0.53    0.24
  -1  -1 -15    0.20    0.15
  -2  -1 -15    0.20    0.15
  -2  -1 -15    0.13    0.16
  -2  -1 -15    0.45    0.24
  -3  -1 -15    4.75    0.60
  -3  -1 -15    3.26    0.39
  -3  -1 -15    2.73    0.36
   3   1  15    3.65    0.59
   3   1  15    3.99    0.43
  -4  -1 -15    0.22    0.25
  -4  -1 -15    0.07    0.16
  -4  -1 -15   -0.01    0.20
   4   1  15   -0.08    0.23
   4   1  15   -0.13    0.14
  -5  -1 -15    0.01    0.18
   5   1  15    0.34    0.24
   6  -2 -15    1.61    0.44
   5  -2 -15    0.03    0.32
   5  -2 -15    0.17    0.29
  -5   2  15    0.21    0.22
  -5   2  15    0.14    0.20
   4  -2 -15    0.82    0.37
   4  -2 -15    0.45    0.31
   4  -2 -15    0.18    0.26
  -4   2  15    0.76    0.30
  -4   2  15    0.65    0.25
  -4   2  15    0.54    0.24
   3  -2 -15    0.13    0.21
   3  -2 -15    0.01    0.21
   3  -2 -15   -0.29    0.19
  -3   2  15   -0.10    0.15
  -3   2  15    0.12    0.22
  -3   2  15   -0.16    0.16
   2  -2 -15    0.39    0.23
   2  -2 -15    0.18    0.22
   2  -2 -15    0.26    0.30
  -2   2  15    0.23    0.19
  -2   2  15   -0.01    0.16
   1  -2 -15    0.00    0.16
   1  -2 -15   -0.03    0.19
  -1   2  15   -0.18    0.13
   0  -2 -15   -0.01    0.13
   0  -2 -15   -0.13    0.18
   0  -2 -15    0.12    0.19
   0   2  15    0.21    0.16
  -1  -2 -15    0.30    0.16
  -1  -2 -15   -0.13    0.15
  -2  -2 -15    0.76    0.29
  -2  -2 -15    0.93    0.24
  -2  -2 -15    0.83    0.22
  -3  -2 -15    0.01    0.16
  -3  -2 -15   -0.07    0.19
   3   2  15   -0.10    0.25
  -4  -2 -15   11.49    0.65
  -4  -2 -15   11.03    0.80
   4   2  15   10.84    0.66
   4   2  15   12.49    1.19
   5  -3 -15   -0.14    0.28
   5  -3 -15    0.21    0.32
  -5   3  15    0.23    0.28
  -5   3  15   -0.12    0.20
   4  -3 -15    0.09    0.29
   4  -3 -15   -0.08    0.25
  -4   3  15   -0.28    0.17
  -4   3  15    0.04    0.25
   3  -3 -15    5.44    0.75
   3  -3 -15    5.41    0.78
  -3   3  15    5.68    0.58
  -3   3  15    5.81    0.62
   2  -3 -15   -0.02    0.19
   2  -3 -15    0.07    0.24
  -2   3  15    0.19    0.20
  -2   3  15    0.06    0.17
   1  -3 -15    1.63    0.41
   1  -3 -15    1.56    0.39
  -1   3  15    1.46    0.30
   0  -3 -15    0.01    0.14
   0  -3 -15    0.12    0.20
  -1  -3 -15    0.20    0.22
  -1  -3 -15    0.45    0.20
  -2  -3 -15   -0.03    0.16
  -2  -3 -15    0.01    0.20
  -2  -3 -15    0.02    0.17
  -3  -3 -15    0.37    0.28
   3   3  15    0.44    0.37
   5  -4 -15   -0.20    0.30
  -5   4  15    0.54    0.35
   4  -4 -15    0.07    0.28
   4  -4 -15    0.09    0.31
   3  -4 -15   -0.09    0.27
  -3   4  15    0.03    0.23
  -3   4  15   -0.10    0.18
   2  -4 -15   23.72    1.30
  -2   4  15   24.09    1.04
   1  -4 -15    0.32    0.28
  -1   4  15    0.44    0.24
   0  -4 -15   -0.02    0.22
   0  -4 -15    0.03    0.18
  -1  -4 -15    0.11    0.19
  -1  -4 -15    0.00    0.22
   3  -5 -15    1.29    0.50
   2  -5 -15    0.20    0.33
  -2   5  15    0.29    0.23
   1  -5 -15    0.52    0.34
   1   8 -16   -0.03    0.21
   0   8 -16    0.83    0.27
   3   7 -16    0.33    0.24
   2   7 -16    0.24    0.36
   2   7 -16    0.37    0.22
   1   7 -16    0.48    0.33
   1   7 -16    0.21    0.19
   0   7 -16    1.05    0.28
   1  -7  16    0.17    0.24
  -3   7 -16   18.60    1.06
   4   6 -16    0.31    0.24
   3   6 -16    0.73    0.26
   3   6 -16   -0.05    0.28
   2   6 -16    0.18    0.26
   2   6 -16   -0.09    0.13
  -2  -6  16    0.16    0.25
   1   6 -16    0.15    0.30
   1   6 -16    0.06    0.15
  -1  -6  16    0.04    0.22
  -1  -6  16    0.02    0.21
   0  -6  16    0.10    0.24
   0  -6  16    0.24    0.22
  -1   6 -16    0.33    0.23
   1  -6  16    0.10    0.21
  -2   6 -16    0.03    0.21
  -3   6 -16    0.15    0.22
  -3   6 -16    0.33    0.20
   4  -6  16    7.34    0.68
   5   5 -16    0.34    0.25
   4   5 -16    0.00    0.18
   4   5 -16   -0.03    0.23
   3   5 -16   14.82    0.81
   3   5 -16   14.51    1.01
   2   5 -16    0.24    0.18
   2   5 -16   -0.17    0.25
  -2  -5  16   -0.10    0.18
  -2  -5  16    0.07    0.20
   1   5 -16    0.09    0.14
   1   5 -16   -0.26    0.25
   1   5 -16   -0.09    0.16
  -1  -5  16    0.04    0.19
  -1  -5  16   -0.33    0.17
   0   5 -16   -0.02    0.15
   0  -5  16   -0.17    0.16
   0  -5  16    0.21    0.19
  -1   5 -16    0.44    0.23
   1  -5  16    0.27    0.22
  -2   5 -16    0.23    0.22
  -2   5 -16    0.16    0.15
  -3   5 -16    0.48    0.20
  -3   5 -16   -0.03    0.22
   4  -5  16   -0.10    0.15
   5   4 -16    0.18    0.27
   5   4 -16    0.54    0.26
   4   4 -16    0.13    0.24
   4   4 -16    0.39    0.22
  -4  -4  16    0.37    0.24
   3   4 -16   -0.10    0.20
   3   4 -16   -0.04    0.14
   3   4 -16    0.12    0.21
  -3  -4  16    0.16    0.21
  -3  -4  16    0.13    0.21
   2   4 -16    6.72    0.60
   2   4 -16    5.97    0.66
   2   4 -16    5.69    0.73
  -2  -4  16    5.27    0.55
  -2  -4  16    4.10    0.50
   1   4 -16   17.94    1.10
   1   4 -16   17.28    0.76
   1   4 -16   17.19    0.92
  -1  -4  16   15.65    1.05
  -1  -4  16   16.26    0.85
  -1  -4  16   19.37    0.91
  -1  -4  16   18.13    1.07
   0   4 -16   -0.01    0.17
   0  -4  16   -0.06    0.22
   0  -4  16    0.01    0.18
   0  -4  16   -0.11    0.15
  -1   4 -16    0.03    0.18
   1  -4  16    0.17    0.18
  -2   4 -16   -0.02    0.14
  -2   4 -16   -0.05    0.17
  -3   4 -16    0.12    0.16
  -3   4 -16    0.13    0.19
  -4   4 -16    0.44    0.30
   4  -4  16   -0.11    0.16
   5  -4  16    0.17    0.20
   5  -4  16    0.25    0.34
   6   3 -16    0.05    0.21
   5   3 -16    0.12    0.22
   5   3 -16    0.11    0.22
   5   3 -16    0.12    0.32
  -5  -3  16    0.25    0.23
   4   3 -16    0.05    0.21
   4   3 -16    0.24    0.20
   4   3 -16   -0.17    0.25
  -4  -3  16   -0.09    0.18
  -4  -3  16   -0.09    0.16
   3   3 -16    0.23    0.24
   3   3 -16    0.15    0.22
   3   3 -16    0.30    0.19
  -3  -3  16   -0.07    0.18
  -3  -3  16    0.24    0.21
  -3  -3  16   -0.01    0.18
   2   3 -16    5.77    0.76
   2   3 -16    5.32    0.50
   2   3 -16    4.75    0.60
  -2  -3  16    4.47    0.57
  -2  -3  16    4.44    0.52
  -2  -3  16    5.71    0.57
   1   3 -16    3.80    0.40
   1   3 -16    2.51    0.46
   1   3 -16    3.42    0.49
  -1  -3  16    3.03    0.41
  -1  -3  16    3.61    0.46
   0   3 -16    7.63    0.73
   0  -3  16    7.43    0.55
   0  -3  16    6.79    0.75
   0  -3  16    7.33    0.56
  -1   3 -16   -0.04    0.10
  -1   3 -16   -0.03    0.17
   1  -3  16   -0.09    0.15
   1  -3  16   -0.16    0.20
  -2   3 -16    0.57    0.19
  -2   3 -16    1.19    0.32
  -3   3 -16    0.12    0.14
  -3   3 -16    0.13    0.21
  -3   3 -16    0.06    0.14
  -4   3 -16    0.87    0.33
   4  -3  16    1.15    0.27
   5  -3  16   -0.31    0.32
   5  -3  16    0.18    0.19
   6   2 -16    0.59    0.26
   6   2 -16    0.78    0.44
   5   2 -16    0.34    0.26
   5   2 -16    0.90    0.41
   5   2 -16    0.62    0.29
  -5  -2  16    0.74    0.33
   4   2 -16    0.03    0.20
   4   2 -16    0.08    0.17
   4   2 -16    0.45    0.28
  -4  -2  16   -0.08    0.17
  -4  -2  16    0.22    0.21
  -4  -2  16   -0.12    0.17
   3   2 -16    0.08    0.22
   3   2 -16    0.15    0.16
   3   2 -16    0.08    0.21
  -3  -2  16    0.10    0.18
  -3  -2  16    0.00    0.18
   2   2 -16    0.08    0.14
   2   2 -16    0.06    0.21
   2   2 -16   -0.11    0.16
  -2  -2  16   -0.09    0.15
  -2  -2  16   -0.08    0.15
  -2  -2  16    0.21    0.21
   1   2 -16    4.61    0.49
   1   2 -16    4.70    0.58
   1   2 -16    3.71    0.57
  -1  -2  16    5.12    0.52
  -1  -2  16    3.34    0.44
   0   2 -16    0.35    0.21
   0  -2  16    0.09    0.16
   0  -2  16   -0.02    0.15
  -1   2 -16    3.47    0.34
  -1   2 -16    3.98    0.53
   1  -2  16    3.72    0.58
   1  -2  16    2.93    0.36
  -2   2 -16    0.11    0.14
  -2   2 -16    0.13    0.19
  -3   2 -16   -0.03    0.13
  -3   2 -16    0.01    0.19
  -3   2 -16    0.01    0.15
  -4   2 -16    0.22    0.24
   4  -2  16   -0.19    0.24
   4  -2  16   -0.11    0.15
   5  -2  16    0.14    0.32
   5  -2  16    0.12    0.18
   6   1 -16    0.68    0.32
   5   1 -16    0.04    0.23
   5   1 -16    0.01    0.31
   5   1 -16    0.05    0.18
  -5  -1  16    0.19    0.22
   4   1 -16    0.25    0.24
   4   1 -16   -0.01    0.17
   4   1 -16    0.19    0.29
  -4  -1  16   -0.04    0.18
  -4  -1  16    0.14    0.21
  -4  -1  16    0.13    0.19
   3   1 -16    0.24    0.23
   3   1 -16   -0.04    0.16
   3   1 -16   -0.08    0.19
  -3  -1  16   -0.03    0.18
  -3  -1  16    0.03    0.17
  -3  -1  16    0.14    0.19
   2   1 -16   -0.02    0.13
   2   1 -16    0.07    0.23
   2   1 -16   -0.18    0.14
  -2  -1  16   -0.03    0.15
  -2  -1  16    0.01    0.15
  -2  -1  16    0.06    0.17
   1   1 -16    0.28    0.18
   1   1 -16   -0.12    0.14
   1   1 -16   -0.04    0.23
  -1  -1  16   -0.21    0.14
  -1  -1  16   -0.07    0.15
   0   1 -16    2.57    0.44
  -1   1 -16    3.00    0.45
  -1   1 -16    4.01    0.38
   1  -1  16    4.16    0.60
   1  -1  16    3.47    0.38
  -2   1 -16   -0.04    0.12
  -2   1 -16    0.33    0.20
  -2   1 -16   -0.18    0.13
  -3   1 -16    0.16    0.21
  -3   1 -16    0.17    0.16
  -3   1 -16   -0.04    0.14
  -4   1 -16    1.01    0.33
   4  -1  16    1.16    0.43
   4  -1  16    0.89    0.25
   5  -1  16   -0.12    0.31
   5  -1  16    0.16    0.20
   6   0 -16   -0.05    0.26
   5   0 -16   10.34    0.73
   5   0 -16   10.58    1.12
  -5   0  16   11.36    0.71
  -5   0  16    9.39    0.85
   4   0 -16    0.33    0.28
   4   0 -16    1.07    0.30
   4   0 -16    1.07    0.40
  -4   0  16    0.59    0.25
  -4   0  16    1.64    0.41
  -4   0  16    0.47    0.25
   3   0 -16    0.97    0.38
   3   0 -16   -0.03    0.22
   3   0 -16    0.69    0.25
   3   0 -16    0.52    0.29
  -3   0  16    0.54    0.26
  -3   0  16    0.80    0.26
  -3   0  16    0.05    0.16
   2   0 -16   -0.10    0.13
   2   0 -16    0.28    0.23
   2   0 -16   -0.04    0.22
   2   0 -16   -0.10    0.16
  -2   0  16   -0.05    0.13
  -2   0  16    0.03    0.19
  -2   0  16    0.03    0.17
   1   0 -16   -0.12    0.17
   1   0 -16    0.02    0.17
  -1   0  16   -0.08    0.15
  -1   0  16   -0.01    0.16
   0   0 -16    0.08    0.18
   0   0  16    0.07    0.16
  -1   0 -16    2.72    0.33
  -1   0 -16    2.09    0.42
  -2   0 -16    0.86    0.23
  -2   0 -16    0.52    0.18
  -2   0 -16    0.47    0.23
  -3   0 -16    3.96    0.53
  -3   0 -16    2.92    0.38
  -3   0 -16    2.75    0.37
   3   0  16    4.72    0.80
  -4   0 -16   -0.07    0.21
   4   0  16   -0.09    0.27
   5  -1 -16    1.11    0.48
   5  -1 -16    0.30    0.30
  -5   1  16    0.81    0.29
  -5   1  16    0.37    0.27
   4  -1 -16   -0.09    0.26
   4  -1 -16   -0.04    0.26
   4  -1 -16    0.10    0.28
  -4   1  16    0.18    0.20
  -4   1  16   -0.16    0.19
   3  -1 -16    0.28    0.26
   3  -1 -16    0.29    0.26
   3  -1 -16    0.62    0.30
  -3   1  16    0.68    0.24
  -3   1  16    0.21    0.24
  -3   1  16    0.17    0.18
   2  -1 -16    0.83    0.34
   2  -1 -16    1.05    0.33
   2  -1 -16    0.72    0.32
  -2   1  16    0.46    0.21
  -2   1  16    1.11    0.26
   1  -1 -16    0.07    0.21
   1  -1 -16    0.12    0.19
  -1   1  16    0.09    0.17
  -1   1  16   -0.05    0.17
   0  -1 -16    0.25    0.23
   0  -1 -16    0.14    0.14
   0  -1 -16    0.26    0.22
   0   1  16    0.17    0.16
  -1  -1 -16    0.65    0.26
  -1  -1 -16    0.29    0.18
  -2  -1 -16    0.38    0.18
  -2  -1 -16    0.18    0.21
  -2  -1 -16    0.26    0.17
  -3  -1 -16    2.64    0.49
   4   1  16    0.17    0.31
   5  -2 -16    0.35    0.33
  -5   2  16    0.25    0.28
   4  -2 -16    0.60    0.37
   4  -2 -16    1.34    0.46
  -4   2  16    0.88    0.29
  -4   2  16    0.99    0.35
   3  -2 -16    2.52    0.52
   3  -2 -16    2.02    0.49
  -3   2  16    2.02    0.34
  -3   2  16    2.33    0.41
   2  -2 -16    0.59    0.32
   2  -2 -16    0.18    0.26
  -2   2  16   -0.05    0.16
  -2   2  16    0.70    0.24
   1  -2 -16    0.10    0.21
   1  -2 -16    0.17    0.23
  -1   2  16    0.03    0.15
   0  -2 -16   -0.20    0.18
   0  -2 -16    0.20    0.15
  -1  -2 -16   -0.19    0.17
  -1  -2 -16    0.18    0.19
  -2  -2 -16    0.90    0.26
  -2  -2 -16    0.74    0.28
  -3  -2 -16    0.20    0.25
   5  -3 -16    0.85    0.40
  -5   3  16    0.89    0.40
   4  -3 -16   -0.22    0.28
   4  -3 -16   -0.35    0.31
   3  -3 -16    0.44    0.32
  -3   3  16    0.43    0.28
  -3   3  16    0.63    0.25
   2  -3 -16    0.15    0.26
  -2   3  16   -0.08    0.18
   1  -3 -16    0.31    0.25
  -1   3  16    0.11    0.22
   0  -3 -16   -0.23    0.19
  -1  -3 -16    0.03    0.24
  -1  -3 -16    0.32    0.20
  -2  -3 -16   -0.16    0.23
   3  -4 -16   -0.20    0.30
   2  -4 -16   -0.25    0.26
  -2   4  16    0.13    0.25
   1  -4 -16    8.70    0.94
   0  -4 -16    1.67    0.43
  -1  -4 -16    0.62    0.37
   2   7 -17    0.07    0.20
   2   7 -17    0.19    0.33
   1   7 -17    0.27    0.20
   3   6 -17    0.69    0.28
   3   6 -17    1.26    0.46
   2   6 -17    5.28    0.57
   2   6 -17    5.66    0.81
   1   6 -17    0.07    0.19
   1   6 -17    0.15    0.31
  -1   6 -17    0.45    0.25
   1  -6  17   -0.16    0.20
  -2   6 -17    0.44    0.26
   4   5 -17   -0.04    0.20
   3   5 -17    1.92    0.37
   3   5 -17    2.52    0.52
   2   5 -17    2.03    0.36
   2   5 -17    1.44    0.44
  -2  -5  17    0.98    0.32
   1   5 -17    4.49    0.72
   1   5 -17    5.11    0.60
   1   5 -17    5.22    0.52
  -1  -5  17    4.61    0.56
  -1  -5  17    5.46    0.62
   0   5 -17    0.11    0.23
   0  -5  17   -0.12    0.20
  -1   5 -17   -0.24    0.16
   1  -5  17    0.27    0.22
  -2   5 -17   -0.09    0.19
  -3   5 -17    0.28    0.27
   5   4 -17    0.12    0.24
   4   4 -17    0.04    0.23
   4   4 -17    0.12    0.19
  -4  -4  17   -0.01    0.21
  -4  -4  17    0.31    0.26
   3   4 -17    0.10    0.26
   3   4 -17   -0.30    0.24
   3   4 -17   -0.02    0.17
  -3  -4  17   -0.01    0.21
  -3  -4  17   -0.01    0.23
   2   4 -17    0.13    0.18
   2   4 -17   -0.02    0.20
   2   4 -17   -0.13    0.22
  -2  -4  17    0.16    0.24
  -2  -4  17   -0.06    0.20
  -2  -4  17   -0.04    0.20
   1   4 -17    7.11    0.83
   1   4 -17    6.63    0.68
  -1  -4  17    5.99    0.62
  -1  -4  17    7.05    0.69
   0   4 -17   12.86    0.83
   0  -4  17   14.16    0.79
  -1   4 -17   -0.18    0.13
   1  -4  17    0.27    0.21
  -2   4 -17    0.18    0.16
  -2   4 -17   -0.07    0.18
  -3   4 -17    0.01    0.17
  -3   4 -17   -0.03    0.23
   5   3 -17    0.24    0.23
   4   3 -17    0.30    0.27
   4   3 -17    0.16    0.23
   4   3 -17    0.12    0.28
  -4  -3  17    0.06    0.24
  -4  -3  17    0.06    0.21
   3   3 -17    0.00    0.22
   3   3 -17    0.17    0.22
   3   3 -17   -0.22    0.15
  -3  -3  17    0.23    0.21
  -3  -3  17    0.04    0.19
   2   3 -17    0.65    0.29
   2   3 -17    0.95    0.25
   2   3 -17    0.77    0.28
  -2  -3  17    0.88    0.27
  -2  -3  17    0.79    0.29
  -2  -3  17    0.47    0.25
   1   3 -17    1.57    0.42
   1   3 -17    2.92    0.49
  -1  -3  17    2.16    0.38
  -1  -3  17    2.19    0.37
   0   3 -17    0.65    0.27
   0  -3  17    1.29    0.29
  -1   3 -17    3.11    0.48
   1  -3  17    2.97    0.38
  -2   3 -17    0.05    0.17
  -2   3 -17    0.02    0.15
  -3   3 -17    0.09    0.22
  -3   3 -17    0.22    0.19
   5   2 -17    0.38    0.38
   5   2 -17   -0.03    0.22
   5   2 -17    0.10    0.21
   4   2 -17    0.15    0.20
   4   2 -17    0.09    0.26
   4   2 -17   -0.04    0.23
  -4  -2  17    0.24    0.23
  -4  -2  17   -0.15    0.20
   3   2 -17    0.00    0.17
   3   2 -17    0.31    0.27
   3   2 -17    0.12    0.24
  -3  -2  17   -0.09    0.16
  -3  -2  17   -0.13    0.18
   2   2 -17    0.16    0.25
   2   2 -17   -0.13    0.14
   2   2 -17    0.29    0.23
  -2  -2  17   -0.14    0.17
  -2  -2  17   -0.06    0.18
  -2  -2  17   -0.04    0.18
   1   2 -17    0.25    0.21
  -1  -2  17    0.24    0.20
  -1  -2  17    0.28    0.19
   0   2 -17    0.01    0.18
   0  -2  17    0.00    0.16
  -1   2 -17    0.61    0.27
  -1   2 -17    0.33    0.17
   1  -2  17    0.16    0.20
  -2   2 -17   13.30    0.67
  -2   2 -17   13.82    0.88
  -3   2 -17    0.20    0.18
  -3   2 -17   -0.05    0.18
   5   1 -17    3.50    0.58
   5   1 -17    4.74    0.82
   5   1 -17    4.85    0.59
  -5  -1  17    4.03    0.52
  -5  -1  17    4.66    0.63
   4   1 -17   -0.16    0.21
   4   1 -17    0.50    0.30
   4   1 -17    0.52    0.26
  -4  -1  17    0.22    0.24
  -4  -1  17    0.26    0.23
   3   1 -17   -0.28    0.21
   3   1 -17   -0.11    0.22
   3   1 -17   -0.19    0.16
  -3  -1  17   -0.26    0.19
  -3  -1  17    0.01    0.20
  -3  -1  17    0.35    0.22
   2   1 -17    0.35    0.18
   2   1 -17    0.18    0.22
   2   1 -17    0.36    0.28
  -2  -1  17    0.12    0.20
  -2  -1  17    0.34    0.21
   1   1 -17   -0.11    0.20
  -1  -1  17    0.49    0.20
  -1  -1  17    0.03    0.18
   0   1 -17    2.41    0.43
   0  -1  17    1.35    0.28
  -1   1 -17    0.76    0.29
  -1   1 -17    0.36    0.17
  -2   1 -17    0.12    0.16
  -2   1 -17   -0.02    0.18
  -3   1 -17    3.62    0.43
  -3   1 -17    3.24    0.52
   5   0 -17    0.05    0.24
   5   0 -17    0.25    0.28
  -5   0  17   -0.11    0.22
  -5   0  17    0.22    0.27
   4   0 -17    6.37    0.85
   4   0 -17    5.62    0.60
   4   0 -17    5.11    0.72
  -4   0  17    5.03    0.65
  -4   0  17    5.06    0.55
   3   0 -17    0.19    0.28
   3   0 -17   -0.25    0.21
   3   0 -17    0.09    0.17
  -3   0  17    0.24    0.21
  -3   0  17    0.00    0.16
  -3   0  17    0.17    0.23
   2   0 -17    0.02    0.23
   2   0 -17   -0.16    0.21
   2   0 -17   -0.07    0.21
  -2   0  17    0.23    0.18
  -2   0  17    0.04    0.17
   1   0 -17   -0.12    0.17
   1   0 -17    0.42    0.24
  -1   0  17    0.37    0.23
  -1   0  17    0.09    0.19
   0   0 -17   -0.01    0.19
   0   0 -17    0.01    0.19
   0   0  17    0.11    0.17
  -1   0 -17    0.40    0.23
  -1   0 -17    0.70    0.22
  -2   0 -17    0.10    0.19
  -2   0 -17   -0.10    0.15
  -3   0 -17    0.45    0.26
   4   0  17    4.07    0.73
   5  -1 -17   -0.06    0.27
  -5   1  17   -0.27    0.24
   4  -1 -17    0.39    0.35
   4  -1 -17    0.03    0.28
  -4   1  17    0.12    0.23
  -4   1  17    0.42    0.30
   3  -1 -17    4.80    0.73
   3  -1 -17    4.88    0.68
   3  -1 -17    4.94    0.70
   2  -1 -17    0.19    0.25
   2  -1 -17    0.44    0.29
  -2   1  17    0.13    0.20
  -2   1  17    0.07    0.17
   1  -1 -17    0.21    0.25
   1  -1 -17    0.13    0.23
  -1   1  17    0.41    0.22
   0  -1 -17    0.17    0.22
   0   1  17    0.07    0.18
  -1  -1 -17    0.88    0.33
  -1  -1 -17    1.30    0.28
  -2  -1 -17    0.19    0.25
  -2  -1 -17    0.38    0.22
   4  -2 -17   -0.04    0.32
   3  -2 -17   -0.01    0.31
   3  -2 -17    0.53    0.39
   2  -2 -17   27.15    1.41
  -2   2  17   25.92    1.10
   1  -2 -17    0.09    0.26
  -1   2  17    0.51    0.23
   0  -2 -17    0.26    0.28
  -1  -2 -17   -0.13    0.20
  -1  -2 -17    0.08    0.19
  -2  -2 -17    1.29    0.38
   4  -3 -17   -0.33    0.32
   2  -3 -17    0.12    0.29
   1  -3 -17    0.12    0.30
  -1   3  17   -0.14    0.20
   0  -3 -17    0.27    0.28
  -1  -3 -17   -0.33    0.24
   2   6 -18    1.96    0.36
   2   6 -18    2.84    0.67
  -1   6 -18    0.23    0.26
   3   5 -18    0.38    0.31
   3   5 -18    0.38    0.28
   2   5 -18   -0.02    0.30
   2   5 -18    0.40    0.19
   1   5 -18    0.54    0.27
   0   5 -18   22.15    1.14
   0  -5  18   20.22    1.14
  -1   5 -18    0.12    0.23
   1  -5  18   -0.03    0.21
  -2   5 -18    0.17    0.27
   4   4 -18    0.04    0.21
   3   4 -18   -0.09    0.26
   3   4 -18    0.19    0.20
   3   4 -18   -0.25    0.25
  -3  -4  18    0.15    0.23
   2   4 -18   -0.32    0.26
   2   4 -18    0.04    0.17
   2   4 -18    0.16    0.25
   1   4 -18    1.13    0.35
  -1  -4  18    0.98    0.31
  -1  -4  18    1.19    0.33
   0   4 -18    1.62    0.39
   0  -4  18    1.08    0.31
  -1   4 -18    1.17    0.36
   1  -4  18    0.83    0.27
  -2   4 -18    0.27    0.26
   4   3 -18    0.07    0.24
   4   3 -18    0.02    0.21
   4   3 -18   -0.03    0.26
  -4  -3  18   -0.31    0.21
   3   3 -18   -0.21    0.15
   3   3 -18   -0.16    0.23
   3   3 -18    0.08    0.25
  -3  -3  18   -0.19    0.24
   2   3 -18    0.22    0.23
   2   3 -18    0.12    0.28
   2   3 -18    0.12    0.19
  -2  -3  18   -0.29    0.20
   1   3 -18    1.19    0.38
  -1  -3  18    1.44    0.34
  -1  -3  18    1.03    0.30
   0   3 -18   -0.12    0.16
   0  -3  18    0.05    0.20
  -1   3 -18    1.11    0.32
  -2   3 -18    0.35    0.25
  -2   3 -18    0.20    0.17
   5   2 -18    0.07    0.23
   4   2 -18    2.52    0.42
   4   2 -18    3.22    0.59
   4   2 -18    2.27    0.51
  -4  -2  18    1.99    0.47
   3   2 -18    0.97    0.26
   3   2 -18    0.07    0.28
   3   2 -18    0.79    0.37
  -3  -2  18    0.42    0.25
  -3  -2  18   -0.07    0.23
   2   2 -18    0.10    0.22
   2   2 -18   -0.05    0.23
  -2  -2  18   -0.07    0.22
  -2  -2  18   -0.13    0.19
   1   2 -18    0.10    0.24
  -1  -2  18    0.20    0.20
  -1  -2  18   -0.16    0.17
   0   2 -18    0.04    0.18
   0  -2  18   -0.01    0.19
  -1   2 -18    0.49    0.25
  -2   2 -18    1.58    0.29
  -2   2 -18    2.58    0.49
   5   1 -18   -0.04    0.23
   4   1 -18    0.13    0.30
   4   1 -18    0.23    0.32
   4   1 -18   -0.07    0.20
  -4  -1  18   -0.08    0.24
   3   1 -18   -0.17    0.27
   3   1 -18    0.03    0.25
   3   1 -18    0.63    0.25
  -3  -1  18    0.73    0.33
  -3  -1  18    0.32    0.26
   2   1 -18    0.29    0.30
   2   1 -18    0.72    0.36
  -2  -1  18    0.62    0.25
  -2  -1  18    0.93    0.28
   1   1 -18   -0.09    0.22
  -1  -1  18   -0.06    0.18
   0   1 -18    0.94    0.34
   0   1 -18    1.62    0.39
   0  -1  18    1.33    0.30
  -1   1 -18    0.10    0.23
  -2   1 -18    0.12    0.26
  -2   1 -18    0.48    0.20
   4   0 -18    0.38    0.30
  -4   0  18    0.58    0.30
   3   0 -18    7.06    0.87
   3   0 -18    8.96    0.94
   2   0 -18    0.15    0.26
  -2   0  18    0.30    0.24
  -2   0  18    0.34    0.22
   1   0 -18   -0.17    0.22
   1   0 -18    0.42    0.28
  -1   0  18    0.17    0.20
   0   0 -18    0.12    0.23
   0   0  18    0.11    0.19
  -1   0 -18    1.07    0.38
  -1   0 -18    0.69    0.24
   4  -1 -18    0.01    0.30
   3  -1 -18   -0.13    0.27
   2  -1 -18    0.30    0.31
  -2   1  18    0.63    0.27
   1  -1 -18    0.22    0.25
  -1   1  18    0.20    0.20
   0  -1 -18   -0.06    0.22
  -1  -1 -18    0.57    0.22
  -1  -1 -18    0.16    0.26
   4  -2 -18   -0.12    0.33
  -1   2  18    5.93    0.58
   2   5 -19    0.35    0.34
   1   5 -19    2.96    0.56
   0   5 -19    2.10    0.47
   3   4 -19   -0.10    0.20
   3   4 -19   -0.07    0.26
  -3  -4  19    0.19    0.29
   2   4 -19    0.14    0.27
   2   4 -19    0.26    0.34
   1   4 -19    0.16    0.27
   0   4 -19    0.73    0.32
   3   3 -19    0.03    0.22
   3   3 -19    0.49    0.34
  -3  -3  19    0.20    0.28
   2   3 -19   -0.01    0.28
   2   3 -19   -0.22    0.25
   1   3 -19    0.57    0.32
   0   3 -19    0.38    0.28
   0  -3  19    0.20    0.22
   4   2 -19   19.49    1.02
   3   2 -19    0.08    0.22
   3   2 -19    0.18    0.32
   2   2 -19   -0.24    0.24
   1   2 -19    0.27    0.28
   0   2 -19    0.01    0.22
   0  -2  19   -0.08    0.22
   4   1 -19    0.07    0.22
   3   1 -19    1.93    0.53
   1   1 -19    0.17    0.25
   0  -1  19    0.39    0.24
   3   0 -19    1.24    0.50
   0   0   0    0.00    0.00
;
_shelx_hkl_checksum              57206
loop_
_space_group_symop_operation_xyz
'x, y, z'
'-x, -y, -z'
loop_
_atom_site_label
_atom_site_type_symbol
_atom_site_fract_x
_atom_site_fract_y
_atom_site_fract_z
_atom_site_U_iso_or_equiv
_atom_site_adp_type
_atom_site_occupancy
_atom_site_site_symmetry_order
_atom_site_calc_flag
_atom_site_refinement_flags_posn
_atom_site_refinement_flags_adp
F1 F 1.03794(17) 0.06134(16) 0.61553(7) 0.0246(3) Uani 1 1 d . .
F2 F 0.71187(18) 0.10761(16) 0.51322(7) 0.0273(3) Uani 1 1 d . .
F3 F 0.21450(17) -0.49338(16) -0.46593(7) 0.0272(3) Uani 1 1 d . .
F4 F 0.57240(16) -0.29018(15) -0.40428(7) 0.0235(3) Uani 1 1 d . .
C1 C 0.9006(3) 0.1410(2) 0.66370(13) 0.0193(4) Uani 1 1 d . .
C2 C 0.9276(3) 0.1936(2) 0.75948(13) 0.0176(4) Uani 1 1 d . .
H2 H 1.0453 0.1738 0.7948 0.021 Uiso 1 1 calc R U
C3 C 0.7783(3) 0.2797(2) 0.80811(13) 0.0149(4) Uani 1 1 d . .
C4 C 0.7993(3) 0.3337(2) 0.90819(13) 0.0166(4) Uani 1 1 d . .
H4 H 0.9152 0.3138 0.9448 0.020 Uiso 1 1 calc R U
C5 C 0.6518(3) 0.4163(2) 0.95449(13) 0.0146(4) Uani 1 1 d . .
C6 C 0.6704(3) 0.4683(2) 1.05438(12) 0.0152(4) Uani 1 1 d . .
H6 H 0.7853 0.4463 1.0909 0.018 Uiso 1 1 calc R U
C7 C 0.4757(3) 0.4482(2) 0.89805(13) 0.0156(4) Uani 1 1 d . .
C8 C 0.4569(3) 0.3936(2) 0.79820(13) 0.0169(4) Uani 1 1 d . .
H8 H 0.3421 0.4148 0.7613 0.020 Uiso 1 1 calc R U
C9 C 0.6021(3) 0.3091(2) 0.75180(13) 0.0158(4) Uani 1 1 d . .
C10 C 0.5814(3) 0.2492(2) 0.64979(13) 0.0178(4) Uani 1 1 d . .
H10 H 0.4664 0.2670 0.6117 0.021 Uiso 1 1 calc R U
C11 C 0.7257(3) 0.1678(3) 0.60846(12) 0.0193(4) Uani 1 1 d . .
C12 C 0.2301(3) -0.3794(3) -0.38057(13) 0.0186(4) Uani 1 1 d . .
C13 C 0.0727(3) -0.3714(2) -0.32874(13) 0.0173(4) Uani 1 1 d . .
H13 H -0.0545 -0.4449 -0.3523 0.021 Uiso 1 1 calc R U
C14 C 0.0978(3) -0.2509(2) -0.23729(12) 0.0140(4) Uani 1 1 d . .
C15 C -0.0585(3) -0.2402(2) -0.17987(12) 0.0146(4) Uani 1 1 d . .
H15 H -0.1859 -0.3145 -0.2015 0.017 Uiso 1 1 calc R U
C16 C -0.0328(3) -0.1218(2) -0.09008(12) 0.0137(4) Uani 1 1 d . .
C17 C -0.1894(3) -0.1100(2) -0.03162(12) 0.0139(4) Uani 1 1 d . .
H17 H -0.3171 -0.1842 -0.0527 0.017 Uiso 1 1 calc R U
C18 C 0.1628(3) -0.0086(2) -0.05732(12) 0.0140(4) Uani 1 1 d . .
C19 C 0.3208(3) -0.0215(2) -0.11615(12) 0.0141(4) Uani 1 1 d . .
H19 H 0.4490 0.0519 -0.0950 0.017 Uiso 1 1 calc R U
C20 C 0.2935(3) -0.1388(2) -0.20410(12) 0.0142(4) Uani 1 1 d . .
C21 C 0.4548(3) -0.1539(2) -0.26325(12) 0.0156(4) Uani 1 1 d . .
H21 H 0.5839 -0.0816 -0.2430 0.019 Uiso 1 1 calc R U
C22 C 0.4227(3) -0.2711(3) -0.34776(13) 0.0179(4) Uani 1 1 d . .
loop_
_atom_site_aniso_label
_atom_site_aniso_U_11
_atom_site_aniso_U_22
_atom_site_aniso_U_33
_atom_site_aniso_U_23
_atom_site_aniso_U_13
_atom_site_aniso_U_12
F1 0.0253(6) 0.0333(7) 0.0192(6) 0.0041(5) 0.0107(5) 0.0150(5)
F2 0.0325(7) 0.0342(7) 0.0170(6) 0.0027(5) 0.0062(5) 0.0123(5)
F3 0.0289(7) 0.0313(7) 0.0179(6) -0.0071(5) 0.0033(5) 0.0089(5)
F4 0.0215(6) 0.0296(7) 0.0203(6) 0.0007(5) 0.0094(4) 0.0089(5)
C1 0.0219(10) 0.0168(10) 0.0210(10) 0.0045(7) 0.0083(7) 0.0051(8)
C2 0.0175(9) 0.0160(9) 0.0204(10) 0.0075(7) 0.0011(7) 0.0014(7)
C3 0.0149(9) 0.0114(9) 0.0178(9) 0.0048(7) 0.0011(7) -0.0015(7)
C4 0.0094(8) 0.0118(9) 0.0312(11) 0.0125(8) 0.0012(7) 0.0001(7)
C5 0.0158(9) 0.0102(9) 0.0176(9) 0.0043(7) 0.0011(7) -0.0001(7)
C6 0.0144(9) 0.0131(9) 0.0181(9) 0.0044(7) 0.0001(7) 0.0015(7)
C7 0.0159(9) 0.0091(9) 0.0224(10) 0.0044(7) 0.0059(7) 0.0004(7)
C8 0.0169(9) 0.0134(9) 0.0198(9) 0.0080(7) -0.0048(7) -0.0014(7)
C9 0.0149(9) 0.0125(9) 0.0204(9) 0.0064(7) 0.0016(7) -0.0002(7)
C10 0.0186(9) 0.0171(10) 0.0178(9) 0.0063(7) -0.0010(7) 0.0016(7)
C11 0.0255(10) 0.0198(10) 0.0123(9) 0.0041(7) 0.0034(7) 0.0009(8)
C12 0.0239(10) 0.0176(10) 0.0141(9) 0.0000(7) 0.0004(7) 0.0074(8)
C13 0.0193(10) 0.0140(9) 0.0177(9) 0.0021(7) -0.0013(7) 0.0029(7)
C14 0.0169(9) 0.0111(9) 0.0151(9) 0.0041(7) 0.0001(7) 0.0051(7)
C15 0.0148(9) 0.0122(9) 0.0158(9) 0.0028(7) -0.0025(7) 0.0020(7)
C16 0.0151(9) 0.0115(9) 0.0159(9) 0.0057(7) 0.0011(7) 0.0030(7)
C17 0.0128(9) 0.0119(9) 0.0167(9) 0.0034(7) 0.0001(7) 0.0016(7)
C18 0.0166(9) 0.0110(9) 0.0152(9) 0.0046(7) 0.0000(7) 0.0035(7)
C19 0.0111(8) 0.0120(9) 0.0204(9) 0.0072(7) -0.0007(7) 0.0018(7)
C20 0.0165(9) 0.0129(9) 0.0156(9) 0.0062(7) 0.0020(7) 0.0051(7)
C21 0.0161(9) 0.0144(9) 0.0173(9) 0.0056(7) 0.0014(7) 0.0029(7)
C22 0.0188(9) 0.0204(10) 0.0180(9) 0.0065(7) 0.0075(7) 0.0084(8)
loop_
_atom_type_symbol
_atom_type_description
_atom_type_scat_dispersion_real
_atom_type_scat_dispersion_imag
_atom_type_scat_source
C C 0.0033 0.0016 'International Tables Vol C Tables 4.2.6.8 and 6.1.1.4'
H H 0.0000 0.0000 'International Tables Vol C Tables 4.2.6.8 and 6.1.1.4'
F F 0.0171 0.0103 'International Tables Vol C Tables 4.2.6.8 and 6.1.1.4'
loop_
_geom_angle_atom_site_label_1
_geom_angle_atom_site_label_2
_geom_angle_atom_site_label_3
_geom_angle
_geom_angle_site_symmetry_1
_geom_angle_site_symmetry_3
C2 C1 F1 121.53(17) . .
C2 C1 C11 121.60(17) . .
F1 C1 C11 116.87(16) . .
C1 C2 C3 119.80(17) . .
C1 C2 H2 120.1 . .
C3 C2 H2 120.1 . .
C4 C3 C2 121.49(16) . .
C4 C3 C9 119.97(16) . .
C2 C3 C9 118.54(16) . .
C5 C4 C3 120.77(16) . .
C5 C4 H4 119.6 . .
C3 C4 H4 119.6 . .
C4 C5 C6 121.10(17) . .
C4 C5 C7 119.44(17) . .
C6 C5 C7 119.46(17) . .
C7 C6 C5 121.85(17) 2_667 .
C7 C6 H6 119.1 2_667 .
C5 C6 H6 119.1 . .
C6 C7 C8 122.22(17) 2_667 .
C6 C7 C5 118.69(17) 2_667 .
C8 C7 C5 119.09(17) . .
C9 C8 C7 121.70(16) . .
C9 C8 H8 119.1 . .
C7 C8 H8 119.1 . .
C8 C9 C10 121.94(16) . .
C8 C9 C3 119.01(16) . .
C10 C9 C3 119.05(17) . .
C11 C10 C9 119.63(17) . .
C11 C10 H10 120.2 . .
C9 C10 H10 120.2 . .
C10 C11 F2 121.79(17) . .
C10 C11 C1 121.38(17) . .
F2 C11 C1 116.82(16) . .
C13 C12 F3 121.45(17) . .
C13 C12 C22 121.90(16) . .
F3 C12 C22 116.64(16) . .
C12 C13 C14 119.44(17) . .
C12 C13 H13 120.3 . .
C14 C13 H13 120.3 . .
C15 C14 C13 121.83(16) . .
C15 C14 C20 119.39(15) . .
C13 C14 C20 118.77(16) . .
C14 C15 C16 121.60(16) . .
C14 C15 H15 119.2 . .
C16 C15 H15 119.2 . .
C17 C16 C15 122.05(16) . .
C17 C16 C18 119.03(16) . .
C15 C16 C18 118.92(16) . .
C16 C17 C18 121.66(16) . 2
C16 C17 H17 119.2 . .
C18 C17 H17 119.2 2 .
C17 C18 C19 121.79(16) 2 .
C17 C18 C16 119.31(16) 2 .
C19 C18 C16 118.90(16) . .
C20 C19 C18 121.54(16) . .
C20 C19 H19 119.2 . .
C18 C19 H19 119.2 . .
C19 C20 C21 121.56(16) . .
C19 C20 C14 119.64(16) . .
C21 C20 C14 118.80(16) . .
C22 C21 C20 119.68(17) . .
C22 C21 H21 120.2 . .
C20 C21 H21 120.2 . .
C21 C22 F4 121.00(17) . .
C21 C22 C12 121.39(17) . .
F4 C22 C12 117.60(16) . .
loop_
_geom_bond_atom_site_label_1
_geom_bond_atom_site_label_2
_geom_bond_distance
_geom_bond_site_symmetry_2
F1 C1 1.345(2) .
F2 C11 1.346(2) .
F3 C12 1.350(2) .
F4 C22 1.347(2) .
C1 C2 1.345(3) .
C1 C11 1.424(3) .
C2 C3 1.435(3) .
C2 H2 0.9500 .
C3 C4 1.405(3) .
C3 C9 1.446(3) .
C4 C5 1.397(3) .
C4 H4 0.9500 .
C5 C6 1.401(2) .
C5 C7 1.454(3) .
C6 C7 1.401(2) 2_667
C6 H6 0.9500 .
C7 C6 1.401(2) 2_667
C7 C8 1.402(3) .
C8 C9 1.392(3) .
C8 H8 0.9500 .
C9 C10 1.436(2) .
C10 C11 1.344(3) .
C10 H10 0.9500 .
C12 C13 1.341(3) .
C12 C22 1.423(3) .
C13 C14 1.437(2) .
C13 H13 0.9500 .
C14 C15 1.386(2) .
C14 C20 1.452(2) .
C15 C16 1.411(2) .
C15 H15 0.9500 .
C16 C17 1.398(2) .
C16 C18 1.455(2) .
C17 C18 1.401(2) 2
C17 H17 0.9500 .
C18 C17 1.401(2) 2
C18 C19 1.409(2) .
C19 C20 1.386(2) .
C19 H19 0.9500 .
C20 C21 1.432(2) .
C21 C22 1.347(3) .
C21 H21 0.9500 .
loop_
_geom_torsion_atom_site_label_1
_geom_torsion_atom_site_label_2
_geom_torsion_atom_site_label_3
_geom_torsion_atom_site_label_4
_geom_torsion
_geom_torsion_site_symmetry_1
_geom_torsion_site_symmetry_4
F1 C1 C2 C3 179.41(16) . .
C11 C1 C2 C3 -0.2(3) . .
C1 C2 C3 C4 178.86(17) . .
C1 C2 C3 C9 -0.6(3) . .
C2 C3 C4 C5 -179.58(16) . .
C9 C3 C4 C5 -0.1(3) . .
C3 C4 C5 C6 179.10(16) . .
C3 C4 C5 C7 -0.7(3) . .
C4 C5 C6 C7 179.80(16) . 2_667
C7 C5 C6 C7 -0.4(3) . 2_667
C4 C5 C7 C6 -179.81(16) . 2_667
C6 C5 C7 C6 0.4(3) . 2_667
C4 C5 C7 C8 0.6(3) . .
C6 C5 C7 C8 -179.14(16) . .
C6 C7 C8 C9 -179.33(16) 2_667 .
C5 C7 C8 C9 0.2(3) . .
C7 C8 C9 C10 178.58(16) . .
C7 C8 C9 C3 -1.0(3) . .
C4 C3 C9 C8 1.0(3) . .
C2 C3 C9 C8 -179.57(16) . .
C4 C3 C9 C10 -178.62(16) . .
C2 C3 C9 C10 0.9(3) . .
C8 C9 C10 C11 -179.81(17) . .
C3 C9 C10 C11 -0.2(3) . .
C9 C10 C11 F2 179.26(16) . .
C9 C10 C11 C1 -0.6(3) . .
C2 C1 C11 C10 0.9(3) . .
F1 C1 C11 C10 -178.78(17) . .
C2 C1 C11 F2 -178.99(16) . .
F1 C1 C11 F2 1.3(3) . .
F3 C12 C13 C14 178.59(15) . .
C22 C12 C13 C14 -0.2(3) . .
C12 C13 C14 C15 -178.54(16) . .
C12 C13 C14 C20 0.8(3) . .
C13 C14 C15 C16 179.92(16) . .
C20 C14 C15 C16 0.6(3) . .
C14 C15 C16 C17 -179.99(16) . .
C14 C15 C16 C18 -0.1(3) . .
C15 C16 C17 C18 -179.75(16) . 2
C18 C16 C17 C18 0.3(3) . 2
C17 C16 C18 C17 -0.3(3) . 2
C15 C16 C18 C17 179.75(16) . 2
C17 C16 C18 C19 179.62(15) . .
C15 C16 C18 C19 -0.3(3) . .
C17 C18 C19 C20 -179.90(16) 2 .
C16 C18 C19 C20 0.1(3) . .
C18 C19 C20 C21 -179.06(15) . .
C18 C19 C20 C14 0.3(3) . .
C15 C14 C20 C19 -0.7(3) . .
C13 C14 C20 C19 179.92(16) . .
C15 C14 C20 C21 178.72(15) . .
C13 C14 C20 C21 -0.7(2) . .
C19 C20 C21 C22 179.23(17) . .
C14 C20 C21 C22 -0.2(3) . .
C20 C21 C22 F4 -179.01(15) . .
C20 C21 C22 C12 0.9(3) . .
C13 C12 C22 C21 -0.7(3) . .
F3 C12 C22 C21 -179.52(16) . .
C13 C12 C22 F4 179.16(16) . .
F3 C12 C22 F4 0.4(3) . .
