#------------------------------------------------------------------------------
#$Date: 2019-11-12 04:49:54 +0200 (Tue, 12 Nov 2019) $
#$Revision: 227615 $
#$URL: file:///home/coder/svn-repositories/cod/cif/4/03/33/4033388.cif $
#------------------------------------------------------------------------------
#
# This file is available in the Crystallography Open Database (COD),
# http://www.crystallography.net/
#
# All data on this site have been placed in the public domain by the
# contributors.
#
data_4033388
loop_
_publ_author_name
'Moskowitz, Max'
'Balaraman, Kaluvu'
'Wolf, Christian'
_publ_section_title
;
 Organocatalytic Stereoselective Synthesis of Fluorinated 3,3'-Linked
 Bisoxindoles.
;
_journal_issue                   3
_journal_name_full               'The Journal of organic chemistry'
_journal_page_first              1661
_journal_page_last               1666
_journal_paper_doi               10.1021/acs.joc.7b03084
_journal_volume                  83
_journal_year                    2018
_chemical_formula_moiety         'C18 H15 F N2 O3'
_chemical_formula_sum            'C18 H15 F N2 O3'
_chemical_formula_weight         326.32
_chemical_name_systematic
(3S,3'S)-3-fluoro-3'-hydroxy-1,1'-dimethyl-[3,3'-biindoline]-2,2'-dione
_space_group_crystal_system      triclinic
_space_group_IT_number           2
_space_group_name_Hall           '-P 1'
_space_group_name_H-M_alt        'P -1'
_symmetry_cell_setting           triclinic
_symmetry_Int_Tables_number      2
_symmetry_space_group_name_Hall  '-P 1'
_symmetry_space_group_name_H-M   'P -1'
_atom_sites_solution_hydrogens   geom
_audit_creation_method           SHELXL-2014/7
_cell_angle_alpha                85.227(2)
_cell_angle_beta                 77.959(2)
_cell_angle_gamma                78.541(2)
_cell_formula_units_Z            2
_cell_length_a                   7.8941(5)
_cell_length_b                   8.2666(5)
_cell_length_c                   11.9759(8)
_cell_measurement_reflns_used    10283
_cell_measurement_temperature    100(2)
_cell_measurement_theta_max      28.2825
_cell_measurement_theta_min      2.506
_cell_volume                     748.37(8)
_computing_cell_refinement       'SAINT v.8.34A, Bruker-AXS'
_computing_data_collection       'APEX 3, Bruker-AXS'
_computing_data_reduction        'SAINT v. 8.27B, Bruker-AXS'
_computing_molecular_graphics    'X-Seed, L. Barbour(1999)'
_computing_structure_refinement  'SHELXL-2014/7 (Sheldrick, 2014)'
_computing_structure_solution    'SHELXS-Version 2013/1, G.Sheldrick'
_diffrn_ambient_temperature      100(2)
_diffrn_measured_fraction_theta_full 0.998
_diffrn_measured_fraction_theta_max 0.997
_diffrn_measurement_device_type  'Bruker D8 Quest CMOS'
_diffrn_measurement_method       'omega scans'
_diffrn_radiation_probe          x-ray
_diffrn_radiation_type           MoK\a
_diffrn_radiation_wavelength     0.71073
_diffrn_reflns_av_R_equivalents  0.0305
_diffrn_reflns_av_unetI/netI     0.0267
_diffrn_reflns_Laue_measured_fraction_full 0.998
_diffrn_reflns_Laue_measured_fraction_max 0.997
_diffrn_reflns_limit_h_max       10
_diffrn_reflns_limit_h_min       -10
_diffrn_reflns_limit_k_max       11
_diffrn_reflns_limit_k_min       -11
_diffrn_reflns_limit_l_max       16
_diffrn_reflns_limit_l_min       -16
_diffrn_reflns_number            16281
_diffrn_reflns_point_group_measured_fraction_full 0.998
_diffrn_reflns_point_group_measured_fraction_max 0.997
_diffrn_reflns_theta_full        25.000
_diffrn_reflns_theta_max         28.411
_diffrn_reflns_theta_min         2.516
_diffrn_source                   'sealed X-ray tube'
_exptl_absorpt_coefficient_mu    0.108
_exptl_absorpt_correction_T_max  0.7457
_exptl_absorpt_correction_T_min  0.7151
_exptl_absorpt_correction_type   multi-scan
_exptl_absorpt_process_details   'SADABS-2012/1, G. Sheldrick'
_exptl_crystal_colour            Colourless
_exptl_crystal_density_diffrn    1.448
_exptl_crystal_description       Block
_exptl_crystal_F_000             340
_exptl_crystal_recrystallization_method 'Slow evaporation'
_exptl_crystal_size_max          0.31
_exptl_crystal_size_mid          0.21
_exptl_crystal_size_min          0.21
_refine_diff_density_max         0.408
_refine_diff_density_min         -0.462
_refine_diff_density_rms         0.153
_refine_ls_extinction_method     none
_refine_ls_goodness_of_fit_ref   1.274
_refine_ls_hydrogen_treatment    constr
_refine_ls_matrix_type           full
_refine_ls_number_parameters     220
_refine_ls_number_reflns         3748
_refine_ls_number_restraints     0
_refine_ls_restrained_S_all      1.274
_refine_ls_R_factor_all          0.0511
_refine_ls_R_factor_gt           0.0411
_refine_ls_shift/su_max          0.000
_refine_ls_shift/su_mean         0.000
_refine_ls_structure_factor_coef Fsqd
_refine_ls_weighting_details
'w=1/[\s^2^(Fo^2^)+(0.1000P)^2^] where P=(Fo^2^+2Fc^2^)/3'
_refine_ls_weighting_scheme      calc
_refine_ls_wR_factor_gt          0.1470
_refine_ls_wR_factor_ref         0.1561
_reflns_Friedel_coverage         0.000
_reflns_number_gt                3271
_reflns_number_total             3748
_reflns_threshold_expression     'I > 2\s(I)'
_cod_data_source_file            jo7b03084_si_002.cif
_cod_data_source_block           F:\B16278\work\P1bar_a
_cod_depositor_comments          'Adding full bibliography for 4033388.cif.'
_cod_database_code               4033388
_shelx_shelxl_version_number     2014/7
_shelx_space_group_comment
;
The symmetry employed for this shelxl refinement is uniquely defined
by the following loop, which should always be used as a source of
symmetry information in preference to the above space-group names.
They are only intended as comments.
;
_shelx_res_file
;

    F:\B16278\work\P1bar_a.res created by SHELXL-2014/7

REM Old TITL P1bar in P-1
REM SHELXT solution in P-1
REM R1 0.106,  Rweak 0.006,  Alpha 0.025,  Orientation as input
REM Formula found by SHELXT:  C18 N2 O3 F
REM  P1bar_a.res in P-1
REM R1 =  0.0411 for    3271 Fo > 4sig(Fo)  and  0.0511 for all    3748 data
REM    220 parameters refined using      0 restraints
REM Highest difference peak  0.408,  deepest hole -0.462,  1-sigma level  0.153
TITL P1bar_a.res in P-1
CELL 0.71073 7.8941 8.2666 11.9759 85.227 77.959 78.541
ZERR 2.0000 0.0005 0.0005 0.0008 0.002 0.002 0.002
LATT 1
SFAC C H N O F
UNIT 36 30 4 6 2
MERG 2
FMAP 2
GRID
PLAN 20
TEMP -173
BOND $H
L.S. 10
ACTA 50
WGHT    0.100000
FVAR       1.12864
F1    5    0.671522    1.025488    0.722678    11.00000    0.02815    0.01256 =
         0.02338    0.00225   -0.00730   -0.00403
O2    4    1.017318    0.836792    0.644663    11.00000    0.02048    0.02332 =
         0.02181   -0.00137    0.00052   -0.01265
AFIX 147
H2    2    1.034813    0.880047    0.701274    11.00000   -1.20000
AFIX   0
O1    4    0.965019    0.540052    0.806162    11.00000    0.02052    0.02161 =
         0.01986    0.00281   -0.00638   -0.00378
O3    4    0.944034    0.954025    0.861341    11.00000    0.02279    0.02458 =
         0.02771   -0.00555   -0.00644   -0.00884
N2    3    0.716176    0.836541    0.968296    11.00000    0.01981    0.02057 =
         0.01525   -0.00411   -0.00481   -0.00319
N1    3    0.844999    0.492698    0.654844    11.00000    0.01763    0.01571 =
         0.02018   -0.00236   -0.00200   -0.00490
C17   1    0.812732    0.892853    0.871424    11.00000    0.01733    0.01405 =
         0.01922   -0.00359   -0.00501   -0.00208
C11   1    0.572124    0.791682    0.828067    11.00000    0.01453    0.01232 =
         0.01722   -0.00076   -0.00258   -0.00063
C10   1    0.727067    0.867480    0.770287    11.00000    0.01796    0.01153 =
         0.01703    0.00159   -0.00547   -0.00361
C16   1    0.570928    0.777824    0.944978    11.00000    0.01564    0.01326 =
         0.01801   -0.00215   -0.00245   -0.00081
C14   1    0.307833    0.668646    0.979136    11.00000    0.01663    0.02195 =
         0.03188    0.00089    0.00359   -0.00297
AFIX  43
H14   2    0.215855    0.626552    1.030250    11.00000   -1.20000
AFIX   0
C5    1    0.779812    0.588461    0.564287    11.00000    0.01382    0.02187 =
         0.01585   -0.00260    0.00072   -0.00412
C7    1    0.862459    0.769462    0.676324    11.00000    0.01626    0.01528 =
         0.01596    0.00086   -0.00277   -0.00634
C18   1    0.761902    0.832147    1.079765    11.00000    0.03008    0.03010 =
         0.01656   -0.00414   -0.01030   -0.00016
AFIX 137
H18A  2    0.801955    0.717301    1.104254    11.00000   -1.50000
H18B  2    0.658204    0.881410    1.135035    11.00000   -1.50000
H18C  2    0.856458    0.894759    1.075364    11.00000   -1.50000
AFIX   0
C8    1    0.899786    0.587107    0.722663    11.00000    0.01187    0.01603 =
         0.01739   -0.00069    0.00037   -0.00282
C12   1    0.440424    0.742735    0.786260    11.00000    0.01726    0.01827 =
         0.02217   -0.00335   -0.00615   -0.00185
AFIX  43
H12   2    0.439974    0.751452    0.706718    11.00000   -1.20000
AFIX   0
C6    1    0.786877    0.754108    0.573126    11.00000    0.01680    0.02181 =
         0.01383   -0.00185   -0.00157   -0.00405
C13   1    0.308045    0.680150    0.863857    11.00000    0.01415    0.01946 =
         0.03562   -0.00209   -0.00571   -0.00253
AFIX  43
H13   2    0.217030    0.645099    0.836645    11.00000   -1.20000
AFIX   0
C15   1    0.440307    0.717654    1.022820    11.00000    0.02104    0.02304 =
         0.01916   -0.00047    0.00107   -0.00155
AFIX  43
H15   2    0.440228    0.709823    1.102423    11.00000   -1.20000
AFIX   0
C3    1    0.664126    0.656289    0.395075    11.00000    0.02200    0.04966 =
         0.01869   -0.00978   -0.00469   -0.00462
AFIX  43
H3    2    0.621474    0.624209    0.333328    11.00000   -1.20000
AFIX   0
C1    1    0.732257    0.872477    0.492989    11.00000    0.02620    0.02636 =
         0.01814    0.00096   -0.00315   -0.00138
AFIX  43
H1    2    0.736944    0.985374    0.498718    11.00000   -1.20000
AFIX   0
C4    1    0.719720    0.535628    0.475755    11.00000    0.01940    0.03177 =
         0.02338   -0.01060   -0.00047   -0.00788
AFIX  43
H4    2    0.716245    0.422491    0.469841    11.00000   -1.20000
AFIX   0
C9    1    0.846989    0.317782    0.674050    11.00000    0.02858    0.01563 =
         0.03114   -0.00253    0.00120   -0.00659
AFIX 137
H9A   2    0.904635    0.276505    0.738506    11.00000   -1.50000
H9B   2    0.911967    0.260094    0.605298    11.00000   -1.50000
H9C   2    0.725717    0.297920    0.691393    11.00000   -1.50000
AFIX   0
C2    1    0.669865    0.821065    0.403187    11.00000    0.02675    0.04252 =
         0.01700   -0.00004   -0.00569    0.00305
AFIX  43
H2A   2    0.631074    0.900088    0.347254    11.00000   -1.20000
AFIX   0
HKLF 4

REM  P1bar_a.res in P-1
REM R1 =  0.0411 for    3271 Fo > 4sig(Fo)  and  0.0511 for all    3748 data
REM    220 parameters refined using      0 restraints

END

WGHT      0.0657      0.2973

REM Highest difference peak  0.408,  deepest hole -0.462,  1-sigma level  0.153
Q1    1   0.6395  0.8318  0.7917  11.00000  0.05    0.41
Q2    1   0.8082  0.7792  1.0961  11.00000  0.05    0.40
Q3    1   0.7425  0.8355  1.0144  11.00000  0.05    0.39
Q4    1   0.5566  0.5357  0.5933  11.00000  0.05    0.38
Q5    1   1.1283  0.7946  0.7745  11.00000  0.05    0.37
Q6    1   0.2505  0.7257  0.9334  11.00000  0.05    0.34
Q7    1   0.4979  0.4671  0.4634  11.00000  0.05    0.34
Q8    1   0.7694  0.8459  0.9205  11.00000  0.05    0.34
Q9    1   0.2391  0.8497  0.9473  11.00000  0.05    0.34
Q10   1   0.5502  1.0543  0.7102  11.00000  0.05    0.34
Q11   1   1.1088  0.3477  0.7050  11.00000  0.05    0.33
Q12   1   0.4945  0.9932  0.4259  11.00000  0.05    0.33
Q13   1   0.5209  1.0163  0.4996  11.00000  0.05    0.33
Q14   1   1.1194  0.3997  0.7479  11.00000  0.05    0.33
Q15   1   0.1657  0.8210  0.9069  11.00000  0.05    0.32
Q16   1   0.5269  0.5825  0.5446  11.00000  0.05    0.32
Q17   1   0.7924  1.0383  1.0615  11.00000  0.05    0.32
Q18   1   0.1620  0.7802  0.8323  11.00000  0.05    0.32
Q19   1   1.1610  0.8901  0.8102  11.00000  0.05    0.32
Q20   1   0.5035  0.8992  0.5631  11.00000  0.05    0.31
;
_shelx_res_checksum              40426
_shelx_hkl_file
;
  -1   0   0   75.79    2.80
  -1   0   0   73.39    2.90
  -1   0   0   75.99    2.90
   1   0   0   73.09    2.80
   1   0   0   74.99    2.90
   1   0   0   72.49    3.00
   1   0   0   70.29    3.00
   1   0   0   69.89    3.00
  -2   0   0 2834.82  101.69
   2   0   0 2876.91  101.69
   2   0   0 2878.11  101.69
  -3   0   0  951.00   34.90
  -3   0   0  952.40   34.70
  -3   0   0 1006.10   35.20
  -3   0   0  963.70   35.30
  -3   0   0  964.60   34.70
  -3   0   0 1007.70   35.30
   3   0   0 1005.10   34.90
   3   0   0  947.81   34.70
   3   0   0  972.70   35.30
   3   0   0  978.30   35.00
   3   0   0  965.70   34.80
   3   0   0  995.10   35.20
   3   0   0  977.70   35.40
  -4   0   0  302.17   12.60
  -4   0   0  303.07   12.30
  -4   0   0  328.27   11.50
   4   0   0  301.07   12.00
   4   0   0  322.37   11.60
   4   0   0  323.17   11.50
   4   0   0  316.57   12.90
  -5   0   0   45.50    2.70
  -5   0   0   46.10    3.10
  -5   0   0   46.70    2.10
   5   0   0   42.80    2.90
   5   0   0   47.70    2.20
   5   0   0   45.80    2.40
  -6   0   0   10.60    1.60
  -6   0   0   20.50    2.50
  -6   0   0   12.30    1.30
   6   0   0   17.40    1.80
   6   0   0   16.50    1.70
  -7   0   0  383.66   15.50
  -7   0   0  392.26   15.10
  -7   0   0  390.06   14.00
   7   0   0  337.87   14.80
   7   0   0  389.46   15.30
   7   0   0  372.66   14.60
  -8   0   0  251.37   13.40
   8   0   0  256.77   12.70
  -9   0   0   58.79    5.80
  -9   0   0   61.09    5.20
   9   0   0   56.89    4.30
   9   0   0   49.60    5.00
 -10   0   0   19.30    3.80
  10   0   0   18.20    3.10
   9  -1   0    7.20    2.90
  -9   1   0    4.80    3.20
  -9   1   0    7.80    2.90
   8  -1   0   27.80    3.80
   8  -1   0   22.50    3.20
  -8   1   0   26.40    3.70
  -8   1   0   24.40    3.20
   7  -1   0  195.18    8.80
   7  -1   0  188.98    8.00
  -7   1   0  192.28    8.60
  -7   1   0  186.68    9.00
   6  -1   0   19.80    2.50
   6  -1   0   18.60    1.90
   6  -1   0   18.20    2.00
  -6   1   0   18.80    2.40
  -6   1   0   24.60    2.40
   5  -1   0   28.10    2.40
   5  -1   0   26.00    1.70
   5  -1   0   27.40    1.80
  -5   1   0   29.40    2.20
  -5   1   0   28.70    2.00
   4  -1   0   50.19    2.90
  -4   1   0   48.10    2.30
  -4   1   0   49.80    2.70
  -4   1   0   51.49    3.00
   3  -1   0    5.50    0.70
   3  -1   0    4.90    1.00
  -3   1   0    3.60    0.90
  -3   1   0    5.30    0.70
   2  -1   0    7.00    0.60
   2  -1   0    6.00    0.80
   2  -1   0    7.10    0.80
  -2   1   0    5.80    0.80
  -2   1   0    5.60    0.60
  -2   1   0    6.30    0.70
  -2   1   0    6.80    0.60
   1  -1   0 2015.40   71.59
   0  -1   0   48.10    2.00
   0  -1   0   49.50    2.00
   0  -1   0   57.59    2.00
   0   1   0   47.90    2.00
   0   1   0   43.60    2.00
   0   1   0   52.29    1.90
   0   1   0   48.20    2.00
  -1  -1   0 5770.82  214.88
   1   1   0 5832.82  214.38
  -2  -1   0   60.59    2.40
  -2  -1   0   54.89    2.60
  -2  -1   0   64.69    2.40
  -2  -1   0   61.99    2.50
  -2  -1   0   58.19    2.40
  -2  -1   0   58.69    2.60
   2   1   0   58.69    2.60
   2   1   0   64.09    2.50
   2   1   0   65.29    2.60
   2   1   0   59.19    2.50
   2   1   0   60.09    2.60
  -3  -1   0 2189.88   78.39
  -3  -1   0 2195.08   78.39
  -3  -1   0 2189.28   78.69
  -3  -1   0 2227.88   78.69
  -3  -1   0 2244.78   78.29
   3   1   0 2194.18   78.59
   3   1   0 2228.88   78.59
   3   1   0 2183.08   78.39
   3   1   0 2184.48   78.29
   3   1   0 2200.48   78.19
  -4  -1   0  105.99    5.50
  -4  -1   0  118.29    4.90
  -4  -1   0  124.79    4.40
  -4  -1   0  115.79    4.60
   4   1   0  116.19    5.10
   4   1   0  119.49    4.80
   4   1   0  118.09    4.70
   4   1   0  117.09    4.60
  -5  -1   0   44.20    2.60
  -5  -1   0   45.80    2.60
  -5  -1   0   40.70    2.50
  -5  -1   0   40.70    2.90
  -5  -1   0   43.30    1.80
   5   1   0   43.10    2.90
   5   1   0   42.50    2.40
   5   1   0   42.10    2.30
  -6  -1   0   56.59    3.70
  -6  -1   0   58.19    3.40
   6   1   0   53.79    3.00
   6   1   0   56.09    3.60
  -7  -1   0   78.89    4.90
  -7  -1   0   76.09    4.30
   7   1   0   72.89    4.00
   7   1   0   79.69    4.80
   7   1   0   70.39    4.00
  -8  -1   0    4.20    2.10
  -8  -1   0   -2.90    2.10
   8   1   0    1.60    2.10
  -9  -1   0   -0.20    2.40
  -9  -1   0    2.80    3.00
   9   1   0    2.00    2.00
   9   1   0   -1.00    2.60
 -10  -1   0    1.50    3.20
 -10  -1   0    4.80    3.90
  10   1   0    7.10    3.40
  10   1   0    6.90    2.60
   9  -2   0  260.87   12.40
   9  -2   0  258.07   11.50
  -9   2   0  260.37   12.60
  -9   2   0  259.27   12.20
   8  -2   0  235.98   10.60
   8  -2   0  229.38   10.30
  -8   2   0  233.08   10.60
  -8   2   0  217.28   10.80
   7  -2   0  153.68    7.40
   7  -2   0  149.49    6.60
  -7   2   0  148.19    7.30
  -7   2   0  152.38    7.80
  -7   2   0  146.09    6.70
   6  -2   0   45.90    2.80
   6  -2   0   47.10    3.50
  -6   2   0   52.19    3.50
  -6   2   0   47.40    3.10
  -6   2   0   51.09    3.80
   5  -2   0    5.60    1.00
   5  -2   0    4.30    1.30
  -5   2   0    5.10    1.30
  -5   2   0    4.60    1.20
  -5   2   0    5.10    1.40
   4  -2   0   25.10    2.10
   4  -2   0   22.90    1.60
  -4   2   0   25.50    2.00
  -4   2   0   26.40    2.20
   3  -2   0    9.90    0.90
   3  -2   0    8.80    1.00
   2  -2   0  194.58    7.00
   2  -2   0  197.98    7.40
   2  -2   0  187.08    7.50
  -2   2   0  199.88    7.40
  -2   2   0  181.88    7.50
  -2   2   0  185.28    7.40
  -2   2   0  187.68    7.40
  -2   2   0  186.28    7.00
  -1   2   0 7112.69  262.37
   0  -2   0 1479.55   51.09
   0  -2   0 1448.06   50.99
   0  -2   0 1416.46   51.09
   0   2   0 1426.86   51.09
   0   2   0 1458.35   50.99
   0   2   0 1314.77   50.99
   0   2   0 1447.66   51.09
   0   2   0 1498.35   51.29
  -1  -2   0   89.59    3.50
  -1  -2   0   91.39    3.50
  -1  -2   0   94.59    3.70
  -1  -2   0   95.39    3.60
  -1  -2   0   97.09    3.60
   1   2   0   98.09    3.50
   1   2   0   85.79    3.80
   1   2   0   99.99    3.60
   1   2   0   89.19    3.70
   1   2   0   92.19    3.50
  -2  -2   0  171.48    6.50
  -2  -2   0  162.48    6.10
  -2  -2   0  155.78    6.10
  -2  -2   0  162.98    6.20
   2   2   0  159.18    6.10
   2   2   0  159.78    6.10
   2   2   0  166.18    6.00
   2   2   0  160.98    6.20
   2   2   0  151.88    6.20
  -3  -2   0 1961.60   69.69
  -3  -2   0 1912.51   69.79
  -3  -2   0 1955.30   69.79
  -3  -2   0 1965.70   69.89
  -3  -2   0 1947.01   69.99
  -3  -2   0 1972.40   69.79
   3   2   0 1944.01   69.79
   3   2   0 1973.00   69.69
   3   2   0 1946.01   69.89
   3   2   0 2015.80   69.79
  -4  -2   0   28.90    2.30
  -4  -2   0   27.90    1.60
  -4  -2   0   28.40    2.10
   4   2   0   29.80    1.70
   4   2   0   24.50    2.20
  -5  -2   0  258.37    9.40
  -5  -2   0  262.97   10.10
   5   2   0  259.27    9.90
   5   2   0  249.08   10.20
   5   2   0  249.18   10.00
  -6  -2   0  640.54   24.40
  -6  -2   0  658.53   24.90
   6   2   0  651.33   24.30
   6   2   0  685.33   25.20
   6   2   0  654.23   24.30
  -7  -2   0  283.07   12.10
  -7  -2   0  280.07   11.60
   7   2   0  293.47   11.60
   7   2   0  280.47   11.30
  -8  -2   0   42.70    4.40
  -8  -2   0   42.70    3.90
   8   2   0   37.10    3.40
  -9  -2   0   52.19    5.60
   9   2   0   40.50    5.00
   9   2   0   46.00    3.90
 -10  -2   0   37.60    5.10
 -10  -2   0   36.40    4.60
   9  -3   0   31.20    4.60
   9  -3   0   33.10    4.60
  -9   3   0   26.90    4.30
  -9   3   0   36.90    5.00
   8  -3   0   64.89    5.00
   8  -3   0   72.99    5.40
   8  -3   0   76.19    5.80
  -8   3   0   72.09    5.50
  -8   3   0   64.69    5.80
   7  -3   0   91.09    5.80
   7  -3   0   92.19    5.60
  -7   3   0   87.99    5.90
  -7   3   0   91.79    5.20
  -7   3   0   86.99    5.60
   6  -3   0   83.49    4.10
   6  -3   0   88.59    5.00
   6  -3   0   84.89    5.00
  -6   3   0   83.59    4.90
  -6   3   0   93.89    4.80
  -6   3   0   86.99    5.20
   5  -3   0   18.60    2.30
   5  -3   0   20.20    2.40
   5  -3   0   21.20    1.70
  -5   3   0   18.70    2.30
  -5   3   0   18.70    2.50
  -5   3   0   24.90    2.50
   4  -3   0  107.79    4.40
   4  -3   0  113.29    5.10
   4  -3   0  101.99    5.00
  -4   3   0  106.49    5.00
  -4   3   0  107.99    5.10
  -4   3   0  110.49    5.10
   3  -3   0   83.79    4.00
   3  -3   0   88.39    3.50
   3  -3   0   86.69    4.00
  -3   3   0   88.99    4.10
  -3   3   0   88.19    4.20
   2  -3   0  125.09    4.90
   2  -3   0  138.99    5.00
   2  -3   0  121.79    5.80
   2  -3   0  136.09    5.40
  -2   3   0  131.29    5.60
  -2   3   0  141.69    6.60
  -2   3   0  136.79    5.20
   1  -3   0    5.80    0.80
   1  -3   0    6.70    1.50
   1  -3   0    5.50    0.90
   1  -3   0    6.50    0.80
   1  -3   0    7.40    1.00
  -1   3   0    6.00    0.90
  -1   3   0    6.40    0.90
  -1   3   0    7.50    0.90
   0  -3   0  892.21   31.10
   0  -3   0  936.21   31.60
   0  -3   0  882.41   31.30
   0  -3   0  776.22   31.00
   0   3   0  802.62   31.10
   0   3   0  864.31   31.30
   0   3   0  916.01   31.10
   0   3   0  890.11   31.30
  -1  -3   0 2180.88   77.89
  -1  -3   0 2249.18   77.49
  -1  -3   0 2195.98   77.69
  -1  -3   0 2207.68   77.39
  -1  -3   0 2218.48   77.79
  -1  -3   0 2205.08   77.59
   1   3   0 2119.89   77.79
   1   3   0 2184.98   77.99
   1   3   0 2116.69   77.49
   1   3   0 2166.68   77.69
  -2  -3   0  163.88    6.10
  -2  -3   0  161.48    6.20
  -2  -3   0  164.78    6.00
  -2  -3   0  140.29    6.70
  -2  -3   0  155.98    6.20
   2   3   0  168.88    6.10
   2   3   0  158.08    6.50
   2   3   0  155.98    6.10
   2   3   0  173.38    6.40
  -4  -3   0 1562.04   57.89
  -4  -3   0 1628.14   57.69
  -4  -3   0 1610.34   57.59
   4   3   0 1612.74   57.79
   4   3   0 1610.34   57.49
   4   3   0 1632.94   57.69
  -5  -3   0 1444.46   48.90
  -5  -3   0 1306.17   48.40
   5   3   0 1332.57   48.60
   5   3   0 1322.57   48.80
  -6  -3   0   64.29    4.00
  -6  -3   0   61.09    3.50
  -6  -3   0   66.09    2.90
   6   3   0   57.29    3.90
   6   3   0   70.29    3.50
   6   3   0   64.19    3.90
  -7  -3   0  296.97   11.70
  -7  -3   0  290.27   12.20
   7   3   0  285.07   11.40
   7   3   0  284.47   11.80
   7   3   0  272.57   11.60
  -8  -3   0  166.58    8.70
  -8  -3   0  168.48    8.00
   8   3   0  171.38    7.70
   8   3   0  172.58    8.30
  -9  -3   0   54.69    5.00
  -9  -3   0   61.79    5.90
   9   3   0   68.79    4.50
 -10  -3   0   57.09    6.00
  10   3   0   62.69    8.50
  10   3   0   68.69    5.30
   8  -4   0   60.59    5.40
   8  -4   0   75.99    5.40
  -8   4   0   68.59    6.00
   7  -4   0   20.40    3.30
   7  -4   0   21.00    2.90
   7  -4   0   20.90    2.70
  -7   4   0   16.50    2.90
  -7   4   0   15.20    2.90
  -7   4   0   19.90    3.20
   6  -4   0  238.38   10.00
   6  -4   0  218.98    9.00
   6  -4   0  238.18   10.10
  -6   4   0  234.08   10.30
  -6   4   0  230.08   10.20
  -6   4   0  212.48    9.90
   5  -4   0    2.30    1.30
   5  -4   0    3.70    1.50
   5  -4   0    3.00    1.00
  -5   4   0    1.60    1.50
  -5   4   0    2.60    1.60
  -5   4   0    2.20    1.50
   4  -4   0  257.27   10.30
   4  -4   0  262.87    9.60
   4  -4   0  238.08   10.20
  -4   4   0  256.37   10.50
  -4   4   0  261.47   10.50
   3  -4   0   45.90    2.00
   3  -4   0   40.80    2.60
  -3   4   0   45.70    2.80
  -3   4   0   41.20    2.20
   2  -4   0 1712.33   59.69
   2  -4   0 1609.24   59.59
  -2   4   0 1685.63   59.89
  -2   4   0 1657.23   60.09
   1  -4   0 3700.33  119.09
   1  -4   0 3257.37  119.09
  -1   4   0 3463.15  119.29
  -1   4   0 3277.37  119.59
  -1   4   0 3132.99  119.29
  -1   4   0 3298.07  119.39
   0  -4   0  156.18    6.20
   0  -4   0  151.38    6.20
   0  -4   0  166.98    5.90
   0  -4   0  137.79    6.70
   0   4   0  163.08    6.30
  -1  -4   0 1810.22   65.19
  -1  -4   0 1924.71   65.09
  -1  -4   0 1832.52   65.49
  -1  -4   0 1856.41   65.39
   1   4   0 1922.91   65.99
   1   4   0 1647.14   65.09
   1   4   0 1857.91   65.69
  -2  -4   0   43.70    2.30
  -2  -4   0   42.60    2.10
   2   4   0   46.80    2.60
   2   4   0   44.70    2.00
   2   4   0   41.60    2.60
  -3  -4   0  542.15   20.20
  -3  -4   0  569.44   20.20
  -3  -4   0  561.34   20.00
   3   4   0  546.35   20.50
   3   4   0  527.25   19.90
   3   4   0  546.15   20.40
  -4  -4   0  243.28   10.50
  -4  -4   0  220.88    9.00
  -4  -4   0  235.08    9.10
   4   4   0  232.38    8.90
   4   4   0  231.28    9.30
   4   4   0  224.78    9.00
  -5  -4   0  108.69    5.20
  -5  -4   0  101.29    4.90
  -5  -4   0  110.59    5.10
  -5  -4   0  103.59    5.10
   5   4   0  111.59    5.00
   5   4   0  113.99    4.80
  -6  -4   0  384.06   15.50
  -6  -4   0  402.06   15.60
  -6  -4   0  371.56   15.10
   6   4   0  399.76   15.40
   6   4   0  397.26   15.20
   6   4   0  389.66   14.90
  -7  -4   0   42.40    4.10
  -7  -4   0   53.29    3.50
   7   4   0   47.90    3.40
   7   4   0   60.89    5.70
  -8  -4   0   57.09    4.40
   8   4   0   63.69    4.10
   8   4   0   55.29    4.70
  -9  -4   0    7.20    2.70
  -9  -4   0   -2.90    3.00
   9   4   0    2.70    2.90
   9   4   0    7.10    2.40
 -10  -4   0    3.00    3.30
  10   4   0    4.20    2.90
  10   4   0    7.70    3.50
   8  -5   0   37.40    4.50
   8  -5   0   49.20    4.90
  -8   5   0   41.20    4.90
   7  -5   0   12.30    2.60
   7  -5   0    5.00    2.60
  -7   5   0   14.70    3.20
  -7   5   0   12.30    3.10
  -7   5   0   13.50    3.30
   6  -5   0    3.20    1.90
   6  -5   0    5.20    2.20
  -6   5   0    1.50    2.30
  -6   5   0    6.30    3.20
   5  -5   0   41.50    3.30
   5  -5   0   41.20    3.30
   5  -5   0   31.40    2.30
  -5   5   0   36.70    3.60
  -5   5   0   32.20    3.80
   4  -5   0    3.00    0.80
   4  -5   0    1.00    1.10
   4  -5   0    1.70    1.30
  -4   5   0    0.20    1.40
   3  -5   0  401.76   15.90
   3  -5   0  449.06   16.00
  -3   5   0  420.76   16.30
  -3   5   0  400.26   15.60
  -3   5   0  428.46   16.50
   2  -5   0  909.21   32.90
  -2   5   0  862.61   33.50
  -2   5   0  944.51   33.30
   1  -5   0   87.19    3.80
   1  -5   0   88.29    4.10
  -1   5   0   87.39    4.20
  -1   5   0   89.89    4.60
   0  -5   0    2.70    0.70
   0  -5   0    1.90    0.80
   0   5   0    3.70    1.00
   0   5   0    1.40    0.80
   0   5   0    3.70    1.20
   0   5   0    1.90    0.90
  -1  -5   0    1.70    0.50
  -1  -5   0    1.60    0.70
  -1  -5   0    1.50    0.60
   1   5   0    3.40    1.20
   1   5   0    0.30    0.80
  -2  -5   0  480.55   17.40
  -2  -5   0  478.65   17.70
  -2  -5   0  471.25   17.60
   2   5   0  497.55   18.90
   2   5   0  463.05   18.20
   2   5   0  471.05   17.20
  -3  -5   0   37.40    2.20
  -3  -5   0   39.20    2.40
  -3  -5   0   41.90    2.40
   3   5   0   38.90    2.10
   3   5   0   37.60    2.90
   3   5   0   36.90    2.60
  -4  -5   0   22.80    2.00
  -4  -5   0   19.30    2.00
   4   5   0   19.80    1.70
   4   5   0   18.50    2.60
   4   5   0   21.40    2.20
  -5  -5   0   33.60    3.00
  -5  -5   0   33.90    2.80
  -5  -5   0   35.50    2.70
  -5  -5   0   35.30    2.70
   5   5   0   36.70    2.60
   5   5   0   31.90    2.90
   5   5   0   35.40    3.10
   5   5   0   32.50    2.40
  -6  -5   0  480.45   18.30
  -6  -5   0  473.25   18.70
  -6  -5   0  474.45   18.30
  -6  -5   0  470.95   18.40
   6   5   0  479.55   18.70
   6   5   0  484.95   18.10
   6   5   0  486.05   18.20
  -7  -5   0  214.08    9.90
   7   5   0  219.78    9.30
   7   5   0  210.28    9.00
   7   5   0  222.18   10.30
  -8  -5   0   20.00    3.90
  -8  -5   0   22.60    3.50
   8   5   0   24.50    3.20
   8   5   0   22.30    3.20
  -9  -5   0  154.68    8.20
  -9  -5   0  150.08    9.20
   9   5   0  170.78    9.10
   9   5   0  161.58    7.90
   7  -6   0   57.29    5.20
   7  -6   0   63.49    5.10
  -7   6   0   50.19    6.60
  -7   6   0   46.80    6.20
   6  -6   0   95.29    5.80
   6  -6   0  107.49    6.00
  -6   6   0   90.89    6.40
   5  -6   0   88.59    6.00
   5  -6   0  103.19    5.40
  -5   6   0   97.69    6.30
  -5   6   0  100.89    6.00
   4  -6   0   93.09    4.80
   4  -6   0   92.49    4.90
  -4   6   0   96.79    5.60
   3  -6   0 1834.92   65.59
  -3   6   0 1847.32   66.09
  -3   6   0 1788.82   67.59
   2  -6   0  198.58    7.60
   2  -6   0  161.58    7.60
  -2   6   0  187.88    8.10
  -2   6   0  191.58    8.00
  -2   6   0  182.78    8.50
   1  -6   0    9.60    1.50
   1  -6   0   10.80    1.40
   1  -6   0   11.30    1.20
  -1   6   0   11.50    2.00
  -1   6   0   11.10    1.70
  -1   6   0   13.90    1.80
   0  -6   0  260.87    9.50
   0  -6   0  255.97   10.00
   0  -6   0  259.77    9.70
   0   6   0  249.97   10.60
   0   6   0  233.38   10.20
   0   6   0  247.48   10.10
  -1  -6   0   18.70    1.90
  -1  -6   0   18.60    1.50
   1   6   0   17.70    1.80
   1   6   0   18.90    2.50
  -2  -6   0  309.17   12.50
  -2  -6   0  325.47   12.80
  -2  -6   0  315.77   12.60
   2   6   0  360.96   12.20
   2   6   0  351.06   13.30
  -3  -6   0   10.40    1.50
  -3  -6   0   11.10    1.30
  -3  -6   0    8.50    1.30
   3   6   0    7.30    1.60
   3   6   0   14.20    1.40
  -4  -6   0  395.66   16.70
  -4  -6   0  450.75   16.50
  -4  -6   0  447.06   16.50
   4   6   0  427.86   17.00
   4   6   0  433.06   16.00
  -5  -6   0  195.98    8.20
  -5  -6   0  189.08    8.30
   5   6   0  190.48    7.80
   5   6   0  189.48    8.70
  -6  -6   0  469.05   19.00
  -6  -6   0  474.75   20.00
  -6  -6   0  496.25   18.90
   6   6   0  496.95   19.30
   6   6   0  501.75   18.40
   6   6   0  467.15   18.30
  -7  -6   0   94.19    5.20
  -7  -6   0   85.09    7.60
   7   6   0   80.19    4.70
   7   6   0   82.59    5.90
  -8  -6   0    9.90    3.20
  -8  -6   0    9.60    2.60
  -9  -6   0   20.80    3.60
   9   6   0   22.10    3.70
   6  -7   0    0.80    2.30
  -6   7   0   -0.40    2.90
  -6   7   0    8.10    3.80
   5  -7   0   54.09    4.00
   5  -7   0   46.50    4.00
  -5   7   0   46.50    5.50
  -5   7   0   45.70    5.00
   4  -7   0  221.08    9.30
   4  -7   0  220.98    9.10
  -4   7   0  203.48    9.90
   3  -7   0  161.98    7.80
  -3   7   0  174.38    8.80
  -3   7   0  179.58    8.30
   2  -7   0  135.69    6.00
   2  -7   0  140.49    6.50
  -2   7   0  135.39    7.30
  -2   7   0  140.49    6.80
   1  -7   0  139.79    6.20
   1  -7   0  130.39    5.70
  -1   7   0  129.99    6.50
  -1   7   0  135.39    7.00
  -1   7   0  128.59    6.30
   0  -7   0   65.59    3.30
   0  -7   0   69.09    3.80
   0  -7   0   67.29    3.10
   0   7   0   66.29    4.00
   0   7   0   62.49    4.20
   0   7   0   62.69    4.60
  -1  -7   0  268.27   10.90
  -1  -7   0  254.27   10.20
  -1  -7   0  274.07   10.50
   1   7   0  277.07   11.40
   1   7   0  287.37   11.90
  -2  -7   0    2.10    1.20
  -2  -7   0    3.50    1.10
   2   7   0    0.40    1.50
  -3  -7   0    3.00    1.30
  -3  -7   0    1.80    1.30
   3   7   0    2.30    1.40
   3   7   0    2.60    2.00
   3   7   0    1.60    1.50
  -4  -7   0   78.79    4.40
  -4  -7   0   87.99    4.50
   4   7   0   78.59    3.80
   4   7   0   79.59    5.10
  -5  -7   0  468.45   17.90
   5   7   0  453.85   17.20
   5   7   0  446.36   18.60
   5   7   0  465.45   18.50
  -6  -7   0   56.39    4.30
  -6  -7   0   58.69    4.90
  -6  -7   0   60.99    4.70
   6   7   0   52.89    4.80
   6   7   0   50.29    6.60
  -7  -7   0    3.70    2.60
  -7  -7   0    0.30    2.30
  -8  -7   0   10.60    3.40
  -8  -7   0   -1.50    2.60
   8   7   0    5.90    2.40
   8   7   0    5.40    3.30
   9   7   0    4.80    4.00
   9   7   0   -0.80    2.70
   5  -8   0    5.30    2.30
  -5   8   0   10.60    3.30
   4  -8   0   60.19    4.20
  -4   8   0   63.29    5.60
   3  -8   0  400.76   15.60
   3  -8   0  420.06   15.50
   3  -8   0  404.36   16.20
  -3   8   0  381.16   17.30
  -3   8   0  397.06   16.50
   2  -8   0   10.30    1.70
   2  -8   0    5.60    2.00
   2  -8   0    8.60    1.40
  -2   8   0    7.90    2.30
  -2   8   0    8.30    3.00
  -2   8   0    8.30    3.00
   1  -8   0   19.40    2.50
   1  -8   0   18.40    2.10
   1  -8   0   20.20    2.70
  -1   8   0   21.50    2.80
   0  -8   0   -0.60    1.40
   0  -8   0   -1.40    1.00
   0   8   0    1.00    2.30
  -1  -8   0    5.50    1.40
  -1  -8   0    5.30    1.30
  -1  -8   0    3.30    1.60
   1   8   0    8.50    2.70
   1   8   0    7.90    2.30
  -2  -8   0  215.38    9.20
  -2  -8   0  242.58    9.60
  -2  -8   0  236.08    9.50
   2   8   0  221.98   10.60
   2   8   0  206.18   10.10
  -3  -8   0    6.30    1.90
  -3  -8   0    2.90    1.50
   3   8   0    7.80    2.70
   3   8   0    3.80    2.20
  -4  -8   0   73.49    4.40
  -4  -8   0   63.49    4.40
  -5  -8   0   20.90    2.80
  -5  -8   0   20.60    2.80
   5   8   0   23.20    2.50
   5   8   0   23.50    3.50
  -6  -8   0    3.80    2.40
  -6  -8   0    1.60    2.40
  -6  -8   0    1.10    2.90
   6   8   0    0.90    2.80
  -7  -8   0  134.29    7.70
  -7  -8   0  123.89    7.10
   7   8   0  120.29    6.30
   7   8   0  119.69    8.40
   8   8   0   52.99    6.80
   4  -9   0   -2.50    2.00
   4  -9   0   -0.70    2.70
  -4   9   0    3.30    3.20
   3  -9   0   47.80    3.70
   3  -9   0   59.09    5.00
  -3   9   0   46.90    5.00
  -3   9   0   54.39    6.70
   2  -9   0    2.80    1.70
   2  -9   0    1.60    2.20
  -2   9   0   -1.10    3.20
  -2   9   0   -3.50    2.20
   1  -9   0    1.60    1.40
   1  -9   0    3.00    2.00
   1  -9   0    0.30    1.50
  -1   9   0    1.80    3.10
  -1   9   0    4.00    2.30
   0  -9   0   16.60    2.20
   0  -9   0   19.20    2.70
   0  -9   0   21.40    2.60
   0   9   0   15.40    3.10
  -1  -9   0   50.49    3.50
  -1  -9   0   58.59    4.30
   1   9   0   60.49    5.90
   1   9   0   50.09    5.40
  -2  -9   0  113.09    5.60
  -2  -9   0  108.99    6.10
   2   9   0  109.39    7.00
   2   9   0  106.79    7.50
  -3  -9   0   41.30    3.50
  -3  -9   0   37.10    3.90
   3   9   0   43.30    5.60
  -4  -9   0   99.89    5.60
  -4  -9   0   99.39    6.00
   4   9   0  103.89    7.20
  -5  -9   0   28.80    3.50
  -5  -9   0   34.40    4.00
   5   9   0   25.20    7.60
   5   9   0   33.50    4.40
  -6  -9   0   10.00    2.90
  -6  -9   0    7.50    3.10
  -6  -9   0   14.20    4.70
   6   9   0    5.40    3.60
  -7  -9   0   16.10    3.90
   2 -10   0   17.60    2.60
   2 -10   0   21.80    3.50
  -2  10   0   15.30    4.80
   1 -10   0    3.20    2.60
   1 -10   0    2.60    2.90
  -1  10   0    7.00    4.20
   0 -10   0   14.50    2.30
   0 -10   0   17.30    2.90
   0  10   0    7.90    3.80
   0  10   0   10.40    4.20
  -1 -10   0    1.80    2.30
  -1 -10   0    5.70    1.90
   1  10   0    2.50    3.40
  -2 -10   0   62.49    4.50
   2  10   0   55.19    6.20
   2  10   0   59.09    7.00
  -3 -10   0  387.26   16.30
  -3 -10   0  397.06   16.10
   3  10   0  401.96   17.70
   3  10   0  421.66   18.70
  -4 -10   0   11.10    2.70
  -4 -10   0   11.60    3.00
   4  10   0   15.00    3.90
  -5 -10   0   41.60    4.90
  -5 -10   0   27.60    3.60
   5  10   0   29.40    5.70
  -6 -10   0   -4.40    5.10
   6  10   0  -10.30    4.00
  -2 -11   0   62.39    5.60
   2  11   0   45.40    7.20
   5  10  -1    2.60    5.00
  -5 -10   1    2.50    3.60
   4  10  -1   11.50    3.80
  -4 -10   1    4.50    2.80
   3  10  -1  116.29    7.90
  -3 -10   1   98.79    6.10
  -3 -10   1  106.69    6.50
   2  10  -1    4.50    3.40
   2  10  -1    2.10    3.70
  -2 -10   1    2.30    2.50
  -2 -10   1    2.80    2.20
   1  10  -1   21.60    4.10
  -1 -10   1   29.40    3.40
  -1 -10   1   23.90    3.30
   0  10  -1   13.40    3.90
   0 -10   1   14.70    2.50
   0 -10   1   18.40    3.10
  -1  10  -1   93.09    8.10
  -2  10  -1   35.60    5.50
   2 -10   1   37.00    5.00
   2 -10   1   41.00    5.00
  -7  -9   1   18.10    4.00
   6   9  -1   12.10    3.70
   6   9  -1   10.90    6.40
  -6  -9   1    8.40    3.20
   5   9  -1  108.69   11.40
   5   9  -1  128.09    7.80
  -5  -9   1  105.59    6.60
  -5  -9   1  111.39    6.40
   4   9  -1   42.20    5.10
  -4  -9   1   29.60    3.90
  -4  -9   1   35.90    4.20
   3   9  -1   -0.80    3.00
  -3  -9   1   -0.20    1.80
   2   9  -1   56.09    5.90
   2   9  -1   51.99    5.30
  -2  -9   1   49.40    3.80
   1   9  -1   89.39    6.60
   1   9  -1   82.89    6.20
  -1  -9   1   82.89    4.60
  -1  -9   1   80.29    5.10
   0   9  -1    3.70    2.70
   0   9  -1   -0.60    2.80
   0  -9   1    3.70    1.60
   0  -9   1    3.70    2.10
  -1   9  -1    1.80    3.10
  -1   9  -1    0.30    2.30
   1  -9   1    4.00    1.60
   1  -9   1    0.30    1.50
   1  -9   1   -2.70    2.10
  -2   9  -1   23.50    4.30
  -2   9  -1   23.90    3.50
   2  -9   1   23.60    3.20
   2  -9   1   22.60    3.20
   2  -9   1   26.60    3.10
  -3   9  -1    8.60    6.30
   3  -9   1    4.40    2.10
   3  -9   1    2.90    2.60
   3  -9   1   -0.20    1.80
  -4   9  -1   82.69    7.00
   4  -9   1   87.59    6.30
   4  -9   1   86.99    5.30
   4  -9   1   94.29    5.40
   7   8  -1    3.30    2.30
  -7  -8   1   10.60    3.10
  -7  -8   1    2.00    3.30
   6   8  -1    2.40    2.70
   6   8  -1    0.50    2.40
  -6  -8   1    1.10    2.50
  -6  -8   1   -0.20    2.40
  -6  -8   1   -0.60    3.00
   5   8  -1    1.30    2.50
   5   8  -1    8.80    2.50
  -5  -8   1    6.90    2.30
  -5  -8   1    6.80    2.20
   4   8  -1  169.58    8.40
  -4  -8   1  136.69    9.30
  -4  -8   1  163.68    7.40
   3   8  -1   31.80    3.90
   3   8  -1   28.90    3.70
  -3  -8   1   22.60    2.80
   2   8  -1   55.19    4.40
   2   8  -1   53.29    4.90
  -2  -8   1   60.39    3.60
  -2  -8   1   53.99    3.40
   1   8  -1   78.29    5.00
   1   8  -1   73.89    5.50
  -1  -8   1   71.89    3.90
  -1  -8   1   71.59    4.30
  -1  -8   1   68.59    4.30
   0   8  -1  180.08    8.90
   0  -8   1  174.58    7.70
   0  -8   1  171.58    7.30
   0  -8   1  162.18    7.00
  -1   8  -1    5.70    2.00
   1  -8   1    8.20    2.00
  -2   8  -1   62.89    4.50
  -2   8  -1   53.59    5.30
   2  -8   1   51.29    4.20
   2  -8   1   56.49    3.50
   2  -8   1   60.19    4.40
  -3   8  -1    4.60    2.40
  -3   8  -1    3.90    2.90
   3  -8   1    8.30    2.30
   3  -8   1    5.70    2.20
   3  -8   1    3.30    1.70
  -4   8  -1   74.39    5.70
  -4   8  -1   65.09    6.30
   4  -8   1   67.29    4.80
  -5   8  -1    6.40    3.80
  -5   8  -1    7.80    3.20
   5  -8   1    5.40    2.30
   8   7  -1   25.80    3.20
   8   7  -1   25.50    4.30
  -8  -7   1   29.50    4.30
   7   7  -1   -0.20    2.80
   7   7  -1   -2.10    1.90
  -7  -7   1    3.00    2.70
  -7  -7   1    4.20    3.60
   6   7  -1   46.10    4.60
  -6  -7   1   40.40    3.90
  -6  -7   1   40.90    4.30
  -6  -7   1   49.60    4.60
   5   7  -1   85.39    4.40
   5   7  -1   95.19    5.60
   5   7  -1   98.39    7.90
  -5  -7   1   89.89    5.00
  -5  -7   1   94.19    5.30
  -5  -7   1   84.19    5.60
   4   7  -1  412.46   17.20
   4   7  -1  439.76   16.10
  -4  -7   1  445.36   17.80
  -4  -7   1  427.86   16.70
   3   7  -1    6.80    2.10
   3   7  -1    4.00    1.70
  -3  -7   1    3.20    2.10
  -3  -7   1    2.90    1.20
  -3  -7   1    1.70    1.40
   2   7  -1    0.20    1.40
   2   7  -1   -3.20    1.80
  -2  -7   1    1.70    1.20
  -2  -7   1    1.00    1.20
  -2  -7   1    1.70    1.10
   1   7  -1   48.50    3.50
   1   7  -1   39.20    3.70
  -1  -7   1   40.20    2.90
  -1  -7   1   42.70    2.60
  -1  -7   1   42.70    2.60
   0   7  -1  181.98    8.40
   0   7  -1  191.88    8.90
   0   7  -1  185.68    8.20
   0  -7   1  200.58    7.80
   0  -7   1  190.38    8.00
  -1   7  -1   82.89    4.70
  -1   7  -1   82.79    5.10
  -1   7  -1   80.79    4.50
   1  -7   1   77.49    4.30
   1  -7   1   73.99    3.90
  -2   7  -1  497.25   19.30
  -2   7  -1  490.15   19.90
   2  -7   1  507.65   18.70
   2  -7   1  496.55   19.10
  -3   7  -1  190.98    8.80
  -3   7  -1  194.28    9.40
   3  -7   1  178.28    8.10
  -4   7  -1   60.39    4.90
  -4   7  -1   59.79    5.60
   4  -7   1   60.89    3.80
   4  -7   1   57.79    3.90
  -5   7  -1   42.00    5.50
  -5   7  -1   53.19    5.00
   5  -7   1   49.50    4.00
   5  -7   1   52.39    3.90
  -6   7  -1   37.50    4.50
  -6   7  -1   37.80    5.80
   6  -7   1   40.00    4.30
   9   6  -1   40.10    5.50
  -9  -6   1   38.30    5.20
  -8  -6   1   10.70    2.70
  -8  -6   1   11.90    3.30
   7   6  -1    5.30    3.20
   7   6  -1    3.70    1.90
  -7  -6   1    4.30    2.60
  -7  -6   1   -0.50    2.10
  -7  -6   1    5.30    2.10
   6   6  -1  172.88    7.80
   6   6  -1  171.48    8.10
   6   6  -1  176.18    7.50
   6   6  -1  169.08    8.30
  -6  -6   1  193.38    9.60
  -6  -6   1  165.58    8.00
  -6  -6   1  184.68    8.50
   5   6  -1  372.06   15.10
   5   6  -1  383.76   14.40
   5   6  -1  376.86   15.20
  -5  -6   1  384.96   14.70
  -5  -6   1  384.86   14.70
  -5  -6   1  360.36   14.90
   4   6  -1   54.49    3.00
   4   6  -1   59.29    3.70
  -4  -6   1   54.79    3.40
  -4  -6   1   55.09    3.40
  -4  -6   1   57.09    3.30
   3   6  -1  391.46   15.60
   3   6  -1  401.86   18.10
   3   6  -1  467.05   15.90
   3   6  -1  436.06   16.80
  -3  -6   1  446.16   16.30
  -3  -6   1  438.46   16.30
   2   6  -1    9.60    1.20
   2   6  -1   12.30    1.10
   2   6  -1   11.50    1.70
  -2  -6   1   11.40    1.40
  -2  -6   1    9.60    1.00
  -2  -6   1    9.90    1.30
   1   6  -1   43.20    3.20
   1   6  -1   45.30    3.10
  -1  -6   1   42.50    2.60
  -1  -6   1   46.50    2.40
  -1  -6   1   40.40    2.40
   0   6  -1    7.50    1.70
   0   6  -1    7.20    1.40
   0   6  -1    9.00    1.50
   0  -6   1    6.30    1.00
   0  -6   1    9.60    1.30
   0  -6   1    8.30    1.00
  -1   6  -1   59.79    3.60
  -1   6  -1   60.49    4.00
  -1   6  -1   63.79    3.60
   1  -6   1   65.99    3.00
   1  -6   1   65.59    3.50
   1  -6   1   61.69    3.10
  -2   6  -1  183.28    7.90
  -2   6  -1  189.78    8.40
  -2   6  -1  170.38    7.60
   2  -6   1  183.18    7.30
   2  -6   1  174.18    7.20
  -3   6  -1   93.29    5.50
  -3   6  -1   88.89    5.00
   3  -6   1   88.89    4.40
   3  -6   1   86.59    4.30
  -4   6  -1   44.00    4.30
  -4   6  -1   35.90    3.70
   4  -6   1   43.20    3.10
   4  -6   1   47.00    3.10
  -5   6  -1  122.79    6.70
  -5   6  -1  118.19    6.90
   5  -6   1  109.99    6.50
   5  -6   1  116.09    5.90
  -6   6  -1  186.38    9.50
  -6   6  -1  199.98    9.90
   6  -6   1  192.38    8.60
   6  -6   1  180.48    8.60
  -7   6  -1   15.30    3.90
  -7   6  -1   17.90    3.60
   7  -6   1   19.00    3.30
   7  -6   1   15.10    2.90
   9   5  -1   64.79    4.80
   9   5  -1   60.59    6.10
   9   5  -1   66.39    6.10
  -9  -5   1   57.19    6.40
   8   5  -1   45.90    4.60
   8   5  -1   31.20    4.40
  -8  -5   1   38.80    5.00
  -8  -5   1   42.20    5.60
   7   5  -1   40.30    5.30
   7   5  -1   50.59    4.80
   7   5  -1   42.80    3.40
  -7  -5   1   36.60    4.30
  -7  -5   1   50.09    4.00
   6   5  -1  377.56   15.30
   6   5  -1  393.66   14.80
   6   5  -1  379.56   15.10
  -6  -5   1  377.96   15.40
  -6  -5   1  383.66   15.20
  -6  -5   1  390.66   15.00
   5   5  -1  115.19    5.10
   5   5  -1  109.69    5.60
   5   5  -1  114.09    5.60
  -5  -5   1  106.19    5.40
  -5  -5   1  112.09    5.40
  -5  -5   1  113.99    5.60
  -5  -5   1  114.89    5.30
   4   5  -1  176.48    8.10
   4   5  -1  147.89    7.10
   4   5  -1  189.98    7.70
   4   5  -1  183.08    7.10
  -4  -5   1  183.68    7.30
  -4  -5   1  178.38    7.40
  -4  -5   1  178.68    7.50
   3   5  -1  508.75   17.80
   3   5  -1  458.85   18.10
   3   5  -1  464.65   18.00
   3   5  -1  452.05   17.40
  -3  -5   1  498.15   17.70
  -3  -5   1  471.85   17.80
   2   5  -1   96.79    3.70
   2   5  -1   94.59    4.60
   2   5  -1   77.69    4.00
  -2  -5   1   91.79    4.10
  -2  -5   1   99.89    4.20
   1   5  -1  159.68    7.00
   1   5  -1  173.48    6.80
  -1  -5   1  160.08    6.50
  -1  -5   1  146.69    6.30
   0   5  -1   15.10    1.70
   0   5  -1   18.60    1.70
   0  -5   1   16.80    1.20
   0  -5   1   19.60    1.40
   0  -5   1   18.50    1.60
  -1   5  -1    2.10    1.00
   1  -5   1    0.50    0.60
   1  -5   1    0.60    0.60
  -2   5  -1  414.76   15.80
  -2   5  -1  396.66   16.00
   2  -5   1  425.06   15.40
  -3   5  -1   88.99    4.10
  -3   5  -1   90.99    4.60
  -3   5  -1   97.69    5.00
   3  -5   1   91.29    4.30
   3  -5   1   84.19    4.20
  -4   5  -1   -0.80    1.60
  -4   5  -1    1.40    1.40
   4  -5   1    0.20    1.20
   4  -5   1    0.20    0.70
   4  -5   1   -1.70    1.00
  -5   5  -1    4.70    2.00
  -5   5  -1    3.00    1.90
   5  -5   1    3.30    1.60
   5  -5   1    7.10    1.80
   5  -5   1    5.00    1.10
  -6   5  -1   39.80    4.30
   6  -5   1   36.90    3.90
   6  -5   1   39.20    3.60
  -7   5  -1  130.89    7.60
  -7   5  -1  118.69    7.30
   7  -5   1  115.89    6.90
   7  -5   1  125.19    6.60
  -8   5  -1   53.09    6.10
   8  -5   1   58.39    5.10
   8  -5   1   46.70    5.50
   9   4  -1    9.00    3.50
   9   4  -1    7.60    2.40
  -9  -4   1    7.70    2.80
  -9  -4   1    2.40    3.20
   8   4  -1    9.00    2.10
   8   4  -1    9.60    2.40
  -8  -4   1    6.10    2.80
  -8  -4   1    8.60    2.30
   7   4  -1   51.29    3.60
   7   4  -1   60.89    4.00
  -7  -4   1   57.59    3.80
  -7  -4   1   55.09    4.60
   6   4  -1  170.68    7.40
   6   4  -1  163.78    7.00
  -6  -4   1  159.98    7.20
  -6  -4   1  164.48    6.60
  -6  -4   1  171.58    7.80
   5   4  -1    0.70    1.10
   5   4  -1    1.80    1.30
   5   4  -1    1.60    0.90
   5   4  -1   -0.10    1.30
  -5  -4   1   -0.20    0.90
  -5  -4   1   -0.90    1.10
  -5  -4   1   -0.80    1.10
  -5  -4   1   -0.20    1.20
   4   4  -1  266.37   10.30
   4   4  -1  277.17   10.70
  -4  -4   1  278.27   10.50
  -4  -4   1  289.87   11.10
  -4  -4   1  252.37   10.20
   3   4  -1  389.26   14.00
   3   4  -1  379.06   14.30
  -3  -4   1  380.26   14.30
  -3  -4   1  378.96   14.40
  -3  -4   1  360.56   14.00
  -3  -4   1  383.46   14.20
   2   4  -1    7.70    1.10
   2   4  -1   11.30    1.70
  -2  -4   1    6.80    0.90
  -2  -4   1    7.90    1.10
  -2  -4   1    7.30    1.00
   1   4  -1   19.90    1.00
   1   4  -1   19.50    1.70
   1   4  -1   18.90    1.50
  -1  -4   1   19.20    1.20
  -1  -4   1   20.40    1.00
   0   4  -1 1019.80   33.50
   0  -4   1  890.71   32.80
   0  -4   1  824.92   32.90
  -1   4  -1 1288.57   45.00
  -1   4  -1 1164.08   44.70
  -1   4  -1 1246.08   44.80
   1  -4   1 1220.68   44.50
   1  -4   1 1254.97   44.40
   1  -4   1 1280.97   44.30
  -2   4  -1  978.40   36.60
  -2   4  -1 1013.90   36.50
   2  -4   1  984.60   36.20
   2  -4   1 1041.10   36.20
  -3   4  -1   30.40    1.90
  -3   4  -1   32.20    2.40
   3  -4   1   34.80    1.60
   3  -4   1   30.70    2.10
  -4   4  -1   19.00    2.30
  -4   4  -1   20.20    2.20
   4  -4   1   19.20    2.10
   4  -4   1   18.70    2.00
  -5   4  -1    0.80    1.40
  -5   4  -1    2.50    1.50
  -5   4  -1    0.40    1.50
   5  -4   1    0.80    1.20
   5  -4   1    2.40    0.90
   5  -4   1    3.60    1.40
  -6   4  -1   17.70    2.60
  -6   4  -1   19.00    2.70
   6  -4   1   22.60    2.90
   6  -4   1   17.40    2.00
   6  -4   1   20.90    2.80
  -7   4  -1  175.88    8.60
  -7   4  -1  174.28    8.60
  -7   4  -1  169.38    8.20
   7  -4   1  176.58    8.40
   7  -4   1  156.08    8.00
  -8   4  -1  109.99    7.00
   8  -4   1  103.39    6.70
   8  -4   1   93.39    6.20
  10   3  -1   40.00    5.80
  10   3  -1   47.50    4.90
   9   3  -1   25.00    3.10
  -9  -3   1   32.10    4.20
  -9  -3   1   25.60    4.10
   8   3  -1   33.50    3.20
   8   3  -1   34.50    4.00
  -8  -3   1   27.70    3.60
  -8  -3   1   38.90    4.60
   7   3  -1  117.49    5.60
   7   3  -1  120.09    5.80
  -7  -3   1  118.79    6.30
  -7  -3   1  118.39    6.50
   6   3  -1   16.50    2.20
   6   3  -1   14.20    1.80
   6   3  -1   19.60    1.90
  -6  -3   1   22.10    2.70
  -6  -3   1   21.60    2.20
   5   3  -1   51.99    3.20
   5   3  -1   46.80    2.70
  -5  -3   1   52.39    3.40
  -5  -3   1   51.39    2.90
  -5  -3   1   51.89    3.30
   4   3  -1  545.35   20.10
   4   3  -1  549.54   20.10
   4   3  -1  543.25   20.20
  -4  -3   1  559.44   20.90
  -4  -3   1  555.64   20.50
  -4  -3   1  541.75   20.00
   3   3  -1   90.89    3.70
   3   3  -1   91.29    4.10
   3   3  -1   80.49    4.60
   3   3  -1   90.19    3.90
  -3  -3   1   99.79    4.30
  -3  -3   1   84.99    4.20
  -3  -3   1   87.99    4.10
   2   3  -1    7.30    1.00
   2   3  -1    5.30    0.80
   2   3  -1    6.20    0.70
  -2  -3   1    6.80    0.80
  -2  -3   1    7.60    0.90
  -2  -3   1    8.10    0.90
  -2  -3   1    6.00    0.70
   1   3  -1 1568.84   61.29
   1   3  -1 1738.93   61.19
   1   3  -1 1742.13   61.69
   1   3  -1 1855.71   61.29
  -1  -3   1 1790.52   61.39
  -1  -3   1 1621.64   61.39
  -1  -3   1 1773.42   61.39
  -1  -3   1 1771.52   61.19
  -1  -3   1 1663.73   61.39
   0   3  -1  349.57   13.20
   0   3  -1  335.97   12.90
   0   3  -1  351.56   13.10
   0   3  -1  377.56   13.00
   0  -3   1  362.86   12.90
   0  -3   1  352.96   13.10
   0  -3   1  342.87   13.00
   0  -3   1  365.26   12.90
  -1   3  -1 2354.96   84.89
  -1   3  -1 2341.67   84.69
   1  -3   1 2489.55   84.79
   1  -3   1 2265.17   84.79
   1  -3   1 2454.35   84.59
  -2   3  -1  335.97   12.80
  -2   3  -1  340.47   12.60
  -2   3  -1  359.06   12.90
   2  -3   1  309.17   12.60
   2  -3   1  342.47   12.60
   2  -3   1  352.36   12.20
   2  -3   1  336.17   12.20
  -3   3  -1  347.07   12.50
  -3   3  -1  329.97   12.60
   3  -3   1  326.67   12.40
   3  -3   1  327.17   12.00
   3  -3   1  305.07   12.40
  -4   3  -1    4.70    1.10
  -4   3  -1    4.10    1.10
   4  -3   1    2.10    0.70
   4  -3   1    3.10    1.10
   4  -3   1    4.20    1.10
  -5   3  -1   56.09    3.60
  -5   3  -1   53.09    3.30
  -5   3  -1   57.89    3.60
   5  -3   1   56.29    2.80
   5  -3   1   50.69    3.40
   5  -3   1   58.29    3.40
  -6   3  -1    3.50    1.70
  -6   3  -1    2.80    1.50
  -6   3  -1    5.40    1.70
   6  -3   1    4.20    1.60
   6  -3   1    4.00    1.20
   6  -3   1    3.50    1.80
  -7   3  -1   17.20    2.90
  -7   3  -1   15.80    2.40
  -7   3  -1   15.70    2.70
   7  -3   1    8.60    2.80
   7  -3   1   14.00    2.50
   7  -3   1   11.70    2.10
  -8   3  -1   29.20    3.80
  -8   3  -1   32.30    4.00
   8  -3   1   28.40    3.20
   8  -3   1   21.60    3.10
   8  -3   1   25.00    3.60
  -9   3  -1   56.59    6.20
  -9   3  -1   50.29    6.00
   9  -3   1   56.59    5.80
   9  -3   1   54.99    5.40
  10   2  -1   27.80    3.50
 -10  -2   1   40.30    4.60
 -10  -2   1   37.80    5.30
   9   2  -1    1.20    2.00
  -9  -2   1   -3.80    2.80
  -9  -2   1   -2.30    2.50
   8   2  -1   17.40    3.00
   8   2  -1   22.60    2.90
  -8  -2   1   26.20    4.60
  -8  -2   1   24.80    3.40
   7   2  -1    3.30    1.80
   7   2  -1    6.10    1.40
  -7  -2   1    5.40    1.60
  -7  -2   1    5.20    2.10
   6   2  -1  342.27   13.60
   6   2  -1  377.16   14.40
   6   2  -1  355.96   14.20
  -6  -2   1  348.47   14.30
  -6  -2   1  352.56   13.70
   5   2  -1   71.79    4.00
   5   2  -1   75.39    3.50
   5   2  -1   72.89    3.50
  -5  -2   1   73.99    4.10
  -5  -2   1   78.19    3.70
   4   2  -1  563.24   21.30
   4   2  -1  579.64   21.00
   4   2  -1  574.14   21.00
  -4  -2   1  569.34   21.40
  -4  -2   1  589.34   21.40
  -4  -2   1  572.24   21.00
   3   2  -1  234.08    8.70
   3   2  -1  247.38    9.00
   3   2  -1  230.28    8.70
  -3  -2   1  226.08    9.00
  -3  -2   1  229.18    9.10
  -3  -2   1  235.28    8.80
  -3  -2   1  227.78    8.70
  -3  -2   1  236.68    8.50
   2   2  -1  689.83   25.20
   2   2  -1  704.53   25.30
   2   2  -1  693.03   25.30
   2   2  -1  692.23   25.30
  -2  -2   1  694.33   25.40
  -2  -2   1  717.03   25.40
  -2  -2   1  716.73   25.30
  -2  -2   1  719.23   25.20
   1   2  -1 1053.29   37.90
   1   2  -1 1060.79   38.10
   1   2  -1 1068.99   38.00
   1   2  -1  999.60   38.10
   1   2  -1 1064.09   38.00
  -1  -2   1 1041.90   38.10
  -1  -2   1 1134.59   38.10
  -1  -2   1 1094.79   38.00
  -1  -2   1 1084.39   38.00
   0   2  -1   84.19    3.40
   0   2  -1   89.79    3.30
   0   2  -1   81.69    3.20
   0   2  -1   86.19    3.20
   0   2  -1   80.69    3.30
   0  -2   1   79.19    3.20
   0  -2   1   80.59    3.20
   0  -2   1   86.39    3.20
   1  -2   1 4902.51  207.68
   1  -2   1 5145.19  191.58
  -2   2  -1  251.67    9.50
  -2   2  -1  252.37    9.60
  -2   2  -1  253.97    9.60
  -2   2  -1  249.48    9.10
  -2   2  -1  249.88    9.50
   2  -2   1  258.27    9.50
   2  -2   1  258.67    9.50
   2  -2   1  237.78    9.60
   2  -2   1  249.28    9.50
   2  -2   1  258.77    9.40
   2  -2   1  248.18    9.10
  -3   2  -1  267.87   10.00
   3  -2   1  254.47    9.60
   3  -2   1  250.57    9.80
   3  -2   1  252.47    9.50
  -4   2  -1  377.26   14.40
  -4   2  -1  379.56   14.10
  -4   2  -1  380.56   14.30
   4  -2   1  351.56   14.20
   4  -2   1  381.06   13.90
   4  -2   1  383.46   14.40
  -5   2  -1  446.96   15.70
  -5   2  -1  415.86   16.10
  -5   2  -1  416.26   16.20
   5  -2   1  407.86   16.10
   5  -2   1  403.06   15.50
  -6   2  -1   26.50    2.30
  -6   2  -1   30.60    2.80
  -6   2  -1   23.00    2.90
   6  -2   1   26.80    2.10
   6  -2   1   26.00    2.70
  -7   2  -1  208.18    9.10
  -7   2  -1  190.48    8.70
  -7   2  -1  194.58    8.10
   7  -2   1  186.78    8.00
   7  -2   1  179.68    8.60
  -8   2  -1   47.80    4.90
  -8   2  -1   45.00    4.50
   8  -2   1   55.69    4.90
   8  -2   1   48.70    3.70
   8  -2   1   52.69    4.50
  -9   2  -1  191.88    9.60
  -9   2  -1  185.38    9.90
   9  -2   1  184.98   10.50
   9  -2   1  184.98    9.40
   9  -2   1  176.68    8.40
  10   1  -1   -1.20    2.50
  10   1  -1    4.80    3.60
 -10  -1   1    8.70    3.50
 -10  -1   1    2.00    4.00
   9   1  -1   95.99    5.40
  -9  -1   1   88.89    6.10
  -9  -1   1   85.29    6.90
   8   1  -1  320.47   13.50
   8   1  -1  302.37   12.60
  -8  -1   1  319.87   14.60
  -8  -1   1  312.07   13.10
   7   1  -1  260.57   11.20
   7   1  -1  260.47   10.50
   7   1  -1  251.67   10.30
  -7  -1   1  274.77   10.90
  -7  -1   1  263.67   11.50
   6   1  -1  469.35   17.60
   6   1  -1  451.35   17.30
   6   1  -1  490.15   18.30
  -6  -1   1  461.55   18.30
  -6  -1   1  467.75   17.80
   5   1  -1    8.80    1.20
   5   1  -1   14.80    2.00
  -5  -1   1   12.80    1.60
  -5  -1   1    9.20    1.20
  -5  -1   1    9.40    1.70
   4   1  -1  854.31   30.70
  -4  -1   1  848.52   30.80
  -4  -1   1  851.41   31.20
   3   1  -1 1890.71   69.09
   3   1  -1 1915.71   68.79
   3   1  -1 1965.90   69.29
   3   1  -1 2025.60   69.29
   3   1  -1 1936.11   69.19
  -3  -1   1 1942.41   69.19
  -3  -1   1 1869.01   68.89
  -3  -1   1 1936.81   69.29
   2   1  -1 3188.78  111.09
  -2  -1   1 3072.19  111.19
   1   1  -1 2915.71  113.59
   1   1  -1 2918.31  113.89
  -1  -1   1 2945.31  115.99
   0  -1   1 7706.03  280.27
  -1   1  -1  415.96   14.60
  -1   1  -1  382.66   14.50
  -1   1  -1  450.75   14.40
  -1   1  -1  396.96   14.50
  -1   1  -1  406.06   14.50
  -1   1  -1  390.36   14.50
  -1   1  -1  355.36   14.30
   1  -1   1  390.96   14.30
   1  -1   1  394.76   14.40
   1  -1   1  391.96   14.50
   1  -1   1  404.16   14.50
   1  -1   1  402.76   14.60
   1  -1   1  397.06   14.50
   1  -1   1  427.46   14.50
   2  -1   1 2915.81  100.69
   2  -1   1 2753.22  100.59
  -3   1  -1   29.30    1.80
  -3   1  -1   29.00    1.50
  -3   1  -1   25.70    1.70
  -3   1  -1   25.50    1.50
   3  -1   1   27.40    1.90
   3  -1   1   28.20    1.50
   3  -1   1   26.30    2.00
  -4   1  -1   57.09    3.10
  -4   1  -1   50.49    2.90
  -4   1  -1   58.59    2.90
   4  -1   1   58.29    2.60
   4  -1   1   55.19    3.00
   4  -1   1   55.99    2.60
   5  -1   1  344.17   12.90
   5  -1   1  343.47   13.40
  -6   1  -1   24.40    1.90
  -6   1  -1   23.60    2.70
  -6   1  -1   23.60    2.40
   6  -1   1   24.80    2.50
   6  -1   1   23.10    2.00
  -7   1  -1    0.80    1.50
  -7   1  -1    0.60    1.80
  -7   1  -1    0.90    1.40
   7  -1   1    1.30    1.60
   7  -1   1    2.50    1.30
  -8   1  -1   33.80    3.90
   8  -1   1   39.70    4.10
   8  -1   1   37.70    3.30
  -9   1  -1   48.60    5.20
  -9   1  -1   53.19    5.60
   9  -1   1   51.79    4.20
   9  -1   1   53.19    4.90
 -10   1  -1    5.20    3.60
  10  -1   1   -2.10    3.10
  10  -1   1   -0.80    2.60
  10   0  -1    1.20    2.60
 -10   0   1   -3.00    4.00
 -10   0   1   -1.70    3.00
   9   0  -1    0.80    2.10
   9   0  -1    2.50    2.70
  -9   0   1    4.10    3.10
   8   0  -1   64.89    5.20
   8   0  -1   75.69    4.30
  -8   0   1   70.29    5.60
  -8   0   1   62.99    6.10
   7   0  -1   67.29    3.70
   7   0  -1   69.59    4.70
  -7   0   1   63.59    4.80
  -7   0   1   66.19    4.20
   6   0  -1  165.88    7.80
   6   0  -1  174.78    7.20
  -6   0   1  181.08    7.50
  -6   0   1  171.38    8.00
   5   0  -1    3.30    1.30
   5   0  -1    3.10    0.70
   5   0  -1    3.80    0.80
  -5   0   1    3.00    1.30
  -5   0   1    4.30    1.10
   4   0  -1    8.60    1.10
   4   0  -1    9.30    0.80
   4   0  -1   10.20    1.40
  -4   0   1    9.40    1.40
   3   0  -1  384.86   14.00
   3   0  -1  393.16   13.70
   3   0  -1  385.46   14.30
   3   0  -1  390.06   13.60
   3   0  -1  359.16   14.40
  -3   0   1  388.66   14.10
  -3   0   1  372.36   14.00
  -3   0   1  376.46   14.30
  -2   0   1   -1.20    6.90
   1   0  -1  635.84   22.90
   1   0  -1  614.54   22.80
   1   0  -1  640.14   22.80
   1   0  -1  698.63   22.90
   1   0  -1  638.44   23.10
   1   0  -1  637.54   23.00
  -1   0   1  632.64   22.90
  -1   0   1  637.34   23.10
  -1   0   1  638.14   22.90
  -1   0   1  614.34   23.00
  -1   0   1  672.03   22.90
  -1   0  -1 5048.69  174.18
   1   0   1 4292.17  173.98
  -2   0  -1  497.55   17.30
  -2   0  -1  482.05   17.40
  -2   0  -1  483.55   17.30
  -2   0  -1  480.95   17.80
  -2   0  -1  496.15   17.20
  -2   0  -1  485.55   17.40
   2   0   1  481.15   17.30
   2   0   1  451.35   17.40
   2   0   1  481.75   17.40
   2   0   1  474.65   17.20
   2   0   1  474.15   17.30
  -3   0  -1  438.66   16.10
  -3   0  -1  446.76   16.20
  -3   0  -1  437.56   16.60
  -3   0  -1  460.65   16.60
  -3   0  -1  450.05   16.30
   3   0   1  450.45   16.30
   3   0   1  444.36   16.30
   3   0   1  459.65   16.70
   3   0   1  466.85   16.70
   3   0   1  445.76   16.20
   3   0   1  441.16   16.60
  -4   0  -1   29.70    2.00
  -4   0  -1   30.60    2.10
  -4   0  -1   34.70    1.60
   4   0   1   28.80    2.00
   4   0   1   30.90    2.10
   4   0   1   31.00    1.60
  -5   0  -1    0.10    0.80
  -5   0  -1    1.70    1.00
  -5   0  -1    0.90    0.50
   5   0   1   -0.20    0.70
   5   0   1    0.80    0.70
   5   0   1    0.10    0.90
   5   0   1    0.10    0.90
  -6   0  -1  185.88    8.10
  -6   0  -1  185.78    7.80
   6   0   1  183.28    7.10
   6   0   1  174.78    7.40
   6   0   1  185.58    7.90
   6   0   1  172.38    7.40
  -7   0  -1   44.40    3.20
  -7   0  -1   34.80    3.50
   7   0   1   31.70    2.40
   7   0   1   34.20    2.60
   7   0   1   28.10    3.00
  -8   0  -1  457.45   18.20
   8   0   1  439.16   17.10
   8   0   1  433.36   17.70
  -9   0  -1    9.50    2.70
  -9   0  -1   10.10    3.10
   9   0   1    7.30    2.20
 -10   0  -1   -2.10    3.20
  10   0   1    3.20    2.50
   9  -1  -1   78.29    6.30
   9  -1  -1   85.39    5.20
  -9   1   1   94.29    8.10
  -9   1   1   89.89    6.20
   8  -1  -1   97.19    5.20
   8  -1  -1   94.79    6.00
  -8   1   1   93.89    5.90
  -8   1   1   88.99    6.50
   7  -1  -1  146.29    7.40
   7  -1  -1  142.99    6.50
  -7   1   1  151.28    7.70
  -7   1   1  148.99    7.10
   6  -1  -1   16.10    1.70
   6  -1  -1   14.60    1.30
   6  -1  -1   12.30    2.10
   6  -1  -1   11.50    1.30
  -6   1   1   10.70    2.10
  -6   1   1   17.50    2.20
  -6   1   1   12.70    1.80
   5  -1  -1    2.30    0.80
   5  -1  -1    2.40    1.30
  -5   1   1    2.70    1.00
  -5   1   1    3.60    0.90
  -5   1   1    1.30    1.20
   4  -1  -1   51.19    2.30
   4  -1  -1   56.99    2.50
   4  -1  -1   50.59    2.10
   4  -1  -1   51.99    3.10
  -4   1   1   46.60    3.00
  -4   1   1   49.10    2.40
  -4   1   1   50.29    2.80
   3  -1  -1  269.87    9.80
   3  -1  -1  292.87   10.00
   3  -1  -1  262.57   10.60
   3  -1  -1  280.47   10.00
   3  -1  -1  273.37   10.10
  -3   1   1  279.07   10.40
  -3   1   1  264.27   10.10
  -3   1   1  271.47   10.00
  -3   1   1  261.47   10.60
  -3   1   1  267.87   10.10
   2  -1  -1 3087.79  105.09
   2  -1  -1 2898.61  105.49
   2  -1  -1 3055.49  105.49
  -2   1   1 2951.60  105.49
  -2   1   1 2827.92  105.49
   1  -1  -1   45.80    1.90
   1  -1  -1   42.80    1.90
   1  -1  -1   47.50    2.00
   1  -1  -1   44.20    2.00
   1  -1  -1   46.90    2.10
   1  -1  -1   46.60    1.90
   1  -1  -1   44.40    2.10
   1  -1  -1   48.50    2.10
  -1   1   1   46.20    2.00
  -1   1   1   47.40    2.10
  -1   1   1   45.20    2.00
  -1   1   1   42.40    1.90
  -1   1   1   49.50    1.90
   0  -1  -1  565.74   22.10
   0  -1  -1  639.94   22.20
   0  -1  -1  639.44   22.20
   0  -1  -1  627.34   22.20
   0  -1  -1  622.34   22.30
   0  -1  -1  590.14   22.10
   0  -1  -1  609.54   22.20
   0  -1  -1  671.03   22.40
   0   1   1  615.74   22.30
   0   1   1  640.84   22.30
   0   1   1  618.04   22.20
   0   1   1  630.84   22.20
   0   1   1  616.64   22.20
   0   1   1  629.84   22.10
   0   1   1  605.04   22.20
  -1  -1  -1  201.48    7.10
  -1  -1  -1  204.18    7.30
  -1  -1  -1  185.78    7.30
  -1  -1  -1  194.08    7.20
  -1  -1  -1  196.08    7.10
  -1  -1  -1  200.98    7.40
   1   1   1  193.38    7.30
   1   1   1  198.08    7.20
   1   1   1  194.38    7.30
   1   1   1  191.08    7.10
   1   1   1  197.68    7.40
   1   1   1  201.38    7.10
  -2  -1  -1  526.85   18.60
  -2  -1  -1  508.75   18.60
  -2  -1  -1  510.85   18.50
  -2  -1  -1  516.65   18.50
  -2  -1  -1  494.35   18.50
  -2  -1  -1  532.95   18.60
   2   1   1  520.65   18.60
   2   1   1  508.55   18.50
   2   1   1  518.55   18.50
   2   1   1  501.25   18.40
   2   1   1  505.25   18.50
   2   1   1  509.35   18.60
  -3  -1  -1  206.78    7.90
  -3  -1  -1  217.28    7.90
  -3  -1  -1  212.68    8.10
   3   1   1  211.88    8.00
   3   1   1  212.88    8.00
   3   1   1  206.98    8.00
   3   1   1  210.58    7.90
  -4  -1  -1  418.36   14.60
  -4  -1  -1  389.16   15.40
  -4  -1  -1  395.56   15.10
   4   1   1  404.56   14.80
   4   1   1  390.76   15.00
   4   1   1  405.66   15.00
  -5  -1  -1  177.08    6.70
  -5  -1  -1  181.18    7.60
  -5  -1  -1  176.08    7.30
   5   1   1  179.18    7.10
   5   1   1  175.18    7.40
  -6  -1  -1    5.20    1.30
  -6  -1  -1    8.60    1.00
  -6  -1  -1    6.80    1.20
   6   1   1    5.20    1.10
   6   1   1    4.40    1.40
  -7  -1  -1  167.58    8.10
  -7  -1  -1  177.28    7.80
  -7  -1  -1  165.08    6.70
   7   1   1  180.08    7.50
   7   1   1  177.28    7.40
   7   1   1  170.58    7.80
  -8  -1  -1   13.20    2.80
  -8  -1  -1   13.90    2.50
   8   1   1   12.30    2.00
  -9  -1  -1    3.00    2.90
  -9  -1  -1    3.30    2.50
   9   1   1    7.20    2.50
   9   1   1    4.20    2.10
 -10  -1  -1    2.40    3.00
  10   1   1    2.80    2.40
   9  -2  -1    0.90    2.80
  -9   2   1   -1.20    2.90
   8  -2  -1    7.80    2.60
   8  -2  -1    7.90    2.00
  -8   2   1    5.80    2.80
  -8   2   1    4.50    2.60
   7  -2  -1    8.30    1.60
   7  -2  -1    6.50    2.50
  -7   2   1    8.00    2.50
  -7   2   1    7.00    2.00
   6  -2  -1  141.29    6.20
   6  -2  -1  147.39    7.10
  -6   2   1  142.39    7.20
  -6   2   1  152.78    6.40
  -6   2   1  148.49    6.80
   5  -2  -1   48.40    2.70
   5  -2  -1   52.29    3.50
  -5   2   1   58.09    3.00
  -5   2   1   51.19    3.60
  -5   2   1   59.19    3.30
   4  -2  -1  303.07   11.60
   4  -2  -1  322.37   11.70
   4  -2  -1  313.27   12.40
  -4   2   1  319.47   12.40
  -4   2   1  308.17   12.10
   3  -2  -1   82.49    3.20
   3  -2  -1   84.29    3.50
   3  -2  -1   89.09    3.50
   3  -2  -1   80.99    3.30
   3  -2  -1   86.99    4.10
  -3   2   1   88.79    3.80
  -3   2   1   84.69    3.50
  -3   2   1   80.99    4.00
  -3   2   1   75.99    4.00
   2  -2  -1   39.70    1.80
   2  -2  -1   36.30    2.10
   2  -2  -1   39.10    2.30
   2  -2  -1   41.10    2.30
   2  -2  -1   44.60    1.80
   2  -2  -1   34.50    2.30
   2  -2  -1   38.90    1.70
  -2   2   1   41.00    1.80
  -2   2   1   36.50    2.00
  -2   2   1   40.50    2.10
  -2   2   1   36.70    2.30
   1  -2  -1 9564.74  352.36
   1  -2  -1 9999.00  352.06
  -1   2   1 9673.23  354.46
   0   2   1 2127.59   74.69
   0   2   1 2083.79   74.99
   0   2   1 2101.69   74.79
  -1  -2  -1 1189.68   42.40
  -1  -2  -1 1180.18   42.30
  -1  -2  -1 1248.18   42.30
   1   2   1 1181.08   42.70
   1   2   1 1111.59   42.30
   1   2   1 1232.58   42.60
  -2  -2  -1  699.33   25.00
  -2  -2  -1  686.73   25.20
  -2  -2  -1  682.23   25.30
  -2  -2  -1  662.43   25.10
   2   2   1  726.93   25.00
   2   2   1  687.53   25.30
   2   2   1  698.23   25.40
   2   2   1  697.83   25.00
   2   2   1  751.32   25.10
   2   2   1  699.93   25.00
  -3  -2  -1   40.80    2.00
  -3  -2  -1   40.80    2.20
  -3  -2  -1   44.60    2.20
   3   2   1   41.90    2.00
   3   2   1   42.80    2.00
   3   2   1   40.40    2.00
   3   2   1   42.90    2.20
  -4  -2  -1 1883.71   65.19
  -4  -2  -1 1842.62   64.89
  -4  -2  -1 1779.22   65.19
  -4  -2  -1 1714.23   64.99
   4   2   1 1814.12   64.89
   4   2   1 1887.31   65.29
   4   2   1 1817.62   65.09
  -5  -2  -1  320.97   12.50
  -5  -2  -1  330.97   12.10
  -5  -2  -1  337.17   12.80
   5   2   1  318.17   12.50
   5   2   1  325.67   12.40
  -6  -2  -1    1.80    1.00
  -6  -2  -1    2.60    1.50
  -6  -2  -1    1.20    0.60
   6   2   1    1.90    1.20
   6   2   1    0.30    1.20
   6   2   1    0.50    1.00
  -7  -2  -1 2049.40   74.09
  -7  -2  -1 2066.49   73.69
  -7  -2  -1 1976.50   72.59
   7   2   1 2074.69   73.49
   7   2   1 2045.80   73.39
  -8  -2  -1   59.39    5.00
  -8  -2  -1   63.39    4.30
   8   2   1   62.89    4.70
  -9  -2  -1  115.19    6.80
  -9  -2  -1  122.79    7.60
   9   2   1  119.29    6.30
   9   2   1  125.69    7.70
   9  -3  -1   51.29    6.60
  -9   3   1   45.10    5.90
   8  -3  -1  128.29    6.50
   8  -3  -1  125.59    7.90
   8  -3  -1  144.99    7.70
  -8   3   1  135.89    7.60
  -8   3   1  135.79    8.00
   7  -3  -1  383.16   15.80
   7  -3  -1  383.06   15.80
  -7   3   1  383.06   16.00
  -7   3   1  376.46   15.60
   6  -3  -1  234.68   10.50
   6  -3  -1  251.07   10.50
  -6   3   1  238.18   10.60
  -6   3   1  236.38   10.00
  -6   3   1  248.88   10.40
   5  -3  -1  103.79    5.20
   5  -3  -1   95.59    5.10
   5  -3  -1   96.29    4.20
  -5   3   1   94.69    4.90
  -5   3   1   92.99    4.80
  -5   3   1   94.59    5.20
   4  -3  -1   10.30    1.70
   4  -3  -1   13.10    1.80
   4  -3  -1   11.90    1.20
  -4   3   1   11.30    1.70
  -4   3   1    9.60    1.40
  -4   3   1   14.10    1.80
   3  -3  -1  168.38    6.60
   3  -3  -1  167.88    6.80
   3  -3  -1  184.78    6.60
   3  -3  -1  187.68    6.70
   3  -3  -1  172.18    7.30
   3  -3  -1  171.48    7.20
  -3   3   1  171.08    7.20
  -3   3   1  187.78    7.30
  -3   3   1  172.08    6.60
   2  -3  -1   91.19    3.40
   2  -3  -1   89.99    4.00
   2  -3  -1   87.39    4.20
  -2   3   1   85.19    4.30
  -2   3   1   83.79    4.20
   1  -3  -1 1052.39   39.20
   1  -3  -1 1089.49   39.60
   1  -3  -1 1130.69   39.30
   1  -3  -1 1137.19   38.90
   1  -3  -1 1058.49   39.40
  -1   3   1 1139.99   39.80
  -1   3   1 1091.59   39.40
  -1   3   1 1078.99   39.30
  -1   3   1 1151.58   40.60
  -1   3   1 1010.20   39.30
   0  -3  -1   79.79    3.60
   0  -3  -1   86.09    3.20
   0  -3  -1   75.19    3.20
   0  -3  -1   79.79    3.40
   0   3   1   76.09    3.40
   0   3   1   84.19    3.40
   0   3   1   81.89    3.30
   0   3   1   80.39    3.50
  -1  -3  -1  761.02   27.20
  -1  -3  -1  775.62   27.80
  -1  -3  -1  702.23   27.10
  -1  -3  -1  795.62   27.60
  -1  -3  -1  728.53   27.30
   1   3   1  769.32   27.80
   1   3   1  767.12   27.40
   1   3   1  783.32   27.30
   1   3   1  765.02   27.90
   1   3   1  799.22   27.20
  -2  -3  -1   95.09    3.70
  -2  -3  -1   94.69    4.10
  -2  -3  -1   82.89    3.90
  -2  -3  -1   94.89    3.60
   2   3   1   88.89    3.80
   2   3   1   89.99    3.60
   2   3   1   90.99    3.60
   2   3   1   87.39    4.00
  -3  -3  -1   39.20    2.30
  -3  -3  -1   40.40    2.10
  -3  -3  -1   38.50    2.00
  -3  -3  -1   41.20    1.90
  -3  -3  -1   41.00    2.10
   3   3   1   38.50    1.90
   3   3   1   39.60    2.30
   3   3   1   40.50    2.40
   3   3   1   39.00    1.90
   3   3   1   38.80    2.00
  -4  -3  -1  464.45   17.00
  -4  -3  -1  460.95   17.40
   4   3   1  457.25   16.80
   4   3   1  441.76   17.10
   4   3   1  455.65   16.80
  -5  -3  -1    4.90    1.30
  -5  -3  -1    3.60    1.10
  -5  -3  -1    2.10    0.90
   5   3   1    4.30    1.00
   5   3   1    3.40    1.10
  -6  -3  -1    2.00    1.00
  -6  -3  -1    3.50    1.50
  -6  -3  -1    0.60    1.00
   6   3   1    3.60    1.10
   6   3   1   -1.60    1.30
   6   3   1    2.50    1.40
  -7  -3  -1   17.20    2.60
  -7  -3  -1   22.70    2.60
  -7  -3  -1   15.50    1.50
   7   3   1   16.10    2.00
   7   3   1   14.50    2.20
   7   3   1   20.50    2.80
  -8  -3  -1    5.20    2.50
  -8  -3  -1    5.40    2.00
   8   3   1    1.60    2.10
   8   3   1    0.00    1.70
  -9  -3  -1    1.20    2.30
  -9  -3  -1    3.00    2.90
   9   3   1    4.20    2.10
   9   3   1    3.00    2.60
  10   3   1    9.10    3.30
  10   3   1    9.30    2.70
   8  -4  -1    3.90    2.20
   8  -4  -1   -2.70    2.50
  -8   4   1    3.70    3.00
  -8   4   1    1.50    2.90
   7  -4  -1  110.89    6.50
   7  -4  -1  105.69    6.30
  -7   4   1   94.89    6.50
  -7   4   1  111.89    6.50
   6  -4  -1   21.50    2.20
   6  -4  -1   20.80    3.00
   6  -4  -1   26.00    4.60
  -6   4   1   26.80    3.50
  -6   4   1   25.30    3.50
  -6   4   1   24.80    4.70
   5  -4  -1   45.80    3.60
   5  -4  -1   52.59    3.70
   5  -4  -1   54.39    2.80
  -5   4   1   57.29    3.90
  -5   4   1   57.29    3.80
  -5   4   1   53.89    3.80
   4  -4  -1   21.30    2.20
   4  -4  -1   18.80    2.20
  -4   4   1   22.80    2.40
   3  -4  -1  217.88    8.50
   3  -4  -1  222.38    8.40
   3  -4  -1  219.18    9.00
   3  -4  -1  224.98    9.00
  -3   4   1  218.28    9.30
  -3   4   1  227.18    8.50
  -3   4   1  223.38    9.10
  -3   4   1  232.48    9.20
   2  -4  -1 2394.56   90.19
   2  -4  -1 2523.05   90.79
   2  -4  -1 2600.34   90.79
  -2   4   1 2582.04   90.69
  -2   4   1 2558.64   90.99
  -2   4   1 2612.34   91.19
   1  -4  -1   36.10    2.00
   1  -4  -1   34.00    2.00
  -1   4   1   34.60    2.90
  -1   4   1   35.50    2.40
  -1   4   1   35.70    2.50
  -1   4   1   38.50    2.30
   0  -4  -1  798.22   28.30
   0  -4  -1  785.42   28.50
  -1  -4  -1  117.49    4.80
  -1  -4  -1  118.79    4.60
  -1  -4  -1  123.79    4.40
  -1  -4  -1  114.89    4.30
   1   4   1  111.19    5.10
   1   4   1  110.79    5.20
   1   4   1  113.59    4.40
  -2  -4  -1  251.77    9.50
  -2  -4  -1  234.68    9.90
   2   4   1  248.58   10.00
   2   4   1  249.48   10.20
   2   4   1  279.47    9.40
  -3  -4  -1   17.40    1.20
  -3  -4  -1   17.40    1.50
  -3  -4  -1   15.10    1.40
   3   4   1   16.50    1.70
   3   4   1   17.20    1.90
   3   4   1   16.00    1.10
   3   4   1   14.10    1.20
  -4  -4  -1  110.99    4.60
  -4  -4  -1  110.39    4.90
  -4  -4  -1  111.49    4.90
   4   4   1  111.79    4.70
   4   4   1  110.89    5.20
   4   4   1  109.29    4.60
   4   4   1  115.19    5.30
  -5  -4  -1  810.12   29.00
   5   4   1  793.12   28.70
   5   4   1  762.22   28.70
  -6  -4  -1  301.17   12.40
  -6  -4  -1  310.17   12.20
  -6  -4  -1  301.37   12.10
   6   4   1  302.47   11.90
   6   4   1  308.47   12.00
   6   4   1  311.57   12.50
  -8  -4  -1   15.70    2.70
  -8  -4  -1   21.90    3.40
   8   4   1   16.00    2.80
   8   4   1   20.80    2.50
  -9  -4  -1   16.20    4.90
   9   4   1   12.30    2.50
   9   4   1   19.20    3.10
 -10  -4  -1   76.59    6.40
  10   4   1   79.09    5.60
   8  -5  -1    7.30    3.50
   8  -5  -1   -1.50    2.80
  -8   5   1    2.20    3.60
  -8   5   1    2.60    3.40
   7  -5  -1   99.19    6.20
   7  -5  -1   89.69    5.90
  -7   5   1  100.29    6.60
  -7   5   1   90.19    6.50
   6  -5  -1   27.60    3.50
   6  -5  -1   27.60    3.30
  -6   5   1   30.40    3.50
  -6   5   1   28.30    3.50
   5  -5  -1   53.89    2.90
   5  -5  -1   59.09    4.00
   5  -5  -1   56.29    4.00
  -5   5   1   57.89    4.40
  -5   5   1   46.40    4.10
  -5   5   1   55.19    4.20
   4  -5  -1  360.86   14.30
   4  -5  -1  374.96   13.50
   4  -5  -1  356.56   13.40
   4  -5  -1  373.06   14.40
  -4   5   1  363.66   14.60
   3  -5  -1  466.75   17.60
   3  -5  -1  516.35   17.60
   3  -5  -1  504.75   17.50
   3  -5  -1  480.65   18.30
  -3   5   1  480.05   18.00
  -3   5   1  477.15   18.50
  -3   5   1  457.95   18.70
   2  -5  -1 1101.09   38.00
   2  -5  -1 1039.90   37.90
  -2   5   1 1017.30   38.60
  -2   5   1 1030.70   38.30
   1  -5  -1   80.29    3.60
   1  -5  -1   76.49    3.50
   1  -5  -1   74.89    3.80
  -1   5   1   72.69    4.20
  -1   5   1   93.39    4.20
  -1   5   1   76.19    3.90
   0  -5  -1  304.97   11.10
   0  -5  -1  302.67   11.40
   0   5   1  295.87   12.00
   0   5   1  287.37   11.50
   0   5   1  294.57   11.70
  -1  -5  -1   50.49    2.10
  -1  -5  -1   47.00    2.60
  -1  -5  -1   49.30    2.40
   1   5   1   49.20    3.00
   1   5   1   47.40    3.20
  -2  -5  -1  113.49    4.20
  -2  -5  -1  107.19    4.70
  -2  -5  -1  109.39    4.40
  -2  -5  -1  105.19    4.10
   2   5   1   97.19    4.20
   2   5   1  101.59    5.10
   2   5   1  109.99    5.30
  -3  -5  -1  127.39    5.10
  -3  -5  -1  129.79    5.60
  -3  -5  -1  132.29    5.50
   3   5   1  126.99    6.00
   3   5   1  126.49    6.10
   3   5   1  141.99    5.90
  -4  -5  -1  275.87   10.30
  -4  -5  -1  277.37   10.80
   4   5   1  275.17   11.30
   4   5   1  271.17   10.30
   4   5   1  265.87   11.30
   4   5   1  284.37   10.50
  -5  -5  -1   14.70    2.00
  -5  -5  -1   13.30    1.90
  -5  -5  -1   14.60    2.10
   5   5   1   13.80    1.80
   5   5   1   15.70    2.10
   5   5   1   12.60    1.70
   5   5   1   14.50    2.20
  -6  -5  -1   31.40    3.20
  -6  -5  -1   35.00    2.90
  -6  -5  -1   31.00    3.10
   6   5   1   31.00    2.70
   6   5   1   35.80    3.40
   6   5   1   32.40    2.60
  -7  -5  -1   51.19    3.70
  -7  -5  -1   56.89    4.40
  -7  -5  -1   57.39    4.00
   7   5   1   51.39    3.50
   7   5   1   52.99    4.40
   7   5   1   52.59    3.70
  -8  -5  -1  273.57   12.00
   8   5   1  295.57   12.40
   8   5   1  285.87   12.60
   8   5   1  286.47   11.90
  -9  -5  -1    5.20    3.00
   9   5   1   -1.00    2.20
   9   5   1    0.90    3.50
 -10  -5  -1   31.10    4.10
 -10  -5  -1   25.90    4.60
  10   5   1   21.90    3.40
   7  -6  -1   20.70    3.40
   7  -6  -1   14.30    3.10
  -7   6   1   21.60    3.80
   6  -6  -1   86.49    5.40
   6  -6  -1   87.69    5.70
  -6   6   1   88.39    6.90
  -6   6   1   81.19    5.90
   5  -6  -1    2.80    1.80
   5  -6  -1    2.60    1.80
  -5   6   1    1.30    2.50
  -5   6   1    3.70    2.20
   4  -6  -1   94.89    5.00
  -4   6   1   87.19    5.40
   3  -6  -1  361.46   13.90
  -3   6   1  349.07   14.70
  -3   6   1  358.76   14.40
   2  -6  -1 1455.15   53.09
  -2   6   1 1463.15   53.59
  -2   6   1 1526.85   54.19
  -2   6   1 1455.45   53.39
   1  -6  -1    4.00    0.90
   1  -6  -1    5.50    1.20
   1  -6  -1    4.20    0.80
  -1   6   1    2.20    1.50
  -1   6   1    2.00    1.20
  -1   6   1    2.30    1.40
   0  -6  -1   51.19    3.00
   0  -6  -1   53.79    2.70
   0  -6  -1   50.39    2.40
   0   6   1   52.89    3.50
   0   6   1   52.79    3.80
   0   6   1   54.69    3.20
  -1  -6  -1   10.00    1.20
  -1  -6  -1   14.10    1.30
  -1  -6  -1   10.40    1.40
   1   6   1   13.30    2.00
  -2  -6  -1   51.19    3.00
  -2  -6  -1   53.59    2.70
  -2  -6  -1   51.19    2.40
  -2  -6  -1   55.79    2.40
   2   6   1   47.90    3.50
   2   6   1   49.70    3.70
   2   6   1   50.29    2.30
  -3  -6  -1  113.19    5.00
  -3  -6  -1  106.89    5.10
   3   6   1  117.19    5.80
   3   6   1  115.39    4.70
  -4  -6  -1  480.75   18.20
  -4  -6  -1  490.65   18.30
   4   6   1  475.75   18.90
   4   6   1  491.75   18.90
   4   6   1  476.45   17.80
  -5  -6  -1  331.77   12.90
  -5  -6  -1  328.77   12.90
  -5  -6  -1  326.67   13.40
   5   6   1  323.27   12.10
   5   6   1  314.37   12.40
   5   6   1  323.77   13.50
  -6  -6  -1  188.58    8.80
  -6  -6  -1  201.58    8.70
  -6  -6  -1  191.98    8.50
   6   6   1  191.28    8.00
   6   6   1  184.48    9.00
  -7  -6  -1   63.89    4.90
  -7  -6  -1   60.49    4.40
   7   6   1   64.49    4.00
   7   6   1   64.49    5.30
  -8  -6  -1   72.09    6.70
  -8  -6  -1   65.09    5.70
   8   6   1   58.69    4.70
  -9  -6  -1   14.20    3.10
   9   6   1   12.90    2.80
   6  -7  -1   77.99    5.50
   6  -7  -1   83.69    5.60
   5  -7  -1    6.00    2.10
   5  -7  -1    6.70    2.20
  -5   7   1    8.60    3.60
  -5   7   1   -0.20    2.60
   4  -7  -1   24.50    3.00
   4  -7  -1   24.50    3.00
  -4   7   1   15.60    2.90
  -3   7   1  362.66   15.50
   2  -7  -1   85.49    4.70
   2  -7  -1   84.99    4.20
  -2   7   1   75.19    5.60
  -2   7   1   91.19    5.10
   1  -7  -1    7.80    1.50
   1  -7  -1    5.20    1.20
  -1   7   1    4.80    1.60
  -1   7   1    3.60    1.90
  -1   7   1    3.10    2.00
   0  -7  -1   79.59    3.60
   0  -7  -1   84.49    4.00
   0  -7  -1   84.49    4.40
   0   7   1   88.99    5.00
   0   7   1   90.39    5.40
   0   7   1   85.49    4.60
  -1  -7  -1  247.18   10.40
  -1  -7  -1  261.67   10.10
   1   7   1  257.67   11.40
   1   7   1  263.37   11.20
   1   7   1  267.97   11.10
  -2  -7  -1  632.14   23.40
  -2  -7  -1  655.83   24.20
  -2  -7  -1  684.63   23.90
   2   7   1  623.14   24.80
   2   7   1  648.64   25.20
  -3  -7  -1  115.09    5.60
  -3  -7  -1  114.69    5.40
   3   7   1  115.59    6.50
   3   7   1  124.39    4.90
   3   7   1  124.89    6.40
  -4  -7  -1  439.86   16.40
  -4  -7  -1  428.76   16.50
   4   7   1  418.96   17.30
   4   7   1  417.76   15.80
  -5  -7  -1  189.58    9.20
  -5  -7  -1  193.88    8.50
  -5  -7  -1  199.78    8.50
   5   7   1  188.78    7.90
   5   7   1  197.18    9.40
  -6  -7  -1   -0.50    2.30
  -6  -7  -1    2.30    2.00
  -6  -7  -1    3.10    2.00
   6   7   1    3.40    4.60
  -7  -7  -1   75.69    5.60
  -7  -7  -1   70.39    5.00
   7   7   1   65.89    4.40
  -8  -7  -1   51.39    4.90
   8   7   1   44.60    5.90
  -9  -7  -1   -0.30    4.60
  -9  -7  -1    3.10    3.00
   9   7   1    6.80    4.00
   9   7   1   -0.90    2.60
  -5   8   1    8.30    3.10
   4  -8  -1  108.09    6.70
   4  -8  -1  115.39    5.80
   4  -8  -1  115.49    6.50
  -4   8   1  112.39    6.90
  -4   8   1  105.49    8.00
   3  -8  -1  304.67   12.60
   3  -8  -1  278.37   11.80
   3  -8  -1  306.77   12.00
  -3   8   1  295.17   12.90
  -3   8   1  304.17   13.90
   2  -8  -1    1.90    1.20
   2  -8  -1   -0.40    1.30
   2  -8  -1    1.80    1.80
  -2   8   1    2.20    2.80
  -2   8   1   -0.80    1.90
   1  -8  -1   16.70    1.80
   1  -8  -1   14.60    1.90
   1  -8  -1   17.50    2.70
  -1   8   1   12.30    2.50
   0  -8  -1    8.90    1.50
   0  -8  -1    8.20    1.20
   0  -8  -1    8.40    1.90
   0   8   1    5.00    2.60
  -1  -8  -1  400.66   14.80
  -1  -8  -1  379.06   15.20
   1   8   1  375.36   15.90
   1   8   1  389.86   16.50
  -2  -8  -1    5.00    1.70
  -2  -8  -1    6.40    1.40
   2   8   1    2.00    2.10
   2   8   1    8.40    2.80
  -3  -8  -1  372.06   14.20
  -3  -8  -1  358.66   14.40
   3   8   1  354.96   15.60
   3   8   1  360.36   15.30
  -4  -8  -1  695.73   25.50
  -4  -8  -1  674.33   25.30
   4   8   1  705.03   29.80
   4   8   1  625.64   25.00
  -5  -8  -1  176.98    8.60
  -5  -8  -1  174.98    8.60
   5   8   1  185.68    9.40
   5   8   1  187.08    7.50
  -6  -8  -1  122.79    6.90
  -6  -8  -1  129.79    8.00
  -6  -8  -1  121.19    6.70
  -7  -8  -1    2.10    2.50
   7   8   1    0.10    2.10
   7   8   1    1.10    3.30
  -8  -8  -1   84.09    6.30
   8   8   1   87.99    7.80
   4  -9  -1   71.99    4.90
   4  -9  -1   60.29    5.70
  -4   9   1   70.79    6.30
  -4   9   1   69.89    7.90
   3  -9  -1   47.70    3.80
   3  -9  -1   52.99    3.80
   3  -9  -1   47.20    4.60
  -3   9   1   33.90    5.40
  -3   9   1   48.70    5.00
   2  -9  -1   -2.00    2.20
   2  -9  -1    2.80    1.60
  -2   9   1   -0.80    2.40
  -2   9   1   -4.70    3.30
   1  -9  -1    3.90    2.00
   1  -9  -1    1.50    1.60
  -1   9   1    1.40    3.10
  -1   9   1   -2.20    2.10
   0  -9  -1   -3.70    1.80
   0  -9  -1   -1.90    1.30
   0   9   1   -3.80    3.00
   0   9   1    0.40    2.70
  -1  -9  -1   50.49    3.30
  -1  -9  -1   51.39    4.10
   1   9   1   45.30    5.30
   1   9   1   45.10    5.50
  -2  -9  -1    0.00    1.80
  -2  -9  -1    3.60    1.60
   2   9   1    2.00    2.90
   2   9   1    0.40    3.00
  -3  -9  -1    0.20    2.10
  -3  -9  -1    2.00    1.80
   3   9   1   -0.20    3.10
  -4  -9  -1   42.10    3.80
  -4  -9  -1   37.20    4.20
   4   9   1   58.69    6.10
   4   9   1   56.19    7.40
  -5  -9  -1    6.70    2.40
   5   9   1   13.80    3.50
   5   9   1    7.60    4.40
  -6  -9  -1   23.00    5.30
  -6  -9  -1   25.90    3.60
  -6  -9  -1   23.30    4.20
   6   9   1   22.90    6.80
   6   9   1   17.90    4.00
  -7  -9  -1   34.90    4.20
   2 -10  -1   -1.10    2.00
   2 -10  -1    4.80    2.80
  -2  10   1   -0.60    2.90
  -2  10   1    6.50    4.70
   1 -10  -1   11.00    2.20
   1 -10  -1   13.10    2.90
  -1  10   1   15.40    4.40
   0 -10  -1   16.20    2.40
   0 -10  -1   16.30    2.90
   0  10   1   17.20    5.50
   0  10   1   16.30    4.10
  -1 -10  -1    2.40    2.40
  -1 -10  -1    0.40    1.80
   1  10   1   -1.00    3.30
  -2 -10  -1   61.79    5.00
  -2 -10  -1   68.49    4.50
   2  10   1   61.59    6.40
   2  10   1   60.09    7.00
  -3 -10  -1   43.00    4.60
  -3 -10  -1   37.40    4.00
   3  10   1   37.00    5.10
   3  10   1   40.30    5.50
  -4 -10  -1  233.78   11.10
  -4 -10  -1  258.67   11.60
   4  10   1  283.17   13.30
  -5 -10  -1   75.49    6.40
  -5 -10  -1   65.29    5.60
   5  10   1   72.19    7.50
  -6 -10  -1  152.78   10.20
  -6 -10  -1  142.39    8.10
   6  10   1  120.39    9.50
  -1 -11  -1  105.19    7.00
   1  11   1  106.69   10.60
  -2 -11  -1    8.70    3.10
  -2 -11  -1    3.00    2.50
  -3 -11  -1    8.40    3.30
   3  11   1   12.50    4.50
   3  11   1    3.90    5.10
   5  10  -2   35.80    5.10
  -5 -10   2   37.90    4.50
  -5 -10   2   34.10    4.00
   4  10  -2    0.10    3.40
  -4 -10   2    1.60    3.60
   3  10  -2   -0.40    3.40
   2  10  -2   23.50    4.60
   2  10  -2   29.60    4.40
  -2 -10   2   27.30    3.80
  -2 -10   2   17.30    2.90
   1  10  -2   12.60    4.00
  -1 -10   2   16.80    3.10
   0  10  -2   12.10    3.80
   0 -10   2    8.10    2.80
  -1  10  -2   16.00    4.20
   1 -10   2   13.80    3.10
   1 -10   2   14.80    2.40
  -2  10  -2   19.80    5.10
  -2  10  -2   26.90    5.30
   2 -10   2   21.50    3.00
   2 -10   2   27.40    3.80
   6   9  -2   11.80    3.70
  -6  -9   2   12.10    3.20
   5   9  -2    1.90    3.00
   5   9  -2   -2.60    3.90
  -5  -9   2    3.30    2.70
  -5  -9   2   -0.90    2.50
   4   9  -2   91.59    6.50
  -4  -9   2   90.99    5.70
   3   9  -2    5.20    3.30
  -3  -9   2    3.20    2.10
  -3  -9   2    2.60    2.30
   2   9  -2   58.89    5.40
   2   9  -2   69.09    6.40
  -2  -9   2   58.99    4.50
  -2  -9   2   57.39    4.20
   1   9  -2   14.70    3.60
  -1  -9   2   10.80    2.10
   0   9  -2   -3.20    2.50
   0   9  -2    6.10    3.10
   0  -9   2    4.30    2.20
   0  -9   2    1.80    1.70
   0  -9   2    3.30    1.70
  -1   9  -2   11.20    3.40
  -1   9  -2   24.80    3.90
  -1   9  -2   19.50    3.00
   1  -9   2   20.10    2.40
  -2   9  -2    4.30    2.60
  -2   9  -2    5.90    3.30
   2  -9   2    6.90    2.00
   2  -9   2    2.30    2.30
   3  -9   2   36.80    3.70
   3  -9   2   37.00    4.60
   3  -9   2   45.00    4.20
  -4   9  -2   85.99    8.00
  -4   9  -2   77.69    6.90
   4  -9   2   82.59    5.20
   4  -9   2   82.29    5.30
   4  -9   2   82.09    6.10
   7   8  -2  241.68   10.20
  -7  -8   2  228.78   10.70
   6   8  -2   48.20    5.30
   6   8  -2   43.60    3.70
  -6  -8   2   53.79    6.60
  -6  -8   2   57.49    5.20
   5   8  -2   20.10    3.30
  -5  -8   2   19.30    3.00
  -5  -8   2   21.50    2.80
   4   8  -2  134.29    7.40
  -4  -8   2  148.29    6.90
  -4  -8   2  122.89    6.70
   3   8  -2   18.00    3.10
  -3  -8   2   15.50    3.00
   2   8  -2   12.40    2.40
   2   8  -2   12.80    2.90
  -2  -8   2    8.50    1.90
  -2  -8   2   13.40    2.00
   1   8  -2   11.70    2.90
   1   8  -2    6.40    2.00
  -1  -8   2    6.40    2.10
  -1  -8   2    7.20    1.90
  -1  -8   2    5.80    1.60
   0   8  -2  225.28   10.50
   0  -8   2  214.38    8.80
   0  -8   2  212.98    9.00
  -1   8  -2  127.29    7.70
  -1   8  -2  138.99    6.90
   1  -8   2  136.99    6.20
   1  -8   2  140.49    6.70
  -2   8  -2    2.40    2.30
  -2   8  -2    6.40    2.90
   2  -8   2   -1.40    1.90
   2  -8   2    1.70    1.40
  -3   8  -2   -3.20    2.70
  -3   8  -2    1.20    2.40
   3  -8   2   -0.60    2.00
   3  -8   2    0.30    1.70
   3  -8   2   -1.70    1.40
  -4   8  -2   -1.50    2.50
  -4   8  -2    5.20    3.50
   4  -8   2    3.10    2.20
  -5   8  -2   14.30    4.10
  -5   8  -2   21.80    3.80
   5  -8   2   20.30    2.80
   8   7  -2    2.60    3.30
   8   7  -2   -2.50    2.30
  -8  -7   2    2.30    2.80
   7   7  -2   28.50    3.60
  -7  -7   2   37.30    4.70
  -7  -7   2   31.00    4.30
   6   7  -2   58.69    4.70
  -6  -7   2   47.00    4.90
  -6  -7   2   54.59    4.30
  -5  -7   2    7.10    2.80
   4   7  -2  105.49    4.70
   4   7  -2  100.09    6.10
   4   7  -2   97.69    5.70
  -4  -7   2  104.09    5.40
  -4  -7   2  100.69    5.20
  -4  -7   2  112.79    5.60
   3   7  -2    0.50    1.10
   3   7  -2   -0.40    1.50
  -3  -7   2    1.40    1.50
  -3  -7   2    1.20    1.30
  -3  -7   2    1.50    1.40
   2   7  -2    0.70    1.80
   2   7  -2    0.30    1.40
  -2  -7   2    0.90    1.20
  -2  -7   2    2.40    1.30
  -2  -7   2    0.40    1.10
   1   7  -2   55.79    3.80
   1   7  -2   56.09    4.30
  -1  -7   2   56.69    3.40
  -1  -7   2   57.09    3.20
   0   7  -2  253.67   10.00
   0   7  -2  234.98    9.80
   0   7  -2  231.18   10.40
   0  -7   2  227.78    9.30
   0  -7   2  234.88    9.60
  -1   7  -2  111.29    5.50
  -1   7  -2  102.19    6.10
  -1   7  -2  107.39    5.50
   1  -7   2  108.59    5.30
   1  -7   2  107.99    4.90
  -2   7  -2  201.18    9.00
  -2   7  -2  199.38    9.60
   2  -7   2  204.48    8.30
   2  -7   2  206.88    8.80
  -3   7  -2    5.70    2.50
  -3   7  -2    3.70    2.00
   3  -7   2    2.30    1.30
   3  -7   2    1.70    1.50
  -4   7  -2   13.00    2.80
  -4   7  -2   13.50    3.20
   4  -7   2   15.30    2.10
  -5   7  -2   50.39    5.00
   5  -7   2   55.69    4.00
   5  -7   2   56.69    4.00
  -6   7  -2    8.60    3.20
   6  -7   2    2.20    2.20
   6  -7   2   -1.30    2.20
   9   6  -2   36.60    4.90
   9   6  -2   39.00    4.50
  -9  -6   2   42.10    5.60
  -9  -6   2   42.00    5.30
   8   6  -2   51.19    4.30
  -8  -6   2   46.00    5.70
  -8  -6   2   50.59    4.80
   7   6  -2   29.40    3.30
   7   6  -2   27.70    3.50
   7   6  -2   29.60    4.20
  -7  -6   2   31.80    4.30
  -7  -6   2   36.00    3.70
  -7  -6   2   27.20    3.80
   6   6  -2  101.89    5.10
   6   6  -2  104.89    5.90
   6   6  -2  100.59    5.70
   6   6  -2  103.09    5.80
  -6  -6   2  107.99    6.30
  -6  -6   2  102.29    5.90
   5   6  -2   56.39    4.10
   5   6  -2   52.29    3.10
   5   6  -2   45.60    3.70
  -5  -6   2   49.90    3.80
  -5  -6   2   50.29    3.40
  -5  -6   2   49.10    3.80
   4   6  -2    3.70    1.50
   4   6  -2    2.40    1.00
  -4  -6   2    2.50    1.40
  -4  -6   2    5.70    1.40
  -4  -6   2    1.40    1.50
   3   6  -2   83.59    4.40
   3   6  -2   76.39    3.60
  -3  -6   2   75.89    4.40
  -3  -6   2   81.39    4.10
  -3  -6   2   78.99    4.00
   2   6  -2  303.57   11.50
   2   6  -2  310.77   12.40
  -2  -6   2  307.27   11.60
  -2  -6   2  328.07   12.10
   1   6  -2  226.38    9.20
   1   6  -2  232.88    9.60
  -1  -6   2  206.38    8.80
  -1  -6   2  225.58    8.80
  -1  -6   2  233.48    9.00
   0   6  -2    7.70    1.80
   0   6  -2    4.80    1.30
   0   6  -2    7.10    1.40
   0  -6   2    6.00    1.00
   0  -6   2    5.40    1.00
   0  -6   2    6.20    1.30
  -1   6  -2   34.70    2.80
  -1   6  -2   40.70    3.30
  -1   6  -2   36.50    2.80
   1  -6   2   44.30    2.40
   1  -6   2   41.50    2.70
  -2   6  -2   15.90    2.30
  -2   6  -2   13.20    1.90
  -2   6  -2   14.20    1.80
   2  -6   2   14.70    1.70
   2  -6   2   14.50    1.60
  -3   6  -2  126.19    6.40
  -3   6  -2  116.09    6.00
   3  -6   2  120.39    5.30
   3  -6   2  116.89    5.30
  -4   6  -2   14.90    2.80
  -4   6  -2   12.30    2.30
   4  -6   2   15.20    2.00
   4  -6   2   16.30    2.20
  -5   6  -2  104.59    6.40
   5  -6   2  111.79    5.60
   5  -6   2  117.09    5.70
  -6   6  -2   71.29    6.10
  -6   6  -2   76.79    5.70
   6  -6   2   79.39    5.00
   6  -6   2   76.99    4.80
  -7   6  -2   72.59    6.30
   7  -6   2   75.89    5.50
   9   5  -2   -2.50    3.40
   9   5  -2    7.70    2.90
  -9  -5   2   -0.40    3.90
   8   5  -2  198.98    9.40
   8   5  -2  200.78    9.50
   8   5  -2  196.68    9.50
  -8  -5   2  199.88   10.20
  -8  -5   2  173.48    8.90
   7   5  -2   10.00    2.40
   7   5  -2   10.10    2.10
  -7  -5   2    7.70    2.60
  -7  -5   2   10.20    2.80
   6   5  -2   84.69    4.50
   6   5  -2   86.79    5.00
  -6  -5   2   88.79    5.20
  -6  -5   2   96.09    4.70
  -6  -5   2   88.09    5.40
   5   5  -2  211.28    9.50
   5   5  -2  247.88    9.80
   5   5  -2  238.18    9.30
  -5  -5   2  238.38   10.00
  -5  -5   2  228.28    9.40
   4   5  -2  444.86   16.30
   4   5  -2  442.86   16.80
  -4  -5   2  443.36   16.80
  -4  -5   2  443.56   16.50
  -4  -5   2  417.56   16.80
   3   5  -2  377.26   14.30
   3   5  -2  369.56   14.10
   3   5  -2  370.56   13.90
  -3  -5   2  347.87   14.00
  -3  -5   2  370.06   13.80
  -3  -5   2  366.56   14.00
   2   5  -2  978.00   36.00
  -2  -5   2  988.30   35.50
  -2  -5   2 1013.60   35.30
  -2  -5   2  948.21   35.60
  -2  -5   2  990.50   35.60
   1   5  -2  273.07   10.80
   1   5  -2  294.17   11.10
  -1  -5   2  282.87   10.50
  -1  -5   2  263.17   10.50
  -1  -5   2  271.07   10.60
   0   5  -2    4.60    1.00
   0   5  -2    5.40    1.00
   0  -5   2    8.30    1.00
  -1   5  -2  373.46   14.20
  -1   5  -2  339.67   15.10
   1  -5   2  385.66   13.90
   1  -5   2  390.86   13.90
  -2   5  -2  142.99    6.30
  -2   5  -2  136.49    6.40
   2  -5   2  147.19    5.80
   2  -5   2  141.09    5.80
  -3   5  -2  120.19    5.20
  -3   5  -2  123.29    5.80
  -3   5  -2  125.19    6.00
   3  -5   2  120.99    4.90
   3  -5   2  126.69    5.30
   3  -5   2  128.49    5.40
  -4   5  -2   54.19    4.00
  -4   5  -2   59.29    3.90
   4  -5   2   59.69    3.30
   4  -5   2   59.29    3.40
   4  -5   2   59.29    2.70
  -5   5  -2  208.88    9.40
   5  -5   2  207.48    8.20
   5  -5   2  218.18    8.90
   5  -5   2  210.48    9.00
  -6   5  -2    1.20    2.40
  -6   5  -2    1.90    2.20
   6  -5   2    3.80    1.90
   6  -5   2   -1.20    1.60
  -7   5  -2    0.00    2.50
  -7   5  -2    2.20    3.50
   7  -5   2    8.60    2.60
   7  -5   2   -1.70    2.00
  -8   5  -2   58.09    6.20
   8  -5   2   54.09    5.00
   8  -5   2   69.09    6.10
   9   4  -2   37.90    4.50
   9   4  -2   36.00    4.00
  -9  -4   2   33.00    4.10
   8   4  -2   10.10    2.20
   8   4  -2   10.40    2.80
  -8  -4   2    5.00    2.80
  -8  -4   2   13.50    2.50
   7   4  -2  162.08    7.40
   7   4  -2  154.38    6.90
  -7  -4   2  149.79    8.00
  -7  -4   2  148.09    7.10
   6   4  -2   10.30    2.00
   6   4  -2    5.90    1.40
   6   4  -2    9.60    2.00
  -6  -4   2    8.80    2.10
  -6  -4   2    8.10    1.60
   5   4  -2  723.63   26.90
   5   4  -2  726.93   27.30
   5   4  -2  752.82   27.10
  -5  -4   2  741.13   27.10
  -5  -4   2  735.33   26.90
  -5  -4   2  764.62   28.50
  -5  -4   2  730.73   27.70
   4   4  -2   44.80    2.70
   4   4  -2   44.90    2.40
  -4  -4   2   43.00    2.90
  -4  -4   2   47.20    3.10
  -4  -4   2   47.00    2.60
   3   4  -2  138.89    6.20
   3   4  -2  143.79    5.90
  -3  -4   2  147.29    6.10
  -3  -4   2  142.99    6.00
  -3  -4   2  136.29    5.60
  -3  -4   2  139.09    5.70
   2   4  -2  444.96   15.90
   2   4  -2  430.26   16.10
   2   4  -2  426.76   16.30
   2   4  -2  443.16   15.90
  -2  -4   2  423.96   15.80
  -2  -4   2  436.86   16.10
   1   4  -2  122.99    4.80
   1   4  -2  122.69    4.70
   1   4  -2  125.49    5.30
   1   4  -2  119.69    5.10
  -1  -4   2  121.99    5.10
  -1  -4   2  128.59    4.70
  -1  -4   2  125.59    5.00
   0   4  -2   41.50    2.00
   0   4  -2   44.10    2.50
   0  -4   2   41.00    2.00
   0  -4   2   39.40    2.10
   0  -4   2   42.00    2.30
  -1   4  -2 1082.29   37.90
   1  -4   2 1057.09   37.40
   1  -4   2 1015.70   37.30
   1  -4   2 1014.20   37.40
  -2   4  -2  258.67   10.10
  -2   4  -2  243.68    9.70
  -2   4  -2  270.27   10.30
   2  -4   2  261.17    9.80
   2  -4   2  257.97    9.80
  -3   4  -2    4.60    1.10
  -3   4  -2    5.00    0.80
  -3   4  -2    1.70    1.00
   3  -4   2    3.90    0.70
  -4   4  -2   10.80    1.70
  -4   4  -2   11.20    1.70
   4  -4   2   12.00    1.50
   4  -4   2   10.20    1.50
  -5   4  -2  322.87   13.20
   5  -4   2  329.27   12.90
   5  -4   2  315.17   12.20
   5  -4   2  342.57   13.00
  -6   4  -2    0.80    1.80
  -6   4  -2   -1.10    1.70
  -6   4  -2   -0.90    1.80
   6  -4   2   -0.10    1.20
   6  -4   2   -1.20    1.50
   6  -4   2    1.80    1.80
  -7   4  -2    1.50    2.20
  -7   4  -2   -0.10    2.40
   7  -4   2   -3.40    2.20
   7  -4   2    1.10    1.90
  -8   4  -2    2.70    2.90
  -8   4  -2    0.90    3.20
  -8   4  -2   -3.50    2.80
   8  -4   2    7.20    2.50
   8  -4   2    5.90    3.00
   9   3  -2   12.40    2.50
  -9  -3   2    8.10    3.40
  -9  -3   2    6.00    3.40
   8   3  -2   78.09    4.60
   8   3  -2   69.69    5.60
   8   3  -2   80.79    4.90
  -8  -3   2   81.79    5.90
  -8  -3   2   74.99    5.00
   7   3  -2  139.69    6.70
   7   3  -2  144.09    6.50
  -7  -3   2  146.29    7.40
  -7  -3   2  147.89    7.60
  -7  -3   2  144.79    6.70
   6   3  -2  226.28    9.70
   6   3  -2  218.78    9.00
   6   3  -2  231.88    9.10
  -6  -3   2  233.98    9.90
  -6  -3   2  209.98    9.10
  -6  -3   2  223.08    9.80
   5   3  -2  188.98    7.60
   5   3  -2  190.38    8.20
  -5  -3   2  178.88    8.20
  -5  -3   2  199.48    7.70
  -5  -3   2  191.18    8.30
   4   3  -2   63.99    2.90
   4   3  -2   54.89    2.80
   4   3  -2   61.29    3.00
  -4  -3   2   59.99    3.00
  -4  -3   2   62.39    3.50
  -4  -3   2   62.39    3.40
   3   3  -2  112.89    4.60
   3   3  -2  109.69    4.90
   3   3  -2  115.39    4.70
   3   3  -2  115.39    4.60
   3   3  -2  110.99    4.60
  -3  -3   2  109.29    4.90
   2   3  -2 1941.21   70.99
   2   3  -2 1921.91   71.09
   2   3  -2 2024.70   71.09
   2   3  -2 2010.80   70.89
  -2  -3   2 1986.10   71.19
  -2  -3   2 2036.50   70.99
  -2  -3   2 2057.09   70.99
  -2  -3   2 1981.30   71.19
   1   3  -2  157.78    6.80
   1   3  -2  177.38    6.50
   1   3  -2  193.48    6.70
  -1  -3   2  164.88    6.70
  -1  -3   2  176.38    6.50
  -1  -3   2  181.48    6.90
  -1  -3   2  173.48    6.60
   0   3  -2   30.80    1.60
   0   3  -2   31.90    1.60
   0   3  -2   27.80    1.50
   0  -3   2   29.80    1.50
   0  -3   2   33.60    1.60
   0  -3   2   28.20    1.70
   0  -3   2   30.90    1.60
   0  -3   2   27.80    1.60
  -1   3  -2 2240.88   78.49
  -1   3  -2 2128.09   78.79
  -1   3  -2 2121.89   78.59
   1  -3   2 2246.38   78.49
   1  -3   2 2308.37   78.69
  -2   3  -2   27.00    1.80
   2  -3   2   29.20    1.30
   2  -3   2   27.00    1.60
   2  -3   2   28.20    1.70
  -3   3  -2  395.56   15.50
  -3   3  -2  401.66   14.90
   3  -3   2  416.26   14.90
   3  -3   2  416.56   15.40
   3  -3   2  421.56   15.40
   3  -3   2  436.46   15.10
  -4   3  -2  119.19    5.50
  -4   3  -2  122.59    5.70
   4  -3   2  128.29    5.00
   4  -3   2  135.29    5.50
  -5   3  -2   43.80    3.10
  -5   3  -2   43.00    3.20
   5  -3   2   43.30    3.10
   5  -3   2   48.10    3.00
   5  -3   2   44.80    2.40
  -6   3  -2    0.80    1.50
  -6   3  -2    1.80    1.40
  -6   3  -2   -0.80    1.50
   6  -3   2    0.00    1.50
   6  -3   2    0.70    1.30
   6  -3   2    0.90    1.00
  -7   3  -2   23.80    3.10
  -7   3  -2   23.00    3.10
  -7   3  -2   17.60    2.80
   7  -3   2   23.20    3.00
   7  -3   2   24.70    3.10
   7  -3   2   22.90    2.40
  -8   3  -2   32.80    4.10
  -8   3  -2   27.50    3.80
  -8   3  -2   32.00    4.00
   8  -3   2   29.20    3.70
   8  -3   2   34.20    3.30
  -9   3  -2   57.69    5.90
   9  -3   2   54.39    5.20
   9  -3   2   63.59    6.10
   9   2  -2    4.40    2.20
   9   2  -2    4.20    2.90
  -9  -2   2    2.50    3.20
  -9  -2   2   -1.70    2.60
   8   2  -2    2.30    1.80
   8   2  -2    1.10    2.50
   8   2  -2    0.00    1.60
  -8  -2   2    5.50    2.70
  -8  -2   2    3.30    2.10
   7   2  -2    5.70    2.00
   7   2  -2    5.40    1.50
   7   2  -2    8.10    1.60
  -7  -2   2    8.30    1.80
  -7  -2   2    8.10    2.30
   6   2  -2   26.70    2.20
   6   2  -2   25.40    2.90
  -6  -2   2   27.30    2.40
  -6  -2   2   23.00    2.90
  -6  -2   2   29.10    3.10
   5   2  -2   35.40    2.10
   5   2  -2   36.00    2.80
   5   2  -2   34.60    2.20
  -5  -2   2   34.50    2.30
  -5  -2   2   35.40    3.00
  -5  -2   2   36.80    2.90
   4   2  -2   66.09    3.80
   4   2  -2   72.09    3.20
  -4  -2   2   71.89    3.30
  -4  -2   2   69.59    3.80
  -4  -2   2   73.39    3.70
   3   2  -2 1699.53   60.09
   3   2  -2 1670.83   60.29
   3   2  -2 1689.63   59.79
   3   2  -2 1693.53   59.99
   3   2  -2 1831.82   60.19
  -3  -2   2 1594.94   59.99
  -3  -2   2 1755.32   60.49
  -3  -2   2 1681.33   59.59
  -3  -2   2 1527.15   60.69
   2   2  -2  900.71   32.30
   2   2  -2  880.51   32.40
   2   2  -2  890.01   32.30
   2   2  -2  833.02   32.40
  -2  -2   2  908.71   32.60
  -2  -2   2  933.71   32.60
  -2  -2   2  898.81   32.70
  -2  -2   2  942.71   32.30
  -2  -2   2  940.11   32.30
   1   2  -2  545.85   20.20
   1   2  -2  553.74   20.20
   1   2  -2  558.74   20.20
   1   2  -2  564.34   20.10
   1   2  -2  566.94   20.10
  -1  -2   2  550.34   20.40
  -1  -2   2  568.74   20.10
  -1  -2   2  554.74   20.20
  -1  -2   2  580.44   20.10
  -1  -2   2  560.14   20.30
   0   2  -2 1220.38   43.40
   0   2  -2 1157.58   43.40
   0   2  -2 1220.18   43.30
   0   2  -2 1236.38   43.30
   0   2  -2 1265.87   43.50
   0  -2   2 1235.78   43.30
   0  -2   2 1250.87   43.40
   0  -2   2 1165.88   43.40
  -1   2  -2    1.10    0.40
  -1   2  -2    1.10    0.30
  -1   2  -2    2.40    0.50
  -1   2  -2    0.80    0.30
   1  -2   2    1.10    0.30
   1  -2   2    0.30    0.30
   1  -2   2    1.70    0.30
  -2   2  -2 1364.46   52.49
  -2   2  -2 1442.46   52.39
  -2   2  -2 1516.35   51.99
   2  -2   2 1479.15   52.39
   2  -2   2 1485.35   52.29
   2  -2   2 1501.25   52.09
   2  -2   2 1457.55   52.29
   2  -2   2 1452.45   52.09
   2  -2   2 1495.65   52.49
  -3   2  -2  636.34   22.40
  -3   2  -2  606.14   22.30
   3  -2   2  595.84   22.20
   3  -2   2  625.14   21.90
   3  -2   2  577.34   22.20
  -4   2  -2   12.10    1.60
  -4   2  -2    8.10    1.30
  -4   2  -2   12.70    1.60
   4  -2   2   12.00    1.20
   4  -2   2   12.30    1.50
   4  -2   2   12.10    1.50
  -5   2  -2    0.30    0.90
  -5   2  -2    1.60    1.00
   5  -2   2    0.80    0.80
   5  -2   2    0.30    1.10
   5  -2   2    1.00    1.00
  -6   2  -2  605.34   23.20
  -6   2  -2  616.74   22.60
  -6   2  -2  613.34   23.10
   6  -2   2  603.54   23.00
   6  -2   2  593.34   22.90
   6  -2   2  619.04   22.40
  -7   2  -2    0.40    1.40
  -7   2  -2   -1.40    1.80
  -7   2  -2    1.30    1.70
   7  -2   2    1.20    2.00
   7  -2   2   -0.60    1.50
   7  -2   2   -0.20    1.20
  -8   2  -2    3.70    3.00
  -8   2  -2    5.20    2.40
  -8   2  -2    6.70    2.70
   8  -2   2    2.70    1.70
   8  -2   2    3.20    2.10
   8  -2   2    3.10    2.60
  -9   2  -2   66.39    5.90
   9  -2   2   70.69    5.20
   9  -2   2   66.89    4.70
   9  -2   2   74.59    6.30
  -9  -1   2   62.59    6.50
  -9  -1   2   70.89    5.60
   8   1  -2   22.50    2.60
   8   1  -2   22.10    3.40
  -8  -1   2   27.90    3.30
  -8  -1   2   29.90    3.80
   7   1  -2  115.09    6.30
   7   1  -2  111.99    5.30
   7   1  -2  109.19    5.00
  -7  -1   2  117.99    5.70
  -7  -1   2   97.69    6.30
   6   1  -2   12.40    1.60
   6   1  -2   12.50    1.60
   6   1  -2   10.60    2.00
  -6  -1   2   15.80    1.90
  -6  -1   2   11.90    2.10
  -6  -1   2   13.00    2.20
   5   1  -2  176.68    7.00
   5   1  -2  179.78    7.20
   5   1  -2  178.38    7.90
  -5  -1   2  188.88    7.40
  -5  -1   2  176.48    7.90
   4   1  -2  342.47   12.90
   4   1  -2  335.27   13.40
  -4  -1   2  307.27   13.50
  -4  -1   2  352.56   13.60
  -4  -1   2  372.16   13.00
  -4  -1   2  370.26   13.60
   3   1  -2  496.25   18.50
   3   1  -2  572.44   18.50
   3   1  -2  515.95   18.40
  -3  -1   2  463.05   18.90
  -3  -1   2  490.15   18.50
  -3  -1   2  492.65   19.00
  -3  -1   2  529.45   19.00
   2   1  -2 1743.93   63.09
   2   1  -2 1848.81   63.19
   2   1  -2 1730.83   62.99
  -2  -1   2 1766.42   63.09
  -2  -1   2 1803.42   63.39
  -2  -1   2 1826.42   63.29
  -2  -1   2 1693.33   62.99
   1   1  -2   43.80    1.90
   1   1  -2   48.70    1.90
   1   1  -2   43.10    1.90
   1   1  -2   44.90    1.70
   1   1  -2   46.80    1.80
   1   1  -2   43.60    1.90
  -1  -1   2   45.20    1.80
  -1  -1   2   44.30    1.70
  -1  -1   2   44.90    2.00
  -1  -1   2   40.50    2.10
   0   1  -2  652.53   22.50
   0   1  -2  612.34   22.50
   0   1  -2  634.14   22.40
   0   1  -2  615.24   22.40
   0   1  -2  595.34   22.50
   0   1  -2  673.03   22.50
   0  -1   2  637.04   22.40
   0  -1   2  639.94   22.50
   0  -1   2  632.24   22.60
   0  -1   2  634.24   22.50
   0  -1   2  625.44   22.50
   0  -1   2  592.84   22.40
  -1   1  -2  127.49    5.00
  -1   1  -2  127.99    4.90
  -1   1  -2  126.19    5.00
  -1   1  -2  133.89    4.90
  -1   1  -2  138.89    5.10
   1  -1   2  131.69    5.00
   1  -1   2  132.79    4.90
   1  -1   2  132.39    4.90
   1  -1   2  134.59    5.00
   1  -1   2  142.99    5.00
  -2   1  -2  499.55   17.90
  -2   1  -2  500.35   18.10
  -2   1  -2  482.25   18.10
  -2   1  -2  519.45   18.00
  -2   1  -2  503.35   18.20
   2  -1   2  495.65   18.00
   2  -1   2  485.95   18.10
   2  -1   2  516.65   18.50
  -3   1  -2  441.76   15.90
  -3   1  -2  422.86   15.50
  -3   1  -2  409.06   15.80
  -3   1  -2  427.06   15.80
   3  -1   2  443.56   15.50
   3  -1   2  412.76   15.80
   3  -1   2  433.16   16.00
  -4   1  -2  217.08    8.20
  -4   1  -2  193.48    8.20
   4  -1   2  204.38    8.10
   4  -1   2  202.98    7.80
  -5   1  -2   13.40    1.70
  -5   1  -2   16.50    1.40
  -5   1  -2   11.70    1.70
   5  -1   2   12.60    1.70
   5  -1   2   14.70    1.50
  -6   1  -2    0.80    0.90
  -6   1  -2   -1.50    1.00
  -6   1  -2   -0.70    1.40
   6  -1   2   -0.60    1.10
   6  -1   2    0.60    0.90
  -7   1  -2   20.70    2.80
  -7   1  -2   20.90    2.20
  -7   1  -2   19.20    2.70
   7  -1   2   19.40    2.20
   7  -1   2   14.10    2.20
  -8   1  -2  206.08    9.70
  -8   1  -2  217.28   10.00
   8  -1   2  206.18    8.90
   8  -1   2  207.78    9.50
  -9   1  -2   -2.40    2.50
   9  -1   2    3.70    2.10
   9  -1   2    0.60    2.30
 -10   1  -2   -1.30    3.40
  10  -1   2    0.70    2.60
   9   0  -2    4.60    2.80
   9   0  -2    4.60    2.20
  -9   0   2    0.50    3.30
  -9   0   2    4.60    2.80
   8   0  -2   16.20    3.10
   8   0  -2   17.40    2.30
  -8   0   2    8.40    2.90
  -8   0   2   18.30    3.50
   7   0  -2   95.19    4.30
   7   0  -2   90.99    4.60
   7   0  -2  100.69    5.70
  -7   0   2   83.49    5.70
  -7   0   2   85.99    5.30
   6   0  -2   -0.10    1.50
   6   0  -2    1.30    1.00
  -6   0   2    0.80    1.20
  -6   0   2    3.70    1.70
   5   0  -2  421.56   15.90
   5   0  -2  415.36   16.60
  -5   0   2  429.46   16.70
  -5   0   2  436.06   16.10
  -5   0   2  424.86   16.70
   4   0  -2 1838.72   66.59
   4   0  -2 1867.61   66.89
   4   0  -2 1865.11   67.49
  -4   0   2 1903.01   67.49
  -4   0   2 1890.91   67.59
   3   0  -2  814.22   30.40
   3   0  -2  836.22   30.20
   3   0  -2  822.52   30.90
  -3   0   2  864.71   30.50
  -3   0   2  840.22   31.00
  -3   0   2  882.21   30.90
   2   0  -2 6328.57  228.78
   2   0  -2 5591.44  230.58
  -2   0   2 6337.37  227.98
  -1   0   2 2746.73   97.59
   0   0  -2    5.80    0.40
   0   0  -2    7.30    0.50
   0   0  -2    5.90    0.60
   0   0  -2    5.50    0.50
   0   0  -2    5.40    0.30
   0   0  -2    5.50    0.50
   0   0  -2    5.70    0.50
   0   0   2    5.90    0.50
   0   0   2    5.80    0.50
   0   0   2    5.70    0.50
   0   0   2    6.10    0.40
   0   0   2    5.60    0.50
  -1   0  -2  432.56   16.10
  -1   0  -2  449.86   16.10
  -1   0  -2  453.35   16.00
  -1   0  -2  433.86   16.00
  -1   0  -2  436.36   15.90
  -1   0  -2  448.56   16.10
   1   0   2  440.96   16.10
   1   0   2  449.95   16.00
   1   0   2  461.25   16.20
   1   0   2  450.45   16.00
   1   0   2  445.56   15.90
   1   0   2  453.35   16.00
  -2   0  -2  288.87   10.60
  -2   0  -2  298.27   10.80
  -2   0  -2  286.77   10.70
  -2   0  -2  295.87   10.70
  -2   0  -2  273.47   10.70
   2   0   2  312.17   11.00
   2   0   2  285.37   10.70
   2   0   2  291.77   10.70
   2   0   2  298.67   10.70
   2   0   2  291.17   10.60
  -3   0  -2 1086.99   38.90
  -3   0  -2 1076.89   38.80
  -3   0  -2 1087.39   38.60
  -3   0  -2 1122.29   38.70
  -3   0  -2 1078.79   38.70
  -3   0  -2 1062.09   38.80
   3   0   2 1065.69   38.60
   3   0   2 1066.29   38.80
   3   0   2 1078.29   38.70
   3   0   2 1088.69   38.80
  -4   0  -2   23.30    1.60
  -4   0  -2   23.50    1.70
  -4   0  -2   19.90    1.30
   4   0   2   20.60    1.60
   4   0   2   20.50    1.60
   4   0   2   20.60    1.40
  -5   0  -2  553.54   20.20
  -5   0  -2  540.35   20.00
   5   0   2  549.05   19.70
   5   0   2  541.55   20.00
   5   0   2  524.65   19.50
   5   0   2  509.55   19.80
  -6   0  -2  600.44   22.50
  -6   0  -2  613.34   24.00
  -6   0  -2  602.14   21.90
   6   0   2  602.84   22.20
   6   0   2  597.04   22.50
   6   0   2  584.04   21.80
  -7   0  -2  130.79    6.70
  -7   0  -2  126.49    6.30
  -7   0  -2  132.19    6.20
   7   0   2  129.49    5.40
   7   0   2  131.49    5.90
   7   0   2  132.29    6.30
  -8   0  -2   77.69    5.50
   8   0   2   73.99    4.40
   8   0   2   76.99    4.90
  -9   0  -2    2.80    2.40
  -9   0  -2   -2.40    4.40
   9   0   2   -1.90    1.90
 -10   0  -2   30.80    4.70
 -10   0  -2   23.90    4.10
  10   0   2   27.00    3.70
  10   0   2   23.00    3.20
   9  -1  -2    8.70    3.30
   9  -1  -2    4.70    2.20
  -9   1   2    4.80    2.90
  -9   1   2    3.40    3.20
   8  -1  -2  365.76   14.80
   8  -1  -2  379.86   15.90
  -8   1   2  371.46   15.40
  -8   1   2  379.16   16.20
   7  -1  -2    3.80    2.10
   7  -1  -2   -0.70    1.20
  -7   1   2    6.50    2.30
  -7   1   2    0.60    1.70
   6  -1  -2   14.80    2.30
   6  -1  -2    9.50    1.40
  -6   1   2   10.40    2.10
  -6   1   2   12.60    1.90
   5  -1  -2  400.46   14.70
   5  -1  -2  399.56   14.20
   5  -1  -2  388.16   15.50
   5  -1  -2  359.56   14.40
  -5   1   2  397.76   14.50
  -5   1   2  401.06   15.00
   4  -1  -2    1.10    0.70
   4  -1  -2    1.80    1.10
   4  -1  -2    1.00    0.40
  -4   1   2    2.00    0.70
  -4   1   2    2.40    1.10
  -4   1   2    1.30    0.90
   3  -1  -2 1475.65   54.49
   3  -1  -2 1594.04   54.49
   3  -1  -2 1471.45   54.69
  -3   1   2 1644.14   54.69
  -3   1   2 1480.65   55.89
   2  -1  -2 1941.81   69.19
   2  -1  -2 1976.70   68.79
   2  -1  -2 1961.30   68.79
   2  -1  -2 1841.52   69.19
   2  -1  -2 1978.90   69.19
  -2   1   2 1784.72   69.59
  -2   1   2 1955.70   68.89
  -2   1   2 1941.71   69.19
  -2   1   2 2002.80   68.89
  -2   1   2 1926.31   68.89
  -2   1   2 1976.70   68.79
   0  -1  -2 1672.33   59.59
   0  -1  -2 1776.32   59.69
   0  -1  -2 1708.03   59.39
   0  -1  -2 1680.83   59.39
   0   1   2 1616.94   59.49
   0   1   2 1591.74   59.59
  -1  -1  -2  139.49    5.10
  -1  -1  -2  139.59    5.10
  -1  -1  -2  144.19    5.30
  -1  -1  -2  143.29    5.20
  -1  -1  -2  137.29    5.50
   1   1   2  144.09    5.20
   1   1   2  137.99    5.00
   1   1   2  140.69    5.10
   1   1   2  148.49    5.30
   1   1   2  134.29    5.40
   1   1   2  137.69    5.50
  -2  -1  -2   80.19    3.10
  -2  -1  -2   82.49    3.30
  -2  -1  -2   78.29    3.10
  -2  -1  -2   76.79    3.40
   2   1   2   80.39    3.10
   2   1   2   79.99    3.00
   2   1   2   78.49    3.10
   2   1   2   78.89    3.40
   2   1   2   75.69    3.30
  -3  -1  -2  655.63   24.00
  -3  -1  -2  669.73   24.00
  -3  -1  -2  669.33   23.90
  -3  -1  -2  694.03   24.00
   3   1   2  649.83   23.80
   3   1   2  655.03   23.90
   3   1   2  655.33   24.00
   3   1   2  646.64   24.00
  -4  -1  -2  619.14   22.60
  -4  -1  -2  588.94   22.60
  -4  -1  -2  636.54   22.40
   4   1   2  629.24   22.70
   4   1   2  611.04   22.50
   4   1   2  609.74   22.50
   4   1   2  603.54   22.70
   4   1   2  625.04   22.50
   4   1   2  622.34   22.60
  -5  -1  -2   92.19    4.40
  -5  -1  -2   93.99    3.90
  -5  -1  -2   91.89    4.50
   5   1   2   89.19    4.30
   5   1   2   98.19    4.20
   5   1   2   92.59    4.30
  -6  -1  -2  187.88    7.90
  -6  -1  -2  179.98    9.20
   6   1   2  183.38    7.60
   6   1   2  193.98    7.90
  -7  -1  -2  107.49    5.70
  -7  -1  -2  102.99    5.30
   7   1   2   98.89    4.90
   7   1   2  107.99    5.30
  -8  -1  -2  289.27   12.20
  -8  -1  -2  296.47   12.70
   8   1   2  283.57   11.70
  -9  -1  -2    8.30    4.40
  -9  -1  -2    7.80    2.60
   9   1   2    8.70    2.20
   9   1   2   13.80    2.80
 -10  -1  -2    3.80    3.10
 -10  -1  -2    3.70    3.50
  10   1   2    5.60    2.50
   9  -2  -2    8.90    2.50
   9  -2  -2    7.80    3.20
  -9   2   2    5.60    3.60
  -9   2   2   10.30    3.40
   8  -2  -2  134.59    6.40
   8  -2  -2  124.29    7.60
  -8   2   2  132.59    7.90
   7  -2  -2  109.19    5.40
   7  -2  -2  119.19    6.50
  -7   2   2  110.99    6.20
  -7   2   2  107.79    6.70
   6  -2  -2   33.90    3.40
   6  -2  -2   31.30    2.30
  -6   2   2   31.80    3.00
  -6   2   2   29.20    3.40
   5  -2  -2  141.99    5.90
   5  -2  -2  151.48    6.10
   5  -2  -2  146.39    5.50
   5  -2  -2  151.78    7.00
  -5   2   2  146.89    6.60
   4  -2  -2  610.04   22.20
   4  -2  -2  608.44   22.50
   4  -2  -2  642.04   23.40
   4  -2  -2  609.74   22.40
  -4   2   2  632.24   23.30
  -4   2   2  610.84   22.90
   3  -2  -2   30.80    1.90
   3  -2  -2   28.90    1.50
   3  -2  -2   30.00    1.60
   3  -2  -2   26.90    2.20
  -3   2   2   31.00    2.00
  -3   2   2   27.80    2.20
  -3   2   2   26.70    1.90
   2  -2  -2  557.84   20.20
   2  -2  -2  525.35   20.10
   2  -2  -2  561.84   20.10
   2  -2  -2  600.14   20.30
  -2   2   2  527.25   20.70
  -2   2   2  549.45   20.50
  -2   2   2  565.74   20.40
  -2   2   2  558.54   20.40
  -2   2   2  553.54   20.20
   1  -2  -2 1308.47   48.00
   1  -2  -2 1325.77   48.30
   1  -2  -2 1395.56   48.30
   1  -2  -2 1356.66   48.10
  -1   2   2 1372.76   48.40
  -1   2   2 1319.57   48.30
  -1   2   2 1353.56   48.10
  -1   2   2 1365.86   48.30
  -1   2   2 1342.07   48.40
  -1   2   2 1357.56   48.20
   0  -2  -2  630.94   22.00
   0  -2  -2  619.64   22.10
   0  -2  -2  602.24   21.90
   0  -2  -2  604.64   22.00
   0  -2  -2  578.44   22.00
   0  -2  -2  635.04   22.10
   0   2   2  632.94   22.30
   0   2   2  599.24   22.00
   0   2   2  642.54   22.40
   0   2   2  607.74   22.10
   0   2   2  584.14   21.90
   0   2   2  613.44   22.00
  -1  -2  -2  210.28    7.60
  -1  -2  -2  209.08    7.80
   1   2   2  208.28    8.20
   1   2   2  219.28    7.70
   1   2   2  205.58    8.10
   1   2   2  209.28    7.70
  -2  -2  -2  227.88    8.40
  -2  -2  -2  236.68    8.60
  -2  -2  -2  229.48    8.90
   2   2   2  228.48    8.50
   2   2   2  224.58    8.80
   2   2   2  226.58    8.90
   2   2   2  231.78    8.30
   2   2   2  227.98    8.20
  -3  -2  -2    3.90    0.70
  -3  -2  -2    4.20    0.90
  -3  -2  -2    3.10    0.80
  -3  -2  -2    3.30    0.70
   3   2   2    3.70    0.70
   3   2   2    4.10    0.70
  -4  -2  -2  533.35   20.80
  -4  -2  -2  561.84   20.20
  -4  -2  -2  550.04   20.20
  -4  -2  -2  566.94   20.20
   4   2   2  549.15   20.00
   4   2   2  549.65   20.10
   4   2   2  532.35   20.10
   4   2   2  549.25   20.30
  -5  -2  -2  193.88    7.80
  -5  -2  -2  194.48    7.80
  -5  -2  -2  191.28    7.80
  -5  -2  -2  196.98    7.70
   5   2   2  186.98    7.60
   5   2   2  177.78    7.70
   5   2   2  186.48    7.80
   5   2   2  187.48    7.50
  -6  -2  -2    9.70    1.60
  -6  -2  -2    8.60    1.80
  -6  -2  -2   10.60    1.80
   6   2   2   12.80    1.70
   6   2   2    9.80    1.40
   6   2   2   10.50    1.70
   6   2   2   10.60    1.60
  -7  -2  -2  113.09    5.70
  -7  -2  -2  105.69    5.20
   7   2   2  102.29    5.30
   7   2   2   97.69    5.00
   7   2   2   99.49    6.30
  -8  -2  -2  137.59    7.00
   8   2   2  144.69    6.80
  -9  -2  -2    6.40    3.60
  -9  -2  -2    3.60    2.40
   9   2   2    7.20    2.60
   9   2   2    5.00    2.10
 -10  -2  -2    2.40    2.90
   8  -3  -2   21.00    2.70
   8  -3  -2   23.00    3.60
   8  -3  -2   20.50    3.80
  -8   3   2   23.40    3.50
  -8   3   2   27.80    4.30
   7  -3  -2    0.80    2.20
   7  -3  -2    4.40    1.60
   7  -3  -2    0.50    2.40
  -7   3   2    0.60    2.40
  -7   3   2    1.80    2.20
   6  -3  -2   14.10    2.40
   6  -3  -2   13.50    2.40
   6  -3  -2   13.20    1.80
  -6   3   2   14.50    2.30
  -6   3   2   14.00    2.40
  -6   3   2   11.40    2.20
   5  -3  -2    3.10    1.40
   5  -3  -2    2.30    1.50
   5  -3  -2    2.70    1.00
  -5   3   2    1.70    1.40
  -5   3   2    0.80    1.30
  -5   3   2    5.00    1.60
   4  -3  -2   94.39    4.20
   4  -3  -2   92.19    4.80
   4  -3  -2   99.59    3.90
   4  -3  -2  100.09    5.00
  -4   3   2  105.19    4.90
  -4   3   2  103.89    5.00
  -4   3   2   98.49    5.00
   3  -3  -2  232.08    8.80
   3  -3  -2  239.78    9.50
   3  -3  -2  245.28    8.80
   3  -3  -2  230.08    9.40
  -3   3   2  233.08    8.80
  -3   3   2  238.98    9.40
  -3   3   2  212.08    9.40
  -3   3   2  232.88    9.30
   2  -3  -2 1067.29   38.60
   2  -3  -2 1062.59   39.00
   2  -3  -2 1004.40   39.10
  -2   3   2 1094.79   39.20
  -2   3   2 1114.99   39.10
  -2   3   2 1138.69   38.90
   1  -3  -2  481.95   18.70
   1  -3  -2  522.85   18.40
   1  -3  -2  515.25   18.70
   1  -3  -2  514.95   18.40
   1  -3  -2  489.85   18.90
   1  -3  -2  545.85   18.90
  -1   3   2  503.45   18.80
  -1   3   2  510.35   19.10
  -1   3   2  524.05   18.40
  -1   3   2  523.35   18.80
  -1   3   2  489.05   18.80
   0  -3  -2  824.52   28.30
   0  -3  -2  821.12   27.90
   0  -3  -2  764.82   28.00
   0  -3  -2  752.52   28.20
   0  -3  -2  796.22   28.30
   0  -3  -2  784.12   28.50
   0  -3  -2  792.32   28.10
   0  -3  -2  780.82   28.00
   0   3   2  726.03   28.40
   0   3   2  805.82   28.20
   0   3   2  773.02   27.90
   0   3   2  755.72   28.10
  -1  -3  -2    1.50    0.90
  -1  -3  -2    3.30    0.50
  -1  -3  -2    1.00    0.60
  -1  -3  -2    2.30    0.80
  -1  -3  -2    3.20    0.60
  -1  -3  -2    2.90    0.50
   1   3   2    2.00    0.60
   1   3   2    2.60    0.50
  -2  -3  -2  564.54   19.70
  -2  -3  -2  579.24   19.70
  -2  -3  -2  539.35   20.30
   2   3   2  549.35   19.70
   2   3   2  514.55   20.20
   2   3   2  530.85   20.10
  -3  -3  -2   19.40    1.50
  -3  -3  -2   22.40    2.00
   3   3   2   21.80    1.30
   3   3   2   22.00    1.30
   3   3   2   19.00    1.80
   3   3   2   21.80    1.20
   3   3   2   21.80    1.10
  -4  -3  -2   56.79    2.90
  -4  -3  -2   51.49    3.20
  -4  -3  -2   57.89    2.90
   4   3   2   56.89    2.50
   4   3   2   51.79    3.10
   4   3   2   56.29    2.70
  -5  -3  -2  538.05   19.70
  -5  -3  -2  535.05   19.80
   5   3   2  528.45   19.50
   5   3   2  528.65   19.90
   5   3   2  507.75   19.60
  -6  -3  -2   27.60    2.40
  -6  -3  -2   27.90    2.70
   6   3   2   28.90    2.20
   6   3   2   28.50    2.30
   6   3   2   27.50    2.80
  -7  -3  -2  206.08    9.20
  -7  -3  -2  213.88    8.50
  -7  -3  -2  220.28    9.50
   7   3   2  219.68    8.90
   7   3   2  222.78    9.70
  -8  -3  -2   31.90    3.60
   8   3   2   34.50    4.60
   8   3   2   31.50    3.70
  -9  -3  -2   -3.40    2.20
   9   3   2   -1.80    1.90
 -10  -3  -2   40.60    5.10
  10   3   2   36.20    4.20
  10   3   2   27.40    3.70
   8  -4  -2    3.50    2.80
   8  -4  -2   -1.60    2.80
  -8   4   2    7.60    3.20
  -8   4   2    6.50    3.20
   7  -4  -2    6.20    2.70
   7  -4  -2    0.80    2.30
  -7   4   2    8.40    2.80
   6  -4  -2   60.69    3.40
   6  -4  -2   64.49    5.70
   6  -4  -2   58.79    4.70
  -6   4   2   54.59    6.90
  -6   4   2   59.49    4.60
  -6   4   2   53.89    4.70
   5  -4  -2   73.29    4.40
   5  -4  -2   77.49    4.50
   5  -4  -2   68.99    3.90
  -5   4   2   70.99    4.40
  -5   4   2   69.09    4.50
  -5   4   2   68.19    4.50
   4  -4  -2   19.00    1.40
   4  -4  -2   24.30    2.50
   4  -4  -2   18.10    2.30
   4  -4  -2   22.10    1.60
   4  -4  -2   19.80    1.90
  -4   4   2   22.20    2.40
  -4   4   2   18.70    2.40
  -4   4   2   19.80    2.70
   3  -4  -2   97.99    4.80
   3  -4  -2  101.39    4.30
   3  -4  -2   92.39    4.00
   3  -4  -2   99.89    4.70
  -3   4   2   98.99    5.00
  -3   4   2  103.89    4.80
  -3   4   2  101.69    4.90
  -3   4   2   96.99    4.30
   2  -4  -2  329.17   12.60
   2  -4  -2  321.47   12.50
   2  -4  -2  334.17   12.00
   2  -4  -2  328.57   12.40
  -2   4   2  329.97   13.00
  -2   4   2  328.17   12.70
   1  -4  -2 1639.14   60.89
   1  -4  -2 1590.04   60.69
   1  -4  -2 1735.93   60.29
   1  -4  -2 1777.12   60.29
   1  -4  -2 1600.64   60.59
  -1   4   2 1753.92   60.89
  -1   4   2 1734.53   61.29
  -1   4   2 1743.73   60.89
   0  -4  -2 1928.71   65.79
   0  -4  -2 1726.63   65.69
   0  -4  -2 1844.92   65.99
   0  -4  -2 1847.42   65.89
   0  -4  -2 1835.32   65.49
   0   4   2 1802.82   66.49
   0   4   2 1893.71   66.09
   0   4   2 1893.01   65.59
  -1  -4  -2   23.70    1.30
  -1  -4  -2   23.60    1.30
  -1  -4  -2   19.70    1.00
   1   4   2   24.90    1.30
   1   4   2   21.50    1.20
   1   4   2   19.10    1.90
  -2  -4  -2  172.78    6.60
  -2  -4  -2  173.78    6.90
  -2  -4  -2  194.38    6.60
   2   4   2  168.98    7.30
   2   4   2  160.68    7.80
   2   4   2  174.08    6.60
  -3  -4  -2 1329.67   47.20
  -3  -4  -2 1360.56   47.00
  -3  -4  -2 1327.97   47.80
   3   4   2 1261.27   46.80
   3   4   2 1304.77   47.80
   3   4   2 1280.37   47.60
  -4  -4  -2   72.99    3.50
  -4  -4  -2   72.69    3.50
  -4  -4  -2   67.49    4.30
   4   4   2   71.99    2.90
   4   4   2   60.99    5.20
   4   4   2   72.29    3.90
   4   4   2   72.29    3.30
  -5  -4  -2    0.40    1.00
  -5  -4  -2   -1.20    0.80
   5   4   2   -2.00    0.80
   5   4   2    0.40    0.90
  -6  -4  -2  383.26   14.80
  -6  -4  -2  364.36   14.80
  -6  -4  -2  392.26   15.00
   6   4   2  377.46   15.10
   6   4   2  381.96   14.50
   6   4   2  380.86   14.40
  -7  -4  -2   94.19    5.10
  -7  -4  -2   91.19    4.70
  -7  -4  -2   98.69    5.50
   7   4   2   97.09    4.80
   7   4   2   93.29    5.90
   8   4   2   38.30    4.50
   8   4   2   28.20    4.10
   8   4   2   37.20    3.30
  -9  -4  -2    1.40    2.40
   9   4   2   10.90    2.30
   9   4   2    6.30    2.40
 -10  -4  -2   -3.10    2.90
  10   4   2   -2.60    2.40
   7  -5  -2    5.90    2.80
   7  -5  -2    3.80    2.70
  -7   5   2    6.70    3.00
   6  -5  -2    8.00    2.40
   6  -5  -2    6.10    2.40
  -6   5   2    8.30    2.70
  -6   5   2   12.60    2.70
  -6   5   2   10.80    2.90
   5  -5  -2    9.10    2.10
   5  -5  -2    6.10    2.30
   5  -5  -2   10.30    1.40
  -5   5   2   11.20    2.60
  -5   5   2   12.00    2.50
   4  -5  -2   20.70    2.50
   4  -5  -2   19.10    1.90
   4  -5  -2   17.90    2.40
   4  -5  -2   18.20    1.70
  -4   5   2   17.30    2.30
  -4   5   2   18.70    2.60
  -4   5   2   22.20    2.50
   3  -5  -2   84.49    4.00
   3  -5  -2   73.69    4.90
   3  -5  -2   89.59    4.50
   3  -5  -2   90.09    4.40
  -3   5   2   92.19    5.10
  -3   5   2   94.59    4.70
   2  -5  -2 1989.80   74.29
   2  -5  -2 2222.88   75.09
   2  -5  -2 2122.39   74.99
  -2   5   2 2047.30   75.69
  -2   5   2 2088.09   75.29
   1  -5  -2    1.90    0.80
  -1   5   2    0.20    0.90
  -1   5   2    3.10    1.30
   0  -5  -2   68.19    3.40
   0  -5  -2   65.79    3.20
   0  -5  -2   68.19    3.10
   0  -5  -2   65.59    3.40
   0   5   2   66.29    4.00
   0   5   2   78.49    3.90
   0   5   2   70.79    3.50
  -1  -5  -2  296.37   11.50
  -1  -5  -2  313.07   11.20
  -1  -5  -2  296.77   11.20
  -1  -5  -2  293.17   10.80
   1   5   2  293.87   11.00
   1   5   2  296.37   11.90
   1   5   2  312.97   12.80
  -2  -5  -2  176.08    6.60
  -2  -5  -2  168.58    6.50
  -2  -5  -2  166.78    6.90
   2   5   2  168.18    7.90
  -3  -5  -2  529.85   19.10
  -3  -5  -2  518.95   19.40
   3   5   2  489.05   19.80
   3   5   2  559.04   19.00
   3   5   2  501.95   20.00
  -4  -5  -2    3.70    1.20
  -4  -5  -2    1.10    1.00
  -4  -5  -2    1.70    1.30
   4   5   2   -1.80    1.30
   4   5   2    0.90    0.80
   4   5   2    1.40    1.20
  -5  -5  -2   44.50    3.00
  -5  -5  -2   49.70    3.00
  -5  -5  -2   47.70    3.50
   5   5   2   45.40    2.70
   5   5   2   46.10    3.50
   5   5   2   41.90    2.30
   5   5   2   45.00    3.90
  -6  -5  -2  335.27   13.40
  -6  -5  -2  342.67   13.60
  -6  -5  -2  343.57   13.40
   6   5   2  321.97   13.00
   6   5   2  335.77   13.90
  -7  -5  -2   83.49    5.00
  -7  -5  -2   87.79    4.90
   7   5   2   83.79    4.40
   7   5   2   83.39    4.60
   7   5   2   92.89    5.70
  -8  -5  -2    2.40    2.00
   8   5   2    7.50    2.80
   8   5   2    4.10    2.00
  -9  -5  -2   46.80    5.50
  -9  -5  -2   36.50    4.60
   9   5   2   39.70    4.20
 -10  -5  -2    3.30    3.20
  10   5   2    0.40    2.70
   7  -6  -2   45.80    5.40
   7  -6  -2   45.10    5.40
  -7   6   2   46.60    5.20
   6  -6  -2   38.80    4.30
   6  -6  -2   44.80    4.60
  -6   6   2   55.69    6.20
  -6   6   2   53.99    5.20
   5  -6  -2   19.20    2.70
   5  -6  -2   15.50    2.60
  -5   6   2   22.90    3.60
  -5   6   2   20.60    3.10
   4  -6  -2   52.49    3.80
  -4   6   2   44.70    4.20
  -4   6   2   59.89    4.90
   3  -6  -2    2.90    1.30
   3  -6  -2    4.00    1.30
  -3   6   2    2.20    1.80
  -3   6   2    3.10    2.10
  -3   6   2    2.70    1.60
   2  -6  -2  425.36   16.20
   2  -6  -2  421.26   16.40
  -2   6   2  412.76   16.60
  -2   6   2  437.56   16.50
  -2   6   2  440.86   17.30
   1  -6  -2   56.29    2.70
   1  -6  -2   49.40    2.70
   1  -6  -2   52.89    3.10
  -1   6   2   51.99    3.90
  -1   6   2   53.49    3.60
  -1   6   2   47.70    3.20
   0  -6  -2    7.40    1.10
   0  -6  -2    6.40    1.20
   0  -6  -2    9.70    1.20
   0   6   2    6.30    1.50
   0   6   2    9.50    2.00
   0   6   2    9.80    1.50
   0   6   2    9.50    1.80
  -1  -6  -2   49.60    2.90
  -1  -6  -2   47.40    2.10
  -1  -6  -2   48.30    2.50
   1   6   2   43.60    4.30
   1   6   2   48.40    3.60
  -2  -6  -2    0.60    0.90
  -2  -6  -2    0.60    0.70
   2   6   2    2.50    1.30
   2   6   2    2.20    1.50
   2   6   2    0.80    0.80
  -3  -6  -2  105.29    4.80
   3   6   2  102.19    5.40
   3   6   2   92.49    4.20
  -4  -6  -2   48.70    3.10
  -4  -6  -2   47.00    2.90
   4   6   2   44.40    3.90
   4   6   2   43.70    2.60
   4   6   2   51.39    3.70
  -5  -6  -2  381.16   15.00
  -5  -6  -2  376.36   14.90
  -5  -6  -2  387.76   15.60
   5   6   2  385.86   14.50
   5   6   2  385.06   15.60
  -6  -6  -2   69.89    4.40
  -6  -6  -2   73.89    4.90
  -6  -6  -2   69.19    4.40
   6   6   2   71.09    5.10
   6   6   2   68.39    3.80
  -7  -6  -2    9.70    2.60
  -7  -6  -2   11.90    2.50
   7   6   2   10.70    2.90
   7   6   2   15.00    2.10
  -8  -6  -2  196.18    9.80
  -8  -6  -2  190.78    9.20
   8   6   2  186.08    8.60
   8   6   2  217.18   12.80
   9   6   2   58.79    4.70
   6  -7  -2  146.19    7.70
  -6   7   2  132.99    9.40
  -6   7   2  142.99    8.40
   5  -7  -2    1.00    2.20
  -5   7   2    8.90    3.70
  -5   7   2    3.20    2.70
   4  -7  -2  174.38    8.00
   4  -7  -2  181.38    8.00
  -4   7   2  171.48    8.60
   3  -7  -2  318.27   13.10
   3  -7  -2  314.67   13.70
  -3   7   2  317.37   13.40
  -3   7   2  315.27   14.10
   2  -7  -2   99.69    4.70
   2  -7  -2   96.89    5.10
  -2   7   2   88.29    6.10
  -2   7   2   93.09    5.40
   1  -7  -2    6.20    1.60
   1  -7  -2    5.80    1.20
   1  -7  -2    6.30    1.10
  -1   7   2    8.50    1.80
  -1   7   2    5.10    1.90
  -1   7   2    7.60    2.40
   0  -7  -2  294.07   11.10
   0  -7  -2  280.77   11.50
   0   7   2  289.47   11.70
   0   7   2  291.37   12.60
   0   7   2  277.17   12.00
  -1  -7  -2  161.68    6.60
  -1  -7  -2  157.88    7.00
  -1  -7  -2  156.58    6.60
   1   7   2  159.48    8.10
   1   7   2  168.28    7.80
  -2  -7  -2   10.90    1.40
  -2  -7  -2   13.80    1.80
  -2  -7  -2    9.70    1.10
   2   7   2   12.20    2.50
   2   7   2    9.70    2.10
  -3  -7  -2   18.00    2.30
  -3  -7  -2   15.50    1.90
   3   7   2   12.50    2.30
  -4  -7  -2    2.10    1.40
  -4  -7  -2    4.90    1.40
   4   7   2    5.70    2.30
   4   7   2    3.80    2.00
   4   7   2    5.80    1.30
  -5  -7  -2  888.91   32.90
  -5  -7  -2  902.31   33.70
  -5  -7  -2  842.42   32.70
   5   7   2  927.41   33.80
   5   7   2  864.71   32.20
  -6  -7  -2   33.30    5.00
  -6  -7  -2   27.50    3.70
  -6  -7  -2   33.20    3.60
  -7  -7  -2   13.50    2.70
  -7  -7  -2   12.90    3.60
  -7  -7  -2   13.70    3.30
   7   7   2   16.30    2.30
  -8  -7  -2    6.10    3.00
   8   7   2   -1.30    3.30
  -9  -7  -2   52.49    5.70
   9   7   2   53.29    4.90
   9   7   2   60.49    7.30
   5  -8  -2   41.60    4.10
   5  -8  -2   41.20    5.30
  -5   8   2   35.20    4.50
  -5   8   2   53.69    7.00
   4  -8  -2   66.19    5.10
   4  -8  -2   65.99    4.50
   4  -8  -2   64.29    4.50
  -4   8   2   59.39    5.50
  -4   8   2   67.29    7.00
   3  -8  -2  183.58    8.10
   3  -8  -2  182.48    8.00
   3  -8  -2  187.48    8.70
  -3   8   2  176.88    9.00
  -3   8   2  193.18   10.40
   2  -8  -2    0.40    1.20
   2  -8  -2    0.30    1.30
   2  -8  -2   -0.50    1.70
  -2   8   2    2.20    2.00
  -2   8   2   -1.80    2.80
   1  -8  -2  109.89    7.90
   1  -8  -2  114.49    4.90
   1  -8  -2  118.49    5.40
  -1   8   2   99.19    8.10
   0  -8  -2   74.39    3.90
   0  -8  -2   74.09    3.40
   0  -8  -2   77.69    4.50
   0   8   2   72.49    5.80
  -1  -8  -2    1.20    1.00
  -1  -8  -2    0.40    1.40
   1   8   2    1.10    2.20
   1   8   2    0.60    2.40
  -2  -8  -2  136.09    6.00
  -2  -8  -2  140.29    6.50
   2   8   2  130.29    7.40
   2   8   2  140.39    8.00
  -3  -8  -2  109.39    5.10
  -3  -8  -2  106.89    5.60
   3   8   2   89.59    4.70
   3   8   2  111.09    6.60
   3   8   2  116.29    7.10
  -4  -8  -2    2.60    1.90
  -4  -8  -2    7.10    1.70
   4   8   2   -2.50    3.00
   4   8   2    5.60    2.90
   4   8   2   -0.10    1.30
  -5  -8  -2  312.97   15.10
  -5  -8  -2  366.46   15.50
  -5  -8  -2  377.76   14.30
   5   8   2  350.46   13.80
   5   8   2  359.46   15.50
  -6  -8  -2    2.30    3.10
  -6  -8  -2    0.40    2.20
  -6  -8  -2    3.10    2.50
  -7  -8  -2   16.80    3.80
   7   8   2   18.40    2.60
   7   8   2   10.80    3.90
  -8  -8  -2   -1.70    2.90
   8   8   2    2.40    3.90
   4  -9  -2  104.19    5.80
   4  -9  -2   98.39    6.70
  -4   9   2   82.29    7.00
  -4   9   2   96.79    8.90
   3  -9  -2   -1.60    2.40
   3  -9  -2   -1.50    1.80
   3  -9  -2    4.10    3.40
  -3   9   2    0.70    2.70
  -3   9   2   -6.10    3.90
   2  -9  -2   36.90    4.30
   2  -9  -2   42.60    3.30
  -2   9   2   39.40    4.60
  -2   9   2   43.20    6.40
   1  -9  -2   16.60    2.70
   1  -9  -2   15.30    2.10
  -1   9   2   14.90    3.80
  -1   9   2   14.40    2.90
   0  -9  -2   16.50    2.10
   0  -9  -2   16.70    2.70
   0   9   2   20.90    3.60
   0   9   2   19.40    3.70
  -1  -9  -2   81.79    4.40
  -1  -9  -2   80.89    5.10
   1   9   2   87.79    6.80
   1   9   2   78.99    6.30
  -2  -9  -2   47.10    4.00
  -2  -9  -2   48.50    3.40
   2   9   2   44.00    5.70
   2   9   2   43.50    5.20
  -3  -9  -2   20.80    2.50
  -3  -9  -2   20.40    2.80
   3   9   2   16.30    3.90
  -4  -9  -2   41.60    4.30
  -4  -9  -2   49.40    3.90
   4   9   2   61.29    6.70
   4   9   2   43.40    7.30
  -5  -9  -2   -0.50    3.40
  -5  -9  -2    1.90    2.20
  -5  -9  -2    3.90    2.30
   5   9   2   -0.70    2.90
   5   9   2    4.00    3.70
  -6  -9  -2   42.10    4.70
  -6  -9  -2   37.80    5.20
   6   9   2   55.59    6.10
   6   9   2   42.20    5.50
  -7  -9  -2   14.80    3.50
  -7  -9  -2   13.70    3.50
   7   9   2    9.00    4.20
   2 -10  -2    1.20    2.00
   2 -10  -2   -0.30    2.50
  -2  10   2    1.80    3.00
  -2  10   2   -5.90    4.40
   1 -10  -2    0.70    2.40
  -1  10   2    7.80    4.20
   0 -10  -2   44.30    4.50
   0 -10  -2   41.80    3.50
   0  10   2   42.40    5.60
   0  10   2   40.70    5.10
  -1 -10  -2   26.20    3.30
  -1 -10  -2   37.50    4.10
   1  10   2   38.60    5.40
   1  10   2   23.10    4.30
  -2 -10  -2  160.58    7.30
  -2 -10  -2  151.48    8.00
   2  10   2  147.29    9.40
   2  10   2  170.98   11.00
  -3 -10  -2   12.10    2.50
  -3 -10  -2   10.70    2.70
   3  10   2   17.40    4.60
   3  10   2   13.40    4.00
  -4 -10  -2  179.78    9.10
   4  10   2  192.38   10.80
  -5 -10  -2    5.70    4.10
   5  10   2   12.70    4.20
   5  10   2    5.00    6.10
  -6 -10  -2   34.20    4.10
  -6 -10  -2   36.80    7.30
  -6 -10  -2   36.00    4.70
   6  10   2   24.10    5.20
  -2 -11  -2   56.89    5.60
   2  11   2   55.19    9.50
   2  11   2   56.49    8.60
  -3 -11  -2   15.30    3.40
   3  11   2   13.70    4.70
   3  11   2   13.60    6.70
   4  10  -3    4.40    3.70
  -4 -10   3    2.60    2.90
  -4 -10   3   -1.30    2.80
   3  10  -3  113.49    8.00
   3  10  -3  122.09   10.10
  -3 -10   3  116.79    7.00
   1  10  -3   20.50    4.00
  -1 -10   3   19.70    2.80
   0  10  -3   87.69    8.00
   0 -10   3   98.39    5.60
   0 -10   3  100.89    6.20
  -1  10  -3   53.89    6.80
   1 -10   3   38.20    5.00
   1 -10   3   35.80    3.90
  -2  10  -3   17.80    4.70
   2 -10   3   13.10    3.40
   2 -10   3   14.80    2.70
   6   9  -3   55.09    6.40
  -6  -9   3   46.20    5.40
  -6  -9   3   52.89    6.20
   5   9  -3   15.60    3.40
  -5  -9   3    9.90    3.10
  -5  -9   3    9.80    3.20
   4   9  -3   34.80    6.80
   4   9  -3   36.20    5.10
  -4  -9   3   34.20    4.30
  -4  -9   3   38.50    4.50
   3   9  -3   23.80    4.20
   3   9  -3   11.40    3.10
  -3  -9   3   21.90    3.00
  -3  -9   3   17.40    2.90
   2   9  -3   12.30    3.50
   2   9  -3    9.60    2.90
  -2  -9   3   15.90    2.50
  -2  -9   3   13.70    2.50
   1   9  -3    5.40    2.80
   1   9  -3    6.30    3.30
  -1  -9   3    7.00    2.00
  -1  -9   3   10.50    2.30
  -1  -9   3    6.80    2.40
   0   9  -3   54.49    5.50
   0   9  -3   58.59    5.80
   0  -9   3   49.00    4.10
   0  -9   3   59.49    4.70
   0  -9   3   69.79    4.10
  -1   9  -3    1.30    2.80
  -1   9  -3    2.10    3.10
   1  -9   3    2.90    1.70
   1  -9   3   -1.40    2.10
  -2   9  -3    2.40    3.20
  -2   9  -3    4.10    3.50
   2  -9   3   -1.20    1.80
   2  -9   3    1.20    2.30
   2  -9   3    0.90    1.90
  -3   9  -3    7.00    3.80
  -3   9  -3   14.90    3.30
   3  -9   3    6.00    3.60
   3  -9   3   10.80    2.90
  -4   9  -3  189.88   11.40
   4  -9   3  213.48    9.20
   4  -9   3  189.68    9.90
   4  -9   3  208.48    9.20
   7   8  -3   -0.10    2.40
  -7  -8   3   -4.90    3.40
   6   8  -3  140.79    7.00
   6   8  -3  152.88   10.20
  -6  -8   3  149.79    8.40
  -6  -8   3  149.99    7.70
   5   8  -3    5.20    1.80
   5   8  -3    0.20    2.50
  -5  -8   3    8.90    2.60
   4   8  -3   44.90    4.60
  -4  -8   3   43.60    4.50
  -4  -8   3   40.80    4.00
   3   8  -3  229.98   10.60
  -3  -8   3  240.58   10.20
   2   8  -3   15.00    3.00
   2   8  -3   14.60    2.70
  -2  -8   3   14.20    2.50
  -2  -8   3   24.80    3.10
   1   8  -3   62.89    4.70
   1   8  -3   74.39    5.60
  -1  -8   3   71.99    4.20
   0   8  -3    0.90    2.70
   0  -8   3   -2.80    2.00
   0  -8   3   -1.50    1.50
   0  -8   3    2.50    2.20
  -1   8  -3   11.50    3.00
  -1   8  -3    7.30    2.20
   1  -8   3   10.10    1.70
   1  -8   3    7.50    2.00
  -2   8  -3   16.60    3.30
   2  -8   3    7.00    1.70
  -3   8  -3   14.90    3.00
  -3   8  -3   10.40    3.30
   3  -8   3   13.30    2.10
   3  -8   3   11.00    2.70
   3  -8   3   11.20    2.10
  -4   8  -3   -3.50    2.60
  -4   8  -3    5.30    3.40
   4  -8   3    2.90    2.30
   5  -8   3    1.40    2.20
   5  -8   3    0.80    2.40
   8   7  -3    8.00    3.60
  -8  -7   3   -3.20    3.70
   7   7  -3  176.68    9.00
  -7  -7   3  178.38    8.60
  -7  -7   3  170.28    9.50
   6   7  -3    6.50    2.00
   6   7  -3    1.60    2.50
  -6  -7   3    4.50    2.70
   5   7  -3   93.09    5.60
  -5  -7   3   85.59    5.50
  -5  -7   3   79.99    5.40
   4   7  -3    0.80    1.30
   4   7  -3   -2.50    1.70
   4   7  -3   -1.40    2.10
  -4  -7   3    1.30    1.70
   3   7  -3  685.33   25.40
   3   7  -3  638.54   24.30
  -3  -7   3  680.73   25.10
  -3  -7   3  657.53   25.60
  -3  -7   3  679.63   25.30
   2   7  -3  329.77   14.00
   2   7  -3  330.87   13.70
  -2  -7   3  344.37   13.20
  -2  -7   3  357.56   13.70
  -2  -7   3  337.87   13.30
   1   7  -3   27.60    2.90
   1   7  -3   26.90    3.30
  -1  -7   3   26.00    2.40
  -1  -7   3   29.40    2.50
   0   7  -3    4.50    2.00
   0   7  -3    5.30    1.50
   0   7  -3    6.50    1.70
   0  -7   3    3.70    1.20
   0  -7   3    5.30    1.40
  -1   7  -3   15.40    2.60
  -1   7  -3   15.00    2.10
   1  -7   3   11.30    1.60
   1  -7   3   16.90    2.50
  -2   7  -3  102.79    6.20
  -2   7  -3  114.59    5.80
   2  -7   3  103.29    4.90
   2  -7   3  105.09    5.00
   2  -7   3  104.99    5.40
  -3   7  -3    0.20    2.00
   3  -7   3   -1.40    1.50
  -4   7  -3    3.80    2.90
  -4   7  -3    5.80    2.50
   4  -7   3    4.10    1.70
   4  -7   3    5.40    1.80
  -5   7  -3   38.00    4.70
   5  -7   3   37.90    3.50
   5  -7   3   37.20    3.40
  -6   7  -3   15.20    3.60
   6  -7   3   17.40    2.70
   6  -7   3   14.30    2.80
   8   6  -3   51.29    6.40
   8   6  -3   54.49    4.40
  -8  -6   3   54.49    6.20
  -8  -6   3   52.29    7.20
  -8  -6   3   53.09    5.20
   7   6  -3    1.00    1.90
   7   6  -3    3.90    2.80
   7   6  -3    4.60    2.50
  -7  -6   3    5.00    2.80
  -7  -6   3    0.20    2.70
   6   6  -3   13.60    2.00
  -6  -6   3   13.90    2.80
   5   6  -3    2.70    2.00
   5   6  -3    0.80    1.20
   5   6  -3   -0.60    1.50
  -5  -6   3    1.80    1.90
  -5  -6   3    0.30    1.80
  -5  -6   3    1.40    1.50
   4   6  -3  230.78    9.70
   4   6  -3  228.98    9.00
   4   6  -3  228.28    9.80
  -4  -6   3  228.28    9.70
  -4  -6   3  225.58    9.20
   3   6  -3  449.46   16.30
   3   6  -3  448.46   17.10
  -3  -6   3  430.56   16.90
  -3  -6   3  437.06   16.60
   2   6  -3    0.80    1.40
   2   6  -3    2.40    1.10
  -2  -6   3    1.60    1.10
  -2  -6   3    1.40    1.00
  -2  -6   3    3.70    1.30
   1   6  -3  710.43   26.10
   1   6  -3  678.93   25.70
  -1  -6   3  689.83   25.50
  -1  -6   3  670.13   25.40
  -1  -6   3  713.83   25.40
   0   6  -3  953.10   37.30
   0   6  -3 1026.00   37.40
   0  -6   3 1074.59   37.20
   0  -6   3 1052.59   37.30
  -1   6  -3  825.92   30.70
  -1   6  -3  812.52   31.20
  -1   6  -3  844.62   30.60
   1  -6   3  858.81   30.40
   1  -6   3  818.42   30.60
   1  -6   3  850.51   30.40
  -2   6  -3   40.40    2.70
  -2   6  -3   31.40    2.90
  -2   6  -3   33.50    3.30
   2  -6   3   39.60    2.40
   2  -6   3   37.10    2.40
  -3   6  -3    9.50    2.20
  -3   6  -3   11.50    2.00
   3  -6   3   13.20    1.80
   3  -6   3   14.60    1.80
  -4   6  -3    4.50    2.20
  -4   6  -3    2.50    2.00
   4  -6   3    2.20    1.30
   4  -6   3    5.00    1.50
  -5   6  -3   50.89    4.60
   5  -6   3   51.39    3.60
   5  -6   3   49.40    3.60
  -6   6  -3   11.70    3.10
  -6   6  -3   15.20    3.60
   6  -6   3   14.00    2.50
   6  -6   3   16.40    2.50
  -7   6  -3  126.49    7.90
  -7   6  -3  130.49    8.30
   7  -6   3  128.19    8.60
   9   5  -3    1.70    3.60
  -9  -5   3   -1.00    3.90
  -9  -5   3   -0.50    3.00
   8   5  -3   25.60    3.50
   8   5  -3   24.40    4.10
  -8  -5   3   32.10    4.30
  -8  -5   3   27.10    3.20
  -8  -5   3   29.70    4.10
   7   5  -3   99.39    6.00
   7   5  -3  108.99    5.40
  -7  -5   3   93.79    6.50
   6   5  -3   30.00    3.20
   6   5  -3   32.00    2.80
  -6  -5   3   34.10    3.00
  -6  -5   3   35.00    3.90
  -6  -5   3   25.50    3.60
   5   5  -3   77.39    4.40
   5   5  -3   81.09    4.10
   5   5  -3   82.59    4.60
  -5  -5   3   92.09    4.30
  -5  -5   3   81.79    4.90
   4   5  -3  275.17   10.60
   4   5  -3  275.57   10.10
   4   5  -3  227.28   10.90
  -4  -5   3  253.17   10.20
  -4  -5   3  274.27   10.80
   3   5  -3   86.39    3.80
   3   5  -3   82.89    4.30
   3   5  -3   84.19    4.10
  -3  -5   3   90.89    4.50
  -3  -5   3   82.89    4.00
  -3  -5   3   86.09    4.30
   2   5  -3  739.63   26.90
   2   5  -3  734.73   26.70
  -2  -5   3  695.03   26.20
  -2  -5   3  743.33   26.70
  -2  -5   3  719.23   26.60
   1   5  -3    4.40    1.40
   1   5  -3    5.80    0.70
  -1  -5   3    3.60    1.10
  -1  -5   3    4.70    1.10
  -1  -5   3    4.40    0.90
   0   5  -3  196.08    8.00
   0   5  -3  197.88    8.10
   0  -5   3  210.68    8.00
   0  -5   3  209.98    8.00
   0  -5   3  202.58    7.90
  -1   5  -3   13.00    1.80
  -1   5  -3   17.70    2.30
  -1   5  -3   11.70    1.40
   1  -5   3   12.30    1.40
   1  -5   3   14.20    1.30
  -2   5  -3  221.98    9.30
  -2   5  -3  207.78    8.60
  -2   5  -3  224.48    9.00
   2  -5   3  221.28    8.60
   2  -5   3  233.28    8.70
  -3   5  -3  379.56   15.60
  -3   5  -3  405.36   15.50
   3  -5   3  432.86   15.10
   3  -5   3  379.36   14.70
   3  -5   3  399.96   15.00
  -4   5  -3    4.20    1.60
  -4   5  -3    7.50    2.10
   4  -5   3    4.90    1.30
   4  -5   3    5.10    1.20
  -5   5  -3  243.28   10.50
  -5   5  -3  229.98   12.40
   5  -5   3  251.27    9.90
   5  -5   3  232.68    9.40
   5  -5   3  243.18    9.90
  -6   5  -3   21.00    3.20
  -6   5  -3   22.70    3.20
   6  -5   3   19.90    2.60
   6  -5   3   16.60    2.30
  -7   5  -3  131.69    7.70
  -7   5  -3  121.19    7.40
   7  -5   3  134.69    6.70
  -8   5  -3    5.30    3.40
  -8   5  -3    5.30    3.70
   8  -5   3    3.20    2.60
   8  -5   3    4.30    3.10
   9   4  -3   42.40    4.30
  -9  -4   3   45.40    5.10
  -9  -4   3   48.10    5.70
   8   4  -3    8.20    2.40
   8   4  -3   10.10    2.20
   8   4  -3    8.90    5.00
  -8  -4   3   10.40    3.20
  -8  -4   3   12.60    3.80
  -8  -4   3   14.20    2.60
   7   4  -3    7.50    1.90
  -7  -4   3   10.50    2.80
   6   4  -3   20.00    2.80
   6   4  -3   16.60    2.00
   6   4  -3   17.50    2.50
  -6  -4   3   20.30    2.40
  -6  -4   3   19.70    2.80
   5   4  -3  105.29    4.90
   5   4  -3  104.29    4.70
   5   4  -3  109.49    5.10
  -5  -4   3  114.19    5.00
  -5  -4   3  112.59    5.60
  -5  -4   3  105.99    4.60
   4   4  -3  359.56   13.70
   4   4  -3  351.36   13.90
  -4  -4   3  379.76   14.30
  -4  -4   3  369.06   13.70
  -4  -4   3  365.96   14.40
   3   4  -3    0.70    0.70
   3   4  -3    1.50    0.70
  -3  -4   3    2.90    1.20
  -3  -4   3    0.40    0.90
  -3  -4   3    0.40    0.70
   2   4  -3  395.86   15.00
   2   4  -3  382.36   14.90
   2   4  -3  391.96   14.60
  -2  -4   3  401.36   15.00
  -2  -4   3  403.86   15.10
  -2  -4   3  394.36   14.70
  -2  -4   3  422.86   15.10
   1   4  -3  522.05   19.00
   1   4  -3  538.05   19.40
  -1  -4   3  525.85   19.40
  -1  -4   3  527.05   19.40
   0   4  -3  423.76   16.10
   0   4  -3  436.06   16.40
   0  -4   3  443.76   16.20
   0  -4   3  448.26   16.10
  -1   4  -3  169.78    7.10
  -1   4  -3  172.68    6.90
   1  -4   3  164.38    6.60
   1  -4   3  176.28    6.70
  -2   4  -3  698.93   25.20
  -2   4  -3  712.43   25.30
   2  -4   3  689.13   25.00
   2  -4   3  641.14   24.60
   2  -4   3  680.43   24.90
  -3   4  -3  175.08    7.40
  -3   4  -3  179.58    6.70
  -3   4  -3  175.28    7.30
   3  -4   3  166.48    7.70
   3  -4   3  165.78    6.60
   3  -4   3  184.18    7.00
  -4   4  -3   19.40    2.20
  -4   4  -3   18.10    2.20
   4  -4   3   22.30    1.90
   4  -4   3   23.10    2.10
   4  -4   3   21.50    1.90
  -5   4  -3  170.68    7.70
   5  -4   3  168.08    7.30
   5  -4   3  167.98    6.80
   5  -4   3  172.08    7.30
  -6   4  -3  296.57   12.30
  -6   4  -3  312.37   13.00
   6  -4   3  274.17   11.10
   6  -4   3  285.57   11.70
   6  -4   3  277.87   11.70
  -7   4  -3    7.20    2.50
  -7   4  -3    6.10    2.60
   7  -4   3   12.20    2.40
   7  -4   3   12.10    2.70
  -8   4  -3    6.20    3.00
  -8   4  -3   14.40    3.70
   8  -4   3    6.10    3.20
   9   3  -3  163.58   10.20
  -9  -3   3  170.48    9.90
  -9  -3   3  173.78    8.80
   8   3  -3    3.40    1.80
   8   3  -3   -0.60    3.00
  -8  -3   3   -0.30    2.20
  -8  -3   3    2.80    2.70
   7   3  -3    8.30    1.70
   7   3  -3    2.90    1.50
  -7  -3   3    4.60    2.40
  -7  -3   3    7.50    2.50
   6   3  -3   98.39    4.70
   6   3  -3   96.89    4.70
  -6  -3   3   96.89    4.80
  -6  -3   3  109.09    5.80
   5   3  -3  397.56   15.40
   5   3  -3  417.46   15.50
  -5  -3   3  417.26   15.40
  -5  -3   3  407.76   17.00
   4   3  -3   14.60    1.40
   4   3  -3   11.20    1.30
  -4  -3   3   16.90    2.10
  -4  -3   3   12.60    1.80
   3   3  -3   23.70    1.60
   3   3  -3   26.30    1.70
   3   3  -3   26.40    1.70
   3   3  -3   31.50    1.80
  -3  -3   3   30.70    2.10
  -3  -3   3   27.10    1.70
   2   3  -3  147.79    5.90
   2   3  -3  140.79    6.10
   2   3  -3  149.69    5.70
   2   3  -3  144.29    5.90
  -2  -3   3  144.29    6.00
  -2  -3   3  145.99    6.20
  -2  -3   3  143.59    5.80
  -2  -3   3  167.48    5.70
   1   3  -3  205.38    7.90
   1   3  -3  202.18    7.90
   1   3  -3  205.58    7.70
  -1  -3   3  205.78    8.00
  -1  -3   3  207.48    7.70
  -1  -3   3  215.48    8.10
  -1  -3   3  210.68    7.90
   0   3  -3   63.39    3.10
   0   3  -3   84.19    3.00
   0   3  -3   82.59    3.20
   0  -3   3   82.89    3.10
   0  -3   3   67.59    3.10
   0  -3   3   63.19    3.10
   0  -3   3   84.69    3.10
  -1   3  -3 1531.45   54.49
  -1   3  -3 1423.46   54.19
   1  -3   3 1595.04   54.19
   1  -3   3 1571.14   54.29
   1  -3   3 1476.85   54.29
   1  -3   3 1535.45   54.09
  -2   3  -3  763.52   28.00
  -2   3  -3  777.62   28.50
  -2   3  -3  852.41   28.60
   2  -3   3  734.53   28.20
   2  -3   3  799.42   28.30
   2  -3   3  772.12   28.00
  -3   3  -3   17.50    1.00
  -3   3  -3   18.00    1.60
  -3   3  -3   22.60    1.80
   3  -3   3   20.00    1.50
   3  -3   3   20.30    1.50
   3  -3   3   18.00    1.20
  -4   3  -3   34.50    2.60
   4  -3   3   38.60    2.10
   4  -3   3   43.90    2.40
  -5   3  -3  276.47   11.40
  -5   3  -3  293.17   11.40
  -5   3  -3  284.37   11.20
   5  -3   3  284.77   11.20
   5  -3   3  284.37   10.70
   5  -3   3  271.67   11.10
  -6   3  -3   34.50    3.00
  -6   3  -3   40.50    3.40
  -6   3  -3   46.00    3.60
   6  -3   3   43.20    3.10
   6  -3   3   50.59    3.50
   6  -3   3   42.60    2.70
  -7   3  -3    3.30    2.20
  -7   3  -3    3.00    2.10
   7  -3   3    4.30    2.20
   7  -3   3    4.60    1.50
   7  -3   3    4.80    1.90
  -8   3  -3  222.58   10.80
  -8   3  -3  242.88   10.80
   8  -3   3  237.68   10.20
   8  -3   3  231.78    9.80
   8  -3   3  221.48   10.50
  -9   3  -3   25.40    4.10
   9  -3   3   36.70    4.40
   9   2  -3   44.40    4.20
   9   2  -3   48.40    5.80
  -9  -2   3   41.90    5.00
  -9  -2   3   49.10    6.10
   8   2  -3   26.70    3.20
  -8  -2   3   27.00    3.10
  -8  -2   3   25.30    3.90
   7   2  -3   13.50    1.90
   7   2  -3   12.10    2.60
   7   2  -3   12.70    1.80
  -7  -2   3   12.10    2.10
  -7  -2   3   11.20    2.70
  -7  -2   3   12.30    2.80
   6   2  -3  232.18    9.20
   6   2  -3  225.38   10.00
  -6  -2   3  224.18   10.10
  -6  -2   3  226.18   10.20
  -6  -2   3  229.78    9.30
   5   2  -3    0.20    1.30
   5   2  -3   -0.50    0.80
  -5  -2   3    1.50    1.40
  -5  -2   3    0.40    0.90
  -5  -2   3    0.10    1.40
   4   2  -3   79.59    3.50
   4   2  -3   77.19    3.60
  -4  -2   3   79.89    4.30
  -4  -2   3   75.09    4.10
   3   2  -3  179.58    6.90
   3   2  -3  183.08    6.50
  -3  -2   3  174.88    7.70
  -3  -2   3  159.78    6.70
  -3  -2   3  189.48    7.30
  -3  -2   3  171.68    6.50
   2   2  -3  804.52   29.70
   2   2  -3  812.52   29.40
   2   2  -3  807.22   29.40
   2   2  -3  799.82   29.50
   2   2  -3  882.11   29.40
   2   2  -3  806.72   29.20
  -2  -2   3  759.72   29.60
  -2  -2   3  797.62   29.40
  -2  -2   3  882.41   29.20
   1   2  -3  356.46   13.80
   1   2  -3  373.66   13.70
   1   2  -3  376.76   13.50
   1   2  -3  368.26   13.90
   1   2  -3  366.56   13.70
   1   2  -3  367.66   13.70
  -1  -2   3  390.36   13.50
  -1  -2   3  397.16   13.80
  -1  -2   3  391.56   13.70
  -1  -2   3  372.86   13.80
  -1  -2   3  378.26   14.00
   0   2  -3  698.53   25.40
   0   2  -3  736.03   25.60
   0   2  -3  664.13   25.50
   0   2  -3  746.43   25.60
   0   2  -3  730.23   25.60
   0  -2   3  701.53   25.60
   0  -2   3  721.73   25.50
   0  -2   3  721.73   25.50
   0  -2   3  680.93   25.60
  -1   2  -3  155.98    5.70
  -1   2  -3  148.79    5.80
  -1   2  -3  139.29    5.80
   1  -2   3  153.88    5.70
   1  -2   3  165.08    6.20
   1  -2   3  147.39    5.70
   1  -2   3  154.08    5.80
  -2   2  -3    1.10    0.30
   2  -2   3    1.10    0.40
   2  -2   3    1.70    0.70
   2  -2   3    1.80    0.50
   2  -2   3    1.90    0.50
   2  -2   3    1.10    0.60
   3  -2   3    5.90    0.90
   3  -2   3    5.30    0.70
   3  -2   3    5.80    0.80
  -4   2  -3 1072.29   36.80
  -4   2  -3 1015.30   36.90
   4  -2   3 1001.10   36.70
   4  -2   3 1002.30   36.50
   4  -2   3  986.90   36.70
  -5   2  -3   22.10    2.10
   5  -2   3   19.70    1.60
   5  -2   3   21.10    2.20
   5  -2   3   19.80    1.90
  -6   2  -3   21.20    2.50
  -6   2  -3   19.80    2.60
  -6   2  -3   22.00    2.10
   6  -2   3   16.20    1.90
   6  -2   3   19.10    2.40
   6  -2   3   18.60    2.10
  -7   2  -3    4.70    1.90
  -7   2  -3    1.50    1.40
  -7   2  -3    1.30    1.90
   7  -2   3   -2.00    1.20
   7  -2   3    2.00    1.60
  -8   2  -3   16.40    3.00
  -8   2  -3   20.60    5.20
  -8   2  -3   19.10    2.60
   8  -2   3   21.50    2.90
   8  -2   3   18.10    2.60
  -9   2  -3   10.10    3.20
   9  -2   3   10.30    2.70
   9  -2   3   10.30    3.50
   9  -2   3   11.60    2.50
  -9  -1   3    6.40    3.70
   8   1  -3   50.49    3.70
   8   1  -3   52.69    5.30
  -8  -1   3   51.39    4.60
  -8  -1   3   51.29    5.30
   7   1  -3   41.40    3.10
  -7  -1   3   40.60    3.80
  -7  -1   3   40.00    4.40
   6   1  -3  138.19    6.90
   6   1  -3  128.09    5.90
   6   1  -3  133.49    5.60
  -6  -1   3  132.69    6.10
  -6  -1   3  137.69    6.90
  -6  -1   3  140.49    7.00
   5   1  -3  619.24   23.00
   5   1  -3  633.34   23.80
   5   1  -3  631.64   22.80
  -5  -1   3  635.64   23.10
  -5  -1   3  603.84   23.70
  -5  -1   3  630.74   23.90
   4   1  -3  568.94   21.20
   4   1  -3  570.84   21.50
  -4  -1   3  617.64   22.10
  -4  -1   3  586.94   22.20
   3   1  -3 1689.63   56.69
   3   1  -3 1624.14   56.59
  -3  -1   3 1537.15   57.99
  -3  -1   3 1440.66   57.29
  -3  -1   3 1624.64   56.49
   2   1  -3  425.56   15.80
   2   1  -3  437.56   15.30
   2   1  -3  433.36   15.40
   2   1  -3  417.36   15.90
   2   1  -3  452.65   15.80
  -2  -1   3  430.56   15.90
  -2  -1   3  392.06   15.90
  -2  -1   3  459.85   15.50
  -2  -1   3  410.06   15.40
  -2  -1   3  422.06   15.70
   1   1  -3  116.49    4.60
   1   1  -3  112.79    4.60
   1   1  -3  126.39    4.50
  -1  -1   3  130.39    4.80
  -1  -1   3  115.79    4.90
  -1  -1   3  116.39    4.70
   0   1  -3  185.48    7.10
   0   1  -3  187.48    7.00
   0   1  -3  189.58    7.10
   0   1  -3  193.78    7.10
   0  -1   3  190.68    7.10
   0  -1   3  199.48    7.00
   0  -1   3  189.58    7.20
  -1   1  -3   34.60    1.50
  -1   1  -3   32.10    1.50
  -1   1  -3   32.30    1.50
  -1   1  -3   33.60    1.40
  -1   1  -3   29.50    1.60
   1  -1   3   31.00    1.40
   1  -1   3   30.90    1.50
   1  -1   3   32.90    1.50
   1  -1   3   34.20    1.60
  -2   1  -3  476.85   16.80
  -2   1  -3  456.75   16.80
  -2   1  -3  460.15   16.70
  -2   1  -3  435.46   17.10
  -2   1  -3  489.25   16.90
  -2   1  -3  453.65   16.80
  -2   1  -3  475.25   16.70
   2  -1   3  469.05   16.80
   2  -1   3  473.55   16.90
   2  -1   3  455.65   16.70
   2  -1   3  450.15   16.90
   2  -1   3  449.36   16.70
  -3   1  -3   44.80    2.30
  -3   1  -3   42.70    2.20
  -3   1  -3   41.40    1.90
  -3   1  -3   45.80    2.10
   3  -1   3   43.50    2.00
   3  -1   3   42.90    2.30
   3  -1   3   42.50    2.20
   3  -1   3   41.60    2.30
   3  -1   3   46.80    2.10
  -4   1  -3  410.66   14.70
  -4   1  -3  407.66   14.70
  -4   1  -3  411.46   15.10
  -4   1  -3  394.66   15.30
  -4   1  -3  429.66   15.40
   4  -1   3  405.96   15.20
   4  -1   3  394.16   15.20
  -5   1  -3   71.89    3.70
  -5   1  -3   74.59    3.40
  -5   1  -3   65.89    3.70
   5  -1   3   73.29    3.50
   5  -1   3   72.59    3.40
  -6   1  -3    4.70    1.10
  -6   1  -3    3.80    1.30
  -6   1  -3    4.90    1.50
   6  -1   3    1.00    1.10
   6  -1   3    1.70    1.00
  -7   1  -3   36.70    3.50
  -7   1  -3   30.90    3.20
  -7   1  -3   34.70    2.60
   7  -1   3   36.00    2.70
   7  -1   3   35.40    3.00
  -8   1  -3   92.49    5.80
  -8   1  -3  104.39    8.00
  -8   1  -3  106.29    5.00
   8  -1   3   89.59    5.10
   8  -1   3   93.59    5.80
  -9   1  -3   16.50    3.20
   9  -1   3   15.50    2.60
   9  -1   3   16.60    3.60
   9  -1   3   17.70    2.90
 -10   1  -3  156.38    9.50
  10  -1   3  164.98    9.80
  10  -1   3  180.98    9.70
   9   0  -3    3.70    3.20
   9   0  -3   -1.90    2.10
  -9   0   3    2.10    2.70
   8   0  -3   27.30    3.10
   8   0  -3   25.40    3.80
  -8   0   3   26.40    4.00
   7   0  -3   62.99    3.80
   7   0  -3   68.79    5.00
   7   0  -3   59.59    3.20
  -7   0   3   65.49    5.10
  -7   0   3   62.59    4.20
   6   0  -3  648.54   24.10
   6   0  -3  695.13   25.60
   6   0  -3  645.14   24.50
  -6   0   3  674.03   24.80
  -6   0   3  652.23   25.50
   5   0  -3   97.39    4.10
   5   0  -3   96.39    5.20
   5   0  -3   93.49    4.40
  -5   0   3  100.59    5.30
  -5   0   3   99.89    5.20
  -5   0   3   99.89    4.60
   4   0  -3 4299.37  148.19
   4   0  -3 4101.09  147.49
  -4   0   3 4285.77  148.29
  -4   0   3 4131.09  148.09
  -4   0   3 4077.79  147.89
  -4   0   3 4020.20  147.39
   3   0  -3   10.30    1.20
  -3   0   3    6.60    1.00
  -3   0   3    8.50    1.50
   2   0  -3  336.27   13.50
   2   0  -3  355.56   12.70
   2   0  -3  336.37   12.80
   2   0  -3  338.77   13.00
   2   0  -3  347.97   13.10
   2   0  -3  370.46   12.70
   2   0  -3  345.67   12.80
  -2   0   3  333.77   12.90
  -2   0   3  366.36   13.20
  -2   0   3  362.66   12.70
   1   0  -3  645.24   23.80
   1   0  -3  710.53   24.10
   1   0  -3  636.44   23.80
   1   0  -3  644.04   23.50
   1   0  -3  645.74   23.70
  -1   0   3  704.93   23.80
  -1   0   3  651.83   23.60
  -1   0   3  613.24   23.80
  -1   0   3  704.43   24.10
  -1   0   3  656.43   23.80
   0   0  -3  267.67    9.20
   0   0  -3  275.77    9.30
   0   0  -3  246.28    9.50
   0   0  -3  247.08    9.50
   0   0  -3  246.48    9.40
   0   0   3  247.28    9.50
   0   0   3  247.98    9.40
   0   0   3  254.67    9.10
   0   0   3  267.97    9.30
   0   0   3  249.08    9.50
  -1   0  -3 1131.39   41.70
  -1   0  -3 1140.59   41.50
  -1   0  -3 1161.28   41.70
   1   0   3 1183.78   41.50
   1   0   3 1170.68   41.60
   1   0   3 1180.68   41.70
   1   0   3 1185.38   41.50
  -2   0  -3  445.96   15.90
  -2   0  -3  415.76   16.00
  -2   0  -3  426.46   15.70
   2   0   3  435.96   15.70
   2   0   3  442.56   15.90
   2   0   3  446.86   15.80
   2   0   3  452.45   15.80
   2   0   3  435.36   16.00
  -3   0  -3  460.45   18.10
  -3   0  -3  510.85   18.00
  -3   0  -3  470.75   17.90
  -3   0  -3  500.45   18.20
   3   0   3  494.65   18.10
   3   0   3  512.95   18.10
   3   0   3  517.55   18.60
   3   0   3  484.35   17.90
   3   0   3  499.45   18.00
  -4   0  -3  507.25   18.30
  -4   0  -3  493.55   18.30
   4   0   3  491.05   18.20
   4   0   3  485.55   18.20
   4   0   3  481.75   18.10
   4   0   3  499.25   18.10
  -5   0  -3  638.44   23.70
  -5   0  -3  653.73   23.40
  -5   0  -3  638.74   23.80
   5   0   3  630.84   23.40
   5   0   3  646.34   23.60
   5   0   3  637.24   23.30
  -6   0  -3  117.19    5.00
   6   0   3  124.79    5.30
   6   0   3  110.79    5.00
   6   0   3  128.79    5.50
  -7   0  -3  144.59    7.00
  -7   0  -3  145.39    6.90
  -7   0  -3  148.89    6.10
   7   0   3  150.48    6.40
   7   0   3  145.89    6.70
   7   0   3  144.09    6.00
  -8   0  -3   51.49    4.70
   8   0   3   45.00    3.50
   8   0   3   46.80    3.70
  -9   0  -3  139.39    7.90
  -9   0  -3  141.69    7.60
   9   0   3  131.99    6.70
 -10   0  -3    4.20    3.20
  10   0   3    1.70    2.50
  10   0   3   -1.30    2.70
   9  -1  -3    0.20    3.00
   9  -1  -3    2.50    2.40
  -9   1   3    4.80    3.20
   8  -1  -3   18.10    3.40
   8  -1  -3   20.90    2.60
  -8   1   3   17.80    3.00
  -8   1   3   25.60    3.80
   7  -1  -3    7.10    4.10
   7  -1  -3    3.90    1.50
  -7   1   3   -0.70    2.80
  -7   1   3    3.30    1.80
   6  -1  -3   45.40    3.90
   6  -1  -3   37.90    2.60
  -6   1   3   38.30    3.70
   5  -1  -3  184.18    8.10
   5  -1  -3  178.38    6.50
   5  -1  -3  172.58    7.10
  -5   1   3  165.88    7.20
  -5   1   3  181.88    7.50
  -5   1   3  171.98    8.00
   4  -1  -3  333.37   12.30
   4  -1  -3  332.37   13.10
  -4   1   3  324.77   12.20
  -4   1   3  313.57   13.00
  -4   1   3  319.97   13.10
  -4   1   3  338.57   12.50
   3  -1  -3 1590.84   60.89
   3  -1  -3 1703.83   61.59
   3  -1  -3 1731.33   60.79
  -3   1   3 1750.42   60.99
  -3   1   3 1739.63   61.59
  -3   1   3 1788.32   61.79
  -3   1   3 1667.63   61.69
   2  -1  -3  373.36   14.40
   2  -1  -3  372.16   14.20
   2  -1  -3  370.26   14.00
   2  -1  -3  381.26   14.10
   2  -1  -3  384.96   14.10
   2  -1  -3  383.46   14.10
  -2   1   3  403.06   14.50
  -2   1   3  399.36   14.20
  -2   1   3  398.26   14.10
  -2   1   3  370.26   14.10
   1  -1  -3 1475.95   53.49
   1  -1  -3 1499.35   53.59
   1  -1  -3 1504.55   53.39
  -1   1   3 1513.45   53.59
  -1   1   3 1466.05   53.49
  -1   1   3 1470.45   53.69
  -1   1   3 1524.85   53.39
  -1   1   3 1536.05   53.59
  -1   1   3 1506.15   53.59
   0  -1  -3    1.10    0.40
   0  -1  -3    0.80    0.30
   0  -1  -3    0.90    0.40
   0  -1  -3    1.00    0.50
   0   1   3    0.90    0.30
   0   1   3    1.80    0.50
   0   1   3    1.50    0.40
   0   1   3    1.70    0.50
   0   1   3    1.60    0.30
  -1  -1  -3    7.60    0.90
  -1  -1  -3    8.60    0.60
  -1  -1  -3    8.10    0.60
   1   1   3    8.00    0.70
   1   1   3    8.00    0.90
   1   1   3    9.30    0.70
   1   1   3    9.60    0.70
  -2  -1  -3    1.20    0.40
  -2  -1  -3    1.50    0.50
  -2  -1  -3    0.90    0.30
  -2  -1  -3    1.40    0.40
  -2  -1  -3    2.00    0.60
   2   1   3    1.10    0.60
   2   1   3    1.80    0.30
   2   1   3    1.70    0.40
   2   1   3    1.20    0.30
  -3  -1  -3  384.66   13.90
  -3  -1  -3  375.76   13.70
  -3  -1  -3  363.26   14.00
   3   1   3  368.36   14.00
   3   1   3  361.96   13.90
   3   1   3  384.86   13.60
   3   1   3  382.16   13.80
  -4  -1  -3    9.30    1.30
  -4  -1  -3   10.50    1.40
  -4  -1  -3    8.70    1.20
   4   1   3   12.20    1.20
   4   1   3   12.50    1.70
   4   1   3   11.00    1.40
  -5  -1  -3    5.90    1.20
  -5  -1  -3    5.30    1.10
   5   1   3    4.70    0.90
   5   1   3    5.20    1.00
  -6  -1  -3   90.79    5.40
  -6  -1  -3   90.29    4.50
   6   1   3   89.89    4.30
   6   1   3   91.79    4.40
  -7  -1  -3   52.39    3.90
  -7  -1  -3   57.09    3.70
  -7  -1  -3   58.19    3.00
   7   1   3   53.39    3.30
   7   1   3   59.59    4.60
  -8  -1  -3   51.29    3.00
  -8  -1  -3   51.79    4.30
   8   1   3   53.19    3.70
  -9  -1  -3   93.29    6.20
   9   1   3   99.59    5.60
   9   1   3  108.29    5.80
 -10  -1  -3   -0.10    2.90
  10   1   3   -1.70    2.40
   9  -2  -3   48.30    6.30
  -9   2   3   52.49    5.90
  -9   2   3   44.30    5.40
   8  -2  -3   21.60    2.60
   8  -2  -3   27.10    3.80
  -8   2   3   15.60    3.20
  -8   2   3   15.70    3.70
   7  -2  -3   20.50    2.60
   7  -2  -3   17.60    3.10
  -7   2   3   11.50    2.80
  -7   2   3   19.60    2.80
   6  -2  -3    7.00    1.40
   6  -2  -3    8.10    2.20
  -6   2   3    7.30    2.20
  -6   2   3    5.20    1.60
   5  -2  -3  105.29    4.60
   5  -2  -3  118.49    5.30
   5  -2  -3  117.89    5.00
   5  -2  -3  121.49    6.00
  -5   2   3  110.39    5.90
  -5   2   3  117.29    5.50
   4  -2  -3    4.10    1.40
   4  -2  -3    2.20    0.70
   4  -2  -3    3.00    0.80
   4  -2  -3    1.70    0.50
  -4   2   3    1.60    1.20
  -4   2   3    2.20    1.00
   3  -2  -3  672.63   24.60
   3  -2  -3  685.63   25.30
   3  -2  -3  670.33   24.60
  -3   2   3  674.73   24.90
  -3   2   3  681.53   25.40
  -3   2   3  695.43   25.30
   2  -2  -3  288.87   10.60
   2  -2  -3  290.57   10.80
   2  -2  -3  287.37   10.80
   2  -2  -3  284.77   11.10
  -2   2   3  275.57   11.20
  -2   2   3  285.87   11.00
  -2   2   3  299.87   10.80
  -2   2   3  273.77   11.00
   1  -2  -3 2001.30   69.79
   1  -2  -3 1954.40   69.49
   1  -2  -3 1746.63   70.19
   1  -2  -3 1894.21   69.79
   1  -2  -3 2076.89   69.79
  -1   2   3 2011.30   69.69
  -1   2   3 1964.60   69.79
  -1   2   3 1963.40   69.89
  -1   2   3 1926.91   69.89
  -1   2   3 1994.00   69.79
  -1   2   3 1962.50   69.59
   0  -2  -3 1626.24   59.79
   0  -2  -3 1671.73   59.39
   0  -2  -3 1629.74   59.49
   0  -2  -3 1647.64   59.89
   0  -2  -3 1745.93   59.79
   0  -2  -3 1705.93   59.39
   0   2   3 1651.13   59.39
   0   2   3 1655.23   59.89
   0   2   3 1740.03   59.59
   0   2   3 1683.93   59.49
   0   2   3 1624.94   59.79
   0   2   3 1648.64   59.39
  -1  -2  -3  646.74   23.90
  -1  -2  -3  731.63   25.30
  -1  -2  -3  674.93   24.20
  -1  -2  -3  680.13   23.90
  -1  -2  -3  651.63   24.60
   1   2   3  670.03   24.60
   1   2   3  679.73   24.10
   1   2   3  651.63   24.00
   1   2   3  656.13   24.50
   1   2   3  672.13   24.00
  -2  -2  -3 3173.08  113.49
  -2  -2  -3 3169.98  114.09
  -2  -2  -3 3265.27  114.09
   2   2   3 3256.77  113.59
   2   2   3 3145.49  113.99
   2   2   3 3240.88  113.59
   2   2   3 3156.98  113.99
  -3  -2  -3    0.80    0.50
  -3  -2  -3    1.90    0.80
  -3  -2  -3    1.60    1.00
  -3  -2  -3    1.80    0.60
  -3  -2  -3    1.60    0.60
   3   2   3    1.40    0.90
   3   2   3    1.80    0.40
   3   2   3    1.80    0.50
  -4  -2  -3   46.30    2.70
  -4  -2  -3   49.20    2.60
  -4  -2  -3   46.00    3.30
  -4  -2  -3   50.09    2.60
   4   2   3   46.50    2.40
   4   2   3   58.99    2.80
   4   2   3   51.79    4.00
   4   2   3   50.29    2.30
  -5  -2  -3  235.18   10.30
  -5  -2  -3  233.28    9.30
  -5  -2  -3  222.98    9.30
   5   2   3  233.78    9.00
   5   2   3  229.58    9.40
   5   2   3  233.18    8.90
  -6  -2  -3    1.90    1.20
  -6  -2  -3    1.00    1.00
   6   2   3    0.10    1.30
   6   2   3    0.30    0.90
   6   2   3    1.80    1.00
  -7  -2  -3    1.40    1.60
  -7  -2  -3    2.70    1.00
  -7  -2  -3    0.10    1.40
   7   2   3    1.00    1.30
   7   2   3   -1.50    1.20
   7   2   3    0.50    1.60
  -8  -2  -3    1.30    1.10
  -8  -2  -3   -0.40    1.80
   8   2   3    1.00    1.70
  -9  -2  -3   -4.90    2.50
  -9  -2  -3    2.30    2.20
   9   2   3    1.40    1.90
   9   2   3    2.70    2.10
 -10  -2  -3   14.10    3.40
  10   2   3   19.50    3.30
   8  -3  -3   12.80    3.40
   8  -3  -3    8.10    2.90
   8  -3  -3   12.50    2.40
  -8   3   3   11.30    3.20
   7  -3  -3   43.20    3.30
   7  -3  -3   47.10    4.60
  -7   3   3   38.00    4.80
  -7   3   3   46.50    4.50
   6  -3  -3   26.80    2.30
   6  -3  -3   25.10    3.50
  -6   3   3   27.50    3.30
  -6   3   3   27.30    3.30
  -6   3   3   20.20    2.70
   5  -3  -3   12.00    1.60
   5  -3  -3   11.40    2.20
  -5   3   3   13.70    1.90
  -5   3   3   13.70    2.00
  -5   3   3   10.00    2.10
   4  -3  -3  104.39    4.40
   4  -3  -3   97.39    5.30
  -4   3   3  106.39    5.00
  -4   3   3  100.09    5.50
  -4   3   3  105.79    5.30
   3  -3  -3   54.79    3.60
   3  -3  -3   52.59    3.00
  -3   3   3   58.09    3.10
  -3   3   3   55.09    3.20
  -3   3   3   56.89    3.30
   2  -3  -3   59.19    3.20
   2  -3  -3   70.09    2.80
   2  -3  -3   66.79    4.10
   2  -3  -3   59.49    3.00
   2  -3  -3   62.09    3.20
  -2   3   3   65.69    3.20
  -2   3   3   65.99    3.50
  -2   3   3   59.99    3.30
  -2   3   3   66.19    3.50
   1  -3  -3 1330.37   48.80
   1  -3  -3 1351.16   48.80
   1  -3  -3 1344.47   49.20
   1  -3  -3 1370.46   49.00
   1  -3  -3 1345.57   49.20
  -1   3   3 1385.46   49.10
  -1   3   3 1353.76   49.10
  -1   3   3 1451.75   49.30
  -1   3   3 1343.07   48.80
  -1   3   3 1407.36   50.59
   0  -3  -3   23.80    1.30
   0  -3  -3   22.30    1.80
   0  -3  -3   23.20    1.50
   0   3   3   23.40    1.30
   0   3   3   21.50    1.50
  -1  -3  -3  231.28    9.80
  -1  -3  -3  232.28    8.80
  -1  -3  -3  232.78    8.60
  -1  -3  -3  234.68    8.50
  -1  -3  -3  220.88    8.50
  -1  -3  -3  238.88    8.50
   1   3   3  239.98    8.70
   1   3   3  228.78    9.00
  -2  -3  -3  309.47   11.00
  -2  -3  -3  291.57   11.80
  -2  -3  -3  291.67   11.10
  -2  -3  -3  298.47   11.30
   2   3   3  306.57   12.10
   2   3   3  317.47   11.20
   2   3   3  300.07   11.80
  -3  -3  -3    1.30    0.90
  -3  -3  -3    0.80    0.70
  -3  -3  -3    1.60    0.60
   3   3   3    2.30    1.00
  -4  -3  -3  169.28    6.90
  -4  -3  -3  169.28    6.70
  -4  -3  -3  167.18    7.10
   4   3   3  164.48    6.60
   4   3   3  164.08    6.40
   4   3   3  166.58    7.20
  -5  -3  -3  473.25   18.10
  -5  -3  -3  484.25   18.20
   5   3   3  488.65   18.00
   5   3   3  491.75   18.50
   5   3   3  482.95   18.00
  -6  -3  -3  178.58    7.50
  -6  -3  -3  179.28    7.60
   6   3   3  170.48    8.20
   6   3   3  177.98    7.40
   6   3   3  184.08    7.20
  -7  -3  -3  248.38   10.90
  -7  -3  -3  248.78   10.40
  -7  -3  -3  253.07    9.90
   7   3   3  253.67   10.90
   7   3   3  239.58   10.00
  -8  -3  -3   23.60    2.30
  -8  -3  -3   26.20    3.70
   8   3   3   29.20    3.80
  -9  -3  -3   10.90    2.60
  -9  -3  -3   22.50    3.40
   9   3   3   14.10    2.40
 -10  -3  -3   13.90    3.30
  10   3   3   14.30    3.00
  10   3   3   16.20    2.90
   8  -4  -3   12.80    3.50
   8  -4  -3   13.00    3.60
  -8   4   3    2.10    3.60
   7  -4  -3    2.00    1.70
   7  -4  -3    2.20    2.50
   7  -4  -3    2.90    2.70
  -7   4   3    3.00    2.70
  -7   4   3    5.00    2.70
   6  -4  -3    4.30    1.40
   6  -4  -3    4.50    2.20
   6  -4  -3    3.10    2.40
  -6   4   3    3.00    2.80
  -6   4   3    3.70    2.20
  -6   4   3    1.30    2.40
   5  -4  -3  469.15   18.00
   5  -4  -3  480.55   19.10
   5  -4  -3  468.95   18.90
  -5   4   3  495.45   18.90
  -5   4   3  485.55   18.90
  -5   4   3  509.25   19.30
   4  -4  -3   78.19    3.60
   4  -4  -3   83.09    4.40
   4  -4  -3   76.39    4.50
   4  -4  -3   74.69    3.90
  -4   4   3   81.29    4.50
  -4   4   3   77.19    4.60
  -4   4   3   70.69    4.40
   3  -4  -3  381.06   14.80
   3  -4  -3  379.16   15.00
   3  -4  -3  393.16   15.10
  -3   4   3  380.16   14.80
  -3   4   3  383.26   15.00
   2  -4  -3  295.07   10.80
   2  -4  -3  283.77   11.30
   2  -4  -3  297.07   11.40
   2  -4  -3  286.47   10.90
  -2   4   3  286.97   11.70
  -2   4   3  295.57   11.40
   1  -4  -3  211.58    8.30
   1  -4  -3  218.38    7.90
   1  -4  -3  209.58    7.90
   1  -4  -3  196.68    8.20
  -1   4   3  209.38    8.40
  -1   4   3  208.18    8.90
  -1   4   3  219.58    8.00
   0  -4  -3  216.38    8.10
   0  -4  -3  204.18    8.10
   0  -4  -3  210.18    8.30
   0   4   3  222.68    8.10
   0   4   3  218.18    8.80
   0   4   3  204.58    8.90
   0   4   3  221.28    8.50
  -1  -4  -3  133.39    5.00
  -1  -4  -3  128.89    5.40
  -1  -4  -3  142.49    4.90
   1   4   3  112.59    6.20
   1   4   3  129.99    5.10
   1   4   3  134.49    6.10
  -2  -4  -3    0.50    0.60
  -2  -4  -3    1.50    0.50
  -2  -4  -3    1.60    0.60
   2   4   3    0.70    0.60
   2   4   3    1.40    0.60
   2   4   3    1.00    1.00
   2   4   3    1.80    1.10
  -3  -4  -3 1461.95   53.29
  -3  -4  -3 1434.46   52.69
  -3  -4  -3 1470.55   52.39
   3   4   3 1502.75   53.39
   3   4   3 1484.75   52.49
   3   4   3 1453.65   53.19
  -4  -4  -3   -1.70    0.70
  -4  -4  -3   -0.80    0.90
  -4  -4  -3   -0.10    1.20
   4   4   3   -1.10    1.20
   4   4   3    0.20    0.70
   4   4   3   -0.50    1.10
  -5  -4  -3   45.20    3.30
  -5  -4  -3   47.90    2.90
  -5  -4  -3   48.70    2.90
   5   4   3   48.10    2.70
   5   4   3   44.90    2.20
  -6  -4  -3    1.10    1.30
  -6  -4  -3    2.70    1.20
   6   4   3    0.80    1.10
   6   4   3    1.50    1.10
   6   4   3   -1.00    1.50
  -7  -4  -3   61.59    3.80
  -7  -4  -3   60.69    4.00
   7   4   3   63.89    5.20
   7   4   3   60.49    3.60
   7   4   3   61.09    3.40
  -8  -4  -3    8.00    2.20
   8   4   3    6.40    2.60
   8   4   3    5.70    1.90
   8   4   3    7.30    1.70
  -9  -4  -3   -2.60    2.30
   9   4   3    4.70    2.00
   9   4   3    5.00    2.10
 -10  -4  -3   97.59    6.70
  10   4   3   91.49    6.00
   7  -5  -3    6.10    3.50
   7  -5  -3   -4.40    2.40
  -7   5   3    2.50    2.80
  -7   5   3    2.10    3.00
   6  -5  -3   11.20    2.60
   6  -5  -3   10.10    2.70
  -6   5   3   12.30    2.80
  -6   5   3    8.70    3.10
  -6   5   3   10.00    2.60
   5  -5  -3   36.00    3.60
   5  -5  -3   34.10    2.40
   5  -5  -3   37.70    3.70
  -5   5   3   30.20    3.50
  -5   5   3   33.30    4.20
  -5   5   3   34.50    4.50
   4  -5  -3   20.20    1.80
   4  -5  -3   21.70    2.70
   4  -5  -3   23.50    2.80
  -4   5   3   27.70    3.40
  -4   5   3   22.10    2.90
  -4   5   3   22.10    3.00
   3  -5  -3    7.80    1.60
   3  -5  -3    6.30    1.00
   3  -5  -3   10.10    1.60
  -3   5   3    6.70    1.60
  -3   5   3    9.30    1.80
   2  -5  -3  106.69    4.90
   2  -5  -3   93.99    4.20
   2  -5  -3  104.69    4.70
  -2   5   3   95.69    5.40
  -2   5   3   96.89    4.90
   1  -5  -3    2.50    0.90
   1  -5  -3    3.30    1.10
   1  -5  -3    3.50    0.70
  -1   5   3    2.60    1.40
  -1   5   3    3.90    1.10
  -1   5   3    4.30    1.20
   0  -5  -3   13.20    1.50
   0  -5  -3   14.90    1.20
   0   5   3   15.30    2.20
   0   5   3   13.20    1.70
   0   5   3   16.20    2.00
   0   5   3   14.40    1.20
  -1  -5  -3  313.57   11.50
  -1  -5  -3  300.07   11.90
  -1  -5  -3  327.27   11.20
   1   5   3  300.57   11.50
   1   5   3  325.07   12.50
   1   5   3  297.37   12.70
  -2  -5  -3   60.59    2.60
  -2  -5  -3   52.49    2.60
  -2  -5  -3   56.49    3.00
  -3  -5  -3  394.86   14.90
  -3  -5  -3  398.86   14.50
  -3  -5  -3  382.66   15.50
   3   5   3  393.76   15.50
   3   5   3  387.36   15.60
  -4  -5  -3  596.84   22.00
  -4  -5  -3  571.84   21.70
  -4  -5  -3  607.04   22.70
   4   5   3  584.34   21.60
   4   5   3  593.84   22.60
  -5  -5  -3   70.69    4.00
   5   5   3   71.39    3.60
   5   5   3   79.19    4.70
  -6  -5  -3   50.69    3.50
  -6  -5  -3   56.79    3.60
  -6  -5  -3   49.40    3.90
   6   5   3   47.30    2.50
   6   5   3   55.99    3.20
   6   5   3   45.10    4.10
  -7  -5  -3  335.97   13.80
  -7  -5  -3  338.87   13.80
   7   5   3  341.17   13.40
   7   5   3  349.17   14.50
  -8  -5  -3    8.00    2.30
  -8  -5  -3    9.40    2.70
   8   5   3    3.50    2.70
   8   5   3    3.80    2.00
  -9  -5  -3   38.40    4.50
  -9  -5  -3   44.00    5.40
   9   5   3   47.90    4.20
   9   5   3   49.90    8.40
 -10  -5  -3   41.60    5.60
  10   5   3   51.49    4.90
   6  -6  -3   14.10    2.90
  -6   6   3    9.70    3.10
  -6   6   3   12.50    4.00
   5  -6  -3    2.10    2.00
   5  -6  -3    0.40    2.00
  -5   6   3   -1.90    2.90
  -5   6   3   -0.50    2.20
   4  -6  -3    1.40    1.60
   4  -6  -3    1.80    1.00
  -4   6   3    2.90    3.00
   3  -6  -3   22.70   31.00
  -3   6   3  -10.80   25.20
   2  -6  -3   64.99    2.80
   2  -6  -3   66.49    3.80
   2  -6  -3   61.49    3.50
  -2   6   3   61.59    4.60
  -2   6   3   70.09    4.10
  -2   6   3   65.39    4.10
   1  -6  -3    5.20    1.10
   1  -6  -3    3.60    1.10
   1  -6  -3    5.80    1.10
  -1   6   3    3.00    1.50
  -1   6   3    4.70    1.80
  -1   6   3    5.40    1.40
   0  -6  -3   15.60    1.50
   0  -6  -3   16.30    1.80
   0   6   3   19.00    2.70
   0   6   3   18.20    2.10
   0   6   3   16.90    2.50
  -1  -6  -3  279.87   10.70
  -1  -6  -3  310.57   10.90
  -1  -6  -3  304.77   11.60
   1   6   3  303.77   12.60
   1   6   3  296.57   11.00
   1   6   3  279.47   12.20
  -2  -6  -3  672.53   24.40
  -2  -6  -3  631.74   23.80
   2   6   3  683.43   25.40
   2   6   3  646.74   25.00
  -3  -6  -3   41.20    2.70
  -3  -6  -3   38.20    2.30
   3   6   3   41.90    3.70
   3   6   3   40.10    2.30
   3   6   3   44.90    3.50
  -4  -6  -3    2.10    1.60
  -4  -6  -3    1.00    1.00
  -4  -6  -3    1.50    1.20
   4   6   3    0.90    1.80
   4   6   3    2.80    1.70
   4   6   3    2.60    1.00
  -5  -6  -3  134.89    7.00
  -5  -6  -3  141.19    6.20
  -5  -6  -3  135.89    6.40
   5   6   3  129.69    7.10
   5   6   3  134.29    8.30
   5   6   3  143.99    5.90
  -6  -6  -3  720.43   27.00
  -6  -6  -3  708.73   27.40
   6   6   3  733.83   26.50
   6   6   3  704.53   27.70
  -7  -6  -3   78.59    5.70
  -7  -6  -3   94.89    6.90
   7   6   3   97.89    5.00
   7   6   3   97.69    6.40
  -8  -6  -3  180.78    8.90
  -8  -6  -3  168.28    8.60
   8   6   3  186.58   10.70
   8   6   3  166.68    8.00
  -9  -6  -3   62.09    6.20
  -9  -6  -3   65.39    5.50
   9   6   3   61.09    4.80
   6  -7  -3    7.10    2.90
  -6   7   3    3.10    3.30
  -6   7   3    4.10    4.50
   5  -7  -3   67.59    5.00
  -5   7   3   65.39    5.50
  -5   7   3   70.19    7.00
   4  -7  -3   -1.60    1.70
   4  -7  -3    0.00    2.20
  -4   7   3   -0.60    2.20
  -4   7   3   -3.50    3.80
   3  -7  -3  256.87   11.10
   3  -7  -3  271.67   10.80
  -3   7   3  255.37   11.40
   2  -7  -3   10.20    2.00
   2  -7  -3   14.60    1.90
   2  -7  -3    8.60    1.40
  -2   7   3   13.90    2.90
  -2   7   3    9.10    2.20
  -2   7   3    9.90    2.60
   1  -7  -3   64.89    3.30
   1  -7  -3   67.39    4.00
   1  -7  -3   64.89    3.40
  -1   7   3   57.09    4.40
  -1   7   3   69.69    5.20
  -1   7   3   67.99    4.20
   0  -7  -3    8.60    1.20
   0  -7  -3    6.60    0.90
   0  -7  -3    8.90    1.60
   0   7   3    8.60    2.10
   0   7   3    8.90    2.40
  -1  -7  -3  112.69    5.50
  -1  -7  -3  112.49    5.00
   1   7   3  120.19    6.40
   1   7   3  118.09    6.70
  -2  -7  -3  169.18    7.60
  -2  -7  -3  167.78    7.10
   2   7   3  173.78    8.70
   2   7   3  193.48    8.60
  -3  -7  -3  215.98    8.90
  -3  -7  -3  196.38    8.40
   3   7   3  208.98    8.20
   3   7   3  215.38    9.70
   3   7   3  214.18   10.10
  -4  -7  -3  307.87   12.00
  -4  -7  -3  319.77   13.40
  -4  -7  -3  312.07   12.40
   4   7   3  297.47   13.40
   4   7   3  301.67   11.70
   4   7   3  299.17   13.20
  -5  -7  -3  373.66   14.80
  -5  -7  -3  371.76   15.70
   5   7   3  371.06   14.20
   5   7   3  378.26   17.50
   5   7   3  369.06   15.70
  -6  -7  -3   36.70   55.69
   6   7   3   62.89   46.40
  -7  -7  -3   23.70    3.30
  -7  -7  -3   27.10    3.70
  -7  -7  -3   20.00    3.00
   7   7   3   25.10    3.10
  -8  -7  -3   73.49    5.40
  -8  -7  -3   66.99    5.80
   8   7   3   59.79    6.50
  -9  -7  -3  118.79    7.60
   9   7   3  123.89    6.90
   9   7   3  125.09    9.20
   5  -8  -3   -1.40    2.50
   5  -8  -3    3.40    2.70
   5  -8  -3    1.00    2.50
  -5   8   3    7.60    4.40
  -5   8   3    4.80    3.30
   4  -8  -3   79.89    5.00
   4  -8  -3   78.79    5.00
   4  -8  -3   76.49    5.40
  -4   8   3   68.39    6.00
   3  -8  -3   71.39    4.30
   3  -8  -3   69.99    4.40
   3  -8  -3   70.69    5.00
  -3   8   3   60.29    5.20
   2  -8  -3   61.29    3.80
   2  -8  -3   60.09    4.40
   2  -8  -3   60.89    3.60
  -2   8   3   65.89    6.10
  -2   8   3   65.59    4.90
   1  -8  -3   30.70    3.30
   1  -8  -3   33.10    2.80
  -1   8   3   34.50    3.70
  -1   8   3   33.60    5.10
   0  -8  -3    4.50    1.00
   0  -8  -3    3.60    1.80
   0  -8  -3    5.20    1.30
   0   8   3    2.80    2.60
  -1  -8  -3   61.29    3.40
  -1  -8  -3   69.39    4.20
   1   8   3   62.59    5.60
   1   8   3   62.79    5.00
  -2  -8  -3   25.10    2.90
  -2  -8  -3   21.50    2.20
   2   8   3   31.90    4.10
   2   8   3   22.10    3.80
  -3  -8  -3   46.30    3.70
  -3  -8  -3   43.20    3.10
   3   8   3   50.39    2.90
   3   8   3   52.59    5.00
   3   8   3   57.59    5.50
  -4  -8  -3   -0.40    1.70
   4   8   3   -1.50    2.70
   4   8   3   -0.40    1.30
  -5  -8  -3    0.10    2.90
  -5  -8  -3    1.20    2.00
   5   8   3    1.60    2.80
  -6  -8  -3   16.20    2.90
  -6  -8  -3   14.60    3.50
  -6  -8  -3   17.50    2.80
  -7  -8  -3    0.60    2.70
  -7  -8  -3   -0.30    2.50
  -7  -8  -3    1.40    3.50
   7   8   3   -4.50    3.40
   7   8   3    1.40    2.10
  -8  -8  -3   11.40    3.10
   8   8   3   14.20    4.40
   3  -9  -3    5.70    2.60
  -3   9   3    6.70    2.80
   2  -9  -3    2.50    1.70
   2  -9  -3    4.60    2.40
  -2   9   3    6.30    3.90
  -2   9   3    1.70    2.40
   1  -9  -3   41.20    3.20
   1  -9  -3   43.70    4.10
  -1   9   3   42.30    5.10
  -1   9   3   49.99    6.30
   0  -9  -3   56.19    3.60
   0  -9  -3   54.79    4.30
   0   9   3   62.19    6.50
   0   9   3   58.09    5.80
  -1  -9  -3   19.70    2.40
  -1  -9  -3   20.70    2.70
   1   9   3   19.10    4.20
  -2  -9  -3    2.40    2.00
  -2  -9  -3    6.00    2.40
   2   9   3    2.50    3.30
   2   9   3    8.70    3.10
  -3  -9  -3   62.59    4.60
   3   9   3   64.09    6.70
  -4  -9  -3  307.97   13.00
  -4  -9  -3  316.87   13.30
   4   9   3  326.47   15.10
   4   9   3  321.67   15.90
  -5  -9  -3   -1.60    2.30
  -5  -9  -3   -0.90    3.30
   5   9   3    5.80    3.50
   5   9   3   -4.50    3.60
  -6  -9  -3   34.30    4.40
  -6  -9  -3   35.10    4.40
  -6  -9  -3   47.50    6.50
   6   9   3   30.60    4.80
   6   9   3   48.90    6.70
  -7  -9  -3   16.80    4.70
  -7  -9  -3   13.70    3.30
   7   9   3   12.10    2.90
   2 -10  -3   58.19    5.30
  -2  10   3   35.00    4.60
  -2  10   3   55.39    7.10
   1 -10  -3   38.60    3.50
  -1  10   3   46.10    6.20
   0 -10  -3   33.20    4.50
   0 -10  -3   34.90    3.30
   0  10   3   37.90    5.60
   0  10   3   32.00    4.70
  -1 -10  -3  110.19    6.50
  -1 -10  -3  113.19    5.70
   1  10   3  106.39    8.00
   1  10   3  111.99    8.70
  -2 -10  -3    7.20    2.70
  -2 -10  -3    4.90    2.40
   2  10   3   10.00    3.90
  -3 -10  -3   31.80    4.30
   3  10   3   50.19    7.10
   3  10   3   50.79    6.30
  -4 -10  -3    1.00    2.50
   4  10   3    3.90    4.30
   4  10   3    5.70    3.90
  -5 -10  -3   10.90    2.90
   5  10   3   13.00    4.90
   5  10   3   20.00    4.60
  -6 -10  -3   23.70    3.60
  -6 -10  -3   32.60    5.60
   6  10   3   20.60    5.20
  -2 -11  -3    5.60    3.20
   4  10  -4   -0.30    3.70
  -4 -10   4    4.40    3.40
   3  10  -4   -0.20    3.40
  -3 -10   4   -0.10    3.20
   2  10  -4  319.67   15.20
  -2 -10   4  322.07   13.90
  -2 -10   4  348.07   14.10
   1  10  -4   42.00    6.00
   1  10  -4   38.40    5.50
  -1 -10   4   41.50    4.40
  -1 -10   4   47.00    5.00
   0 -10   4   10.20    2.60
   1 -10   4    9.50    2.60
   6   9  -4    7.80    3.90
   5   9  -4   22.40    3.80
   4   9  -4   20.00    4.30
   4   9  -4   24.90    3.60
  -4  -9   4   17.20    3.00
  -4  -9   4   20.50    3.80
   3   9  -4   59.49    6.20
   3   9  -4   67.49    5.40
  -3  -9   4   53.99    4.80
  -3  -9   4   59.29    4.70
   2   9  -4    9.20    2.90
  -2  -9   4   13.10    2.60
  -2  -9   4    6.70    2.40
  -2  -9   4   10.40    2.90
   1   9  -4   19.90    3.80
   1   9  -4   17.90    3.50
  -1  -9   4   19.60    2.80
  -1  -9   4   18.80    3.00
  -1  -9   4   17.50    2.60
   0   9  -4    4.20    2.80
   0  -9   4    5.90    2.00
   0  -9   4    1.30    2.90
  -1   9  -4   11.00    3.30
  -1   9  -4    5.00    3.50
   1  -9   4   12.20    2.70
   1  -9   4    8.80    2.20
   1  -9   4    4.50    2.80
  -2   9  -4   10.50    3.80
   2  -9   4   14.50    2.90
   2  -9   4   11.40    2.40
  -3   9  -4   11.90    4.00
   3  -9   4   12.70    2.90
   3  -9   4   13.90    2.60
   7   8  -4   46.50    6.80
   7   8  -4   59.09    4.90
  -7  -8   4   50.89    6.50
   6   8  -4    7.00    3.00
  -6  -8   4   14.80    3.90
   5   8  -4    6.40    2.70
  -5  -8   4    1.00    2.70
  -5  -8   4    2.30    2.30
   4   8  -4   20.30    3.10
  -4  -8   4   26.10    3.70
  -4  -8   4   22.90    3.30
  -4  -8   4   21.80    2.60
   3   8  -4  333.07   13.80
  -3  -8   4  303.17   13.40
  -3  -8   4  343.17   14.70
   2   8  -4    8.40    2.80
  -2  -8   4    0.20    1.80
   1   8  -4    8.90    2.40
   1   8  -4    9.30    2.80
  -1  -8   4   11.70    2.40
  -1  -8   4    7.70    1.90
   0   8  -4    2.30    2.50
   0   8  -4    5.20    3.00
   0  -8   4    3.80    1.60
   0  -8   4    4.40    1.80
  -1   8  -4   29.20    4.40
   1  -8   4   22.10    2.60
   1  -8   4   26.00    2.70
  -2   8  -4   99.09    7.00
  -2   8  -4  104.69    7.30
  -2   8  -4  102.69    6.20
   2  -8   4  119.69    5.50
   2  -8   4  115.59    6.30
  -3   8  -4    0.70    3.00
  -3   8  -4    3.40    2.60
   3  -8   4    1.20    2.30
   3  -8   4    2.00    1.80
  -4   8  -4   58.69    5.50
   4  -8   4   53.69    4.00
  -5   8  -4   33.10    5.70
  -5   8  -4   37.10    5.80
   5  -8   4   41.30    4.80
   5  -8   4   31.60    4.00
  -7  -7   4    0.40    3.40
   6   7  -4   80.09    5.50
   6   7  -4   81.89    4.80
  -6  -7   4   76.29    6.10
  -6  -7   4   82.19    5.00
  -6  -7   4   67.89    6.70
   5   7  -4    6.60    3.50
   5   7  -4    7.50    3.10
  -5  -7   4    0.10    2.50
  -5  -7   4    4.10    2.00
   4   7  -4  350.06   13.20
   4   7  -4  341.17   14.30
  -4  -7   4  323.47   14.30
  -4  -7   4  352.76   16.70
   3   7  -4   16.60    2.00
   3   7  -4   21.60    2.60
  -3  -7   4   25.00    2.90
  -3  -7   4   24.90    3.20
  -3  -7   4   14.40    2.00
   2   7  -4  538.85   20.30
   2   7  -4  517.95   20.60
  -2  -7   4  529.35   20.10
  -2  -7   4  523.95   19.70
  -2  -7   4  526.65   20.20
   1   7  -4  138.49    7.00
   1   7  -4  132.29    6.40
  -1  -7   4  127.69    6.00
  -1  -7   4  141.39    6.00
   0   7  -4  121.19    6.90
   0   7  -4  139.09    6.40
   0  -7   4  139.89    6.00
   0  -7   4  139.49    6.10
  -1   7  -4   57.69    4.40
  -1   7  -4   56.79    3.90
   1  -7   4   59.09    3.30
   1  -7   4   69.29    4.80
   1  -7   4   53.59    3.70
  -2   7  -4    1.70    1.60
  -2   7  -4    2.00    2.20
   2  -7   4   -1.10    1.30
   2  -7   4    1.20    1.40
   2  -7   4    0.80    1.60
  -3   7  -4   22.20    3.20
  -3   7  -4   22.10    2.80
   3  -7   4   17.60    2.50
   3  -7   4   18.50    3.10
  -4   7  -4   46.30    5.00
  -4   7  -4   59.19    5.00
   4  -7   4   54.49    3.90
   4  -7   4   54.39    3.60
  -5   7  -4   24.30    3.90
  -5   7  -4   21.40    3.50
   5  -7   4   25.00    3.30
   5  -7   4   22.80    2.80
  -6   7  -4    1.70    3.70
   6  -7   4    3.10    2.30
   6  -7   4    4.30    2.40
   8   6  -4   13.60    3.40
   8   6  -4    6.10    3.90
   8   6  -4    6.20    2.50
  -8  -6   4    7.00    5.10
   7   6  -4   48.10    5.30
   7   6  -4   42.20    4.50
  -7  -6   4   33.40    4.60
   6   6  -4    2.20    1.80
  -6  -6   4    2.20    2.60
  -6  -6   4    0.90    1.90
   5   6  -4   25.70    2.60
   5   6  -4   30.80    3.40
   5   6  -4   27.40    3.10
  -5  -6   4   27.60    3.70
  -5  -6   4   29.80    2.90
  -5  -6   4   29.70    3.90
   4   6  -4  268.17   10.10
   4   6  -4  251.07   10.60
  -4  -6   4  252.67   11.00
  -4  -6   4  256.57   10.90
  -4  -6   4  258.47   10.20
   3   6  -4  372.06   13.70
   3   6  -4  358.66   14.30
  -3  -6   4  372.96   13.90
  -3  -6   4  361.86   14.40
   2   6  -4   59.89    3.90
   2   6  -4   56.69    2.80
   2   6  -4   58.29    3.50
  -2  -6   4   67.69    3.60
  -2  -6   4   61.89    3.30
   1   6  -4  620.54   23.10
   1   6  -4  627.34   22.00
   1   6  -4  587.14   22.60
  -1  -6   4  597.24   22.30
  -1  -6   4  602.54   22.50
   0   6  -4    3.50    1.30
   0   6  -4    5.10    1.60
   0   6  -4    5.10    1.30
   0  -6   4    4.20    1.10
   0  -6   4    2.80    1.10
   0  -6   4    2.90    1.20
  -1   6  -4  446.66   17.60
  -1   6  -4  519.85   17.10
  -1   6  -4  450.45   17.30
   1  -6   4  434.46   16.80
   1  -6   4  444.96   16.90
   1  -6   4  401.66   16.80
  -2   6  -4    2.10    1.20
  -2   6  -4    3.10    1.60
  -2   6  -4    5.20    1.50
   2  -6   4    4.20    1.20
   2  -6   4    3.80    1.20
  -3   6  -4  148.89    6.20
  -3   6  -4  139.89    6.80
  -3   6  -4  140.39    7.10
   3  -6   4  146.09    6.30
   3  -6   4  141.19    6.10
  -4   6  -4  181.38    8.40
  -4   6  -4  172.08    8.60
   4  -6   4  186.58    7.60
   4  -6   4  179.58    7.70
  -5   6  -4   21.90    3.30
  -5   6  -4   20.30    3.10
   5  -6   4   24.00    2.90
   5  -6   4   17.00    2.30
  -6   6  -4    2.80    2.80
  -6   6  -4    0.90    2.60
   6  -6   4    1.40    1.90
  -7   6  -4    1.90    3.20
  -7   6  -4   -6.20    4.30
   7  -6   4    3.30    2.60
   8   5  -4   79.09    7.30
   8   5  -4   77.89    6.70
   8   5  -4   76.99    5.20
  -8  -5   4   94.39    7.10
  -8  -5   4   85.99    7.10
   7   5  -4    7.00    2.00
   7   5  -4    8.20    2.30
  -7  -5   4    4.60    2.90
  -7  -5   4    7.10    2.10
  -7  -5   4    4.90    2.90
   6   5  -4    0.90    1.50
   6   5  -4    3.40    1.70
  -6  -5   4   -1.50    3.00
  -6  -5   4    2.10    1.70
   5   5  -4    1.80    1.40
   5   5  -4   -0.30    1.20
  -5  -5   4    0.10    1.80
  -5  -5   4   -2.50    1.30
   4   5  -4    4.80    1.30
   4   5  -4    3.60    1.10
  -4  -5   4    3.90    1.20
  -4  -5   4    2.50    1.50
  -4  -5   4    2.40    1.90
   3   5  -4  237.98    9.40
   3   5  -4  237.38    9.00
   3   5  -4  238.88    9.50
  -3  -5   4  215.08    9.50
   2   5  -4  341.77   13.40
   2   5  -4  334.97   12.80
   2   5  -4  363.36   13.20
  -2  -5   4  340.97   13.40
  -2  -5   4  342.27   13.20
  -2  -5   4  341.17   12.90
   1   5  -4   91.89    4.40
  -1  -5   4   98.39    4.30
  -1  -5   4   97.79    4.70
  -1  -5   4  103.99    4.40
   0   5  -4  160.98    6.00
   0   5  -4  155.28    6.60
   0   5  -4  156.28    7.20
   0   5  -4  170.98    7.20
   0  -5   4  162.18    6.50
   0  -5   4  157.48    6.50
  -1   5  -4   15.80    1.50
  -1   5  -4   14.60    1.80
  -1   5  -4   12.70    1.90
   1  -5   4   12.30    1.40
   1  -5   4   10.20    1.50
  -2   5  -4   54.19    2.70
  -2   5  -4   47.80    3.20
  -2   5  -4   44.10    3.40
   2  -5   4   51.99    2.80
   2  -5   4   50.39    2.70
  -3   5  -4  462.45   18.00
  -3   5  -4  491.05   18.30
   3  -5   4  464.45   17.70
   3  -5   4  469.25   17.50
  -4   5  -4  954.20   33.80
  -4   5  -4  926.01   33.60
  -4   5  -4  818.12   32.60
   4  -5   4  921.81   32.60
   4  -5   4  899.61   33.00
   4  -5   4  917.01   33.10
  -5   5  -4   88.79    5.50
  -5   5  -4  105.29    5.70
   5  -5   4  102.19    4.90
   5  -5   4   92.29    4.40
   5  -5   4   99.59    4.90
  -6   5  -4   66.19    6.50
  -6   5  -4   55.79    4.80
   6  -5   4   45.70    4.10
   6  -5   4   52.19    3.70
  -7   5  -4    2.50    2.70
   7  -5   4    3.10    2.30
   7  -5   4   10.00    2.20
  -8   5  -4   -3.20    3.10
  -8   5  -4   -2.90    3.40
   8  -5   4   -0.10    2.50
   8  -5   4   -1.40    2.90
   9   4  -4  132.59    7.20
  -9  -4   4  131.89    9.20
   8   4  -4    4.40    2.50
   8   4  -4    2.10    2.00
  -8  -4   4   -1.30    2.30
  -8  -4   4   -0.60    3.30
  -8  -4   4    1.30    3.20
   7   4  -4   16.40    2.40
   7   4  -4   23.80    3.50
   7   4  -4   17.30    2.30
  -7  -4   4   22.40    3.60
   6   4  -4    9.60    2.00
   6   4  -4   11.80    1.80
  -6  -4   4   14.60    2.70
  -6  -4   4   12.50    2.60
  -6  -4   4   14.50    1.90
   5   4  -4  402.66   15.30
   5   4  -4  419.06   15.20
  -5  -4   4  376.26   15.00
  -5  -4   4  387.56   15.90
  -5  -4   4  410.26   16.10
   4   4  -4  172.88    7.40
   4   4  -4  187.28    7.30
   4   4  -4  182.18    7.40
  -4  -4   4  186.08    8.00
  -4  -4   4  177.78    8.10
  -4  -4   4  174.98    7.20
   3   4  -4  237.58    8.80
   3   4  -4  224.78    9.00
  -3  -4   4  238.88    9.70
  -3  -4   4  212.58    9.20
   2   4  -4   40.00    2.50
   2   4  -4   37.10    2.10
   2   4  -4   38.90    2.30
   2   4  -4   38.30    2.20
  -2  -4   4   34.40    2.60
  -2  -4   4   40.70    2.40
   1   4  -4  310.47   12.10
  -1  -4   4  309.37   12.10
  -1  -4   4  312.17   11.90
  -1  -4   4  331.37   11.70
   0   4  -4   87.79    3.40
   0   4  -4   84.49    3.90
   0   4  -4   82.89    3.70
   0  -4   4   86.89    3.80
   0  -4   4   80.19    3.70
   0  -4   4   86.99    3.50
   0  -4   4   75.89    3.60
  -1   4  -4 1155.78   41.40
   1  -4   4 1148.19   41.20
   1  -4   4 1124.59   41.40
   1  -4   4 1168.88   41.00
  -2   4  -4  134.79    5.70
   2  -4   4  131.79    5.30
   2  -4   4  127.89    5.10
   2  -4   4  132.69    5.80
  -3   4  -4   10.90    1.60
  -3   4  -4   14.00    1.80
   3  -4   4   11.30    1.30
   3  -4   4   10.40    1.60
   3  -4   4   11.60    1.30
  -4   4  -4   18.20    2.20
  -4   4  -4   13.90    1.90
   4  -4   4   15.70    1.70
   4  -4   4   16.60    1.60
   4  -4   4   13.90    1.90
  -5   4  -4  149.29    7.10
  -5   4  -4  165.38    7.10
   5  -4   4  141.99    6.50
   5  -4   4  151.48    6.20
  -6   4  -4  137.99    7.00
  -6   4  -4  131.09    6.60
   6  -4   4  134.99    5.90
  -7   4  -4  195.88    9.30
  -7   4  -4  203.28    9.60
   7  -4   4  194.88    8.40
   7  -4   4  203.28    8.80
   7  -4   4  198.58    9.00
  -8   4  -4   71.09    6.00
  -8   4  -4   82.69    6.30
   8  -4   4   84.09    5.60
   9   3  -4  147.69    7.90
  -9  -3   4  162.38    8.60
  -9  -3   4  164.58    9.90
   8   3  -4   49.70    3.90
   8   3  -4   53.39    5.50
  -8  -3   4   44.10    5.60
   7   3  -4  130.39    6.20
   7   3  -4  134.79    6.20
   7   3  -4  131.79    7.40
  -7  -3   4  121.49    7.40
  -7  -3   4  128.99    7.60
   6   3  -4  596.94   22.50
   6   3  -4  561.94   21.50
   6   3  -4  561.34   21.50
  -6  -3   4  594.64   22.60
  -6  -3   4  565.04   22.60
  -6  -3   4  572.54   21.50
   5   3  -4   45.50    2.80
   5   3  -4   46.60    2.80
  -5  -3   4   44.50    3.70
  -5  -3   4   50.99    2.90
  -5  -3   4   56.39    3.80
   4   3  -4    7.00    1.10
   4   3  -4    7.60    1.10
  -4  -3   4    6.90    1.40
  -4  -3   4    4.90    1.60
   3   3  -4   17.90    1.40
   3   3  -4   20.70    1.50
   3   3  -4   16.60    1.40
  -3  -3   4   17.80    1.90
  -3  -3   4   16.60    1.30
  -3  -3   4   15.80    2.10
   2   3  -4  191.98    7.40
   2   3  -4  186.88    7.40
  -2  -3   4  181.38    7.10
  -2  -3   4  200.18    7.70
  -2  -3   4  192.78    7.90
   1   3  -4   90.79    3.80
   1   3  -4   87.49    3.90
   1   3  -4   95.39    3.80
  -1  -3   4   86.39    4.00
  -1  -3   4   94.49    3.60
  -1  -3   4   88.79    4.10
   0   3  -4    5.80    0.70
   0   3  -4    7.60    0.90
   0   3  -4    5.40    0.90
   0  -3   4    6.50    0.80
   0  -3   4    5.10    0.70
   0  -3   4    6.60    0.80
  -1   3  -4  106.29    4.30
  -1   3  -4  106.39    4.50
   1  -3   4  104.29    4.20
   1  -3   4  108.89    4.20
   1  -3   4  103.79    4.40
   1  -3   4   92.39    4.50
  -2   3  -4   89.59    3.80
  -2   3  -4   84.79    3.90
   2  -3   4   77.19    3.70
   2  -3   4   85.29    3.50
   2  -3   4   78.99    3.60
   2  -3   4   86.69    3.70
  -3   3  -4  241.78    9.00
  -3   3  -4  239.08    9.50
  -3   3  -4  232.68    9.50
  -3   3  -4  268.97    8.90
   3  -3   4  231.58    9.00
   3  -3   4  235.08    9.10
   3  -3   4  230.18    9.20
  -4   3  -4  167.88    7.10
  -4   3  -4  154.18    6.90
   4  -3   4  165.78    6.60
   4  -3   4  171.08    6.80
   4  -3   4  167.18    6.70
  -5   3  -4  150.28    6.50
  -5   3  -4  144.99    6.70
   5  -3   4  150.88    6.40
   5  -3   4  143.19    6.00
   5  -3   4  148.39    6.30
  -6   3  -4  150.78    7.20
  -6   3  -4  147.49    6.80
   6  -3   4  150.18    6.70
   6  -3   4  150.88    6.30
  -7   3  -4  119.59    6.40
   7  -3   4  112.99    6.00
   7  -3   4  113.69    5.70
   7  -3   4  109.29    5.30
  -8   3  -4   -2.10    2.20
  -8   3  -4    1.90    2.60
   8  -3   4   -1.30    2.00
   8  -3   4    2.90    2.10
   8  -3   4    3.10    2.70
  -9   3  -4  119.29    7.70
   9  -3   4  112.39    7.20
   9  -3   4  113.69    6.50
   9   2  -4   17.20    2.80
   9   2  -4   19.60    4.90
  -9  -2   4   17.60    4.30
  -9  -2   4   15.00    3.50
   8   2  -4   17.40    5.70
   8   2  -4   29.00    3.20
  -8  -2   4   25.10    3.20
  -8  -2   4   27.80    4.10
   7   2  -4    1.10    1.50
   7   2  -4   -0.20    1.20
   7   2  -4   -0.30    2.20
  -7  -2   4    0.90    2.30
  -7  -2   4   -0.90    2.40
   6   2  -4  325.87   13.30
   6   2  -4  314.17   12.30
  -6  -2   4  287.17   12.20
  -6  -2   4  317.17   13.30
  -6  -2   4  319.27   13.40
   5   2  -4  110.69    4.90
   5   2  -4  117.19    5.20
  -5  -2   4  112.79    6.00
  -5  -2   4  107.09    5.80
  -5  -2   4  126.59    5.20
   4   2  -4    9.70    1.30
   4   2  -4   12.00    1.40
  -4  -2   4   10.30    1.70
   3   2  -4  138.19    5.30
   3   2  -4  136.39    5.70
   3   2  -4  137.19    5.60
  -3  -2   4  151.78    5.50
  -3  -2   4  143.09    6.40
  -3  -2   4  131.79    6.10
  -3  -2   4  146.59    5.40
   2   2  -4    1.40    0.40
   2   2  -4    2.10    0.40
   2   2  -4    1.60    0.70
   2   2  -4    1.10    0.50
  -2  -2   4    1.00    0.90
  -2  -2   4    2.10    0.40
  -2  -2   4    1.20    0.70
   1   2  -4  103.09    3.90
   1   2  -4   91.19    3.90
   1   2  -4   90.69    3.80
   1   2  -4   91.89    4.00
  -1  -2   4   93.39    4.00
   0   2  -4  634.44   22.60
   0   2  -4  597.74   21.60
   0   2  -4  618.34   22.50
   0   2  -4  602.74   21.90
   0  -2   4  585.54   21.80
   0  -2   4  555.24   22.00
   0  -2   4  601.04   21.90
   0  -2   4  632.84   22.10
   0  -2   4  616.34   21.60
  -1   2  -4   21.90    1.40
  -1   2  -4   24.10    1.40
   1  -2   4   23.30    1.40
   1  -2   4   23.50    1.80
   1  -2   4   20.00    1.40
   1  -2   4   22.50    1.20
  -2   2  -4  583.34   23.20
  -2   2  -4  633.44   22.60
  -2   2  -4  630.34   22.80
   2  -2   4  638.64   23.10
   2  -2   4  626.54   22.80
   2  -2   4  646.74   22.90
   2  -2   4  646.74   22.70
  -3   2  -4  527.55   20.60
  -3   2  -4  561.14   20.40
   3  -2   4  595.04   20.40
   3  -2   4  531.05   20.50
   3  -2   4  565.54   20.40
   3  -2   4  584.44   20.50
  -4   2  -4   86.69    4.20
  -4   2  -4   93.19    3.40
  -4   2  -4   91.99    4.10
   4  -2   4   86.49    3.90
   4  -2   4   79.99    4.10
   4  -2   4   91.79    4.00
  -5   2  -4  309.77   12.20
   5  -2   4  325.77   11.90
   5  -2   4  308.97   12.10
  -6   2  -4   23.30    2.20
  -6   2  -4   21.30    2.60
  -6   2  -4   18.90    2.50
   6  -2   4   21.20    2.00
   6  -2   4   22.60    2.20
   6  -2   4   20.90    2.30
  -7   2  -4    5.10    2.00
   7  -2   4    5.30    1.50
   7  -2   4    2.30    1.60
  -8   2  -4  212.28   10.20
  -8   2  -4  223.68   10.10
  -8   2  -4  213.48    9.40
   8  -2   4  215.08    9.50
   8  -2   4  219.78    9.30
   8  -2   4  225.88   10.00
  -9   2  -4  157.28    8.60
   9  -2   4  139.89   11.10
   9  -2   4  149.49    7.60
   9  -2   4  170.38    7.90
   9   1  -4   42.60    5.20
   9   1  -4   42.60    5.20
  -9  -1   4   40.20    5.30
  -9  -1   4   36.60    4.90
   8   1  -4   21.60    2.70
   8   1  -4   21.00    3.70
  -8  -1   4   27.50    4.10
  -8  -1   4   27.40    3.30
   7   1  -4  388.16   16.70
   7   1  -4  418.16   16.90
   7   1  -4  399.96   15.20
  -7  -1   4  388.86   17.20
  -7  -1   4  410.26   17.00
   6   1  -4  523.35   19.80
   6   1  -4  531.55   20.20
   6   1  -4  542.35   21.20
  -6  -1   4  538.15   20.30
  -6  -1   4  547.05   21.30
  -6  -1   4  547.85   21.40
   5   1  -4  464.95   17.90
   5   1  -4  473.25   16.80
   5   1  -4  462.45   17.10
  -5  -1   4  451.55   17.00
  -5  -1   4  435.26   17.90
  -5  -1   4  430.86   17.80
   4   1  -4  337.27   12.30
   4   1  -4  329.57   12.50
  -4  -1   4  312.07   13.10
  -4  -1   4  344.27   13.40
   3   1  -4  697.33   26.20
  -3  -1   4  719.73   26.00
  -3  -1   4  734.03   26.90
  -3  -1   4  732.73   26.60
   2   1  -4 1702.73   60.49
   2   1  -4 1655.63   60.79
   2   1  -4 1688.93   60.79
   2   1  -4 1559.34   60.49
  -2  -1   4 1806.52   60.69
  -2  -1   4 1601.74   60.99
  -2  -1   4 1776.42   61.39
  -2  -1   4 1845.62   60.49
   1   1  -4  181.88    6.90
   1   1  -4  174.78    7.00
   1   1  -4  186.58    6.80
   1   1  -4  184.58    6.90
  -1  -1   4  183.08    7.00
  -1  -1   4  175.88    7.00
  -1  -1   4  172.88    7.10
   0   1  -4  468.85   17.10
   0   1  -4  502.25   17.10
   0   1  -4  439.26   17.20
   0   1  -4  458.55   17.10
   0  -1   4  486.65   17.30
   0  -1   4  468.85   17.10
   0  -1   4  455.85   16.90
  -1   1  -4  581.64   20.70
  -1   1  -4  564.34   20.60
  -1   1  -4  589.94   20.90
  -1   1  -4  569.54   20.60
  -1   1  -4  557.54   20.90
  -1   1  -4  591.24   20.80
   1  -1   4  560.64   21.00
   1  -1   4  563.34   20.50
   1  -1   4  599.84   20.80
  -2   1  -4   44.90    2.10
  -2   1  -4   49.60    2.30
  -2   1  -4   48.10    2.20
  -2   1  -4   46.40    2.20
   2  -1   4   49.20    2.20
   2  -1   4   48.60    2.00
   2  -1   4   47.80    2.70
  -3   1  -4  138.39    5.30
  -3   1  -4  139.99    5.60
   3  -1   4  136.49    5.40
   3  -1   4  132.09    5.60
   3  -1   4  135.69    5.30
  -4   1  -4  117.19    5.10
  -4   1  -4  117.29    5.10
  -4   1  -4  123.99    5.30
   4  -1   4  125.49    5.00
   4  -1   4  122.29    5.00
  -5   1  -4  345.77   12.80
  -5   1  -4  365.76   13.60
  -5   1  -4  348.57   13.20
  -5   1  -4  333.17   13.40
   5  -1   4  342.57   13.20
   5  -1   4  367.16   13.20
   5  -1   4  346.47   13.30
  -6   1  -4    7.40    1.60
  -6   1  -4   10.90    1.60
   6  -1   4    8.40    1.40
   6  -1   4   10.30    1.80
   6  -1   4    7.10    1.30
  -7   1  -4   15.10    2.10
  -7   1  -4   14.00    2.30
   7  -1   4   14.10    1.90
   7  -1   4   12.00    1.80
  -8   1  -4  359.16   15.10
  -8   1  -4  380.96   14.30
  -8   1  -4  376.16   16.80
   8  -1   4  360.96   14.80
   8  -1   4  353.06   14.40
   8  -1   4  360.86   14.70
  -9   1  -4    0.30    2.70
  -9   1  -4   -1.00    2.60
   9  -1   4    0.60    2.30
   9  -1   4   -3.20    3.00
   9  -1   4   -0.80    2.10
 -10   1  -4  135.29   11.30
 -10   1  -4  120.09    8.20
   9   0  -4    4.80    2.30
   9   0  -4    3.10    3.40
   8   0  -4   23.30    3.80
   8   0  -4   17.00    2.50
  -8   0   4   26.90    4.00
   7   0  -4  114.29    7.50
  -7   0   4  117.59    7.10
   6   0  -4 1760.02   64.69
   6   0  -4 1765.72   63.69
   6   0  -4 1757.82   63.19
  -6   0   4 1754.92   64.69
  -6   0   4 1768.92   64.89
  -6   0   4 1803.02   63.79
   5   0  -4 1629.54   58.79
   5   0  -4 1632.44   59.19
   5   0  -4 1681.23   60.09
  -5   0   4 1689.23   60.29
  -5   0   4 1601.74   59.99
  -5   0   4 1648.83   59.19
   4   0  -4   91.29    4.00
   4   0  -4   89.89    4.80
  -4   0   4   89.29    4.10
  -4   0   4   85.89    4.80
  -4   0   4   85.29    4.60
   3   0  -4  366.36   14.30
   3   0  -4  376.06   14.50
   3   0  -4  385.66   14.10
   3   0  -4  433.66   14.30
  -3   0   4  377.66   14.30
  -3   0   4  372.56   15.10
  -3   0   4  408.56   15.00
   2   0  -4 1016.90   35.70
   2   0  -4 1013.70   36.70
   2   0  -4  975.40   35.60
   2   0  -4  934.51   35.70
  -2   0   4  967.30   36.20
  -2   0   4  946.81   36.00
  -2   0   4  992.00   35.50
  -2   0   4 1113.49   37.50
   1   0  -4  255.37   10.00
   1   0  -4  276.67   10.30
   1   0  -4  268.17   10.10
   1   0  -4  273.57   10.00
   1   0  -4  264.27   10.30
   1   0  -4  252.87   10.30
   1   0  -4  277.77    9.70
  -1   0   4  268.17   10.10
  -1   0   4  269.97   10.10
  -1   0   4  277.97    9.70
   0   0  -4   36.40    2.00
   0   0  -4   40.40    1.60
   0   0  -4   39.60    2.00
   0   0  -4   39.80    2.00
   0   0  -4   41.10    2.00
   0   0  -4   41.40    1.60
   0   0   4   37.50    1.90
   0   0   4   42.50    1.60
   0   0   4   38.80    1.80
   0   0   4   39.90    2.10
  -1   0  -4 3499.45  124.49
   1   0   4 3499.85  124.69
   1   0   4 3534.45  124.59
  -2   0  -4    6.60    0.80
  -2   0  -4    7.00    0.70
  -2   0  -4    6.20    0.90
   2   0   4    6.70    1.00
   2   0   4    6.10    0.50
   2   0   4    7.90    0.70
   2   0   4    8.30    0.70
   2   0   4   10.30    1.20
   2   0   4    8.00    0.80
  -3   0  -4   16.80    1.10
  -3   0  -4   14.50    1.30
  -3   0  -4   16.00    1.30
  -3   0  -4   13.10    1.20
   3   0   4   14.00    1.10
   3   0   4   15.40    1.00
   3   0   4   14.60    1.00
   3   0   4   13.70    1.30
  -4   0  -4  118.49    5.40
  -4   0  -4  128.59    5.10
  -4   0  -4  123.59    5.20
   4   0   4  124.89    5.00
   4   0   4  127.29    5.10
   4   0   4  116.09    5.00
  -5   0  -4   14.30    1.70
  -5   0  -4   15.60    1.50
  -5   0  -4   15.50    1.80
   5   0   4   16.40    1.50
   5   0   4   14.70    1.50
   5   0   4   15.00    1.70
  -6   0  -4  172.18    7.50
  -6   0  -4  171.38    7.00
  -6   0  -4  175.28    8.20
   6   0   4  166.78    7.10
   6   0   4  176.98    7.10
  -7   0  -4   87.79    4.90
  -7   0  -4   92.39    4.20
   7   0   4   87.39    4.40
   7   0   4   86.79    4.50
   7   0   4   86.69    4.20
  -8   0  -4    2.60    1.40
  -8   0  -4    1.70    2.20
  -8   0  -4    1.40    1.90
   8   0   4   -0.20    1.70
   8   0   4    0.20    1.60
  -9   0  -4    0.30    3.60
  -9   0  -4    2.70    2.40
   9   0   4   -2.20    2.00
   9   0   4    0.80    2.10
 -10   0  -4   20.40    3.90
  10   0   4   23.10    3.30
   9  -1  -4   14.40    2.80
   9  -1  -4   16.60    4.20
  -9   1   4   15.20    4.40
   8  -1  -4   22.90    3.90
   8  -1  -4   16.30    2.40
  -8   1   4   17.70    3.60
  -8   1   4   14.40    3.00
   7  -1  -4   12.90    2.80
  -7   1   4    9.70    2.80
  -7   1   4   12.90    2.30
   6  -1  -4    2.60    0.90
   6  -1  -4    0.60    2.00
   6  -1  -4    0.50    1.10
  -6   1   4    0.80    1.50
  -6   1   4   -0.50    1.90
   5  -1  -4  188.58    8.80
   5  -1  -4  193.78    7.80
  -5   1   4  193.98    8.80
  -5   1   4  194.48    8.90
  -5   1   4  192.28    8.10
   4  -1  -4  557.44   20.10
   4  -1  -4  545.95   20.10
   4  -1  -4  536.15   20.30
   4  -1  -4  527.45   20.10
   4  -1  -4  562.74   21.20
  -4   1   4  546.65   21.30
  -4   1   4  566.84   21.10
  -4   1   4  573.94   20.50
   3  -1  -4  941.11   33.80
   3  -1  -4  927.51   34.50
   3  -1  -4  958.10   33.90
  -3   1   4  926.01   34.40
  -3   1   4  902.11   34.50
  -3   1   4  966.30   33.80
   2  -1  -4 1104.39   39.50
   2  -1  -4 1070.49   39.40
   2  -1  -4 1129.29   39.70
  -2   1   4 1166.68   39.80
  -2   1   4 1108.39   39.40
  -2   1   4 1065.99   40.00
  -2   1   4 1082.49   39.60
  -2   1   4 1061.19   39.60
   1  -1  -4 1439.36   52.89
   1  -1  -4 1489.25   52.99
   1  -1  -4 1443.06   52.69
   1  -1  -4 1499.95   52.99
   1  -1  -4 1466.65   52.69
  -1   1   4 1485.75   52.79
  -1   1   4 1439.06   52.69
  -1   1   4 1511.85   52.49
  -1   1   4 1503.05   52.99
   0  -1  -4   82.59    3.90
   0  -1  -4   97.89    3.70
   0  -1  -4   92.49    3.50
   0  -1  -4   90.89    3.70
   0  -1  -4   90.99    4.00
   0   1   4   87.09    3.90
   0   1   4   86.99    3.80
   0   1   4   91.49    3.60
   0   1   4   94.59    4.00
  -1  -1  -4  380.26   14.00
  -1  -1  -4  379.96   14.30
  -1  -1  -4  369.56   13.80
   1   1   4  376.56   14.30
   1   1   4  387.86   14.00
   1   1   4  398.46   14.00
  -2  -1  -4 1051.79   37.20
   2   1   4 1047.50   37.20
   2   1   4 1031.70   37.60
   2   1   4 1042.60   37.10
   2   1   4 1010.70   37.70
  -3  -1  -4    0.80    0.50
  -3  -1  -4   -0.30    0.50
  -3  -1  -4   -0.20    1.30
   3   1   4    0.70    0.50
   3   1   4    0.50    0.90
   3   1   4    1.40    0.50
   3   1   4    1.10    0.80
   3   1   4    1.00    0.40
  -4  -1  -4  445.56   16.40
  -4  -1  -4  460.35   17.00
  -4  -1  -4  448.56   16.60
  -4  -1  -4  446.46   16.70
   4   1   4  429.96   16.40
  -5  -1  -4    0.30    0.80
  -5  -1  -4   -0.20    1.00
  -5  -1  -4   -0.40    0.80
  -5  -1  -4    0.40    0.80
   5   1   4    0.00    0.70
   5   1   4    0.50    0.70
  -6  -1  -4   10.80    1.50
  -6  -1  -4   12.20    1.80
  -6  -1  -4   12.50    1.70
   6   1   4   12.00    1.50
   6   1   4   12.90    1.90
   6   1   4   15.50    2.50
  -7  -1  -4    2.70    1.10
  -7  -1  -4    2.60    1.70
  -7  -1  -4    0.20    1.30
   7   1   4    2.60    1.30
   7   1   4    0.60    1.60
  -8  -1  -4   71.39    3.80
   8   1   4   75.89    4.40
  -9  -1  -4    3.50    2.60
  -9  -1  -4    3.90    2.40
   9   1   4   -0.50    2.10
   9   1   4    3.00    2.00
 -10  -1  -4   24.20    3.70
  10   1   4   22.50    3.20
   8  -2  -4   26.60    2.90
  -8   2   4   22.40    3.50
  -8   2   4   25.70    4.30
   7  -2  -4  117.19    7.10
   7  -2  -4  103.49    7.30
  -7   2   4  115.09    6.40
  -7   2   4  112.69    7.10
   6  -2  -4    1.20    0.80
   6  -2  -4    1.00    2.00
   6  -2  -4    1.30    1.20
  -6   2   4   -3.70    1.80
  -6   2   4    3.90    1.60
   5  -2  -4  102.19    5.60
   5  -2  -4   99.49    4.60
  -5   2   4   99.59    5.00
  -5   2   4  100.19    5.60
   4  -2  -4    5.10    0.90
   4  -2  -4    4.70    1.00
   4  -2  -4    4.90    1.00
   4  -2  -4    5.00    1.50
  -4   2   4    3.40    1.20
  -4   2   4    3.20    1.40
  -4   2   4    6.90    1.90
  -4   2   4    5.20    1.60
   3  -2  -4  120.19    4.90
   3  -2  -4  112.19    4.80
   3  -2  -4  104.39    5.30
  -3   2   4  121.79    6.50
  -3   2   4  119.49    5.20
  -3   2   4  104.09    5.40
  -3   2   4  113.99    5.00
   2  -2  -4 1228.48   45.10
   2  -2  -4 1241.58   45.30
   2  -2  -4 1256.87   44.90
   2  -2  -4 1285.67   45.60
   2  -2  -4 1234.48   45.90
  -2   2   4 1244.78   45.60
  -2   2   4 1283.97   45.10
   1  -2  -4   55.19    3.00
   1  -2  -4   57.59    3.00
   1  -2  -4   58.69    3.10
   1  -2  -4   57.89    2.60
   1  -2  -4   62.19    2.90
   1  -2  -4   57.09    2.70
  -1   2   4   56.99    2.80
  -1   2   4   58.09    2.70
  -1   2   4   56.39    3.00
  -1   2   4   58.29    2.70
   0  -2  -4   16.90    1.10
   0  -2  -4   17.70    1.70
   0  -2  -4   17.10    1.70
   0  -2  -4   18.70    1.10
   0  -2  -4   16.20    1.20
   0   2   4   15.10    1.50
   0   2   4   17.50    1.10
   0   2   4   16.80    1.20
   0   2   4   18.50    1.60
   0   2   4   13.50    1.30
  -1  -2  -4  247.18    8.90
  -1  -2  -4  244.38    9.00
  -1  -2  -4  234.78    9.60
  -1  -2  -4  230.28    9.70
  -1  -2  -4  239.78    9.20
  -1  -2  -4  267.07    9.00
  -1  -2  -4  249.38    9.20
   1   2   4  246.88    9.20
   1   2   4  252.87    9.20
  -2  -2  -4   10.50    1.60
  -2  -2  -4    8.90    1.30
  -2  -2  -4    9.00    0.60
  -2  -2  -4    8.40    0.60
  -2  -2  -4   10.80    1.00
   2   2   4    9.60    0.60
   2   2   4   10.50    0.80
   2   2   4   10.70    0.90
   2   2   4    7.50    1.20
   2   2   4    8.60    1.00
   2   2   4    8.40    1.20
  -3  -2  -4 3346.17  123.09
  -3  -2  -4 3379.96  123.39
  -3  -2  -4 3578.44  123.89
   3   2   4 3440.26  123.29
   3   2   4 3622.64  124.39
  -4  -2  -4  175.68    7.10
  -4  -2  -4  183.48    7.30
  -4  -2  -4  169.88    7.50
  -4  -2  -4  186.28    7.10
   4   2   4  178.38    6.80
   4   2   4  184.88    7.10
   4   2   4  181.48    7.60
  -5  -2  -4  272.67   10.70
  -5  -2  -4  266.57   10.60
  -5  -2  -4  282.17   10.80
   5   2   4  270.67   10.50
   5   2   4  274.47   10.20
   5   2   4  265.97   11.00
  -6  -2  -4   62.69    3.60
  -6  -2  -4   59.19    3.40
  -6  -2  -4   60.49    3.50
   6   2   4   62.99    3.30
   6   2   4   62.69    3.80
   6   2   4   57.89    3.00
  -7  -2  -4    3.60    1.50
  -7  -2  -4    5.40    1.30
   7   2   4    3.90    1.80
   7   2   4    4.80    1.40
   7   2   4    2.50    1.20
  -8  -2  -4    8.50    2.40
   8   2   4    2.20    2.70
  -9  -2  -4   22.80    3.50
  -9  -2  -4   19.20    2.80
   9   2   4   19.70    2.60
   9   2   4   18.30    3.70
 -10  -2  -4   90.59    6.40
  10   2   4   99.49    6.00
  10   2   4   79.39    5.80
   8  -3  -4    0.10    2.50
   8  -3  -4    3.60    3.00
  -8   3   4   -1.10    3.30
  -8   3   4    2.00    2.90
   7  -3  -4   29.70    3.20
   7  -3  -4   33.80    4.50
  -7   3   4   32.50    4.20
  -7   3   4   35.50    4.30
   6  -3  -4   77.39    4.00
   6  -3  -4   80.49    5.80
  -6   3   4   71.99    4.80
  -6   3   4   80.99    5.60
   5  -3  -4  493.45   19.60
   5  -3  -4  494.05   18.50
  -5   3   4  502.05   19.60
  -5   3   4  499.45   19.10
  -5   3   4  487.45   19.00
   4  -3  -4  116.89    6.20
   4  -3  -4  121.49    5.10
   4  -3  -4  120.19    6.00
  -4   3   4  117.49    5.90
  -4   3   4  114.09    5.70
  -4   3   4  119.99    5.60
   3  -3  -4   36.10    2.10
  -3   3   4   39.30    2.60
   2  -3  -4   20.00    1.50
   2  -3  -4   19.80    1.90
   2  -3  -4   20.90    2.10
  -2   3   4   20.50    2.20
  -2   3   4   20.40    1.80
  -2   3   4   23.60    2.20
  -2   3   4   23.10    1.90
   1  -3  -4  542.65   19.60
   1  -3  -4  553.84   20.30
   1  -3  -4  530.45   19.70
   1  -3  -4  516.35   19.60
   1  -3  -4  550.94   19.80
  -1   3   4  540.35   19.70
  -1   3   4  536.65   19.90
  -1   3   4  547.15   19.90
  -1   3   4  528.15   20.30
   0  -3  -4  188.18    8.20
   0  -3  -4  208.48    7.80
   0  -3  -4  203.98    7.60
   0  -3  -4  197.98    7.60
   0  -3  -4  198.48    7.70
   0   3   4  202.88    8.40
   0   3   4  199.88    7.80
   0   3   4  203.28    7.60
   0   3   4  198.18    7.80
   0   3   4  187.18    8.10
  -1  -3  -4    7.20    0.90
  -1  -3  -4    8.30    1.40
  -1  -3  -4    7.90    0.70
  -1  -3  -4    8.40    1.00
  -1  -3  -4    8.80    0.80
   1   3   4    9.30    1.40
   1   3   4    9.90    1.00
   1   3   4    8.90    1.50
   1   3   4    6.00    0.90
  -2  -3  -4  325.27   12.70
  -2  -3  -4  324.17   12.00
  -2  -3  -4  329.17   11.60
   2   3   4  308.47   12.70
   2   3   4  338.57   11.90
   2   3   4  288.17   12.80
  -3  -3  -4   14.60    1.00
  -3  -3  -4   18.00    1.50
  -3  -3  -4   14.90    1.10
  -3  -3  -4   13.60    2.10
   3   3   4   12.60    1.90
   3   3   4   15.70    0.80
  -4  -3  -4   12.80    1.50
  -4  -3  -4   10.00    1.30
  -4  -3  -4   13.20    1.90
   4   3   4   12.60    1.70
   4   3   4   12.40    1.30
   4   3   4   14.50    1.60
  -5  -3  -4    0.80    1.10
  -5  -3  -4    1.70    1.00
  -5  -3  -4   -0.10    1.00
  -5  -3  -4    1.00    1.10
   5   3   4    2.10    0.90
   5   3   4    1.60    1.30
  -6  -3  -4  583.64   22.10
  -6  -3  -4  593.64   22.00
  -6  -3  -4  604.34   22.20
   6   3   4  583.24   21.80
   6   3   4  562.84   22.90
   6   3   4  600.64   21.90
  -7  -3  -4    8.60    2.00
  -7  -3  -4    8.20    1.60
  -7  -3  -4    8.80    1.70
   7   3   4    6.80    1.60
   7   3   4    3.90    2.00
  -8  -3  -4    5.20    2.80
  -8  -3  -4    7.80    2.30
   8   3   4    8.40    2.30
   8   3   4    3.90    2.30
  -9  -3  -4    1.00    2.30
  -9  -3  -4   -0.80    2.60
   9   3   4    3.20    2.20
   9   3   4    4.90    2.10
 -10  -3  -4   82.69    6.40
  10   3   4   98.39    6.00
  10   3   4   91.29    5.70
   7  -4  -4    2.20    1.90
   7  -4  -4    1.50    2.70
  -7   4   4    1.30    2.80
   6  -4  -4   10.60    2.60
   6  -4  -4    5.80    2.50
   6  -4  -4   11.10    1.70
  -6   4   4   14.00    2.90
  -6   4   4   11.30    2.70
   5  -4  -4   80.29    5.10
   5  -4  -4   71.59    4.90
   5  -4  -4   76.49    3.80
  -5   4   4   78.79    4.90
  -5   4   4   76.59    5.10
  -5   4   4   78.49    5.10
   4  -4  -4  588.34   21.60
   4  -4  -4  561.24   22.60
   4  -4  -4  580.44   22.40
   4  -4  -4  582.94   21.60
  -4   4   4  606.84   22.60
  -4   4   4  579.44   22.30
  -4   4   4  615.94   22.60
   3  -4  -4   13.90    1.80
   3  -4  -4   13.20    1.40
   3  -4  -4   15.70    2.10
   3  -4  -4   12.90    1.70
  -3   4   4   14.50    1.90
  -3   4   4   10.50    1.70
  -3   4   4   12.80    2.50
  -3   4   4   12.10    1.60
   2  -4  -4    1.50    1.10
   2  -4  -4    1.70    0.70
  -2   4   4    0.40    1.10
  -2   4   4    0.00    1.30
  -2   4   4    2.60    1.00
   1  -4  -4  236.88    9.10
   1  -4  -4  238.08    9.50
   1  -4  -4  235.18    9.30
   1  -4  -4  250.07    9.40
   1  -4  -4  246.28    9.10
  -1   4   4  234.08   10.10
  -1   4   4  238.58   10.70
  -1   4   4  244.98    9.50
   0  -4  -4  315.87   11.30
   0  -4  -4  287.27   11.10
   0  -4  -4  288.27   11.10
   0  -4  -4  304.77   11.40
   0   4   4  303.07   11.90
   0   4   4  295.67   11.50
   0   4   4  296.67   12.10
  -1  -4  -4   92.69    4.10
  -1  -4  -4   85.49    3.80
  -1  -4  -4   93.79    3.80
  -1  -4  -4   91.79    4.20
  -1  -4  -4  102.49    3.90
  -1  -4  -4   97.49    3.90
   1   4   4   97.99    4.00
   1   4   4  112.79    4.90
   1   4   4   85.59    4.10
   1   4   4   90.29    4.80
  -2  -4  -4  252.07    9.20
  -2  -4  -4  239.88    9.60
  -2  -4  -4  243.48   10.30
   2   4   4  259.17    9.40
   2   4   4  251.37    9.30
   2   4   4  247.28   10.20
   2   4   4  243.98   10.40
  -3  -4  -4  232.88    9.90
  -3  -4  -4  237.08    8.80
  -3  -4  -4  229.58    9.20
   3   4   4  238.48    8.70
   3   4   4  236.78   10.00
   3   4   4  228.98    9.80
   3   4   4  241.58    9.00
  -4  -4  -4  151.38    6.20
  -4  -4  -4  143.49    6.70
  -4  -4  -4  141.59    5.90
   4   4   4  151.38    6.00
   4   4   4  136.99    6.70
  -5  -4  -4  120.69    5.40
  -5  -4  -4  108.39    5.10
   5   4   4  116.49    4.40
   5   4   4  115.09    5.00
  -6  -4  -4  697.03   26.70
  -6  -4  -4  716.33   27.00
   6   4   4  737.43   26.50
   6   4   4  719.43   27.30
  -7  -4  -4   91.99    5.20
  -7  -4  -4   97.99    5.30
  -7  -4  -4   98.49    5.30
   7   4   4  100.09    4.40
   7   4   4   97.79    4.90
   7   4   4  105.49    7.20
  -8  -4  -4   69.19    4.20
  -8  -4  -4   66.99    4.60
  -8  -4  -4   67.59    5.50
   8   4   4   65.79    4.30
   8   4   4   69.49    5.40
   8   4   4   68.69    3.80
  -9  -4  -4   22.40    3.30
  -9  -4  -4   22.00    3.60
   9   4   4   26.10    3.50
 -10  -4  -4    9.40    3.00
  10   4   4   10.30    3.00
   7  -5  -4   63.39    5.60
   7  -5  -4   50.19    5.70
  -7   5   4   52.49    5.60
   6  -5  -4   87.39    6.00
   6  -5  -4   86.19    6.00
  -6   5   4   86.39    6.00
  -6   5   4   87.39    6.10
   5  -5  -4   78.19    5.20
  -5   5   4   89.29    6.00
  -5   5   4   88.39    5.50
  -5   5   4   79.69    6.20
   4  -5  -4   60.79    3.00
   4  -5  -4   55.79    3.90
   4  -5  -4   55.79    4.20
  -4   5   4   48.80    4.50
  -4   5   4   56.39    4.10
  -4   5   4   59.89    4.10
   3  -5  -4   36.40    2.90
   3  -5  -4   39.00    3.10
   3  -5  -4   38.90    2.20
   3  -5  -4   38.50    2.90
  -3   5   4   38.80    3.20
  -3   5   4   38.00    3.70
  -3   5   4   40.40    3.00
  -3   5   4   40.70    3.20
   2  -5  -4   26.40    1.80
   2  -5  -4   29.30    2.30
   2  -5  -4   28.20    2.20
  -2   5   4   24.00    2.40
  -2   5   4   26.50    3.10
  -2   5   4   29.80    2.80
   1  -5  -4   15.40    1.80
   1  -5  -4   20.10    1.80
   1  -5  -4   14.70    1.60
  -1   5   4   18.00    2.30
  -1   5   4   17.80    2.60
  -1   5   4   18.60    2.00
   0  -5  -4  492.25   18.90
   0  -5  -4  465.35   18.80
   0  -5  -4  511.05   18.40
   0  -5  -4  544.75   18.60
   0   5   4  494.35   19.80
   0   5   4  515.05   19.10
   0   5   4  528.95   19.50
  -1  -5  -4  428.96   15.40
  -1  -5  -4  478.55   15.60
  -1  -5  -4  401.76   16.00
  -1  -5  -4  396.86   15.60
  -2  -5  -4    5.60    1.10
  -2  -5  -4    7.50    1.00
   2   5   4    6.30    1.00
  -3  -5  -4  126.79    5.60
  -3  -5  -4  127.59    6.40
  -3  -5  -4  132.49    5.20
   3   5   4  127.79    6.30
   3   5   4  121.69    5.30
  -4  -5  -4  163.28    6.70
  -4  -5  -4  168.78    8.00
  -4  -5  -4  166.18    7.10
   4   5   4  171.78    6.80
   4   5   4  167.38    7.80
  -5  -5  -4  372.16   14.60
   5   5   4  359.96   15.20
   5   5   4  384.86   14.20
  -6  -5  -4  323.37   13.20
  -6  -5  -4  332.97   13.60
   6   5   4  328.57   13.80
   6   5   4  323.87   12.70
  -7  -5  -4   31.50    3.20
  -7  -5  -4   27.40    3.50
   7   5   4   28.60    4.10
   7   5   4   26.80    2.80
  -8  -5  -4   15.90    2.70
  -8  -5  -4   12.80    2.60
   8   5   4   18.90    3.40
   8   5   4   15.80    2.40
  -9  -5  -4   57.29    5.00
  -9  -5  -4   49.80    6.10
   9   5   4   51.89    4.40
 -10  -5  -4   22.50    3.80
  10   5   4   17.50    3.30
   6  -6  -4   20.40    3.40
  -6   6   4   19.30    3.50
   5  -6  -4  116.09    6.20
   5  -6  -4  110.59    6.40
  -5   6   4  100.39    7.20
  -5   6   4   97.89    6.50
   4  -6  -4   52.19    4.30
   4  -6  -4   58.09    4.10
  -4   6   4   54.29    4.40
  -4   6   4   51.69    6.10
   3  -6  -4    2.50    1.50
   3  -6  -4   -0.50    1.60
   3  -6  -4    2.10    0.90
  -3   6   4   -0.30    1.60
  -3   6   4    1.30    2.10
  -3   6   4    4.30    1.80
   2  -6  -4   87.39    4.30
   2  -6  -4   89.29    3.80
   2  -6  -4   89.59    4.70
  -2   6   4   89.49    5.70
  -2   6   4   86.69    4.90
  -2   6   4   88.19    4.90
   1  -6  -4  142.49    6.40
   1  -6  -4  139.49    6.10
   1  -6  -4  137.39    5.70
   1  -6  -4  144.69    5.80
  -1   6   4  143.89    6.60
  -1   6   4  149.69    7.50
  -1   6   4  153.68    7.00
   0  -6  -4  172.08    7.50
   0  -6  -4  175.68    7.00
   0  -6  -4  185.98    7.10
   0  -6  -4  185.18    6.80
   0   6   4  169.08    8.10
   0   6   4  174.28    8.40
  -1  -6  -4   15.00    1.80
  -1  -6  -4   14.50    1.30
  -1  -6  -4   12.20    1.00
  -1  -6  -4   12.80    1.40
  -1  -6  -4   11.90    1.40
   1   6   4   11.70    2.30
   1   6   4   11.20    2.10
  -2  -6  -4  563.74   20.80
   2   6   4  552.14   21.80
   2   6   4  553.04   20.30
   2   6   4  547.85   21.50
  -3  -6  -4  204.58    8.60
  -3  -6  -4  202.28    9.50
   3   6   4  209.88    9.70
   3   6   4  213.88    9.50
   3   6   4  212.98    8.20
  -4  -6  -4  583.24   22.30
  -4  -6  -4  604.54   23.20
   4   6   4  595.84   23.40
   4   6   4  587.44   23.10
   4   6   4  590.24   21.80
  -5  -6  -4   61.09    4.60
  -5  -6  -4   49.20    3.50
   5   6   4   52.59    4.50
   5   6   4   44.30    4.20
   5   6   4   57.79    3.10
  -6  -6  -4  184.38    8.80
  -6  -6  -4  177.88    8.00
  -6  -6  -4  174.08    8.10
   6   6   4  184.28    8.50
   6   6   4  183.28    9.00
  -7  -6  -4  133.79    7.10
  -7  -6  -4  144.89    7.60
  -7  -6  -4  142.39    7.30
   7   6   4  143.89    6.60
   7   6   4  143.09    8.10
  -8  -6  -4   38.30    4.40
  -8  -6  -4   26.60    3.50
  -8  -6  -4   32.40    4.20
   8   6   4   25.90    3.40
  -9  -6  -4    1.20    2.70
  -9  -6  -4    3.90    3.30
   9   6   4    2.90    2.40
   5  -7  -4    6.40    2.30
  -5   7   4   12.40    3.20
  -5   7   4   15.80    4.20
   4  -7  -4  188.48    8.80
   4  -7  -4  194.58    8.60
   4  -7  -4  181.28    8.80
  -4   7   4  192.78    9.20
  -4   7   4  180.08   10.30
   3  -7  -4    2.00    1.70
   3  -7  -4   -0.10    1.60
  -3   7   4    8.30    3.20
  -3   7   4    2.30    2.10
   2  -7  -4    2.90    1.60
   2  -7  -4    2.60    1.30
  -2   7   4   -0.40    1.90
  -2   7   4   -2.60    2.40
  -2   7   4    2.90    1.80
   1  -7  -4    8.10    1.80
   1  -7  -4    9.50    1.40
  -1   7   4   14.00    2.70
  -1   7   4    7.10    1.80
   0  -7  -4  400.86   15.10
   0  -7  -4  387.36   15.00
   0  -7  -4  398.66   15.70
   0   7   4  422.16   16.40
   0   7   4  406.66   16.90
  -1  -7  -4   48.20    3.40
  -1  -7  -4   55.99    2.80
   1   7   4   57.69    4.70
   1   7   4   48.30    4.30
  -2  -7  -4   11.30    1.50
  -2  -7  -4   12.00    1.80
   2   7   4   12.40    1.50
   2   7   4   14.80    2.70
   2   7   4   13.70    2.70
  -3  -7  -4    3.20    1.10
  -3  -7  -4    3.40    1.40
   3   7   4    5.70    2.30
   3   7   4    3.30    1.20
   3   7   4    1.50    2.00
  -4  -7  -4   12.30    2.00
  -4  -7  -4    8.90    2.40
   4   7   4   10.90    2.60
   4   7   4    7.50    2.60
   4   7   4   13.30    1.60
  -5  -7  -4  150.08    7.00
   5   7   4  148.59    6.40
   5   7   4  144.99    8.20
   5   7   4  140.79    8.10
  -6  -7  -4   16.90    2.50
  -6  -7  -4   14.40    3.10
   6   7   4   15.70    3.50
   6   7   4   20.50    2.70
  -7  -7  -4    3.10    2.20
  -7  -7  -4    2.20    3.60
  -8  -7  -4   36.10    5.20
  -8  -7  -4   26.20    3.60
  -8  -7  -4   27.70    5.80
   8   7   4   26.90    4.50
   8   7   4   25.80    4.50
  -9  -7  -4    6.20    3.00
   9   7   4    0.80    2.50
   9   7   4   -1.40    4.00
   4  -8  -4    3.00    2.30
  -4   8   4    7.40    4.00
  -4   8   4    5.40    2.80
   3  -8  -4   66.09    4.30
   3  -8  -4   70.29    5.00
   3  -8  -4   65.59    4.30
  -3   8   4   60.09    5.20
  -3   8   4   75.69    7.10
   2  -8  -4    6.60    2.10
   2  -8  -4    7.80    1.70
   2  -8  -4   10.40    1.80
  -2   8   4    6.00    3.30
  -2   8   4    7.10    2.30
  -2   8   4   10.60    2.90
   1  -8  -4   96.99    5.40
  -1   8   4   89.89    5.60
  -1   8   4   94.49    7.10
   0  -8  -4  134.99    5.30
   0  -8  -4  139.19    5.80
   0  -8  -4  114.59    7.40
   0   8   4  119.59   11.00
  -1  -8  -4  128.29    6.40
  -1  -8  -4  131.09    5.80
   1   8   4  140.69    7.60
   1   8   4  131.89    8.10
  -2  -8  -4   98.39    5.50
   2   8   4  104.49    7.00
   2   8   4  104.09    6.60
  -3  -8  -4    6.40    1.90
   3   8   4    3.50    2.60
   3   8   4    4.90    2.90
   3   8   4    3.90    1.40
  -4  -8  -4   47.70    4.70
  -4  -8  -4   59.59    5.50
   4   8   4   55.09    3.40
   4   8   4   67.69    6.00
   4   8   4   52.59    5.30
  -5  -8  -4   46.50    4.00
  -5  -8  -4   39.10    3.50
  -5  -8  -4   42.10    5.60
   5   8   4   46.80    5.40
   5   8   4   37.90    5.70
  -6  -8  -4   28.40    3.80
  -6  -8  -4   31.60    4.50
  -6  -8  -4   39.80    4.10
   6   8   4   37.90    6.30
   6   8   4   33.70    4.70
  -7  -8  -4    3.50    2.90
  -7  -8  -4   -2.10    2.50
   7   8   4    2.20    2.20
   7   8   4    1.00    3.40
  -8  -8  -4   45.60    5.20
   8   8   4   57.59    7.20
   3  -9  -4    6.10    2.70
   3  -9  -4    8.20    2.90
  -3   9   4    4.20    3.10
  -3   9   4    8.10    4.50
   2  -9  -4   28.20    3.10
   2  -9  -4   22.50    3.30
  -2   9   4   27.40    5.00
   1  -9  -4   45.40    3.20
   1  -9  -4   29.80    3.90
  -1   9   4   44.70    5.50
  -1   9   4   36.90    5.30
   0  -9  -4   19.90    2.80
   0  -9  -4   21.40    2.50
   0   9   4   20.40    3.80
   0   9   4   25.40    4.30
  -1  -9  -4   54.89    3.30
  -1  -9  -4   43.70    4.10
   1   9   4   49.60    6.80
   1   9   4   51.59    6.50
  -2  -9  -4    2.30    2.00
   2   9   4    8.00    3.60
   2   9   4    6.20    3.20
  -3  -9  -4  321.67   12.70
  -3  -9  -4  304.27   13.10
   3   9   4  314.87   14.90
  -4  -9  -4   60.19    5.40
  -4  -9  -4   82.39    7.00
  -4  -9  -4   75.79    5.10
   4   9   4   62.59    7.00
   4   9   4   78.19    6.70
  -5  -9  -4   25.70    3.10
  -5  -9  -4   23.90    3.30
  -5  -9  -4   30.40    4.70
   5   9   4   24.90    4.30
  -6  -9  -4    2.00    2.50
  -6  -9  -4    0.20    2.50
   6   9   4   -8.00    3.40
  -7  -9  -4    4.40    2.80
  -7  -9  -4    6.70    4.40
   7   9   4    6.50    2.70
   1 -10  -4   13.80    3.10
   1 -10  -4   14.60    2.30
  -1  10   4   23.40    5.20
   0 -10  -4    0.30    2.20
   0  10   4    8.30    3.70
   0  10   4    6.90    4.40
  -1 -10  -4    1.80    2.90
   1  10   4    7.60    3.90
   1  10   4    9.10    4.40
   2  10   4   29.30    4.70
  -3 -10  -4   52.29    4.10
  -3 -10  -4   55.79    5.00
   3  10   4   59.49    6.80
  -4 -10  -4   10.40    2.80
   4  10   4   11.70    4.10
   4  10   4    6.90    4.60
  -5 -10  -4   20.50    3.30
  -5 -10  -4   19.10    5.00
   5  10   4   10.50    4.90
  -6 -10  -4    1.00    4.60
  -6 -10  -4    3.10    3.10
   6  10   4    5.40    5.40
   6  10   4    5.20    4.70
   2  10  -5   49.50    6.30
  -2 -10   5   37.90    4.90
   1  10  -5   24.30    7.90
  -1 -10   5   22.60    3.40
  -1 -10   5   25.50    4.30
   0 -10   5    5.70    3.00
   0 -10   5    6.10    3.00
   5   9  -5    7.20    3.50
  -5  -9   5    7.90    3.80
   4   9  -5    6.80    3.10
  -4  -9   5    3.70    3.10
   3   9  -5    2.80    2.70
   2   9  -5   -0.70    2.60
  -2  -9   5    2.50    2.40
  -2  -9   5    1.10    2.30
   1   9  -5   41.40    5.80
  -1  -9   5   43.20    4.20
  -1  -9   5   40.60    5.50
  -1  -9   5   36.90    3.90
   0   9  -5   20.90    3.50
   0   9  -5   24.50    4.10
   0  -9   5   20.60    3.90
   0  -9   5   29.90    3.40
  -1   9  -5   -2.60    3.80
   1  -9   5    0.20    2.50
   1  -9   5    4.50    2.50
  -2   9  -5   14.50    4.10
   2  -9   5    6.10    3.30
   2  -9   5   11.30    2.30
  -3   9  -5   -1.30    3.70
   3  -9   5    0.10    2.20
   3  -9   5    0.40    2.40
   6   8  -5    3.70    2.60
   5   8  -5   78.49    6.00
  -5  -8   5   77.69    6.20
   4   8  -5    0.50    2.10
  -4  -8   5    1.70    3.20
  -4  -8   5    5.00    2.60
   3   8  -5    5.60    2.30
  -3  -8   5    4.60    2.30
  -3  -8   5    5.20    2.00
   2   8  -5   47.30    4.80
  -2  -8   5   44.20    3.80
  -2  -8   5   38.10    3.70
  -1  -8   5    7.30    2.30
  -1  -8   5    5.70    2.00
   0   8  -5    8.20    2.80
   0   8  -5    3.20    2.20
   0  -8   5    7.60    1.90
   0  -8   5   11.10    2.30
  -1   8  -5   25.60    3.30
  -1   8  -5   27.30    3.80
   1  -8   5   28.50    3.00
   1  -8   5   26.00    2.90
  -2   8  -5   33.90    4.10
  -2   8  -5   34.80    4.20
  -2   8  -5   28.50    4.00
   2  -8   5   41.20    3.20
   2  -8   5   31.60    4.40
   2  -8   5   39.40    3.50
  -3   8  -5  246.38   12.10
   3  -8   5  248.68   11.00
   3  -8   5  258.97   10.50
   4  -8   5    7.50    2.40
   4  -8   5   10.40    2.60
  -5   8  -5  131.89    9.10
   5  -8   5  133.49    9.60
   5  -8   5  136.89    6.80
   7   7  -5    6.80    3.00
   6   7  -5   24.40    2.80
  -6  -7   5   22.10    4.10
  -6  -7   5   29.00    4.00
   5   7  -5   44.40    4.00
  -5  -7   5   39.50    4.60
   4   7  -5   31.70    3.60
   4   7  -5   29.10    3.60
  -4  -7   5   31.40    3.80
  -4  -7   5   35.90    4.40
  -4  -7   5   39.60    3.30
   3   7  -5  429.46   15.10
  -3  -7   5  377.36   15.30
   2   7  -5   40.60    3.40
   2   7  -5   34.20    2.40
  -2  -7   5   38.10    3.30
   1   7  -5   12.80    2.10
   1   7  -5   16.30    2.50
  -1  -7   5   14.10    2.00
  -1  -7   5   11.20    1.80
   0   7  -5  137.59    7.20
   0   7  -5  160.08    7.90
   0  -7   5  183.18    9.40
   0  -7   5  161.78    7.00
   0  -7   5  176.18    7.10
  -1   7  -5    0.30    2.00
   1  -7   5    2.20    1.30
   1  -7   5    1.80    1.60
  -2   7  -5   21.60    2.90
  -2   7  -5   24.50    3.80
   2  -7   5   20.50    2.50
   2  -7   5   21.10    3.30
  -3   7  -5   29.20    3.90
  -3   7  -5   29.40    4.10
   3  -7   5   29.70    2.90
  -4   7  -5   13.00    2.80
  -4   7  -5   12.70    3.00
   4  -7   5    9.70    2.90
   4  -7   5   15.00    2.40
  -5   7  -5    7.70    3.40
  -5   7  -5    6.80    3.00
   5  -7   5    7.10    2.20
   5  -7   5    6.30    2.30
  -6   7  -5   14.30    4.40
  -6   7  -5   17.50    4.00
   6  -7   5   20.70    3.00
   6  -7   5   15.60    2.90
   8   6  -5   81.99    7.40
  -8  -6   5   70.39    7.60
   7   6  -5   32.10    4.50
   7   6  -5   32.20    4.30
   7   6  -5   35.80    3.90
  -7  -6   5   38.90    4.90
  -7  -6   5   34.20    4.70
   6   6  -5   14.60    2.70
  -6  -6   5   16.00    3.20
  -6  -6   5   13.10    3.40
   5   6  -5    2.70    2.60
   5   6  -5    3.30    1.80
  -5  -6   5    0.70    2.30
  -5  -6   5    1.60    1.60
   4   6  -5  179.38    7.30
   4   6  -5  186.68    7.90
  -4  -6   5  151.48    7.20
  -4  -6   5  183.08    8.30
   3   6  -5   85.39    4.50
   3   6  -5   74.79    3.90
  -3  -6   5   82.69    4.00
  -3  -6   5   86.99    4.70
   2   6  -5   44.60    2.60
   2   6  -5   44.50    3.00
  -2  -6   5   48.30    3.60
  -2  -6   5   49.30    3.20
  -2  -6   5   42.10    2.80
   1   6  -5   78.49    4.60
   1   6  -5   79.79    4.20
  -1  -6   5   78.69    4.00
  -1  -6   5   88.39    4.20
  -1  -6   5   85.99    4.50
   0   6  -5   12.90    1.90
   0  -6   5   16.70    2.30
   0  -6   5   14.90    1.90
   0  -6   5   14.80    2.00
  -1   6  -5   83.99    4.90
  -1   6  -5   93.09    4.30
  -1   6  -5   85.99    4.50
   1  -6   5   89.09    4.30
   1  -6   5   83.69    4.40
   1  -6   5   90.19    4.20
  -2   6  -5    7.10    1.90
  -2   6  -5    9.80    1.50
  -2   6  -5    8.70    1.70
   2  -6   5    8.10    1.40
   2  -6   5    7.40    1.50
  -3   6  -5    0.30    1.60
  -3   6  -5    3.60    2.00
  -3   6  -5    0.70    1.30
   3  -6   5    1.90    1.30
   3  -6   5    0.00    1.20
  -4   6  -5  210.38    9.40
  -4   6  -5  213.08   10.50
   4  -6   5  205.88    8.60
   4  -6   5  208.48    9.70
  -5   6  -5   14.30    2.90
  -5   6  -5   13.30    3.00
   5  -6   5   16.10    2.20
   5  -6   5   17.10    2.30
  -6   6  -5    5.60    2.80
   6  -6   5   -3.20    1.80
   6  -6   5   -1.90    1.90
   7  -6   5    5.30    2.60
   7  -6   5   11.90    3.80
   8   5  -5    9.70    2.60
   7   5  -5    6.60    3.20
   7   5  -5    3.80    3.30
   7   5  -5    1.00    1.90
  -7  -5   5    1.00    3.00
  -7  -5   5   -0.10    3.50
   6   5  -5   34.10    4.20
   6   5  -5   35.30    3.20
  -6  -5   5   34.50    4.50
  -6  -5   5   36.40    3.10
   5   5  -5   81.19    4.50
  -5  -5   5   80.49    4.20
  -5  -5   5   81.19    5.40
   4   5  -5   16.50    2.10
   4   5  -5   14.90    1.90
   4   5  -5   13.60    1.80
  -4  -5   5   22.10    2.80
  -4  -5   5   18.90    2.00
  -4  -5   5   14.50    2.40
   3   5  -5   40.00    2.90
   3   5  -5   41.30    2.50
   3   5  -5   40.20    2.60
  -3  -5   5   39.10    2.60
  -3  -5   5   37.40    3.00
  -3  -5   5   29.60    3.30
   2   5  -5   31.80    2.30
   2   5  -5   30.90    2.00
  -2  -5   5   30.20    2.40
  -2  -5   5   29.80    2.90
   1   5  -5  254.47    9.80
   1   5  -5  243.68    9.80
  -1  -5   5  239.38    9.80
  -1  -5   5  267.87   10.00
   0   5  -5   34.00    3.50
   0   5  -5   31.60    2.30
   0   5  -5   33.00    2.20
   0   5  -5   34.20    2.60
   0  -5   5   35.90    2.50
   0  -5   5   34.50    2.20
  -1   5  -5  155.48    5.70
  -1   5  -5  128.99    5.80
  -1   5  -5  134.59    6.10
  -1   5  -5  135.99    5.30
   1  -5   5  135.29    5.30
   1  -5   5  116.59    5.70
   1  -5   5  131.69    5.50
  -2   5  -5   65.59    3.90
  -2   5  -5   60.89    3.20
   2  -5   5   70.69    3.50
   2  -5   5   64.09    3.20
  -3   5  -5  247.78    9.20
  -3   5  -5  241.78   10.00
  -3   5  -5  238.28    9.80
   3  -5   5  243.08    9.50
   3  -5   5  227.68    9.30
   3  -5   5  229.68    9.00
  -4   5  -5   85.99    4.80
  -4   5  -5   78.69    4.70
   4  -5   5   77.19    3.80
   4  -5   5   79.59    4.20
  -5   5  -5  517.95   19.90
  -5   5  -5  508.85   19.80
   5  -5   5  489.65   18.70
  -6   5  -5   65.39    5.00
  -6   5  -5   67.29    5.20
   6  -5   5   60.79    5.50
   6  -5   5   74.59    4.30
  -7   5  -5   13.60    3.10
   7  -5   5   17.30    2.60
   7  -5   5   17.00    2.60
  -8   5  -5   -1.60    3.40
   8  -5   5    1.70    2.60
   8  -5   5    3.00    2.80
   8   4  -5    1.10    2.10
   8   4  -5    1.80    2.40
   7   4  -5  143.29    7.30
   7   4  -5  144.29   10.00
  -7  -4   5  136.89    7.30
  -7  -4   5  127.59    8.00
   6   4  -5   44.50    3.10
   6   4  -5   34.30    4.50
  -6  -4   5   41.90    4.80
  -6  -4   5   36.70    3.10
   5   4  -5  478.75   17.70
   5   4  -5  486.05   17.50
  -5  -4   5  404.56   17.20
  -5  -4   5  484.95   18.50
   4   4  -5    2.60    1.10
   4   4  -5    3.60    1.10
  -4  -4   5    2.30    1.60
  -4  -4   5    1.90    1.80
   3   4  -5   86.99    4.00
   3   4  -5   87.79    3.80
   3   4  -5   88.89    4.10
   3   4  -5   86.29    4.00
  -3  -4   5   86.39    4.80
  -3  -4   5   84.29    3.80
  -3  -4   5   92.89    4.60
   2   4  -5   10.60    1.30
   2   4  -5   13.10    1.50
   2   4  -5   10.60    1.30
  -2  -4   5    9.40    1.60
  -2  -4   5    8.90    1.00
  -2  -4   5   11.60    1.90
   1   4  -5    1.30    0.80
   1   4  -5    1.30    0.90
  -1  -4   5    2.00    0.70
  -1  -4   5    0.10    1.00
   0   4  -5   71.49    3.30
   0   4  -5   74.49    3.60
   0   4  -5   70.59    3.20
   0  -4   5   65.89    4.00
   0  -4   5   70.09    3.30
   0  -4   5   73.69    3.30
  -1   4  -5  176.08    7.00
  -1   4  -5  173.38    7.10
   1  -4   5  180.18    7.10
   1  -4   5  182.28    6.90
  -2   4  -5  752.72   30.80
  -2   4  -5  872.81   31.00
  -2   4  -5  910.61   31.20
   2  -4   5  860.01   30.90
  -3   4  -5  188.18    7.30
  -3   4  -5  159.08    7.00
  -3   4  -5  158.98    7.40
   3  -4   5  165.88    6.70
   3  -4   5  166.88    6.90
  -4   4  -5  158.48    6.70
  -4   4  -5  152.68    6.70
   4  -4   5  156.98    6.30
   4  -4   5  126.79    6.20
   4  -4   5  144.09    6.10
  -5   4  -5   75.69    4.50
  -5   4  -5   81.29    4.70
   5  -4   5   79.49    4.10
   5  -4   5   78.79    3.80
  -6   4  -5  185.28    8.60
   6  -4   5  194.38    8.10
   6  -4   5  179.48    7.90
   6  -4   5  175.18    7.60
  -7   4  -5   28.00    4.90
  -7   4  -5   20.30    3.20
   7  -4   5   25.10    3.90
   7  -4   5   33.50    4.10
   7  -4   5   21.10    3.10
  -8   4  -5   66.19    5.80
  -8   4  -5   63.69    5.50
   8  -4   5   53.39    4.80
   8  -4   5   64.39    5.60
   9   3  -5    4.40    2.70
  -9  -3   5    3.10    4.20
   8   3  -5   -1.40    2.90
   8   3  -5    3.00    2.00
  -8  -3   5    0.90    3.30
  -8  -3   5    5.90    3.30
   7   3  -5    5.20    1.80
   7   3  -5    3.70    1.70
   7   3  -5    2.20    3.50
  -7  -3   5    1.40    2.70
  -7  -3   5    1.00    1.90
  -7  -3   5   10.20    4.40
   6   3  -5   73.19    4.10
   6   3  -5   80.39    5.30
   6   3  -5   73.89    4.00
  -6  -3   5   72.29    5.40
  -6  -3   5   72.49    4.80
  -6  -3   5   62.09    5.10
   5   3  -5  195.88    8.00
   5   3  -5  198.98    8.10
  -5  -3   5  191.08    8.90
  -5  -3   5  204.28    7.90
  -5  -3   5  189.38    9.10
   4   3  -5   90.99    3.80
   4   3  -5   98.09    4.20
   4   3  -5   92.09    4.30
  -4  -3   5   82.49    4.80
  -4  -3   5   91.89    5.10
   3   3  -5  555.14   20.50
   3   3  -5  530.15   20.40
   3   3  -5  567.24   20.50
  -3  -3   5  570.04   20.10
  -3  -3   5  552.34   21.20
  -3  -3   5  556.94   20.90
   2   3  -5   47.10    2.20
   2   3  -5   42.30    2.40
   2   3  -5   47.90    2.50
  -2  -3   5   50.69    3.10
  -2  -3   5   47.50    2.10
  -2  -3   5   46.90    2.50
  -2  -3   5   50.89    3.00
   1   3  -5   12.70    1.20
   1   3  -5   15.20    1.30
   1   3  -5   14.90    1.30
  -1  -3   5   16.10    1.00
  -1  -3   5   12.80    1.70
  -1  -3   5   13.20    1.40
  -1  -3   5   17.60    1.50
   0   3  -5  229.58    9.30
   0   3  -5  253.37    9.30
   0   3  -5  250.67    9.30
   0   3  -5  237.08    8.90
   0   3  -5  235.08    9.10
   0  -3   5  240.18    9.20
   0  -3   5  247.18    8.90
   0  -3   5  236.78    9.40
  -1   3  -5  410.16   15.70
  -1   3  -5  379.36   15.80
   1  -3   5  458.55   15.40
   1  -3   5  428.36   15.70
   1  -3   5  419.96   15.50
  -2   3  -5  182.98    7.50
  -2   3  -5  195.88    7.70
  -2   3  -5  198.28    7.90
   2  -3   5  203.18    7.50
   2  -3   5  189.18    7.60
  -3   3  -5   36.30    2.60
  -3   3  -5   40.70    2.50
  -3   3  -5   41.10    2.50
   3  -3   5   38.80    2.10
   3  -3   5   37.80    2.30
   3  -3   5   41.80    2.20
  -4   3  -5   19.40    1.20
  -4   3  -5   18.30    1.90
  -4   3  -5   19.20    2.00
   4  -3   5   18.80    1.70
   4  -3   5   17.50    1.60
  -5   3  -5   61.49    3.80
  -5   3  -5   59.99    3.60
   5  -3   5   61.59    3.20
   5  -3   5   60.99    3.30
   5  -3   5   62.59    3.30
  -6   3  -5   55.19    4.00
   6  -3   5   56.89    3.40
   6  -3   5   49.00    3.20
  -7   3  -5   30.20    3.90
  -7   3  -5   23.90    3.30
   7  -3   5   31.90    3.40
   7  -3   5   34.10    3.00
   7  -3   5   33.10    3.10
  -8   3  -5  250.87   11.20
  -8   3  -5  233.98   11.30
   8  -3   5  238.58   10.20
   8  -3   5  253.07   10.80
   8  -3   5  237.68   10.40
  -9   3  -5   58.69    6.40
   9  -3   5   74.09    5.20
   9   2  -5   18.40    3.00
  -9  -2   5   12.80    4.30
   8   2  -5    6.90    2.10
  -8  -2   5    5.20    3.50
  -8  -2   5    8.30    3.70
  -8  -2   5    2.10    2.50
   7   2  -5    2.70    1.50
   7   2  -5    0.60    2.50
   7   2  -5    4.50    1.70
  -7  -2   5    4.90    2.80
  -7  -2   5    6.60    2.90
   6   2  -5    7.60    2.50
   6   2  -5    7.80    1.60
  -6  -2   5    6.80    2.40
  -6  -2   5    8.90    2.50
   5   2  -5  139.29    5.90
   5   2  -5  134.99    5.70
  -5  -2   5  127.09    6.90
  -5  -2   5  139.69    5.80
  -5  -2   5  120.09    6.50
   4   2  -5   12.50    1.50
   4   2  -5   14.30    1.70
  -4  -2   5   14.30    2.00
  -4  -2   5   15.10    2.20
   3   2  -5   86.99    4.00
   3   2  -5   90.39    3.90
   3   2  -5   89.69    3.50
  -3  -2   5   85.99    3.60
  -3  -2   5   88.89    4.70
   2   2  -5   33.50    1.70
   2   2  -5   41.60    2.10
   2   2  -5   37.20    2.00
  -2  -2   5   32.10    2.30
  -2  -2   5   32.60    2.60
   1   2  -5    5.80    0.90
   1   2  -5    3.20    0.80
   1   2  -5    5.60    0.80
  -1  -2   5    3.30    0.90
  -1  -2   5    3.70    0.80
  -1  -2   5    3.40    1.10
  -1  -2   5    4.80    0.90
   0   2  -5 2215.58   78.29
   0   2  -5 2134.29   77.99
   0   2  -5 2165.08   78.29
   0   2  -5 2215.28   77.89
   0  -2   5 2261.47   78.29
  -1   2  -5   48.00    2.10
  -1   2  -5   41.60    2.20
  -1   2  -5   46.40    2.10
   1  -2   5   49.50    2.10
   1  -2   5   49.10    2.30
   1  -2   5   43.30    2.40
  -2   2  -5   12.80    1.20
  -2   2  -5   14.20    1.30
  -2   2  -5   17.30    1.40
  -2   2  -5   10.60    1.60
  -2   2  -5   12.20    1.20
   2  -2   5   12.30    1.20
   2  -2   5   14.30    1.30
  -3   2  -5    3.60    0.80
  -3   2  -5    3.70    1.00
   3  -2   5    3.80    0.80
   3  -2   5    4.10    0.80
   3  -2   5    4.40    1.00
  -4   2  -5  138.29    5.10
  -4   2  -5  127.99    5.60
  -4   2  -5  127.49    5.80
   4  -2   5  138.99    5.50
   4  -2   5  130.59    5.50
   4  -2   5  133.09    5.40
  -5   2  -5   25.50    2.40
  -5   2  -5   22.90    2.10
  -5   2  -5   23.40    1.80
   5  -2   5   29.10    2.20
   5  -2   5   24.10    2.00
   5  -2   5   23.20    2.00
  -6   2  -5  115.99    5.90
   6  -2   5  123.89    5.60
   6  -2   5  121.49    5.40
   6  -2   5  118.59    5.40
  -7   2  -5   71.49    4.80
  -7   2  -5   60.99    4.60
  -7   2  -5   68.19    4.70
   7  -2   5   65.89    3.90
   7  -2   5   76.09    4.20
  -8   2  -5  246.48   10.90
  -8   2  -5  232.08   11.10
  -8   2  -5  282.07   12.90
   8  -2   5  232.58   10.30
   8  -2   5  243.68   10.70
   8  -2   5  255.37   10.60
  -9   2  -5  345.47   14.60
  -9   2  -5  330.57   14.60
   9  -2   5  329.07   13.80
   9  -2   5  331.37   13.70
   9   1  -5    2.60    3.70
   9   1  -5    2.40    2.50
  -9  -1   5   -5.50    4.00
  -9  -1   5    4.80    3.80
   8   1  -5  174.68    8.20
   8   1  -5  184.18    9.80
  -8  -1   5  174.08    9.80
  -8  -1   5  181.68    8.60
   7   1  -5   15.90    2.10
   7   1  -5   14.10    3.10
  -7  -1   5   15.90    3.40
  -7  -1   5   17.90    3.30
   6   1  -5  615.44   24.10
   6   1  -5  606.84   22.70
   6   1  -5  611.84   23.00
  -6  -1   5  612.24   24.30
  -6  -1   5  634.94   24.20
  -6  -1   5  615.64   23.00
   5   1  -5  116.09    6.40
   5   1  -5  118.39    5.40
   5   1  -5  118.89    5.10
  -5  -1   5  122.09    6.50
  -5  -1   5  128.29    6.40
  -5  -1   5  128.09    5.40
   4   1  -5   82.99    3.50
   4   1  -5   75.59    3.70
  -4  -1   5   72.69    4.60
  -4  -1   5   76.99    4.30
   3   1  -5  273.87   10.60
   3   1  -5  264.97   10.40
   3   1  -5  281.07   10.80
   3   1  -5  286.17   10.00
  -3  -1   5  273.27   11.10
  -3  -1   5  283.37   10.90
  -3  -1   5  268.97   10.20
  -3  -1   5  275.37   11.30
   2   1  -5  462.25   15.40
   2   1  -5  414.86   15.70
   2   1  -5  401.36   15.60
  -2  -1   5  410.56   15.80
  -2  -1   5  427.06   16.30
  -2  -1   5  429.06   16.30
   1   1  -5  163.78    6.20
   1   1  -5  148.09    6.00
  -1  -1   5  158.98    6.30
  -1  -1   5  153.78    6.60
   0   1  -5  649.93   24.50
   0   1  -5  678.03   24.50
   0  -1   5  639.84   24.60
   0  -1   5  670.63   24.50
   0  -1   5  674.53   24.70
   0  -1   5  735.13   24.40
  -1   1  -5  582.44   21.60
  -1   1  -5  601.74   21.30
  -1   1  -5  637.84   21.70
  -1   1  -5  564.54   22.10
  -1   1  -5  613.84   22.00
  -1   1  -5  605.74   21.30
   1  -1   5  591.14   21.60
   1  -1   5  540.55   21.80
   1  -1   5  601.14   21.90
   1  -1   5  609.74   21.30
  -2   1  -5  271.17    9.80
  -2   1  -5  268.37   10.00
  -2   1  -5  249.97   10.50
  -2   1  -5  258.27   10.30
   2  -1   5  290.67    9.70
   2  -1   5  252.57   10.20
   2  -1   5  276.07   10.10
   2  -1   5  265.47   10.00
  -3   1  -5  382.46   13.90
  -3   1  -5  372.66   14.00
   3  -1   5  381.26   13.50
   3  -1   5  363.56   13.80
   3  -1   5  359.96   13.80
  -4   1  -5    6.50    1.10
  -4   1  -5    8.20    1.20
  -4   1  -5    8.20    1.10
   4  -1   5    6.30    0.90
   4  -1   5    5.90    1.00
   4  -1   5    5.90    1.30
  -5   1  -5   90.09    4.20
  -5   1  -5   86.39    4.40
  -5   1  -5   86.59    4.10
  -5   1  -5   89.79    3.80
   5  -1   5   94.29    4.10
   5  -1   5   82.79    4.00
   5  -1   5   92.29    4.20
  -6   1  -5   14.20    1.40
  -6   1  -5   18.50    1.90
  -6   1  -5   17.50    2.30
   6  -1   5   13.90    1.90
   6  -1   5   18.10    1.90
  -7   1  -5   40.50    3.40
  -7   1  -5   41.60    3.60
  -7   1  -5   37.60    2.80
   7  -1   5   44.60    3.00
   7  -1   5   35.60    3.50
  -8   1  -5   42.80    4.10
   8  -1   5   43.90    3.50
   8  -1   5   40.70    3.60
  -9   1  -5   61.49    5.80
  -9   1  -5   81.49    6.00
  -9   1  -5   82.99    5.90
   9  -1   5   85.29    5.90
   9  -1   5   72.49    4.90
 -10   1  -5   66.89    6.50
  10  -1   5   55.09    6.90
  10  -1   5   70.29    6.60
   9   0  -5    6.20    2.60
   9   0  -5    9.40    4.00
  -9   0   5   -1.00    3.20
  -9   0   5    9.30    4.20
   8   0  -5  236.28   11.70
   8   0  -5  222.28    9.90
  -8   0   5  229.68   11.60
   7   0  -5    5.40    1.60
   7   0  -5    4.30    2.70
   7   0  -5    7.80    1.80
  -7   0   5    7.70    2.80
  -7   0   5    8.50    2.80
   6   0  -5    2.40    1.30
   6   0  -5    2.80    1.00
   6   0  -5    1.80    2.10
  -6   0   5   -0.30    2.20
  -6   0   5    5.10    1.70
  -6   0   5    4.40    2.20
   5   0  -5  260.37   10.30
   5   0  -5  261.97   11.30
  -5   0   5  255.87   11.40
  -5   0   5  257.67   11.20
  -5   0   5  268.47   10.40
   4   0  -5  284.37   10.70
   4   0  -5  287.27   11.00
  -4   0   5  277.87   11.60
  -4   0   5  289.07   10.90
  -4   0   5  274.27   11.80
   3   0  -5    7.80    1.10
   3   0  -5   11.00    1.00
   3   0  -5   12.20    1.10
   3   0  -5   13.00    1.50
  -3   0   5    7.90    1.40
  -3   0   5   10.10    1.20
  -3   0   5   10.80    1.70
   2   0  -5   72.09    3.30
   2   0  -5   78.99    3.50
  -2   0   5   78.99    3.20
  -2   0   5   75.69    3.60
  -2   0   5   79.99    3.80
  -2   0   5   77.39    4.00
   1   0  -5   81.09    3.70
   1   0  -5   83.99    3.10
   1   0  -5   83.79    3.10
   1   0  -5   75.19    3.50
   1   0  -5   83.59    3.60
   1   0  -5   75.49    3.60
  -1   0   5   85.49    3.70
  -1   0   5   84.89    3.10
  -1   0   5   87.49    3.70
  -1   0   5   80.89    3.90
   0   0  -5    6.60    0.90
   0   0  -5    6.40    0.70
   0   0  -5    6.50    0.60
   0   0   5    3.40    1.50
   0   0   5    6.70    0.80
   0   0   5    8.00    1.10
   0   0   5    6.50    0.90
  -1   0  -5  659.83   24.00
  -1   0  -5  668.83   24.20
  -1   0  -5  692.53   23.60
  -1   0  -5  668.73   24.40
  -1   0  -5  646.84   23.90
  -1   0  -5  675.13   24.40
  -1   0  -5  681.53   23.80
   1   0   5  605.94   23.60
   1   0   5  686.23   24.10
   1   0   5  642.74   24.40
   1   0   5  674.63   24.10
   1   0   5  649.83   24.30
  -2   0  -5 2518.15   97.99
  -2   0  -5 2903.01   98.39
  -2   0  -5 2733.93   98.09
   2   0   5 2829.42   98.09
   2   0   5 2819.32   98.19
  -3   0  -5  854.41   32.20
  -3   0  -5  874.11   32.00
  -3   0  -5  865.51   32.10
   3   0   5  911.41   31.40
   3   0   5  900.01   31.70
  -4   0  -5    0.90    0.60
  -4   0  -5   -0.80    1.20
  -4   0  -5    0.20    0.60
  -4   0  -5    0.50    0.70
   4   0   5    1.40    0.70
   4   0   5    1.00    0.70
   4   0   5    0.80    0.60
  -5   0  -5    8.10    1.40
  -5   0  -5    9.10    1.30
  -5   0  -5    9.60    1.30
   5   0   5    8.80    1.20
   5   0   5   10.00    1.50
   5   0   5   12.90    1.50
  -6   0  -5    1.20    1.20
  -6   0  -5    2.30    1.20
   6   0   5    0.80    1.00
   6   0   5    1.30    1.10
  -7   0  -5    7.90    1.80
  -7   0  -5    4.70    1.60
  -7   0  -5    8.20    1.50
   7   0   5    4.80    1.40
   7   0   5    7.20    1.50
  -8   0  -5   -0.20    1.90
  -8   0  -5   -0.20    1.80
  -8   0  -5    0.60    1.30
   8   0   5   -0.10    1.60
   8   0   5    1.20    1.50
  -9   0  -5  141.19    7.60
  -9   0  -5  128.99    8.20
  -9   0  -5  125.59    7.40
   9   0   5  133.19    7.40
   9   0   5  132.19    6.60
   9   0   5  135.29    6.70
 -10   0  -5   47.10    5.60
  10   0   5   50.29    6.20
  10   0   5   53.79    4.80
   8  -1  -5  132.19    6.80
   8  -1  -5  137.39    8.40
  -8   1   5  140.49    7.60
  -8   1   5  130.99    8.50
   7  -1  -5  188.88    8.30
   7  -1  -5  198.08    9.80
  -7   1   5  182.58    8.70
  -7   1   5  188.18    9.70
   6  -1  -5    4.80    2.20
   6  -1  -5    6.20    1.50
  -6   1   5    6.80    2.60
  -6   1   5    3.20    2.20
  -6   1   5    3.10    1.60
   5  -1  -5  289.57   12.30
   5  -1  -5  291.27   10.80
   5  -1  -5  284.47   11.20
  -5   1   5  283.77   11.40
  -5   1   5  271.67   12.10
  -5   1   5  294.47   12.40
   4  -1  -5   99.19    4.20
   4  -1  -5   93.29    4.40
   4  -1  -5   99.79    5.30
   4  -1  -5   94.29    4.20
  -4   1   5   96.39    5.40
  -4   1   5  112.39    5.40
  -4   1   5   97.99    4.50
   3  -1  -5  292.47   11.40
   3  -1  -5  285.37   11.30
   3  -1  -5  316.57   11.40
  -3   1   5  299.67   12.20
   2  -1  -5   55.09    2.60
   2  -1  -5   53.59    2.70
   2  -1  -5   51.69    2.70
   2  -1  -5   54.19    2.80
  -2   1   5   54.09    2.50
  -2   1   5   58.19    2.80
  -2   1   5   56.99    3.30
  -2   1   5   52.09    3.00
   1  -1  -5  362.26   14.50
   1  -1  -5  387.56   13.90
   1  -1  -5  336.87   14.30
   1  -1  -5  398.96   14.40
   1  -1  -5  400.86   14.30
  -1   1   5  390.36   14.00
  -1   1   5  377.46   14.30
  -1   1   5  377.56   14.60
  -1   1   5  410.76   14.70
  -1   1   5  389.46   14.30
   0  -1  -5  466.85   16.10
   0  -1  -5  445.06   16.40
   0  -1  -5  422.16   16.50
   0  -1  -5  457.75   16.00
   0  -1  -5  432.66   16.70
   0   1   5  418.76   16.60
   0   1   5  468.05   17.10
   0   1   5  436.86   16.20
   0   1   5  443.16   16.50
  -1  -1  -5   35.30    1.70
  -1  -1  -5   37.90    2.20
  -1  -1  -5   36.10    1.80
   1   1   5   34.40    1.90
   1   1   5   31.60    2.10
   1   1   5   36.30    2.40
  -2  -1  -5 2175.68   72.99
  -2  -1  -5 2034.50   73.29
  -2  -1  -5 2042.60   72.69
   2   1   5 1987.10   72.89
   2   1   5 1989.70   72.79
  -3  -1  -5   95.99    3.90
   3   1   5   98.09    4.20
   3   1   5   98.39    4.60
  -4  -1  -5  652.93   23.30
  -4  -1  -5  645.84   23.90
  -4  -1  -5  628.34   23.60
   4   1   5  653.43   23.30
   4   1   5  638.44   23.90
   4   1   5  647.54   23.50
  -5  -1  -5  295.57   11.70
  -5  -1  -5  310.07   11.70
  -5  -1  -5  298.87   11.40
   5   1   5  299.67   11.50
   5   1   5  296.07   11.70
   5   1   5  290.77   11.30
   5   1   5  299.77   11.20
  -6  -1  -5   48.10    3.00
  -6  -1  -5   43.20    3.00
   6   1   5   41.50    3.60
   6   1   5   46.50    2.80
  -7  -1  -5   -0.80    1.30
  -7  -1  -5    2.80    1.10
   7   1   5    3.40    1.70
   7   1   5    2.30    1.30
  -8  -1  -5   13.40    2.50
  -8  -1  -5   13.00    1.80
  -8  -1  -5   15.60    2.50
   8   1   5   10.30    2.60
   8   1   5   13.60    2.00
  -9  -1  -5   29.30    4.00
   9   1   5   23.60    3.10
   9   1   5   23.70    2.80
 -10  -1  -5    6.40    3.00
  10   1   5    6.80    2.70
   8  -2  -5    3.60    2.10
   8  -2  -5    4.10    3.30
  -8   2   5    4.60    3.30
   7  -2  -5  152.48    6.90
   7  -2  -5  151.68    8.40
  -7   2   5  138.09    8.70
  -7   2   5  145.19    8.40
   6  -2  -5   33.50    2.80
   6  -2  -5   34.80    5.20
   6  -2  -5   34.40    2.20
   5  -2  -5   18.90    1.60
   5  -2  -5   22.30    3.10
   5  -2  -5   18.60    2.00
  -5   2   5   20.70    2.70
  -5   2   5   21.30    2.90
  -5   2   5   16.30    2.70
  -5   2   5   17.80    2.40
   4  -2  -5   20.60    1.60
   4  -2  -5   18.70    2.40
   4  -2  -5   18.70    2.80
   4  -2  -5   17.90    1.70
  -4   2   5   18.40    2.40
  -4   2   5   22.10    2.80
  -4   2   5   15.30    1.80
   3  -2  -5  101.49    4.90
   3  -2  -5  109.29    4.70
   3  -2  -5  107.69    5.40
   3  -2  -5  111.99    4.90
  -3   2   5  110.09    4.80
  -3   2   5  105.09    5.50
   2  -2  -5    9.80    1.20
   2  -2  -5   10.10    1.40
  -2   2   5   12.90    1.60
  -2   2   5   11.30    1.70
  -2   2   5   11.30    1.40
  -2   2   5   10.80    1.60
   1  -2  -5 1106.09   38.90
   1  -2  -5 1091.39   39.50
   1  -2  -5 1051.99   39.40
   1  -2  -5  958.50   38.30
   1  -2  -5 1053.69   38.10
   1  -2  -5 1092.59   38.60
  -1   2   5 1106.79   38.70
  -1   2   5 1054.49   38.60
  -1   2   5 1053.49   38.30
   0  -2  -5   11.40    1.10
   0  -2  -5   11.40    1.50
   0  -2  -5   10.50    1.10
   0  -2  -5    9.90    1.30
   0  -2  -5   12.30    1.00
   0  -2  -5   11.90    1.30
   0   2   5   13.30    1.40
   0   2   5   12.50    1.50
   0   2   5   12.80    1.10
   0   2   5   12.80    1.20
  -1  -2  -5 4106.29  145.09
   1   2   5 4032.70  144.59
   1   2   5 4078.79  144.99
  -2  -2  -5 2044.90   69.09
  -2  -2  -5 1935.81   69.79
   2   2   5 1888.61   69.59
   2   2   5 1966.50   68.99
   2   2   5 1960.40   69.19
   2   2   5 1831.62   69.09
  -3  -2  -5  440.46   16.40
   3   2   5  422.86   15.50
   3   2   5  420.16   15.80
  -4  -2  -5   14.60    1.30
  -4  -2  -5   16.70    1.60
  -4  -2  -5   14.70    1.80
  -4  -2  -5   15.10    1.50
   4   2   5   15.70    1.40
   4   2   5   18.30    2.10
  -5  -2  -5 1262.17   45.30
  -5  -2  -5 1258.37   45.70
  -5  -2  -5 1248.18   45.60
   5   2   5 1270.57   45.00
   5   2   5 1225.38   45.80
   5   2   5 1282.37   45.40
  -6  -2  -5  517.55   19.60
  -6  -2  -5  510.25   20.60
  -6  -2  -5  513.45   19.40
   6   2   5  499.35   19.30
   6   2   5  513.35   19.00
   6   2   5  552.34   21.90
  -7  -2  -5    0.50    1.40
  -7  -2  -5    0.90    1.20
   7   2   5    1.10    1.30
   7   2   5    1.30    1.00
  -8  -2  -5  394.06   15.40
  -8  -2  -5  384.56   14.50
  -8  -2  -5  375.76   15.50
   8   2   5  336.97   15.70
  -9  -2  -5   17.00    2.80
   9   2   5   15.30    2.60
   9   2   5   17.20    2.40
 -10  -2  -5   13.00    5.30
  10   2   5   14.10    2.80
  10   2   5    8.70    2.60
   8  -3  -5   30.50    4.70
   8  -3  -5   26.40    3.10
  -8   3   5   30.40    4.80
   7  -3  -5    6.40    1.90
   7  -3  -5    3.20    2.90
  -7   3   5    7.10    2.70
  -7   3   5    2.00    2.90
   6  -3  -5   30.80    2.70
   6  -3  -5   33.90    4.30
  -6   3   5   29.90    3.30
  -6   3   5   21.80    3.40
   5  -3  -5    1.10    1.60
   5  -3  -5    0.70    1.10
   5  -3  -5    0.80    0.80
   5  -3  -5   -2.40    1.80
  -5   3   5    2.20    1.80
  -5   3   5    0.60    1.80
  -5   3   5    0.40    1.50
   4  -3  -5    2.80    1.70
   4  -3  -5    4.30    1.00
   4  -3  -5    2.90    1.50
   4  -3  -5    5.90    1.10
  -4   3   5    2.60    1.70
  -4   3   5    4.60    1.40
  -4   3   5    4.00    1.80
   3  -3  -5    3.30    1.00
   3  -3  -5    2.50    0.90
   3  -3  -5    3.60    1.40
   3  -3  -5    0.60    1.20
  -3   3   5    4.40    1.20
  -3   3   5    3.50    1.40
  -3   3   5    2.50    1.40
  -3   3   5    3.10    1.50
   2  -3  -5  181.98    8.00
   2  -3  -5  182.08    7.70
   2  -3  -5  189.78    8.00
   2  -3  -5  184.18    7.40
   2  -3  -5  195.58    7.70
  -2   3   5  194.08    8.10
  -2   3   5  184.98    7.80
  -2   3   5  193.38    7.80
  -2   3   5  185.38    7.60
  -2   3   5  183.58    7.50
  -2   3   5  179.48    8.00
   1  -3  -5   11.50    1.60
   1  -3  -5   12.80    1.90
   1  -3  -5   12.00    1.60
   1  -3  -5   12.20    1.40
   1  -3  -5   10.70    1.70
  -1   3   5    9.80    1.30
  -1   3   5   10.40    1.50
  -1   3   5   11.30    1.50
  -1   3   5   12.20    1.80
  -1   3   5   13.00    1.70
   0  -3  -5   11.40    1.20
   0  -3  -5   11.50    1.50
   0  -3  -5    8.60    1.50
   0  -3  -5   10.90    1.50
   0  -3  -5   12.90    1.10
   0   3   5   10.00    1.40
   0   3   5   11.30    1.60
   0   3   5    9.70    1.20
   0   3   5   12.60    1.90
  -1  -3  -5  126.89    5.20
  -1  -3  -5  133.69    6.00
  -1  -3  -5  131.79    4.90
  -1  -3  -5  126.39    5.40
   1   3   5  123.49    6.00
   1   3   5  122.49    5.80
   1   3   5  132.49    5.20
   1   3   5  134.99    5.30
  -2  -3  -5   20.00    1.00
  -2  -3  -5   20.00    1.00
  -2  -3  -5   20.10    2.10
   2   3   5   17.90    2.00
   2   3   5   17.60    1.30
   2   3   5   17.90    1.70
  -3  -3  -5  220.08    8.70
  -3  -3  -5  222.38    8.20
  -3  -3  -5  224.68    8.40
  -3  -3  -5  207.78    9.20
   3   3   5  226.18    8.20
   3   3   5  220.78    8.60
   3   3   5  228.08    9.30
  -4  -3  -5  369.76   13.50
  -4  -3  -5  355.46   13.00
  -4  -3  -5  342.67   13.90
   4   3   5  338.37   13.90
   4   3   5  349.87   12.80
   4   3   5  353.66   13.30
  -5  -3  -5  408.06   15.50
  -5  -3  -5  373.76   15.00
  -5  -3  -5  406.46   14.80
  -5  -3  -5  378.06   14.70
   5   3   5  401.76   14.90
  -6  -3  -5    3.70    1.40
  -6  -3  -5    7.30    1.50
  -6  -3  -5    4.80    1.50
   6   3   5    4.50    1.20
   6   3   5    8.00    2.00
   6   3   5    6.10    1.10
  -7  -3  -5  133.49    6.30
  -7  -3  -5  137.49    6.50
   7   3   5  133.79    5.90
   7   3   5  136.79    6.20
   7   3   5  139.79    7.00
  -8  -3  -5   -0.50    1.50
  -8  -3  -5    3.00    1.90
   8   3   5   -2.00    1.60
   8   3   5    4.10    2.40
  -9  -3  -5   32.80    4.10
   9   3   5   26.60    3.60
   9   3   5   25.60    3.00
 -10  -3  -5   93.09    6.60
  10   3   5   90.29    5.80
  -7   4   5   68.39    6.40
  -7   4   5   53.89    5.30
   6  -4  -5   88.99    6.20
   6  -4  -5   98.69    6.40
   6  -4  -5   94.89    4.80
  -6   4   5   93.19    6.30
  -6   4   5   92.09    6.00
   5  -4  -5   14.80    2.80
   5  -4  -5   23.80    4.50
  -5   4   5   20.10    2.90
  -5   4   5   21.60    3.00
   4  -4  -5    0.70    1.10
   4  -4  -5    1.20    1.00
   4  -4  -5    0.20    1.50
   4  -4  -5    1.70    1.60
  -4   4   5    1.30    1.50
  -4   4   5    2.70    2.00
  -4   4   5    2.60    1.70
   3  -4  -5  249.58   11.40
   3  -4  -5  288.37   10.70
   3  -4  -5  278.17   11.20
   3  -4  -5  279.37   10.90
  -3   4   5  282.87   11.00
  -3   4   5  287.87   11.20
  -3   4   5  274.07   11.30
  -3   4   5  266.57   11.60
   2  -4  -5    1.90    0.80
   2  -4  -5   -0.30    1.00
   2  -4  -5    0.30    0.80
  -2   4   5    0.50    1.20
  -2   4   5    0.80    1.00
  -2   4   5    1.80    1.10
   1  -4  -5   29.20    2.00
   1  -4  -5   33.30    2.10
   1  -4  -5   31.10    2.20
   1  -4  -5   28.90    2.30
  -1   4   5   28.60    2.60
  -1   4   5   31.70    2.40
  -1   4   5   32.70    2.30
   0  -4  -5  118.59    5.30
   0  -4  -5  122.69    5.20
   0  -4  -5  126.39    5.00
   0   4   5  118.89    6.00
   0   4   5  124.79    5.80
   0   4   5  122.19    5.10
  -1  -4  -5   30.80    1.60
  -1  -4  -5   33.90    2.90
  -1  -4  -5   31.90    1.80
  -1  -4  -5   33.40    2.00
  -1  -4  -5   30.30    2.10
   1   4   5   33.50    2.20
   1   4   5   30.50    2.00
   1   4   5   27.30    2.70
  -2  -4  -5  179.08    8.10
  -2  -4  -5  181.18    6.80
  -2  -4  -5  183.68    7.40
   2   4   5  184.88    7.20
   2   4   5  183.08    8.30
   2   4   5  180.58    8.00
   2   4   5  184.38    7.10
  -3  -4  -5   11.40    1.80
  -3  -4  -5    8.60    1.30
  -3  -4  -5   10.80    1.00
   3   4   5   12.30    1.90
   3   4   5    9.70    1.20
  -4  -4  -5  109.69    4.90
  -4  -4  -5  107.09    4.50
   4   4   5  107.59    5.60
   4   4   5  105.59    4.70
   4   4   5  106.59    4.30
  -5  -4  -5  367.06   14.00
  -5  -4  -5  366.36   14.90
  -5  -4  -5  373.06   14.40
  -5  -4  -5  354.46   13.70
   5   4   5  380.86   14.20
   5   4   5  385.56   13.50
   5   4   5  372.76   15.00
  -6  -4  -5  217.98    9.50
  -6  -4  -5  228.58    9.80
  -6  -4  -5  228.08    9.30
   6   4   5  222.58   10.10
   6   4   5  232.58    9.20
  -7  -4  -5   20.90    3.00
  -7  -4  -5   23.80    3.00
  -7  -4  -5   18.60    2.50
   7   4   5   19.70    2.50
   7   4   5   18.70    1.80
   7   4   5   20.00    3.70
  -8  -4  -5    4.70    2.10
  -8  -4  -5    3.00    1.80
   8   4   5    6.30    1.90
   8   4   5    5.40    2.70
  -9  -4  -5   44.90    4.50
   9   4   5   34.30    3.80
 -10  -4  -5    3.90    3.00
  10   4   5   -0.50    3.20
   7  -5  -5   42.50    5.60
   7  -5  -5   40.00    4.70
  -7   5   5   43.90    5.10
  -7   5   5   37.90    4.60
   6  -5  -5  174.68    8.70
   6  -5  -5  171.38    8.10
   6  -5  -5  170.08    9.10
  -6   5   5  169.78    8.70
   5  -5  -5   54.49    3.40
   5  -5  -5   63.29    5.10
   5  -5  -5   57.69    4.50
  -5   5   5   61.09    4.90
  -5   5   5   70.99    5.50
  -5   5   5   54.99    4.70
   4  -5  -5    8.80    1.40
   4  -5  -5   12.20    2.20
  -4   5   5   11.20    2.30
  -4   5   5   10.50    2.10
   3  -5  -5   18.10    1.80
   3  -5  -5   20.60    2.30
   3  -5  -5   20.70    2.70
  -3   5   5   19.00    2.20
  -3   5   5   17.80    2.90
  -3   5   5   19.80    2.60
  -3   5   5   17.30    2.20
   2  -5  -5    2.70    1.10
   2  -5  -5    2.80    1.10
   2  -5  -5    0.90    0.80
  -2   5   5    4.40    1.90
  -2   5   5    2.00    1.20
  -2   5   5    1.20    1.40
   1  -5  -5   88.39    4.10
   1  -5  -5   99.29    4.60
   1  -5  -5   91.29    4.50
   1  -5  -5   97.89    4.40
  -1   5   5   85.69    5.30
  -1   5   5   98.89    4.70
  -1   5   5   97.19    5.00
  -1   5   5   96.59    4.40
   0  -5  -5   31.30    1.90
   0  -5  -5   31.50    2.20
   0   5   5   35.10    3.20
   0   5   5   28.70    2.10
   0   5   5   33.10    3.50
  -1  -5  -5  181.28    6.80
  -1  -5  -5  175.38    8.20
  -1  -5  -5  174.48    6.80
  -1  -5  -5  184.58    7.30
   1   5   5  159.38    7.30
   1   5   5  181.58    8.30
   1   5   5  176.48    8.10
  -2  -5  -5  727.63   26.70
  -2  -5  -5  695.03   27.50
   2   5   5  749.42   27.50
   2   5   5  747.43   26.40
   2   5   5  702.13   27.60
  -3  -5  -5  185.58    7.30
  -3  -5  -5  189.48    7.80
  -3  -5  -5  178.18    8.60
   3   5   5  196.68    8.60
   3   5   5  196.88    8.80
   3   5   5  188.18    7.60
  -4  -5  -5    6.80    1.70
  -4  -5  -5    3.70    1.10
  -4  -5  -5    2.20    1.10
   4   5   5    4.50    1.10
   4   5   5    4.40    1.80
   4   5   5    2.60    1.60
  -5  -5  -5   83.79    5.10
  -5  -5  -5   82.19    4.40
  -5  -5  -5   82.39    4.00
   5   5   5   75.79    4.00
   5   5   5   85.79    5.20
  -6  -5  -5  222.88   10.00
  -6  -5  -5  231.98    9.60
   6   5   5  218.18   10.30
   6   5   5  220.98    9.10
  -7  -5  -5   -1.10    1.70
  -7  -5  -5    1.70    1.70
   7   5   5    0.60    2.60
   7   5   5    2.30    1.60
  -8  -5  -5    7.50    2.40
  -8  -5  -5    5.90    3.10
  -8  -5  -5    9.00    2.20
   8   5   5    3.20    2.00
   8   5   5    5.00    3.00
  -9  -5  -5  236.18   11.00
   9   5   5  244.18   12.70
   9   5   5  243.18   10.60
 -10  -5  -5   40.80    5.60
  10   5   5   35.40    3.90
   6  -6  -5   -4.50    2.40
   6  -6  -5   -1.80    2.70
  -6   6   5   -0.50    2.90
  -6   6   5    6.40    3.10
   5  -6  -5   90.29    6.30
   5  -6  -5   97.19    5.80
  -5   6   5   83.49    7.10
  -5   6   5   91.49    6.30
   4  -6  -5    2.40    2.00
   4  -6  -5    4.00    1.90
  -4   6   5    7.20    2.40
  -4   6   5    6.30    3.30
   3  -6  -5   24.80    2.10
   3  -6  -5   28.70    2.90
   3  -6  -5   26.00    2.90
  -3   6   5   26.40    3.60
  -3   6   5   28.50    3.30
   2  -6  -5  321.27   12.80
   2  -6  -5  327.97   12.60
   2  -6  -5  305.07   12.00
  -2   6   5  318.17   13.00
  -2   6   5  324.97   13.00
   1  -6  -5  110.89    5.30
   1  -6  -5  113.19    5.00
   1  -6  -5  107.49    4.70
  -1   6   5  119.09    6.60
  -1   6   5  110.59    5.50
  -1   6   5  109.79    5.90
  -1   6   5  100.19    5.20
   0  -6  -5   22.80    1.90
   0  -6  -5   21.40    2.20
   0  -6  -5   23.20    1.70
   0   6   5   22.10    2.00
   0   6   5   16.60    2.80
   0   6   5   19.70    2.90
  -1  -6  -5   19.10    2.10
  -1  -6  -5   17.60    1.80
  -1  -6  -5   22.70    1.40
   1   6   5   26.60    3.00
   1   6   5   20.50    2.90
  -2  -6  -5  602.54   23.90
  -2  -6  -5  616.94   22.80
   2   6   5  592.74   23.90
   2   6   5  598.94   23.60
   2   6   5  639.04   22.40
  -3  -6  -5  247.08   10.20
  -3  -6  -5  261.07   11.30
   3   6   5  260.97    9.90
   3   6   5  241.98   11.10
  -4  -6  -5  354.86   14.10
  -4  -6  -5  353.56   15.00
   4   6   5  368.56   13.70
   4   6   5  357.16   15.00
  -5  -6  -5  142.19    6.60
   5   6   5  145.89    7.70
   5   6   5  135.49    6.20
  -6  -6  -5  154.68    7.40
  -6  -6  -5  155.88    7.10
  -6  -6  -5  161.98    8.20
   6   6   5  156.38    8.40
  -7  -6  -5   45.30    4.00
   7   6   5   41.40    3.50
   7   6   5   44.00    5.30
  -8  -6  -5    1.90    2.20
   8   6   5    2.50    2.00
  -9  -6  -5    2.30    2.60
   9   6   5    4.50    2.50
  -5   7   5    6.30    3.00
  -5   7   5   -1.50    4.10
   4  -7  -5  130.39    7.20
   4  -7  -5  137.09    7.10
   4  -7  -5  145.19    7.00
  -4   7   5  139.79    9.00
  -4   7   5  131.19    7.60
   3  -7  -5  186.48    8.50
   3  -7  -5  174.88    8.90
   3  -7  -5  174.98    8.30
   3  -7  -5  192.48    8.30
  -3   7   5  188.18    8.80
   2  -7  -5   69.19    4.00
  -2   7   5   67.09    6.10
   1  -7  -5  381.36   14.90
   1  -7  -5  373.26   14.40
  -1   7   5  366.36   16.20
  -1   7   5  381.36   15.10
   0  -7  -5  128.99    5.40
   0  -7  -5  124.19    5.60
   0  -7  -5  137.29    6.30
   0   7   5  145.49    7.20
   0   7   5  129.19    7.60
  -1  -7  -5  291.67   11.30
  -1  -7  -5  304.17   12.00
   1   7   5  284.87   12.80
   1   7   5  307.07   13.40
  -2  -7  -5   34.50    2.90
   2   7   5   35.50    2.50
   2   7   5   35.70    4.00
   2   7   5   32.90    4.00
  -3  -7  -5    9.10    1.80
  -3  -7  -5    9.00    2.50
   3   7   5    4.50    2.60
   3   7   5    6.30    2.20
   3   7   5    6.10    1.40
  -4  -7  -5   22.40    2.90
  -4  -7  -5   24.70    2.30
   4   7   5   32.20    4.20
   4   7   5   24.50    3.60
   4   7   5   28.70    2.50
  -5  -7  -5   85.59    5.10
   5   7   5   86.79    6.40
   5   7   5   87.99    6.40
   5   7   5   90.99    4.50
  -6  -7  -5    4.70    2.90
  -6  -7  -5    1.50    1.90
   6   7   5    4.20    1.70
   6   7   5    1.90    2.70
  -7  -7  -5  109.69    7.30
  -7  -7  -5  106.19    6.20
   7   7   5   98.29    5.50
  -8  -7  -5   69.69    5.40
  -8  -7  -5   74.49    6.50
   8   7   5   69.99    7.20
   8   7   5   78.49    5.00
  -9  -7  -5   -0.30    2.90
   9   7   5   -3.60    2.60
   9   7   5   -1.00    4.20
   4  -8  -5   18.00    2.80
   4  -8  -5   19.00    3.10
  -4   8   5   17.40    3.30
  -4   8   5   20.10    4.80
   3  -8  -5   76.29    5.20
   3  -8  -5   74.29    4.70
   3  -8  -5   76.19    4.80
  -3   8   5   67.29    5.60
   2  -8  -5   15.40    2.60
   2  -8  -5   12.50    1.90
   2  -8  -5   11.10    1.90
  -2   8   5   11.70    3.00
  -2   8   5   11.80    2.60
   1  -8  -5   13.60    2.30
   1  -8  -5   15.60    2.10
  -1   8   5   11.00    4.30
  -1   8   5   16.60    3.90
   0  -8  -5    0.50    1.50
   0  -8  -5    1.40    1.20
   0   8   5   -2.00    2.70
   0   8   5    0.80    3.70
  -1  -8  -5   20.00    3.10
   1   8   5   24.00    3.50
   1   8   5   23.70    4.30
   2   8   5  233.18   11.10
  -3  -8  -5  185.38    7.40
  -3  -8  -5  168.68    9.10
   3   8   5  144.39    7.20
   3   8   5  161.18   10.60
  -4  -8  -5   28.00    3.40
   4   8   5   24.40    2.70
   4   8   5   25.20    3.90
  -5  -8  -5   44.30    4.20
   5   8   5   50.29    5.80
   5   8   5   53.89    8.20
  -6  -8  -5    5.60    2.30
  -6  -8  -5    8.30    3.40
   6   8   5    4.00    1.90
   6   8   5    3.80    3.40
  -7  -8  -5   -1.70    2.70
  -7  -8  -5   -1.60    3.70
  -7  -8  -5   -2.10    2.40
   7   8   5    5.80    3.70
   7   8   5    3.10    2.30
  -8  -8  -5    4.60    3.10
  -8  -8  -5   11.50    4.20
   8   8   5    9.20    4.40
   8   8   5   10.60    2.80
   3  -9  -5   24.20    3.60
  -3   9   5   35.30    7.30
  -3   9   5   32.80    4.10
   2  -9  -5    6.50    1.90
   2  -9  -5    4.00    2.30
  -2   9   5    6.70    2.80
   1  -9  -5   28.90    3.90
  -1   9   5   35.10    5.30
  -1   9   5   33.40    4.60
   0  -9  -5    1.50    1.90
   0  -9  -5    3.10    2.40
   0   9   5   -6.00    3.10
   0   9   5    2.40    3.60
  -1  -9  -5   64.09    4.70
   1   9   5   70.59    7.00
   1   9   5   64.09    6.20
  -2  -9  -5   10.00    1.90
  -2  -9  -5   12.70    2.50
   2   9   5   16.30    5.80
   2   9   5   14.10    3.60
  -3  -9  -5   21.30    4.10
  -3  -9  -5   24.70    3.10
  -3  -9  -5   23.90    2.90
   3   9   5   27.50    4.60
  -4  -9  -5   50.59    3.80
  -4  -9  -5   49.80    4.50
  -4  -9  -5   55.39    6.20
   4   9   5   48.40    7.00
   4   9   5   40.50    6.00
  -5  -9  -5   -1.00    2.70
  -5  -9  -5   -0.60    2.30
  -5  -9  -5   -4.10    5.10
   5   9   5   -1.10    4.30
   5   9   5    1.70    3.40
  -6  -9  -5   35.30    4.50
  -6  -9  -5   36.70    4.40
   6   9   5   35.50    4.60
   6   9   5   33.60    5.30
  -7  -9  -5   99.89    6.70
   7   9   5  102.49    6.20
   1 -10  -5    5.90    2.80
  -1  10   5    9.50    5.00
   0 -10  -5   73.39    5.50
   0  10   5   76.39    8.70
  -1 -10  -5    4.60    2.50
   1  10   5   13.10    3.90
   1  10   5   11.60    4.70
  -2 -10  -5   22.80    3.40
   2  10   5   28.70    5.20
   2  10   5   36.40    5.70
  -3 -10  -5    3.90    2.50
   3  10   5    4.20    4.00
  -4 -10  -5   58.19    4.90
  -4 -10  -5   56.49    5.20
  -4 -10  -5   49.99    7.20
   4  10   5   60.59    7.40
  -5 -10  -5  100.59    6.80
  -5 -10  -5   96.69    9.20
   5  10   5  128.19   12.30
  -6 -10  -5   10.20    3.50
   4   9  -6    3.00    3.00
  -4  -9   6   -2.10    3.10
  -3  -9   6   55.99    5.80
  -3  -9   6   57.69    6.90
   2   9  -6  105.59    7.10
  -2  -9   6  102.69    8.20
  -1  -9   6   73.59    6.20
   0   9  -6  177.18   11.50
   0   9  -6  211.38   10.90
   0  -9   6  227.38   10.10
   0  -9   6  200.58    9.40
   0  -9   6  210.28    9.40
  -1   9  -6   25.70    3.80
   1  -9   6   19.10    2.80
   1  -9   6   13.60    3.60
   1  -9   6   21.60    3.30
  -2   9  -6    6.30    3.80
  -2   9  -6    6.10    4.00
   2  -9   6   16.50    2.80
   2  -9   6    9.70    3.10
  -3   9  -6    2.20    4.20
   6   8  -6  127.79   10.60
  -6  -8   6  116.49    8.60
   5   8  -6   17.00    3.30
  -5  -8   6   17.10    4.30
  -4  -8   6   17.40    3.30
  -4  -8   6   21.80    3.80
  -3  -8   6    4.30    4.40
  -3  -8   6    8.30    2.70
  -2  -8   6    3.00    2.20
  -2  -8   6    3.40    2.80
   1   8  -6    5.30    2.90
   1   8  -6    0.20    2.50
  -1  -8   6    5.30    2.60
  -1  -8   6    3.00    2.00
  -1  -8   6    0.20    2.10
   0   8  -6   21.80    3.70
   0  -8   6   17.60    2.40
   0  -8   6   26.90    4.40
   0  -8   6   13.50    2.40
  -1   8  -6    1.90    2.20
  -1   8  -6    1.70    2.80
   1  -8   6    2.50    2.30
   1  -8   6    4.10    1.90
  -2   8  -6  245.98   11.60
  -2   8  -6  236.58   10.50
   2  -8   6  248.58   10.10
   2  -8   6  228.18   10.40
  -3   8  -6    7.10    2.80
  -3   8  -6    2.20    3.00
   3  -8   6    0.20    2.50
   3  -8   6    2.40    2.90
  -4   8  -6   -1.80    3.60
   4  -8   6    6.40    2.30
   4  -8   6    4.10    2.60
   7   7  -6    2.30    3.20
  -6  -7   6    6.50    3.60
  -6  -7   6    2.90    3.70
   5   7  -6    4.50    2.30
   5   7  -6    1.90    2.00
  -5  -7   6   10.10    3.20
  -5  -7   6    8.70    3.30
   4   7  -6  122.49    6.10
   4   7  -6  123.49    6.60
  -4  -7   6  134.19    7.60
  -4  -7   6  115.99    7.00
   3   7  -6    6.20    2.10
   3   7  -6    5.20    1.40
  -3  -7   6   13.80    2.60
   2   7  -6    3.90    3.20
  -2  -7   6    0.50    1.50
   1   7  -6   47.20    4.30
   1   7  -6   46.00    3.60
  -1  -7   6   52.59    3.30
  -1  -7   6   41.80    3.60
   0   7  -6   17.60    2.80
   0   7  -6   17.40    2.50
   0  -7   6   14.50    2.10
   0  -7   6   17.50    2.40
  -1   7  -6    1.30    1.80
   1  -7   6    3.50    1.60
   1  -7   6    3.90    1.90
  -2   7  -6    0.20    2.20
   2  -7   6    0.90    1.70
   2  -7   6    1.10    2.00
  -3   7  -6  144.89    7.80
   3  -7   6  133.49    6.70
   3  -7   6  138.39    6.30
  -4   7  -6    1.80    2.90
   4  -7   6    3.50    2.10
   4  -7   6    3.90    1.80
  -5   7  -6   33.40    4.50
   5  -7   6   44.00    3.70
   5  -7   6   47.00    4.10
   6  -7   6  115.59    6.00
   6  -7   6   94.19    6.30
   7   6  -6    7.70    2.40
   7   6  -6    5.10    2.70
  -7  -6   6    1.70    3.70
   6   6  -6   34.70    5.10
   6   6  -6   32.70    3.60
  -6  -6   6   33.00    4.90
  -6  -6   6   42.50    5.20
   5   6  -6  165.18    7.40
  -5  -6   6  174.68    8.90
   4   6  -6   28.10    3.10
  -4  -6   6   25.10    3.70
   3   6  -6  330.47   12.70
   3   6  -6  311.17   12.10
   3   6  -6  311.37   12.80
  -3  -6   6  348.57   14.20
  -3  -6   6  278.67   12.00
  -3  -6   6  317.67   13.00
   2   6  -6   29.60    2.70
   2   6  -6   30.60    2.30
  -2  -6   6   23.90    3.00
  -2  -6   6   29.00    2.90
  -2  -6   6   30.30    2.50
   1   6  -6    2.60    1.20
   1   6  -6    3.80    1.60
   1   6  -6    2.00    1.00
  -1  -6   6    3.30    1.40
  -1  -6   6    4.60    1.30
   0   6  -6   49.20    3.50
   0   6  -6   43.80    3.00
   0  -6   6   49.60    3.50
   0  -6   6   47.40    3.00
   0  -6   6   43.70    3.00
  -1   6  -6   64.79    4.20
  -1   6  -6   67.49    3.60
   1  -6   6   62.89    3.80
   1  -6   6   66.69    3.60
   1  -6   6   56.19    3.40
  -2   6  -6   93.79    4.50
  -2   6  -6   93.09    5.30
   2  -6   6   95.39    4.90
   2  -6   6   94.59    4.50
  -3   6  -6   -2.80    2.10
   3  -6   6    2.10    1.50
  -4   6  -6    4.80    2.40
  -4   6  -6    6.90    2.20
   4  -6   6   10.00    2.00
   4  -6   6    8.50    1.70
  -5   6  -6    2.80    2.50
  -5   6  -6   -1.60    2.50
   5  -6   6   -1.50    1.60
   5  -6   6    2.00    1.90
  -6   6  -6    7.30    3.00
  -7   6  -6   48.60    6.70
   7  -6   6   50.09    4.80
   7  -6   6   52.09    4.60
   8   5  -6   36.80    4.40
  -8  -5   6   34.80    5.30
  -8  -5   6   29.70    5.10
   7   5  -6   32.00    3.60
   7   5  -6   38.60    4.10
  -7  -5   6   32.40    5.90
  -7  -5   6   27.70    4.70
   6   5  -6   13.60    2.20
  -6  -5   6   19.90    3.40
  -6  -5   6   20.90    3.90
   5   5  -6   24.60    2.60
  -5  -5   6   18.60    3.30
   4   5  -6  541.45   20.70
   4   5  -6  545.95   20.90
   4   5  -6  557.14   20.60
  -4  -5   6  547.55   21.70
  -4  -5   6  569.44   21.60
   3   5  -6    2.20    1.40
   3   5  -6    1.40    1.20
   3   5  -6    1.50    1.10
  -3  -5   6    0.60    1.60
   2   5  -6  140.79    5.70
   2   5  -6  135.49    6.00
  -2  -5   6  130.49    6.20
  -2  -5   6  136.29    6.60
   1   5  -6  818.12   30.90
   1   5  -6  872.71   30.60
   1   5  -6  811.32   31.10
  -1  -5   6  842.82   31.40
  -1  -5   6  881.01   31.00
   0   5  -6  274.57   10.20
   0   5  -6  269.97   10.40
   0   5  -6  270.77   10.50
   0  -5   6  264.17   10.50
   0  -5   6  264.87   10.30
   0  -5   6  272.77   10.40
   0  -5   6  277.07   10.90
  -1   5  -6   44.60    2.70
  -1   5  -6   42.60    2.50
   1  -5   6   40.00    2.60
   1  -5   6   36.50    2.80
   1  -5   6   41.40    2.50
  -2   5  -6  133.09    6.20
  -2   5  -6  124.59    5.50
   2  -5   6  131.89    5.40
   2  -5   6  133.49    5.60
   2  -5   6  133.49    5.90
  -3   5  -6   37.40    3.30
  -3   5  -6   52.59    2.70
  -3   5  -6   47.90    3.40
   3  -5   6   42.50    3.00
   3  -5   6   42.20    2.70
  -4   5  -6  279.27   11.50
  -4   5  -6  276.57   11.60
  -4   5  -6  271.87   11.60
   4  -5   6  282.27   10.80
   4  -5   6  274.67   11.10
  -5   5  -6    8.40    2.30
  -5   5  -6    6.70    2.50
   5  -5   6    8.20    1.90
   5  -5   6    8.60    1.70
  -6   5  -6   10.70    2.80
   6  -5   6    4.10    1.90
  -7   5  -6   40.00    5.90
  -7   5  -6   32.20    4.10
   7  -5   6   39.30    4.10
   7  -5   6   40.30    3.90
   8   4  -6  181.98    8.80
   8   4  -6  198.98   11.20
  -8  -4   6  178.08   10.60
   7   4  -6    6.10    2.00
   7   4  -6    4.00    3.30
  -7  -4   6    8.80    3.30
   6   4  -6   20.30    3.00
   6   4  -6   19.40    2.40
  -6  -4   6   22.60    3.50
  -6  -4   6   23.50    3.70
   5   4  -6   99.09    4.80
   5   4  -6   95.29    4.80
  -5  -4   6   85.79    5.70
   4   4  -6  621.74   22.90
   4   4  -6  644.14   22.80
  -4  -4   6  589.24   23.50
  -4  -4   6  601.74   23.80
   3   4  -6   52.99    3.10
   3   4  -6   56.59    3.10
  -3  -4   6   56.79    4.00
  -3  -4   6   52.09    3.60
  -3  -4   6   59.69    2.60
   2   4  -6   16.10    1.60
   2   4  -6   16.20    1.70
   2   4  -6   17.60    1.80
  -2  -4   6   15.20    1.30
  -2  -4   6   16.60    2.10
  -2  -4   6   16.20    2.20
   1   4  -6    1.90    0.80
   1   4  -6    2.40    0.90
  -1  -4   6    3.80    1.30
  -1  -4   6    1.30    0.70
  -1  -4   6    2.30    1.00
   0   4  -6   67.19    3.10
   0   4  -6   61.49    3.00
   0   4  -6   56.29    2.90
   0  -4   6   60.39    2.80
   0  -4   6   62.09    3.10
  -1   4  -6    0.40    0.90
  -1   4  -6    1.40    0.90
  -1   4  -6    0.30    0.70
   1  -4   6   -0.80    0.90
   1  -4   6    0.90    0.80
   1  -4   6    3.00    1.00
  -2   4  -6  177.38    7.10
  -2   4  -6  164.48    6.80
  -2   4  -6  163.78    6.50
   2  -4   6  164.18    6.60
   2  -4   6  146.59    6.80
  -3   4  -6  666.93   21.80
  -3   4  -6  581.94   22.40
   3  -4   6  551.24   22.00
   3  -4   6  582.14   22.10
  -4   4  -6   21.10    2.40
  -4   4  -6   18.60    2.50
   4  -4   6   22.10    1.90
   4  -4   6   20.80    2.20
   4  -4   6   21.00    2.20
  -5   4  -6    6.00    1.70
  -5   4  -6    2.90    1.80
   5  -4   6    6.70    1.60
   5  -4   6    9.80    1.80
  -6   4  -6    9.60    3.00
  -6   4  -6   11.70    2.60
   6  -4   6   13.30    1.90
   6  -4   6   14.90    2.10
   6  -4   6   12.60    2.00
  -7   4  -6   54.29    4.60
  -7   4  -6   56.59    5.10
   7  -4   6   54.99    4.00
  -8   4  -6    3.70    2.80
  -8   4  -6    4.50    3.20
   8  -4   6   -0.50    2.10
   8   3  -6   14.40    2.60
   8   3  -6   14.90    3.90
   8   3  -6   16.60    2.60
  -8  -3   6   12.00    4.10
  -8  -3   6   20.80    4.20
   7   3  -6   39.80    3.70
   7   3  -6   38.80    3.50
   7   3  -6   37.20    5.80
  -7  -3   6   39.90    5.20
  -7  -3   6   41.10    5.40
   6   3  -6    5.10    2.00
   6   3  -6    4.30    1.50
  -6  -3   6    9.00    2.80
  -6  -3   6    4.90    2.50
  -6  -3   6    4.50    1.60
   5   3  -6  195.78    7.80
   5   3  -6  182.28    7.80
  -5  -3   6  197.98    9.20
  -5  -3   6  171.28    7.90
  -5  -3   6  182.28    8.80
   4   3  -6  134.59    5.30
   4   3  -6  135.99    5.70
   4   3  -6  131.99    5.80
   4   3  -6  114.39    5.50
  -4  -3   6  146.89    7.00
  -4  -3   6  124.39    5.30
  -4  -3   6  133.99    6.50
   3   3  -6  154.18    6.10
   3   3  -6  143.29    6.10
  -3  -3   6  158.48    6.70
  -3  -3   6  138.99    6.90
  -3  -3   6  139.89    5.50
  -3  -3   6  133.29    6.00
   2   3  -6    1.10    0.70
   2   3  -6    1.60    0.70
   2   3  -6    1.30    0.80
  -2  -3   6   -0.20    1.00
   1   3  -6 1031.60   37.60
   1   3  -6  993.40   37.60
  -1  -3   6 1055.39   37.70
  -1  -3   6 1020.70   38.10
  -1  -3   6 1110.09   37.80
   0   3  -6  160.88    6.30
   0   3  -6  173.58    7.00
   0   3  -6  159.68    6.80
   0  -3   6  169.88    6.70
   0  -3   6  191.08    7.20
   0  -3   6  157.18    7.10
   0  -3   6  167.58    6.30
  -1   3  -6  279.97   10.20
  -1   3  -6  256.67   10.30
   1  -3   6  276.67   10.30
   1  -3   6  266.27   10.50
   1  -3   6  267.67   10.20
  -2   3  -6  673.63   24.60
  -2   3  -6  682.53   24.80
   2  -3   6  688.83   24.80
   2  -3   6  659.73   24.90
   2  -3   6  688.93   24.50
  -3   3  -6   19.80    1.90
  -3   3  -6   22.40    1.90
  -3   3  -6   19.70    1.50
   3  -3   6   18.80    1.50
   3  -3   6   21.10    1.90
   3  -3   6   22.30    1.80
  -4   3  -6  577.74   21.20
  -4   3  -6  558.04   21.10
   4  -3   6  552.04   20.90
   4  -3   6  545.95   20.70
   4  -3   6  584.44   20.90
  -5   3  -6    1.40    2.10
  -5   3  -6    0.10    0.60
  -5   3  -6    2.10    1.40
   5  -3   6    1.00    1.10
   5  -3   6   -0.20    1.10
   5  -3   6    1.30    1.10
  -6   3  -6    3.00    1.90
  -6   3  -6    6.60    2.00
   6  -3   6    6.60    1.60
   6  -3   6    3.80    1.40
  -7   3  -6   35.20    4.10
  -7   3  -6   28.10    3.60
   7  -3   6   29.90    3.00
   7  -3   6   30.80    3.60
   7  -3   6   32.00    3.10
  -8   3  -6   61.09    5.10
  -8   3  -6   65.69    5.70
   8  -3   6   75.29    4.90
   8  -3   6   70.99    5.00
   8  -3   6   67.19    4.90
  -9   3  -6    6.50    3.10
  -9   3  -6    4.20    3.60
   9  -3   6    3.20    2.70
   9  -3   6    4.00    3.20
   8   2  -6   77.99    6.90
  -8  -2   6   88.49    7.20
  -8  -2   6   65.29    6.90
   7   2  -6    3.00    1.70
   7   2  -6    1.50    2.90
  -7  -2   6    0.20    2.80
  -7  -2   6    0.80    2.90
   6   2  -6    1.60    2.50
  -6  -2   6    1.70    1.40
  -6  -2   6    0.40    2.40
  -6  -2   6    2.90    2.70
   5   2  -6    2.10    1.20
  -5  -2   6    2.90    2.00
  -5  -2   6    3.50    2.10
   4   2  -6   81.89    3.80
   4   2  -6   79.89    3.90
  -4  -2   6   78.89    4.90
  -4  -2   6   75.09    4.60
  -4  -2   6   77.29    3.50
   3   2  -6   13.30    1.60
   3   2  -6   13.30    1.10
   3   2  -6   11.90    1.40
  -3  -2   6   10.50    1.10
  -3  -2   6    9.00    1.70
  -3  -2   6   16.70    2.20
   2   2  -6    5.80    1.00
   2   2  -6    9.20    1.20
  -2  -2   6    5.90    1.50
  -2  -2   6    5.30    1.20
  -2  -2   6    7.90    1.40
   1   2  -6  310.77   12.00
   1   2  -6  304.37   11.90
  -1  -2   6  336.47   12.60
  -1  -2   6  323.27   12.20
   0   2  -6  343.17   12.10
   0   2  -6  321.57   12.30
   0  -2   6  274.97   12.50
   0  -2   6  338.37   12.40
  -1   2  -6  405.36   15.50
  -1   2  -6  404.96   15.10
  -1   2  -6  431.36   15.20
  -1   2  -6  419.76   15.60
   1  -2   6  426.66   15.70
  -2   2  -6  482.75   18.20
  -2   2  -6  478.65   17.90
  -2   2  -6  489.35   18.30
   2  -2   6  508.05   18.20
   2  -2   6  497.35   18.20
  -3   2  -6  166.98    6.60
  -3   2  -6  163.78    6.50
  -3   2  -6  146.69    6.60
   3  -2   6  161.08    6.40
   3  -2   6  155.98    6.40
  -4   2  -6  183.28    7.60
  -4   2  -6  171.08    7.60
   4  -2   6  192.98    7.40
   4  -2   6  191.18    7.50
  -5   2  -6   42.40    3.00
  -5   2  -6   42.90    2.80
   5  -2   6   43.10    2.60
   5  -2   6   44.30    2.60
   5  -2   6   42.90    2.70
  -6   2  -6  195.28    8.50
   6  -2   6  186.38    7.90
   6  -2   6  192.18    7.90
   6  -2   6  190.68    7.90
  -7   2  -6    2.10    1.60
  -7   2  -6    0.70    1.90
   7  -2   6    0.60    1.60
   7  -2   6    2.60    1.80
  -8   2  -6    2.40    2.30
  -8   2  -6    0.60    2.10
   8  -2   6    1.60    1.80
   8  -2   6    3.90    3.10
   8  -2   6    3.90    2.70
  -9   2  -6  100.09    6.90
  -9   2  -6  100.19    6.30
   9  -2   6  103.59    6.00
   9  -2   6  108.49    6.70
   8   1  -6   60.99    6.50
  -8  -1   6   69.59    6.80
  -8  -1   6   67.89    6.70
   7   1  -6    1.70    1.60
   7   1  -6    3.90    1.70
   7   1  -6    0.30    2.50
  -7  -1   6    0.30    2.90
  -7  -1   6    5.70    2.10
  -7  -1   6    2.10    2.80
   6   1  -6  141.49    7.00
   6   1  -6  154.98    8.10
   6   1  -6  147.39    6.20
  -6  -1   6  141.29    7.80
  -6  -1   6  150.08    8.20
  -6  -1   6  139.39    6.50
   5   1  -6   11.20    1.50
   5   1  -6    9.40    1.60
  -5  -1   6    9.80    1.50
  -5  -1   6   12.10    2.40
  -5  -1   6   14.70    2.60
   4   1  -6   28.00    1.90
   4   1  -6   27.30    2.10
  -4  -1   6   31.60    2.90
  -4  -1   6   32.00    3.20
   3   1  -6   53.09    2.30
   3   1  -6   58.39    2.90
  -3  -1   6   57.19    3.40
  -3  -1   6   51.09    2.40
  -3  -1   6   51.09    3.70
   2   1  -6  104.99    4.60
   2   1  -6  107.59    4.30
   2   1  -6  106.09    4.50
  -2  -1   6   96.59    4.80
  -2  -1   6  111.19    4.80
  -2  -1   6  102.99    5.20
   1   1  -6   52.59    2.50
   1   1  -6   53.09    2.70
   1   1  -6   54.69    2.70
  -1  -1   6   54.79    2.90
  -1  -1   6   53.89    2.80
  -1  -1   6   56.89    3.10
  -1  -1   6   53.09    3.20
   0   1  -6   19.00    1.40
   0   1  -6   19.00    1.50
   0   1  -6   19.30    1.20
   0  -1   6   19.90    1.80
   0  -1   6   17.60    1.40
  -1   1  -6  170.78    6.20
  -1   1  -6  154.58    6.90
  -1   1  -6  176.48    6.20
   1  -1   6  167.08    6.80
   1  -1   6  166.08    6.70
   1  -1   6  162.18    6.30
  -2   1  -6  572.84   22.60
  -2   1  -6  626.14   22.20
  -2   1  -6  641.34   22.40
  -2   1  -6  612.24   22.60
   2  -1   6  615.24   22.10
   2  -1   6  634.34   22.60
  -3   1  -6  803.92   29.70
  -3   1  -6  846.12   29.50
   3  -1   6  800.32   29.50
   3  -1   6  814.12   29.00
   3  -1   6  803.92   29.50
  -4   1  -6  531.95   20.00
  -4   1  -6  501.25   20.10
   4  -1   6  552.94   19.90
   4  -1   6  567.44   20.30
   4  -1   6  542.85   19.90
  -5   1  -6   22.20    1.90
  -5   1  -6   16.80    2.00
  -5   1  -6   14.10    2.50
   5  -1   6   18.40    1.70
   5  -1   6   17.80    1.90
  -6   1  -6   97.99    5.20
  -6   1  -6  103.29    5.00
   6  -1   6  105.39    4.90
   6  -1   6  105.99    4.90
   6  -1   6  104.09    4.80
  -7   1  -6  316.27   12.50
  -7   1  -6  308.27   12.90
  -7   1  -6  318.17   13.70
   7  -1   6  310.37   12.30
   7  -1   6  326.47   12.40
   7  -1   6  285.07   13.10
  -8   1  -6  220.78    9.40
  -8   1  -6  209.28   10.00
   8  -1   6  222.18    9.30
  -9   1  -6    0.70    2.80
  -9   1  -6    3.10    2.40
  -9   1  -6    5.40    3.00
   9  -1   6    5.90    2.70
   9  -1   6    6.50    3.80
   9  -1   6    5.40    2.40
   8   0  -6  137.29    7.00
  -8   0   6  124.69    9.60
  -8   0   6  145.19    8.90
   7   0  -6  184.78    8.20
   7   0  -6  183.18    9.70
  -7   0   6  178.88    8.40
  -7   0   6  173.68    9.60
  -7   0   6  190.48   10.00
   6   0  -6   42.00    3.30
   6   0  -6   37.10    2.50
  -6   0   6   63.19    7.90
  -6   0   6   45.30    4.70
   5   0  -6   88.89    4.30
   5   0  -6   82.89    5.40
  -5   0   6   84.49    4.30
  -5   0   6   85.69    5.30
  -5   0   6   89.79    5.60
   4   0  -6    8.00    1.30
  -4   0   6    9.50    2.10
  -4   0   6   12.20    2.00
  -4   0   6    9.70    1.30
   3   0  -6   85.79    4.00
   3   0  -6   80.39    3.60
  -3   0   6   86.39    3.70
  -3   0   6   93.99    4.60
  -3   0   6   97.79    5.00
   2   0  -6   30.80    2.00
   2   0  -6   31.20    2.00
   2   0  -6   29.50    1.90
   2   0  -6   29.70    2.40
  -2   0   6   34.50    2.40
  -2   0   6   32.90    1.60
  -2   0   6   32.40    2.20
  -2   0   6   33.00    2.70
   1   0  -6   55.59    2.90
   1   0  -6   57.09    2.80
   1   0  -6   49.80    2.70
   1   0  -6   55.89    2.80
  -1   0   6   59.19    3.00
  -1   0   6   53.29    3.20
  -1   0   6   60.09    3.60
   0   0  -6  536.45   18.50
   0   0  -6  487.45   18.90
   0   0  -6  528.75   19.00
   0   0   6  500.85   19.50
   0   0   6  506.15   18.90
   0   0   6  495.25   18.50
  -1   0  -6  714.13   25.90
  -1   0  -6  730.23   26.70
  -1   0  -6  685.53   27.00
  -1   0  -6  703.13   26.10
   1   0   6  754.92   26.60
   1   0   6  788.12   26.10
  -2   0  -6  955.10   36.50
  -2   0  -6 1074.49   36.10
  -2   0  -6  980.60   36.50
   2   0   6 1000.20   36.60
   2   0   6 1019.90   36.30
   2   0   6 1007.00   36.30
  -3   0  -6   81.59    4.00
  -3   0  -6   82.49    3.70
  -3   0  -6   85.89    4.00
   3   0   6   81.89    3.30
   3   0   6   81.49    3.60
   3   0   6   95.49    4.10
   3   0   6   77.69    3.70
  -4   0  -6    2.00    0.80
  -4   0  -6    3.80    1.30
   4   0   6    4.10    1.00
   4   0   6    4.00    0.90
   4   0   6    4.30    1.20
   4   0   6    4.20    0.70
  -5   0  -6  187.68    8.60
  -5   0  -6  218.88    8.50
  -5   0  -6  194.38    8.40
   5   0   6  197.38    8.30
   5   0   6  213.98    8.20
   5   0   6  198.38    8.40
   5   0   6  212.18    8.00
  -6   0  -6  288.17   11.30
  -6   0  -6  287.27   11.70
  -6   0  -6  299.67   11.50
   6   0   6  289.77   11.20
   6   0   6  291.87   11.20
   6   0   6  280.57   11.30
  -7   0  -6  837.82   32.00
  -7   0  -6  907.51   31.80
  -7   0  -6  818.62   32.20
   7   0   6  867.01   31.70
   7   0   6  884.81   31.90
   7   0   6  877.71   31.80
   7   0   6  851.01   31.60
  -8   0  -6  321.87   13.70
  -8   0  -6  311.37   13.60
   8   0   6  338.07   13.20
   8   0   6  331.97   12.90
  -9   0  -6  206.58   10.40
  -9   0  -6  229.88    9.70
   9   0   6  231.48    9.90
   9   0   6  225.28   10.30
 -10   0  -6    9.20    3.50
  10   0   6    6.70    3.00
   8  -1  -6   -2.30    2.00
   8  -1  -6    5.40    3.40
  -8   1   6    7.20    3.50
  -8   1   6    1.60    3.00
   7  -1  -6  941.41   35.10
   7  -1  -6  954.60   36.60
  -7   1   6  951.70   36.60
   6  -1  -6  166.38    6.70
   6  -1  -6  164.48    7.70
   6  -1  -6  175.18    8.70
  -6   1   6  157.68   10.20
  -6   1   6  152.08    8.80
   5  -1  -6    8.20    2.30
   5  -1  -6   10.40    1.50
   5  -1  -6   11.20    1.60
  -5   1   6    5.50    2.30
  -5   1   6    9.10    1.70
  -5   1   6    8.30    2.20
   4  -1  -6  164.08    6.90
   4  -1  -6  160.38    7.80
   4  -1  -6  162.78    6.50
   4  -1  -6  158.28    6.60
   4  -1  -6  175.18    7.80
  -4   1   6  160.48    7.90
  -4   1   6  164.58    6.90
  -4   1   6  173.28    7.70
   3  -1  -6   46.40    2.60
   3  -1  -6   40.10    2.60
   3  -1  -6   44.80    2.50
  -3   1   6   44.30    3.40
  -3   1   6   43.70    3.20
   2  -1  -6    0.70    0.80
   2  -1  -6    1.40    0.70
   2  -1  -6    1.20    1.20
  -2   1   6    1.40    1.20
  -2   1   6    0.70    0.60
  -2   1   6    1.40    0.90
  -2   1   6    0.60    0.90
   1  -1  -6  340.27   13.00
   1  -1  -6  355.76   13.20
   1  -1  -6  330.67   13.20
   1  -1  -6  353.06   12.60
  -1   1   6  359.66   12.60
  -1   1   6  333.57   13.40
  -1   1   6  340.67   13.10
   0  -1  -6  302.67   11.40
   0  -1  -6  283.57   11.30
   0  -1  -6  305.67   10.80
   0  -1  -6  293.57   10.70
   0   1   6  279.87   11.10
   0   1   6  301.57   10.90
   0   1   6  284.27   11.40
   0   1   6  284.17   11.30
  -1  -1  -6 1724.13   62.89
  -1  -1  -6 1863.51   63.09
  -1  -1  -6 1641.54   63.89
  -1  -1  -6 1838.52   63.79
   1   1   6 1781.02   63.29
   1   1   6 1831.52   63.49
   1   1   6 1696.63   64.09
  -2  -1  -6   22.50    2.00
  -2  -1  -6   28.60    1.60
  -2  -1  -6   27.10    1.50
   2   1   6   25.90    1.80
  -3  -1  -6  224.58    9.10
  -3  -1  -6  234.28    8.60
   3   1   6  197.38    9.40
   3   1   6  229.18    8.50
   3   1   6  221.48    8.60
  -4  -1  -6   11.00    1.70
  -4  -1  -6   13.10    1.50
   4   1   6   13.70    1.80
   4   1   6   12.40    1.50
   4   1   6   14.40    1.10
   4   1   6   16.40    1.30
  -5  -1  -6   17.10    1.90
   5   1   6   20.10    1.80
   5   1   6   18.30    1.60
   5   1   6   23.10    2.40
  -6  -1  -6  145.09    6.60
  -6  -1  -6  154.58    6.60
  -6  -1  -6  142.19    6.30
   6   1   6  152.98    6.40
   6   1   6  145.79    6.10
   6   1   6  145.29    6.70
  -7  -1  -6    1.70    1.50
  -7  -1  -6    1.20    1.20
  -7  -1  -6    2.30    1.40
   7   1   6    0.20    1.30
   7   1   6   -1.00    1.70
  -8  -1  -6    2.40    1.90
  -8  -1  -6    1.80    1.50
   8   1   6    0.30    1.70
  -9  -1  -6   49.80    4.80
  -9  -1  -6   48.40    3.80
   9   1   6   46.40    4.10
   9   1   6   56.99    4.00
 -10  -1  -6   86.99    6.60
  10   1   6   87.69    5.90
   8  -2  -6    1.00    3.60
   8  -2  -6    8.80    2.40
  -8   2   6   -4.10    3.10
  -8   2   6    3.40    3.70
   7  -2  -6   54.69    4.10
   7  -2  -6   57.49    5.80
  -7   2   6   67.69    6.00
   6  -2  -6    0.10    2.30
  -6   2   6    2.00    2.40
   5  -2  -6   17.40    2.90
   5  -2  -6   15.70    1.90
  -5   2   6   11.90    2.70
  -5   2   6   17.00    2.90
   4  -2  -6    0.00    1.20
   4  -2  -6    0.60    0.90
   4  -2  -6    3.10    1.60
  -4   2   6   -0.30    1.60
  -4   2   6    0.80    1.60
  -4   2   6    2.00    1.20
   3  -2  -6  113.49    5.40
   3  -2  -6  124.59    6.00
   3  -2  -6  116.39    5.20
   3  -2  -6  117.29    5.10
  -3   2   6  119.79    6.10
  -3   2   6  117.99    5.20
  -3   2   6  116.89    5.70
   2  -2  -6  110.09    4.70
   2  -2  -6  101.59    4.80
   2  -2  -6  109.19    5.30
  -2   2   6  108.79    5.10
  -2   2   6  100.09    5.30
  -2   2   6  109.29    4.60
  -2   2   6  110.59    4.90
   1  -2  -6  620.04   23.50
   1  -2  -6  616.14   23.40
  -1   2   6  644.24   23.20
  -1   2   6  641.24   23.50
  -1   2   6  656.13   23.30
  -1   2   6  597.74   23.50
   0  -2  -6  153.68    6.50
   0  -2  -6  152.38    5.90
   0  -2  -6  147.69    5.90
   0   2   6  145.59    6.30
   0   2   6  145.99    6.10
   0   2   6  145.09    6.50
   0   2   6  141.89    5.80
  -1  -2  -6   42.60    2.00
  -1  -2  -6   37.80    2.60
  -1  -2  -6   42.40    2.20
  -1  -2  -6   39.00    1.70
  -1  -2  -6   39.20    2.10
  -1  -2  -6   41.40    1.90
   1   2   6   43.30    2.20
   1   2   6   42.00    2.40
   1   2   6   37.30    2.70
   1   2   6   39.50    2.30
  -2  -2  -6   52.29    2.60
  -2  -2  -6   49.30    2.20
   2   2   6   49.90    2.60
   2   2   6   50.19    3.20
   2   2   6   51.69    2.50
  -3  -2  -6   96.59    4.80
  -3  -2  -6   92.39    3.80
  -3  -2  -6   98.59    4.30
   3   2   6   90.49    4.70
   3   2   6  104.49    4.30
   3   2   6   95.19    4.50
  -4  -2  -6   78.19    4.20
  -4  -2  -6   84.89    3.80
   4   2   6   73.19    3.70
   4   2   6   77.69    4.30
  -5  -2  -6  398.56   14.70
  -5  -2  -6  404.16   15.20
  -5  -2  -6  390.26   16.60
   5   2   6  392.86   15.00
   5   2   6  388.26   15.50
   5   2   6  403.06   14.70
  -6  -2  -6   29.80    2.60
  -6  -2  -6   27.30    2.40
  -6  -2  -6   28.50    2.50
   6   2   6   23.20    2.30
   6   2   6   26.60    1.90
  -7  -2  -6  254.57   10.20
  -7  -2  -6  237.18   10.10
  -7  -2  -6  243.28   10.40
   7   2   6  248.68    9.70
   7   2   6  254.77   10.20
   7   2   6  246.98   10.70
  -8  -2  -6   63.79    4.50
  -8  -2  -6   63.09    3.80
  -8  -2  -6   64.19    4.50
   8   2   6   60.49    4.10
  -9  -2  -6  144.89    7.90
  -9  -2  -6  149.09    6.90
   9   2   6  146.69    7.30
   9   2   6  159.98    7.00
 -10  -2  -6   40.00    5.00
  10   2   6   29.60    3.50
  10   2   6   35.70    4.00
  -7   3   6    8.30    2.90
   6  -3  -6    2.80    2.50
  -6   3   6    3.90    2.30
  -6   3   6    7.60    2.80
   5  -3  -6   16.10    2.30
   5  -3  -6   13.30    1.80
   5  -3  -6   14.10    2.90
  -5   3   6   15.50    2.60
  -5   3   6   18.20    3.00
   4  -3  -6  130.79    6.50
   4  -3  -6  136.69    5.90
   4  -3  -6  133.49    7.00
  -4   3   6  140.99    6.80
  -4   3   6  142.19    6.70
  -4   3   6  135.89    7.10
  -4   3   6  131.39    6.30
   3  -3  -6  338.07   13.20
   3  -3  -6  315.57   12.50
   3  -3  -6  336.17   13.40
  -3   3   6  333.67   13.20
  -3   3   6  319.57   12.70
  -3   3   6  331.87   13.50
  -3   3   6  319.07   13.10
   2  -3  -6   -0.50    0.80
   2  -3  -6    1.60    1.20
   2  -3  -6   -0.40    1.10
   2  -3  -6   -1.10    0.90
   2  -3  -6   -1.30    0.70
  -2   3   6    0.10    0.90
  -2   3   6    0.70    1.10
  -2   3   6    0.70    1.40
  -2   3   6    0.50    0.90
  -2   3   6    1.60    1.40
  -2   3   6   -0.10    1.10
   1  -3  -6  385.96   14.50
   1  -3  -6  408.36   15.10
   1  -3  -6  397.36   14.60
   1  -3  -6  389.56   15.30
  -1   3   6  385.66   15.10
  -1   3   6  373.06   15.00
  -1   3   6  387.46   14.60
  -1   3   6  390.66   15.30
  -1   3   6  383.26   14.70
  -1   3   6  378.46   14.70
   0  -3  -6    4.90    1.10
   0  -3  -6    8.20    1.50
   0   3   6    9.60    1.50
   0   3   6    6.20    1.10
  -1  -3  -6  222.38    9.50
  -1  -3  -6  216.58    8.50
  -1  -3  -6  227.68    8.20
  -1  -3  -6  221.18    8.50
   1   3   6  226.68    8.80
   1   3   6  233.28    8.80
   1   3   6  214.48    9.30
  -2  -3  -6    2.80    1.20
  -2  -3  -6    2.20    0.40
  -2  -3  -6    0.60    0.70
  -2  -3  -6    2.20    0.60
   2   3   6    4.80    1.30
   2   3   6    1.90    0.80
  -3  -3  -6  305.47   11.80
  -3  -3  -6  312.37   12.60
   3   3   6  309.27   11.80
   3   3   6  308.47   12.60
   3   3   6  314.07   11.60
  -4  -3  -6   43.30    2.30
  -4  -3  -6   38.60    2.60
  -4  -3  -6   46.10    3.20
  -4  -3  -6   44.10    2.20
   4   3   6   42.40    3.20
   4   3   6   43.00    2.10
   4   3   6   42.00    2.50
  -5  -3  -6    2.40    1.10
  -5  -3  -6    1.90    1.40
   5   3   6    2.50    1.00
   5   3   6    3.30    1.60
  -6  -3  -6  668.73   24.30
  -6  -3  -6  646.14   24.70
   6   3   6  663.43   23.90
   6   3   6  660.13   25.20
   6   3   6  654.63   24.50
  -7  -3  -6  214.48    9.20
  -7  -3  -6  205.18    9.10
  -7  -3  -6  216.68    8.90
   7   3   6  206.08    9.60
   7   3   6  209.38    8.90
  -8  -3  -6   13.20    2.20
  -8  -3  -6   14.50    2.40
  -8  -3  -6   11.10    2.40
   8   3   6   13.50    3.50
   8   3   6   11.70    1.90
   8   3   6    9.90    2.20
  -9  -3  -6   34.20    4.40
  -9  -3  -6   30.00    3.30
   9   3   6   31.60    3.10
   9   3   6   33.40    3.70
 -10  -3  -6   -1.10    2.70
  10   3   6   -3.00    2.50
   7  -4  -6   71.09    6.40
   7  -4  -6   69.49    6.20
  -7   4   6   54.99    6.50
  -7   4   6   70.09    6.30
   6  -4  -6   83.59    4.60
   6  -4  -6   76.59    6.10
   6  -4  -6   76.29    5.80
  -6   4   6   71.69    6.00
  -6   4   6   81.99    5.70
   5  -4  -6    6.50    1.60
   5  -4  -6    5.70    2.30
   5  -4  -6    0.60    2.30
   5  -4  -6    5.80    3.30
  -5   4   6    4.40    2.20
  -5   4   6    5.60    2.30
  -5   4   6    6.40    2.60
   4  -4  -6   -0.10    1.00
   4  -4  -6   -0.20    1.80
   4  -4  -6    2.50    1.70
  -4   4   6   -0.80    1.80
  -4   4   6    0.20    1.60
  -4   4   6    2.60    2.10
   3  -4  -6   29.00    3.00
   3  -4  -6   26.80    2.70
   3  -4  -6   26.70    3.70
   3  -4  -6   25.20    2.10
  -3   4   6   24.30    2.80
  -3   4   6   24.80    2.60
  -3   4   6   25.30    3.40
   2  -4  -6  454.55   17.00
   2  -4  -6  446.86   17.10
   2  -4  -6  443.76   16.60
   2  -4  -6  418.26   17.30
   2  -4  -6  450.65   16.80
   2  -4  -6  437.26   16.40
  -2   4   6  442.86   16.80
  -2   4   6  430.36   16.60
  -2   4   6  443.66   16.90
  -2   4   6  429.86   17.00
   1  -4  -6   77.09    3.60
   1  -4  -6   77.09    4.00
   1  -4  -6   79.49    3.70
  -1   4   6   77.29    4.00
  -1   4   6   71.69    4.20
  -1   4   6   74.69    3.70
  -1   4   6   77.39    3.80
  -1   4   6   68.79    4.10
  -1   4   6   72.69    4.60
   0  -4  -6  477.85   18.00
   0  -4  -6  482.55   17.90
   0  -4  -6  473.65   18.80
   0   4   6  471.35   18.80
   0   4   6  493.35   17.90
  -1  -4  -6  143.49    6.10
  -1  -4  -6  148.99    5.60
  -1  -4  -6  148.39    6.10
   1   4   6  148.79    7.10
   1   4   6  143.49    6.10
   1   4   6  145.09    6.00
  -2  -4  -6    1.00    0.80
  -2  -4  -6    2.80    0.50
  -2  -4  -6   -0.30    0.80
   2   4   6    1.30    1.30
   2   4   6    2.20    0.90
   2   4   6    1.20    0.80
  -3  -4  -6    0.30    0.50
  -3  -4  -6   -0.30    0.40
  -3  -4  -6    0.20    0.80
  -3  -4  -6    0.50    1.20
   3   4   6    0.30    0.90
   3   4   6    2.30    1.40
  -4  -4  -6  154.58    7.30
  -4  -4  -6  144.59    5.80
  -4  -4  -6  148.69    6.50
   4   4   6  151.88    5.70
   4   4   6  151.88    6.30
   4   4   6  150.08    7.30
  -5  -4  -6    6.60    1.20
  -5  -4  -6    9.30    1.30
  -5  -4  -6    8.50    1.60
  -5  -4  -6    9.60    2.00
   5   4   6   10.10    1.50
   5   4   6   10.90    2.20
   5   4   6    8.20    1.10
  -6  -4  -6  398.06   15.70
  -6  -4  -6  393.56   15.30
   6   4   6  404.16   16.80
   6   4   6  408.56   15.40
  -7  -4  -6  132.99    6.70
  -7  -4  -6  128.49    6.60
   7   4   6  130.59    6.20
   7   4   6  133.79    5.40
   7   4   6  132.69    7.20
  -8  -4  -6   24.60    3.00
   8   4   6   29.50    3.80
   8   4   6   32.40    3.30
  -9  -4  -6  110.59    6.60
  -9  -4  -6  106.09    6.30
   9   4   6  113.99    6.20
 -10  -4  -6  100.99    7.10
  10   4   6  106.09    6.70
   6  -5  -6   37.50    3.50
   6  -5  -6   36.90    5.20
  -6   5   6   38.60    5.00
  -6   5   6   29.70    4.10
   5  -5  -6    4.60    2.20
   5  -5  -6    3.60    2.50
  -5   5   6    3.00    2.40
  -5   5   6    0.80    2.30
  -5   5   6    4.40    2.90
   4  -5  -6   35.70    3.90
   4  -5  -6   31.90    2.50
   4  -5  -6   32.20    4.00
  -4   5   6   32.80    4.40
  -4   5   6   36.00    3.80
  -4   5   6   32.40    4.20
   3  -5  -6    4.60    1.60
   3  -5  -6    3.20    1.50
   3  -5  -6    3.70    1.50
   3  -5  -6    0.90    1.70
   3  -5  -6    5.20    1.20
  -3   5   6    6.00    1.70
  -3   5   6    5.50    2.20
  -3   5   6    4.70    2.00
  -3   5   6    3.20    1.70
   2  -5  -6   40.00    2.90
   2  -5  -6   44.90    2.90
   2  -5  -6   41.20    2.80
  -2   5   6   42.20    3.10
  -2   5   6   40.50    3.40
   1  -5  -6  151.58    6.50
   1  -5  -6  163.48    7.60
   1  -5  -6  156.08    6.40
   1  -5  -6  151.68    6.20
  -1   5   6  140.89    7.50
  -1   5   6  140.89    7.00
  -1   5   6  150.28    6.40
  -1   5   6  151.88    6.70
   0  -5  -6  263.37   11.40
   0  -5  -6  259.97   10.40
   0  -5  -6  265.77   10.50
   0  -5  -6  272.37   10.10
   0   5   6  257.87   11.10
   0   5   6  269.57   10.30
   0   5   6  256.47   11.50
  -1  -5  -6   82.29    3.70
  -1  -5  -6   81.19    3.50
  -1  -5  -6   79.89    4.90
  -1  -5  -6   75.89    3.70
  -1  -5  -6   81.59    4.00
   1   5   6   79.99    5.00
   1   5   6   88.59    4.90
   1   5   6   78.49    3.90
  -2  -5  -6  207.58    7.80
  -2  -5  -6  214.88    9.60
  -2  -5  -6  209.18    8.50
   2   5   6  204.98    9.50
   2   5   6  206.58    8.30
   2   5   6  203.28    9.30
  -3  -5  -6   25.10    3.00
  -3  -5  -6   29.80    1.70
  -3  -5  -6   29.10    2.30
   3   5   6   30.30    2.30
   3   5   6   25.00    3.00
   3   5   6   31.40    3.30
  -4  -5  -6   20.60    3.00
  -4  -5  -6   21.40    2.20
  -4  -5  -6   17.30    1.70
   4   5   6   18.30    2.00
   4   5   6   19.30    2.70
  -5  -5  -6    6.20    2.00
  -5  -5  -6    6.90    1.40
  -5  -5  -6    5.50    1.60
   5   5   6    5.90    1.40
   5   5   6    5.40    2.30
  -6  -5  -6  106.09    5.60
  -6  -5  -6   99.29    6.10
  -6  -5  -6  105.39    5.10
   6   5   6  105.09    5.20
   6   5   6  116.69    6.60
  -7  -5  -6   23.60    3.20
  -7  -5  -6   30.40    4.40
  -7  -5  -6   21.20    3.10
   7   5   6   23.10    2.90
   7   5   6   25.20    5.10
  -8  -5  -6    1.00    2.00
   8   5   6   -2.20    1.90
  -9  -5  -6   91.19    6.10
   9   5   6   96.29    5.90
   9   5   6  102.99    7.80
 -10  -5  -6    4.10    3.40
  10   5   6    6.00    3.00
  -6   6   6   53.99    6.00
  -6   6   6   43.40    4.80
   5  -6  -6    1.50    2.20
  -5   6   6   -1.10    2.50
  -5   6   6    1.50    3.80
  -5   6   6    1.10    2.50
   4  -6  -6    3.50    2.70
   4  -6  -6   -0.20    2.00
   4  -6  -6    0.90    1.80
  -4   6   6    7.20    3.20
  -4   6   6   -1.40    2.60
   3  -6  -6   21.70    3.00
   3  -6  -6   22.90    2.90
   3  -6  -6   19.30    2.50
   3  -6  -6   24.30    2.20
  -3   6   6   25.10    3.70
  -3   6   6   25.60    3.00
   2  -6  -6   58.79    4.20
   2  -6  -6   55.09    4.30
   2  -6  -6   68.89    3.80
   2  -6  -6   67.09    4.00
   2  -6  -6   64.59    3.30
  -2   6   6   66.29    4.30
   1  -6  -6  749.92   28.50
   1  -6  -6  746.13   28.00
   1  -6  -6  808.82   28.50
   1  -6  -6  753.22   28.20
  -1   6   6  784.02   29.20
  -1   6   6  756.32   28.20
  -1   6   6  747.63   28.70
  -1   6   6  803.92   29.90
   0  -6  -6  222.28   10.70
   0  -6  -6  231.18    9.60
   0  -6  -6  240.28    9.10
   0   6   6  230.18    9.30
   0   6   6  224.88   10.80
   0   6   6  251.07   10.50
  -1  -6  -6   77.19    3.80
  -1  -6  -6   66.09    4.50
  -1  -6  -6   79.29    5.20
  -1  -6  -6   81.69    4.10
   1   6   6   76.69    4.90
   1   6   6   78.79    5.30
   1   6   6   80.29    3.90
  -2  -6  -6   78.29    4.10
  -2  -6  -6   80.69    5.20
   2   6   6   72.79    5.30
   2   6   6   73.89    4.90
   2   6   6   79.29    3.90
  -3  -6  -6    9.70    1.60
  -3  -6  -6    9.50    1.20
  -3  -6  -6   10.10    2.30
   3   6   6    7.50    2.20
   3   6   6   10.60    1.60
   3   6   6   11.80    2.50
  -4  -6  -6  436.16   17.90
  -4  -6  -6  434.96   16.80
  -4  -6  -6  426.46   16.10
   4   6   6  431.26   17.80
   4   6   6  438.36   16.40
   4   6   6  431.16   18.00
  -5  -6  -6    1.70    1.50
  -5  -6  -6    2.90    2.10
  -5  -6  -6    2.40    1.30
   5   6   6    0.90    1.30
   5   6   6   -0.50    2.20
  -6  -6  -6   27.30    3.90
  -6  -6  -6   16.00    2.60
   6   6   6   17.70    3.30
   6   6   6   16.60    2.20
  -7  -6  -6   41.60    4.70
  -7  -6  -6   37.60    4.00
   7   6   6   41.50    6.00
   7   6   6   35.20    3.50
  -8  -6  -6   -0.80    2.60
  -8  -6  -6    1.10    2.20
   8   6   6   -3.40    2.00
  -9  -6  -6   19.50    3.50
   9   6   6   20.10    3.20
   5  -7  -6   45.90    5.30
   5  -7  -6   36.80    4.70
  -5   7   6   42.30    5.50
   4  -7  -6   31.30    4.00
   4  -7  -6   40.40    3.90
   4  -7  -6   36.20    4.50
  -4   7   6   39.90    5.20
  -4   7   6   35.40    4.70
   3  -7  -6    2.30    2.00
   3  -7  -6    4.50    1.90
   3  -7  -6   -0.70    1.90
  -3   7   6    1.10    3.10
   2  -7  -6   31.70    3.00
   2  -7  -6   37.20    3.50
   2  -7  -6   31.10    3.20
  -2   7   6   33.00    3.80
  -2   7   6   35.00    6.50
   1  -7  -6  117.89    5.90
   1  -7  -6  116.69    6.90
   1  -7  -6  106.89    5.00
  -1   7   6  117.79    7.50
   0  -7  -6  328.27   12.20
   0  -7  -6  313.07   12.80
   0   7   6  310.47   14.40
   0   7   6  334.17   14.40
   0   7   6  304.57   12.20
  -1  -7  -6   80.09    5.80
  -1  -7  -6   76.29    4.40
   1   7   6   84.99    5.60
   1   7   6   70.49    5.80
  -2  -7  -6  217.78   10.20
  -2  -7  -6  206.08    8.80
  -2  -7  -6  208.08    8.00
   2   7   6  200.98    8.40
   2   7   6  195.88   10.20
   2   7   6  196.88    9.70
  -3  -7  -6   88.19    6.20
  -3  -7  -6   83.59    4.00
  -3  -7  -6   83.89    4.80
   3   7   6   96.09    6.20
   3   7   6   82.19    6.30
   3   7   6   91.49    4.40
  -4  -7  -6   57.79    5.30
  -4  -7  -6   59.39    3.30
  -4  -7  -6   56.39    4.00
   4   7   6   55.69    5.50
   4   7   6   55.89    3.60
   4   7   6   65.79    5.20
  -5  -7  -6  133.49    8.00
  -5  -7  -6  128.29    6.00
  -5  -7  -6  133.19    8.70
  -6  -7  -6   55.79    4.50
  -6  -7  -6   66.79    6.00
   6   7   6   53.59    5.70
   6   7   6   67.09    4.10
  -7  -7  -6    1.20    2.20
   7   7   6   -2.50    1.90
   7   7   6   -1.90    3.30
  -8  -7  -6    7.30    3.60
   8   7   6    6.90    4.00
   8   7   6   12.60    2.70
  -9  -7  -6    7.90    3.40
   9   7   6    7.00    4.70
   9   7   6    8.90    3.00
   4  -8  -6   10.60    3.40
  -4   8   6   12.80    4.80
  -4   8   6    5.20    3.20
   3  -8  -6   35.30    4.90
   3  -8  -6   39.00    3.80
   3  -8  -6   38.10    4.00
  -3   8   6   45.10    5.00
   2  -8  -6   27.30    3.30
  -2   8   6   17.80    4.30
  -2   8   6   22.00    3.30
  -2   8   6   22.30    5.70
   1  -8  -6    0.10    1.20
   1  -8  -6    1.00    1.80
  -1   8   6   -1.10    2.70
  -1   8   6    0.20    3.20
   0  -8  -6    8.60    2.00
   0   8   6   10.30    3.50
   0   8   6   11.40    3.00
  -1  -8  -6   38.30    5.00
  -1  -8  -6   22.60    2.80
  -1  -8  -6   32.50    3.30
   1   8   6   32.30    4.60
   1   8   6   37.60    4.80
  -2  -8  -6   34.30    3.50
  -2  -8  -6   39.70    4.90
   2   8   6   41.10    6.40
   2   8   6   38.10    5.30
  -3  -8  -6   36.00    2.90
  -3  -8  -6   38.70    3.70
  -3  -8  -6   41.80    5.20
   3   8   6   42.60    5.20
   3   8   6   34.70    3.10
   3   8   6   42.90    5.40
  -4  -8  -6  117.29    5.70
  -4  -8  -6  119.29    8.00
  -4  -8  -6  118.39    6.40
   4   8   6  111.69    7.70
   4   8   6  129.29    5.90
   4   8   6  121.49    8.10
  -5  -8  -6   31.20    4.60
  -5  -8  -6   41.10    4.10
   5   8   6   37.10    4.90
   5   8   6   48.60    6.10
  -6  -8  -6  102.99    6.40
  -6  -8  -6  111.09    8.00
   6   8   6  118.39    6.00
   6   8   6  110.89    8.10
  -7  -8  -6   19.70    4.30
  -8  -8  -6    0.70    3.00
  -8  -8  -6   -0.10    3.80
   8   8   6    2.80    4.10
   2  -9  -6    2.80    2.40
  -2   9   6   15.10    4.70
   1  -9  -6    9.80    2.50
  -1   9   6   15.10    4.00
  -1   9   6   13.80    4.50
   0  -9  -6   68.09    4.00
   0  -9  -6   66.89    5.00
   0   9   6   66.49    9.50
   0   9   6   65.09    6.50
  -1  -9  -6    1.50    1.40
  -1  -9  -6    4.00    2.20
   1   9   6    3.80    5.10
   1   9   6    1.30    3.70
  -2  -9  -6    7.20    3.50
  -2  -9  -6    3.00    2.20
  -2  -9  -6    4.40    1.60
   2   9   6    3.40    3.20
   2   9   6    4.70    3.70
  -3  -9  -6  195.28   10.70
  -3  -9  -6  193.48    8.90
  -3  -9  -6  188.88    8.10
   3   9   6  178.78   10.50
   3   9   6  178.98   10.80
  -4  -9  -6  219.78   11.70
  -4  -9  -6  210.78    9.10
  -4  -9  -6  209.28    9.90
   4   9   6  209.48   11.50
  -5  -9  -6   37.60    4.00
  -5  -9  -6   31.00    4.40
   5   9   6   49.10    6.30
   5   9   6   43.50    6.60
  -6  -9  -6    4.60    4.00
  -6  -9  -6    3.50    3.00
   6   9   6   -2.50    3.70
   6   9   6    3.30    3.20
  -7  -9  -6    9.90    3.10
  -7  -9  -6   13.10    4.60
   7   9   6   17.00    3.10
   0 -10  -6   12.50    3.00
   0  10   6   19.90    5.60
  -1 -10  -6   25.30    3.40
  -1 -10  -6   23.40    4.80
   1  10   6   30.50    5.70
   1  10   6   24.50    5.20
  -2 -10  -6    0.50    2.40
  -2 -10  -6   -2.40    3.50
   2  10   6    3.40    4.30
   2  10   6    3.90    6.70
  -3 -10  -6  213.18   12.20
  -3 -10  -6  200.78   10.00
   3  10   6  219.58   12.00
  -4 -10  -6    7.00    4.40
  -4 -10  -6    6.10    2.80
   4  10   6    5.30    4.10
  -5 -10  -6   17.80    3.50
   5  10   6   14.00    4.90
   5  10   6   17.80    5.20
   3   9  -7   13.90    3.40
  -3  -9   7   11.80    3.60
   2   9  -7    3.60    2.90
  -2  -9   7    6.10    2.80
   1   9  -7   59.99    5.40
  -1  -9   7   49.40    4.90
   0   9  -7   11.60    4.00
   0  -9   7   15.50    3.00
  -1   9  -7    9.00    3.30
   1  -9   7    6.30    3.40
   1  -9   7    8.50    2.70
  -2   9  -7    0.00    4.40
   2  -9   7    7.60    4.00
   2  -9   7    8.30    2.60
   5   8  -7   10.80    3.40
  -5  -8   7   17.20    4.30
   4   8  -7    0.50    4.30
  -4  -8   7    6.70    3.80
  -4  -8   7   -4.90    3.50
   3   8  -7   14.40    2.80
  -3  -8   7   15.80    4.30
  -3  -8   7   13.60    3.70
   2   8  -7   71.49    6.10
   2   8  -7   79.09    5.40
  -2  -8   7   80.29    6.50
  -2  -8   7   81.39    5.50
   1   8  -7    0.10    2.60
  -1  -8   7    0.30    2.80
  -1  -8   7   -1.10    2.20
   0   8  -7  109.49    6.60
   0   8  -7  123.29    7.40
   0  -8   7  119.09    6.30
   0  -8   7  137.89    9.10
   1  -8   7   75.39    5.60
  -2   8  -7   49.00    4.80
  -2   8  -7   49.99    4.50
   2  -8   7   53.39    4.00
   2  -8   7   45.50    4.60
  -3   8  -7   11.30    3.50
   3  -8   7    3.80    2.50
   3  -8   7    3.00    2.20
   3  -8   7    2.80    2.70
  -4   8  -7   43.10    6.30
   4  -8   7   53.89    4.50
  -6  -7   7   11.20    4.00
   5   7  -7    2.30    2.10
   5   7  -7   -1.00    2.90
  -5  -7   7   -2.50    3.50
   4   7  -7    8.40    2.30
   4   7  -7    9.80    2.00
  -4  -7   7   11.20    3.20
   3   7  -7   36.30    4.50
  -3  -7   7   37.10    4.40
  -2  -7   7   23.30    2.90
   1   7  -7    6.00    2.40
  -1  -7   7    4.00    2.20
  -1  -7   7    2.00    2.40
   0   7  -7   64.49    4.30
   0  -7   7   65.69    3.90
   0  -7   7   67.69    4.90
  -1   7  -7   93.79    6.00
  -1   7  -7   87.09    5.00
  -1   7  -7   86.79    5.00
   1  -7   7  101.79    6.30
   1  -7   7   95.39    4.90
  -2   7  -7   -0.70    2.30
   2  -7   7    0.20    2.10
   2  -7   7    1.70    1.70
  -3   7  -7  128.89    7.10
  -3   7  -7  144.79    7.60
   3  -7   7  117.89    6.20
   3  -7   7  144.79    6.90
  -4   7  -7   18.80    3.40
   4  -7   7   19.20    2.40
   4  -7   7   19.80    2.90
  -5   7  -7   14.40    3.60
   5  -7   7   12.50    2.80
   5  -7   7    6.80    2.50
   7   6  -7  256.47   10.80
   7   6  -7  246.88   13.00
  -7  -6   7  219.78   12.70
  -7  -6   7  234.48   14.30
   6   6  -7    1.10    2.80
   6   6  -7   -1.70    2.00
  -6  -6   7   -5.40    3.50
   5   6  -7  536.55   20.90
   5   6  -7  529.15   20.70
  -5  -6   7  522.35   21.50
  -5  -6   7  540.55   22.00
   4   6  -7  180.98    8.40
  -4  -6   7  195.88   10.40
  -4  -6   7  180.88    9.10
   3   6  -7   26.30    2.90
  -3  -6   7   27.90    3.60
   2   6  -7   21.60    2.60
   2   6  -7   22.60    2.20
  -2  -6   7   19.60    2.60
   1   6  -7  490.35   19.50
   1   6  -7  476.05   17.40
   1   6  -7  443.06   17.70
  -1  -6   7  451.65   17.90
  -1  -6   7  471.85   19.90
   0   6  -7   34.30    2.50
   0   6  -7   33.00    2.70
   0   6  -7   38.10    3.30
   0  -6   7   40.60    3.60
   0  -6   7   36.40    2.70
   0  -6   7   38.70    3.00
  -1   6  -7  682.03   25.50
  -1   6  -7  654.03   25.80
  -1   6  -7  734.63   25.50
   1  -6   7  655.03   24.90
   1  -6   7  680.63   25.70
  -2   6  -7   14.10    2.50
   2  -6   7   12.10    2.10
  -3   6  -7   34.00    3.70
   3  -6   7   31.50    2.80
   3  -6   7   29.90    3.90
  -4   6  -7   12.40    2.80
   4  -6   7   12.80    2.30
   4  -6   7   12.40    2.00
  -5   6  -7   10.30    2.90
   5  -6   7    9.80    2.30
  -6   6  -7    0.10    3.00
   7   5  -7    3.00    2.30
  -7  -5   7    4.70    3.80
   6   5  -7    6.70    2.10
   6   5  -7    5.60    2.10
  -6  -5   7    8.00    3.30
   5   5  -7    2.30    1.80
  -5  -5   7    2.90    2.60
  -5  -5   7    1.00    2.90
   4   5  -7   10.50    1.90
   4   5  -7   11.50    1.80
  -4  -5   7    9.70    2.60
   3   5  -7   31.00    2.60
   3   5  -7   31.60    2.50
  -3  -5   7   30.30    3.30
  -3  -5   7   25.50    3.40
   2   5  -7   93.99    4.60
   2   5  -7   96.79    4.40
   2   5  -7   93.99    4.80
  -2  -5   7   90.09    4.00
  -2  -5   7   91.39    5.00
  -2  -5   7   95.69    5.50
   1   5  -7   43.70    2.70
   1   5  -7   39.30    2.70
   1   5  -7   43.70    3.10
  -1  -5   7   45.60    3.10
  -1  -5   7   41.10    2.40
  -1  -5   7   47.20    3.60
   0   5  -7   83.29    4.50
   0   5  -7   82.19    4.20
   0   5  -7   87.49    4.00
   0  -5   7   85.19    4.20
   0  -5   7   94.49    4.80
  -1   5  -7  106.09    4.90
  -1   5  -7  108.09    5.00
  -1   5  -7  108.39    5.50
  -1   5  -7  114.99    4.80
   1  -5   7  113.99    5.00
   1  -5   7  114.79    5.50
   1  -5   7  111.39    4.90
  -2   5  -7   99.89    5.40
  -2   5  -7  115.89    4.90
   2  -5   7  105.79    5.30
   2  -5   7  107.29    5.20
  -3   5  -7   60.59    4.00
   3  -5   7   56.49    3.20
   3  -5   7   54.59    3.40
   3  -5   7   61.79    3.80
  -4   5  -7   41.10    3.60
  -4   5  -7   30.80    4.90
   4  -5   7   37.50    3.00
   4  -5   7   33.30    3.70
  -5   5  -7    7.50    2.40
  -5   5  -7   12.80    2.60
   5  -5   7   15.60    2.30
   5  -5   7   13.30    1.90
  -6   5  -7   -0.10    2.40
   6  -5   7   -1.00    2.00
  -7   5  -7   15.30    3.40
  -7   5  -7    7.40    3.10
   7  -5   7    3.50    2.50
   7  -5   7    6.30    2.70
   7   4  -7   31.10    3.60
   7   4  -7   27.40    4.50
  -7  -4   7   32.60    6.00
   6   4  -7   58.29    5.60
   6   4  -7   48.20    3.80
  -6  -4   7   39.70    5.30
  -6  -4   7   54.39    5.80
   5   4  -7   99.49    5.10
   5   4  -7  105.69    5.10
  -5  -4   7   90.19    6.60
   4   4  -7   11.20    1.70
   4   4  -7   15.00    1.80
   4   4  -7   13.40    1.90
  -4  -4   7   14.90    2.70
  -4  -4   7   14.70    2.50
   3   4  -7  418.56   16.10
   3   4  -7  442.46   16.30
   3   4  -7  417.96   16.00
  -3  -4   7  430.16   16.80
  -3  -4   7  427.06   17.20
   2   4  -7   94.39    4.40
   2   4  -7  101.89    4.50
  -2  -4   7   86.29    5.20
  -2  -4   7   98.09    4.90
   1   4  -7   71.89    3.50
   1   4  -7   69.99    3.50
   1   4  -7   68.59    3.60
  -1  -4   7   70.19    3.70
  -1  -4   7   67.29    4.20
   0   4  -7  209.78    8.30
   0   4  -7  213.48    8.40
   0   4  -7  209.58    8.60
   0  -4   7  212.28    7.90
   0  -4   7  210.18    8.90
   0  -4   7  208.68    8.40
  -1   4  -7  154.88    6.80
  -1   4  -7  166.08    6.50
   1  -4   7  151.18    6.50
   1  -4   7  155.98    6.90
  -2   4  -7   76.79    3.80
  -2   4  -7   79.39    4.10
  -2   4  -7   72.49    3.50
   2  -4   7   71.69    4.00
   2  -4   7   73.29    3.50
   2  -4   7   77.79    3.80
  -3   4  -7   67.09    3.90
  -3   4  -7   63.89    3.30
   3  -4   7   74.49    3.40
   3  -4   7   73.19    3.70
   3  -4   7   69.29    3.80
  -4   4  -7  100.69    5.20
  -4   4  -7  104.49    5.20
  -4   4  -7   95.69    4.30
   4  -4   7  106.89    4.80
   4  -4   7   93.99    4.90
  -5   4  -7   10.30    2.00
   5  -4   7   11.80    1.90
   5  -4   7   14.30    2.20
  -6   4  -7   78.99    5.10
   6  -4   7   81.89    4.70
  -7   4  -7  123.19    7.20
  -7   4  -7  111.29    6.80
   7  -4   7  126.19    6.30
   7  -4   7  121.99    6.30
  -8   4  -7   31.70    4.40
   8  -4   7   31.70    4.20
   8  -4   7   29.40    4.10
   8   3  -7    3.70    2.50
   8   3  -7   -3.90    4.40
  -8  -3   7   -8.90    3.90
  -8  -3   7    1.70    4.10
   7   3  -7    1.40    1.80
   7   3  -7   -3.60    1.70
  -7  -3   7   -4.60    3.30
  -7  -3   7   -0.10    3.40
   6   3  -7   19.50    2.30
   6   3  -7   13.80    2.20
  -6  -3   7   19.20    3.40
  -6  -3   7   22.50    3.90
   5   3  -7    1.10    1.40
   5   3  -7    0.60    1.20
  -5  -3   7    4.60    2.40
  -5  -3   7   -0.90    2.30
   4   3  -7   99.39    4.70
   4   3  -7  105.79    4.90
  -4  -3   7   94.39    6.00
  -4  -3   7  101.19    5.70
   3   3  -7   61.39    3.20
   3   3  -7   55.89    2.90
   3   3  -7   59.19    3.20
  -3  -3   7   62.49    3.80
  -3  -3   7   59.89    4.20
   2   3  -7   45.50    2.70
   2   3  -7   46.00    2.50
   2   3  -7   51.29    2.70
  -2  -3   7   42.50    3.50
  -2  -3   7   46.80    3.40
   1   3  -7   19.40    1.70
   1   3  -7   19.20    1.60
   1   3  -7   17.90    1.60
  -1  -3   7   14.30    2.00
  -1  -3   7   15.50    1.90
  -1  -3   7   16.00    1.90
   0   3  -7  766.42   28.80
   0  -3   7  813.32   29.30
   0  -3   7  779.82   28.90
   0  -3   7  805.12   28.80
  -1   3  -7  216.98    8.20
  -1   3  -7  190.68    7.40
   1  -3   7  183.08    7.50
   1  -3   7  187.38    8.00
   1  -3   7  193.28    7.80
  -2   3  -7   31.50    1.90
  -2   3  -7   30.60    2.10
  -2   3  -7   33.00    2.20
   2  -3   7   29.10    2.30
   2  -3   7   30.10    1.80
   2  -3   7   27.90    2.20
  -3   3  -7  992.30   38.50
  -3   3  -7 1066.59   38.40
  -3   3  -7 1073.69   38.10
   3  -3   7 1047.20   38.40
   3  -3   7 1071.29   38.30
   3  -3   7 1094.49   38.00
  -4   3  -7  268.57   10.80
  -4   3  -7  272.07   10.70
  -4   3  -7  257.97   10.10
   4  -3   7  267.27   10.10
   4  -3   7  260.17   10.40
   4  -3   7  274.77   10.60
   5  -3   7    5.70    1.50
   5  -3   7    3.90    1.20
   5  -3   7    4.90    1.40
  -6   3  -7   52.69    3.80
  -6   3  -7   52.79    4.10
   6  -3   7   46.20    3.40
  -7   3  -7    2.20    2.10
  -7   3  -7    7.40    2.60
   7  -3   7    0.60    1.80
  -8   3  -7    1.30    2.90
   8  -3   7   -0.50    2.40
   8  -3   7    1.70    2.10
   8   2  -7   41.80    5.30
  -8  -2   7   42.80    5.70
   7   2  -7   62.79    5.90
   7   2  -7   63.29    4.40
   7   2  -7   71.19    6.20
  -7  -2   7   68.19    6.50
  -7  -2   7   58.19    6.20
   6   2  -7   -0.10    1.30
   6   2  -7    0.70    1.50
  -6  -2   7   -1.90    2.50
  -6  -2   7   -1.60    2.60
   5   2  -7   -0.60    1.00
   5   2  -7   -1.40    1.20
  -5  -2   7    3.20    2.10
  -5  -2   7   -3.30    2.10
   4   2  -7   43.30    2.80
   4   2  -7   42.80    2.60
  -4  -2   7   40.60    3.60
  -4  -2   7   38.30    2.20
  -4  -2   7   42.00    4.00
   3   2  -7   96.99    4.50
   3   2  -7   94.69    4.30
  -3  -2   7  105.29    5.50
  -3  -2   7   84.69    4.90
   2   2  -7  396.26   14.50
   2   2  -7  402.46   14.50
   2   2  -7  354.66   14.10
  -2  -2   7  359.46   14.70
  -2  -2   7  407.86   14.70
  -2  -2   7  376.86   15.20
   1   2  -7  203.08    8.50
   1   2  -7  242.48    8.80
   1   2  -7  216.38    8.70
  -1  -2   7  208.98    9.30
  -1  -2   7  222.88    8.90
  -1  -2   7  235.58    8.90
   0   2  -7  133.89    5.60
   0  -2   7  132.79    5.50
   0  -2   7  137.39    5.80
   0  -2   7  134.49    6.00
  -1   2  -7   20.10    1.90
  -1   2  -7   18.90    1.30
  -1   2  -7   23.50    1.70
  -1   2  -7   23.10    1.40
   1  -2   7   20.70    1.90
   1  -2   7   20.60    1.80
  -2   2  -7    8.30    1.10
  -2   2  -7   10.60    1.30
   2  -2   7    9.80    1.30
   2  -2   7   10.20    1.40
  -3   2  -7  227.38    9.10
  -3   2  -7  228.08    9.80
  -3   2  -7  225.08    9.30
  -3   2  -7  244.88    9.00
   3  -2   7  232.98    9.20
   3  -2   7  229.68    9.10
  -4   2  -7   11.80    1.70
  -4   2  -7   10.30    1.30
  -4   2  -7   12.20    1.70
   4  -2   7    9.80    1.40
   4  -2   7   10.60    1.40
  -5   2  -7   57.09    3.30
  -5   2  -7   53.19    2.80
  -5   2  -7   55.29    3.50
   5  -2   7   53.59    3.10
   5  -2   7   50.79    2.80
   5  -2   7   48.60    3.10
  -6   2  -7  182.08    7.70
  -6   2  -7  168.48    7.90
   6  -2   7  173.98    7.50
   6  -2   7  171.78    7.40
   6  -2   7  174.78    7.20
  -7   2  -7  308.37   12.50
   7  -2   7  305.27   12.20
   7  -2   7  298.47   12.00
   7  -2   7  308.97   12.30
  -8   2  -7   17.40    2.80
  -8   2  -7   16.00    3.00
   8  -2   7   16.00    2.60
   8  -2   7   18.60    2.50
   8  -2   7   11.50    2.60
  -9   2  -7   -0.10    2.90
  -9   2  -7   -1.30    2.70
   9  -2   7   -2.20    2.30
   8   1  -7    8.30    2.40
   8   1  -7    9.10    3.90
  -8  -1   7    1.90    3.80
  -8  -1   7   14.60    4.40
   7   1  -7   53.89    5.70
   7   1  -7   43.20    3.80
  -7  -1   7   42.10    4.90
  -7  -1   7   45.70    5.40
   6   1  -7   27.30    2.90
   6   1  -7   29.30    3.90
   6   1  -7   24.60    2.30
  -6  -1   7   30.70    4.20
  -6  -1   7   30.40    4.00
   5   1  -7   -0.80    1.20
   5   1  -7    0.60    0.90
  -5  -1   7    1.60    1.20
  -5  -1   7    6.10    2.10
   4   1  -7    3.20    1.00
   4   1  -7    4.50    1.30
  -4  -1   7    1.60    1.80
  -4  -1   7    4.90    1.80
  -4  -1   7    4.30    1.60
   3   1  -7    5.50    1.50
   3   1  -7    6.20    1.20
   3   1  -7    9.40    1.00
   3   1  -7    7.90    1.20
  -3  -1   7    7.20    1.80
  -3  -1   7    7.90    1.80
   2   1  -7  257.87   10.00
   2   1  -7  259.77   10.00
   2   1  -7  262.67   10.30
  -2  -1   7  232.68   10.20
  -2  -1   7  263.17   10.80
  -2  -1   7  260.77   10.20
   1   1  -7   13.30    1.50
   1   1  -7   16.50    1.40
   1   1  -7   13.50    1.50
  -1  -1   7   15.70    1.70
  -1  -1   7   14.70    2.10
  -1  -1   7   14.40    1.70
   0   1  -7  751.52   27.40
   0   1  -7  731.13   26.80
   0   1  -7  742.63   27.20
   0  -1   7  764.32   27.40
   0  -1   7  747.23   27.70
  -1   1  -7    1.90    0.50
  -1   1  -7    1.10    0.40
  -1   1  -7    1.90    0.70
  -1   1  -7    1.20    0.70
   1  -1   7    0.50    0.80
   1  -1   7    0.20    0.60
   1  -1   7    0.50    0.90
  -2   1  -7  654.13   24.20
  -2   1  -7  673.93   24.80
   2  -1   7  721.13   24.20
   2  -1   7  690.63   24.80
   2  -1   7  633.24   24.70
  -3   1  -7  865.81   31.60
  -3   1  -7  835.62   32.10
  -3   1  -7  872.11   31.80
   3  -1   7  879.51   31.70
   3  -1   7  860.01   31.70
   3  -1   7  919.71   31.10
  -4   1  -7  410.06   15.50
  -4   1  -7  410.76   15.40
  -4   1  -7  401.36   15.60
   4  -1   7  432.06   14.90
   4  -1   7  420.66   15.50
   4  -1   7  379.76   15.30
  -5   1  -7   44.00    2.90
  -5   1  -7   45.50    3.00
   5  -1   7   43.10    2.40
   5  -1   7   42.70    2.80
   5  -1   7   46.00    2.70
  -6   1  -7  952.40   36.00
  -6   1  -7  960.90   36.20
   6  -1   7 1011.10   35.90
   6  -1   7  980.80   35.70
   6  -1   7  999.00   35.50
  -7   1  -7  157.08    7.00
  -7   1  -7  144.89    7.40
   7  -1   7  155.78    6.80
   7  -1   7  155.28    6.70
   7  -1   7  150.28    7.00
  -8   1  -7  250.77    9.90
  -8   1  -7  208.28   10.30
   8  -1   7  237.98    9.70
   8  -1   7  224.08    9.80
   8  -1   7  212.88    9.60
  -9   1  -7    8.90    2.60
  -9   1  -7    8.00    3.90
   9  -1   7    6.10    3.10
   9  -1   7    7.90    2.30
   8   0  -7   50.69    4.40
   8   0  -7   52.99    6.60
  -8   0   7   39.60    5.30
   7   0  -7  114.09    5.90
   7   0  -7  120.59    7.70
  -7   0   7  114.49    8.10
  -7   0   7   99.09    7.50
   6   0  -7    0.60    1.50
   6   0  -7    0.70    2.40
   6   0  -7    1.60    1.20
  -6   0   7    5.60    2.70
  -6   0   7   -2.00    1.70
  -6   0   7    5.30    2.70
   5   0  -7   67.89    5.00
   5   0  -7   66.49    3.80
  -5   0   7   69.69    5.40
  -5   0   7   70.59    5.00
  -5   0   7   65.99    3.80
   4   0  -7  367.56   13.20
   4   0  -7  358.66   14.00
   4   0  -7  362.46   13.70
  -4   0   7  357.36   13.60
  -4   0   7  359.86   14.70
  -4   0   7  358.56   15.10
   3   0  -7  198.48    8.60
   3   0  -7  215.38    8.50
   3   0  -7  217.68    8.60
  -3   0   7  212.58    8.10
  -3   0   7  228.88    9.30
  -3   0   7  209.98    9.50
   2   0  -7  159.98    7.30
   2   0  -7  171.18    6.30
   2   0  -7  170.68    7.00
   2   0  -7  160.68    6.90
  -2   0   7  167.48    6.30
  -2   0   7  173.58    7.70
  -2   0   7  174.18    7.30
  -2   0   7  168.08    7.10
   1   0  -7   81.19    3.80
   1   0  -7   79.29    3.70
   1   0  -7   78.89    3.80
  -1   0   7   79.79    3.90
  -1   0   7   76.69    4.20
   0   0  -7   42.30    2.50
   0   0  -7   38.20    1.90
   0   0  -7   38.30    2.40
   0   0   7   41.80    2.50
   0   0   7   39.70    2.20
   0   0   7   40.60    2.70
  -1   0  -7  494.75   17.30
  -1   0  -7  445.96   17.20
  -1   0  -7  459.15   16.50
  -1   0  -7  455.65   16.30
   1   0   7  462.85   16.50
   1   0   7  433.56   17.00
   1   0   7  440.96   17.10
  -2   0  -7  158.08    6.20
  -2   0  -7  158.88    6.80
  -2   0  -7  158.58    6.70
   2   0   7  165.98    6.60
   2   0   7  157.28    6.60
  -3   0  -7   96.19    4.50
  -3   0  -7   92.59    4.40
  -3   0  -7   89.29    4.00
   3   0   7   90.79    4.20
   3   0   7   91.29    4.50
   3   0   7   90.79    4.10
  -4   0  -7   19.20    2.00
  -4   0  -7   18.20    1.90
  -4   0  -7   18.20    1.70
   4   0   7   16.80    1.00
   4   0   7   20.60    1.90
   4   0   7   16.20    1.60
   4   0   7   15.20    2.10
  -5   0  -7   81.59    4.00
  -5   0  -7   78.29    4.00
  -5   0  -7   70.39    3.90
   5   0   7   71.39    4.00
   5   0   7   74.79    3.60
   5   0   7   78.19    3.90
   5   0   7   73.79    3.30
  -6   0  -7   82.29    4.30
  -6   0  -7   69.49    4.70
  -6   0  -7   85.29    4.30
  -6   0  -7   79.99    4.50
   6   0   7   82.29    4.30
   6   0   7   82.49    4.20
   6   0   7   88.79    4.50
   6   0   7   88.59    4.10
  -7   0  -7  634.94   24.90
  -7   0  -7  652.23   24.20
  -7   0  -7  658.33   24.60
   7   0   7  648.44   24.20
   7   0   7  670.63   24.40
   7   0   7  665.73   24.60
  -8   0  -7  282.37   12.30
  -8   0  -7  287.67   11.70
   8   0   7  280.67   11.70
   8   0   7  275.17   11.80
   8   0   7  301.17   11.70
  -9   0  -7   10.90    2.80
  -9   0  -7   12.80    2.80
   9   0   7    8.30    2.50
 -10   0  -7    1.40    3.30
  10   0   7   -0.20    2.80
   8  -1  -7   68.79    5.10
   8  -1  -7   79.69    8.00
  -8   1   7   64.59    7.50
   7  -1  -7   36.60    4.80
   7  -1  -7   34.90    3.50
  -7   1   7   48.40    6.00
  -7   1   7   30.80    5.40
  -7   1   7   37.00    4.40
   6  -1  -7   92.59    5.00
   6  -1  -7   89.69    6.50
   6  -1  -7  104.09    5.40
  -6   1   7   86.49    6.30
  -6   1   7   95.49    6.70
  -6   1   7   83.29    5.10
   5  -1  -7   20.60    2.00
   5  -1  -7   24.10    2.40
   5  -1  -7   32.40    4.00
  -5   1   7   21.30    3.10
  -5   1   7   21.00    3.40
   4  -1  -7   92.69    4.30
   4  -1  -7   93.89    5.50
   4  -1  -7   88.59    4.50
  -4   1   7   85.29    5.60
  -4   1   7   87.99    5.30
  -4   1   7   95.69    4.40
   3  -1  -7   16.80    1.80
   3  -1  -7   16.00    1.80
  -3   1   7   20.10    2.70
  -3   1   7   18.70    3.40
   2  -1  -7  153.68    6.20
   2  -1  -7  171.58    6.80
   2  -1  -7  159.28    6.60
  -2   1   7  159.08    6.20
  -2   1   7  149.69    7.30
  -2   1   7  158.88    6.90
  -2   1   7  157.28    6.80
   1  -1  -7   14.30    1.70
   1  -1  -7   13.30    1.90
   1  -1  -7   17.90    1.20
  -1   1   7   16.30    2.10
  -1   1   7   14.80    2.10
  -1   1   7   15.10    1.80
   0  -1  -7  161.28    6.30
   0  -1  -7  156.58    6.90
   0  -1  -7  168.18    6.20
   0  -1  -7  155.58    6.90
   0   1   7  158.88    7.00
   0   1   7  163.98    6.80
   0   1   7  171.68    6.50
  -1  -1  -7  440.76   17.10
  -1  -1  -7  461.65   17.20
  -1  -1  -7  439.46   16.30
  -1  -1  -7  473.75   16.10
   1   1   7  443.36   17.20
   1   1   7  436.56   16.80
  -2  -1  -7   24.80    2.10
  -2  -1  -7   23.60    2.10
   2   1   7   21.90    2.10
   2   1   7   23.80    2.10
   2   1   7   23.70    1.80
   2   1   7   20.60    1.70
  -3  -1  -7   99.09    4.90
  -3  -1  -7  101.79    5.00
   3   1   7  110.29    4.50
   3   1   7   99.99    5.00
   3   1   7  103.69    4.60
  -4  -1  -7    1.00    1.10
  -4  -1  -7   -0.90    0.70
  -4  -1  -7    0.60    1.00
   4   1   7    0.60    0.80
   4   1   7   -0.60    0.90
   4   1   7    0.60    1.10
  -5  -1  -7    3.40    1.50
  -5  -1  -7    3.60    0.80
  -5  -1  -7    4.10    1.20
  -5  -1  -7    4.40    1.30
   5   1   7    3.80    1.20
   5   1   7    4.70    0.90
   5   1   7    4.30    1.00
   5   1   7    4.90    1.50
  -6  -1  -7   62.89    3.30
  -6  -1  -7   63.39    3.70
  -6  -1  -7   64.49    3.80
  -6  -1  -7   63.19    4.10
   6   1   7   66.59    3.70
   6   1   7   66.39    4.30
  -7  -1  -7    1.00    1.50
  -7  -1  -7    3.60    2.70
  -7  -1  -7    3.70    1.50
  -7  -1  -7    1.00    1.30
   7   1   7    1.10    1.50
   7   1   7    3.40    1.70
   7   1   7    3.30    1.60
  -8  -1  -7    0.70    1.90
   8   1   7    4.40    2.00
  -9  -1  -7   59.59    4.20
  -9  -1  -7   44.70    4.80
   9   1   7   51.69    4.50
 -10  -1  -7   20.30    3.80
  10   1   7   30.00    3.60
  10   1   7   27.40    4.60
   7  -2  -7   16.20    3.80
   7  -2  -7    9.80    2.20
  -7   2   7   11.90    3.20
   6  -2  -7  120.59    7.50
   6  -2  -7  123.89    6.00
  -6   2   7  120.99    7.60
  -6   2   7  108.59    7.30
   5  -2  -7    2.60    1.30
   5  -2  -7    1.00    1.00
   5  -2  -7   -0.20    3.30
  -5   2   7    2.20    3.90
  -5   2   7    0.00    2.10
   4  -2  -7   95.99    5.90
   4  -2  -7   96.69    4.80
   4  -2  -7   98.59    4.80
   4  -2  -7  102.69    4.90
  -4   2   7  103.49    6.10
  -4   2   7  101.59    4.90
  -4   2   7   98.19    5.70
   3  -2  -7  114.69    6.00
   3  -2  -7  110.29    5.10
   3  -2  -7  111.09    5.10
   3  -2  -7  107.49    5.80
  -3   2   7  110.09    5.70
  -3   2   7  116.29    6.10
  -3   2   7  114.69    5.10
   2  -2  -7  283.57   11.00
   2  -2  -7  278.97   10.70
   2  -2  -7  293.17   11.40
  -2   2   7  282.27   11.20
  -2   2   7  281.87   10.80
  -2   2   7  274.27   11.70
   1  -2  -7  461.15   17.40
   1  -2  -7  454.45   17.50
  -1   2   7  436.46   17.60
  -1   2   7  451.45   17.10
  -1   2   7  479.15   17.30
   0  -2  -7    1.20    1.00
   0  -2  -7    2.10    0.90
   0  -2  -7    0.80    1.00
   0  -2  -7    2.80    0.90
   0   2   7    2.60    0.80
   0   2   7    3.60    1.20
   0   2   7    1.00    0.90
  -1  -2  -7 1067.39   36.70
  -1  -2  -7 1026.70   37.80
  -1  -2  -7 1004.20   36.60
  -1  -2  -7  997.40   37.70
   1   2   7 1047.20   37.30
   1   2   7 1024.70   37.30
   1   2   7 1020.10   37.70
  -2  -2  -7    1.90    0.80
   2   2   7    2.20    1.10
   2   2   7    2.80    0.90
  -3  -2  -7    7.10    1.10
  -3  -2  -7    7.60    1.50
   3   2   7    6.40    1.60
   3   2   7    6.40    1.10
  -4  -2  -7   34.80    2.30
  -4  -2  -7   40.00    2.90
   4   2   7   34.30    2.40
   4   2   7   33.70    2.10
  -5  -2  -7   15.80    2.00
  -5  -2  -7   13.60    2.00
   5   2   7   15.50    2.20
   5   2   7   12.80    1.60
   5   2   7   10.70    1.50
  -6  -2  -7  412.06   15.70
  -6  -2  -7  401.76   15.00
  -6  -2  -7  399.36   15.90
   6   2   7  396.36   15.50
  -7  -2  -7  715.53   26.90
  -7  -2  -7  734.33   26.70
  -7  -2  -7  704.03   26.20
   7   2   7  707.63   26.50
   7   2   7  693.63   26.90
  -8  -2  -7   70.89    4.90
   8   2   7   76.69    5.20
   8   2   7   70.59    4.60
  -9  -2  -7   14.50    2.40
  -9  -2  -7   14.20    2.80
   9   2   7   14.40    2.80
   9   2   7   17.00    2.30
 -10  -2  -7   -3.70    2.80
  10   2   7    1.80    2.30
   7  -3  -7   47.80    4.20
  -7   3   7   49.90    6.10
  -7   3   7   60.89    5.50
   6  -3  -7   -1.90    1.70
   6  -3  -7    5.30    2.90
  -6   3   7    0.60    2.80
  -6   3   7   -1.40    2.40
   5  -3  -7   72.09    3.80
   5  -3  -7   74.59    4.20
   5  -3  -7   75.19    5.70
  -5   3   7   82.69    6.00
  -5   3   7   82.59    6.50
   4  -3  -7    3.30    1.20
   4  -3  -7    3.10    1.80
   4  -3  -7    3.20    1.30
   4  -3  -7    4.40    2.00
  -4   3   7    4.00    2.10
  -4   3   7    4.70    2.20
   3  -3  -7  142.99    6.00
   3  -3  -7  132.19    6.60
   3  -3  -7  133.39    6.90
  -3   3   7  145.99    7.20
  -3   3   7  137.39    6.20
   2  -3  -7   34.10    2.40
   2  -3  -7   38.30    3.10
   2  -3  -7   37.40    2.30
   2  -3  -7   33.00    2.70
  -2   3   7   33.80    3.10
  -2   3   7   35.20    2.60
  -2   3   7   34.70    2.50
   1  -3  -7    0.60    1.00
   1  -3  -7    1.90    0.80
  -1   3   7    1.30    1.10
  -1   3   7    2.20    1.40
  -1   3   7    1.40    0.90
  -1   3   7    2.20    1.00
   0  -3  -7 2364.46   83.19
   0  -3  -7 2126.69   82.39
   0  -3  -7 2364.96   82.29
   0  -3  -7 2329.57   82.39
   0   3   7 2279.37   82.89
   0   3   7 2395.86   82.69
  -1  -3  -7  262.27   10.20
  -1  -3  -7  264.87    9.80
  -1  -3  -7  272.87   10.20
   1   3   7  265.57   13.00
   1   3   7  263.37   10.40
  -2  -3  -7  615.14   22.60
  -2  -3  -7  596.04   22.30
   2   3   7  620.34   22.80
   2   3   7  639.24   23.50
  -3  -3  -7   39.60    1.90
  -3  -3  -7   40.80    3.20
  -3  -3  -7   41.10    2.50
   3   3   7   38.40    3.20
   3   3   7   44.10    2.60
  -4  -3  -7  164.58    6.80
  -4  -3  -7  156.28    6.50
  -4  -3  -7  154.18    7.40
   4   3   7  160.28    6.70
   4   3   7  164.38    7.50
  -5  -3  -7   13.70    2.10
  -5  -3  -7   11.70    1.70
  -5  -3  -7   10.80    1.20
   5   3   7    9.40    1.20
   5   3   7   12.80    2.10
   5   3   7   10.30    1.60
  -6  -3  -7   26.20    2.70
   6   3   7   26.20    2.00
   6   3   7   30.50    3.50
   6   3   7   26.50    2.50
  -7  -3  -7  253.67   10.60
  -7  -3  -7  230.18   10.50
  -7  -3  -7  241.98   10.00
   7   3   7  253.57   10.30
   7   3   7  248.68   11.60
   7   3   7  257.47   10.30
  -8  -3  -7   27.20    3.60
   8   3   7   22.00    3.30
   8   3   7   22.70    2.50
   8   3   7   21.30    2.70
  -9  -3  -7    2.90    2.10
  -9  -3  -7    2.20    2.30
   9   3   7   -0.30    2.20
   9   3   7   -0.70    1.70
 -10  -3  -7   13.40    3.60
  10   3   7   18.30    3.20
   6  -4  -7    5.70    2.80
   6  -4  -7    3.90    1.90
   6  -4  -7    4.40    3.00
  -6   4   7    6.10    2.90
  -6   4   7   -0.60    2.90
   5  -4  -7  138.19    6.50
   5  -4  -7  137.89    7.90
   5  -4  -7  146.59    7.60
  -5   4   7  143.39    7.90
  -5   4   7  139.69    7.20
   4  -4  -7   17.80    2.70
   4  -4  -7   18.10    2.20
   4  -4  -7   18.20    2.60
   4  -4  -7   17.80    3.00
   4  -4  -7   17.00    2.30
  -4   4   7   16.50    2.90
  -4   4   7   13.40    2.70
   3  -4  -7  247.58   10.90
   3  -4  -7  248.18   10.00
   3  -4  -7  248.28   10.20
   3  -4  -7  243.18   10.40
   3  -4  -7  245.28    9.90
   3  -4  -7  248.58   11.00
  -3   4   7  244.78   11.00
  -3   4   7  248.98   10.20
  -3   4   7  261.57   11.10
   2  -4  -7  138.49    6.50
   2  -4  -7  132.29    6.90
   2  -4  -7  138.59    6.60
   2  -4  -7  137.09    6.00
   2  -4  -7  139.89    6.00
   2  -4  -7  130.89    6.20
  -2   4   7  138.59    7.00
  -2   4   7  137.39    6.40
  -2   4   7  142.79    6.20
  -2   4   7  136.19    6.10
  -2   4   7  140.49    6.80
  -2   4   7  139.99    6.60
   1  -4  -7    7.30    1.70
   1  -4  -7    7.90    1.30
   1  -4  -7    9.80    1.40
   1  -4  -7    8.60    2.00
  -1   4   7    9.60    2.10
  -1   4   7    7.40    1.70
  -1   4   7    7.50    1.40
  -1   4   7    6.80    1.70
  -1   4   7    8.00    1.40
  -1   4   7    6.40    1.30
   0  -4  -7  308.87   13.70
   0  -4  -7  311.47   12.00
   0   4   7  317.07   13.30
   0   4   7  319.47   12.60
   0   4   7  322.57   13.10
   0   4   7  329.77   12.40
  -1  -4  -7   31.40    1.60
  -1  -4  -7   31.70    2.90
  -1  -4  -7   30.20    2.30
   1   4   7   31.10    3.20
   1   4   7   25.50    2.20
   1   4   7   25.00    3.00
  -2  -4  -7  241.38    9.80
  -2  -4  -7  254.97   11.10
  -2  -4  -7  278.27   10.20
  -2  -4  -7  258.37    9.60
  -2  -4  -7  260.37    9.50
   2   4   7  262.17   10.20
   2   4   7  266.27   11.10
   2   4   7  252.67    9.90
  -3  -4  -7   10.30    1.10
  -3  -4  -7   10.80    1.40
  -3  -4  -7   11.40    2.00
  -3  -4  -7   11.00    1.00
   3   4   7   14.40    2.20
   3   4   7   13.90    1.70
   3   4   7   10.40    1.50
  -4  -4  -7  775.82   29.30
  -4  -4  -7  771.82   28.40
  -4  -4  -7  786.32   27.60
  -4  -4  -7  727.53   27.60
   4   4   7  771.32   28.20
   4   4   7  789.92   27.70
   4   4   7  748.93   29.10
  -5  -4  -7   78.39    4.20
  -5  -4  -7   63.99    4.20
  -5  -4  -7   73.79    3.50
  -5  -4  -7   77.29    4.80
   5   4   7   76.39    5.00
   5   4   7   73.99    3.90
   5   4   7   72.69    3.30
  -6  -4  -7   61.89    3.60
  -6  -4  -7   60.29    4.00
   6   4   7   77.49    6.40
   6   4   7   67.59    3.80
  -7  -4  -7   18.90    2.80
  -7  -4  -7   24.80    5.30
  -7  -4  -7   21.60    2.40
   7   4   7   22.20    3.00
   7   4   7   19.30    3.50
   7   4   7   21.60    2.00
  -8  -4  -7   91.69    5.70
  -8  -4  -7   91.69    5.60
   8   4   7   93.59    6.50
   8   4   7   96.69    5.40
  -9  -4  -7   29.40    4.30
  -9  -4  -7   35.60    4.50
   9   4   7   35.80    4.00
 -10  -4  -7   -2.10    3.00
  10   4   7   -5.10    2.80
   6  -5  -7   11.00    3.10
  -6   5   7    8.10    3.30
  -6   5   7    5.90    3.50
   5  -5  -7   -0.40    3.00
   5  -5  -7   -2.20    1.50
   5  -5  -7   -2.80    2.20
  -5   5   7    1.40    2.60
  -5   5   7    1.40    2.50
   4  -5  -7    6.30    1.70
   4  -5  -7    7.40    1.60
   4  -5  -7    8.60    2.20
   4  -5  -7    4.70    1.80
  -4   5   7    7.30    2.40
  -4   5   7    8.70    2.40
  -4   5   7    4.90    2.70
   3  -5  -7    9.10    1.50
   3  -5  -7    8.90    1.90
   3  -5  -7    7.70    1.80
  -3   5   7   12.10    2.20
   2  -5  -7  163.88    6.80
   2  -5  -7  156.68    7.10
  -2   5   7  163.18    7.00
  -2   5   7  162.28    8.70
  -2   5   7  161.08    8.20
   1  -5  -7  148.39    6.30
   1  -5  -7  145.59    7.50
   1  -5  -7  144.29    6.40
   1  -5  -7  136.79    7.00
   1  -5  -7  140.69    6.20
  -1   5   7  153.58    7.20
  -1   5   7  146.49    6.40
  -1   5   7  152.48    7.80
   0  -5  -7   97.59    4.70
   0  -5  -7   94.69    4.60
   0   5   7   95.89    4.80
   0   5   7   89.99    4.60
   0   5   7  100.89    5.90
   0   5   7   95.59    5.50
  -1  -5  -7  388.86   16.20
  -1  -5  -7  356.26   14.00
  -1  -5  -7  350.76   13.40
   1   5   7  359.26   15.20
   1   5   7  354.96   13.90
   1   5   7  372.86   15.00
  -2  -5  -7  195.68    9.10
  -2  -5  -7  191.68    7.30
  -2  -5  -7  192.28    7.50
  -2  -5  -7  186.18    8.00
  -2  -5  -7  197.78    7.20
   2   5   7  193.18    7.90
   2   5   7  186.68    7.50
   2   5   7  194.08    9.00
   2   5   7  191.08    9.10
  -3  -5  -7  342.67   12.70
  -3  -5  -7  337.77   14.60
  -3  -5  -7  342.47   13.50
   3   5   7  365.76   13.40
   3   5   7  342.47   14.50
  -4  -5  -7   21.60    1.80
  -4  -5  -7   21.30    3.00
  -4  -5  -7   23.00    2.40
   4   5   7   24.80    3.50
   4   5   7   26.00    2.40
  -5  -5  -7  847.92   32.60
  -5  -5  -7  826.62   30.50
  -5  -5  -7  781.82   29.70
   5   5   7  840.02   30.30
   5   5   7  804.62   31.40
  -6  -5  -7    2.50    1.70
  -6  -5  -7    0.00    1.50
   6   5   7    1.40    2.30
   6   5   7    2.00    1.50
  -7  -5  -7   28.70    3.90
  -7  -5  -7   27.70    3.40
   7   5   7   28.30    3.90
   7   5   7   26.30    3.10
  -8  -5  -7    7.20    2.50
  -8  -5  -7   10.90    2.90
   8   5   7    5.40    2.20
  -9  -5  -7   63.29    5.30
   9   5   7   61.39    5.00
   9   5   7   57.29    6.80
   5  -6  -7    5.10    2.60
  -5   6   7    2.10    2.70
  -5   6   7    1.50    3.60
   4  -6  -7   51.09    4.40
  -4   6   7   54.09    6.20
  -4   6   7   44.10    4.60
   3  -6  -7   65.59    4.80
   3  -6  -7   62.29    5.80
  -3   6   7   70.09    6.00
   2  -6  -7  161.38    7.50
   2  -6  -7  143.89    7.00
   2  -6  -7  145.19    6.40
  -2   6   7  157.18    8.50
  -2   6   7  148.79    7.20
   1  -6  -7   10.50    1.50
   1  -6  -7   10.70    1.90
   1  -6  -7   10.80    1.80
   1  -6  -7   12.90    2.70
  -1   6   7   11.30    1.80
  -1   6   7    8.20    2.80
  -1   6   7   12.30    2.50
   0  -6  -7  663.23   25.70
   0  -6  -7  720.93   27.40
   0  -6  -7  707.73   26.00
   0   6   7  693.23   26.90
   0   6   7  700.03   25.80
  -1  -6  -7  344.77   14.40
  -1  -6  -7  330.77   13.00
   1   6   7  327.57   12.80
   1   6   7  324.57   14.00
   1   6   7  323.37   14.40
  -2  -6  -7   30.30    2.60
  -2  -6  -7   28.90    1.80
  -2  -6  -7   26.20    3.70
   2   6   7   31.60    3.70
   2   6   7   35.00    4.00
   2   6   7   32.50    2.60
  -3  -6  -7  351.56   14.50
  -3  -6  -7  325.57   12.30
  -3  -6  -7  331.27   13.10
   3   6   7  318.77   14.40
   3   6   7  336.57   12.90
   3   6   7  316.57   14.10
  -4  -6  -7  292.17   11.90
  -4  -6  -7  293.97   13.10
  -4  -6  -7  286.57   11.10
   4   6   7  295.37   13.00
   4   6   7  291.57   11.60
  -5  -6  -7  366.66   13.90
  -5  -6  -7  365.36   14.60
  -5  -6  -7  350.16   15.60
   5   6   7  374.16   15.80
  -6  -6  -7    7.60    2.10
   6   6   7   10.30    2.10
   6   6   7   11.50    3.50
  -7  -6  -7   15.30    2.80
  -7  -6  -7   12.10    3.30
   7   6   7   15.00    2.50
   7   6   7   22.00    4.10
  -8  -6  -7   96.99    6.30
  -8  -6  -7  105.79    7.10
   8   6   7  111.09    6.00
  -9  -6  -7   10.80    3.70
  -9  -6  -7    5.10    3.00
   9   6   7    4.60    2.80
   4  -7  -7   34.10    4.20
  -4   7   7   41.40    5.50
  -4   7   7   39.70    4.90
   3  -7  -7  152.18    7.70
   3  -7  -7  154.08    8.00
   3  -7  -7  159.68    9.40
  -3   7   7  157.38    9.60
   2  -7  -7   22.20    3.90
   2  -7  -7   18.40    2.60
  -2   7   7   25.00    3.10
  -2   7   7   12.40    3.80
   1  -7  -7  184.58    8.30
   1  -7  -7  196.28    7.80
  -1   7   7  192.98    8.00
   0  -7  -7   33.60    3.30
   0  -7  -7   38.80    3.20
   0  -7  -7   35.30    4.70
   0  -7  -7   28.00    2.70
   0   7   7   37.40    5.20
   0   7   7   42.00    4.40
   0   7   7   34.10    2.90
  -1  -7  -7  292.47   13.40
  -1  -7  -7  288.17   11.90
   1   7   7  291.87   11.50
   1   7   7  297.27   13.60
   1   7   7  282.67   12.90
  -2  -7  -7    7.20    1.80
  -2  -7  -7    6.30    2.60
  -2  -7  -7    6.90    1.10
   2   7   7    8.70    2.60
   2   7   7    6.20    1.60
   2   7   7    4.00    2.80
  -3  -7  -7  384.76   16.50
  -3  -7  -7  366.76   14.20
  -3  -7  -7  378.26   15.00
   3   7   7  372.96   16.20
   3   7   7  377.26   14.60
   3   7   7  391.66   16.70
  -4  -7  -7  371.06   16.10
  -4  -7  -7  353.46   14.80
   4   7   7  371.96   15.20
   4   7   7  366.36   16.30
  -5  -7  -7   30.80    3.50
   5   7   7   27.70    4.10
   5   7   7   30.90    3.50
  -6  -7  -7    8.80    2.40
  -6  -7  -7    6.60    3.20
  -6  -7  -7    9.70    2.80
   6   7   7    6.70    3.30
   6   7   7    8.40    2.20
  -7  -7  -7   15.30    3.80
  -7  -7  -7   15.90    2.90
  -8  -7  -7   23.70    4.20
  -8  -7  -7   29.50    3.80
   8   7   7   26.70    3.30
   8   7   7   32.00    4.90
   3  -8  -7   17.00    3.00
  -3   8   7   16.30    4.70
   2  -8  -7  183.98    9.00
  -2   8   7  199.78   10.00
  -2   8   7  200.88   11.40
   1  -8  -7   15.50    2.60
   1  -8  -7   13.60    3.70
   1  -8  -7   11.90    1.80
  -1   8   7   14.00    4.00
  -1   8   7   14.50    3.50
   0  -8  -7   11.10    2.20
   0  -8  -7   12.70    1.70
   0  -8  -7   16.50    3.50
   0   8   7   11.40    3.90
  -1  -8  -7   45.20    5.40
  -1  -8  -7   36.90    3.60
   1   8   7   31.80    4.70
   1   8   7   37.50    5.00
  -2  -8  -7   26.30    4.30
  -2  -8  -7   25.50    3.30
   2   8   7   35.70    5.30
   2   8   7   28.00    3.00
  -3  -8  -7  159.68    7.70
  -3  -8  -7  151.28    6.70
  -3  -8  -7  167.08    9.40
   3   8   7  155.88    7.40
   3   8   7  166.88    9.30
   3   8   7  159.68    9.50
  -4  -8  -7   75.79    5.10
  -4  -8  -7   83.69    6.90
   4   8   7   78.39    6.90
   4   8   7   77.69   10.50
  -5  -8  -7   18.80    4.10
  -5  -8  -7   12.70    2.50
   5   8   7   17.80    3.90
  -6  -8  -7    2.00    3.40
  -6  -8  -7   -0.30    2.20
   6   8   7   -0.70    3.30
   6   8   7    3.30    2.30
  -7  -8  -7   11.50    3.00
  -8  -8  -7   -1.30    4.50
  -8  -8  -7   -0.30    3.00
   2  -9  -7   13.20    2.30
   2  -9  -7   11.50    3.00
  -2   9   7   16.40    5.10
   1  -9  -7   95.39    8.60
   1  -9  -7  112.99    6.50
  -1   9   7  112.09    9.20
  -1   9   7  105.19    7.90
   0  -9  -7    0.70    1.60
   0   9   7    0.30    3.60
   0   9   7    0.30    3.90
  -1  -9  -7   41.30    4.10
  -1  -9  -7   41.30    3.10
  -1  -9  -7   44.80    6.30
   1   9   7   29.10    6.20
  -2  -9  -7   98.19    6.00
  -2  -9  -7  103.89    4.90
  -2  -9  -7   86.69    7.70
   2   9   7   98.19    8.20
   2   9   7   94.89    7.50
  -3  -9  -7  209.68    8.70
  -3  -9  -7  201.78    9.40
  -3  -9  -7  199.28   11.70
   3   9   7  186.58   11.50
   3   9   7  193.18   11.00
  -4  -9  -7  187.38   10.80
  -4  -9  -7  173.38    8.70
   4   9   7  167.18   10.20
   4   9   7  176.58   11.80
  -5  -9  -7   30.10    3.70
  -5  -9  -7   37.50    5.40
   5   9   7   38.10    5.60
   5   9   7   32.60    5.00
  -6  -9  -7    3.60    2.80
  -6  -9  -7    7.70    4.20
   6   9   7   -2.80    3.90
   6   9   7    3.80    2.90
  -7  -9  -7   -0.80    3.00
  -1 -10  -7   27.30    3.70
  -1 -10  -7   33.80    5.50
   1  10   7   30.40    5.90
  -2 -10  -7   79.99    8.10
  -2 -10  -7   71.79    5.60
   2  10   7   65.19    7.80
   2  10   7   70.49    8.80
  -3 -10  -7    1.20    2.50
  -3 -10  -7   -1.50    4.00
   3  10   7   -2.10    4.00
   3  10   7    3.90    7.70
  -4 -10  -7  280.87   14.40
  -4 -10  -7  254.97   12.10
   4  10   7  258.47   14.60
   4  10   7  247.78   13.90
   1   9  -8   46.50    5.80
  -1  -9   8   38.20    6.00
   0  -9   8  114.09    7.40
   0  -9   8  103.29    7.90
  -4  -8   8    0.30    3.60
   3   8  -8  152.88    7.80
  -3  -8   8  131.19    8.10
   2   8  -8   49.40    4.60
  -2  -8   8   49.00    6.20
  -2  -8   8   37.50    4.80
   1   8  -8   56.09    4.60
  -1  -8   8   44.50    5.90
   0   8  -8   27.00    4.00
   0   8  -8   30.10    4.20
   0  -8   8   28.20    3.70
  -1   8  -8   69.39    7.20
   1  -8   8   68.49    4.90
  -2   8  -8    2.30    2.70
   2  -8   8   -3.40    2.70
  -3   8  -8    8.50    3.70
   3  -8   8   10.40    2.70
   3  -8   8   10.90    3.10
   5   7  -8   12.80    3.00
   5   7  -8   17.10    2.60
  -5  -7   8   11.50    4.10
   4   7  -8   60.99    4.40
   4   7  -8   62.89    4.80
  -4  -7   8   53.99    5.90
  -4  -7   8   67.19    6.80
   3   7  -8   23.90    3.40
  -3  -7   8   28.40    3.70
   2   7  -8    8.50    2.30
   2   7  -8   11.70    2.80
  -2  -7   8    4.60    3.10
  -2  -7   8    5.60    2.50
   1   7  -8    3.60    2.00
  -1  -7   8    5.80    2.30
  -1  -7   8    5.20    2.80
   0   7  -8   77.89    5.60
   0   7  -8   80.79    4.80
   0  -7   8   80.19    5.90
   0  -7   8   74.89    4.80
  -1   7  -8  201.18    8.70
   1  -7   8  195.58    9.30
   1  -7   8  187.18    8.60
  -2   7  -8    0.20    2.20
  -2   7  -8   -1.30    2.40
  -2   7  -8   -1.20    1.80
   2  -7   8    5.60    2.40
   2  -7   8   -0.90    1.80
   2  -7   8    1.70    1.90
  -3   7  -8   25.00    3.70
   3  -7   8   28.00    3.90
  -4   7  -8   35.10    4.90
   4  -7   8   33.90    4.30
  -5   7  -8    9.00    3.60
   5  -7   8    2.10    2.70
  -6  -6   8   51.69    7.40
  -6  -6   8   78.49    7.30
   5   6  -8   53.79    4.70
  -5  -6   8   46.40    5.20
   4   6  -8    1.60    1.90
   4   6  -8    7.00    2.00
  -4  -6   8    6.20    3.00
   3   6  -8   61.69    4.20
  -3  -6   8   69.59    6.80
  -3  -6   8   65.89    5.10
   2   6  -8    9.00    1.90
  -2  -6   8    9.20    2.60
  -2  -6   8    7.80    2.80
   1   6  -8   -0.90    1.40
   1   6  -8    1.80    1.50
  -1  -6   8   -1.30    1.70
  -1  -6   8    0.40    2.30
   0   6  -8   82.89    5.10
   0   6  -8   89.59    4.60
   0  -6   8   85.89    5.50
  -1   6  -8   26.90    3.40
   1  -6   8   33.80    3.20
   1  -6   8   28.90    2.80
   1  -6   8   25.80    3.60
   1  -6   8   23.70    2.70
  -2   6  -8  123.69    6.50
  -2   6  -8  117.59    5.80
   2  -6   8  122.99    5.60
   2  -6   8  123.39    5.70
   2  -6   8  106.79    6.40
   3  -6   8  103.19    5.90
   3  -6   8  112.49    5.20
  -4   6  -8  101.29    6.20
  -4   6  -8  109.29    6.40
   4  -6   8  103.89    5.80
   4  -6   8   91.39    5.70
  -5   6  -8   11.80    3.20
   5  -6   8    8.80    2.20
  -6   6  -8   28.00    4.10
   6  -6   8   20.80    3.30
   7   5  -8   24.50    3.90
   7   5  -8   29.80    3.50
  -7  -5   8   34.10    5.50
   6   5  -8    1.20    2.10
   6   5  -8    0.70    2.10
   5   5  -8    3.50    1.90
  -5  -5   8    0.10    2.90
  -5  -5   8    3.10    3.20
   4   5  -8    7.30    1.80
  -4  -5   8   -0.90    3.80
  -4  -5   8    7.10    2.80
   3   5  -8   42.60    3.30
   3   5  -8   40.80    3.30
  -3  -5   8   38.50    4.20
  -3  -5   8   54.19    4.90
   2   5  -8  253.27    9.80
   2   5  -8  231.88   10.40
   2   5  -8  250.97   10.00
  -2  -5   8  250.87   11.00
  -2  -5   8  233.38   10.40
   1   5  -8 1047.30   38.30
   1   5  -8 1036.30   38.10
  -1  -5   8 1069.19   39.20
   0   5  -8  238.58   10.00
   0   5  -8  239.18    9.40
   0   5  -8  235.78    9.60
   0  -5   8  242.58    9.60
   0  -5   8  238.48   10.40
  -1   5  -8   25.30    2.50
  -1   5  -8   25.00    2.30
  -1   5  -8   23.70    2.70
   1  -5   8   22.50    2.60
   1  -5   8   24.90    2.60
   1  -5   8   25.40    2.40
   1  -5   8   25.20    3.00
  -2   5  -8   73.29    4.30
   2  -5   8   62.29    3.80
   2  -5   8   70.79    4.40
  -3   5  -8   16.70    2.60
  -3   5  -8   15.50    2.00
  -3   5  -8   16.90    2.70
   3  -5   8   21.70    2.90
   3  -5   8   16.30    2.10
  -4   5  -8    1.50    1.90
   4  -5   8   -0.70    1.80
  -5   5  -8   -1.40    2.30
  -5   5  -8    3.70    3.00
   5  -5   8    1.70    1.60
   5  -5   8    3.50    2.00
  -6   5  -8   33.40    4.50
   6  -5   8   31.70    3.70
   6  -5   8   26.20    3.90
  -7   5  -8   51.19    5.70
   7  -5   8   59.59    4.40
   7  -5   8   54.49    5.20
   7   4  -8   17.40    3.00
   7   4  -8   12.70    2.60
   7   4  -8   16.20    4.20
  -7  -4   8   23.50    4.90
  -7  -4   8    9.90    4.00
   6   4  -8    1.80    1.80
   6   4  -8    2.90    1.90
  -6  -4   8    6.50    3.40
   5   4  -8    2.50    1.80
  -5  -4   8   -5.20    2.80
  -5  -4   8    1.30    2.60
   4   4  -8   38.10    4.60
   4   4  -8   39.90    3.20
  -4  -4   8   50.39    5.00
  -4  -4   8   47.70    4.50
   3   4  -8    2.70    1.50
   3   4  -8    1.60    1.30
   3   4  -8    3.60    1.30
  -3  -4   8    0.60    2.20
  -3  -4   8    7.60    2.20
   2   4  -8  334.57   12.90
   2   4  -8  335.67   13.00
  -2  -4   8  334.87   14.00
   1   4  -8   63.39    3.40
   1   4  -8   62.39    3.50
   1   4  -8   60.39    3.50
  -1  -4   8   65.19    3.70
  -1  -4   8   67.79    4.50
  -1  -4   8   64.89    4.40
   0   4  -8  358.36   14.10
   0   4  -8  366.16   13.90
   0   4  -8  366.86   13.80
   0  -4   8  361.26   14.00
   0  -4   8  371.46   14.00
   0  -4   8  360.16   14.60
  -1   4  -8  121.19    5.30
   1  -4   8  120.29    5.30
   1  -4   8  121.59    5.90
   1  -4   8  117.09    5.40
  -2   4  -8  990.70   35.80
  -2   4  -8 1018.80   36.40
  -2   4  -8  970.50   35.80
   2  -4   8  982.60   36.10
   2  -4   8  990.10   36.40
   2  -4   8  979.00   35.70
  -3   4  -8  100.59    4.80
  -3   4  -8  118.39    5.60
   3  -4   8  111.79    5.20
   3  -4   8  105.49    4.70
   3  -4   8  116.89    5.50
  -4   4  -8   68.49    4.30
   4  -4   8   66.29    3.90
   4  -4   8   70.09    3.40
   4  -4   8   69.69    4.10
  -5   4  -8    2.10    1.80
   5  -4   8    3.00    1.70
   5  -4   8    1.10    1.70
  -6   4  -8  335.77   16.40
  -6   4  -8  339.67   14.40
   6  -4   8  344.97   13.80
   6  -4   8  367.16   14.00
  -7   4  -8  100.09    7.30
   7  -4   8  104.99    5.90
   7  -4   8  109.79    5.60
   8  -4   8   67.39    5.30
   7   3  -8    3.10    2.30
   7   3  -8   10.10    3.70
  -7  -3   8    1.20    4.10
  -7  -3   8    3.20    3.60
   6   3  -8    1.80    1.80
  -6  -3   8    1.50    3.20
  -6  -3   8   -3.80    2.80
   5   3  -8  165.28    8.50
   5   3  -8  176.58    7.70
  -5  -3   8  171.08    9.00
  -5  -3   8  167.78    9.30
   4   3  -8   11.60    1.80
   4   3  -8   10.20    1.60
  -4  -3   8   11.50    2.80
  -4  -3   8   12.30    2.40
   3   3  -8   26.30    2.20
   3   3  -8   21.60    2.00
   3   3  -8   28.30    2.40
  -3  -3   8   33.90    4.40
  -3  -3   8   25.40    3.60
   2   3  -8  188.48    7.40
   2   3  -8  162.68    7.30
   2   3  -8  168.18    7.10
  -2  -3   8  177.88    8.40
  -2  -3   8  187.98    7.90
   1   3  -8  174.88    7.50
   1   3  -8  185.88    7.50
  -1  -3   8  188.38    7.80
  -1  -3   8  180.88    8.30
   0   3  -8  200.88    7.90
   0   3  -8  191.98    7.90
   0   3  -8  178.88    8.10
   0  -3   8  211.18    7.90
   0  -3   8  188.78    8.40
   0  -3   8  192.08    8.00
  -1   3  -8  191.98    7.70
  -1   3  -8  184.78    7.20
  -1   3  -8  182.28    7.80
   1  -3   8  189.78    8.10
   1  -3   8  202.78    7.60
   1  -3   8  186.08    7.80
  -2   3  -8   76.89    3.60
  -2   3  -8   75.49    4.00
  -2   3  -8   73.19    3.90
   2  -3   8   69.49    3.80
   2  -3   8   78.99    3.50
   2  -3   8   80.39    4.20
  -3   3  -8   24.90    2.00
  -3   3  -8   24.50    2.30
  -3   3  -8   26.70    2.30
   3  -3   8   25.60    1.80
   3  -3   8   24.70    2.40
   3  -3   8   27.10    2.40
  -4   3  -8  100.39    4.40
  -4   3  -8   99.19    5.00
   4  -3   8   96.29    4.30
   4  -3   8  104.69    4.90
   4  -3   8   99.59    4.90
  -5   3  -8   16.80    2.50
  -5   3  -8   20.00    1.80
   5  -3   8   15.10    1.90
   5  -3   8   17.00    2.40
   5  -3   8   19.20    2.20
  -6   3  -8  142.59    7.40
   6  -3   8  150.68    6.40
   6  -3   8  163.38    7.10
   6  -3   8  152.08    7.00
  -7   3  -8    8.50    2.80
   7  -3   8    7.60    1.90
  -8   3  -8   -0.60    2.80
   8  -3   8    3.20    2.40
   8  -3   8    3.20    2.60
   7   2  -8    2.00    2.00
   7   2  -8    9.40    3.70
  -7  -2   8    7.50    3.70
   6   2  -8  175.98    8.00
  -6  -2   8  172.28    9.80
  -6  -2   8  179.88    9.50
   5   2  -8   66.49    4.00
  -5  -2   8   62.99    6.30
  -5  -2   8   58.69    5.10
   4   2  -8  143.49    6.40
   4   2  -8  138.89    6.20
  -4  -2   8  150.28    7.30
  -4  -2   8  136.89    7.70
   3   2  -8  177.78    7.20
   3   2  -8  166.68    6.80
   3   2  -8  170.78    7.30
  -3  -2   8  176.68    8.40
   2   2  -8   54.09    3.00
   2   2  -8   50.49    3.00
   2   2  -8   50.19    2.70
  -2  -2   8   53.89    3.30
  -2  -2   8   53.19    3.90
   1   2  -8  159.28    6.70
   1   2  -8  165.38    6.90
   1   2  -8  150.28    6.80
  -1  -2   8  184.58    7.10
  -1  -2   8  165.18    7.10
  -1  -2   8  167.78    7.60
   0   2  -8   19.60    1.70
   0  -2   8   17.90    2.20
   0  -2   8   19.00    1.90
   0  -2   8   19.90    2.00
  -1   2  -8   33.00    1.70
  -1   2  -8   34.30    2.30
  -1   2  -8   35.70    2.40
   1  -2   8   35.30    2.10
   1  -2   8   33.00    2.60
   1  -2   8   33.60    2.50
  -2   2  -8    6.20    1.20
  -2   2  -8    7.40    1.20
  -2   2  -8    5.80    1.00
   2  -2   8    8.50    1.40
   2  -2   8    8.50    1.40
  -3   2  -8  348.17   13.30
  -3   2  -8  333.37   13.00
  -3   2  -8  342.17   13.10
   3  -2   8  337.27   13.20
   3  -2   8  333.77   13.20
   3  -2   8  358.56   12.70
  -4   2  -8  410.66   15.10
  -4   2  -8  395.56   15.50
   4  -2   8  388.46   14.70
   4  -2   8  410.56   15.30
   4  -2   8  396.46   15.30
  -5   2  -8  703.33   26.20
  -5   2  -8  701.33   26.20
  -5   2  -8  705.53   25.60
   5  -2   8  702.63   25.40
   5  -2   8  711.33   26.00
   5  -2   8  682.93   25.90
  -6   2  -8   73.19    4.40
   6  -2   8   77.39    4.30
   6  -2   8   73.59    4.30
  -7   2  -8    3.00    1.90
  -7   2  -8    4.30    2.30
   7  -2   8    2.10    2.00
   7  -2   8    2.80    1.70
   7  -2   8    4.60    1.90
  -8   2  -8    9.00    2.80
  -8   2  -8    8.20    2.90
   8  -2   8    8.30    2.30
   8  -2   8   11.70    2.70
   9  -2   8    4.80    3.60
   7   1  -8   30.20    3.70
   7   1  -8   29.30    3.50
  -7  -1   8   33.00    4.50
   6   1  -8    2.00    1.40
   6   1  -8    4.40    1.80
   6   1  -8   -1.10    2.70
  -6  -1   8    1.10    2.90
  -6  -1   8   -0.10    2.90
   5   1  -8   18.20    2.10
   5   1  -8   19.70    2.50
  -5  -1   8   20.90    4.00
  -5  -1   8   20.80    3.30
   4   1  -8   33.80    2.80
   4   1  -8   38.20    2.50
  -4  -1   8   37.40    4.10
  -4  -1   8   33.00    2.20
  -4  -1   8   35.50    3.80
   3   1  -8   12.20    2.30
   3   1  -8   12.30    1.70
   3   1  -8   12.50    1.90
   3   1  -8   14.60    1.90
  -3  -1   8   12.90    2.10
  -3  -1   8   13.00    2.30
   2   1  -8  212.58    8.30
   2   1  -8  198.98    8.30
  -2  -1   8  197.18    9.00
  -2  -1   8  199.78    8.50
   1   1  -8 1111.29   41.20
   1   1  -8 1052.19   41.00
   1   1  -8 1143.89   41.20
  -1  -1   8 1167.18   41.40
  -1  -1   8 1194.38   41.30
  -1  -1   8 1155.28   41.90
   0   1  -8  402.36   15.00
   0   1  -8  398.56   14.50
   0  -1   8  392.46   15.10
   0  -1   8  379.86   15.30
  -1   1  -8   16.80    2.20
  -1   1  -8   16.10    1.20
  -1   1  -8   19.30    1.70
   1  -1   8   16.60    1.80
   1  -1   8   17.70    1.50
   1  -1   8   18.40    2.00
  -2   1  -8   46.30    2.40
  -2   1  -8   55.39    3.30
   2  -1   8   45.40    2.90
   2  -1   8   56.99    3.10
   2  -1   8   50.29    2.30
  -3   1  -8   99.59    4.70
  -3   1  -8   99.99    4.70
   3  -1   8  102.19    4.60
   3  -1   8   97.39    3.90
   3  -1   8   96.89    4.60
  -4   1  -8  149.39    6.50
  -4   1  -8  159.78    6.80
  -4   1  -8  150.78    6.60
   4  -1   8  148.69    5.80
   4  -1   8  157.48    6.50
   4  -1   8  154.78    6.60
  -5   1  -8    4.40    1.40
  -5   1  -8    5.60    1.40
  -5   1  -8    5.30    1.30
   5  -1   8    5.20    1.30
   5  -1   8    3.60    1.50
  -6   1  -8  116.59    5.30
  -6   1  -8  114.59    5.80
  -6   1  -8  119.79    5.70
   6  -1   8  119.79    4.90
   6  -1   8  108.39    5.30
   6  -1   8  117.49    5.70
  -7   1  -8  237.88   10.60
  -7   1  -8  250.87   11.40
   7  -1   8  240.08   10.20
   7  -1   8  235.68   10.00
  -8   1  -8   12.50    2.90
  -8   1  -8   14.10    2.60
   8  -1   8   19.40    2.80
  -9   1  -8   59.19    5.70
   9  -1   8   74.19    5.50
   9  -1   8   72.39    4.80
   7   0  -8   11.30    3.80
  -7   0   8    9.60    4.00
  -7   0   8    3.40    3.40
   6   0  -8   36.90    5.00
   6   0  -8   33.20    3.20
  -6   0   8   31.90    4.20
  -6   0   8   29.80    4.40
   5   0  -8   51.89    3.70
   5   0  -8   54.69    4.30
   5   0  -8   55.39    5.00
  -5   0   8   54.49    5.20
  -5   0   8   49.40    4.90
   4   0  -8    1.70    1.20
  -4   0   8    1.30    2.10
  -4   0   8    5.70    2.10
   3   0  -8  449.16   16.60
   3   0  -8  452.75   17.00
   3   0  -8  453.85   16.90
  -3   0   8  413.16   17.30
  -3   0   8  449.56   16.30
  -3   0   8  454.45   18.00
   2   0  -8  140.99    6.30
   2   0  -8  153.28    6.40
  -2   0   8  142.69    6.50
  -2   0   8  149.79    7.10
   1   0  -8   82.39    4.00
   1   0  -8   83.19    4.00
   1   0  -8   82.89    4.00
  -1   0   8   81.59    4.60
  -1   0   8   74.09    5.20
  -1   0   8   79.89    4.10
   0   0  -8    0.30    0.80
   0   0  -8    1.00    0.70
   0   0  -8    2.40    0.90
   0   0   8    1.10    1.20
   0   0   8    0.80    1.00
  -1   0  -8  147.89    5.80
  -1   0  -8  153.78    6.60
   1   0   8  154.78    6.60
   1   0   8  148.19    5.90
   1   0   8  154.78    6.50
   2   0   8    0.70    1.00
   2   0   8    0.50    0.90
  -3   0  -8  153.38    6.80
  -3   0  -8  143.69    6.70
  -3   0  -8  161.28    6.80
   3   0   8  155.88    6.50
   3   0   8  159.58    6.60
  -4   0  -8   17.80    2.20
  -4   0  -8   16.90    2.00
  -4   0  -8   18.40    1.80
   4   0   8   15.80    2.00
   4   0   8   17.60    1.80
  -5   0  -8 1560.94   55.99
  -5   0  -8 1388.26   55.89
  -5   0  -8 1607.44   55.99
   5   0   8 1575.44   54.99
   5   0   8 1604.54   55.69
   5   0   8 1547.05   55.89
  -6   0  -8   59.69    3.60
  -6   0  -8   54.29    4.80
  -6   0  -8   52.59    3.60
   6   0   8   53.59    3.50
   6   0   8   51.19    3.10
  -7   0  -8   17.60    3.00
  -7   0  -8   19.10    2.60
   7   0   8   17.00    2.40
   7   0   8   13.90    2.40
  -8   0  -8    1.40    2.30
  -8   0  -8    3.00    2.20
   8   0   8    0.80    1.90
   8   0   8    1.80    2.20
  -9   0  -8    1.40    2.30
   9   0   8    6.30    2.70
   7  -1  -8   24.40    3.00
   7  -1  -8   29.40    4.70
  -7   1   8   29.30    4.70
  -7   1   8   30.90    5.00
   6  -1  -8   83.09    4.70
   6  -1  -8   85.59    6.50
   6  -1  -8   72.89    5.60
  -6   1   8   71.99    6.10
  -6   1   8   83.29    6.70
   5  -1  -8    2.20    1.20
   5  -1  -8    3.90    2.50
   5  -1  -8    4.00    1.60
  -5   1   8    6.20    1.80
  -5   1   8    4.60    2.60
  -5   1   8    4.70    2.50
   4  -1  -8  179.08    7.90
   4  -1  -8  188.28    7.80
  -4   1   8  177.48    9.10
  -4   1   8  187.28    7.60
   3  -1  -8   19.00    2.00
   3  -1  -8   21.40    2.10
   3  -1  -8   16.10    2.30
  -3   1   8   20.40    2.90
  -3   1   8   20.10    2.50
   2  -1  -8  241.48    9.80
   2  -1  -8  231.18    9.80
   2  -1  -8  262.37   10.00
  -2   1   8  248.08    9.20
  -2   1   8  243.28   10.60
  -2   1   8  252.77   10.00
  -2   1   8  230.58   10.00
   1  -1  -8  298.37   11.70
   1  -1  -8  301.17   11.80
   1  -1  -8  302.27   10.90
  -1   1   8  303.87   11.70
  -1   1   8  297.47   12.10
  -1   1   8  263.57   11.70
   0  -1  -8  202.38    8.40
   0  -1  -8  248.78    8.30
   0  -1  -8  224.98    9.20
   0   1   8  228.38    9.10
   0   1   8  216.98    9.30
   0   1   8  209.58    8.60
  -1  -1  -8   40.70    2.00
  -1  -1  -8   41.50    2.80
  -1  -1  -8   35.50    2.70
  -1  -1  -8   37.30    1.70
   1   1   8   40.70    2.00
   1   1   8   40.40    2.70
   1   1   8   41.70    2.60
   1   1   8   40.60    2.90
   2   1   8  255.97    9.90
   2   1   8  213.38    9.50
   2   1   8  254.87   10.30
   2   1   8  266.17    9.90
  -3  -1  -8  236.38    9.10
  -3  -1  -8  187.98    8.20
   3   1   8  212.78    8.60
   3   1   8  205.98    8.40
  -4  -1  -8   51.89    2.90
  -4  -1  -8   49.50    3.40
  -4  -1  -8   48.90    3.30
   4   1   8   51.89    2.90
   4   1   8   49.30    3.50
   4   1   8   53.79    3.10
  -5  -1  -8  453.75   17.80
  -5  -1  -8  476.65   17.90
  -5  -1  -8  484.45   17.50
   5   1   8  436.26   17.10
   5   1   8  455.45   17.80
   5   1   8  449.56   17.40
  -6  -1  -8   19.50    2.60
  -6  -1  -8   23.40    3.00
  -6  -1  -8   26.60    2.70
   6   1   8   21.50    2.70
   6   1   8   25.10    2.20
   6   1   8   23.30    1.80
   6   1   8   22.50    2.60
  -7  -1  -8  232.68   10.00
  -7  -1  -8  221.48   11.30
  -7  -1  -8  239.18   10.20
   7   1   8  226.48    9.70
  -8  -1  -8   21.40    3.00
  -8  -1  -8   22.90    3.00
   8   1   8   20.80    2.80
   8   1   8   23.00    3.10
  -9  -1  -8    7.70    3.90
  -9  -1  -8    5.60    2.30
   9   1   8    4.10    2.70
   9   1   8    2.90    3.40
   7  -2  -8   48.60    4.10
   7  -2  -8   38.00    5.10
  -7   2   8   54.59    6.50
   6  -2  -8    4.80    2.90
   6  -2  -8    1.90    1.80
  -6   2   8    6.80    3.40
  -6   2   8    1.20    2.80
  -6   2   8    1.60    3.40
   5  -2  -8   79.19    4.50
   5  -2  -8   74.99    5.90
   5  -2  -8   79.59    4.00
  -5   2   8   80.59    4.70
  -5   2   8   69.39    7.00
  -5   2   8   82.09    6.30
   4  -2  -8  202.48    8.60
   4  -2  -8  206.38    9.90
   4  -2  -8  206.88    8.70
  -4   2   8  208.58   10.10
   3  -2  -8  362.96   13.40
   3  -2  -8  368.56   14.00
   3  -2  -8  352.46   13.80
   3  -2  -8  338.87   13.80
  -3   2   8  334.77   14.70
  -3   2   8  363.16   13.50
   2  -2  -8   34.20    2.80
   2  -2  -8   28.60    2.50
   2  -2  -8   28.80    2.30
  -2   2   8   31.10    2.80
  -2   2   8   34.50    2.70
  -2   2   8   32.50    3.30
   1  -2  -8  321.57   12.00
   1  -2  -8  311.27   12.80
   1  -2  -8  333.27   12.80
  -1   2   8  307.07   12.40
  -1   2   8  322.87   12.60
  -1   2   8  318.97   13.00
   0  -2  -8  301.77   12.20
   0  -2  -8  310.57   11.50
   0   2   8  313.77   12.40
   0   2   8  295.67   12.10
   0   2   8  297.57   11.90
  -1  -2  -8  149.79    5.80
  -1  -2  -8  151.78    7.00
  -1  -2  -8  181.08    7.10
  -1  -2  -8  145.99    6.00
   1   2   8  153.68    6.80
   1   2   8  155.48    6.60
   1   2   8  149.99    5.90
   1   2   8  155.58    7.10
  -2  -2  -8    3.70    1.30
   2   2   8    4.80    1.50
   2   2   8    3.10    1.10
   2   2   8    4.80    1.20
  -3  -2  -8   54.69    3.50
  -3  -2  -8   51.89    3.50
  -3  -2  -8   48.60    2.80
   3   2   8   48.10    2.80
   3   2   8   49.50    3.00
   3   2   8   46.60    3.40
  -4  -2  -8 1686.93   61.49
   4   2   8 1676.43   61.39
   4   2   8 1703.53   60.89
   4   2   8 1690.53   60.49
  -5  -2  -8   17.20    2.50
  -5  -2  -8   20.00    2.10
   5   2   8   19.80    3.00
   5   2   8   17.70    2.20
   5   2   8   19.30    1.80
  -6  -2  -8    1.30    1.50
  -6  -2  -8    2.00    1.30
   6   2   8    2.60    1.40
  -7  -2  -8   -1.40    1.50
  -7  -2  -8    1.20    1.60
   7   2   8   -0.70    1.70
   7   2   8    2.00    2.10
  -8  -2  -8   14.90    2.50
  -8  -2  -8   10.50    2.30
   8   2   8    6.50    2.20
   8   2   8    7.20    4.40
  -9  -2  -8   45.10    4.70
  -9  -2  -8   49.00    4.30
   9   2   8   44.60    4.20
   9   2   8   47.70    5.70
 -10  -2  -8   47.80    5.60
   6  -3  -8    1.10    1.70
   6  -3  -8    3.80    3.00
  -6   3   8    1.30    4.00
  -6   3   8    4.30    3.20
   5  -3  -8    0.20    1.60
   5  -3  -8    0.50    2.50
  -5   3   8    4.00    2.90
  -5   3   8    4.50    2.60
   4  -3  -8   26.80    3.50
   4  -3  -8   26.20    2.60
   4  -3  -8   22.80    2.40
  -4   3   8   33.30    4.40
   3  -3  -8  469.55   17.90
   3  -3  -8  471.95   17.70
   3  -3  -8  472.55   18.80
  -3   3   8  460.95   18.90
  -3   3   8  473.95   17.80
   2  -3  -8   15.00    2.20
   2  -3  -8   16.80    1.90
  -2   3   8   18.00    2.60
  -2   3   8   18.70    2.20
  -2   3   8   16.70    2.20
  -2   3   8   15.00    1.70
   1  -3  -8    0.80    1.10
   1  -3  -8    2.40    1.50
   1  -3  -8    1.90    1.20
   1  -3  -8    1.60    0.80
  -1   3   8   -0.40    1.10
  -1   3   8    0.30    1.10
  -1   3   8   -0.40    1.30
   0  -3  -8    5.00    1.00
   0  -3  -8    4.70    1.40
   0  -3  -8    5.60    1.00
   0   3   8    7.00    1.10
   0   3   8    6.10    1.60
   0   3   8    7.80    1.50
   0   3   8    4.50    1.60
  -1  -3  -8  244.08   11.00
  -1  -3  -8  277.97   11.10
  -1  -3  -8  236.48    9.80
  -1  -3  -8  258.87    9.60
  -1  -3  -8  259.47   10.00
   1   3   8  266.07   11.00
   1   3   8  269.87   10.50
   1   3   8  272.67   10.40
  -2  -3  -8   43.50    2.50
  -2  -3  -8   42.60    3.30
   2   3   8   39.80    2.80
   2   3   8   43.60    3.50
   2   3   8   42.90    2.80
  -3  -3  -8    0.80    1.30
   3   3   8    2.90    1.00
   3   3   8    1.90    1.20
   3   3   8    2.40    1.60
  -4  -3  -8   69.09    3.70
  -4  -3  -8   61.99    4.20
   4   3   8   63.99    3.30
   4   3   8   67.99    3.70
   4   3   8   68.19    4.50
  -5  -3  -8   63.99    4.40
  -5  -3  -8   65.19    3.70
   5   3   8   68.29    3.80
   5   3   8   63.89    4.60
   5   3   8   64.49    3.30
  -6  -3  -8   26.30    3.20
  -6  -3  -8   27.40    2.80
   6   3   8   23.70    2.70
   6   3   8   22.40    3.00
   6   3   8   27.60    2.10
  -7  -3  -8   70.19    4.50
  -7  -3  -8   68.59    4.40
   7   3   8   62.79    3.40
   7   3   8   57.99    4.90
   7   3   8   49.90    5.00
  -8  -3  -8   23.90    3.10
  -8  -3  -8   24.50    3.10
   8   3   8   23.50    2.50
   8   3   8   17.30    2.70
  -9  -3  -8   32.30    4.00
  -9  -3  -8   40.40    4.60
   9   3   8   34.80    4.10
 -10  -3  -8   -0.70    3.10
  10   3   8    7.90    3.10
   6  -4  -8   15.80    3.40
  -6   4   8    9.00    3.10
   5  -4  -8   45.40    4.50
   5  -4  -8   36.50    4.50
   5  -4  -8   40.70    3.40
  -5   4   8   40.20    4.40
   4  -4  -8   39.60    5.40
   4  -4  -8   44.10    3.20
   4  -4  -8   42.40    3.70
   4  -4  -8   44.30    4.10
  -4   4   8   42.40    3.90
  -4   4   8   45.00    4.90
  -4   4   8   46.10    5.60
   3  -4  -8    5.40    1.70
   3  -4  -8    7.60    2.40
   3  -4  -8    8.10    1.50
  -3   4   8    9.20    2.60
   2  -4  -8  135.29    6.00
   2  -4  -8  131.89    6.70
   2  -4  -8  130.89    6.50
  -2   4   8  128.19    6.20
  -2   4   8  140.49    6.70
  -2   4   8  134.49    6.10
   1  -4  -8    5.70    1.30
   1  -4  -8    6.00    1.30
   1  -4  -8    3.20    1.50
   1  -4  -8    5.70    1.80
   1  -4  -8    5.70    1.90
  -1   4   8    6.80    2.10
  -1   4   8    6.70    1.90
  -1   4   8    6.80    1.50
  -1   4   8    7.80    1.80
   0  -4  -8  114.89    4.90
   0  -4  -8  109.49    8.00
   0  -4  -8  118.29    6.00
   0   4   8  114.49    5.70
   0   4   8  113.49    5.40
   0   4   8  115.99    6.00
  -1  -4  -8  806.92   28.90
  -1  -4  -8  757.52   28.70
  -1  -4  -8  783.82   28.30
   1   4   8  804.62   29.80
   1   4   8  782.02   29.00
  -2  -4  -8    8.70    1.40
  -2  -4  -8    7.80    2.00
  -2  -4  -8    7.50    0.90
  -2  -4  -8    8.20    1.40
   2   4   8   10.80    2.20
   2   4   8    7.20    1.50
  -3  -4  -8  158.78    6.80
  -3  -4  -8  154.08    6.10
  -3  -4  -8  169.38    8.00
   3   4   8  160.98    7.50
   3   4   8  161.08    7.00
   3   4   8  162.88    7.80
  -4  -4  -8    2.00    1.20
  -4  -4  -8    1.10    0.90
  -4  -4  -8   -1.50    1.50
   4   4   8    0.80    1.90
   4   4   8   -0.30    1.20
  -5  -4  -8  435.16   18.80
  -5  -4  -8  449.56   17.50
   5   4   8  462.55   17.40
   5   4   8  463.65   18.40
  -6  -4  -8  338.87   13.60
  -6  -4  -8  339.07   14.30
   6   4   8  333.67   13.40
   6   4   8  327.67   12.90
   6   4   8  352.46   14.80
  -7  -4  -8  194.18    9.10
  -7  -4  -8  180.88    8.70
   7   4   8  190.58    9.50
   7   4   8  173.98    8.20
  -8  -4  -8   12.10    2.70
  -8  -4  -8   17.60    2.80
   8   4   8   18.90    2.70
   8   4   8   15.90    3.70
  -9  -4  -8   24.30    3.60
  -9  -4  -8   23.30    3.40
   9   4   8   26.40    3.30
   5  -5  -8   34.40    4.00
   5  -5  -8   31.60    3.50
   5  -5  -8   39.20    5.10
  -5   5   8   45.10    5.10
   4  -5  -8   32.50    3.70
   4  -5  -8   25.50    4.30
   4  -5  -8   24.10    2.80
  -4   5   8   29.50    4.20
  -4   5   8   23.70    3.30
   3  -5  -8    7.80    2.00
   3  -5  -8    6.70    2.10
  -3   5   8    5.60    2.20
  -3   5   8    6.80    2.20
   2  -5  -8   36.30    2.70
   2  -5  -8   44.10    4.20
  -2   5   8   44.20    3.20
   1  -5  -8   10.10    2.00
   1  -5  -8   11.50    1.60
   1  -5  -8    8.60    1.60
   1  -5  -8    9.80    2.50
  -1   5   8   11.10    2.30
  -1   5   8    7.30    2.00
  -1   5   8   10.00    1.80
   0  -5  -8  181.68    7.70
   0  -5  -8  171.78    7.80
   0  -5  -8  175.48    9.10
   0   5   8  187.88    9.10
   0   5   8  191.68    8.10
   0   5   8  194.38    7.90
   0   5   8  176.18    8.60
  -1  -5  -8   28.80    2.80
  -1  -5  -8   29.20    3.50
  -1  -5  -8   30.50    1.80
  -1  -5  -8   28.70    2.40
   1   5   8   30.80    3.90
   1   5   8   30.50    2.60
   1   5   8   28.00    2.70
   1   5   8   25.90    3.50
  -2  -5  -8   12.80    1.70
  -2  -5  -8   10.80    1.10
  -2  -5  -8   12.60    2.50
   2   5   8   17.90    2.20
   2   5   8   14.50    2.50
  -3  -5  -8    0.60    1.10
  -3  -5  -8    1.00    1.80
  -3  -5  -8    0.80    0.70
   3   5   8    1.70    1.40
   3   5   8   -1.00    1.20
   3   5   8    3.20    2.10
  -4  -5  -8  295.07   12.80
  -4  -5  -8  283.87   11.60
   4   5   8  290.37   11.60
   4   5   8  285.47   12.80
  -5  -5  -8   51.99    5.00
  -5  -5  -8   46.00    3.50
   5   5   8   45.60    4.60
   5   5   8   49.10    3.40
  -6  -5  -8   58.69    5.10
  -6  -5  -8   57.49    4.20
   6   5   8   51.99    3.90
   6   5   8   64.49    5.60
  -7  -5  -8   -2.40    2.40
  -7  -5  -8    1.10    1.90
   7   5   8    3.20    3.50
   7   5   8    0.00    2.00
  -8  -5  -8    1.70    2.20
  -8  -5  -8   -0.80    2.70
   8   5   8    4.20    3.60
   8   5   8   -0.30    2.10
  -9  -5  -8   10.20    3.20
  -9  -5  -8   13.60    3.00
   9   5   8    8.50    2.80
   5  -6  -8    3.60    3.10
  -5   6   8    5.60    3.20
   4  -6  -8  103.39    9.00
  -4   6   8   95.59    6.50
  -4   6   8   98.39    8.70
   3  -6  -8   12.80    2.80
   3  -6  -8   13.50    2.70
   3  -6  -8   11.10    2.80
   3  -6  -8   18.50    3.70
  -3   6   8   14.20    2.60
  -3   6   8   15.30    3.80
   2  -6  -8  158.28    7.40
   2  -6  -8  153.98    7.70
   2  -6  -8  161.48    8.00
   2  -6  -8  161.68    7.00
  -2   6   8  158.68    8.20
  -2   6   8  175.08    9.30
  -2   6   8  160.68    7.80
   1  -6  -8  273.67   10.70
   1  -6  -8  259.97   11.70
   1  -6  -8  268.77   12.40
   1  -6  -8  282.37   12.20
   1  -6  -8  256.47   11.10
   0  -6  -8   98.39    5.00
   0  -6  -8   91.29    6.40
   0  -6  -8   95.99    5.10
   0   6   8   96.99    5.00
   0   6   8  101.79    6.20
   0   6   8  104.79    6.60
  -1  -6  -8  163.48    6.70
  -1  -6  -8  174.08    8.90
  -1  -6  -8  169.48    7.40
   1   6   8  163.58    8.40
   1   6   8  169.38    7.30
   1   6   8  171.48    9.00
  -2  -6  -8  295.77   11.20
  -2  -6  -8  302.47   13.50
  -2  -6  -8  300.97   12.10
   2   6   8  295.57   13.60
   2   6   8  299.77   12.00
   2   6   8  315.67   13.40
  -3  -6  -8  104.79    6.90
  -3  -6  -8  115.99    4.70
  -3  -6  -8  114.19    5.70
   3   6   8  115.79    7.00
   3   6   8  113.19    5.50
  -4  -6  -8  347.07   15.10
  -4  -6  -8  333.67   13.80
   4   6   8  348.37   15.10
   4   6   8  345.07   13.60
  -5  -6  -8  212.78   10.40
  -5  -6  -8  201.68    9.10
   5   6   8  203.08   10.20
   5   6   8  199.18   10.60
  -6  -6  -8    2.50    2.00
   6   6   8    5.90    3.30
  -7  -6  -8   -2.80    2.00
  -7  -6  -8   -0.40    2.90
   7   6   8   -0.40    2.10
   7   6   8    3.00    3.40
  -8  -6  -8    3.60    3.10
  -8  -6  -8   -2.60    2.30
   8   6   8   -2.40    2.30
  -9  -6  -8    6.80    3.10
  -9  -6  -8    2.70    3.40
   9   6   8    5.30    4.60
   9   6   8    2.40    2.90
  -4   7   8   32.70    4.10
  -4   7   8   36.10    5.60
   3  -7  -8   27.40    3.70
   3  -7  -8   25.30    3.40
  -3   7   8   26.20    4.90
  -3   7   8   25.70    3.40
   2  -7  -8  137.79    7.80
   2  -7  -8  148.39    8.60
   2  -7  -8  135.89    6.70
   2  -7  -8  136.89    7.10
   2  -7  -8  140.79    8.80
  -2   7   8  146.19    9.20
  -2   7   8  147.29    8.00
   1  -7  -8   19.30    3.70
   1  -7  -8   21.10    2.50
   1  -7  -8   17.90    2.50
  -1   7   8   22.50    4.10
  -1   7   8   25.20    3.70
   0  -7  -8    1.20    2.70
   0   7   8    2.70    1.70
   0   7   8    3.20    2.60
   0   7   8    1.50    2.80
  -1  -7  -8   78.89    6.30
  -1  -7  -8   81.99    4.70
   1   7   8   70.39    6.40
   1   7   8   74.69    6.10
  -2  -7  -8    0.30    2.60
  -2  -7  -8   -0.80    1.60
  -2  -7  -8    2.40    0.90
   2   7   8    4.50    3.00
   2   7   8    3.50    3.00
  -3  -7  -8    3.60    1.90
  -3  -7  -8    4.80    2.70
   3   7   8    9.50    3.00
   3   7   8    1.50    2.80
   3   7   8    2.10    2.90
  -4  -7  -8    6.60    3.10
  -4  -7  -8    9.70    2.20
   4   7   8    8.10    3.10
  -5  -7  -8  144.79    8.80
  -5  -7  -8  149.79    7.40
   5   7   8  141.69    7.00
   5   7   8  163.28   12.30
  -6  -7  -8   54.49    4.50
   6   7   8   56.69    4.30
   6   7   8   51.19    6.30
  -7  -7  -8   -1.60    2.20
   7   7   8    4.60    3.10
  -8  -7  -8   48.10    5.00
  -8  -7  -8   40.90    6.10
   8   7   8   51.69    4.90
   8   7   8   47.90    5.90
   2  -8  -8   52.99    7.50
   2  -8  -8   52.39    4.60
  -2   8   8   50.69    6.20
   1  -8  -8   69.69    4.00
   1  -8  -8   63.19    6.60
   1  -8  -8   62.19    4.80
  -1   8   8   54.19    6.20
   0  -8  -8   58.99    3.60
   0  -8  -8   63.49    4.60
   0   8   8   65.39    6.80
   0   8   8   64.89    6.10
  -1  -8  -8   37.00    3.70
  -1  -8  -8   28.70    4.70
   1   8   8   38.40    5.50
  -2  -8  -8   14.90    2.40
  -2  -8  -8   13.80    1.80
   2   8   8   11.00    3.50
  -3  -8  -8   72.09    6.60
  -3  -8  -8   69.09    4.90
   3   8   8   79.89    4.70
   3   8   8   70.89    6.60
  -4  -8  -8   -2.80    3.00
  -4  -8  -8    4.50    2.10
   4   8   8   -6.10    3.20
   4   8   8   -0.10    3.00
  -5  -8  -8   10.20    2.60
  -5  -8  -8   25.30    4.50
   5   8   8   14.20    4.00
   5   8   8   14.30    2.60
  -6  -8  -8   47.90    4.80
  -7  -8  -8   28.90    3.90
   7   8   8   21.60    4.30
   1  -9  -8   36.40    5.80
   1  -9  -8   29.40    3.90
   1  -9  -8   29.00    5.00
  -1   9   8   26.30    4.70
   0   9   8   15.60    4.70
  -1  -9  -8    5.60    1.70
  -2  -9  -8   25.50    6.10
   2   9   8   28.20    5.20
   2   9   8   21.30    4.40
  -3  -9  -8   34.20    5.30
  -3  -9  -8   31.30    4.10
   3   9   8   35.20    5.00
   3   9   8   34.70    5.50
  -4  -9  -8   23.10    3.30
   4   9   8   20.90    4.40
  -5  -9  -8   35.00    5.70
  -5  -9  -8   43.40    4.90
   5   9   8   35.70    5.40
  -6  -9  -8    9.10    3.10
  -6  -9  -8   15.90    5.10
   6   9   8    4.30    3.10
   6   9   8    6.70    4.50
  -3 -10  -8   -3.20    2.80
  -3 -10  -8    3.20    4.30
   3  10   8   -1.50    4.70
   3  10   8    4.50    4.40
   3   8  -9   16.80    3.30
  -3  -8   9   20.40    4.70
   2   8  -9  100.29    6.30
  -2  -8   9   91.29    6.90
  -2  -8   9  105.69    8.00
  -1  -8   9   15.60    3.40
   0   8  -9  111.99    6.40
  -1   8  -9  101.19    7.20
  -2   8  -9   30.20    4.90
  -2   8  -9   47.50    5.00
   2  -8   9   39.10    5.60
   2  -8   9   38.50    4.40
   4   7  -9    4.30    2.40
   4   7  -9    8.20    2.60
  -4  -7   9    3.70    3.90
  -4  -7   9    4.30    4.50
   3   7  -9    1.00    2.20
  -3  -7   9   -0.50    3.40
   2   7  -9    4.20    4.30
   2   7  -9    1.00    2.10
  -2  -7   9   -2.40    2.70
   1   7  -9    0.60    2.70
   1   7  -9    2.50    2.00
  -1  -7   9    4.40    3.10
  -1  -7   9   -1.90    2.50
   0   7  -9  117.99    6.20
   0  -7   9  108.69    6.40
   0  -7   9  129.99    7.60
  -1   7  -9  240.78   10.20
  -1   7  -9  240.18   11.00
   1  -7   9  242.18   11.10
   1  -7   9  229.18   10.70
  -2   7  -9    2.90    3.00
   2  -7   9   10.00    3.00
  -3   7  -9   65.49    5.90
   3  -7   9   71.59    5.50
  -4   7  -9  102.99    7.20
   4  -7   9  105.99    6.70
  -5  -6   9    2.80    3.70
   4   6  -9   38.40    3.80
   4   6  -9   36.70    4.20
  -4  -6   9   38.40    4.70
   3   6  -9    0.90    1.90
   3   6  -9    0.90    1.80
  -3  -6   9    2.30    3.10
   2   6  -9  125.29    6.20
  -2  -6   9  130.49    7.80
  -2  -6   9  118.29    6.90
   1   6  -9   84.09    4.50
   1   6  -9   82.59    5.50
  -1  -6   9   77.39    5.30
  -1  -6   9   85.29    6.10
   0   6  -9    0.40    1.50
   0   6  -9    4.30    2.40
   0  -6   9    6.20    2.20
   0  -6   9    2.90    2.60
  -1   6  -9   36.30    3.10
  -1   6  -9   25.10    3.80
   1  -6   9   28.80    3.30
   1  -6   9   32.80    4.20
  -2   6  -9  153.28    7.80
  -2   6  -9  153.98    6.80
   2  -6   9  158.18    7.80
   2  -6   9  142.09    6.90
  -3   6  -9   28.20    3.00
  -3   6  -9   24.70    3.40
   3  -6   9   29.60    3.90
   3  -6   9   30.90    3.10
  -4   6  -9   41.70    4.60
   4  -6   9   40.50    4.40
   4  -6   9   40.20    4.10
  -5   6  -9   39.20    5.00
   5  -6   9   38.80    3.80
   6   5  -9   59.79    4.80
  -6  -5   9   52.39    6.90
  -6  -5   9   74.59    9.80
   5   5  -9   74.59    5.10
  -5  -5   9   82.69   11.50
  -5  -5   9   69.59    6.70
   4   5  -9   17.20    2.40
   4   5  -9   13.90    2.30
  -4  -5   9   22.40    4.10
   3   5  -9    6.10    1.80
   3   5  -9    8.30    1.80
  -3  -5   9    6.80    3.10
   2   5  -9   -2.00    1.30
  -2  -5   9    4.10    2.70
   1   5  -9    5.20    1.60
   1   5  -9    7.00    1.70
  -1  -5   9    3.50    2.00
  -1  -5   9    2.90    2.40
   0   5  -9 1340.77   48.40
   0   5  -9 1333.47   48.60
   0   5  -9 1312.37   48.90
   0  -5   9 1345.67   49.50
   0  -5   9 1368.16   48.60
  -1   5  -9   85.59    5.10
  -1   5  -9   97.49    4.70
  -1   5  -9   98.89    4.70
   1  -5   9   96.69    5.70
   1  -5   9   98.49    5.00
  -2   5  -9  119.89    6.50
   2  -5   9  120.09    5.80
  -3   5  -9   25.60    3.20
  -3   5  -9   27.40    3.30
   3  -5   9   24.80    3.20
   3  -5   9   26.60    3.40
   3  -5   9   23.90    2.80
  -4   5  -9   24.40    3.20
  -4   5  -9   18.60    2.80
   4  -5   9   20.40    2.80
  -5   5  -9   44.10    4.50
  -5   5  -9   43.70    4.60
   5  -5   9   53.49    3.60
   5  -5   9   58.59    4.50
  -6   5  -9    0.90    2.80
  -6   5  -9    1.50    2.80
   6  -5   9   -5.30    2.30
   6  -5   9    3.80    2.50
   6   4  -9   -1.70    2.10
   6   4  -9    3.50    2.00
  -6  -4   9   -0.90    3.40
  -6  -4   9   -5.80    4.10
   5   4  -9   61.99    4.30
  -5  -4   9   57.69    6.40
  -5  -4   9   69.19    6.20
   4   4  -9   82.89    4.70
   4   4  -9   80.49    4.80
  -4  -4   9   86.59    6.00
  -4  -4   9   84.39    6.60
   3   4  -9   26.40    3.40
   3   4  -9   24.90    2.80
  -3  -4   9   23.30    3.60
   2   4  -9    2.60    1.40
   2   4  -9    5.00    1.40
   2   4  -9    3.50    1.30
  -2  -4   9    4.30    2.40
   1   4  -9   14.40    1.90
   1   4  -9   12.90    1.90
  -1  -4   9    9.30    2.40
  -1  -4   9    8.70    1.90
  -1  -4   9   15.10    2.20
   0   4  -9   34.60    2.80
   0   4  -9   34.80    2.50
   0   4  -9   35.50    2.80
   0  -4   9   36.20    3.00
   0  -4   9   29.10    3.50
  -1   4  -9  352.66   14.50
  -1   4  -9  375.36   14.20
   1  -4   9  379.76   14.90
   1  -4   9  382.36   14.20
   1  -4   9  357.46   13.60
   1  -4   9  372.96   14.40
  -2   4  -9   -0.20    1.00
  -2   4  -9    1.30    1.40
  -2   4  -9    0.40    1.50
   2  -4   9    3.20    1.70
   2  -4   9    1.20    1.50
   2  -4   9    2.30    1.20
  -3   4  -9   74.19    4.40
   3  -4   9   66.59    3.50
   3  -4   9   71.99    4.20
   3  -4   9   69.19    4.50
  -4   4  -9    5.80    1.90
  -4   4  -9    2.90    1.80
  -4   4  -9    3.50    1.40
   4  -4   9    3.10    1.80
   4  -4   9    7.30    1.90
   4  -4   9    5.70    1.50
   5  -4   9    4.80    2.00
   5  -4   9    1.80    1.40
  -6   4  -9   16.20    2.90
   6  -4   9   12.90    2.50
   6  -4   9   10.20    2.00
   7  -4   9    4.10    2.50
   7   3  -9    7.20    4.10
   7   3  -9    3.60    2.40
  -7  -3   9    6.60    4.30
  -7  -3   9    2.10    4.30
   6   3  -9    4.40    2.10
   6   3  -9    2.60    2.40
  -6  -3   9    4.00    3.60
  -6  -3   9   -2.40    3.20
   5   3  -9   48.50    3.90
   5   3  -9   53.19    4.80
  -5  -3   9   47.30    5.40
  -5  -3   9   49.10    5.90
   4   3  -9   39.40    4.00
  -4  -3   9   49.80    4.80
  -4  -3   9   53.59    5.30
   3   3  -9    0.90    1.10
   3   3  -9    1.30    1.40
   3   3  -9   -0.70    1.00
  -3  -3   9    2.80    2.40
   2   3  -9  375.36   14.70
   2   3  -9  381.26   14.80
   2   3  -9  380.36   14.70
  -2  -3   9  394.36   16.30
  -2  -3   9  387.86   15.90
   1   3  -9  384.76   15.30
   1   3  -9  408.86   15.40
  -1  -3   9  400.66   15.60
  -1  -3   9  416.46   15.60
  -1  -3   9  397.96   16.30
   0   3  -9   20.60    2.00
   0   3  -9   22.80    2.00
   0   3  -9   21.10    2.20
   0  -3   9   21.60    2.90
   0  -3   9   22.60    2.50
  -1   3  -9   72.19    3.80
   1  -3   9   75.09    4.50
   1  -3   9   73.99    4.20
   1  -3   9   83.49    3.90
  -2   3  -9  134.79    5.60
  -2   3  -9  121.59    5.80
   2  -3   9  127.19    6.10
   2  -3   9  134.99    5.90
   2  -3   9  113.29    5.30
  -3   3  -9  557.04   20.40
  -3   3  -9  521.75   19.80
   3  -3   9  565.84   20.40
   3  -3   9  500.35   19.50
   3  -3   9  524.35   20.10
  -4   3  -9   56.69    3.10
  -4   3  -9   50.89    3.40
  -4   3  -9   50.29    3.60
   4  -3   9   56.49    2.80
   4  -3   9   50.59    3.60
   4  -3   9   54.69    3.60
  -5   3  -9    8.60    3.10
   5  -3   9   11.20    2.00
   5  -3   9   10.30    2.40
  -6   3  -9  297.17   12.40
   6  -3   9  305.47   11.80
   6  -3   9  289.07   12.20
   6  -3   9  287.57   12.10
   7  -3   9   46.30    5.00
   7  -3   9   51.79    4.10
   8  -3   9   52.09    4.50
   7   2  -9   -3.60    2.10
   7   2  -9   -0.30    3.60
  -7  -2   9    0.60    3.90
  -7  -2   9    0.40    3.70
   6   2  -9    2.10    1.90
  -6  -2   9    1.80    3.40
  -6  -2   9    0.10    3.30
   5   2  -9  127.19    6.30
   5   2  -9  132.59    6.10
  -5  -2   9  124.99    8.10
  -5  -2   9  136.29    7.90
   4   2  -9   19.10    2.30
   4   2  -9   18.70    2.60
   3   2  -9    3.50    1.00
   3   2  -9    3.60    1.20
   3   2  -9    1.90    1.40
  -3  -2   9    1.60    2.30
   2   2  -9   91.49    4.30
   2   2  -9   96.79    4.60
   2   2  -9  101.99    4.70
  -2  -2   9   86.59    5.00
  -2  -2   9   94.59    5.70
  -2  -2   9   96.19    5.00
   1   2  -9    7.60    1.30
   1   2  -9    6.60    1.40
  -1  -2   9    7.20    1.60
  -1  -2   9    7.80    2.10
   0   2  -9  101.69    4.70
   0   2  -9  108.29    4.80
   0  -2   9  106.79    5.50
   0  -2   9  103.99    5.00
   0  -2   9   92.99    4.80
  -1   2  -9  100.89    4.70
   1  -2   9   98.79    4.90
   1  -2   9  102.09    4.60
   1  -2   9   92.89    5.10
  -2   2  -9    7.30    1.30
   2  -2   9   11.20    1.90
   2  -2   9    7.50    1.40
   2  -2   9   11.40    1.70
  -3   2  -9    3.00    1.20
  -3   2  -9    2.00    1.10
  -3   2  -9    1.20    1.00
   3  -2   9    1.80    1.40
   3  -2   9    1.60    1.40
  -4   2  -9  304.87   12.30
  -4   2  -9  312.77   11.90
   4  -2   9  308.37   12.10
   4  -2   9  292.07   11.30
   4  -2   9  308.17   12.20
  -5   2  -9  150.18    6.70
   5  -2   9  140.09    5.70
   5  -2   9  142.19    6.50
   5  -2   9  133.49    6.50
  -6   2  -9  152.18    7.80
   6  -2   9  145.39    7.10
   6  -2   9  159.48    7.30
  -7   2  -9    3.80    2.70
   7  -2   9   -0.40    1.80
  -8   2  -9    1.60    3.00
   8  -2   9   -2.20    2.60
   8  -2   9    5.20    2.40
   7   1  -9   25.70    3.30
   7   1  -9   44.30    5.50
  -7  -1   9   42.10    5.60
  -7  -1   9   37.90    5.70
   6   1  -9   -1.10    1.50
   6   1  -9    1.80    3.00
   6   1  -9    1.90    1.80
  -6  -1   9    0.20    3.10
  -6  -1   9    1.80    3.50
   5   1  -9    6.60    1.60
   5   1  -9   13.60    2.10
  -5  -1   9   12.80    3.30
  -5  -1   9    9.60    2.90
   4   1  -9  141.49    6.50
   4   1  -9  159.98    7.20
  -4  -1   9  140.79    8.50
   3   1  -9  379.56   14.10
   3   1  -9  358.96   14.10
   3   1  -9  354.56   14.10
  -3  -1   9  349.47   15.20
   2   1  -9  142.69    6.10
   2   1  -9  137.79    6.10
   2   1  -9  126.79    5.70
  -2  -1   9  137.19    6.40
  -2  -1   9  140.19    6.50
  -2  -1   9  137.59    7.10
   1   1  -9  825.92   31.10
   1   1  -9  868.61   31.10
  -1  -1   9  881.81   31.10
  -1  -1   9  816.22   31.80
  -1  -1   9  835.52   31.30
   0   1  -9   -0.30    0.90
   0  -1   9    0.60    1.40
   0  -1   9   -0.50    1.20
   0  -1   9   -0.60    1.20
  -1   1  -9   76.39    3.20
  -1   1  -9   68.39    3.80
  -1   1  -9   79.19    4.00
   1  -1   9   76.09    4.30
   1  -1   9   76.69    4.00
   1  -1   9   79.69    3.60
  -2   1  -9   96.09    5.90
  -2   1  -9   95.99    4.60
  -2   1  -9   94.29    3.80
   2  -1   9   87.99    4.60
   2  -1   9   96.29    4.70
   2  -1   9   88.09    3.90
  -3   1  -9   25.40    2.30
  -3   1  -9   28.40    2.40
  -3   1  -9   21.70    2.80
   3  -1   9   23.10    1.50
   3  -1   9   23.00    2.40
   3  -1   9   27.70    2.40
  -4   1  -9   20.60    2.30
  -4   1  -9   21.40    2.30
   4  -1   9   19.10    2.50
   4  -1   9   23.10    2.30
   4  -1   9   24.80    1.40
  -5   1  -9  543.95   20.20
  -5   1  -9  534.55   20.40
   5  -1   9  524.95   20.30
   5  -1   9  537.05   20.20
  -6   1  -9   51.49    3.60
   6  -1   9   43.00    3.70
   6  -1   9   49.30    3.60
  -7   1  -9   62.79    4.40
   7  -1   9   67.79    5.00
  -8   1  -9    4.50    2.80
   8  -1   9    3.70    2.40
   8  -1   9    8.90    2.20
  -9   1  -9    0.70    2.50
   9  -1   9    2.00    3.20
   9  -1   9   -3.10    2.50
   7   0  -9    1.10    3.10
  -7   0   9   -0.90    4.00
   6   0  -9    6.90    2.00
   6   0  -9   14.20    3.50
  -6   0   9    7.90    3.50
   5   0  -9   57.89    3.50
   5   0  -9   53.19    3.80
  -5   0   9   65.89    5.90
  -5   0   9   51.19    5.20
   4   0  -9    0.70    1.50
  -4   0   9    4.50    2.60
   3   0  -9  171.38    7.40
   3   0  -9  164.78    7.30
   3   0  -9  172.28    6.90
  -3   0   9  176.18    8.60
  -3   0   9  164.28    7.90
   2   0  -9   15.60    2.00
   2   0  -9   15.90    1.90
   2   0  -9   18.20    2.10
  -2   0   9   13.10    1.90
  -2   0   9   21.40    2.90
   1   0  -9  200.08    8.40
   1   0  -9  204.38    8.30
  -1   0   9  193.28    9.00
  -1   0   9  198.68    8.40
  -1   0   9  208.28    8.60
   0   0  -9    5.60    1.30
   0   0  -9    4.70    0.90
   0   0   9    5.60    1.60
   0   0   9    4.70    1.40
  -1   0  -9  119.09    4.60
  -1   0  -9  132.49    5.80
  -1   0  -9  111.69    4.70
   1   0   9  118.39    5.60
   1   0   9  122.39    5.80
   1   0   9  121.29    4.90
  -2   0  -9    0.50    1.00
  -2   0  -9    0.00    1.00
   2   0   9    1.20    1.20
   2   0   9    1.20    1.10
  -3   0  -9  627.14   22.70
  -3   0  -9  590.94   22.60
  -3   0  -9  585.64   22.00
   3   0   9  601.74   22.40
   3   0   9  596.54   22.50
  -4   0  -9  138.89    6.00
  -4   0  -9  110.49    5.90
   4   0   9  125.59    5.70
   4   0   9  127.49    5.90
  -5   0  -9  128.79    5.70
  -5   0  -9  125.29    5.90
  -5   0  -9  103.39    5.70
   5   0   9  124.89    5.80
   5   0   9  124.59    5.60
  -6   0  -9   45.60    3.40
  -6   0  -9   36.10    3.50
  -6   0  -9   38.70    3.20
   6   0   9   37.70    3.40
  -7   0  -9   16.20    3.20
  -7   0  -9   17.10    2.70
   7   0   9   20.10    2.30
   7   0   9   20.30    3.40
  -8   0  -9   55.79    4.30
  -8   0  -9   58.29    4.90
   8   0   9   53.59    4.10
   8   0   9   58.39    4.70
  -9   0  -9   22.60    3.60
   9   0   9   25.90    3.60
   7  -1  -9    2.00    2.30
   7  -1  -9    7.40    4.00
  -7   1   9    1.70    4.20
   6  -1  -9    4.10    3.00
   6  -1  -9    4.60    2.30
   5  -1  -9   51.29    5.20
   5  -1  -9   46.40    3.30
   5  -1  -9   45.50    3.60
  -5   1   9   45.40    5.00
  -5   1   9   64.49    5.80
   4  -1  -9   37.30    2.90
   4  -1  -9   39.70    4.00
   3  -1  -9  790.62   29.30
   3  -1  -9  775.42   29.30
   3  -1  -9  741.13   29.00
   3  -1  -9  890.81   29.50
  -3   1   9  736.63   29.80
  -3   1   9  805.42   30.50
   2  -1  -9  800.12   29.40
   2  -1  -9  723.93   29.30
   2  -1  -9  831.22   29.60
  -2   1   9  821.12   30.40
  -2   1   9  803.92   29.70
   1  -1  -9   57.19    3.40
   1  -1  -9   62.69    2.70
   1  -1  -9   55.19    3.60
  -1   1   9   62.49    3.70
  -1   1   9   64.29    3.60
  -1   1   9   64.59    4.20
   0  -1  -9  432.06   15.70
   0  -1  -9  428.46   15.50
   0  -1  -9  421.36   16.50
   0   1   9  417.06   16.40
   0   1   9  429.06   16.70
  -1  -1  -9   47.70    2.10
  -1  -1  -9   45.70    3.20
  -1  -1  -9   50.49    3.30
  -1  -1  -9   53.39    4.00
   1   1   9   48.70    2.40
   1   1   9   49.40    3.40
   1   1   9   49.90    3.10
  -2  -1  -9    7.60    1.60
  -2  -1  -9    7.60    1.00
  -2  -1  -9    5.30    1.40
   2   1   9    4.80    1.40
   2   1   9    3.40    1.30
   2   1   9    6.30    1.50
  -3  -1  -9    1.00    1.10
  -3  -1  -9    0.90    0.90
  -3  -1  -9    0.10    1.20
   3   1   9    0.30    1.40
   3   1   9   -1.10    1.10
  -4  -1  -9  328.07   13.70
  -4  -1  -9  331.77   13.70
  -4  -1  -9  370.56   13.40
   4   1   9  331.27   13.40
   4   1   9  344.87   13.20
   4   1   9  342.37   13.80
  -5  -1  -9   -0.30    1.60
  -5  -1  -9    3.70    1.30
  -5  -1  -9    2.00    1.40
   5   1   9    1.20    1.40
   5   1   9    1.80    1.30
   5   1   9   -0.70    1.70
  -6  -1  -9  560.04   21.20
  -6  -1  -9  530.35   20.90
   6   1   9  557.84   21.30
   6   1   9  550.64   20.90
  -7  -1  -9   16.20    2.50
   7   1   9   13.70    2.40
  -8  -1  -9    2.40    2.30
  -8  -1  -9    4.20    1.90
   8   1   9    0.60    1.90
   8   1   9    1.00    2.10
  -9  -1  -9    1.30    2.20
   9   1   9    2.50    2.60
   6  -2  -9    4.90    2.10
  -6   2   9   -1.90    3.20
   5  -2  -9  210.08   10.40
   5  -2  -9  198.28    8.70
  -5   2   9  211.18   10.60
  -5   2   9  174.68    9.70
   4  -2  -9   22.50    3.50
   4  -2  -9   25.30    2.90
   4  -2  -9   19.10    2.40
  -4   2   9   25.00    3.20
  -4   2   9   24.10    2.90
  -4   2   9   19.20    3.60
   3  -2  -9    2.80    1.30
   3  -2  -9    1.60    1.40
   3  -2  -9    4.90    1.20
  -3   2   9    4.30    1.40
  -3   2   9    6.10    2.40
   2  -2  -9  221.28    9.20
   2  -2  -9  217.08    9.00
  -2   2   9  208.38    9.20
  -2   2   9  215.08    9.90
  -2   2   9  217.48    9.20
   1  -2  -9   51.29    3.20
   1  -2  -9   50.79    2.60
   1  -2  -9   52.29    3.50
  -1   2   9   53.99    3.50
  -1   2   9   52.99    3.30
  -1   2   9   54.79    4.00
   0  -2  -9  524.05   20.80
   0  -2  -9  514.45   19.80
   0  -2  -9  537.45   20.70
   0   2   9  572.04   21.10
   0   2   9  552.34   20.50
   0   2   9  545.55   20.80
  -1  -2  -9  372.76   14.40
  -1  -2  -9  356.36   13.20
  -1  -2  -9  339.77   14.20
  -1  -2  -9  346.87   12.90
   1   2   9  349.37   13.80
   1   2   9  363.26   14.50
   1   2   9  350.26   14.30
  -2  -2  -9  197.58    8.80
  -2  -2  -9  198.88    8.70
  -2  -2  -9  197.48    7.80
   2   2   9  200.28    8.80
   2   2   9  193.78    8.30
   2   2   9  201.58    8.40
  -3  -2  -9  152.58    7.20
  -3  -2  -9  151.08    7.10
  -3  -2  -9  139.39    6.20
   3   2   9  153.68    7.20
   3   2   9  149.19    6.60
   3   2   9  146.69    6.50
  -4  -2  -9  269.17   11.40
  -4  -2  -9  278.67   11.50
   4   2   9  272.67   10.90
   4   2   9  261.57   11.40
   4   2   9  262.97   10.60
  -5  -2  -9  331.97   13.10
  -5  -2  -9  327.17   13.70
  -5  -2  -9  335.57   13.70
   5   2   9  333.47   13.20
  -6  -2  -9   -3.30    1.30
  -6  -2  -9   -1.50    1.60
  -7  -2  -9   19.90    2.70
   7   2   9   20.60    3.20
   7   2   9   18.10    2.50
  -8  -2  -9    0.00    2.60
  -8  -2  -9    4.20    2.10
  -8  -2  -9   -1.00    2.10
   8   2   9    0.80    2.20
   8   2   9    3.50    2.00
  -9  -2  -9    5.40    2.40
  -9  -2  -9    6.90    3.30
   9   2   9    9.20    2.50
   6  -3  -9    7.10    3.40
   6  -3  -9    5.80    2.30
  -6   3   9    5.50    3.60
   5  -3  -9  123.19    6.30
   5  -3  -9  127.89    8.00
  -5   3   9  125.69    7.80
  -5   3   9  138.49    8.50
   4  -3  -9   12.10    2.10
   4  -3  -9   18.30    3.30
   4  -3  -9   16.90    2.00
   4  -3  -9   11.10    1.90
  -4   3   9   12.40    3.00
  -4   3   9   11.70    3.20
  -4   3   9    9.00    2.10
   3  -3  -9  279.97   12.10
   3  -3  -9  280.27   13.30
   3  -3  -9  262.67   11.00
   3  -3  -9  258.97   10.60
  -3   3   9  268.07   10.80
  -3   3   9  277.17   12.30
   2  -3  -9   94.49    5.40
   2  -3  -9   87.69    4.70
  -2   3   9   97.89    5.80
  -2   3   9   96.09    5.20
  -2   3   9   93.49    5.00
   1  -3  -9  107.59    4.80
   1  -3  -9  106.39    5.00
   1  -3  -9  102.99    5.50
   1  -3  -9  110.49    6.00
   1  -3  -9  106.19    5.10
  -1   3   9  113.09    5.20
  -1   3   9  107.59    5.40
   0  -3  -9   67.19    3.40
   0  -3  -9   66.59    4.40
   0  -3  -9   69.69    3.50
   0  -3  -9   79.29    4.50
   0   3   9   75.89    4.50
   0   3   9   66.49    4.00
   0   3   9   67.79    4.30
   0   3   9   69.29    3.50
  -1  -3  -9    9.10    1.90
  -1  -3  -9    6.50    1.10
  -1  -3  -9    5.40    0.90
  -1  -3  -9    6.80    1.20
  -1  -3  -9    7.60    1.80
   1   3   9    7.00    1.60
   1   3   9    6.60    1.60
   1   3   9    3.20    1.70
  -2  -3  -9  109.69    5.00
  -2  -3  -9  109.39    6.00
  -2  -3  -9  113.79    6.00
   2   3   9  115.29    5.40
   2   3   9  116.69    6.10
   2   3   9  118.69    5.50
  -3  -3  -9  204.88    9.80
   3   3   9  225.28    9.10
   3   3   9  220.18    8.90
   3   3   9  221.48    9.80
  -4  -3  -9  195.58    9.00
  -4  -3  -9  186.58    8.10
   4   3   9  193.58    8.00
   4   3   9  200.18    9.10
   4   3   9  195.48    8.30
  -5  -3  -9  276.27   11.40
  -5  -3  -9  278.67   12.30
   5   3   9  279.67   11.10
   5   3   9  298.57   11.70
   5   3   9  292.07   12.40
  -6  -3  -9  302.67   12.50
  -6  -3  -9  310.27   13.10
   6   3   9  306.97   12.50
   6   3   9  307.87   11.90
   6   3   9  309.97   13.30
  -7  -3  -9   20.50    4.30
   7   3   9   16.20    3.20
   7   3   9   13.00    2.40
   7   3   9   17.10    2.00
  -8  -3  -9   -3.20    2.00
  -8  -3  -9   -1.60    2.20
   8   3   9    2.60    2.20
  -9  -3  -9    6.70    2.50
   9   3   9    5.80    2.70
   5  -4  -9    8.50    2.10
   5  -4  -9   -1.30    2.90
  -5   4   9    6.50    3.10
   4  -4  -9    2.50    2.70
   4  -4  -9    2.00    1.70
  -4   4   9    1.80    2.50
   3  -4  -9   35.10    3.00
   3  -4  -9   35.90    4.20
   3  -4  -9   32.40    3.30
   3  -4  -9   33.90    2.90
  -3   4   9   35.80    4.60
  -3   4   9   36.20    3.80
   2  -4  -9   18.90    2.50
   2  -4  -9   27.20    2.70
   2  -4  -9   17.40    2.30
  -2   4   9   19.40    3.00
   1  -4  -9   26.20    3.10
   1  -4  -9   28.10    2.50
  -1   4   9   23.90    3.30
  -1   4   9   22.30    2.50
  -1   4   9   32.60    5.10
  -1   4   9   23.10    2.70
   0  -4  -9   37.60    2.40
   0  -4  -9   38.70    3.50
   0  -4  -9   34.40    3.60
   0  -4  -9   38.10    2.70
   0   4   9   35.80    3.70
   0   4   9   41.40    3.10
  -1  -4  -9    7.10    1.30
  -1  -4  -9    7.90    0.90
  -1  -4  -9    6.60    1.90
  -1  -4  -9    4.50    1.80
   1   4   9    9.80    1.90
   1   4   9    6.70    1.90
   1   4   9   10.00    1.70
  -2  -4  -9   67.59    2.70
  -2  -4  -9   60.39    3.50
  -2  -4  -9   72.79    4.80
   2   4   9   67.69    3.90
   2   4   9   65.89    3.80
   2   4   9   62.29    4.60
  -3  -4  -9  582.84   23.40
  -3  -4  -9  629.04   22.30
   3   4   9  595.04   23.40
   3   4   9  568.34   22.00
   3   4   9  600.44   22.40
  -4  -4  -9    5.30    2.10
  -4  -4  -9    4.70    1.50
   4   4   9    1.70    2.10
   4   4   9    5.50    1.60
  -5  -4  -9    9.70    1.80
  -5  -4  -9   11.70    2.50
   5   4   9    8.80    2.50
   5   4   9    6.40    2.00
   5   4   9   11.20    2.00
  -6  -4  -9    0.50    1.60
  -6  -4  -9    0.50    2.10
   6   4   9    0.80    1.80
  -7  -4  -9    1.10    2.00
   7   4   9   -2.60    2.70
   7   4   9    0.40    1.90
  -8  -4  -9  140.09    7.40
  -8  -4  -9  144.39    7.70
   8   4   9  123.89    7.00
  -9  -4  -9  101.99    8.60
  -9  -4  -9   96.19    6.60
   5  -5  -9   23.20    4.90
  -5   5   9   28.20    4.60
  -5   5   9   43.10    5.00
   4  -5  -9  824.22   30.50
   4  -5  -9  836.92   30.30
  -4   5   9  783.72   31.10
  -4   5   9  809.72   30.70
   3  -5  -9   24.50    2.80
   3  -5  -9   28.50    4.60
   3  -5  -9   26.30    3.00
  -3   5   9   28.90    3.60
  -3   5   9   26.70    3.30
   2  -5  -9  171.48    8.80
   2  -5  -9  175.08    7.80
  -2   5   9  183.78    9.00
  -2   5   9  184.88    9.00
   1  -5  -9  168.98   10.30
   1  -5  -9  179.88    7.80
   1  -5  -9  177.58    7.50
  -1   5   9  167.88    7.70
  -1   5   9  174.38    8.50
   0  -5  -9   76.49    4.40
   0  -5  -9   76.09    5.10
   0  -5  -9   75.19    3.60
   0  -5  -9   66.89    5.30
   0   5   9   76.69    5.20
   0   5   9   69.79    4.30
  -1  -5  -9   36.40    2.70
  -1  -5  -9   28.50    2.90
  -1  -5  -9   34.20    2.00
  -1  -5  -9   36.00    4.10
   1   5   9   35.50    3.00
   1   5   9   32.90    3.20
   1   5   9   30.70    3.90
  -2  -5  -9   22.40    1.50
  -2  -5  -9   18.60    2.90
  -2  -5  -9   18.70    2.40
   2   5   9   22.60    3.10
   2   5   9   20.20    2.60
   2   5   9   23.90    3.30
  -3  -5  -9  408.26   16.90
  -3  -5  -9  381.76   15.50
   3   5   9  405.76   15.70
   3   5   9  407.26   16.80
  -4  -5  -9   17.90    3.10
  -4  -5  -9   22.70    2.70
   4   5   9   22.20    2.70
   4   5   9   22.90    3.40
  -5  -5  -9  128.19    6.30
  -5  -5  -9  124.69    7.30
   5   5   9  121.79    6.10
   5   5   9  121.49    7.60
  -6  -5  -9    0.80    2.30
   6   5   9    1.80    4.50
   6   5   9    7.50    2.10
  -7  -5  -9   -1.00    1.90
  -7  -5  -9    3.00    2.70
   7   5   9    4.50    2.20
   7   5   9    7.80    3.40
  -8  -5  -9  124.19    7.10
   8   5   9  130.09    6.90
  -9  -5  -9    1.90    2.70
   9   5   9   -1.70    2.80
   4  -6  -9   22.30    3.00
   4  -6  -9   22.50    3.50
   3  -6  -9  235.48    9.70
   3  -6  -9  247.88   11.00
   3  -6  -9  239.18   13.10
   3  -6  -9  233.28   10.10
  -3   6   9  226.78   10.40
  -3   6   9  201.48   12.40
   2  -6  -9   40.70    4.20
   2  -6  -9   40.40    4.30
   2  -6  -9   43.30    5.70
   2  -6  -9   35.90    3.40
  -2   6   9   50.09    7.70
  -2   6   9   37.70    4.70
   1  -6  -9  133.49    7.80
   1  -6  -9  125.49    8.10
   1  -6  -9  125.99    5.90
   1  -6  -9  117.19    7.10
  -1   6   9  124.49    7.30
  -1   6   9  128.39    8.00
  -1   6   9  125.59    8.10
   0  -6  -9  114.29    5.20
   0  -6  -9  122.19    7.00
   0  -6  -9  120.79    7.50
   0   6   9  124.59    7.10
   0   6   9  116.59    7.70
  -1  -6  -9   15.00    2.00
  -1  -6  -9   14.60    3.10
   1   6   9   14.50    2.50
   1   6   9   14.10    2.90
  -2  -6  -9   43.40    4.80
  -2  -6  -9   40.60    3.20
  -2  -6  -9   36.90    2.10
   2   6   9   34.90    4.60
   2   6   9   31.90    3.20
  -3  -6  -9    0.50    1.60
  -3  -6  -9    2.50    2.50
   3   6   9    2.40    2.60
   3   6   9    2.80    1.70
  -4  -6  -9   74.89    4.60
   4   6   9   75.19    5.20
   4   6   9   61.79    7.20
  -5  -6  -9   42.10    5.10
  -5  -6  -9   44.50    4.70
   5   6   9   42.50    3.70
   5   6   9   44.00    7.10
  -6  -6  -9   10.30    2.40
  -6  -6  -9   11.40    3.10
   6   6   9    9.20    2.40
  -7  -6  -9  136.49    8.40
  -7  -6  -9  144.49    7.50
   7   6   9  150.08    9.30
   7   6   9  139.89    7.30
  -8  -6  -9  115.79    7.80
  -8  -6  -9  107.99    6.90
   8   6   9  119.79    6.70
   3  -7  -9    1.50    2.90
  -3   7   9    9.90    5.40
   2  -7  -9    6.10    2.80
   2  -7  -9    2.70    1.90
   2  -7  -9    3.90    2.80
  -2   7   9    2.30    3.00
   1  -7  -9  131.99    7.60
   1  -7  -9  131.19    5.90
  -1   7   9  123.59    7.70
  -1   7   9  118.69    8.50
   0  -7  -9   82.29    4.80
   0  -7  -9   76.29    5.70
   0  -7  -9   69.19    6.40
   0   7   9   67.79    5.00
   0   7   9   74.49    6.80
   0   7   9   63.89    6.00
  -1  -7  -9   11.80    3.30
  -1  -7  -9   14.40    2.90
   1   7   9    6.30    3.10
   1   7   9   13.60    3.50
  -2  -7  -9  342.17   15.80
  -2  -7  -9  356.46   15.40
   2   7   9  353.26   16.10
  -3  -7  -9   36.30    5.20
  -3  -7  -9   42.00    3.70
  -4  -7  -9    0.20    2.80
  -4  -7  -9   -0.80    1.90
   4   7   9   -0.30    2.00
   4   7   9    2.90    2.90
  -5  -7  -9    7.50    3.20
  -5  -7  -9   12.10    2.40
   5   7   9   15.40    3.90
  -6  -7  -9   30.30    4.40
  -6  -7  -9   24.30    3.40
   6   7   9   24.90    5.10
  -7  -7  -9   61.99    6.90
  -7  -7  -9   61.49    5.10
   7   7   9   62.19    5.10
  -8  -7  -9    0.70    2.90
   8   7   9    1.80    3.00
   8   7   9    0.80    4.60
   2  -8  -9   76.59    7.70
  -2   8   9   83.59    8.00
   1  -8  -9    2.80    3.40
  -1   8   9    2.00    3.90
   0  -8  -9    3.30    3.50
   0  -8  -9    0.00    2.10
   0  -8  -9    6.20    1.60
   0   8   9    5.00    3.30
   0   8   9   11.40    4.10
  -1  -8  -9  214.08   11.60
  -1  -8  -9  204.38    9.50
   1   8   9  204.58   11.70
   1   8   9  206.88   11.00
  -2  -8  -9   67.99    6.80
  -2  -8  -9   73.89    5.00
   2   8   9   72.29    7.30
   2   8   9   62.09    6.70
  -3  -8  -9   96.89    7.60
  -3  -8  -9   95.69    5.90
   3   8   9  103.99    5.80
  -4  -8  -9   31.90    4.00
  -4  -8  -9   31.20    4.90
   4   8   9   38.30    5.70
   4   8   9   36.50    4.10
  -5  -8  -9   34.60    5.20
  -5  -8  -9   29.70    3.60
   5   8   9   33.60    5.10
   5   8   9   32.80    4.00
  -6  -8  -9   19.20    3.20
  -6  -8  -9   15.70    4.50
  -7  -8  -9   88.09    8.00
  -7  -8  -9   79.69    6.60
   7   8   9   95.09    9.70
   0   9   9    9.70    4.70
  -1  -9  -9   98.49    7.00
   1   9   9  112.99    9.40
  -2  -9  -9   96.99    8.30
   2   9   9   97.99    8.70
   2   9   9  106.99    9.00
  -3  -9  -9   18.80    3.20
  -3  -9  -9    9.10    4.20
   3   9   9   11.60    4.60
  -4  -9  -9   -5.80    3.80
  -4  -9  -9    2.30    2.60
   4   9   9    3.50    4.00
  -5  -9  -9    7.40    3.00
   5   9   9    6.70    4.30
   0   8 -10    4.10    2.80
   0  -8  10    4.60    3.20
   3   7 -10    5.10    2.70
  -3  -7  10   10.20    4.00
   2   7 -10   49.40    4.40
  -2  -7  10   53.79    8.60
   1   7 -10   36.60    4.00
  -1  -7  10   41.10    5.00
   0   7 -10   11.50    2.70
   0  -7  10   14.00    3.80
  -1   7 -10   24.60    3.60
   1  -7  10   23.00    5.10
   1  -7  10   22.10    3.90
  -2   7 -10   20.00    2.80
   2  -7  10   14.20    3.60
   3  -7  10  162.38    8.90
   4   6 -10   11.30    2.50
  -4  -6  10    9.00    4.40
  -4  -6  10    6.30    3.80
   3   6 -10   65.79    6.40
   3   6 -10   60.99    4.40
  -3  -6  10   51.39    5.80
   2   6 -10   11.10    2.20
   2   6 -10    7.50    2.10
  -2  -6  10    9.50    3.60
  -2  -6  10    6.10    3.00
  -1  -6  10    6.50    2.70
  -1  -6  10    5.10    3.00
   0   6 -10   -0.50    1.70
   0   6 -10    3.20    2.20
   0   6 -10   -2.20    2.50
   0  -6  10   -2.50    2.80
  -1   6 -10    1.70    1.80
  -1   6 -10    0.70    2.30
   1  -6  10    1.60    2.20
   1  -6  10    3.60    2.80
   2  -6  10    5.50    2.80
   2  -6  10    4.40    2.30
   3  -6  10   18.40    3.20
   3  -6  10   18.40    4.40
  -4   6 -10   53.99    5.20
   4  -6  10   48.30    4.10
  -5   6 -10   83.69    6.40
   5  -6  10   79.39    6.10
   5   5 -10   10.60    2.60
  -5  -5  10   13.80    4.10
   4   5 -10   22.50    3.80
   4   5 -10   32.60    3.50
  -4  -5  10   25.40    4.60
  -4  -5  10   25.30    4.10
   3   5 -10  112.19    5.80
   3   5 -10  110.59    5.90
  -3  -5  10  113.59    7.20
  -3  -5  10  112.89    7.80
   2   5 -10   26.10    3.10
   2   5 -10   25.00    2.90
  -2  -5  10   23.00    3.90
  -2  -5  10   23.20    3.60
   1   5 -10   16.00    2.70
  -1  -5  10   20.10    2.90
  -1  -5  10   20.80    3.50
   0   5 -10    4.60    2.00
   0   5 -10    3.60    1.80
   0  -5  10    7.80    2.70
   0  -5  10    1.80    1.90
  -1   5 -10   30.70    3.90
  -1   5 -10   26.30    2.80
   1  -5  10   27.10    4.30
   1  -5  10   27.20    3.60
  -2   5 -10    2.20    1.90
  -2   5 -10    3.90    1.50
   2  -5  10    6.30    2.40
   3  -5  10    0.80    2.20
   3  -5  10    1.20    1.90
  -4   5 -10  140.49    7.70
  -4   5 -10  145.09    6.70
   4  -5  10  157.38    6.60
   4  -5  10  146.49    7.60
  -5   5 -10    9.00    3.00
   5  -5  10   12.10    2.80
  -6   5 -10   51.39    7.10
  -6   5 -10   59.49    5.50
   6   4 -10   26.90    3.40
   6   4 -10   36.00    3.90
  -6  -4  10   28.00    7.90
   5   4 -10    6.60    2.30
   5   4 -10    1.30    2.00
  -5  -4  10    3.50    3.40
  -5  -4  10    8.90    4.00
   4   4 -10   27.20    3.10
  -4  -4  10   35.30    4.20
  -4  -4  10   27.20    4.40
   3   4 -10  349.77   14.10
   3   4 -10  322.47   16.10
   3   4 -10  389.26   14.40
  -3  -4  10  359.26   15.80
  -3  -4  10  379.16   15.30
   2   4 -10  533.55   20.40
   2   4 -10  537.55   20.40
  -2  -4  10  538.15   21.80
   1   4 -10    3.80    1.70
   1   4 -10    3.80    1.70
  -1  -4  10    1.70    2.50
  -1  -4  10    6.00    1.90
   0   4 -10    9.10    1.90
   0   4 -10   10.10    1.70
   0  -4  10   13.10    2.20
   0  -4  10    8.70    2.50
  -1   4 -10   57.89    3.80
  -1   4 -10   55.19    3.40
   1  -4  10   60.29    3.70
   1  -4  10   51.89    4.60
   1  -4  10   57.39    3.90
  -2   4 -10    1.70    1.50
  -2   4 -10    1.50    1.20
   2  -4  10    2.20    1.50
   2  -4  10    1.00    1.90
   2  -4  10    2.60    3.70
  -3   4 -10    5.90    1.90
   3  -4  10    7.10    1.60
   3  -4  10    5.10    2.10
   3  -4  10    1.40    1.90
  -4   4 -10   26.60    3.40
  -4   4 -10   25.50    3.40
   4  -4  10   29.60    3.50
   4  -4  10   29.80    3.70
   4  -4  10   28.60    2.60
  -5   4 -10    7.40    2.20
   5  -4  10    6.30    2.40
  -6   4 -10    6.90    3.20
   6  -4  10   -0.20    2.40
  -7   4 -10    9.40    4.10
   7  -4  10   17.00    3.20
   6   3 -10  100.09    6.00
  -6  -3  10   86.99    7.80
  -6  -3  10  108.99    8.40
   5   3 -10    7.50    2.20
   5   3 -10    3.60    1.90
  -5  -3  10    5.60    3.30
  -5  -3  10    2.80    3.50
  -4  -3  10   26.70    3.80
  -4  -3  10   19.50    3.90
   3   3 -10  108.99    6.60
  -3  -3  10  113.19    6.60
  -3  -3  10  110.49    7.20
   2   3 -10   26.60    2.50
   2   3 -10   28.30    2.90
  -2  -3  10   24.90    3.60
   1   3 -10  559.14   20.60
   1   3 -10  536.45   20.50
  -1  -3  10  535.95   21.60
  -1  -3  10  541.15   20.80
   0   3 -10   80.59    4.20
   0   3 -10   80.59    4.20
   0   3 -10   80.29    4.40
   0  -3  10   74.69    5.20
   0  -3  10   78.29    4.50
   0  -3  10   86.29    4.50
  -1   3 -10   52.59    3.20
  -1   3 -10   55.59    3.40
   1  -3  10   52.59    4.10
   1  -3  10   52.59    3.70
   1  -3  10   55.59    3.40
  -2   3 -10  122.39    5.60
  -2   3 -10  129.29    5.90
   2  -3  10  119.49    6.30
   2  -3  10  122.99    6.00
   2  -3  10  120.99    5.40
  -3   3 -10   76.79    4.60
  -3   3 -10   88.19    4.30
   3  -3  10   86.49    5.00
   3  -3  10   84.89    4.00
   3  -3  10   85.19    4.70
  -4   3 -10   77.09    5.20
  -4   3 -10   79.19    4.40
   4  -3  10   81.99    4.10
  -5   3 -10   81.19    4.80
   5  -3  10   67.69    4.70
   5  -3  10   72.49    4.70
  -6   3 -10   62.19    4.50
   6  -3  10   50.59    4.70
   6  -3  10   66.79    4.60
  -7   3 -10   42.60    4.60
   7  -3  10   50.79    5.00
   7  -3  10   46.40    4.50
   6   2 -10   47.90    4.00
   6   2 -10   54.79    4.40
  -6  -2  10   51.89    5.90
   5   2 -10    8.30    2.10
   5   2 -10    9.40    1.90
  -5  -2  10    7.10    3.60
  -5  -2  10    6.10    3.50
   4   2 -10   29.50    3.30
  -4  -2  10   32.30    4.10
  -4  -2  10   34.30    4.50
   3   2 -10   32.50    3.20
   3   2 -10   34.80    3.10
  -3  -2  10   35.90    6.00
   2   2 -10   25.60    2.50
   2   2 -10   29.20    2.80
  -2  -2  10   25.10    3.10
  -2  -2  10   27.00    3.60
   1   2 -10    2.20    1.30
   1   2 -10    1.20    1.10
  -1  -2  10    6.70    2.20
  -1  -2  10    2.50    1.60
  -1  -2  10    2.40    1.60
   0   2 -10  104.29    5.30
   0   2 -10  121.29    5.40
   0  -2  10  120.59    5.80
   0  -2  10  113.29    6.30
   0  -2  10  121.99    5.50
  -1   2 -10  200.08    8.10
  -1   2 -10  197.78    8.20
   1  -2  10  175.78    8.60
   1  -2  10  199.28    8.40
   1  -2  10  188.48    7.90
  -2   2 -10   10.50    1.70
  -2   2 -10   10.40    1.60
   2  -2  10   13.60    1.50
   2  -2  10   14.60    2.10
  -3   2 -10   41.70    3.00
  -3   2 -10   35.70    2.80
  -3   2 -10   35.90    2.60
   3  -2  10   41.40    3.20
   3  -2  10   34.30    3.20
  -4   2 -10   34.40    3.10
   4  -2  10   36.40    3.30
   4  -2  10   38.70    3.30
  -5   2 -10   21.80    2.80
  -5   2 -10   20.40    2.90
   5  -2  10   22.40    2.60
   5  -2  10   29.30    3.60
  -6   2 -10   13.70    2.40
   6  -2  10   14.50    2.40
   6  -2  10   11.90    2.60
  -7   2 -10    0.10    2.00
   7  -2  10    5.60    2.60
   7  -2  10   -0.80    2.10
  -8   2 -10    7.60    2.80
   6   1 -10    0.10    3.10
  -6  -1  10    0.50    3.70
  -6  -1  10    1.20    3.50
   5   1 -10   11.20    2.20
  -5  -1  10   13.80    3.50
  -5  -1  10   10.60    3.50
   4   1 -10    1.30    1.60
   4   1 -10    0.60    2.10
  -4  -1  10   -3.50    2.60
  -4  -1  10   -0.30    2.70
   3   1 -10   -1.00    1.20
   3   1 -10    0.20    1.50
   3   1 -10    0.70    1.00
  -3  -1  10    2.90    2.70
   2   1 -10  561.64   21.40
   2   1 -10  571.24   21.50
  -2  -1  10  538.35   22.50
  -2  -1  10  584.04   21.80
  -2  -1  10  587.34   21.80
   1   1 -10   35.20    2.80
   1   1 -10   34.60    2.70
  -1  -1  10   32.20    3.00
  -1  -1  10   33.40    3.70
  -1  -1  10   36.50    3.10
   0   1 -10  107.99    5.00
   0   1 -10  104.69    4.90
   0  -1  10   95.99    5.70
   0  -1  10   99.79    5.20
   0  -1  10   95.49    4.90
  -1   1 -10    6.80    1.40
  -1   1 -10    3.60    1.30
  -1   1 -10    3.70    0.90
   1  -1  10    3.50    1.60
   1  -1  10    7.10    1.80
  -2   1 -10 1798.42   63.89
  -2   1 -10 1812.42   63.89
   2  -1  10 1737.53   63.89
   2  -1  10 1786.22   64.09
   2  -1  10 1709.33   62.99
  -3   1 -10  181.78    7.80
  -3   1 -10  173.78    7.30
  -3   1 -10  178.68    7.90
   3  -1  10  190.78    8.00
   3  -1  10  177.18    7.90
  -4   1 -10  169.08    7.60
  -4   1 -10  169.18    7.90
  -4   1 -10  173.88    7.60
   4  -1  10  171.08    7.60
   4  -1  10  169.18    7.60
  -5   1 -10  483.25   18.40
   5  -1  10  457.05   18.10
   5  -1  10  472.05   18.20
  -6   1 -10   11.20    2.10
   6  -1  10   11.20    2.40
   6  -1  10    7.30    2.30
  -7   1 -10   26.00    3.50
   7  -1  10   34.70    4.10
  -8   1 -10    2.80    2.40
   8  -1  10   -0.60    2.60
   8  -1  10    0.90    2.30
   6   0 -10   10.80    4.00
   6   0 -10   13.70    3.60
  -6   0  10   21.90    4.60
  -6   0  10   10.20    3.70
   5   0 -10    0.90    1.70
   5   0 -10    0.80    1.50
  -5   0  10    1.50    3.20
  -5   0  10    4.50    3.10
   4   0 -10   85.89    4.60
   4   0 -10   87.99    4.90
  -4   0  10   80.09    5.90
  -4   0  10   82.09    6.40
   3   0 -10   75.79    4.10
   3   0 -10   72.19    4.30
   3   0 -10   68.39    4.10
  -3   0  10   66.29    5.60
   2   0 -10  130.59    6.10
   2   0 -10  131.79    6.10
  -2   0  10  134.69    6.50
  -2   0  10  125.39    6.40
  -2   0  10  123.99    7.10
   1   0 -10   94.39    4.90
   1   0 -10   94.79    4.80
  -1   0  10   94.69    5.00
  -1   0  10  103.29    5.00
  -1   0  10   85.89    5.50
   0   0 -10    4.10    1.30
   0   0 -10    4.30    1.30
   0   0  10    7.90    1.70
   0   0  10    4.20    1.90
   0   0  10    1.70    1.70
  -1   0 -10  595.94   21.70
  -1   0 -10  570.44   24.30
  -1   0 -10  631.24   23.00
   1   0  10  589.84   22.00
   1   0  10  624.84   23.20
   1   0  10  617.94   22.90
  -2   0 -10  399.36   15.20
  -2   0 -10  339.47   16.00
   2   0  10  409.46   15.80
   2   0  10  389.16   15.10
  -3   0 -10  654.63   25.20
  -3   0 -10  705.43   25.40
  -3   0 -10  673.83   24.50
   3   0  10  653.33   25.10
   3   0  10  665.63   25.10
  -4   0 -10   67.09    4.10
  -4   0 -10   75.59    4.20
   4   0  10   59.29    4.00
   4   0  10   59.59    3.90
  -5   0 -10  218.28    8.90
   5   0  10  181.98    8.60
   6   0  10    3.60    2.00
  -7   0 -10    1.90    1.90
   7   0  10   -2.20    2.00
  -8   0 -10   34.80    3.90
   8   0  10   25.70    3.30
  -9   0 -10    5.90    2.80
  -9   0 -10    4.20    3.40
   9   0  10    6.80    3.10
   6  -1 -10    1.40    2.10
   6  -1 -10   -5.30    3.30
  -6   1  10    0.50    3.60
  -6   1  10    4.80    4.00
   5  -1 -10    8.20    2.10
   5  -1 -10   13.50    2.00
   5  -1 -10    7.30    3.20
  -5   1  10   11.70    3.80
  -5   1  10   11.60    3.30
   4  -1 -10   13.20    2.00
   4  -1 -10    9.10    2.10
  -4   1  10    9.50    2.80
  -4   1  10   13.70    3.40
   3  -1 -10  166.38    8.50
   3  -1 -10  163.58    8.00
  -3   1  10  168.98    8.90
   2  -1 -10  282.07   11.60
   2  -1 -10  272.97   11.70
  -2   1  10  291.27   11.90
  -2   1  10  294.47   11.90
  -2   1  10  296.27   12.70
   1  -1 -10   22.30    2.40
   1  -1 -10   22.40    2.50
  -1   1  10   23.30    3.00
  -1   1  10   19.90    2.70
  -1   1  10   22.30    2.60
   0  -1 -10  320.87   12.30
   0  -1 -10  340.47   13.50
   0  -1 -10  342.27   13.60
   0   1  10  337.17   13.40
   0   1  10  339.77   13.80
  -1  -1 -10  134.59    5.20
  -1  -1 -10  136.49    5.70
  -1  -1 -10  140.69    6.60
   1   1  10  138.69    6.70
   1   1  10  139.49    6.40
  -2  -1 -10    8.50    1.80
  -2  -1 -10    8.60    1.20
   2   1  10    7.50    1.70
   2   1  10    9.40    1.90
  -3  -1 -10   98.59    5.20
  -3  -1 -10   98.89    5.20
  -3  -1 -10   95.09    4.40
   3   1  10   89.09    4.90
   3   1  10   92.69    4.90
   3   1  10   91.69    5.30
  -4  -1 -10  870.01   32.40
  -4  -1 -10  820.92   32.30
   4   1  10  852.91   32.00
   4   1  10  919.51   32.40
   4   1  10  861.41   32.50
  -5  -1 -10   15.20    2.40
  -5  -1 -10    8.90    2.10
   5   1  10    6.80    1.90
   5   1  10   11.40    2.10
   5   1  10   16.00    2.50
  -6  -1 -10   16.70    2.60
   6   1  10   19.70    2.80
   6   1  10   22.40    2.90
  -7  -1 -10    2.30    1.90
   7   1  10    3.60    2.00
   7   1  10    3.10    2.50
  -8  -1 -10    0.00    2.10
  -8  -1 -10    2.00    2.40
   8   1  10    1.90    2.40
   8   1  10   -1.40    2.10
  -9  -1 -10    2.60    2.40
  -9  -1 -10   -0.10    2.70
   9   1  10    1.40    2.50
   9   1  10    6.20    2.90
   6  -2 -10    1.30    2.20
  -6   2  10    9.10    4.20
  -6   2  10   -0.20    3.90
   5  -2 -10  106.79    5.90
   5  -2 -10  101.89    7.50
  -5   2  10  115.59    7.30
  -5   2  10  112.79    8.00
   4  -2 -10    3.80    1.60
   4  -2 -10    3.70    2.60
   4  -2 -10    1.50    1.70
  -4   2  10   -1.10    2.60
  -4   2  10    4.80    3.00
   3  -2 -10   47.90    2.80
   3  -2 -10   42.10    3.40
  -3   2  10   38.00    4.60
   2  -2 -10   30.70    3.10
   2  -2 -10   22.20    2.80
   2  -2 -10   23.50    2.80
   2  -2 -10   26.80    2.70
  -2   2  10   25.50    2.80
  -2   2  10   24.80    3.00
  -2   2  10   26.80    3.50
   1  -2 -10  136.49    5.60
   1  -2 -10  136.59    6.40
   1  -2 -10  138.39    6.70
  -1   2  10  138.69    6.30
  -1   2  10  141.49    6.60
  -1   2  10  142.49    7.30
   0  -2 -10  212.78    8.70
   0  -2 -10  241.78   10.00
   0  -2 -10  228.78    9.90
   0   2  10  232.58    9.80
   0   2  10  216.88    9.60
   0   2  10  229.18   10.10
  -1  -2 -10    4.50    1.60
  -1  -2 -10    4.30    1.00
   1   2  10    6.40    1.80
   1   2  10    4.40    1.60
   1   2  10    6.60    1.80
  -2  -2 -10  254.17   11.20
  -2  -2 -10  288.67   11.50
  -2  -2 -10  255.37   10.20
   2   2  10  260.07   10.80
   2   2  10  269.07   10.90
   2   2  10  253.37   11.30
  -3  -2 -10  211.78    9.10
  -3  -2 -10  184.78    8.90
   3   2  10  195.78    9.00
   3   2  10  198.98    8.50
   3   2  10  194.48    8.40
  -4  -2 -10  120.39    6.30
  -4  -2 -10  118.09    6.30
   4   2  10  110.59    5.90
   4   2  10  119.99    5.90
   4   2  10  126.29    6.60
  -5  -2 -10    2.60    1.90
  -5  -2 -10    8.90    2.20
  -5  -2 -10    5.80    1.70
   5   2  10    6.00    1.80
  -6  -2 -10    1.40    1.90
  -7  -2 -10   24.10    3.40
  -7  -2 -10   24.60    3.60
   7   2  10   33.50    3.60
   7   2  10   21.10    3.40
  -8  -2 -10   21.60    3.70
  -8  -2 -10   24.60    3.60
  -8  -2 -10   25.50    3.30
   8   2  10   22.90    3.30
   8   2  10   19.60    2.60
  -9  -2 -10   80.49    5.50
  -9  -2 -10   75.89    6.10
   9   2  10   74.09    6.20
   9   2  10   85.19    5.80
   5  -3 -10    7.40    3.20
   5  -3 -10   11.90    2.30
  -5   3  10    4.80    3.80
   4  -3 -10  373.76   14.70
   4  -3 -10  357.26   16.00
   4  -3 -10  367.56   14.70
  -4   3  10  374.26   15.70
  -4   3  10  367.76   16.40
   3  -3 -10  173.88    7.40
   3  -3 -10  174.18    7.90
   3  -3 -10  177.88    8.10
   2  -3 -10   32.60    3.00
  -2   3  10   28.50    3.20
  -2   3  10   35.60    3.40
   1  -3 -10   76.09    4.10
   1  -3 -10   75.29    4.20
   1  -3 -10   76.29    4.80
   1  -3 -10   77.49    3.80
  -1   3  10   81.39    4.60
  -1   3  10   75.69    4.20
   0  -3 -10    6.40    1.80
   0  -3 -10    9.10    2.10
   0  -3 -10    4.90    1.20
   0   3  10    2.50    1.60
   0   3  10    6.90    2.00
   0   3  10    3.00    1.80
  -1  -3 -10  442.66   17.70
   1   3  10  442.16   17.30
   1   3  10  436.06   17.70
   1   3  10  443.26   17.20
  -2  -3 -10   22.50    3.10
  -2  -3 -10   20.70    3.10
   2   3  10   20.50    2.60
   2   3  10   21.00    2.90
  -3  -3 -10  874.81   33.10
  -3  -3 -10  820.42   33.00
  -3  -3 -10  868.21   32.00
   3   3  10  866.71   33.10
   3   3  10  934.11   32.30
   3   3  10  872.21   32.40
  -4  -3 -10   63.59    4.80
  -4  -3 -10   62.29    4.70
  -4  -3 -10   68.19    3.80
   4   3  10   68.69    4.20
   4   3  10   65.79    4.90
   4   3  10   65.09    4.00
  -5  -3 -10   19.10    2.50
  -5  -3 -10   24.50    3.60
  -5  -3 -10   25.00    3.50
   5   3  10   26.80    3.40
   5   3  10   23.70    3.00
  -6  -3 -10   -3.60    2.20
  -6  -3 -10    0.60    1.70
   6   3  10    3.10    1.90
   6   3  10    1.20    2.60
   6   3  10    0.30    1.60
  -7  -3 -10   14.70    2.50
  -7  -3 -10   14.60    2.80
   7   3  10   17.20    2.20
   7   3  10   14.50    2.70
   7   3  10   13.40    3.50
  -8  -3 -10   49.90    5.90
  -8  -3 -10   45.90    4.70
   8   3  10   44.30    4.40
   8   3  10   56.69    6.10
  -9  -3 -10   23.30    3.40
   9   3  10   19.70    3.40
   5  -4 -10    2.70    3.40
   5  -4 -10    2.30    3.30
   5  -4 -10    3.90    2.20
  -5   4  10    8.40    3.60
   4  -4 -10   24.40    3.30
   4  -4 -10   18.80    2.70
   4  -4 -10   16.60    3.00
   4  -4 -10   22.90    3.70
  -4   4  10   18.80    4.00
   3  -4 -10   26.10    3.40
   3  -4 -10   26.20    2.90
   3  -4 -10   27.70    3.00
   3  -4 -10   26.20    3.10
   3  -4 -10   20.50    3.30
  -3   4  10   31.90    4.00
  -3   4  10   25.80    4.10
   2  -4 -10    4.40    1.70
   2  -4 -10    7.40    2.00
   2  -4 -10    4.40    1.60
   2  -4 -10    8.60    1.60
  -2   4  10    6.10    2.70
  -2   4  10    2.00    1.80
   1  -4 -10   14.60    2.10
   1  -4 -10   13.10    1.80
   1  -4 -10   14.20    2.40
   1  -4 -10   15.50    1.90
  -1   4  10   14.40    2.00
  -1   4  10   17.00    2.60
  -1   4  10   18.10    2.90
   0  -4 -10   18.40    2.70
   0  -4 -10   20.40    2.40
   0  -4 -10   24.70    3.30
   0  -4 -10   22.30    2.00
   0   4  10   22.00    2.70
   0   4  10   19.20    2.90
   0   4  10   23.90    3.00
  -1  -4 -10   59.29    4.50
  -1  -4 -10   60.59    4.70
   1   4  10   59.39    3.90
   1   4  10   65.69    4.90
  -2  -4 -10   74.69    5.20
  -2  -4 -10   81.69    5.40
   2   4  10   72.09    5.30
   2   4  10   84.29    4.60
   2   4  10   78.39    4.60
  -3  -4 -10   48.10    4.20
  -3  -4 -10   42.00    3.00
   3   4  10   47.00    3.50
   3   4  10   38.50    3.20
   3   4  10   38.70    4.10
  -4  -4 -10  391.56   14.30
  -4  -4 -10  339.47   15.20
   4   4  10  350.66   13.90
   4   4  10  359.46   15.30
   4   4  10  356.56   14.40
  -5  -4 -10  154.78    8.20
  -5  -4 -10  149.69    7.20
   5   4  10  150.08    7.30
   5   4  10  156.18    8.40
   5   4  10  155.08    6.80
  -6  -4 -10    9.40    2.60
  -6  -4 -10    7.90    2.10
   6   4  10    7.00    2.30
   6   4  10   14.00    3.20
  -7  -4 -10  139.99    7.10
   7   4  10  136.69    8.30
   7   4  10  128.09    6.90
  -8  -4 -10  201.08    9.80
   8   4  10  207.48   11.20
   8   4  10  220.28    9.80
  -9  -4 -10    5.00    3.00
  -9  -4 -10    3.10    2.90
   9   4  10   -2.80    2.80
   4  -5 -10    5.30    2.50
  -4   5  10    2.30    2.80
   3  -5 -10   41.30    5.00
   3  -5 -10   32.20    3.90
   3  -5 -10   42.70    3.50
  -3   5  10   35.20    4.40
   2  -5 -10   -0.30    1.50
   2  -5 -10   -5.00    2.10
   2  -5 -10    1.40    2.00
  -2   5  10   -1.00    1.90
   1  -5 -10  161.48    8.40
   1  -5 -10  178.08    8.80
   1  -5 -10  184.58    7.80
  -1   5  10  173.98    8.10
  -1   5  10  181.08    9.00
   0  -5 -10    9.40    2.90
   0  -5 -10   10.20    2.50
   0  -5 -10   13.30    2.30
   0   5  10   12.00    2.30
   0   5  10   17.20    3.00
  -1  -5 -10   76.59    3.40
  -1  -5 -10   83.19    5.90
  -1  -5 -10   84.69    5.60
   1   5  10   76.89    5.00
   1   5  10   70.89    5.50
  -2  -5 -10  248.88   11.60
   2   5  10  234.48   10.30
   2   5  10  243.28   11.40
   2   5  10  252.27   10.20
  -3  -5 -10  140.09    8.10
   3   5  10  144.89    8.20
   3   5  10  140.69    6.90
   3   5  10  153.58    7.70
  -4  -5 -10   27.40    3.20
   4   5  10   29.90    3.30
   4   5  10   30.50    5.00
  -5  -5 -10   51.69    4.00
  -5  -5 -10   47.00    5.10
   5   5  10   52.99    5.30
  -6  -5 -10    0.10    2.00
  -6  -5 -10    1.80    2.60
   6   5  10    6.60    3.40
  -7  -5 -10   66.29    4.90
   7   5  10   68.79    5.00
   7   5  10   62.39    6.80
  -8  -5 -10    5.50    2.70
   8   5  10    2.30    2.70
   3  -6 -10    5.50    2.20
   3  -6 -10    7.90    2.50
   2  -6 -10   87.59    5.20
   2  -6 -10   85.49    6.10
   2  -6 -10   97.39    7.30
   2  -6 -10   89.89    5.10
   2  -6 -10   90.49    6.10
  -2   6  10   85.99    6.60
   1  -6 -10  171.28    8.50
   1  -6 -10  177.98    9.80
   1  -6 -10  182.18    7.80
   1  -6 -10  179.38    9.70
   1  -6 -10  170.88    7.90
  -1   6  10  169.08    8.20
  -1   6  10  162.88    9.00
   0  -6 -10   -1.20    2.20
   0  -6 -10    3.50    2.90
   0   6  10   -0.60    2.20
   0   6  10    3.50    2.60
   0   6  10    4.80    2.00
  -1  -6 -10   29.50    4.30
  -1  -6 -10   35.40    4.90
   1   6  10   33.50    3.50
  -2  -6 -10   89.39    6.60
  -2  -6 -10   87.79    5.00
   2   6  10   87.39    6.60
   2   6  10   93.59    5.20
  -3  -6 -10    5.80    2.00
  -3  -6 -10    6.30    2.70
   3   6  10    1.10    2.90
   3   6  10   10.10    2.20
  -4  -6 -10   28.20    3.30
  -4  -6 -10   23.80    3.80
   4   6  10   25.80    4.10
   4   6  10   31.30    3.60
  -5  -6 -10    1.50    2.00
   5   6  10    2.30    2.10
  -6  -6 -10    5.30    3.10
  -6  -6 -10   -3.60    2.00
   6   6  10   -5.30    2.10
  -7  -6 -10   35.80    4.40
   7   6  10   43.10    5.40
   7   6  10   38.50    4.50
  -8  -6 -10   11.30    3.10
   8   6  10    6.60    3.00
  -2   7  10   16.40    3.70
   1  -7 -10  114.89    7.60
   1  -7 -10  105.29    5.70
  -1   7  10  109.99    6.30
   0  -7 -10   13.80    3.80
   0   7  10   12.60    2.60
   0   7  10    5.40    3.20
   1   7  10   35.50    5.20
  -2  -7 -10  180.88    8.70
  -2  -7 -10  199.48   10.60
   2   7  10  187.08    8.70
   2   7  10  194.28   10.40
  -3  -7 -10  280.87   13.30
  -3  -7 -10  255.57   11.40
   3   7  10  278.87   11.50
   3   7  10  260.67   13.10
  -4  -7 -10    5.20    2.40
  -4  -7 -10    5.30    3.20
   4   7  10    2.10    3.10
   4   7  10    9.40    2.60
  -5  -7 -10   28.20    4.50
  -5  -7 -10   33.70    4.00
   5   7  10   31.40    4.00
   5   7  10   25.90    4.50
  -6  -7 -10    2.30    3.20
  -6  -7 -10    2.80    2.40
   6   7  10    6.10    2.60
  -7  -7 -10   -0.90    2.60
  -7  -7 -10    0.40    3.40
   7   7  10    3.80    2.90
   1  -8 -10   15.00    4.30
  -1   8  10   19.90    5.40
   0  -8 -10   -0.70    3.10
   0  -8 -10   -4.80    3.60
   0   8  10    2.10    3.30
   1   8  10   -0.20    3.90
  -2  -8 -10   12.20    2.70
   2   8  10   11.20    3.80
   2   8  10   13.80    2.90
  -3  -8 -10    2.70    3.70
  -3  -8 -10    2.50    2.30
   3   8  10   -1.30    3.30
  -4  -8 -10   15.60    5.90
  -4  -8 -10   17.20    3.10
   4   8  10   13.30    3.00
   5   8  10    3.10    4.00
  -6  -8 -10    7.00    2.80
  -6  -8 -10    6.60    3.90
   6   8  10    5.70    3.10
  -2  -9 -10   32.80    6.50
   2   9  10   23.00    4.80
  -3  -9 -10   20.70    5.30
   3   9  10   15.10    4.70
  -4  -9 -10   87.19    6.70
  -4  -9 -10   82.09    8.60
   4   9  10   88.49    8.80
   2   7 -11   37.30    4.50
  -2  -7  11   30.50    4.70
   1   7 -11   78.09    5.40
  -1  -7  11   76.59    8.90
   0   7 -11   31.00    4.10
   0   7 -11   38.70    5.60
  -1   7 -11   13.80    4.10
   2  -7  11   25.30    3.60
   2  -7  11   21.50    4.20
   3   6 -11    3.10    2.40
  -3  -6  11    7.80    4.00
   2   6 -11    3.10    2.40
   2   6 -11   -2.80    3.30
   2   6 -11   -0.10    2.00
  -2  -6  11    0.30    3.40
  -2  -6  11    2.70    3.70
   1   6 -11   -0.40    2.30
   1   6 -11    2.40    2.10
  -1  -6  11    3.10    3.60
  -1  -6  11   -5.10    3.40
   0   6 -11    5.30    2.00
   0  -6  11    7.50    3.40
   0  -6  11    8.60    3.00
  -1   6 -11   12.60    3.00
  -1   6 -11   11.80    3.00
   1  -6  11    8.90    3.40
   1  -6  11   16.90    3.00
  -2   6 -11    1.10    2.90
   2  -6  11    3.70    2.80
  -3   6 -11   23.70    2.90
   3  -6  11   34.60    4.20
  -4   6 -11    0.20    3.00
   4  -6  11    6.90    3.40
   4   5 -11   19.50    3.30
   3   5 -11    7.70    2.20
  -3  -5  11   11.90    4.00
   2   5 -11   90.39    5.50
   2   5 -11   89.89    5.20
  -2  -5  11   99.09    7.30
  -2  -5  11   92.19    6.60
   1   5 -11   24.90    3.30
   1   5 -11   28.50    3.50
   1   5 -11   24.00    3.60
  -1  -5  11   27.60    3.60
  -1  -5  11   20.20    3.90
   0   5 -11   14.80    2.50
   0   5 -11   13.80    2.20
   0  -5  11   17.10    2.90
   0  -5  11   16.70    3.30
  -1   5 -11    5.30    2.20
   1  -5  11    0.00    2.70
  -2   5 -11    0.70    1.60
   2  -5  11   -1.30    2.00
   2  -5  11    3.80    2.70
  -3   5 -11   26.70    3.90
  -3   5 -11   28.50    3.20
   3  -5  11   33.60    4.60
   3  -5  11   39.00    4.60
  -4   5 -11    7.50    2.60
  -4   5 -11    6.50    2.20
   4  -5  11    6.80    2.90
  -5   5 -11   66.59    5.60
   5  -5  11   62.99    5.90
   5   4 -11    6.90    2.50
   5   4 -11    6.50    2.40
  -5  -4  11    8.40    4.20
  -5  -4  11   15.20    4.60
   4   4 -11  116.69    6.20
  -4  -4  11  111.39    8.60
   3   4 -11   29.70    3.90
   3   4 -11   32.20    3.30
  -3  -4  11   42.30    5.30
  -3  -4  11   37.90    4.90
   2   4 -11  195.18    8.30
   2   4 -11  193.68    8.40
  -2  -4  11  174.68    9.00
  -2  -4  11  179.28   10.00
   1   4 -11   76.79    4.80
  -1  -4  11   85.09    6.30
  -1  -4  11   78.69    5.10
   0   4 -11   32.40    3.20
   0  -4  11   32.20    4.40
   0  -4  11   32.30    3.80
  -1   4 -11    1.60    1.80
   1  -4  11    1.80    2.50
   1  -4  11    1.80    1.90
  -2   4 -11   85.59    4.60
  -2   4 -11   80.59    4.90
   2  -4  11   83.39    5.10
   2  -4  11   70.79    5.60
   2  -4  11   88.49    4.60
  -3   4 -11    3.80    1.70
  -3   4 -11    5.10    2.10
   3  -4  11    7.50    2.70
  -4   4 -11   42.70    3.70
  -4   4 -11   38.20    3.90
   4  -4  11   34.10    4.20
  -5   4 -11   33.50    4.00
   5  -4  11   30.70    4.90
   5  -4  11   24.30    3.30
  -6   4 -11    8.40    3.80
  -6   4 -11    8.60    2.80
   6  -4  11    2.20    2.70
   5   3 -11   -0.90    1.90
   5   3 -11   -2.50    2.30
   4   3 -11  101.39    5.80
   4   3 -11   93.39    5.40
  -4  -3  11  111.19    8.60
   3   3 -11    9.40    2.20
   3   3 -11    7.80    2.40
  -3  -3  11    5.40    3.20
  -3  -3  11   14.00    3.20
   2   3 -11  118.39    6.80
   2   3 -11  124.79    5.90
  -2  -3  11  112.59    7.50
   1   3 -11   20.60    2.60
   1   3 -11   21.90    2.60
  -1  -3  11   29.20    3.90
  -1  -3  11   23.60    2.90
   0   3 -11   14.50    2.00
   0  -3  11   14.20    2.40
   0  -3  11   15.00    2.40
  -1   3 -11   85.09    4.60
  -1   3 -11   82.89    4.40
   1  -3  11   63.39    5.80
   1  -3  11   86.89    4.90
   1  -3  11   72.99    6.70
  -2   3 -11    0.60    1.30
  -2   3 -11    2.60    1.40
   2  -3  11    1.00    1.60
   2  -3  11    2.40    2.00
  -3   3 -11   -0.30    1.50
   3  -3  11   -3.50    2.00
  -4   3 -11   -0.40    1.80
  -4   3 -11   -0.60    1.80
   4  -3  11   -1.50    2.10
   4  -3  11    0.00    2.20
  -5   3 -11   12.20    2.40
  -5   3 -11   14.50    2.50
  -5   3 -11   12.30    2.00
   5  -3  11   19.00    2.90
   5  -3  11   18.80    2.90
   6  -3  11   34.90    4.20
   6  -3  11   28.90    3.60
  -7   3 -11   -0.90    2.50
   7  -3  11   -1.40    2.70
   5   2 -11    5.50    2.20
   5   2 -11    1.10    1.80
  -5  -2  11    5.60    3.90
  -5  -2  11   -0.60    3.70
   4   2 -11    7.50    2.20
  -4  -2  11    7.50    3.60
  -4  -2  11    4.50    3.50
   3   2 -11    0.50    1.40
   3   2 -11    0.60    1.70
  -3  -2  11    1.10    3.00
   2   2 -11  134.79    6.10
  -2  -2  11  112.39    6.60
  -2  -2  11  127.49    7.60
   1   2 -11  104.99    5.30
   1   2 -11  102.89    5.30
  -1  -2  11   96.89    5.50
  -1  -2  11   99.69    6.50
  -1  -2  11  102.29    5.70
   0   2 -11  184.98    8.00
   0   2 -11  179.28    7.90
   0  -2  11  173.78    7.80
   0  -2  11  183.58    9.00
   0  -2  11  186.68    8.30
  -1   2 -11  511.65   19.40
  -1   2 -11  489.45   19.40
   1  -2  11  504.95   19.10
   1  -2  11  519.25   19.70
   1  -2  11  519.65   20.20
  -2   2 -11  174.88    8.20
  -2   2 -11  200.08    8.20
   2  -2  11  171.68    7.80
   2  -2  11  196.78    8.90
   2  -2  11  197.28    8.50
  -3   2 -11   28.60    2.90
  -3   2 -11   28.40    2.90
  -3   2 -11   25.60    2.40
   3  -2  11   28.40    3.40
   3  -2  11   29.20    3.30
  -4   2 -11  116.79    6.10
   4  -2  11  119.29    6.20
  -5   2 -11   42.80    3.70
  -5   2 -11   52.19    3.80
   5  -2  11   38.20    4.10
   5  -2  11   38.10    4.00
  -6   2 -11   31.00    3.50
   6  -2  11   27.00    3.40
   6  -2  11   25.90    3.20
  -7   2 -11   51.69    4.50
  -7   2 -11   43.20    4.80
   7  -2  11   46.10    5.10
   7  -2  11   40.20    4.70
  -8   2 -11   17.80    3.70
  -8   2 -11   16.50    3.30
   8  -2  11   21.60    5.30
   6   1 -11   19.90    4.70
   6   1 -11   33.00    3.60
  -6  -1  11   25.80    5.30
   5   1 -11   74.49    7.20
  -5  -1  11   69.19    7.30
   4   1 -11    2.80    1.90
   4   1 -11    0.70    1.60
  -4  -1  11    3.80    3.30
  -4  -1  11    0.70    3.00
   3   1 -11   54.89    3.90
  -3  -1  11   56.19    5.70
  -2  -1  11   12.40    3.30
   1   1 -11  135.69    6.60
   1   1 -11  150.28    6.80
   1   1 -11  148.59    6.70
  -1  -1  11  142.09    7.80
  -1  -1  11  141.89    6.80
  -1  -1  11  144.69    7.10
   0   1 -11  242.28   10.10
   0  -1  11  246.08   10.90
   0  -1  11  223.48    9.70
   0  -1  11  247.48   10.30
  -1   1 -11  600.04   22.50
  -1   1 -11  589.94   22.40
   1  -1  11  570.64   23.00
   1  -1  11  608.54   22.70
  -2   1 -11    4.00    1.30
  -2   1 -11    0.40    1.40
   2  -1  11    1.50    1.70
   2  -1  11   -1.30    1.70
  -3   1 -11  223.18    9.00
  -3   1 -11  196.18    8.20
  -3   1 -11  197.38    8.90
   3  -1  11  215.48    9.10
   3  -1  11  191.98    9.30
  -4   1 -11   70.29    4.30
   4  -1  11   59.69    4.40
   4  -1  11   63.79    4.60
  -5   1 -11   14.00    2.20
  -5   1 -11   13.20    2.10
   5  -1  11   15.80    2.60
   5  -1  11    8.90    2.40
  -6   1 -11   97.79    5.70
  -6   1 -11   98.39    7.20
   6  -1  11  111.39    6.20
  -7   1 -11   12.80    2.90
  -7   1 -11    8.90    2.50
   7  -1  11    9.10    2.80
   7  -1  11    9.60    2.50
  -8   1 -11   -1.20    2.30
   8  -1  11    3.40    3.10
   5   0 -11   43.90    4.20
   5   0 -11   49.30    4.20
  -5   0  11   65.89    9.70
   4   0 -11   32.10    3.60
   4   0 -11   28.20    3.40
  -4   0  11   36.20    4.80
   3   0 -11   38.90    3.50
   3   0 -11   46.00    4.50
  -3   0  11   42.20    5.00
   2   0 -11  149.39    7.00
  -2   0  11  151.88    8.50
   1   0 -11   46.20    3.50
   1   0 -11   50.89    3.60
   1   0 -11   52.29    3.30
  -1   0  11   54.69    3.80
  -1   0  11   50.49    3.90
  -1   0  11   43.70    4.50
   0   0 -11   96.99    5.10
   0   0  11   85.99    5.10
   0   0  11   89.69    5.60
  -1   0 -11  284.17   12.00
  -1   0 -11  327.07   12.10
   1   0  11  277.57   12.30
   1   0  11  288.07   12.00
   1   0  11  278.87   11.00
  -2   0 -11   77.39    4.60
  -2   0 -11   72.49    4.50
   2   0  11   85.49    4.70
   2   0  11   83.79    4.90
  -3   0 -11    0.70    1.40
  -3   0 -11   -0.70    1.40
  -3   0 -11    1.70    1.10
   3   0  11   -2.50    1.60
   3   0  11    2.30    1.80
  -4   0 -11   24.90    3.00
   4   0  11   28.70    3.30
  -5   0 -11   10.30    2.20
  -5   0 -11    2.60    2.70
   5   0  11    7.90    2.30
  -6   0 -11   18.70    2.70
   6   0  11   17.40    2.70
   6   0  11   19.10    2.90
  -7   0 -11   33.50    5.00
  -7   0 -11   33.60    3.80
   7   0  11   27.60    3.70
   7   0  11   29.60    3.50
  -8   0 -11   18.90    3.00
   8   0  11   13.60    3.20
  -5   1  11   23.60    5.90
   4  -1 -11   44.10    3.70
  -4   1  11   44.20    5.80
  -4   1  11   31.90    5.10
   3  -1 -11    7.10    1.90
   3  -1 -11    4.00    1.90
  -3   1  11    2.80    2.90
   2  -1 -11   15.00    2.20
   2  -1 -11    9.90    3.20
  -2   1  11   11.70    3.10
  -2   1  11    9.40    3.60
   1  -1 -11   53.49    3.70
   1  -1 -11   53.89    3.70
  -1   1  11   45.10    6.20
  -1   1  11   48.60    3.60
  -1   1  11   55.29    4.00
   0  -1 -11    3.70    1.60
   0   1  11    2.00    1.70
   0   1  11    3.60    1.40
   0   1  11    1.70    1.90
  -1  -1 -11  225.68    9.80
  -1  -1 -11  220.98    9.80
   1   1  11  220.38    9.70
   1   1  11  230.38   10.10
  -2  -1 -11    5.40    1.70
  -2  -1 -11    3.80    1.10
  -2  -1 -11    2.60    1.50
   2   1  11    2.10    1.60
  -3  -1 -11   93.19    4.10
  -3  -1 -11   79.09    4.90
  -3  -1 -11   81.69    5.00
   3   1  11   79.29    4.80
  -4  -1 -11   26.80    2.50
  -4  -1 -11   19.90    3.10
  -4  -1 -11   27.80    3.30
   4   1  11   26.00    3.20
  -5  -1 -11  106.49    5.90
   5   1  11  106.19    6.20
   5   1  11   95.69    5.80
  -6  -1 -11   73.39    4.80
  -6  -1 -11   75.99    5.00
   6   1  11   62.49    4.80
   6   1  11   65.59    5.40
  -7  -1 -11    0.70    1.90
  -7  -1 -11    0.40    2.60
   7   1  11    2.40    2.40
   7   1  11    3.90    2.30
  -8  -1 -11    7.10    2.50
   8   1  11    8.90    2.60
   5  -2 -11   63.09    6.60
   5  -2 -11   57.49    4.60
  -5   2  11   82.19    7.80
  -5   2  11   52.89    6.90
   4  -2 -11  199.78    9.10
   4  -2 -11  209.28   10.60
   4  -2 -11  212.78    9.10
  -4   2  11  189.28   10.10
  -4   2  11  200.38   11.00
   3  -2 -11   79.79    4.80
   3  -2 -11   86.29    5.10
  -3   2  11   81.19    6.50
   2  -2 -11   14.30    2.20
   2  -2 -11   20.00    2.80
  -2   2  11   18.10    2.60
  -2   2  11   16.40    2.90
  -2   2  11   16.00    3.40
   1  -2 -11  161.88    7.70
   1  -2 -11  156.88    7.30
   1  -2 -11  153.68    6.50
  -1   2  11  167.88    7.70
  -1   2  11  176.78   10.60
  -1   2  11  153.18    7.60
   0  -2 -11  163.78    6.60
   0  -2 -11  172.28    8.00
   0  -2 -11  173.28    8.00
   0   2  11  174.28    7.80
   0   2  11  151.08    6.80
  -1  -2 -11  199.58    9.10
  -1  -2 -11  188.98    8.90
   1   2  11  197.18    8.70
  -2  -2 -11   98.39    5.80
  -2  -2 -11  105.59    5.90
  -2  -2 -11   98.89    4.70
   2   2  11  103.09    6.10
   2   2  11  109.09    5.60
   2   2  11  105.89    5.70
  -3  -2 -11    1.10    1.70
  -3  -2 -11    3.30    1.90
   3   2  11    3.30    1.70
   3   2  11    3.60    2.10
  -4  -2 -11   -0.30    1.80
  -4  -2 -11   -2.10    1.80
   4   2  11    1.10    2.20
   4   2  11    4.80    1.90
  -5  -2 -11   14.40    2.80
  -6  -2 -11    3.40    2.10
  -6  -2 -11    0.00    2.30
   6   2  11    3.40    2.80
   6   2  11    7.50    2.30
  -7  -2 -11  121.99    8.10
  -7  -2 -11  112.99    6.50
  -7  -2 -11  113.69    7.10
   7   2  11  108.89    6.50
   7   2  11  116.29    5.90
  -8  -2 -11   59.09    5.00
  -8  -2 -11   56.69    6.00
   8   2  11   53.29    5.20
   8   2  11   53.59    6.00
   5  -3 -11  106.19    8.30
   5  -3 -11  113.59    6.20
  -5   3  11   94.89   10.30
   4  -3 -11   19.70    2.70
   4  -3 -11   19.10    4.00
   4  -3 -11   20.30    2.80
  -4   3  11   11.70    4.50
   3  -3 -11  128.39    7.80
   3  -3 -11  126.69    6.40
   3  -3 -11  130.09    6.60
  -3   3  11  124.59    7.10
   2  -3 -11   81.89    4.80
   2  -3 -11   73.99    7.00
  -2   3  11   79.09    5.20
  -2   3  11   85.69    5.10
  -2   3  11   89.09    6.30
   1  -3 -11  193.48    8.40
   1  -3 -11  191.78    8.90
   1  -3 -11  181.68    9.00
  -1   3  11  190.08    8.70
   0  -3 -11   34.60    3.70
   0  -3 -11   29.20    2.70
   0  -3 -11   33.40    3.60
   0  -3 -11   33.50    2.40
   0   3  11   30.00    3.50
   0   3  11   33.30    2.60
  -1  -3 -11   41.30    3.70
  -1  -3 -11   37.10    3.90
  -1  -3 -11   30.40    3.60
   1   3  11   43.70    4.10
   1   3  11   36.00    3.40
  -2  -3 -11  411.16   17.00
  -2  -3 -11  417.56   17.10
   2   3  11  415.56   16.40
   2   3  11  421.56   17.20
  -3  -3 -11    6.10    2.20
  -3  -3 -11    5.10    2.20
   3   3  11    2.20    2.30
   3   3  11    8.80    2.50
   3   3  11    5.20    2.00
  -4  -3 -11   93.49    6.00
  -4  -3 -11   98.69    6.10
   4   3  11   95.19    5.10
   4   3  11   86.79    5.30
   4   3  11   90.99    6.10
  -5  -3 -11   49.99    4.60
  -5  -3 -11   52.09    4.90
   5   3  11   45.00    3.60
   5   3  11   47.90    5.00
   5   3  11   47.60    4.00
  -6  -3 -11   28.40    4.10
  -6  -3 -11   24.00    2.90
  -6  -3 -11   25.90    4.00
   6   3  11   24.60    3.10
   6   3  11   40.30    5.00
   6   3  11   28.10    3.30
  -7  -3 -11   65.59    5.40
  -7  -3 -11   64.79    5.90
   7   3  11   59.69    5.00
   7   3  11   78.59    6.30
  -8  -3 -11   20.00    4.20
  -8  -3 -11   15.70    3.20
  -8  -3 -11   17.00    3.50
   8   3  11   27.60    3.50
   8   3  11   27.80    4.40
   4  -4 -11   46.50    4.20
  -4   4  11   48.70    6.70
   3  -4 -11    9.30    2.50
   3  -4 -11   12.70    2.20
   3  -4 -11   12.80    4.40
   2  -4 -11  194.98    8.70
   2  -4 -11  198.88    9.80
   2  -4 -11  188.58    9.20
  -2   4  11  196.38    8.80
  -2   4  11  185.78    8.90
   1  -4 -11   67.29    4.10
   1  -4 -11   70.49    3.90
  -1   4  11   64.99    4.20
   0  -4 -11    5.50    2.20
   0  -4 -11    6.30    2.40
   0  -4 -11    5.20    1.50
   0   4  11    1.30    2.50
   0   4  11    1.90    2.00
  -1  -4 -11    9.30    2.30
  -1  -4 -11    4.80    2.40
  -1  -4 -11    8.10    1.60
   1   4  11   10.60    2.80
   1   4  11    8.40    2.20
  -2  -4 -11    4.40    2.20
  -2  -4 -11    1.40    2.00
   2   4  11    2.70    2.30
   2   4  11    2.10    1.90
   2   4  11    1.80    1.80
  -3  -4 -11  234.88   11.10
  -3  -4 -11  219.38   11.00
   3   4  11  232.68   10.10
   3   4  11  243.58   11.30
   4   4  11   17.10    2.50
   4   4  11   18.40    3.40
  -5  -4 -11   -1.20    1.80
  -5  -4 -11    0.80    2.30
   5   4  11    1.90    2.10
   5   4  11    2.80    2.80
  -6  -4 -11  114.59    7.20
  -6  -4 -11  108.59    6.20
   6   4  11  114.19    7.60
   6   4  11  113.29    6.30
  -7  -4 -11   11.70    3.00
  -7  -4 -11   14.20    2.70
   7   4  11    8.40    2.70
  -8  -4 -11    5.30    2.70
  -8  -4 -11   10.60    3.30
   8   4  11    6.20    2.90
   3  -5 -11   84.99    5.80
   3  -5 -11   75.19    4.80
  -3   5  11   70.29    5.70
   2  -5 -11  203.78    9.20
   2  -5 -11  214.68   10.30
  -2   5  11  210.18    9.60
  -2   5  11  208.48   10.70
   1  -5 -11    2.70    1.70
   1  -5 -11    4.10    2.30
   1  -5 -11    0.00    2.90
  -1   5  11    3.30    2.10
   0  -5 -11  233.48   10.50
   0   5  11  239.68   10.90
   0   5  11  245.48   11.40
   0   5  11  235.78   10.60
  -1  -5 -11   24.90    4.40
  -1  -5 -11   28.40    4.10
   1   5  11   30.90    3.90
   1   5  11   21.70    2.90
  -2  -5 -11  192.78    9.90
  -2  -5 -11  178.68    9.50
   2   5  11  191.78    8.70
   2   5  11  190.28    9.70
  -3  -5 -11   18.30    3.30
  -3  -5 -11   11.70    3.00
   3   5  11   11.20    3.30
   3   5  11   14.50    2.70
  -4  -5 -11   25.90    3.80
  -4  -5 -11   38.40    4.30
   4   5  11   34.10    3.80
  -5  -5 -11    8.90    3.00
  -6  -5 -11    3.90    2.10
  -6  -5 -11    0.50    2.80
   6   5  11    9.10    2.50
   6   5  11    3.70    3.40
  -7  -5 -11    5.00    2.50
  -7  -5 -11    4.30    3.50
   7   5  11   -1.90    2.50
   7   5  11    8.70    4.00
  -8  -5 -11  112.09    8.00
  -8  -5 -11  107.39    7.40
   8   5  11  124.99    8.80
   8   5  11  116.49    7.20
   3  -6 -11  144.59   10.90
   2  -6 -11   22.10    3.70
   2  -6 -11   23.30    3.00
   1  -6 -11   18.70    2.60
  -1   6  11   19.50    3.40
  -1   6  11   17.60    3.40
   0  -6 -11   58.29    5.40
   0  -6 -11   60.19    6.30
   0  -6 -11   63.09    6.40
   0   6  11   52.39    4.60
   0   6  11   47.10    5.40
  -1  -6 -11    8.30    2.10
  -1  -6 -11   11.00    3.40
  -2  -6 -11   65.19    5.70
  -2  -6 -11   65.39    6.00
   2   6  11   66.39    6.10
  -3  -6 -11   55.59    7.80
  -3  -6 -11   48.30    4.30
   3   6  11   55.89    4.50
   3   6  11   51.59    5.50
  -4  -6 -11   89.29    5.40
  -4  -6 -11   96.29    7.00
   4   6  11   84.79    5.50
   4   6  11   88.69    6.90
  -5  -6 -11   -4.50    2.80
  -5  -6 -11    5.60    2.30
   5   6  11   -4.30    3.20
  -6  -6 -11    5.90    2.50
  -6  -6 -11    4.50    3.40
   6   6  11   11.60    4.10
   6   6  11    9.50    2.70
  -7  -6 -11   72.89    9.90
  -7  -6 -11   99.99    6.40
   7   6  11  127.39    8.80
   7   6  11   98.99    6.50
   1  -7 -11   74.89    7.40
   1  -7 -11   67.69    7.00
  -1   7  11   81.29    5.70
  -1   7  11   79.19    8.10
   0  -7 -11    4.80    2.10
   0  -7 -11    3.80    3.00
   0  -7 -11   -4.30    4.00
   0  -7 -11    2.00    2.60
   0   7  11   -1.30    2.60
   0   7  11    3.10    3.30
  -1  -7 -11   44.10    5.60
  -1  -7 -11   46.70    6.40
   1   7  11   49.99    4.70
   1   7  11   49.30    6.10
  -2  -7 -11   41.30    5.40
   2   7  11   42.50    4.50
   2   7  11   34.90    4.80
  -3  -7 -11   23.50    4.30
   3   7  11   20.80    4.30
   3   7  11   21.00    3.10
  -4  -7 -11    4.80    2.70
  -4  -7 -11    6.90    3.40
   4   7  11    6.40    3.60
   4   7  11    8.10    2.70
  -5  -7 -11    1.40    2.50
   5   7  11   -1.50    2.50
  -6  -7 -11   88.19    7.70
  -6  -7 -11   83.99    6.10
   6   7  11   85.69    6.00
  -7  -7 -11   10.70    3.50
   7   7  11    6.80    4.90
   0  -8 -11   17.20    4.00
   0   8  11   25.20    4.60
  -1  -8 -11   58.89    6.90
   1   8  11   69.59    7.10
   2   8  11   -1.60    3.50
   2   8  11    5.80    2.90
  -3  -8 -11    0.30    3.50
   3   8  11    5.30    3.90
   3   8  11    2.00    2.80
  -4  -8 -11   10.40    3.00
  -4  -8 -11   17.30    4.50
  -5  -8 -11   65.59    7.60
   5   8  11   63.89    8.10
   2   6 -12   28.30    4.10
   2   6 -12   34.20    3.80
  -2  -6  12   35.60    5.70
  -2  -6  12   27.30    6.20
   1   6 -12   26.20    3.90
  -1  -6  12   35.20    5.00
   0   6 -12    0.00    3.80
   0  -6  12    2.80    3.70
   0  -6  12   -2.20    3.30
  -1   6 -12   12.30    2.70
   1  -6  12    8.30    3.40
  -2   6 -12   26.90    3.80
  -3   6 -12   34.50    4.10
  -3   6 -12   29.40    4.30
   3  -6  12   29.60    4.80
   3   5 -12   81.69    5.60
   3   5 -12   96.29    6.20
  -3  -5  12   90.29    8.10
   2   5 -12    4.60    2.10
  -2  -5  12    7.70    5.10
  -2  -5  12    1.70    3.80
   1   5 -12   10.50    2.20
   1   5 -12    6.10    2.60
   1   5 -12    4.50    2.60
  -1  -5  12   19.00    5.20
  -1  -5  12    5.70    3.40
   0   5 -12   36.70    3.60
   0   5 -12   38.00    4.30
   0  -5  12   34.10    4.70
   0  -5  12   38.10    4.20
  -1   5 -12    3.20    2.00
  -1   5 -12    2.40    2.50
   1  -5  12    2.40    3.20
   1  -5  12    3.50    2.70
   1  -5  12    5.10    2.70
  -2   5 -12    1.30    2.10
  -2   5 -12    1.20    2.30
  -2   5 -12   -2.00    2.40
   2  -5  12   -3.10    3.10
  -3   5 -12    1.50    2.00
   3  -5  12    6.00    3.00
  -4   5 -12   10.10    3.10
   4  -5  12   11.70    3.50
   4   4 -12  204.38    9.20
  -4  -4  12  179.18   11.60
   3   4 -12  152.68    7.70
   3   4 -12  151.58    7.40
   2   4 -12   12.60    2.30
  -2  -4  12   17.90    5.60
  -2  -4  12   15.20    3.80
   1   4 -12   38.40    3.50
   1   4 -12   45.70    4.20
  -1  -4  12   37.30    4.40
  -1  -4  12   45.10    5.60
  -1  -4  12   41.20    4.80
   0   4 -12  150.88    7.30
   0  -4  12  137.19    7.50
   0  -4  12  162.98    8.80
  -1   4 -12   18.30    2.80
  -1   4 -12   18.30    2.60
  -1   4 -12   15.80    2.30
   1  -4  12   20.50    3.20
   1  -4  12   20.70    3.80
   1  -4  12   19.20    3.00
  -2   4 -12   21.90    2.90
  -2   4 -12   24.90    3.10
   2  -4  12   26.60    3.80
   2  -4  12   30.00    3.40
  -3   4 -12  126.79    6.80
  -3   4 -12  123.59    6.20
   3  -4  12  125.19    7.40
   3  -4  12  129.29    7.10
  -4   4 -12   17.00    2.90
   4  -4  12   18.90    3.70
   4  -4  12   21.60    4.10
  -5   4 -12    4.00    2.50
   5  -4  12    4.40    3.00
  -6   4 -12    0.10    3.00
   4   3 -12   27.50    3.40
   3   3 -12   10.50    2.50
   3   3 -12   11.60    2.60
  -3  -3  12   10.00    3.80
  -3  -3  12   10.60    3.50
   2   3 -12   23.50    3.10
  -2  -3  12   28.30    3.80
  -2  -3  12   32.60    4.50
   1   3 -12   22.50    2.90
   1   3 -12   30.50    3.50
  -1  -3  12   36.50    4.10
  -1  -3  12   25.20    4.10
  -1  -3  12   31.50    4.10
   0   3 -12    2.20    2.10
   0   3 -12    0.00    1.60
   0  -3  12    1.90    2.10
   0  -3  12    0.30    2.70
  -1   3 -12   -0.30    2.40
   1  -3  12   -0.40    2.30
   1  -3  12    2.60    2.40
  -2   3 -12   58.59    4.30
  -2   3 -12   57.49    4.10
   2  -3  12   49.60    5.00
   2  -3  12   62.39    4.80
  -3   3 -12  105.79    5.70
  -3   3 -12   97.59    5.70
   3  -3  12   97.29    6.30
   3  -3  12  109.89    6.10
  -4   3 -12   37.20    3.50
  -4   3 -12   35.00    3.70
   4  -3  12   33.40    4.00
   4  -3  12   34.30    5.30
  -5   3 -12    4.40    2.10
  -5   3 -12    2.50    1.90
   5  -3  12    1.30    2.60
   5  -3  12    0.50    2.80
  -6   3 -12    7.60    2.60
   6  -3  12   -2.20    2.80
   5   2 -12    3.90    2.10
   5   2 -12    5.60    2.50
  -5  -2  12   10.60    4.80
   4   2 -12   29.30    3.90
  -4  -2  12   28.70    4.80
   3   2 -12    2.60    1.90
   3   2 -12    5.70    2.20
  -3  -2  12    1.70    3.20
  -3  -2  12    5.40    3.50
   2   2 -12  119.29    6.00
  -2  -2  12  113.99    7.80
  -2  -2  12  124.29    6.70
   1   2 -12   46.80    3.80
   1   2 -12   36.10    3.20
  -1  -2  12   30.90    4.00
  -1  -2  12   33.00    4.10
  -1  -2  12   36.40    5.00
   0   2 -12  161.38    9.70
   0   2 -12  189.48    8.10
   0  -2  12  163.88    8.40
   0  -2  12  181.58    9.20
   0  -2  12  196.38    9.40
  -1   2 -12   62.59    5.30
  -1   2 -12   87.79    4.60
   1  -2  12   77.09    5.10
   1  -2  12   71.69    5.60
  -2   2 -12    6.10    1.80
  -2   2 -12    1.10    2.70
   2  -2  12    6.20    2.40
   2  -2  12    2.70    2.40
  -3   2 -12   -1.80    1.70
  -3   2 -12   -0.50    1.60
   3  -2  12    3.50    2.40
   3  -2  12    1.50    2.30
  -4   2 -12    1.90    1.80
   4  -2  12    3.60    2.40
  -5   2 -12   51.39    4.30
  -5   2 -12   53.39    4.00
   5  -2  12   52.09    4.80
   5  -2  12   49.90    4.90
  -6   2 -12    1.90    2.70
   6  -2  12    6.00    2.90
   6  -2  12   -2.60    2.60
  -7   2 -12    9.90    2.80
   7  -2  12   12.50    3.50
   5   1 -12  107.19    6.30
  -5  -1  12   96.09    8.80
   4   1 -12   73.79    4.70
   4   1 -12   72.09    5.00
   3   1 -12   42.20    4.10
   3   1 -12   38.50    3.80
  -3  -1  12   44.10    5.40
  -3  -1  12   50.19    5.20
   2   1 -12   82.19    5.10
  -2  -1  12   95.99    6.90
  -2  -1  12   87.59    5.80
  -2  -1  12   93.39    5.60
   1   1 -12   44.70    3.60
   1   1 -12   49.80    3.80
  -1  -1  12   47.10    4.20
  -1  -1  12   36.50    5.00
  -1  -1  12   44.50    4.10
   0   1 -12   35.40    3.50
   0  -1  12   39.60    3.50
   0  -1  12   29.20    4.10
  -1   1 -12  250.87   10.70
  -1   1 -12  254.87   11.00
   1  -1  12  262.07   11.70
   1  -1  12  259.37   11.10
  -2   1 -12   -1.00    1.50
  -2   1 -12    1.80    1.50
   2  -1  12    0.70    2.20
   2  -1  12   -0.50    2.00
  -3   1 -12  165.98    9.20
  -3   1 -12  178.18    8.10
   3  -1  12  180.28    8.60
   3  -1  12  177.38    8.30
  -4   1 -12   31.70    3.40
  -4   1 -12   27.70    3.50
   4  -1  12   30.00    4.60
  -5   1 -12  105.09    5.60
  -5   1 -12   95.69    5.60
   5  -1  12   84.39    7.00
   5  -1  12  101.69    6.10
  -6   1 -12    3.50    2.20
  -6   1 -12   -0.10    2.00
   6  -1  12    3.20    2.90
   6  -1  12    3.30    2.50
  -7   1 -12   30.00    4.10
   7  -1  12   28.30    3.80
   7  -1  12   33.40    4.40
   5   0 -12   10.50    2.90
  -5   0  12   12.20    4.70
   4   0 -12    3.60    2.20
  -4   0  12    5.00    3.30
   3   0 -12   98.49    5.40
   3   0 -12  104.69    5.70
  -3   0  12   98.79    7.60
  -3   0  12  100.89    6.60
   2   0 -12  165.48    8.00
  -2   0  12  179.08    9.50
  -2   0  12  186.98    8.50
  -2   0  12  163.98    8.30
   1   0 -12  273.57   11.20
   1   0 -12  281.77   11.40
  -1   0  12  255.57   11.10
  -1   0  12  276.47   11.60
  -1   0  12  244.28   12.40
   0   0  12   -1.20    2.20
  -1   0 -12  210.78    9.50
  -1   0 -12  225.78    9.70
   1   0  12  213.78   10.40
   1   0  12  223.48    9.80
  -2   0 -12   -2.00    1.50
  -2   0 -12   -0.30    1.60
   2   0  12   -0.80    1.80
   2   0  12   -1.80    2.10
  -3   0 -12   21.40    3.00
  -3   0 -12   17.20    2.10
  -3   0 -12   22.20    3.10
   3   0  12   17.40    2.80
  -4   0 -12   20.90    3.20
  -4   0 -12   23.10    3.30
   4   0  12   25.50    4.90
   4   0  12   19.80    2.90
  -5   0 -12   18.40    2.80
  -5   0 -12   21.10    3.10
  -5   0 -12   12.40    2.10
   5   0  12   16.40    2.90
   5   0  12   16.30    2.90
  -6   0 -12    4.10    2.40
  -6   0 -12   -1.30    1.80
   6   0  12   -4.80    2.40
   6   0  12    4.40    2.40
  -7   0 -12   15.80    3.10
  -7   0 -12   14.10    4.10
  -7   0 -12   17.00    2.90
   7   0  12   19.00    3.50
  -8   0 -12  253.47   12.00
   8   0  12  249.97   11.70
   5  -1 -12    9.20    3.00
   5  -1 -12   12.60    3.20
  -5   1  12   13.30    4.80
  -4   1  12    9.40    3.50
  -4   1  12   19.30    4.60
   3  -1 -12   50.39    4.20
   3  -1 -12   57.29    4.20
  -3   1  12   62.79    6.40
  -3   1  12   55.19    5.20
   2  -1 -12   21.00    2.70
  -2   1  12   22.00    3.80
  -2   1  12   20.60    3.10
  -2   1  12   14.30    2.80
   1  -1 -12   59.99    4.20
   1  -1 -12   62.49    4.30
  -1   1  12   56.79    6.90
  -1   1  12   67.89    4.70
   0   1  12   73.09    5.60
  -1  -1 -12   36.10    3.60
  -1  -1 -12   39.60    3.70
   1   1  12   44.10    3.90
  -2  -1 -12  446.46   18.00
  -2  -1 -12  462.15   16.80
  -2  -1 -12  443.06   18.00
   2   1  12  453.35   17.90
  -3  -1 -12    2.20    1.90
  -3  -1 -12   -2.60    1.70
  -3  -1 -12    1.30    1.20
   3   1  12   -0.90    2.00
  -4  -1 -12   16.90    2.10
  -4  -1 -12   19.40    2.80
  -4  -1 -12   18.30    2.80
   4   1  12   15.60    2.80
  -5  -1 -12   -2.10    2.20
  -5  -1 -12    3.40    1.90
   5   1  12   -2.70    2.20
  -6  -1 -12   36.20    3.90
  -6  -1 -12   35.50    3.70
  -6  -1 -12   28.00    3.60
   6   1  12   32.70    4.10
   6   1  12   32.40    4.20
  -7  -1 -12   96.79    5.80
  -7  -1 -12   73.59    6.90
  -7  -1 -12   80.09    5.60
   7   1  12   87.69    5.80
   8   1  12   82.29    6.00
   8   1  12   90.59    6.40
   4  -2 -12    3.40    3.30
   4  -2 -12    2.70    2.30
  -4   2  12    4.20    3.50
  -4   2  12    5.10    4.00
   3  -2 -12    1.90    2.40
   3  -2 -12    3.20    2.00
  -3   2  12    0.50    2.70
  -3   2  12    6.50    3.40
   2  -2 -12   17.40    2.50
  -2   2  12   15.00    2.70
  -2   2  12   16.60    4.60
  -2   2  12   10.80    2.60
   1  -2 -12   22.00    2.70
  -1   2  12   26.90    3.60
  -1   2  12   18.10    3.50
   0  -2 -12   -2.20    1.70
   0   2  12    0.50    2.00
  -1  -2 -12  113.19    5.30
  -1  -2 -12  127.69    6.70
   1   2  12  123.39    7.70
  -2  -2 -12   52.59    4.20
  -2  -2 -12   42.60    2.90
  -2  -2 -12   46.10    4.20
   2   2  12   50.89    4.20
  -3  -2 -12    5.60    2.40
  -3  -2 -12    5.80    2.20
  -3  -2 -12    7.20    1.60
   3   2  12    9.30    2.70
  -4  -2 -12   48.00    4.60
  -4  -2 -12   41.50    3.30
  -4  -2 -12   43.50    4.30
   4   2  12   53.19    5.00
   4   2  12   51.79    4.30
  -5  -2 -12   -1.00    2.10
   5   2  12    1.30    2.20
  -6  -2 -12   -0.80    2.80
  -6  -2 -12    2.80    2.30
   6   2  12    3.40    3.20
   6   2  12    4.10    3.20
   6   2  12    3.50    2.40
  -7  -2 -12   20.10    3.80
   7   2  12   22.30    3.40
   7   2  12   19.30    3.20
   7   2  12   25.20    4.00
  -8  -2 -12   62.09    7.10
  -8  -2 -12   56.59    5.50
   8   2  12   56.29    6.10
   4  -3 -12    9.10    3.70
   4  -3 -12    8.10    2.40
  -4   3  12    7.80    3.50
   3  -3 -12    4.40    3.00
   3  -3 -12    4.90    2.10
  -3   3  12    4.90    3.30
  -3   3  12    2.00    3.70
   2  -3 -12   93.89    5.40
   2  -3 -12   93.69    5.80
  -2   3  12   98.29    7.20
  -2   3  12   88.89    6.50
  -2   3  12   96.69    5.70
   1  -3 -12   27.00    3.20
  -1   3  12   26.90    4.10
   0  -3 -12  153.88    7.90
   0   3  12  156.38    7.80
  -1  -3 -12  126.29    7.20
  -1  -3 -12  130.09    7.00
   1   3  12  115.09    7.10
  -2  -3 -12   98.89    6.00
  -2  -3 -12   93.29    6.20
  -2  -3 -12   89.39    4.60
   2   3  12   91.79    6.70
   2   3  12   97.99    6.20
  -3  -3 -12   30.60    4.00
  -3  -3 -12   26.70    3.50
  -3  -3 -12   28.60    2.80
   3   3  12   36.30    3.70
   3   3  12   24.90    3.70
  -4  -3 -12    7.60    1.80
  -4  -3 -12    7.10    2.50
   4   3  12    2.10    2.10
   4   3  12    0.80    2.90
  -5  -3 -12   45.90    5.10
  -5  -3 -12   38.20    4.60
   5   3  12   39.70    4.10
   5   3  12   47.20    5.90
   5   3  12   41.10    4.10
  -6  -3 -12   42.70    5.30
  -6  -3 -12   52.69    4.90
   6   3  12   42.30    4.40
   6   3  12   45.20    4.50
  -7  -3 -12    0.90    3.20
  -7  -3 -12    0.40    2.60
   7   3  12    5.00    2.90
   7   3  12    0.30    3.40
  -8  -3 -12   15.30    3.40
  -8  -3 -12   23.70    4.30
   8   3  12   21.20    3.70
   3  -4 -12    1.40    2.00
  -3   4  12   -2.30    2.90
   2  -4 -12   39.40    3.80
   2  -4 -12   36.00    5.00
   2  -4 -12   38.90    5.00
  -2   4  12   38.50    4.30
   1  -4 -12   86.19    6.90
   1  -4 -12   96.29    6.00
   1  -4 -12   81.99    5.20
  -1   4  12   83.39    5.90
  -1   4  12   82.59    6.80
   0  -4 -12  215.68    9.10
   0   4  12  230.28   10.20
  -1  -4 -12   76.59    6.10
  -1  -4 -12   74.89    4.10
   1   4  12   69.09    5.00
  -2  -4 -12   15.00    3.00
  -2  -4 -12   20.50    2.60
  -2  -4 -12   18.80    3.20
   2   4  12   17.80    2.70
   2   4  12   11.70    3.10
   2   4  12   18.40    2.90
  -3  -4 -12   12.40    2.90
  -3  -4 -12   12.60    2.90
  -3  -4 -12   12.60    2.10
   3   4  12   17.10    2.70
   3   4  12   12.20    3.10
   3   4  12   13.10    2.60
  -4  -4 -12   -0.10    2.40
  -4  -4 -12   -4.00    2.40
   4   4  12    0.50    2.20
   4   4  12    0.30    2.80
  -5  -4 -12    0.50    2.50
  -5  -4 -12   -0.70    1.80
   5   4  12    2.90    2.30
  -6  -4 -12   48.50    5.70
  -6  -4 -12   55.49    5.60
   6   4  12   54.59    4.90
   6   4  12   69.09    6.30
  -7  -4 -12   54.99    6.60
  -7  -4 -12   56.39    5.80
   7   4  12   71.39    5.50
  -8  -4 -12   84.39    6.70
   8   4  12   76.79    6.30
   8   4  12   88.69    8.10
   3  -5 -12    2.70    2.30
   3  -5 -12    2.20    3.90
  -3   5  12    5.00    6.20
   2  -5 -12    7.40    2.90
  -2   5  12   14.10    2.90
  -2   5  12    9.00    4.20
   1  -5 -12    4.60    2.50
   1  -5 -12    0.10    2.90
   1  -5 -12   -1.10    1.80
   1  -5 -12    2.40    4.70
   0  -5 -12   95.79    6.20
   0  -5 -12   89.19    6.50
   0   5  12  111.59    6.80
   0   5  12   98.49    6.70
   0   5  12  109.99    7.00
  -1  -5 -12  106.39    7.30
  -1  -5 -12  101.09    8.40
   1   5  12  108.29    7.20
   1   5  12  103.69    6.20
   1   5  12  105.99    6.60
  -2  -5 -12   20.10    4.70
   2   5  12   22.50    3.80
   2   5  12   22.40    3.10
  -3  -5 -12   70.59    6.00
  -3  -5 -12   49.20    5.50
   3   5  12   64.09    4.90
   3   5  12   68.99    6.00
  -4  -5 -12    0.90    1.90
  -4  -5 -12    4.70    2.70
  -4  -5 -12   -0.80    2.70
   4   5  12   -1.80    2.40
   4   5  12   -0.10    2.80
  -5  -5 -12   77.09    7.10
  -5  -5 -12   82.19    6.60
   5   5  12   83.09    5.70
   6   5  12   44.90    4.80
   6   5  12   45.70    6.40
  -7  -5 -12   -1.60    3.20
   7   5  12    9.90    4.30
   7   5  12    7.40    3.00
   2  -6 -12   -0.40    3.30
   1  -6 -12   96.09    6.90
   1  -6 -12   93.79    6.80
   1  -6 -12   89.69    8.70
   0  -6 -12   48.00    5.20
   0  -6 -12   53.59    4.30
   0  -6 -12   56.69    5.60
   0   6  12   53.89    6.10
  -1  -6 -12    3.50    4.40
  -1  -6 -12    6.80    3.30
   1   6  12    2.30    2.50
   1   6  12    2.40    3.10
  -2  -6 -12   65.19    7.00
   2   6  12   83.79    6.90
  -3  -6 -12    1.60    3.00
  -3  -6 -12   -1.20    2.80
   3   6  12   -4.50    2.90
  -4  -6 -12    5.30    3.30
   4   6  12    7.50    2.70
   4   6  12    0.20    3.30
   5   6  12  207.58    9.90
  -6  -6 -12   11.00    3.80
   6   6  12    8.20    3.10
  -7  -6 -12   29.00    5.30
   7   6  12   23.50    8.00
   7   6  12   26.30    3.90
   0  -7 -12   84.69    7.50
   0   7  12   71.99    7.50
   0   7  12   84.89    6.10
  -1  -7 -12    1.10    3.60
  -1  -7 -12    1.80    3.40
   1   7  12   -2.50    3.40
   2   7  12   -2.60    3.30
   3   7  12   10.20    3.90
  -4  -7 -12    1.80    3.60
   4   7  12    0.60    2.90
   4   7  12   -0.50    3.70
  -5  -7 -12   -5.80    3.60
   5   7  12    0.10    3.00
   5   7  12    2.50    4.00
  -6  -7 -12   16.70    4.80
   6   7  12   24.30    5.10
  -3  -8 -12   81.99    8.40
   1   5 -13    7.70    2.50
   1   5 -13   11.30    3.90
  -1  -5  13   17.40    5.40
  -1  -5  13    8.00    6.10
   0   5 -13    1.10    2.70
   0   5 -13    1.80    2.20
  -1   5 -13   23.20    3.40
  -1   5 -13   18.60    2.80
   1  -5  13   19.20    4.30
  -2   5 -13   43.20    4.80
   2  -5  13   54.79    6.30
   3  -5  13   -0.30    3.80
   3   4 -13   15.20    2.80
   3   4 -13   16.40    3.70
  -3  -4  13   13.90    4.90
  -3  -4  13   18.10    4.60
   2   4 -13    4.00    2.20
   2   4 -13    5.70    2.70
  -2  -4  13    8.70    4.40
  -2  -4  13    0.70    3.80
   1   4 -13   14.50    3.00
   1   4 -13   16.20    2.60
  -1  -4  13   19.00    5.00
  -1  -4  13   19.90    4.20
   0   4 -13   22.40    3.20
   0   4 -13   21.80    3.70
   0  -4  13   28.00    4.50
   0  -4  13   19.70    3.50
  -1   4 -13    1.40    1.90
   1  -4  13    0.60    2.80
   1  -4  13   -0.10    3.20
  -2   4 -13   11.00    2.70
   2  -4  13   12.00    3.30
   3  -4  13   30.80    3.90
   3  -4  13   34.30    4.90
  -4   4 -13  159.28    7.50
   4  -4  13  152.98    8.80
   3   3 -13   13.50    2.90
  -3  -3  13   13.70    4.60
  -3  -3  13    9.50    4.10
   2   3 -13  120.19    6.50
   2   3 -13  111.79    6.00
  -2  -3  13   93.79   10.40
  -2  -3  13  120.09    8.50
   1   3 -13    3.50    1.90
   1   3 -13    2.20    2.30
  -1  -3  13    8.30    2.80
  -1  -3  13    8.60    3.60
   0   3 -13   -0.50    1.70
   0  -3  13    1.10    2.50
   0  -3  13    1.90    3.00
  -1   3 -13   12.40    2.30
  -1   3 -13   17.00    2.80
   1  -3  13    6.90    3.10
   1  -3  13   12.30    2.90
  -2   3 -13   15.50    2.70
  -2   3 -13   12.80    2.50
   2  -3  13   17.80    3.50
   2  -3  13   18.00    3.20
  -3   3 -13    6.70    2.50
  -3   3 -13    5.10    2.10
   3  -3  13    9.10    3.00
   3  -3  13    3.80    4.10
  -4   3 -13   10.80    2.80
   4  -3  13   19.10    3.60
   4  -3  13   12.30    3.40
  -5   3 -13    0.80    2.20
  -5   3 -13    2.60    2.40
   5  -3  13    7.30    3.30
   4   2 -13    2.30    2.10
   4   2 -13    0.10    2.70
  -4  -2  13   -4.20    4.40
  -4  -2  13    7.10    4.30
   3   2 -13   85.69    5.60
   3   2 -13   87.69    7.00
  -3  -2  13   84.59    7.40
  -3  -2  13   86.49    7.80
   2   2 -13   45.20    3.70
   2   2 -13   44.10    4.30
  -2  -2  13   52.19    5.60
  -2  -2  13   38.90    5.30
   1   2 -13  191.68    8.50
   1   2 -13  169.38    8.10
  -1  -2  13  166.08    8.70
  -1  -2  13  180.48    9.90
   0   2 -13   12.80    2.50
   0   2 -13   10.60    2.20
   0   2 -13   12.50    2.20
   0  -2  13    8.10    2.80
   0  -2  13    7.30    3.30
  -1   2 -13   13.10    2.20
  -1   2 -13   14.60    2.40
   1  -2  13   10.70    3.30
   1  -2  13   13.10    3.00
  -2   2 -13   27.10    3.20
  -2   2 -13   19.20    2.70
   2  -2  13   18.90    3.50
   2  -2  13   29.50    3.60
  -3   2 -13    9.60    2.30
  -3   2 -13   17.00    3.60
   3  -2  13   14.90    3.30
   3  -2  13    8.40    2.80
  -4   2 -13    3.90    2.10
  -4   2 -13    2.50    2.00
   4  -2  13    2.10    2.70
   4  -2  13    1.70    2.80
  -5   2 -13   40.60    4.20
  -5   2 -13   47.30    4.40
   5  -2  13   45.50    5.50
   5  -2  13   46.10    5.10
  -6   2 -13   51.09    4.90
   6  -2  13   53.89    5.80
   4   1 -13   25.10    3.50
   4   1 -13   18.80    3.10
  -4  -1  13   22.60    4.40
  -4  -1  13   18.10    8.10
   3   1 -13   57.49    4.80
  -3  -1  13   77.49    7.20
  -3  -1  13   67.19    7.30
   2   1 -13   22.50    2.90
   2   1 -13   27.30    3.60
  -2  -1  13   27.00    4.60
  -2  -1  13   20.20    3.40
   1   1 -13  112.29    5.80
   1   1 -13  101.89    5.90
  -1  -1  13  102.69    7.40
  -1  -1  13   99.19    6.30
   0   1 -13  123.99    6.20
   0   1 -13  118.69    6.40
   0   1 -13  121.39    6.00
   0  -1  13  116.59    7.60
   0  -1  13  107.79    6.60
  -1   1 -13   71.59    4.60
   1  -1  13   70.79    5.20
   1  -1  13   68.69    5.80
  -2   1 -13    3.10    1.80
   2  -1  13    3.00    2.40
   2  -1  13    4.60    2.70
  -3   1 -13    8.20    2.10
  -3   1 -13   12.00    2.40
   3  -1  13   12.10    3.00
   3  -1  13   17.30    2.90
  -4   1 -13    2.60    2.00
  -4   1 -13   -0.30    2.00
   4  -1  13   -2.90    2.50
   4  -1  13   -0.40    2.60
  -5   1 -13   18.40    2.90
  -5   1 -13   20.10    3.00
   5  -1  13   19.90    3.30
  -6   1 -13    9.00    3.20
  -6   1 -13    4.70    2.70
   6  -1  13    6.50    3.10
   6  -1  13    3.60    3.00
  -7   1 -13   25.40    3.70
   7  -1  13   26.10    4.00
   4   0 -13   81.09    5.80
   4   0 -13   84.19    5.20
  -4   0  13   79.59    7.10
  -4   0  13   80.49    8.30
  -3   0  13   57.59    7.00
  -3   0  13   65.79    7.10
   2   0 -13   -0.60    2.00
   2   0 -13   -0.30    1.90
  -2   0  13   -1.40    3.30
  -2   0  13   -0.80    2.30
   1   0 -13  230.38    9.90
   1   0 -13  223.28   10.00
  -1   0  13  210.78   11.10
  -1   0  13  214.98   10.20
   0   0 -13  166.38    8.00
   0   0 -13  168.98    8.10
   0   0  13  161.28    8.30
   0   0  13  175.78    9.20
  -1   0 -13    9.70    2.30
  -1   0 -13   11.20    2.40
   1   0  13   11.50    3.30
   1   0  13   11.50    2.80
  -2   0 -13    6.10    2.10
   2   0  13    6.70    2.50
   2   0  13    9.60    3.90
  -3   0 -13   64.49    4.90
  -3   0 -13   71.49    4.80
   3   0  13   71.69    5.10
   3   0  13   63.79    7.00
  -4   0 -13   83.59    5.50
  -4   0 -13   92.09    5.40
   4   0  13   85.69    5.70
   4   0  13   81.39    5.90
  -5   0 -13   20.80    3.20
  -5   0 -13   23.60    3.50
   5   0  13   26.80    3.50
   5   0  13   19.80    3.30
  -6   0 -13   14.90    3.10
   6   0  13   16.10    3.40
  -7   0 -13   -0.70    2.40
   7   0  13    9.80    3.30
   4  -1 -13   19.40    3.20
   4  -1 -13   23.50    3.10
  -4   1  13   17.80    4.20
  -4   1  13   24.20    5.20
   3  -1 -13   24.20    3.60
   3  -1 -13   25.80    3.20
  -3   1  13   29.10    4.90
  -3   1  13   23.50    5.00
   2  -1 -13   -0.20    1.90
  -2   1  13   -1.60    3.30
  -2   1  13   -1.80    2.30
   1  -1 -13    3.70    2.10
   1  -1 -13    3.90    2.00
  -1   1  13    7.70    3.30
  -1   1  13    5.80    2.40
   0  -1 -13  314.47   12.40
   0  -1 -13  280.57   12.30
   0   1  13  267.57   12.40
  -1  -1 -13   59.89    4.60
  -1  -1 -13   68.39    4.90
   1   1  13   59.99    5.90
   1   1  13   63.29    4.90
  -2  -1 -13   40.10    3.90
  -2  -1 -13   36.30    4.30
   2   1  13   35.80    4.60
   2   1  13   33.90    4.00
  -3  -1 -13   17.80    2.80
   3   1  13   18.80    3.20
   3   1  13   13.60    2.70
  -4  -1 -13    0.20    1.90
  -4  -1 -13    0.40    2.10
  -4  -1 -13    0.40    2.20
   4   1  13    2.20    2.50
   4   1  13   -0.50    2.60
  -5  -1 -13   29.70    3.50
  -5  -1 -13   33.90    4.10
  -5  -1 -13   45.60    4.60
   5   1  13   42.00    4.50
  -6  -1 -13    0.50    2.20
  -6  -1 -13    0.70    3.30
   6   1  13    4.00    2.70
   6   1  13   -0.20    2.80
  -7  -1 -13    8.40    2.70
  -7  -1 -13    6.40    3.20
   7   1  13    7.90    3.00
   7   1  13    1.90    3.20
   3  -2 -13    2.80    2.20
   3  -2 -13    0.20    2.00
   2  -2 -13   12.50    3.10
   2  -2 -13   11.60    2.50
  -2   2  13   14.00    4.00
  -2   2  13   14.60    2.90
   1  -2 -13   33.10    3.70
  -1   2  13   52.59    5.70
  -1   2  13   32.70    4.30
   0  -2 -13   63.29    4.90
   0   2  13   52.69    4.70
   0   2  13   55.69    6.90
  -1  -2 -13   42.40    4.20
   1   2  13   40.90    4.30
   1   2  13   46.40    5.10
  -2  -2 -13    1.00    2.10
  -2  -2 -13    4.10    2.30
   2   2  13   -0.10    2.10
  -3  -2 -13   25.90    3.90
   3   2  13   31.20    3.60
  -4  -2 -13   29.10    4.30
  -4  -2 -13   34.20    4.30
   4   2  13   35.00    4.30
  -5  -2 -13   32.50    4.30
  -5  -2 -13   23.30    3.80
   5   2  13   30.50    3.60
   5   2  13   25.10    3.60
  -6  -2 -13  138.19    8.10
  -6  -2 -13  149.29   11.10
   6   2  13  130.59    7.50
   6   2  13  133.29    7.50
  -7  -2 -13    6.60    2.80
   7   2  13    3.40    3.00
   3  -3 -13   25.00    5.40
   3  -3 -13   23.20    3.20
   3  -3 -13   23.70    3.20
  -3   3  13   22.20    4.90
   2  -3 -13   20.20    3.20
   2  -3 -13   17.10    3.10
  -2   3  13   20.20    3.40
   1  -3 -13  257.87   11.00
  -1   3  13  241.58   11.30
   0  -3 -13  108.59    6.80
   0  -3 -13  103.49    6.40
   0   3  13  100.89    6.30
  -1  -3 -13  166.18    8.80
  -1  -3 -13  163.18    8.50
   1   3  13  159.88    8.20
  -2  -3 -13   14.80    3.10
  -2  -3 -13   16.90    3.10
   2   3  13   14.30    2.90
  -3  -3 -13   37.50    4.70
   3   3  13   43.40    4.40
  -4  -3 -13   41.40    4.90
  -4  -3 -13   31.50    3.40
  -4  -3 -13   30.90    4.50
   4   3  13   33.80    3.80
   4   3  13   28.70    3.60
  -5  -3 -13   -2.80    2.40
  -5  -3 -13    2.80    2.80
   5   3  13    2.80    2.50
   5   3  13    2.40    2.50
   5   3  13    2.20    3.10
  -6  -3 -13   70.89    5.10
  -6  -3 -13   63.69    8.70
   6   3  13   62.19    8.80
   6   3  13   73.99    5.60
  -7  -3 -13    7.30    2.70
  -7  -3 -13    4.00    2.80
   7   3  13    2.80    3.10
   2  -4 -13   30.50    3.60
   1  -4 -13   49.50    4.40
   1  -4 -13   53.79    5.10
  -1   4  13   50.59    5.10
  -1   4  13   62.99    7.50
   0  -4 -13    9.10    2.70
   0   4  13   15.50    4.30
   0   4  13   10.30    2.80
  -1  -4 -13   24.90    3.60
  -1  -4 -13   28.50    4.00
   1   4  13   39.80    5.40
   1   4  13   31.40    4.10
  -2  -4 -13   41.30    4.70
  -2  -4 -13   48.70    6.50
  -2  -4 -13   41.60    3.50
   2   4  13   41.90    4.90
   2   4  13   44.40    5.10
  -3  -4 -13  113.79    6.30
  -3  -4 -13  124.99    7.70
  -3  -4 -13  132.49    7.90
   3   4  13  127.09    7.60
   3   4  13  127.69    8.10
   3   4  13  132.99    7.10
  -4  -4 -13    5.30    2.90
   4   4  13   -2.40    2.90
   4   4  13   -0.70    2.50
  -5  -4 -13   -1.30    3.00
  -5  -4 -13    1.70    2.90
   5   4  13   -0.80    2.60
  -6  -4 -13    0.90    5.10
  -6  -4 -13    0.80    2.40
   6   4  13    5.50    3.60
   6   4  13   11.00    3.00
  -7  -4 -13    3.70    3.10
   7   4  13    3.10    3.10
   7   4  13    8.50    4.20
   1  -5 -13   23.00    4.00
   1  -5 -13   26.70    3.60
   1  -5 -13   25.90    3.70
  -1   5  13   22.90    4.50
  -1   5  13   23.50    3.70
   0  -5 -13   -3.40    3.90
   0  -5 -13   -4.00    2.70
   0  -5 -13    0.10    2.10
   0   5  13   -3.00    2.60
   0   5  13    0.00    3.70
  -1  -5 -13    7.20    3.30
   1   5  13   12.00    3.40
   1   5  13   12.00    3.00
  -2  -5 -13   18.40    3.50
  -2  -5 -13   21.20    3.90
   2   5  13   11.80    3.00
   2   5  13   17.50    4.90
  -3  -5 -13   24.60    4.00
  -3  -5 -13   27.10    4.30
   3   5  13   15.30    3.10
   3   5  13   22.70    4.10
  -4  -5 -13    2.10    3.10
  -4  -5 -13    9.40    2.70
   4   5  13    4.00    2.90
   4   5  13    8.70    3.80
  -5  -5 -13   81.09    5.60
  -5  -5 -13   83.89    7.00
  -5  -5 -13   80.29    7.00
   5   5  13   90.69    6.20
  -6  -5 -13   -1.60    3.30
  -6  -5 -13    6.70    3.70
   6   5  13    4.50    3.30
   0  -6 -13   23.20    3.00
   0  -6 -13   26.60    4.10
   0   6  13   24.10    4.50
  -1  -6 -13   -0.50    2.60
  -1  -6 -13   -0.10    3.40
  -1  -6 -13   -0.80    3.00
   1   6  13    3.70    3.60
   1   6  13    3.60    2.90
  -2  -6 -13   68.29    6.10
  -2  -6 -13   57.79    4.80
   2   6  13   46.20    6.50
   2   6  13   59.49    5.30
  -3  -6 -13    3.00    3.30
   3   6  13   -1.00    2.70
   3   6  13    6.70    4.00
  -4  -6 -13    0.70    5.90
  -4  -6 -13    4.60    3.90
  -4  -6 -13   -4.60    3.40
   4   6  13    0.80    3.60
   4   6  13   -3.00    2.70
  -5  -6 -13    1.40    3.60
  -5  -6 -13    0.40    3.70
  -6  -6 -13  233.78   12.30
  -6  -6 -13  225.68   12.40
   6   6  13  208.78   13.40
   6   6  13  214.18   10.80
   2   7  13    0.60    4.20
   3   7  13   -0.20    4.10
  -4  -7 -13    2.90    4.10
  -4  -7 -13   -1.20    2.70
  -4  -7 -13    1.10    3.90
   4   7  13    3.20    4.10
   4   7  13    1.20    4.40
   1   4 -14   21.90    3.10
  -1  -4  14   22.50    5.00
   0   4 -14    0.20    2.20
   0  -4  14   -1.90    3.10
   0  -4  14   11.50    4.40
  -1   4 -14   22.50    2.90
   1  -4  14   29.10    6.50
  -2   4 -14    4.30    2.90
  -2   4 -14    8.70    5.20
   3  -4  14   27.90    4.80
   2   3 -14    2.50    2.40
   2   3 -14    6.40    2.80
  -2  -3  14    1.50    4.70
   1   3 -14  250.17   11.30
  -1  -3  14  252.17   11.70
   0   3 -14   11.80    2.50
   0   3 -14   13.00    3.00
   0  -3  14   15.00    3.40
   0  -3  14   11.60    4.00
  -1   3 -14   13.30    2.90
  -1   3 -14    8.80    2.30
   1  -3  14    0.50    4.80
   1  -3  14    8.60    3.80
  -2   3 -14   61.59    4.80
  -3   3 -14   19.80    2.80
   3  -3  14   10.90    3.70
   3  -3  14   11.90    3.50
   4  -3  14   57.09    6.30
   2   2 -14    0.00    2.60
   2   2 -14    3.90    2.10
  -2  -2  14    8.50    4.50
   1   2 -14    2.70    2.00
   1   2 -14    3.40    2.50
   1   2 -14    7.10    2.70
  -1  -2  14    2.70    3.00
  -1  -2  14    6.20    3.90
   0   2 -14   57.89    5.00
   0   2 -14   53.09    5.10
   0   2 -14   64.29    4.40
   0  -2  14   59.99    5.60
  -1   2 -14    0.90    2.00
   1  -2  14    0.30    2.80
   1  -2  14   -1.10    3.10
  -2   2 -14    0.40    2.00
  -2   2 -14    2.20    2.00
   2  -2  14    0.30    3.10
   2  -2  14   -0.90    2.90
  -3   2 -14   36.20    5.30
  -3   2 -14   51.89    6.70
   3  -2  14   41.60    5.30
   3  -2  14   43.90    5.60
   4  -2  14    6.70    3.40
   4  -2  14    4.10    3.20
  -5   2 -14  120.99    6.90
  -5   2 -14  109.99    6.30
   5  -2  14  105.09    7.30
   5  -2  14   87.69    8.50
   3   1 -14  282.57   12.10
  -3  -1  14  258.47   14.40
   2   1 -14   88.99    5.70
  -2  -1  14   78.09    6.30
  -2  -1  14   75.19    7.60
   1   1 -14    1.20    2.30
   1   1 -14   -0.90    1.80
  -1  -1  14    0.40    3.60
   0   1 -14   15.90    2.70
   0   1 -14   21.70    3.30
   0   1 -14   26.10    3.30
   0  -1  14   11.90    3.20
   0  -1  14   16.70    4.00
  -1   1 -14    1.30    2.10
   1  -1  14    2.70    3.20
   1  -1  14   -0.40    2.60
  -2   1 -14   -0.20    2.10
  -2   1 -14    3.10    2.00
   2  -1  14    1.90    2.80
   2  -1  14   -0.40    3.00
  -3   1 -14    7.20    2.30
  -3   1 -14    6.00    2.10
   3  -1  14    4.30    3.00
  -4   1 -14   15.50    2.80
   4  -1  14   14.90    3.20
   4  -1  14   16.10    4.20
  -5   1 -14    8.70    2.60
   5  -1  14    4.20    3.20
   5  -1  14    7.20    3.40
  -6   1 -14  180.58    8.60
  -6   1 -14  171.08    8.80
   6  -1  14  156.18    9.30
   3   0 -14   38.60    4.60
   3   0 -14   34.10    5.10
  -3   0  14   42.80    6.20
   2   0 -14   82.29    5.60
  -2   0  14   70.39    7.50
  -2   0  14   95.99    6.20
   1   0 -14   26.20    3.30
  -1   0  14   31.00    3.90
  -1   0  14   27.20    4.50
   0   0 -14   57.09    4.60
   0   0 -14   42.10    4.10
   0   0 -14   54.79    4.40
   0   0  14   53.89    4.90
   0   0  14   40.20    5.80
  -1   0 -14   50.99    4.40
   1   0  14   42.80    4.80
  -2   0 -14   59.49    6.20
  -2   0 -14   49.50    4.40
   2   0  14   68.99    5.30
  -3   0 -14   33.30    5.40
  -3   0 -14   31.80    4.00
   3   0  14   31.10    4.30
   3   0  14   29.50    3.70
  -4   0 -14   33.60    4.20
   4   0  14   36.50    4.70
  -5   0 -14    0.90    2.20
   5   0  14   -2.80    3.00
  -6   0 -14    5.00    2.60
   6   0  14    0.40    3.40
   2  -1 -14  260.07   11.40
   2  -1 -14  249.78   11.40
  -2   1  14  249.28   15.60
  -2   1  14  261.07   15.30
   1  -1 -14    0.30    2.20
   1  -1 -14    0.00    2.30
  -1   1  14    2.90    2.80
  -1   1  14    5.80    4.10
   0  -1 -14   21.90    3.10
   0  -1 -14   32.80    3.90
   0  -1 -14   24.70    3.10
   0   1  14   20.30    3.50
   0   1  14   25.50    4.80
  -1  -1 -14   14.30    2.80
   1   1  14   14.30    3.10
   1   1  14   18.40    3.70
  -2  -1 -14    9.60    2.70
  -2  -1 -14   16.10    2.90
   2   1  14   14.40    3.20
   2   1  14    9.80    3.20
  -3  -1 -14   14.00    2.90
   3   1  14   15.10    3.10
   3   1  14   18.20    3.60
  -4  -1 -14   28.40    4.20
  -4  -1 -14   20.20    3.40
   4   1  14   26.60    3.80
  -5  -1 -14   -1.80    2.30
  -6  -1 -14   30.60    3.80
   6   1  14   38.90    6.50
   6   1  14   36.60    4.40
   2  -2 -14   18.70    3.10
  -2   2  14   29.80    5.20
  -2   2  14   21.50    3.40
   1  -2 -14   -3.80    2.90
  -1   2  14    1.70    3.60
  -1   2  14    1.20    2.70
   0  -2 -14   28.50    3.80
   0  -2 -14   28.10    4.20
   0  -2 -14   28.90    4.10
   0   2  14   27.10    3.80
  -1  -2 -14   26.40    3.60
   1   2  14   30.30    4.70
   1   2  14   34.40    4.50
  -2  -2 -14    1.60    2.40
  -2  -2 -14    0.80    2.30
   2   2  14   -1.70    2.50
   2   2  14    4.50    3.20
   3   2  14   11.40    3.10
  -4  -2 -14   56.59    5.30
  -4  -2 -14   62.59    6.00
   4   2  14   54.79    5.30
  -5  -2 -14    5.00    2.90
  -5  -2 -14    1.00    2.60
   5   2  14    5.70    3.30
   5   2  14    3.80    2.90
  -6  -2 -14   25.70    4.20
  -6  -2 -14   18.40    3.50
   6   2  14   33.30    4.20
   2  -3 -14  108.69    6.70
   2  -3 -14  112.99    6.50
  -2   3  14  104.29   11.20
  -2   3  14   90.19    6.90
   1  -3 -14    7.00    2.50
  -1   3  14   11.30    3.40
   0   3  14    7.70    2.90
  -1  -3 -14   11.20    2.80
   1   3  14    7.90    2.90
   1   3  14    1.70    3.50
  -2  -3 -14   21.70    3.40
  -2  -3 -14   17.70    3.40
   2   3  14   18.90    3.50
   2   3  14   20.60    4.00
  -3  -3 -14   40.10    5.30
  -3  -3 -14   33.10    4.90
   3   3  14   36.10    4.50
   3   3  14   37.70    4.40
  -4  -3 -14   33.50    4.30
   4   3  14   28.80    4.00
   4   3  14   34.30    5.20
   4   3  14   29.90    4.00
  -5  -3 -14   78.19    6.40
  -5  -3 -14   65.09    6.00
   5   3  14   69.89    6.80
  -6  -3 -14    1.30    3.10
  -6  -3 -14   -0.50    3.40
  -6  -3 -14    2.80    3.50
   1  -4 -14   88.19    5.90
   1  -4 -14   78.49    6.40
  -1   4  14  102.09    8.40
  -1   4  14   79.79    6.40
   0  -4 -14    3.70    2.40
   0   4  14   -0.40    3.70
   0   4  14    1.10    2.80
   1   4  14   10.40    3.20
   1   4  14   22.00    4.60
  -2  -4 -14   50.39    6.00
  -2  -4 -14   50.39    5.40
   2   4  14   54.29    6.10
   2   4  14   52.69    5.30
   3   4  14   20.00    4.00
   3   4  14   25.80    3.70
  -4  -4 -14    5.30    3.30
   4   4  14    3.20    3.10
  -5  -4 -14   18.10    3.00
  -5  -4 -14    6.80    3.50
  -5  -4 -14   11.10    3.60
   5   4  14    4.50    3.10
   5   4  14   12.70    4.10
  -6  -4 -14   14.50    4.10
  -6  -4 -14   18.40    3.90
   6   4  14   10.60    3.60
   6   4  14    5.10    4.10
   0  -5 -14   34.20    4.30
   0   5  14   29.00    4.60
  -2  -5 -14   -3.20    3.20
  -2  -5 -14    0.20    3.90
   2   5  14    8.00    3.60
  -3  -5 -14   25.40    4.10
   3   5  14   15.00    4.00
   3   5  14   22.00    3.60
  -4  -5 -14    7.20    3.40
  -4  -5 -14   -0.60    3.70
  -4  -5 -14    1.50    4.90
   4   5  14   -3.00    3.10
  -5  -5 -14   15.50    4.20
  -5  -5 -14   10.50    3.90
   5   5  14   12.30    5.00
  -2  -6 -14    0.30    3.70
   2   6  14   10.50    4.30
   2   6  14    2.40    3.30
  -3  -6 -14   -3.40    3.50
  -3  -6 -14   -1.90    4.50
   3   6  14   -1.00    4.00
  -4  -6 -14   10.10    4.10
  -4  -6 -14    9.60    4.20
   4   6  14   15.90    4.60
  -1   3 -15   24.40    3.30
   1  -3  15   32.50    5.40
   0   2 -15   -0.10    2.30
   0   2 -15    1.00    2.80
   0  -2  15    9.70    4.40
   0  -2  15   -1.00    3.30
  -1   2 -15    7.60    4.10
  -1   2 -15    5.70    2.50
   1  -2  15    3.70    4.10
   1  -2  15    4.60    3.30
  -2   2 -15  134.99    7.00
   2  -2  15  125.79    8.00
   2  -2  15  121.29    8.60
  -3   2 -15    2.80    2.50
   3  -2  15   10.30    4.20
   3  -2  15   -2.10    3.50
  -4   2 -15    9.60    3.30
   1   1 -15   24.40    3.20
   1   1 -15   19.70    3.50
  -1  -1  15   22.20    6.10
  -1  -1  15   16.90    4.80
   0  -1  15   20.00    4.70
   0  -1  15   23.70    3.90
  -1   1 -15   -1.30    2.60
  -1   1 -15   -2.10    2.20
   1  -1  15    5.80    4.00
   1  -1  15    3.90    3.20
  -2   1 -15   36.10    4.30
   2  -1  15   34.00    5.70
   2  -1  15   29.90    4.20
   3  -1  15   69.59    6.40
   4  -1  15   31.80    4.30
   4  -1  15   29.90    4.80
   1   0 -15    5.20    2.80
  -1   0  15    1.50    3.10
  -1   0  15    4.00    4.30
   0   0 -15   22.00    3.20
   0   0 -15   23.70    3.50
  -1   0 -15   72.89    5.40
   1   0  15   66.39    8.20
  -2   0 -15    4.90    3.30
  -2   0 -15    7.10    2.60
   2   0  15   10.80    3.90
  -3   0 -15    5.60    2.60
   3   0  15    2.40    3.00
   3   0  15    9.80    3.90
  -4   0 -15  172.88    9.00
   4   0  15  169.58    9.20
  -5   0 -15   11.50    3.10
   5   0  15   13.60    3.90
   1  -1 -15   50.89    5.10
  -1   1  15   55.79    5.70
  -1   1  15   45.30    6.00
   0  -1 -15    6.20    2.60
   0   1  15    5.90    4.00
   0   1  15    1.80    3.10
  -1  -1 -15   -0.30    2.30
   1   1  15    3.10    3.00
  -2  -1 -15   11.30    2.80
  -2  -1 -15    7.00    2.70
   2   1  15    2.60    3.10
  -3  -1 -15  160.98    8.60
   4   1  15  139.29    9.00
  -5  -1 -15   93.49    6.60
   1  -2 -15   13.80    3.20
  -1   2  15    7.50    3.60
   0  -2 -15  119.69    7.10
   0   2  15  130.19    7.80
  -1  -2 -15   14.40    3.50
  -1  -2 -15   21.40    3.40
  -2  -2 -15   81.59    6.30
  -2  -2 -15   94.89    6.90
  -3  -2 -15   70.09    5.80
   3   2  15   61.39    8.90
   3   2  15   65.89    6.30
  -4  -2 -15   79.19    6.30
   4   2  15   78.59    6.30
   4   2  15   67.99    6.90
  -5  -2 -15   31.60    4.20
  -5  -2 -15   24.50    4.10
   5   2  15   28.60    4.50
   5   2  15   36.50    4.60
   0   3  15   23.20    6.80
   0   3  15   24.20    4.00
  -1  -3 -15   40.60    5.10
   1   3  15   49.30    5.50
   1   3  15   49.50    6.60
  -2  -3 -15   47.70    5.60
  -2  -3 -15   53.09    5.40
   2   3  15   46.10    5.00
   2   3  15   46.60    6.60
  -3  -3 -15    5.00    3.00
   3   3  15    1.40    3.70
   3   3  15    4.00    3.10
  -4  -3 -15   19.50    3.80
   4   3  15   24.10    4.00
  -5  -3 -15   83.99    7.00
  -5  -3 -15   88.19    7.20
   5   3  15   90.49    7.00
  -1  -4 -15   -2.50    3.30
   1   4  15   -0.40    3.30
  -2  -4 -15   -0.80    3.10
  -2  -4 -15    1.60    3.30
   3   4  15  121.99    7.80
  -4  -4 -15   46.90    6.20
   4   4  15   47.10    5.80
  -2  -1 -16    4.90    3.00
   2   1  16    3.30    3.60

_computing_structure_solution     'SHELXT 2014/4 (Sheldrick, 2014)'
;
_shelx_hkl_checksum              1320
loop_
_space_group_symop_operation_xyz
'x, y, z'
'-x, -y, -z'
loop_
_atom_site_label
_atom_site_type_symbol
_atom_site_fract_x
_atom_site_fract_y
_atom_site_fract_z
_atom_site_U_iso_or_equiv
_atom_site_adp_type
_atom_site_occupancy
_atom_site_site_symmetry_order
_atom_site_calc_flag
_atom_site_refinement_flags_posn
_atom_site_refinement_flags_adp
F1 F 0.67152(10) 1.02549(8) 0.72268(6) 0.0212(2) Uani 1 1 d . .
O2 O 1.01732(12) 0.83679(11) 0.64466(8) 0.0213(2) Uani 1 1 d . .
H2 H 1.0348 0.8800 0.7013 0.026 Uiso 1 1 calc R U
O1 O 0.96502(11) 0.54005(11) 0.80616(8) 0.0205(2) Uani 1 1 d . .
O3 O 0.94403(12) 0.95403(12) 0.86134(8) 0.0239(2) Uani 1 1 d . .
N2 N 0.71618(13) 0.83654(13) 0.96830(9) 0.0182(3) Uani 1 1 d . .
N1 N 0.84500(13) 0.49270(12) 0.65484(9) 0.0177(2) Uani 1 1 d . .
C17 C 0.81273(16) 0.89285(14) 0.87142(10) 0.0166(3) Uani 1 1 d . .
C11 C 0.57212(15) 0.79168(14) 0.82807(10) 0.0150(3) Uani 1 1 d . .
C10 C 0.72707(16) 0.86748(14) 0.77029(10) 0.0152(3) Uani 1 1 d . .
C16 C 0.57093(15) 0.77782(14) 0.94498(10) 0.0159(3) Uani 1 1 d . .
C14 C 0.30783(17) 0.66865(16) 0.97914(12) 0.0249(3) Uani 1 1 d . .
H14 H 0.2159 0.6266 1.0303 0.030 Uiso 1 1 calc R U
C5 C 0.77981(15) 0.58846(15) 0.56429(10) 0.0175(3) Uani 1 1 d . .
C7 C 0.86246(15) 0.76946(14) 0.67632(10) 0.0155(3) Uani 1 1 d . .
C18 C 0.76190(19) 0.83215(18) 1.07977(11) 0.0253(3) Uani 1 1 d . .
H18A H 0.8020 0.7173 1.1043 0.038 Uiso 1 1 calc R U
H18B H 0.6582 0.8814 1.1350 0.038 Uiso 1 1 calc R U
H18C H 0.8565 0.8948 1.0754 0.038 Uiso 1 1 calc R U
C8 C 0.89979(14) 0.58711(14) 0.72266(10) 0.0155(3) Uani 1 1 d . .
C12 C 0.44042(16) 0.74273(15) 0.78626(11) 0.0190(3) Uani 1 1 d . .
H12 H 0.4400 0.7515 0.7067 0.023 Uiso 1 1 calc R U
C6 C 0.78688(16) 0.75411(15) 0.57313(10) 0.0176(3) Uani 1 1 d . .
C13 C 0.30804(16) 0.68015(16) 0.86386(12) 0.0230(3) Uani 1 1 d . .
H13 H 0.2170 0.6451 0.8366 0.028 Uiso 1 1 calc R U
C15 C 0.44031(17) 0.71765(16) 1.02282(11) 0.0222(3) Uani 1 1 d . .
H15 H 0.4402 0.7098 1.1024 0.027 Uiso 1 1 calc R U
C3 C 0.66413(18) 0.6563(2) 0.39508(12) 0.0298(3) Uani 1 1 d . .
H3 H 0.6215 0.6242 0.3333 0.036 Uiso 1 1 calc R U
C1 C 0.73226(18) 0.87248(17) 0.49299(11) 0.0244(3) Uani 1 1 d . .
H1 H 0.7369 0.9854 0.4987 0.029 Uiso 1 1 calc R U
C4 C 0.71972(17) 0.53563(18) 0.47575(12) 0.0244(3) Uani 1 1 d . .
H4 H 0.7162 0.4225 0.4698 0.029 Uiso 1 1 calc R U
C9 C 0.84699(19) 0.31778(16) 0.67405(12) 0.0257(3) Uani 1 1 d . .
H9A H 0.9046 0.2765 0.7385 0.039 Uiso 1 1 calc R U
H9B H 0.9120 0.2601 0.6053 0.039 Uiso 1 1 calc R U
H9C H 0.7257 0.2979 0.6914 0.039 Uiso 1 1 calc R U
C2 C 0.66986(19) 0.8211(2) 0.40319(12) 0.0300(3) Uani 1 1 d . .
H2A H 0.6311 0.9001 0.3473 0.036 Uiso 1 1 calc R U
loop_
_atom_site_aniso_label
_atom_site_aniso_U_11
_atom_site_aniso_U_22
_atom_site_aniso_U_33
_atom_site_aniso_U_23
_atom_site_aniso_U_13
_atom_site_aniso_U_12
F1 0.0281(4) 0.0126(4) 0.0234(4) 0.0022(3) -0.0073(3) -0.0040(3)
O2 0.0205(5) 0.0233(5) 0.0218(5) -0.0014(4) 0.0005(4) -0.0127(4)
O1 0.0205(4) 0.0216(5) 0.0199(5) 0.0028(4) -0.0064(4) -0.0038(4)
O3 0.0228(5) 0.0246(5) 0.0277(5) -0.0056(4) -0.0064(4) -0.0088(4)
N2 0.0198(5) 0.0206(5) 0.0153(5) -0.0041(4) -0.0048(4) -0.0032(4)
N1 0.0176(5) 0.0157(5) 0.0202(5) -0.0024(4) -0.0020(4) -0.0049(4)
C17 0.0173(6) 0.0141(5) 0.0192(6) -0.0036(4) -0.0050(4) -0.0021(4)
C11 0.0145(5) 0.0123(5) 0.0172(6) -0.0008(4) -0.0026(4) -0.0006(4)
C10 0.0180(6) 0.0115(5) 0.0170(6) 0.0016(4) -0.0055(4) -0.0036(4)
C16 0.0156(6) 0.0133(5) 0.0180(6) -0.0021(4) -0.0025(4) -0.0008(4)
C14 0.0166(6) 0.0219(6) 0.0319(7) 0.0009(5) 0.0036(5) -0.0030(5)
C5 0.0138(5) 0.0219(6) 0.0159(6) -0.0026(5) 0.0007(4) -0.0041(4)
C7 0.0163(5) 0.0153(5) 0.0160(6) 0.0009(4) -0.0028(4) -0.0063(4)
C18 0.0301(7) 0.0301(7) 0.0166(6) -0.0041(5) -0.0103(5) -0.0002(6)
C8 0.0119(5) 0.0160(6) 0.0174(6) -0.0007(4) 0.0004(4) -0.0028(4)
C12 0.0173(6) 0.0183(6) 0.0222(6) -0.0033(5) -0.0062(5) -0.0018(5)
C6 0.0168(6) 0.0218(6) 0.0138(6) -0.0019(5) -0.0016(4) -0.0040(5)
C13 0.0141(6) 0.0195(6) 0.0356(8) -0.0021(5) -0.0057(5) -0.0025(5)
C15 0.0210(6) 0.0230(6) 0.0192(6) -0.0005(5) 0.0011(5) -0.0016(5)
C3 0.0220(7) 0.0497(9) 0.0187(6) -0.0098(6) -0.0047(5) -0.0046(6)
C1 0.0262(7) 0.0264(7) 0.0181(6) 0.0010(5) -0.0032(5) -0.0014(5)
C4 0.0194(6) 0.0318(7) 0.0234(7) -0.0106(5) -0.0005(5) -0.0079(5)
C9 0.0286(7) 0.0156(6) 0.0311(7) -0.0025(5) 0.0012(6) -0.0066(5)
C2 0.0268(7) 0.0425(9) 0.0170(7) 0.0000(6) -0.0057(5) 0.0031(6)
loop_
_atom_type_symbol
_atom_type_description
_atom_type_scat_dispersion_real
_atom_type_scat_dispersion_imag
_atom_type_scat_source
C C 0.0033 0.0016 'International Tables Vol C Tables 4.2.6.8 and 6.1.1.4'
H H 0.0000 0.0000 'International Tables Vol C Tables 4.2.6.8 and 6.1.1.4'
N N 0.0061 0.0033 'International Tables Vol C Tables 4.2.6.8 and 6.1.1.4'
O O 0.0106 0.0060 'International Tables Vol C Tables 4.2.6.8 and 6.1.1.4'
F F 0.0171 0.0103 'International Tables Vol C Tables 4.2.6.8 and 6.1.1.4'
loop_
_geom_angle_atom_site_label_1
_geom_angle_atom_site_label_2
_geom_angle_atom_site_label_3
_geom_angle
C7 O2 H2 109.5
C17 N2 C16 111.02(10)
C17 N2 C18 123.55(11)
C16 N2 C18 125.39(11)
C8 N1 C5 111.39(10)
C8 N1 C9 124.75(11)
C5 N1 C9 123.83(11)
O3 C17 N2 127.95(12)
O3 C17 C10 124.22(11)
N2 C17 C10 107.83(10)
C12 C11 C16 120.06(11)
C12 C11 C10 131.99(11)
C16 C11 C10 107.93(10)
F1 C10 C11 110.92(9)
F1 C10 C7 107.35(9)
C11 C10 C7 117.37(10)
F1 C10 C17 106.66(9)
C11 C10 C17 102.87(10)
C7 C10 C17 111.21(9)
C15 C16 C11 122.26(12)
C15 C16 N2 127.39(11)
C11 C16 N2 110.34(11)
C13 C14 C15 121.44(12)
C13 C14 H14 119.3
C15 C14 H14 119.3
C4 C5 C6 121.88(12)
C4 C5 N1 128.27(12)
C6 C5 N1 109.83(10)
O2 C7 C6 110.68(10)
O2 C7 C10 111.77(9)
C6 C7 C10 112.45(10)
O2 C7 C8 112.26(9)
C6 C7 C8 102.21(9)
C10 C7 C8 107.06(9)
N2 C18 H18A 109.5
N2 C18 H18B 109.5
H18A C18 H18B 109.5
N2 C18 H18C 109.5
H18A C18 H18C 109.5
H18B C18 H18C 109.5
O1 C8 N1 126.91(11)
O1 C8 C7 125.21(11)
N1 C8 C7 107.87(10)
C11 C12 C13 118.39(12)
C11 C12 H12 120.8
C13 C12 H12 120.8
C1 C6 C5 120.74(12)
C1 C6 C7 130.60(12)
C5 C6 C7 108.65(10)
C14 C13 C12 120.85(12)
C14 C13 H13 119.6
C12 C13 H13 119.6
C16 C15 C14 116.99(12)
C16 C15 H15 121.5
C14 C15 H15 121.5
C2 C3 C4 121.58(13)
C2 C3 H3 119.2
C4 C3 H3 119.2
C6 C1 C2 118.06(13)
C6 C1 H1 121.0
C2 C1 H1 121.0
C5 C4 C3 117.06(13)
C5 C4 H4 121.5
C3 C4 H4 121.5
N1 C9 H9A 109.5
N1 C9 H9B 109.5
H9A C9 H9B 109.5
N1 C9 H9C 109.5
H9A C9 H9C 109.5
H9B C9 H9C 109.5
C3 C2 C1 120.67(13)
C3 C2 H2A 119.7
C1 C2 H2A 119.7
loop_
_geom_bond_atom_site_label_1
_geom_bond_atom_site_label_2
_geom_bond_distance
F1 C10 1.4058(13)
O2 C7 1.4106(14)
O2 H2 0.8400
O1 C8 1.2194(14)
O3 C17 1.2209(15)
N2 C17 1.3512(16)
N2 C16 1.4162(15)
N2 C18 1.4496(15)
N1 C8 1.3572(15)
N1 C5 1.4127(15)
N1 C9 1.4426(16)
C17 C10 1.5520(16)
C11 C12 1.3832(16)
C11 C16 1.3935(16)
C11 C10 1.4989(16)
C10 C7 1.5398(16)
C16 C15 1.3803(17)
C14 C13 1.3756(19)
C14 C15 1.4012(18)
C14 H14 0.9500
C5 C4 1.3817(17)
C5 C6 1.3951(17)
C7 C6 1.5045(16)
C7 C8 1.5555(16)
C18 H18A 0.9800
C18 H18B 0.9800
C18 H18C 0.9800
C12 C13 1.3975(19)
C12 H12 0.9500
C6 C1 1.3832(17)
C13 H13 0.9500
C15 H15 0.9500
C3 C2 1.384(2)
C3 C4 1.401(2)
C3 H3 0.9500
C1 C2 1.4000(19)
C1 H1 0.9500
C4 H4 0.9500
C9 H9A 0.9800
C9 H9B 0.9800
C9 H9C 0.9800
C2 H2A 0.9500
