#------------------------------------------------------------------------------
#$Date: 2019-11-12 04:17:52 +0200 (Tue, 12 Nov 2019) $
#$Revision: 227525 $
#$URL: file:///home/coder/svn-repositories/cod/cif/4/03/35/4033507.cif $
#------------------------------------------------------------------------------
#
# This file is available in the Crystallography Open Database (COD),
# http://www.crystallography.net/
#
# All data on this site have been placed in the public domain by the
# contributors.
#
data_4033507
loop_
_publ_author_name
'Chang, Meng-Yang'
'Chen, Yu-Hsin'
'Wang, Heui-Sin'
_publ_section_title
;
 Cu(OAc)<sub>2</sub> Mediated Synthesis of 3-Sulfonyl Chromen-4-ones.
;
_journal_issue                   4
_journal_name_full               'The Journal of organic chemistry'
_journal_page_first              2361
_journal_page_last               2368
_journal_paper_doi               10.1021/acs.joc.8b00177
_journal_volume                  83
_journal_year                    2018
_chemical_absolute_configuration rm
_chemical_formula_sum            'C13 H10 N2 O'
_chemical_formula_weight         210.23
_space_group_crystal_system      monoclinic
_space_group_IT_number           4
_space_group_name_Hall           'P 2yb'
_space_group_name_H-M_alt        'P 1 21 1'
_symmetry_space_group_name_Hall  'P 2yb'
_symmetry_space_group_name_H-M   'P 1 21 1'
_atom_sites_solution_hydrogens   mixed
_audit_creation_method           SHELXL-2014/6
_cell_angle_alpha                90
_cell_angle_beta                 94.543(3)
_cell_angle_gamma                90
_cell_formula_units_Z            2
_cell_length_a                   3.7669(4)
_cell_length_b                   22.031(2)
_cell_length_c                   5.8049(6)
_cell_measurement_reflns_used    2298
_cell_measurement_temperature    100(2)
_cell_measurement_theta_max      26.3259
_cell_measurement_theta_min      3.6994
_cell_volume                     480.23(8)
_computing_cell_refinement       'SAINT V8.34A (Bruker AXS Inc., 2013)'
_computing_data_collection       'Bruker APEX2'
_computing_data_reduction        'SAINT V8.34A (Bruker AXS Inc., 2013)'
_computing_molecular_graphics    'Bruker SHELXTL'
_computing_publication_material  'Bruker SHELXTL'
_computing_structure_refinement  'SHELXL-2014/6 (Sheldrick, 2014)'
_diffrn_ambient_temperature      100(2)
_diffrn_detector_area_resol_mean 8.3333
_diffrn_measured_fraction_theta_full 0.967
_diffrn_measured_fraction_theta_max 0.957
_diffrn_measurement_device_type  'Bruker APEX-II CCD'
_diffrn_measurement_method       '\f and \w scans'
_diffrn_radiation_type           MoK\a
_diffrn_radiation_wavelength     0.71073
_diffrn_reflns_av_R_equivalents  0.0156
_diffrn_reflns_av_unetI/netI     0.0259
_diffrn_reflns_Laue_measured_fraction_full 0.967
_diffrn_reflns_Laue_measured_fraction_max 0.957
_diffrn_reflns_limit_h_max       4
_diffrn_reflns_limit_h_min       -4
_diffrn_reflns_limit_k_max       26
_diffrn_reflns_limit_k_min       -27
_diffrn_reflns_limit_l_max       7
_diffrn_reflns_limit_l_min       -4
_diffrn_reflns_number            3192
_diffrn_reflns_point_group_measured_fraction_full 0.969
_diffrn_reflns_point_group_measured_fraction_max 0.960
_diffrn_reflns_theta_full        25.242
_diffrn_reflns_theta_max         26.366
_diffrn_reflns_theta_min         1.849
_exptl_absorpt_coefficient_mu    0.095
_exptl_absorpt_correction_T_max  0.9485
_exptl_absorpt_correction_T_min  0.8840
_exptl_absorpt_correction_type   multi-scan
_exptl_absorpt_process_details   'SADABS V2014/4 (Bruker AXS Inc.)'
_exptl_crystal_colour            'Pale Yellow'
_exptl_crystal_density_diffrn    1.454
_exptl_crystal_density_meas      ?
_exptl_crystal_density_method    'not measured'
_exptl_crystal_description       Lump
_exptl_crystal_F_000             220
_exptl_crystal_size_max          0.08
_exptl_crystal_size_mid          0.05
_exptl_crystal_size_min          0.04
_refine_diff_density_max         0.203
_refine_diff_density_min         -0.221
_refine_diff_density_rms         0.053
_refine_ls_abs_structure_details
;
 Refined as an inversion twin.
;
_refine_ls_abs_structure_Flack   -1(2)
_refine_ls_extinction_method     none
_refine_ls_goodness_of_fit_ref   1.187
_refine_ls_hydrogen_treatment    constr
_refine_ls_matrix_type           full
_refine_ls_number_parameters     146
_refine_ls_number_reflns         1721
_refine_ls_number_restraints     1
_refine_ls_restrained_S_all      1.186
_refine_ls_R_factor_all          0.0338
_refine_ls_R_factor_gt           0.0327
_refine_ls_shift/su_max          0.002
_refine_ls_shift/su_mean         0.000
_refine_ls_structure_factor_coef Fsqd
_refine_ls_weighting_details
'w=1/[\s^2^(Fo^2^)+(0.0487P)^2^+0.1122P] where P=(Fo^2^+2Fc^2^)/3'
_refine_ls_weighting_scheme      calc
_refine_ls_wR_factor_gt          0.0921
_refine_ls_wR_factor_ref         0.0929
_reflns_Friedel_coverage         0.952
_reflns_Friedel_fraction_full    0.972
_reflns_Friedel_fraction_max     0.962
_reflns_number_gt                1668
_reflns_number_total             1721
_reflns_threshold_expression     'I > 2\s(I)'
_cod_data_source_file            jo8b00177_si_001.cif
_cod_data_source_block           170234lt_0m
_cod_depositor_comments
;
The following automatic conversions were performed:

'_chemical_absolute_configuration' value 'RM' changed to 'rm'
according to
/home/data/users/saulius/crontab/automatic-downloads/rss-feeds/ACS/lib/dictionaries/cif_core.dic
dictionary named 'cif_core.dic' version 2.4.2 from 2011-04-26.

'_exptl_crystal_density_meas' value 'not measured' was changed to '?'
- the value is perceived as not measured.

Automatic conversion script
Id: cif_fix_values 4973 2017-02-22 13:04:09Z antanas 

 Adding full bibliography for 4033500--4033507.cif.
;
_cod_original_cell_volume        480.22(8)
_cod_database_code               4033507
_shelx_space_group_comment
;
The symmetry employed for this shelxl refinement is uniquely defined
by the following loop, which should always be used as a source of
symmetry information in preference to the above space-group names.
They are only intended as comments.
;
_shelxl_version_number           2014/6
_shelx_res_file
;
TITL 170234lt_0m in P2(1)
CELL 0.71073 3.7669 22.0307 5.8049 90.000 94.543 90.000
ZERR 2.00 0.0004 0.0020 0.0006 0.000 0.003 0.000
LATT -1
SYMM -x, y+1/2, -z
SFAC C  H  N  O
UNIT 26  20  4  2
L.S. 4
ACTA
BOND $H
FMAP 2
PLAN 5
TWIN
TEMP -173.000
WGHT    0.048700    0.112200
BASF  -0.52176
FVAR       1.40580
O1    4    0.291721    0.064930    0.373761    11.00000    0.02218    0.01562 =
         0.01165    0.00139   -0.00564   -0.00087
N1    3    0.596899    0.142911    0.653965    11.00000    0.01309    0.01365 =
         0.01348   -0.00131    0.00112   -0.00061
N2    3    0.829765    0.115801    1.004702    11.00000    0.01701    0.01310 =
         0.01108    0.00041    0.00055    0.00033
C1    1    0.306162   -0.082723    0.655072    11.00000    0.01749    0.01484 =
         0.01964   -0.00191    0.00427   -0.00017
AFIX  43
H1    2    0.232648   -0.123164    0.620228    11.00000   -1.20000
AFIX   0
C2    1    0.470484   -0.069143    0.872347    11.00000    0.01784    0.01643 =
         0.01497    0.00290    0.00240    0.00293
AFIX  43
H8    2    0.506245   -0.099959    0.986303    11.00000   -1.20000
AFIX   0
C3    1    0.580600   -0.010541    0.920220    11.00000    0.01889    0.01851 =
         0.01075    0.00152    0.00058    0.00304
AFIX  43
H9    2    0.693168   -0.001341    1.068349    11.00000   -1.20000
AFIX   0
C4    1    0.530609    0.035699    0.755995    11.00000    0.01124    0.01505 =
         0.01314   -0.00088    0.00207    0.00152
C5    1    0.651060    0.097589    0.803798    11.00000    0.01181    0.01778 =
         0.00961    0.00032    0.00104    0.00227
C6    1    0.751476    0.193591    0.763963    11.00000    0.01173    0.01754 =
         0.01318   -0.00139    0.00401    0.00036
C7    1    0.772427    0.253683    0.690264    11.00000    0.01693    0.01677 =
         0.01625    0.00229    0.00161    0.00219
AFIX  43
H5    2    0.673171    0.265877    0.541918    11.00000   -1.20000
AFIX   0
C8    1    0.942681    0.294755    0.840845    11.00000    0.01857    0.01462 =
         0.02237   -0.00067    0.00635    0.00038
AFIX  43
H2    2    0.963108    0.335810    0.793606    11.00000   -1.20000
AFIX   0
C9    1    1.086449    0.277628    1.061656    11.00000    0.01521    0.01714 =
         0.01946   -0.00555    0.00050   -0.00202
AFIX  43
H3    2    1.197868    0.307460    1.161029    11.00000   -1.20000
AFIX   0
C10   1    1.069577    0.218079    1.138210    11.00000    0.01380    0.02128 =
         0.01284   -0.00251    0.00151    0.00086
AFIX  43
H10   2    1.168966    0.205992    1.286654    11.00000   -1.20000
AFIX   0
C11   1    0.897755    0.177068    0.983846    11.00000    0.01094    0.01555 =
         0.01306   -0.00064    0.00241    0.00193
C12   1    0.248905   -0.037778    0.489217    11.00000    0.01616    0.01879 =
         0.01315   -0.00121   -0.00155   -0.00060
AFIX  43
H7    2    0.137091   -0.047486    0.341365    11.00000   -1.20000
AFIX   0
C13   1    0.355222    0.021549    0.539334    11.00000    0.01323    0.01676 =
         0.01119    0.00083    0.00021    0.00264
AFIX   1
H4    2    0.901600    0.092600    1.128300    11.00000    0.05000
H6    2    0.372400    0.101700    0.436900    11.00000    0.05000
AFIX   0
HKLF 4 1 1 0 0 0 1 0 0 0 1

REM  170234lt_0m in P2(1)
REM R1 =  0.0327 for    1668 Fo > 4sig(Fo)  and  0.0338 for all    1721 data
REM    146 parameters refined using      1 restraints

END

WGHT      0.0487      0.1122

REM Highest difference peak  0.203,  deepest hole -0.221,  1-sigma level  0.053
Q1    1   0.3605  0.0307  0.6734  11.00000  0.05    0.20
Q2    1   0.9380  0.1829  0.8627  11.00000  0.05    0.17
Q3    1   0.6144  0.0643  0.7697  11.00000  0.05    0.17
Q4    1   0.9880  0.1921  1.0736  11.00000  0.05    0.17
Q5    1   0.7671  0.2208  0.7127  11.00000  0.05    0.17
;
_shelx_res_checksum              27898
_shelx_hkl_file
;
   1   0   0 323.798 7.89381   2
   1   0   0 317.180 8.04920   3
   1   0   0 307.339 7.98932   3
  -1   0   0 328.864 8.05500   3
  -1   0   0 309.158 7.85546   2
  -2   0   0 119.629 4.01342   3
  -2   0   0 120.247 3.63800   2
   2   0   0 120.657 4.00289   3
   2   0   0 116.255 3.71039   2
   3   0   0 43.4756 2.86137   3
  -3   0   0 36.0682 2.57699   3
   4   0   0 14.5981 2.31580   3
   0  -1   0 -2.4035 0.06427   3
   0  -1   0 -2.2102 0.11194   3
   0   1   0 -2.4104 0.06970   3
   0   1   0 -2.4660 0.11186   3
  -1  -1   0 2386.93 54.8391   2
  -1  -1   0 2352.57 55.0507   3
   1  -1   0 2287.83 54.9407   3
   1  -1   0 2364.62 54.9879   3
   1  -1   0 2358.46 54.8303   2
  -1   1   0 2364.39 54.8054   2
   1   1   0 2300.85 54.8609   2
  -1   1   0 2337.69 54.9660   3
   1   1   0 2332.02 54.9647   3
   1   1   0 2286.59 55.0297   3
  -2  -1   0 57.3738 2.20191   2
   2  -1   0 55.5017 2.55827   3
  -2  -1   0 58.0236 2.61336   3
   2  -1   0 53.3655 2.21079   2
   2   1   0 55.0604 2.54438   3
  -2   1   0 51.6109 2.46376   3
  -2   1   0 54.1658 2.15696   2
   2   1   0 52.5131 2.19891   2
   3  -1   0 291.273 8.73055   3
   3   1   0 299.379 8.77694   3
   4  -1   0 201.765 7.45284   3
   4   1   0 206.772 7.47734   3
   0  -2   0 1376.83 37.1123   3
   0   2   0 1791.04 37.2788   3
   1  -2   0 6274.96 143.801   3
  -1  -2   0 6203.28 144.082   3
   1  -2   0 6040.58 143.884   2
   1  -2   0 6108.51 144.065   3
   1   2   0 6141.25 144.130   2
   1   2   0 6135.37 144.019   3
  -1   2   0 6104.84 143.952   2
  -1   2   0 6299.54 144.317   3
   1   2   0 6022.46 143.762   3
   2  -2   0 140.631 4.48944   3
   2  -2   0 136.769 4.14839   2
  -2  -2   0 143.890 4.60111   3
  -2   2   0 135.469 4.06058   2
  -2   2   0 139.364 4.38866   3
   2   2   0 139.808 4.45373   3
   2   2   0 134.356 4.21089   2
   3  -2   0 38.6907 2.77004   3
   3   2   0 36.2137 2.63203   3
   4  -2   0 94.6562 4.96612   3
   4   2   0 91.0806 4.75305   3
   0  -3   0 -1.1618 0.45422   3
   0  -3   0 -1.4578 0.28011   3
   0   3   0 -1.3319 0.44954   3
   0   3   0 -2.0557 0.28696   3
  -1  -3   0 2231.00 51.4671   3
   1  -3   0 2187.38 51.3096   3
   1  -3   0 2176.54 51.0719   2
   1  -3   0 2157.17 51.2046   3
   1   3   0 2163.61 51.4451   3
   1   3   0 2121.47 51.2625   3
   1   3   0 2143.55 51.1791   2
  -1   3   0 2192.38 51.1942   3
  -1   3   0 2207.91 51.0524   2
   2  -3   0 16.2572 1.28312   2
  -2  -3   0 17.9293 1.71954   3
   2  -3   0 17.8420 1.63975   3
  -2   3   0 16.8093 1.48629   3
   2   3   0 15.6423 1.49584   3
  -2   3   0 17.0392 1.31314   2
   2   3   0 15.4899 1.41278   2
   3  -3   0 268.184 7.99795   3
  -3  -3   0 251.235 8.00907   3
   3   3   0 257.662 7.89409   3
   4  -3   0 10.1477 2.25219   3
   4   3   0 12.4313 2.27024   3
   0  -4   0 879.333 20.6136   3
   0  -4   0 833.535 20.3996   3
   0   4   0 854.733 20.4105   3
   0   4   0 872.927 20.5995   3
   1  -4   0 84.2847 2.84893   3
   1  -4   0 85.1029 2.49019   2
   1  -4   0 80.9460 2.63359   3
  -1  -4   0 85.5320 2.99962   3
   1   4   0 83.1175 2.63033   2
  -1   4   0 80.7914 2.62704   3
  -1   4   0 82.4331 2.45240   2
   1   4   0 85.3848 2.74549   3
   2  -4   0 31.6810 1.69997   2
   2  -4   0 32.6491 2.12401   3
  -2  -4   0 37.3114 2.29142   3
  -2   4   0 31.6003 1.65179   2
  -2   4   0 35.7464 1.97199   3
   2   4   0 34.2908 2.06051   3
  -3  -4   0 73.6423 3.66196   3
   3  -4   0 78.3619 3.71439   3
   3   4   0 66.8998 3.48344   3
   4  -4   0 67.9375 4.32626   3
   4   4   0 64.3854 4.25055   3
   0  -5   0 1.77085 0.49844   3
   0  -5   0 1.21538 0.76914   3
   0   5   0 0.94471 0.52327   3
   1  -5   0 232.071 6.28286   3
   1  -5   0 225.406 6.04046   3
  -1  -5   0 233.195 6.45452   3
   1  -5   0 232.776 5.89548   2
  -1   5   0 227.944 5.86734   2
   1   5   0 227.564 6.17209   3
  -1   5   0 232.427 6.02623   3
   2  -5   0 59.7484 2.73397   3
  -2  -5   0 58.9926 2.86218   3
   2  -5   0 56.5153 2.26132   2
  -2   5   0 56.4554 2.21525   2
  -2   5   0 57.5045 2.48759   3
   2   5   0 56.3264 2.60338   3
  -3  -5   0 234.745 7.58210   3
   3  -5   0 229.681 7.43243   3
   3   5   0 235.446 7.34398   3
   4  -5   0 57.2744 4.07014   3
   4   5   0 58.2901 3.86713   3
   0  -6   0 1019.12 24.8682   3
   0  -6   0 1071.14 25.1805   3
   0   6   0 1041.96 24.8685   3
   1  -6   0 75.6178 2.83181   3
   1  -6   0 71.7830 2.30691   2
   1  -6   0 73.6610 2.48475   3
  -1  -6   0 72.7497 2.94864   3
  -1   6   0 74.6179 2.48078   3
  -1   6   0 73.2804 2.29255   2
   1   6   0 69.6349 2.59977   3
   2  -6   0 213.823 5.99881   2
  -2  -6   0 223.623 6.74688   3
   2  -6   0 218.410 6.48232   3
   2   6   0 211.066 6.36530   3
  -2   6   0 223.384 5.94144   2
  -2   6   0 214.392 6.20618   3
   3  -6   0 30.2687 2.59702   3
  -3  -6   0 27.3389 2.55522   3
   3   6   0 25.9626 2.29176   3
  -3   6   0 22.6337 1.75769   2
   4  -6   0 72.2917 4.42731   3
   4   6   0 67.9971 4.18397   3
   0  -7   0 1.85808 0.94976   3
   0   7   0 2.47957 0.69366   3
   1  -7   0 1187.93 29.0707   3
  -1  -7   0 1200.21 29.3036   3
   1  -7   0 1214.27 28.6257   2
   1  -7   0 1193.63 28.7992   3
  -1   7   0 1229.10 28.5881   2
   1   7   0 1172.09 28.8970   3
  -1   7   0 1222.75 28.7647   3
   2  -7   0 351.053 9.16226   2
   2  -7   0 359.318 9.71391   3
  -2  -7   0 347.438 9.94868   3
  -2   7   0 353.172 9.37437   3
  -2   7   0 350.473 9.07557   2
   2   7   0 348.380 9.56133   3
   3  -7   0 96.6152 4.40817   3
  -3  -7   0 95.1178 4.47458   3
   3   7   0 102.416 4.25420   3
  -3   7   0 94.6674 4.24419   2
   4  -7   0 5.40229 2.03215   3
   4   7   0 3.76717 1.91669   3
   0  -8   0 503.029 12.8627   3
   0   8   0 500.787 12.4560   3
  -1  -8   0 256.032 7.47813   3
   1  -8   0 259.825 7.28650   3
   1   8   0 255.384 7.04801   3
  -1   8   0 260.115 6.70368   2
  -1   8   0 266.639 6.90982   3
   2  -8   0 266.341 7.16162   2
  -2  -8   0 268.613 8.05807   3
   2  -8   0 264.546 7.73676   3
  -2   8   0 266.546 7.07858   2
   2   8   0 260.514 7.60967   3
  -2   8   0 260.053 7.34924   3
  -3  -8   0 10.1825 1.93395   3
   3  -8   0 11.2046 1.92354   3
   3   8   0 15.3064 2.02260   3
   4  -8   0 105.401 5.58203   3
   4   8   0 113.899 5.35504   3
   0  -9   0 0.55980 1.02364   3
   0   9   0 0.43048 0.67983   3
   1  -9   0 460.952 12.0046   3
  -1  -9   0 456.960 12.2451   3
  -1   9   0 458.352 11.3683   2
  -1   9   0 460.275 11.5736   3
   1   9   0 454.975 11.7535   3
   2  -9   0 85.7927 3.66156   3
   2  -9   0 82.8587 2.99687   2
  -2  -9   0 87.8175 3.92527   3
   2   9   0 84.7768 3.47468   3
  -2   9   0 86.0846 3.19588   3
  -2   9   0 81.1549 2.92102   2
   3  -9   0 94.0087 4.39971   3
  -3  -9   0 92.4939 4.58186   3
   3   9   0 94.4988 4.21024   3
   4  -9   0 126.930 5.98259   3
   4   9   0 132.355 6.02999   3
   0 -10   0 158.128 5.18315   3
   0  10   0 156.657 4.60778   3
  -1 -10   0 671.905 17.0390   3
   1 -10   0 640.150 16.7353   3
  -1  10   0 655.689 16.0283   2
  -1  10   0 655.899 16.2455   3
   1  10   0 657.578 16.4735   3
  -2 -10   0 132.521 5.14021   3
   2 -10   0 126.314 4.78196   3
   2  10   0 135.323 4.65609   3
  -2  10   0 129.570 4.02585   2
  -2  10   0 128.424 4.31798   3
   3 -10   0 56.9048 3.57346   3
  -3 -10   0 55.6304 3.77391   3
   3  10   0 62.1220 3.51389   3
   4 -10   0 53.4569 4.23819   3
   4  10   0 53.3863 4.02657   3
   0 -11   0 0.14975 1.12314   3
   0  11   0 -0.0631 0.71466   3
  -1 -11   0 296.984 8.65998   3
   1 -11   0 290.167 8.43086   3
   1  11   0 288.227 8.06050   3
  -1  11   0 294.988 7.63408   2
  -1  11   0 289.724 7.84622   3
   2 -11   0 113.315 4.59840   3
  -2 -11   0 128.436 4.98226   3
  -2  11   0 117.334 4.06952   3
   2  11   0 112.375 4.30580   3
  -2  11   0 114.407 3.74048   2
   3 -11   0 156.982 6.03633   3
  -3 -11   0 158.725 6.41252   3
   3  11   0 155.986 5.91246   3
   4 -11   0 16.1408 2.95603   3
   4  11   0 15.8146 2.71070   3
   0 -12   0 358.542 10.1620   3
   0  12   0 362.679 9.54304   3
   1 -12   0 244.078 7.58069   3
  -1 -12   0 248.658 7.82490   3
  -1  12   0 257.975 7.01228   3
  -1  12   0 250.176 6.74585   2
   1  12   0 256.668 7.26862   3
   2 -12   0 40.6620 2.88350   3
  -2 -12   0 44.1354 3.19477   3
   2  12   0 38.3889 2.52190   3
  -2  12   0 44.7497 2.38398   3
  -2  12   0 43.9053 2.07962   2
  -3 -12   0 68.9448 4.32852   3
   3 -12   0 70.5399 4.11448   3
   3  12   0 80.3195 4.05241   3
   4 -12   0 17.2490 3.01066   3
   4  12   0 16.4631 2.88881   3
   0 -13   0 0.93552 1.21654   3
   0  13   0 1.49105 0.86395   3
  -1 -13   0 408.287 11.6194   3
   1 -13   0 397.871 11.3395   3
  -1  13   0 404.404 10.6584   3
   1  13   0 408.288 10.8849   3
  -1  13   0 407.570 10.3950   2
   2 -13   0 148.553 5.63767   3
  -2 -13   0 154.719 6.06160   3
  -2  13   0 151.528 4.71572   2
   2  13   0 158.443 5.42300   3
  -3 -13   0 95.9081 5.28121   3
   3 -13   0 113.617 5.16970   3
   3  13   0 119.902 5.02427   3
   4 -13   0 79.2006 5.25686   3
   4  13   0 92.2463 5.29345   3
   0 -14   0 174.120 6.16155   3
   0  14   0 182.324 5.51930   3
   1 -14   0 13.8739 2.00484   3
  -1 -14   0 15.6313 2.22084   3
   1  14   0 14.6266 1.60452   3
  -1  14   0 16.4023 1.39219   2
  -1  14   0 14.1839 1.50845   3
  -2 -14   0 289.780 9.46402   3
   2 -14   0 291.212 9.03495   3
   2  14   0 294.513 8.72702   3
  -2  14   0 284.636 7.95057   2
   3 -14   0 115.710 5.28559   3
  -3 -14   0 104.710 5.55725   3
   3  14   0 114.178 5.01650   3
   4 -14   0 34.0683 3.78422   3
   4  14   0 35.5367 3.75571   3
   0 -15   0 1.80035 1.45701   3
   0  15   0 1.11354 0.92400   3
  -1 -15   0 298.494 9.41334   3
   1 -15   0 294.166 9.17553   3
  -1  15   0 298.626 8.37476   3
  -1  15   0 306.231 8.08962   2
   1  15   0 295.448 8.58725   3
   2 -15   0 230.488 7.78209   3
  -2 -15   0 224.337 8.15534   3
   2  15   0 229.799 7.41009   3
  -2  15   0 231.986 6.63959   2
   3 -15   0 87.9410 4.81893   3
  -3 -15   0 92.3214 5.22866   3
   3  15   0 84.4590 4.51661   3
   0 -16   0 49.0534 3.37349   3
   0 -16   0 44.8008 3.32833   3
   0  16   0 45.9811 2.51780   3
   1 -16   0 19.4913 2.35826   3
  -1 -16   0 16.4059 2.44389   3
   1  16   0 18.8427 1.89284   3
  -1  16   0 18.4632 1.79421   3
  -1  16   0 17.6316 1.49728   2
  -2 -16   0 247.502 8.60939   3
   2 -16   0 232.684 8.07117   3
   2  16   0 234.075 7.68035   3
   3 -16   0 81.4188 4.79397   3
  -3 -16   0 75.3471 5.04967   3
   3  16   0 79.8192 4.40307   3
   0 -17   0 -0.6916 1.50506   3
   0 -17   0 1.71938 1.60315   3
   0  17   0 2.58810 1.06289   3
  -1 -17   0 35.9785 3.29786   3
   1 -17   0 35.2603 3.11574   3
  -1  17   0 34.8311 2.01603   2
  -1  17   0 31.7883 2.28331   3
   1  17   0 29.6316 2.43981   3
  -2 -17   0 331.439 10.7986   3
   2 -17   0 305.062 10.1259   3
   2  17   0 325.828 9.77163   3
  -3 -17   0 16.7455 3.13749   3
   3 -17   0 21.1360 3.03561   3
   3  17   0 22.8760 2.74833   3
   0 -18   0 48.6568 3.73984   3
   0 -18   0 46.2307 3.67643   3
   0  18   0 42.2587 2.63689   3
   1 -18   0 562.468 15.7473   3
  -1 -18   0 559.650 15.9464   3
  -1  18   0 557.765 14.6897   3
   1  18   0 547.959 14.9220   3
  -1  18   0 554.377 14.2851   2
  -2 -18   0 174.609 7.41389   3
   2 -18   0 169.136 6.90732   3
   2  18   0 175.927 6.43918   3
   3 -18   0 32.2208 3.59562   3
   3  18   0 33.1432 3.30242   3
   0 -19   0 4.13825 1.95211   3
   0 -19   0 2.01225 1.84674   3
   0  19   0 1.26543 1.16435   3
   1 -19   0 608.481 17.0004   3
  -1 -19   0 592.680 17.1824   3
  -1  19   0 609.689 15.8944   3
  -1  19   0 612.068 15.4713   2
   1  19   0 589.182 16.0113   3
   2 -19   0 277.593 9.48172   3
  -2 -19   0 270.490 9.85761   3
   2  19   0 271.473 8.81694   3
   3 -19   0 21.3651 3.20638   3
   3  19   0 26.7097 3.19836   3
   0 -20   0 27.2733 3.18656   3
   0 -20   0 26.7963 3.07305   3
   0  20   0 26.1339 2.42231   3
  -1 -20   0 107.322 5.64735   3
   1 -20   0 109.413 5.49609   3
  -1  20   0 108.699 4.53749   3
  -1  20   0 108.634 4.04668   2
   1  20   0 112.946 4.75329   3
  -2 -20   0 393.987 12.7974   3
   2 -20   0 391.030 12.3671   3
   2  20   0 382.821 11.6781   3
   3 -20   0 26.1443 3.54736   3
   3  20   0 27.5446 3.15868   3
   0 -21   0 -0.7794 1.78987   3
   0  21   0 1.95147 1.28668   3
   1 -21   0 132.407 6.26140   3
  -1 -21   0 137.137 6.46735   3
   1  21   0 131.641 5.37298   3
   2 -21   0 350.291 11.5599   3
  -2 -21   0 345.861 11.8813   3
   2  21   0 345.303 10.8614   3
   3 -21   0 39.7938 4.25935   3
   3  21   0 37.6512 3.86089   3
   0 -22   0 74.6756 4.94613   3
   0  22   0 84.2742 4.00777   3
  -1 -22   0 11.0654 2.70600   3
   1 -22   0 12.0564 2.76547   3
   1  22   0 9.00859 1.97214   3
  -2 -22   0 170.429 7.92962   3
   2 -22   0 177.327 7.72295   3
   2  22   0 181.634 6.97750   3
   0 -23   0 -0.6184 2.16268   3
   0  23   0 2.27593 1.41784   3
  -1 -23   0 58.8172 5.00932   3
   1 -23   0 70.6720 5.30068   3
   1  23   0 60.7818 3.78322   3
   2 -23   0 57.2897 4.82188   3
  -2 -23   0 45.5989 4.70330   3
   2  23   0 42.6666 3.71651   3
   0 -24   0 14.8337 3.09642   3
  -1 -24   0 68.5747 5.47161   3
  -1 -24   0 68.6856 5.37357   3
   1 -24   0 72.2404 5.39889   3
   1  24   0 71.5909 4.13928   3
  -2 -24   0 9.06444 2.95204   3
   2 -24   0 7.22140 2.81319   3
   2  24   0 6.17737 1.99613   3
   0 -25   0 -1.6061 2.39314   3
  -1 -25   0 22.0542 3.77269   3
  -1 -25   0 21.3266 3.74247   3
   1 -25   0 25.5040 3.91702   3
   1  25   0 21.2168 2.69512   3
   0 -26   0 332.301 12.0408   3
  -1 -26   0 17.9039 3.60599   3
  -1 -26   0 11.2141 3.25532   3
   1 -26   0 17.7743 3.58396   3
   0 -27   0 1.15229 2.71140   3
   4   0  -1 35.2975 3.36555   3
   3   0  -1 74.4300 3.75241   3
  -3   0   1 73.9162 3.26612   2
  -3   0   1 73.3717 3.79557   3
  -2   0   1 990.257 24.0488   2
  -2   0   1 988.139 24.4667   3
   2   0  -1 982.088 24.3234   3
   1   0  -1 8378.52 201.052   2
   1   0  -1 8620.20 201.870   3
  -1   0   1 8825.97 201.652   2
  -1   0   1 8548.65 202.257   3
  -1   0  -1 319.813 9.19037   1
   2   0   1 1091.83 25.9756   2
   2   0   1 1064.37 26.2728   3
   2   0   1 1081.92 26.1294   3
   3   0   1 521.954 13.8570   3
   4   0   1 76.7880 4.26368   3
   4  -1  -1 38.7095 3.52651   3
   4   1  -1 40.4608 3.66481   3
  -3  -1   1 12.1700 1.55597   2
   3  -1  -1 12.0030 1.81633   3
  -3  -1   1 12.0982 1.95556   3
  -3   1   1 12.2486 1.88720   3
   3   1  -1 14.3601 1.94680   3
  -3   1   1 14.6530 1.70675   2
  -2  -1   1 474.258 12.1723   3
  -2  -1   1 454.844 11.7383   2
   2  -1  -1 445.486 12.0148   3
  -2   1   1 443.935 12.0744   3
  -2   1   1 465.461 11.7565   2
   2   1  -1 452.494 11.9768   3
   1  -1  -1 9797.54 230.636   2
  -1  -1   1 9856.40 231.075   3
  -1  -1   1 9888.54 231.227   2
   1  -1  -1 9659.52 230.667   3
  -1   1   1 9999.99 231.910   3
  -1   1   1 9942.01 230.866   2
   1   1  -1 9885.68 230.785   3
   1   1  -1 9650.76 230.486   2
   0   1   1 2824.90 66.4959   3
   0   1   1 2815.59 66.2697   3
  -1  -1  -1 256.197 7.90693   1
   1   1   1 266.746 8.05375   1
  -1   1  -1 261.018 7.66157   1
   3  -1   1 69.5198 3.22588   3
   3   1   1 50.1203 2.94831   3
   4  -1   1 8.47976 2.03943   3
   4   1   1 6.54126 1.96185   3
   4  -2  -1 14.6876 2.65942   3
   4   2  -1 19.8241 2.71557   3
  -3  -2   1 97.5915 4.45610   3
  -3  -2   1 105.301 3.92208   2
   3  -2  -1 96.1839 4.34018   3
  -3   2   1 102.504 4.36126   3
  -3   2   1 95.5015 3.82526   2
   3   2  -1 98.3954 4.26265   3
   2  -2  -1 1305.04 32.1418   3
  -2  -2   1 1373.66 31.9021   2
  -2  -2   1 1294.81 32.2550   3
   2   2  -1 1317.03 32.0985   3
  -2   2   1 1318.96 31.8055   2
  -2   2   1 1319.03 32.1682   3
  -1  -2   1 7334.68 168.826   2
   1  -2  -1 7357.88 168.702   3
  -1  -2   1 7224.99 169.151   3
   1  -2  -1 6986.03 168.466   2
   1   2  -1 7255.87 169.048   3
  -1   2   1 7139.68 168.825   3
   1   2  -1 6940.81 168.338   2
  -1   2   1 7368.67 169.007   2
   0  -2  -1 1929.47 44.9957   3
   0  -2  -1 1864.73 44.8909   3
   0   2   1 1971.43 44.9360   3
   0   2   1 1904.06 45.0370   3
   1   2   1 167.663 4.57315   3
   1   2   1 162.489 4.37373   3
   2  -2   1 577.099 14.4613   3
   2  -2   1 578.133 14.4027   3
   2  -2   1 574.888 14.1824   2
   2   2   1 579.455 14.3033   2
   2   2   1 589.157 14.4439   3
   2   2   1 552.268 14.6226   3
   3  -2   1 131.298 4.83993   3
   3   2   1 134.748 4.81665   3
   4  -2   1 68.6665 4.06087   3
   4   2   1 61.5954 3.93279   3
   4  -3  -1 108.535 5.66819   3
   4   3  -1 122.247 5.59548   3
   3  -3  -1 42.7547 3.11065   3
  -3  -3   1 48.7017 3.26950   3
  -3  -3   1 51.4108 2.74684   2
   3   3  -1 47.1608 3.05278   3
  -3   3   1 50.1055 3.11244   3
  -3   3   1 51.0138 2.68647   2
  -2  -3   1 2264.28 53.9629   3
  -2  -3   1 2267.10 53.4871   2
   2  -3  -1 2247.87 53.7774   3
   2   3  -1 2214.81 53.6649   3
  -2   3   1 2264.89 53.7804   3
  -2   3   1 2235.18 53.3958   2
  -1  -3   1 530.645 12.7129   2
   1  -3  -1 508.211 12.9079   3
   1  -3  -1 514.333 12.6091   2
  -1  -3   1 516.120 12.9611   3
   1   3  -1 512.481 12.7980   3
  -1   3   1 516.877 12.8167   3
  -1   3   1 525.296 12.6317   2
   1   3  -1 502.727 12.6450   2
   0  -3  -1 433.386 10.4814   3
   0   3   1 420.651 10.5059   3
   0   3   1 423.080 10.3464   3
  -1  -3  -1 699.574 16.8715   3
   1   3   1 701.977 17.0203   3
   1   3   1 686.763 16.7577   3
   2  -3   1 577.211 14.0142   2
   2  -3   1 584.615 14.2741   3
  -2  -3  -1 569.465 14.3560   3
   2  -3   1 576.713 14.2523   3
   2   3   1 558.648 14.1795   2
   2   3   1 572.801 14.3279   3
   2   3   1 536.792 14.5310   3
   3  -3   1 31.1071 2.49432   3
   3   3   1 31.0636 2.42998   3
   4  -3   1 94.9440 4.75299   3
   4   3   1 88.1770 4.50031   3
   4  -4  -1 49.9351 3.95513   3
   4   4  -1 43.9419 3.70864   3
   3  -4  -1 22.6916 2.42395   3
  -3   4   1 22.6790 2.32622   3
  -3   4   1 23.8780 1.99606   2
   3   4  -1 26.5963 2.41870   3
  -2  -4   1 1312.02 32.0320   3
   2  -4  -1 1326.36 31.8326   3
  -2  -4   1 1288.65 31.4917   2
  -2   4   1 1320.82 31.4069   2
   2   4  -1 1265.17 31.6789   3
  -2   4   1 1308.82 31.7567   3
   1  -4  -1 630.273 15.6476   3
  -1  -4   1 642.044 15.7141   3
   1  -4  -1 632.805 15.2825   2
  -1  -4   1 634.286 15.3989   2
  -1   4   1 617.067 15.2837   2
   1   4  -1 615.906 15.4549   3
  -1   4   1 635.904 15.5018   3
   0  -4   1 103.767 2.72115   2
   0  -4   1 104.488 2.90579   3
   0  -4  -1 102.405 3.13206   3
   0  -4   1 99.8564 2.74466   3
   0   4   1 102.414 2.92337   3
   0   4   1 97.0042 3.11237   3
  -1  -4  -1 222.770 5.98961   3
   1   4   1 220.944 5.82584   3
   1   4   1 217.912 6.09762   3
   2  -4   1 31.0378 1.86803   3
   2  -4   1 26.8914 1.47819   2
  -2  -4  -1 28.2992 1.91349   3
   2  -4   1 26.1331 1.62654   3
   2   4   1 30.4592 1.84787   3
   2   4   1 22.0760 1.52334   2
   3  -4   1 47.5864 2.91073   3
   3   4   1 47.9177 2.82928   3
   4  -4   1 6.36323 1.89135   3
   4   4   1 5.69889 1.84022   3
   4  -5  -1 73.6873 4.71236   3
   4   5  -1 72.6055 4.65394   3
   3  -5  -1 317.113 9.71654   3
  -3  -5   1 325.498 9.97488   3
   3   5  -1 328.914 9.61839   3
  -3   5   1 315.912 9.05417   2
  -3   5   1 321.453 9.64747   3
  -2  -5   1 440.359 11.4871   2
   2  -5  -1 452.019 11.8854   3
  -2  -5   1 447.363 12.0526   3
  -2   5   1 445.961 11.3621   2
  -2   5   1 437.826 11.6933   3
   2   5  -1 428.575 11.6522   3
  -1  -5   1 339.154 8.95317   3
  -1  -5   1 336.019 8.56656   2
   1  -5  -1 334.237 8.87928   3
   1  -5  -1 328.045 8.43845   2
  -1   5   1 331.668 8.67041   3
   1   5  -1 329.599 8.64050   3
  -1   5   1 342.116 8.48634   2
   0  -5   1 583.865 13.8233   3
   0  -5   1 588.305 13.6536   3
   0  -5  -1 583.903 14.0285   3
   0   5   1 558.453 14.0454   3
   0   5   1 594.333 13.8272   3
   0   5  -1 497.705 13.5417   3
   0   5  -1 568.526 13.5369   2
  -1  -5  -1 109.625 3.50137   3
   1   5   1 104.009 3.54627   3
   1   5   1 102.282 3.22620   3
  -2  -5  -1 724.674 18.7632   3
   2  -5   1 738.145 18.4013   3
   2  -5   1 769.837 18.5754   3
   2  -5   1 765.566 18.2276   2
   2   5   1 743.012 18.6254   3
   2   5   1 750.281 18.4985   2
   3  -5   1 45.2030 2.90869   3
   3   5   1 47.0255 2.81264   3
   4  -5   1 11.5416 2.19507   3
   4   5   1 12.6063 2.18111   3
   4  -6  -1 19.3624 2.75472   3
   4   6  -1 14.6886 2.50232   3
  -3  -6   1 110.777 5.05008   3
   3  -6  -1 117.695 5.02183   3
   3   6  -1 116.759 4.73410   3
  -3   6   1 115.119 4.80428   3
  -3   6   1 118.477 4.34117   2
   2  -6  -1 197.343 6.17872   3
  -2  -6   1 193.443 6.41550   3
  -2   6   1 202.724 5.72141   2
  -2   6   1 192.199 5.97551   3
   2   6  -1 197.300 6.01254   3
   1  -6  -1 1.74927 1.00799   3
  -1  -6   1 1.72671 1.01426   3
   1  -6  -1 1.05719 0.63930   2
  -1   6   1 2.17718 0.69323   2
   1   6  -1 1.34369 0.75222   3
  -1   6   1 1.34479 0.77994   3
   0  -6   1 507.763 12.4404   3
   0  -6   1 502.423 12.2355   3
   0  -6  -1 514.571 12.6671   3
   0   6  -1 478.189 12.0870   2
   0   6  -1 505.527 12.1561   3
   0   6   1 506.541 12.3830   3
   1  -6   1 98.6621 2.73076   2
  -1  -6  -1 93.4944 3.40354   3
   1   6   1 94.4404 4.82457   3
   1   6   1 99.2410 3.15111   3
   2  -6   1 29.2389 1.70034   3
  -2  -6  -1 31.2679 2.10905   3
   2  -6   1 30.2713 1.52151   2
   2  -6   1 31.3133 2.02247   3
   2   6   1 31.0096 1.95658   3
   3  -6   1 78.0537 3.72248   3
   3   6   1 78.8537 3.59832   3
   4  -6   1 79.5393 4.51837   3
   4   6   1 90.3621 4.51604   3
   4  -7  -1 21.9339 3.14044   3
   4   7  -1 22.1854 3.08430   3
   3  -7  -1 126.428 5.30948   3
  -3  -7   1 130.110 5.50676   3
   3   7  -1 129.674 5.05612   3
  -3   7   1 127.690 4.61184   2
  -3   7   1 122.251 4.98517   3
   2  -7  -1 91.9893 3.85878   3
  -2  -7   1 92.4282 4.04177   3
   2   7  -1 92.6221 3.62404   3
  -2   7   1 98.9093 3.67984   3
  -2   7   1 94.7595 3.35383   2
  -1  -7   1 195.604 5.85594   3
   1  -7  -1 193.035 5.78824   3
   1   7  -1 188.960 5.43204   3
  -1   7   1 187.266 5.22846   2
  -1   7   1 192.986 5.46777   3
   0  -7  -1 449.907 11.3427   3
   0  -7   1 417.939 10.8462   3
   0  -7   1 443.605 11.1391   3
   0   7   1 441.838 11.0133   3
   0   7  -1 444.552 10.7875   3
   1  -7   1 6.33760 0.98840   3
  -1  -7  -1 6.84082 1.21844   3
   1  -7   1 5.29888 0.63986   2
   1  -7   1 5.94875 0.74458   3
   1   7   1 6.53669 0.95245   3
   2  -7   1 158.046 4.95203   3
   2  -7   1 158.897 4.68497   3
  -2  -7  -1 150.955 5.17527   3
   2  -7   1 154.637 4.43772   2
   2   7   1 154.692 4.95136   3
   3  -7   1 141.860 5.19962   3
   3   7   1 148.020 5.29606   3
   4  -7   1 222.176 7.91258   3
   4   7   1 221.015 8.03516   3
   4  -8  -1 20.1569 3.11723   3
   4   8  -1 26.5038 3.09216   3
   3  -8  -1 36.6521 3.14950   3
  -3  -8   1 42.0112 3.51629   3
   3   8  -1 36.1253 2.84015   3
  -3   8   1 38.8533 2.60432   2
  -3   8   1 40.9523 2.90652   3
   2  -8  -1 447.017 12.4325   3
  -2  -8   1 456.703 12.7033   3
  -2   8   1 465.334 12.2190   3
   2   8  -1 458.811 12.1896   3
  -2   8   1 463.394 11.8170   2
  -1  -8   1 69.5465 3.07326   3
   1  -8  -1 71.2879 3.06183   3
   1   8  -1 69.7631 2.66154   3
  -1   8   1 68.7621 2.67715   3
  -1   8   1 70.0654 2.49318   2
   0  -8   1 65.7723 2.33461   3
   0  -8  -1 72.8003 2.90318   3
   0  -8   1 67.1307 2.70807   3
   0   8   1 68.1875 2.49685   3
   0   8  -1 65.8818 2.26962   3
  -1  -8  -1 733.868 18.7150   3
   1  -8   1 745.002 18.0325   3
   1  -8   1 748.754 18.3387   3
   1   8   1 752.065 18.3592   3
   2  -8   1 45.0728 2.12837   3
   2  -8   1 46.2365 2.55554   3
  -2  -8  -1 46.9001 2.74370   3
   2  -8   1 48.7315 1.98331   2
   2   8   1 48.8331 2.49286   3
   3  -8   1 162.827 5.83272   3
   3   8   1 170.673 5.84687   3
   4  -8   1 216.212 7.88595   3
   4   8   1 216.135 7.75586   3
   4  -9  -1 24.1685 3.28217   3
   4   9  -1 26.9605 3.18080   3
   3  -9  -1 2.64511 1.70302   3
  -3  -9   1 4.99017 1.84880   3
  -3   9   1 3.25939 1.31954   2
  -3   9   1 5.00220 1.48039   3
   3   9  -1 5.10295 1.61098   3
  -2  -9   1 56.4215 3.27257   3
   2  -9  -1 53.4892 3.07893   3
   2   9  -1 50.6348 2.74129   3
  -2   9   1 59.9218 2.79753   3
  -2   9   1 51.9640 2.45459   2
  -1  -9   1 109.723 4.11312   3
   1  -9  -1 112.245 4.08817   3
  -1   9   1 106.830 3.63880   3
   1   9  -1 109.531 3.63659   3
  -1   9   1 108.161 3.42247   2
   0  -9  -1 699.820 17.2388   3
   0  -9   1 693.867 17.0780   3
   0  -9   1 643.637 16.6565   3
   0   9  -1 681.918 16.5805   3
   0   9   1 684.010 16.8359   3
  -1  -9  -1 1083.03 26.3857   3
   1  -9   1 1072.82 25.9727   3
   1  -9   1 1046.52 25.6208   3
   1   9   1 1066.96 25.9597   3
   2  -9   1 248.680 6.68224   2
   2  -9   1 256.721 7.27431   3
  -2  -9  -1 241.750 7.60250   3
   2  -9   1 240.559 6.88474   3
   2   9   1 251.360 7.25859   3
   3  -9   1 182.653 6.31352   3
   3   9   1 187.142 6.36875   3
   4  -9   1 182.592 7.06501   3
   4   9   1 167.757 6.78699   3
   4 -10  -1 74.5685 5.05789   3
   4  10  -1 69.8980 4.58651   3
  -3 -10   1 20.6515 2.75317   3
   3 -10  -1 19.5790 2.57880   3
  -3  10   1 21.2747 2.33933   3
  -3  10   1 22.0619 2.09879   2
   3  10  -1 20.4047 2.46432   3
  -2 -10   1 15.9896 2.14814   3
   2 -10  -1 14.4300 1.92822   3
  -2  10   1 15.7853 1.51027   2
  -2  10   1 16.0757 1.73998   3
   2  10  -1 15.9349 1.74952   3
   1 -10  -1 278.037 8.02691   3
  -1 -10   1 275.138 8.08039   3
   1  10  -1 266.838 7.49395   3
  -1  10   1 276.036 7.54835   3
  -1  10   1 271.928 7.29108   2
   0 -10  -1 1639.39 39.6593   3
   0 -10   1 1671.49 39.5479   3
   0  10  -1 1613.97 38.9514   3
   0  10   1 1632.87 39.2290   3
  -1 -10  -1 263.784 7.74428   3
   1 -10   1 249.012 6.94769   3
   1 -10   1 265.089 7.38834   3
   1  10   1 264.918 7.27311   3
  -2 -10  -1 305.447 8.79687   3
   2 -10   1 283.198 8.21625   3
   2 -10   1 277.368 7.58635   2
   2 -10   1 281.416 7.85763   3
   2  10   1 285.738 8.21236   3
   3 -10   1 176.024 6.22853   3
   3  10   1 175.352 6.25757   3
   4 -10   1 240.629 8.59812   3
   4  10   1 242.739 8.49940   3
   4 -11  -1 45.2994 4.33618   3
   4  11  -1 38.5961 3.77446   3
  -3 -11   1 24.4995 3.01957   3
   3 -11  -1 23.4078 2.81387   3
  -3  11   1 27.0572 2.63831   2
   3  11  -1 28.1625 2.66604   3
  -2 -11   1 47.2402 3.26174   3
   2 -11  -1 41.3242 2.95360   3
  -2  11   1 39.1957 2.48726   3
  -2  11   1 44.4892 2.25830   2
   2  11  -1 39.3234 2.56545   3
  -1 -11   1 223.249 6.95297   3
   1 -11  -1 220.937 6.89094   3
   1  11  -1 214.154 6.33481   3
  -1  11   1 217.040 6.09193   2
  -1  11   1 220.945 6.36858   3
   0 -11  -1 514.233 13.8192   3
   0 -11   1 540.253 13.7582   3
   0  11   1 523.092 13.3621   3
   0  11  -1 516.598 13.0900   3
  -1 -11  -1 115.738 4.53148   3
   1 -11   1 119.711 3.80779   3
   1 -11   1 125.189 4.29772   3
   1  11   1 120.101 4.09084   3
   2 -11   1 327.078 9.20986   3
   2 -11   1 336.722 9.57680   3
  -2 -11  -1 348.602 10.0845   3
   2 -11   1 336.796 8.89063   2
   2  11   1 343.944 9.53385   3
   3 -11   1 290.170 8.90331   3
   3  11   1 280.782 8.84286   3
   4 -11   1 11.5999 2.63025   3
   4  11   1 9.73730 2.42142   3
   4 -12  -1 28.1027 3.56069   3
   4  12  -1 19.8029 3.05482   3
  -3 -12   1 200.895 7.90928   3
   3 -12  -1 211.372 7.53579   3
   3  12  -1 203.671 7.23368   3
  -2 -12   1 5.89984 1.79132   3
   2 -12  -1 9.06258 1.80216   3
  -2  12   1 5.53777 1.32547   3
   2  12  -1 4.09675 1.30405   3
  -2  12   1 4.38347 1.04676   2
   1 -12  -1 283.721 8.47936   3
  -1 -12   1 281.620 8.53464   3
   1  12  -1 280.519 7.85946   3
  -1  12   1 280.785 7.58604   2
  -1  12   1 276.600 7.86954   3
   0 -12   1 403.293 10.8609   3
   0 -12  -1 391.135 10.9373   3
   0  12  -1 386.365 10.1213   3
   0  12   1 386.233 10.3790   3
  -1 -12  -1 118.606 4.58978   3
   1 -12   1 115.927 4.29062   3
   1  12   1 112.895 4.00785   3
  -1  12  -1 114.192 3.34859   2
  -2 -12  -1 98.8227 4.39247   3
   2 -12   1 97.2313 4.12018   3
   2 -12   1 93.8960 3.30779   2
   2  12   1 92.2531 3.87500   3
   3 -12   1 29.6272 2.81354   3
   3  12   1 31.6727 2.78588   3
   4 -12   1 13.6059 2.78328   3
   4  12   1 12.1427 2.51548   3
   4 -13  -1 152.883 7.24804   3
   4  13  -1 148.420 6.70705   3
   3 -13  -1 95.9801 5.02351   3
  -3 -13   1 93.3649 5.34972   3
   3  13  -1 95.5552 4.62917   3
   2 -13  -1 251.086 8.14830   3
  -2 -13   1 242.632 8.40683   3
  -2  13   1 254.862 7.22550   2
  -2  13   1 247.015 7.57610   3
   2  13  -1 250.408 7.69580   3
   1 -13  -1 39.1849 2.92941   3
  -1 -13   1 40.4327 2.92555   3
  -1  13   1 39.6475 2.29907   3
   1  13  -1 39.3141 2.25379   3
  -1  13   1 36.0102 1.99358   2
   0 -13  -1 238.299 7.41133   3
   0 -13   1 232.281 7.29899   3
   0  13  -1 234.581 6.55513   3
   0  13   1 227.568 6.77804   3
   1 -13   1 62.0549 3.18584   3
  -1 -13  -1 66.5314 3.46557   3
  -1  13  -1 62.4237 2.21857   2
   1  13   1 62.6352 2.88597   3
  -1  13  -1 63.4759 2.44432   3
   2 -13   1 4.21270 1.63339   3
  -2 -13  -1 8.63508 1.87418   3
   2  13   1 7.62711 1.57645   3
   3 -13   1 123.410 5.20428   3
   3  13   1 109.514 4.87842   3
   4 -13   1 44.0665 4.00284   3
   4  13   1 38.3899 3.73419   3
   4 -14  -1 189.150 8.17626   3
   4  14  -1 186.324 7.63142   3
   3 -14  -1 128.795 6.01498   3
  -3 -14   1 127.342 6.31094   3
   3  14  -1 133.114 5.59904   3
   2 -14  -1 80.8143 4.38344   3
  -2 -14   1 84.7843 4.66016   3
  -2  14   1 91.4105 3.49267   2
  -2  14   1 88.9376 3.81428   3
   2  14  -1 88.2631 3.97990   3
   1 -14  -1 8.78865 1.91370   3
  -1 -14   1 11.9473 2.00118   3
   1  14  -1 9.27155 1.36437   3
  -1  14   1 10.6477 1.29794   2
  -1  14   1 11.9177 1.51358   3
   0 -14  -1 43.2553 3.06701   3
   0 -14   1 47.2699 3.04155   3
   0  14  -1 45.5529 2.26325   3
   0  14   1 45.1145 2.42384   3
  -1 -14  -1 42.6442 3.03551   3
   1 -14   1 36.6923 2.78025   3
   1  14   1 39.3259 2.42865   3
  -1  14  -1 39.9381 1.96618   3
  -1  14  -1 39.1819 1.74465   2
   2 -14   1 11.7121 2.00416   3
  -2 -14  -1 9.02225 1.96729   3
   2  14   1 9.47425 1.67768   3
   3 -14   1 51.6902 3.75877   3
   3  14   1 57.6600 3.59997   3
   3 -15  -1 144.212 6.38803   3
  -3 -15   1 135.590 6.76839   3
   3  15  -1 143.858 5.94438   3
   2 -15  -1 169.501 6.52503   3
  -2 -15   1 171.032 6.80138   3
  -2  15   1 161.673 5.73705   3
   2  15  -1 162.480 5.86387   3
  -2  15   1 165.552 5.35914   2
  -1 -15   1 68.2635 3.82211   3
   1 -15  -1 58.7952 3.70423   3
   1  15  -1 63.4713 2.96944   3
  -1  15   1 64.9331 2.76554   2
  -1  15   1 63.2207 3.01885   3
   0 -15  -1 158.465 6.01552   3
   0 -15   1 168.212 5.99912   3
   0  15  -1 167.831 5.14106   3
   0  15   1 162.832 5.36293   3
   1 -15   1 227.055 7.25120   3
  -1 -15  -1 218.330 7.48176   3
   1  15   1 215.819 6.82435   3
  -1  15  -1 220.007 6.00787   2
  -2 -15  -1 41.7660 3.45312   3
   2 -15   1 44.1098 3.26451   3
   2  15   1 39.8790 2.88769   3
   3 -15   1 155.861 6.34412   3
   3  15   1 161.790 6.26565   3
   3 -16  -1 330.763 10.9843   3
  -3 -16   1 308.959 11.3461   3
   3  16  -1 344.536 10.5558   3
   2 -16  -1 19.5582 2.68307   3
  -2 -16   1 18.5021 2.76329   3
   2  16  -1 18.4118 2.17993   3
  -2  16   1 19.7287 2.09478   3
  -2  16   1 23.0094 1.97791   2
  -1 -16   1 95.0194 4.86582   3
   1 -16  -1 117.281 5.10429   3
   1  16  -1 114.430 4.20567   3
  -1  16   1 106.462 4.16956   3
  -1  16   1 110.167 3.89852   2
   0 -16   1 680.870 18.6236   3
   0 -16  -1 712.542 18.8475   3
   0  16   1 705.708 18.0387   3
   0  16  -1 707.728 17.7411   3
   1 -16   1 235.257 7.69576   3
  -1 -16  -1 232.048 7.97063   3
  -1 -16  -1 242.388 8.04603   3
  -1  16  -1 228.837 6.39357   2
   1  16   1 231.434 7.24654   3
   2 -16   1 8.66640 2.15947   3
  -2 -16  -1 11.4089 2.26960   3
   2  16   1 8.38020 1.85601   3
   3 -16   1 131.735 5.89512   3
   3  16   1 136.192 5.71129   3
   3 -17  -1 105.470 5.71940   3
  -3 -17   1 95.3810 5.97332   3
   3  17  -1 104.368 5.21049   3
   2 -17  -1 85.4969 4.77659   3
  -2 -17   1 86.8540 5.13252   3
  -2  17   1 85.8959 4.04507   3
   2  17  -1 93.6045 4.31572   3
  -2  17   1 82.4884 3.58096   2
   1 -17  -1 76.7343 4.36366   3
  -1 -17   1 78.4221 4.51397   3
  -1  17   1 77.8225 3.20081   2
   1  17  -1 77.1225 3.49738   3
  -1  17   1 72.2235 3.47386   3
   0 -17   1 157.804 6.06004   3
   0 -17  -1 152.914 6.13036   3
   0  17  -1 153.647 5.07663   3
   0  17   1 152.940 5.36191   3
   1 -17   1 748.784 19.6420   3
  -1 -17  -1 737.665 19.9322   3
  -1 -17  -1 731.709 19.9632   3
  -1  17  -1 738.488 18.2123   2
   1  17   1 727.326 19.1037   3
  -2 -17  -1 257.043 8.94689   3
   2 -17   1 255.573 8.59486   3
   2  17   1 256.686 8.25910   3
   3 -17   1 14.4778 2.70803   3
   3  17   1 17.7894 2.52730   3
  -3 -18   1 53.5571 4.94671   3
   3 -18  -1 63.3957 4.94339   3
   3  18  -1 64.4187 4.21055   3
   2 -18  -1 85.6664 4.88068   3
  -2 -18   1 87.6521 5.31425   3
  -2  18   1 86.5697 4.18840   3
   2  18  -1 83.0380 4.29018   3
  -2  18   1 81.1225 3.61299   2
  -1 -18   1 111.572 5.43601   3
   1 -18  -1 104.238 5.25104   3
  -1  18   1 107.351 4.05208   2
   1  18  -1 113.632 4.43522   3
  -1  18   1 114.170 4.45504   3
   0 -18  -1 539.629 15.3095   3
   0 -18   1 521.760 15.1941   3
   0  18   1 535.790 14.4531   3
   0  18  -1 549.556 14.1561   3
  -1 -18  -1 190.569 7.43450   3
  -1 -18  -1 201.863 7.46807   3
   1 -18   1 198.631 7.17600   3
   1  18   1 195.469 6.53242   3
  -2 -18  -1 8.12383 2.21807   3
   2 -18   1 6.83123 2.24859   3
   2  18   1 14.4187 2.13453   3
   3 -18   1 12.3651 2.60947   3
   3  18   1 9.54517 2.35194   3
  -3 -19   1 72.7851 5.77143   3
   3 -19  -1 70.6810 5.30707   3
   3  19  -1 73.3366 4.66677   3
   2 -19  -1 7.91972 2.28514   3
  -2 -19   1 1.85252 2.23613   3
   2  19  -1 4.09093 1.61029   3
   1 -19  -1 36.9663 3.60969   3
  -1 -19   1 42.4754 3.81836   3
  -1  19   1 37.6800 2.77049   3
   1  19  -1 39.7372 2.76714   3
  -1  19   1 46.9703 2.58708   2
   0 -19  -1 994.601 26.1894   3
   0 -19   1 996.093 26.1571   3
   0  19  -1 993.864 24.9568   3
   0  19   1 1003.31 25.3149   3
  -1 -19  -1 411.749 12.7121   3
  -1 -19  -1 413.250 12.7053   3
   1 -19   1 401.236 12.3771   3
   1  19   1 425.483 11.9387   3
   2 -19   1 27.6811 3.22442   3
  -2 -19  -1 31.1666 3.37050   3
   2  19   1 34.5942 3.08229   3
   3 -19   1 51.3227 4.30530   3
   3  19   1 54.7783 4.26623   3
  -3 -20   1 122.062 7.19851   3
   3 -20  -1 119.740 6.68548   3
   3  20  -1 128.715 6.17872   3
   2 -20  -1 212.360 8.38306   3
  -2 -20   1 223.877 8.89051   3
   2  20  -1 216.606 7.56271   3
  -1 -20   1 17.5077 2.92438   3
   1 -20  -1 17.1077 2.79492   3
  -1  20   1 19.3182 1.91000   2
   1  20  -1 16.3092 2.03211   3
  -1  20   1 17.5756 2.12432   3
   0 -20   1 197.101 7.51283   3
   0 -20  -1 185.150 7.44610   3
   0  20   1 198.163 6.69119   3
   0  20  -1 193.175 6.32349   3
  -1 -20  -1 404.991 12.6499   3
  -1 -20  -1 397.275 12.6240   3
   1 -20   1 399.319 12.3816   3
   1  20   1 411.249 11.8029   3
  -2 -20  -1 8.13298 2.41392   3
   2 -20   1 14.1627 2.69808   3
   2  20   1 13.7771 2.31463   3
   3 -20   1 91.9398 5.62187   3
   3  20   1 98.6598 5.32022   3
   3 -21  -1 140.910 7.25003   3
  -3 -21   1 129.416 7.47613   3
   3  21  -1 138.063 6.59340   3
   2 -21  -1 61.4031 4.86921   3
  -2 -21   1 56.8559 4.96782   3
   2  21  -1 55.6893 3.71520   3
  -1 -21   1 38.9358 3.95649   3
   1 -21  -1 37.4941 3.84616   3
  -1  21   1 32.6337 2.48435   2
  -1  21   1 31.7848 2.76036   3
   1  21  -1 32.2010 2.78849   3
   0 -21   1 122.758 5.91874   3
   0 -21  -1 118.879 5.96938   3
   0  21   1 120.820 5.01740   3
  -1 -21  -1 319.164 10.9143   3
   1 -21   1 330.939 10.8031   3
   1  21   1 329.516 10.0974   3
   2 -21   1 29.7211 3.53137   3
  -2 -21  -1 24.1306 3.30360   3
   2  21   1 23.1038 2.75736   3
   2 -22  -1 40.6383 4.28168   3
  -2 -22   1 28.0489 4.09640   3
   2  22  -1 33.6522 3.20883   3
  -1 -22   1 25.5079 3.49120   3
   1 -22  -1 26.7498 3.63595   3
  -1  22   1 24.7300 2.23656   2
  -1  22   1 23.7255 2.51145   3
   1  22  -1 23.7427 2.52433   3
   0 -22  -1 151.316 6.90615   3
   0 -22   1 158.332 6.97434   3
   0  22   1 149.830 5.81605   3
  -1 -22  -1 15.3733 2.91750   3
   1 -22   1 17.6894 2.94327   3
   1  22   1 15.7515 2.31462   3
  -2 -22  -1 23.8988 3.45896   3
   2 -22   1 27.9983 3.58536   3
  -2 -22  -1 29.0374 3.67432   3
   2  22   1 21.9110 2.85597   3
  -2 -23   1 62.9899 5.48808   3
   2 -23  -1 59.4125 5.11641   3
   2  23  -1 52.7770 3.81828   3
   1 -23  -1 20.2624 3.50586   3
  -1 -23   1 19.4956 3.43466   3
   0 -23   1 0.36881 2.21118   3
   0 -23   1 2.15393 2.21212   3
   0 -23  -1 5.80986 2.45428   3
   0  23   1 1.77948 1.58449   3
  -1 -23  -1 40.6604 4.11560   3
   1 -23   1 48.5479 4.37858   3
   1  23   1 41.1667 3.40489   3
   2 -23   1 21.5482 3.53991   3
   2  23   1 20.0709 2.80720   3
   2 -24  -1 115.026 6.76536   3
  -2 -24   1 103.071 6.84997   3
   1 -24  -1 51.2674 4.71673   3
  -1 -24   1 62.0388 5.10676   3
   0 -24  -1 9.32341 2.81653   3
   0 -24   1 10.0260 2.88191   3
   0 -24   1 6.46572 2.47936   3
   0  24   1 6.27605 1.83041   3
   1 -24   1 19.2299 3.25731   3
  -1 -24  -1 19.1279 3.27129   3
   1  24   1 16.1334 2.49951   3
   2 -24   1 23.3021 3.58225   3
   2  24   1 20.0321 2.77040   3
  -1 -25   1 68.9453 5.68817   3
   1 -25  -1 76.3711 5.74515   3
   0 -25   1 -0.2651 2.33512   3
   0 -25  -1 5.71770 2.77326   3
   0 -25   1 1.31896 2.47943   3
   0  25   1 -2.5448 1.43548   3
   1 -25   1 1.00698 2.41968   3
  -1 -25  -1 2.13506 2.37437   3
   1  25   1 1.60160 1.70010   3
   1 -26  -1 171.038 8.27033   3
  -1 -26   1 158.714 8.10118   3
   0 -26  -1 22.9642 3.73332   3
   0 -26   1 26.3911 3.77733   3
   1 -26   1 1.17933 2.63437   3
  -1 -26  -1 1.19416 2.42292   3
   1  26   1 0.69465 1.78199   3
   0 -27  -1 75.1740 6.19697   3
   0 -27   1 80.2064 5.99605   3
   4   0  -2 6.64809 2.31291   3
  -3   0   2 85.2183 3.98221   2
   3   0  -2 90.3553 4.39742   3
  -3   0   2 94.0005 4.52553   3
   2   0  -2 115.057 4.35612   3
  -2   0   2 115.984 4.47968   3
  -2   0   2 118.805 4.10065   2
  -1   0   2 366.497 9.43072   3
   1   0  -2 357.605 9.35325   3
  -1   0   2 358.314 9.15718   2
   1   0   2 242.658 7.78095   1
  -1   0  -2 247.064 7.77509   1
  -2   0  -2 153.342 6.50945   1
   3   0   2 284.846 8.22265   3
   4   0   2 427.218 12.4264   3
   4  -1  -2 38.5736 3.70185   3
   4   1  -2 40.3239 3.85755   3
  -3  -1   2 89.9853 4.04249   2
  -3  -1   2 84.1888 4.49757   3
   3  -1  -2 96.4162 4.52846   3
  -3   1   2 87.9804 3.96862   2
   3   1  -2 90.9833 4.41898   3
  -3   1   2 97.2615 4.67661   3
   2  -1  -2 699.776 18.3939   3
  -2  -1   2 739.247 18.1605   2
  -2  -1   2 745.847 18.6108   3
   2   1  -2 724.874 18.3481   3
  -2   1   2 702.586 18.5121   3
  -2   1   2 725.609 18.1220   2
  -1  -1   2 184.908 5.18008   2
   1  -1  -2 183.998 5.41041   3
  -1  -1   2 186.691 5.42518   3
  -1   1   2 198.616 5.22143   2
  -1   1   2 191.314 5.41556   3
   1   1  -2 186.396 5.33333   3
   0   1   2 465.335 11.2538   3
  -1  -1  -2 594.347 16.0836   1
   1  -1   2 581.411 15.7336   1
  -1   1  -2 597.174 15.6732   1
   1   1   2 582.232 16.0949   1
  -2  -1  -2 319.089 10.8910   1
  -2   1  -2 323.960 10.6456   1
   3  -1   2 97.8315 3.82350   3
   3   1   2 88.9031 3.74676   3
   4  -1   2 33.9430 2.92989   3
   4   1   2 21.4495 2.54870   3
   4  -2  -2 79.9854 4.92688   3
  -4  -2   2 74.0443 6.25829   3
   4   2  -2 77.0616 4.91782   3
   3  -2  -2 27.6476 2.62433   3
  -3   2   2 29.6680 2.42823   2
  -3   2   2 28.0829 2.72914   3
  -2  -2   2 1536.90 37.0039   3
   2  -2  -2 1509.25 36.8164   3
  -2  -2   2 1509.64 36.5080   2
  -2   2   2 1499.94 36.4468   2
  -2   2   2 1508.57 36.8653   3
   2   2  -2 1511.40 36.6999   3
  -1  -2   2 54.1631 2.13959   2
   1  -2  -2 52.9014 2.40408   3
  -1  -2   2 52.5271 2.36279   3
  -1   2   2 53.5922 2.12022   2
   1   2  -2 53.6562 2.24494   3
  -1   2   2 56.1496 2.36561   3
   0   2   2 455.225 11.1378   3
   0   2   2 459.568 11.2911   3
  -1  -2  -2 1591.38 39.0964   1
   1  -2   2 1538.56 38.2118   1
  -1   2  -2 1583.69 38.2002   1
   1   2   2 1545.06 39.1096   1
   2   2   2 39.7996 1.94083   3
   2   2   2 38.8743 2.00826   3
   3  -2   2 121.627 4.48853   3
   3   2   2 126.289 4.52056   3
   4  -2   2 191.030 6.92536   3
   4   2   2 194.588 7.01891   3
   4  -3  -2 28.2263 3.32971   3
  -4  -3   2 26.4766 3.42205   3
  -4  -3   2 21.8164 3.09606   2
   4   3  -2 27.4658 3.23817   3
  -3  -3   2 492.520 14.0023   3
   3  -3  -2 475.054 13.6059   3
  -3  -3   2 485.331 13.2105   2
   3   3  -2 495.711 13.5696   3
  -3   3   2 465.433 13.6396   3
  -3   3   2 480.983 13.1553   2
  -2  -3   2 2322.72 55.2795   2
  -2  -3   2 2324.93 55.7929   3
   2  -3  -2 2323.76 55.5974   3
  -2   3   2 2344.13 55.6053   3
   2   3  -2 2282.22 55.4277   3
  -2   3   2 2312.65 55.1861   2
  -1  -3   2 33.9141 1.73191   2
  -1  -3   2 40.2252 2.02351   3
   1  -3  -2 33.3576 2.01789   3
  -1   3   2 35.2459 1.95404   3
   1   3  -2 36.7738 1.83860   3
  -1   3   2 34.4018 1.67735   2
   0  -3  -2 1450.78 33.9076   3
   0   3   2 1402.82 34.0736   3
   0   3   2 1442.08 33.9066   3
   1  -3   2 794.080 19.7599   1
  -1  -3  -2 779.637 20.8733   1
   1   3   2 756.094 20.9070   1
   2   3   2 8.79881 1.22002   3
   2   3   2 11.3229 1.20001   3
   3  -3   2 32.4455 2.46074   3
   3   3   2 35.8647 2.39354   3
   4  -3   2 18.1856 2.55740   3
   4   3   2 16.6369 2.33054   3
   4  -4  -2 78.8443 5.23464   3
  -4  -4   2 79.7910 5.18427   3
   4   4  -2 87.8595 5.02677   3
   3  -4  -2 1348.89 33.5956   3
  -3  -4   2 1363.79 33.0893   2
  -3  -4   2 1338.74 33.9509   3
   3   4  -2 1366.68 33.4374   3
  -3   4   2 1313.35 32.9709   2
  -3   4   2 1284.32 33.5326   3
  -2  -4   2 85.5161 3.77284   3
  -2  -4   2 83.3082 3.31078   2
   2   4  -2 85.7759 3.49361   3
  -1  -4   2 196.307 5.78883   3
  -1  -4   2 197.483 5.50754   2
   1  -4  -2 197.091 5.79590   3
   1   4  -2 195.769 5.53581   3
  -1   4   2 198.257 5.44604   2
  -1   4   2 202.002 5.70130   3
   0  -4  -2 69.5400 2.50257   3
   0   4   2 75.5416 2.66088   3
   0   4   2 74.4376 2.40677   3
   1   4   2 403.341 10.4941   3
   1   4   2 414.299 10.1934   3
   2   4   2 117.203 3.78859   3
   2   4   2 114.128 4.04268   3
   3  -4   2 56.9727 3.00005   3
   3   4   2 58.5518 2.97892   3
   4  -4   2 55.9629 3.78530   3
   4   4   2 54.1855 3.65768   3
  -4  -5   2 64.4309 4.85005   3
   4  -5  -2 57.4131 4.74824   3
   4   5  -2 67.9813 4.64193   3
  -3  -5   2 678.251 18.8221   3
  -3  -5   2 679.416 17.9845   2
   3  -5  -2 699.702 18.6344   3
   3   5  -2 701.741 18.3404   3
  -3   5   2 678.940 18.5169   3
  -3   5   2 696.294 17.9190   2
  -2  -5   2 102.685 4.13662   3
   2  -5  -2 90.5303 3.94107   3
  -2  -5   2 91.5301 3.56167   2
   2   5  -2 93.3316 3.68674   3
  -2   5   2 91.4163 3.50093   2
  -2   5   2 98.8984 3.88930   3
  -1  -5   2 22.0513 1.73096   3
   1  -5  -2 20.5241 1.71814   3
  -1  -5   2 22.2691 1.48999   2
  -1   5   2 21.8290 1.46885   2
  -1   5   2 18.6965 1.51664   3
   1   5  -2 20.0406 1.47368   3
   0  -5  -2 71.1076 2.62004   3
   0   5   2 70.7128 2.69700   3
   0   5   2 71.7843 2.43124   3
   1   5   2 692.298 16.5705   3
   1   5   2 663.433 16.9082   3
   2   5   2 209.937 5.95126   3
   2   5   2 201.776 6.29153   3
   3  -5   2 83.4331 3.62099   3
   3   5   2 86.8439 3.72176   3
   4  -5   2 24.7243 2.82749   3
   4   5   2 27.8925 2.86765   3
  -4  -6   2 286.878 10.4992   3
   4  -6  -2 293.235 10.4781   3
   4   6  -2 289.676 9.99422   3
  -3  -6   2 242.680 8.47862   3
   3  -6  -2 258.437 8.30653   3
  -3  -6   2 245.231 7.72198   2
   3   6  -2 231.516 7.85472   3
  -3   6   2 249.824 7.62079   2
  -3   6   2 239.657 8.10762   3
  -2  -6   2 39.1626 2.30947   2
  -2  -6   2 37.3016 2.74957   3
   2  -6  -2 43.1951 2.75821   3
  -2   6   2 39.7581 2.21965   2
   2   6  -2 39.0919 2.40138   3
  -2   6   2 35.9054 2.50865   3
  -1  -6   2 19.8657 1.45879   2
   1  -6  -2 22.6331 1.82554   3
  -1  -6   2 20.6526 1.77116   3
   1   6  -2 19.8779 1.48098   3
  -1   6   2 21.3635 1.45416   2
  -1   6   2 19.7274 1.60186   3
   0  -6   2 909.769 21.5149   2
   0  -6  -2 903.463 22.0142   3
   0   6   2 892.492 21.8391   3
  -1  -6  -2 133.980 4.06652   3
   1   6   2 134.913 4.43506   3
   1   6   2 134.957 4.05135   3
   2   6   2 105.652 3.58480   3
   2   6   2 88.6540 4.35252   3
   3  -6   2 141.258 5.01426   3
   3   6   2 141.976 5.07651   3
   4  -6   2 13.0826 2.38155   3
   4   6   2 15.2377 2.37510   3
   4  -7  -2 43.7702 4.29891   3
  -4  -7   2 31.8285 3.81579   3
   4   7  -2 40.6952 3.67917   3
   3  -7  -2 85.7690 4.61407   3
  -3  -7   2 92.7350 4.83417   3
  -3  -7   2 85.7392 4.04892   2
  -3   7   2 87.7501 4.35556   3
   3   7  -2 87.9874 4.21022   3
  -3   7   2 84.8266 3.95525   2
  -2  -7   2 76.4622 3.81203   3
  -2  -7   2 81.1875 3.30554   2
   2  -7  -2 82.9420 3.81474   3
   2   7  -2 79.3989 3.40550   3
  -2   7   2 80.4433 3.21565   2
  -2   7   2 83.5209 3.53192   3
  -1  -7   2 543.987 14.0099   3
   1  -7  -2 534.507 13.9535   3
  -1  -7   2 542.043 13.5523   2
  -1   7   2 539.834 13.7227   3
   1   7  -2 539.533 13.5342   3
  -1   7   2 531.349 13.4489   2
   0  -7   2 368.821 9.33852   3
   0  -7   2 352.413 9.08555   3
   0  -7  -2 365.951 9.62047   3
   0  -7   2 357.068 9.04201   2
   0   7   2 366.373 9.41707   3
  -1  -7  -2 725.329 17.8435   3
   1   7   2 701.487 18.1795   3
   1   7   2 729.725 17.7414   3
   2   7   2 43.6413 2.31754   3
   3  -7   2 69.8045 3.42907   3
   3   7   2 67.5956 3.43197   3
   4  -7   2 139.175 5.83133   3
   4   7   2 137.293 5.89430   3
   4  -8  -2 13.0250 2.95540   3
  -4  -8   2 10.0309 2.81903   3
   4   8  -2 12.6648 2.77969   3
  -3  -8   2 15.0212 2.51527   3
   3  -8  -2 10.8069 2.32589   3
   3   8  -2 11.6278 1.98150   3
  -3   8   2 10.5638 1.78574   2
  -3   8   2 10.4006 2.01886   3
  -2  -8   2 169.860 5.45061   2
  -2  -8   2 165.948 6.05777   3
   2  -8  -2 175.527 5.93139   3
  -2   8   2 163.835 5.64362   3
  -2   8   2 166.757 5.29569   2
   2   8  -2 173.089 5.56299   3
  -1  -8   2 146.469 4.82966   3
  -1  -8   2 138.862 4.34904   2
   1  -8  -2 144.973 4.86180   3
   1   8  -2 140.718 4.33433   3
  -1   8   2 139.413 4.27739   2
  -1   8   2 141.147 4.55459   3
   0  -8  -2 276.781 7.72933   3
   0  -8   2 287.448 7.48617   3
   0  -8   2 269.338 7.17454   3
   0   8   2 276.177 7.48582   3
  -1  -8  -2 73.4694 2.98772   3
   1   8   2 77.9376 2.91128   3
   2   8   2 60.7461 2.77777   3
   3  -8   2 192.602 6.27488   3
   3   8   2 190.520 6.41478   3
   4  -8   2 218.758 7.66769   3
   4   8   2 213.717 7.74510   3
  -4  -9   2 2.17659 2.41201   3
   4  -9  -2 0.33470 2.50895   3
   4   9  -2 1.08953 1.99788   3
   3  -9  -2 0.92038 1.78436   3
  -3  -9   2 -0.4280 1.73498   3
  -3   9   2 0.78922 1.44668   3
   3   9  -2 -0.9151 1.36769   3
  -3   9   2 0.84603 1.31651   2
   2  -9  -2 97.8326 4.32030   3
  -2  -9   2 95.1105 4.45886   3
  -2   9   2 98.9979 4.02980   3
   2   9  -2 102.303 3.96354   3
  -2   9   2 96.7561 3.66947   2
   1  -9  -2 231.225 7.12355   3
  -1  -9   2 229.313 7.10792   3
  -1   9   2 237.755 6.53136   2
  -1   9   2 242.921 6.82702   3
   1   9  -2 236.984 6.59799   3
   0  -9   2 1617.53 38.5337   3
   0  -9   2 1583.48 38.2044   3
   0  -9  -2 1608.44 38.8054   3
   0   9   2 1616.67 38.5205   3
  -1  -9  -2 147.266 4.77989   3
   1   9   2 143.993 4.55635   3
   2   9   2 202.406 6.16368   3
   3  -9   2 444.115 12.1866   3
   3   9   2 448.782 12.4516   3
   4  -9   2 162.915 6.60079   3
   4   9   2 168.528 6.58677   3
   4 -10  -2 42.3278 4.35303   3
  -4 -10   2 47.1734 5.05229   3
   4  10  -2 49.5750 4.22936   3
   3 -10  -2 61.0643 4.14498   3
  -3 -10   2 50.1306 4.14216   3
  -3  10   2 54.3628 3.58356   3
  -3  10   2 51.4507 3.13397   2
   3  10  -2 54.7539 3.54505   3
  -2 -10   2 157.108 5.91466   3
   2 -10  -2 153.226 5.74382   3
  -2  10   2 153.287 5.40873   3
   2  10  -2 152.414 5.32583   3
  -2  10   2 156.963 5.07053   2
   1 -10  -2 504.162 13.3493   3
  -1 -10   2 483.816 13.2595   3
  -1  10   2 495.195 12.8987   3
  -1  10   2 494.439 12.5881   2
   1  10  -2 493.494 12.6568   3
   0 -10   2 149.939 4.40353   3
   0 -10  -2 151.290 5.05716   3
   0 -10   2 145.534 4.74777   3
   0  10   2 149.673 4.67926   3
  -1 -10  -2 956.576 23.9456   3
   1  10   2 967.421 23.6901   3
  -2 -10  -2 309.413 8.94748   3
   2  10   2 308.662 8.78401   3
   3 -10   2 309.087 9.04645   3
   3  10   2 298.929 9.16006   3
   4 -10   2 131.839 5.60271   3
   4  10   2 109.411 5.40261   3
   4 -11  -2 74.5633 5.57856   3
  -4 -11   2 84.1121 6.43946   3
   4  11  -2 78.1782 4.92966   3
   3 -11  -2 11.2707 2.37592   3
  -3 -11   2 10.3243 2.52856   3
   3  11  -2 11.5676 2.14862   3
  -3  11   2 11.7523 1.85771   2
  -3  11   2 8.51767 1.92992   3
  -2 -11   2 105.688 4.87299   3
   2 -11  -2 104.434 4.73513   3
  -2  11   2 103.481 4.30488   3
   2  11  -2 111.524 4.27532   3
  -2  11   2 110.028 4.01523   2
  -1 -11   2 75.3037 3.57284   3
   1 -11  -2 77.0590 3.67310   3
   1  11  -2 76.6101 2.98578   3
  -1  11   2 71.7483 3.15161   3
  -1  11   2 71.4674 2.88170   2
   0 -11   2 70.9396 2.71859   3
   0 -11  -2 79.3724 3.46196   3
   0 -11   2 72.4075 3.18151   3
   0  11   2 77.2677 3.00984   3
   1 -11   2 29.5845 2.15957   3
  -1 -11  -2 31.3873 2.38242   3
   1  11   2 32.7939 2.06366   3
  -2 -11  -2 306.037 9.04427   3
   2 -11   2 305.194 8.06995   2
   2  11   2 310.692 8.84820   3
   3 -11   2 219.561 7.23226   3
   3  11   2 227.579 7.35991   3
   4 -11   2 69.8074 4.47302   3
   4  11   2 66.5674 4.26087   3
   4 -12  -2 34.9582 4.16528   3
   4  12  -2 34.3871 3.62994   3
   3 -12  -2 16.9659 2.77471   3
  -3 -12   2 22.2815 3.20491   3
   3  12  -2 24.4230 2.72439   3
  -3  12   2 19.9025 2.29936   2
  -3  12   2 21.8816 2.53111   3
  -2 -12   2 35.7354 3.19364   3
   2 -12  -2 28.2918 2.83520   3
  -2  12   2 36.9162 2.66379   3
   2  12  -2 38.1560 2.57625   3
  -2  12   2 36.3143 2.38773   2
  -1 -12   2 588.659 15.7792   3
   1 -12  -2 583.205 15.7224   3
  -1  12   2 589.620 15.2946   3
  -1  12   2 582.605 14.9234   2
   1  12  -2 600.734 15.0341   3
   0 -12  -2 29.2951 2.43558   3
   0 -12   2 29.0252 2.37867   3
   0 -12   2 30.1171 2.30411   3
   0  12   2 30.2910 1.96516   3
   1 -12   2 19.6090 1.43659   3
   1 -12   2 22.9776 1.97966   3
  -1 -12  -2 18.4861 1.97985   3
   1  12   2 20.9287 1.86813   3
   2 -12   2 735.258 18.6926   3
   2  12   2 729.006 18.8696   3
   3 -12   2 8.30277 1.86400   3
   3  12   2 4.09244 1.57114   3
   4 -13  -2 34.2245 4.24570   3
   4  13  -2 39.8660 3.88912   3
   3 -13  -2 37.4037 3.57567   3
  -3 -13   2 31.9173 3.72390   3
   3  13  -2 31.0302 2.99874   3
  -3  13   2 30.8401 2.72749   2
  -3  13   2 35.1847 3.13248   3
   2 -13  -2 145.607 5.95994   3
  -2 -13   2 145.903 6.11867   3
  -2  13   2 155.874 5.12138   2
   2  13  -2 154.640 5.39760   3
  -2  13   2 145.984 5.47595   3
   1 -13  -2 128.909 5.09353   3
  -1 -13   2 126.006 5.08501   3
   1  13  -2 131.546 4.36030   3
  -1  13   2 123.619 4.57505   3
  -1  13   2 127.010 4.25125   2
   0 -13  -2 18.8609 2.06889   3
   0 -13   2 13.3129 1.74336   3
   0  13   2 8.61159 1.29222   3
   1 -13   2 118.865 3.98688   3
   1 -13   2 123.132 4.52837   3
  -1 -13  -2 125.812 4.82671   3
   1  13   2 126.699 4.49722   3
   2 -13   2 424.528 11.7175   3
   2  13   2 427.978 11.8525   3
   3 -13   2 61.8910 3.69002   3
   3  13   2 59.4662 3.59207   3
   3 -14  -2 13.3629 2.60859   3
  -3 -14   2 5.38795 2.47087   3
   3  14  -2 6.61577 2.00574   3
  -2 -14   2 337.235 11.0970   3
   2 -14  -2 357.497 10.9441   3
  -2  14   2 345.565 10.3234   3
  -2  14   2 372.244 9.96317   2
   2  14  -2 352.505 10.2696   3
  -1 -14   2 119.644 5.06390   3
   1 -14  -2 115.129 4.99415   3
   1  14  -2 121.107 4.20718   3
  -1  14   2 115.752 4.43381   3
  -1  14   2 125.082 4.17985   2
   0 -14  -2 27.2578 2.62205   3
   0 -14   2 29.8380 2.53153   3
   0  14   2 31.3959 2.14775   3
   0  14  -2 30.6456 1.71651   3
  -1 -14  -2 89.2138 4.17641   3
   1 -14   2 92.0754 3.97573   3
   1 -14   2 92.0256 3.42255   3
   1  14   2 97.2076 3.84993   3
   2 -14   2 131.685 5.04938   3
  -2 -14  -2 125.816 6.08685   3
   2  14   2 131.483 5.03108   3
   3 -14   2 20.0519 2.54422   3
   3  14   2 15.6590 2.31916   3
   3 -15  -2 108.110 5.84224   3
  -3 -15   2 113.216 6.44525   3
   3  15  -2 117.146 5.26388   3
  -2 -15   2 115.884 5.76311   3
   2 -15  -2 124.882 5.60918   3
  -2  15   2 121.135 4.53546   2
  -2  15   2 114.895 4.87516   3
   2  15  -2 126.925 4.88554   3
  -1 -15   2 302.628 9.60651   3
   1 -15  -2 310.011 9.61112   3
  -1  15   2 300.507 8.53159   2
  -1  15   2 305.698 8.92130   3
   1  15  -2 305.737 8.65416   3
   0 -15   2 94.0328 4.31231   3
   0 -15  -2 94.0491 4.41475   3
   0  15   2 88.1132 3.76872   3
   0  15  -2 97.9696 3.33183   3
   1 -15   2 100.832 4.28983   3
  -1 -15  -2 95.2731 4.44668   3
   1  15   2 94.5093 3.98543   3
   2 -15   2 244.463 7.69853   3
   2  15   2 231.411 7.63545   3
   3 -15   2 84.2086 4.44248   3
   3  15   2 72.3085 4.18830   3
   3 -16  -2 27.2244 3.50856   3
  -3 -16   2 17.2454 3.43106   3
   3  16  -2 24.5459 2.76908   3
   2 -16  -2 131.270 5.96555   3
  -2 -16   2 131.140 6.15988   3
  -2  16   2 131.364 4.85311   2
  -2  16   2 127.463 5.21773   3
   2  16  -2 130.849 5.18053   3
  -1 -16   2 535.624 15.2670   3
   1 -16  -2 542.087 15.2018   3
   1  16  -2 536.409 14.1577   3
  -1  16   2 549.142 14.4840   3
  -1  16   2 523.426 14.0147   2
   0 -16  -2 10.9167 2.14714   3
   0 -16   2 9.62258 2.00674   3
   0  16   2 8.93649 1.52955   3
   0  16  -2 8.83158 1.22619   3
   1 -16   2 115.240 4.79765   3
  -1 -16  -2 122.759 5.11890   3
   1  16   2 105.694 4.37846   3
   2 -16   2 88.3202 4.38073   3
   2  16   2 89.3338 4.19479   3
   3 -16   2 102.523 5.05304   3
   3  16   2 101.592 4.96798   3
   3 -17  -2 22.5698 3.43195   3
  -3 -17   2 28.5079 3.89974   3
   3  17  -2 20.7457 2.79721   3
  -2 -17   2 41.6152 3.87498   3
   2 -17  -2 38.3161 3.63206   3
  -2  17   2 34.2252 2.99114   3
  -2  17   2 34.9224 2.58275   2
   2  17  -2 31.4272 2.85139   3
   1 -17  -2 866.425 22.8865   3
  -1 -17   2 842.437 22.9213   3
  -1  17   2 884.436 22.1359   3
   1  17  -2 869.776 21.8057   3
  -1  17   2 838.157 21.6126   2
   0 -17  -2 488.762 14.0662   3
   0 -17   2 496.216 13.9748   3
   0  17   2 482.876 13.3878   3
   1 -17   2 141.165 5.68955   3
   1 -17   2 147.569 5.79911   3
  -1 -17  -2 141.753 5.88537   3
   1  17   2 153.058 5.55025   3
   2 -17   2 5.93135 1.99281   3
   2  17   2 5.80041 1.61825   3
   3 -17   2 173.276 6.82021   3
   3  17   2 169.975 6.76450   3
  -3 -18   2 5.38554 2.82938   3
   3 -18  -2 10.4223 3.04301   3
   3  18  -2 4.26267 1.97676   3
   2 -18  -2 3.76137 2.28516   3
  -2 -18   2 2.57130 2.34175   3
  -2  18   2 5.03752 1.51409   2
   2  18  -2 2.99070 1.63315   3
  -2  18   2 6.75885 1.88810   3
  -1 -18   2 35.3476 3.45404   3
   1 -18  -2 38.3816 3.55121   3
  -1  18   2 41.7878 2.62430   2
  -1  18   2 36.9063 2.85898   3
   1  18  -2 35.8316 2.53428   3
   0 -18  -2 567.355 16.3109   3
   0 -18   2 595.893 16.3598   3
   0  18   2 577.784 15.6436   3
   1 -18   2 14.6762 2.34128   3
   1 -18   2 13.1836 2.20970   3
  -1 -18  -2 12.7616 2.29712   3
   1  18   2 11.6276 1.91999   3
   2 -18   2 99.0395 4.95675   3
   2  18   2 101.189 4.70653   3
   3 -18   2 229.899 8.34818   3
   3  18   2 233.244 8.41233   3
  -3 -19   2 9.56285 3.41964   3
   3 -19  -2 7.64207 2.93324   3
   3  19  -2 13.9501 2.50150   3
  -2 -19   2 187.091 8.09595   3
   2 -19  -2 197.183 7.93845   3
   2  19  -2 188.043 6.79850   3
  -2  19   2 189.571 6.46070   2
  -2  19   2 189.797 6.98030   3
   1 -19  -2 210.332 8.03906   3
  -1 -19   2 214.638 8.18906   3
  -1  19   2 212.837 6.74619   2
  -1  19   2 212.766 7.19525   3
   0 -19  -2 27.7564 3.13038   3
   0 -19   2 24.3931 2.98778   3
   0  19   2 26.0834 2.49767   3
  -1 -19  -2 67.2471 4.25194   3
   1 -19   2 63.3398 4.11808   3
   1 -19   2 67.0920 4.21266   3
   1  19   2 67.5790 3.78973   3
   2 -19   2 92.3426 5.02124   3
   2  19   2 97.6681 4.73989   3
   3 -19   2 35.6822 3.61473   3
   3  19   2 34.7559 3.58275   3
   3 -20  -2 6.71654 2.87261   3
  -3 -20   2 4.75992 3.07657   3
   2 -20  -2 31.2511 3.77227   3
  -2 -20   2 32.1430 4.09581   3
  -2  20   2 29.8844 2.99368   3
  -2  20   2 26.2759 2.50244   2
  -1 -20   2 117.059 6.03740   3
   1 -20  -2 121.904 6.02455   3
  -1  20   2 123.230 5.14612   3
  -1  20   2 121.865 4.69319   2
   0 -20  -2 389.883 12.1838   3
   0 -20   2 376.097 12.0124   3
   0  20   2 392.775 11.3647   3
   1 -20   2 -0.0956 1.88674   3
   1 -20   2 1.14799 1.85875   3
  -1 -20  -2 3.09937 1.86483   3
   1  20   2 -0.4320 1.41696   3
   2 -20   2 52.0778 4.16539   3
   2  20   2 46.3792 3.64897   3
  -2 -21   2 6.84180 2.81699   3
   2 -21  -2 10.7569 3.09885   3
   1 -21  -2 448.369 14.0819   3
  -1 -21   2 447.779 14.2491   3
  -1  21   2 450.965 12.5715   2
  -1  21   2 475.245 13.2197   3
   0 -21  -2 4.88913 2.17671   3
   0 -21   2 1.83040 2.01566   3
   0  21   2 2.35313 1.62136   3
   1 -21   2 2.14097 2.08732   3
  -1 -21  -2 2.93661 1.87299   3
   1  21   2 3.95497 1.77412   3
   2 -21   2 42.2501 3.85122   3
   2  21   2 40.4425 3.53851   3
  -2 -22   2 15.6536 3.54762   3
   2 -22  -2 23.8735 3.76163   3
   1 -22  -2 186.854 7.91777   3
  -1 -22   2 178.135 8.00015   3
  -1  22   2 185.512 6.87065   3
  -1  22   2 184.666 6.31313   2
   0 -22  -2 8.33212 2.48339   3
   0 -22   2 5.20566 2.44667   3
   0  22   2 6.15875 1.91980   3
  -1 -22  -2 -1.1440 1.76470   3
   1 -22   2 2.75526 2.21038   3
   1  22   2 3.27036 1.77146   3
   2 -22   2 0.77488 2.47489   3
   2  22   2 2.54760 1.85139   3
   2 -23  -2 81.2767 6.06038   3
  -2 -23   2 71.5187 5.96854   3
   1 -23  -2 25.0290 3.71406   3
  -1 -23   2 21.4580 3.59696   3
  -1  23   2 24.7022 2.48009   2
  -1  23   2 27.7773 2.88801   3
   0 -23  -2 110.323 5.87452   3
   0 -23   2 102.194 5.92281   3
   0  23   2 100.880 4.95439   3
  -1 -23  -2 78.2697 5.08646   3
   1 -23   2 82.4884 5.29687   3
   1  23   2 78.5010 4.57647   3
   2 -23   2 19.0785 3.29321   3
   2  23   2 16.6026 2.72422   3
   2 -24  -2 78.8734 6.20391   3
  -2 -24   2 78.6806 6.37418   3
   1 -24  -2 25.9847 3.72238   3
  -1 -24   2 13.4758 3.26287   3
  -1  24   2 18.6647 2.67128   3
  -1  24   2 15.0737 2.12228   2
   0 -24  -2 17.3282 3.14055   3
   0 -24   2 17.3970 3.26220   3
   0  24   2 12.1801 2.37070   3
   1 -24   2 12.7850 2.98786   3
   1  24   2 13.5024 2.44967   3
  -1 -25   2 12.6527 3.24432   3
   1 -25  -2 17.0055 3.48541   3
   0 -25   2 11.2100 3.20052   3
   0 -25  -2 11.7562 2.99614   3
   0  25   2 10.3369 2.21539   3
   1 -25   2 7.85777 2.70273   3
   1  25   2 4.99445 2.14093   3
   0 -26   2 9.92114 3.19571   3
   0 -26  -2 13.8500 3.28244   3
   0  26   2 17.8829 2.62506   3
  -4   0   3 0.08377 2.23804   3
   4   0  -3 3.09631 2.20412   3
  -4   0   3 0.19421 1.82025   2
  -3   0   3 14.5193 2.09058   2
  -3   0   3 13.6859 2.39988   3
   3   0  -3 15.9563 2.33795   3
   2   0  -3 37.3139 2.57511   3
  -2   0   3 40.2421 2.72861   3
  -2   0   3 38.0626 2.34626   2
  -1   0   3 8.04564 1.15968   3
   1   0  -3 4.57621 1.09547   3
  -1   0   3 6.09066 0.92770   2
   0   0   3 131.093 3.57092   2
   1   0   3 19.7031 2.09591   1
  -2   0  -3 389.397 12.6773   1
  -3   0  -3 227.547 9.96499   1
   4   0   3 90.4058 4.36276   3
  -4  -1   3 1.17301 1.99552   2
   4  -1  -3 -1.0823 2.04694   3
  -4  -1   3 -3.6032 2.12284   3
   4   1  -3 2.21424 2.36124   3
  -4   1   3 1.30711 2.23366   3
  -4   1   3 1.36933 1.92286   2
  -3  -1   3 77.3140 3.93197   2
   3  -1  -3 68.1883 4.11994   3
  -3  -1   3 82.7492 4.62529   3
   3   1  -3 79.2159 4.18167   3
  -3   1   3 71.8341 3.85649   2
  -3   1   3 66.5199 4.34205   3
   2  -1  -3 3.05779 1.38974   3
  -2  -1   3 4.18719 1.36650   3
  -2  -1   3 2.52433 1.09970   2
  -2   1   3 5.06443 1.36292   3
   2   1  -3 3.25144 1.25085   3
  -2   1   3 3.03423 1.11192   2
  -1  -1   3 295.975 7.79888   2
   1  -1  -3 284.208 7.97750   3
  -1  -1   3 298.190 8.11412   3
  -1   1   3 293.004 8.07947   3
  -1   1   3 296.851 7.80488   2
   1   1  -3 295.211 7.90113   3
   0   1   3 826.389 19.8231   3
   0   1   3 820.356 19.6676   2
   1  -1   3 66.8624 3.55423   1
   1   1   3 65.6366 3.72955   1
  -2  -1  -3 275.172 10.0254   1
   2   1   3 262.880 10.0577   1
  -2   1  -3 285.589 9.79069   1
   3   1   3 74.6327 3.28777   3
   4  -1   3 215.210 7.30808   3
   4   1   3 209.339 7.20151   3
   4  -2  -3 10.0088 2.80132   3
  -4  -2   3 14.2550 2.56535   2
  -4  -2   3 10.1928 2.92580   3
  -4   2   3 15.3449 2.56103   2
   4   2  -3 13.6640 2.95894   3
  -4   2   3 13.9863 3.10905   3
  -3  -2   3 162.648 5.93831   2
  -3  -2   3 165.338 6.64825   3
   3  -2  -3 154.599 6.30926   3
  -3   2   3 160.986 5.83991   2
  -3   2   3 153.694 6.40316   3
   3   2  -3 161.488 6.18468   3
   2  -2  -3 4.45264 1.41632   3
  -2  -2   3 6.81305 1.30794   2
  -2  -2   3 8.96705 1.59101   3
  -2   2   3 7.22349 1.38243   2
   2   2  -3 8.63435 1.51106   3
  -2   2   3 6.09472 1.43361   3
  -1  -2   3 232.252 6.37206   2
   1  -2  -3 234.443 6.60719   3
  -1  -2   3 233.982 6.66427   3
  -1   2   3 229.633 6.35260   2
  -1   2   3 233.050 6.64995   3
   1   2  -3 225.880 6.39110   3
   0   2   3 511.320 12.9250   3
   0   2   3 521.485 12.7301   3
   1  -2   3 61.8572 3.25523   1
   1   2   3 62.2941 3.73990   1
  -2  -2  -3 79.7324 4.88733   1
  -2   2  -3 81.8666 4.48497   1
   2   2   3 74.4146 4.92106   1
   3   2   3 367.862 10.0939   3
   4  -2   3 38.4008 3.03108   3
   4   2   3 32.6772 2.87506   3
  -4  -3   3 7.39738 2.87046   3
   4  -3  -3 4.62157 2.38257   3
  -4   3   3 8.51099 2.15035   2
   4   3  -3 18.7874 3.07840   3
  -4   3   3 8.91803 2.61414   3
  -3  -3   3 384.215 11.0517   2
   3  -3  -3 375.787 11.4624   3
  -3  -3   3 374.882 11.7964   3
  -3   3   3 382.189 10.9570   2
  -3   3   3 369.346 11.4995   3
   3   3  -3 381.192 11.2758   3
   2  -3  -3 102.600 4.23272   3
  -2  -3   3 105.851 3.96950   2
  -2  -3   3 102.126 4.37343   3
  -2   3   3 104.149 4.27688   3
   2   3  -3 104.728 4.08943   3
  -2   3   3 104.993 3.92005   2
  -1  -3   3 535.046 13.8953   3
  -1  -3   3 525.059 13.5594   2
   1  -3  -3 538.915 13.8416   3
   1   3  -3 542.409 13.5816   3
  -1   3   3 558.870 13.9058   3
  -1   3   3 548.159 13.6005   2
   0   3   3 109.263 3.61405   3
   0   3   3 110.224 3.34982   3
   1  -3   3 255.677 8.04580   1
   1   3   3 262.488 9.20401   1
  -2  -3  -3 182.331 7.91110   1
   2   3   3 171.637 7.96091   1
  -2   3  -3 187.622 7.04852   1
   3   3   3 104.550 3.99554   3
   4  -3   3 20.2375 2.40677   3
   4   3   3 18.7799 2.38024   3
  -4  -4   3 235.439 8.04267   2
   4  -4  -3 206.663 8.88043   3
  -4  -4   3 217.242 9.22788   3
  -4   4   3 181.724 8.44367   3
   4   4  -3 226.578 8.33912   3
  -4   4   3 197.276 7.78001   2
  -3  -4   3 286.178 8.69352   2
   3  -4  -3 270.210 9.10100   3
  -3  -4   3 273.841 9.44286   3
   3   4  -3 278.693 8.93996   3
  -3   4   3 270.211 9.24424   3
  -3   4   3 283.568 8.63711   2
  -2  -4   3 25.8809 2.12204   2
  -2  -4   3 30.4749 2.63273   3
   2  -4  -3 31.1106 2.51327   3
  -2   4   3 28.5580 2.12855   2
  -2   4   3 24.8021 2.30390   3
   2   4  -3 25.3259 2.07693   3
  -1  -4   3 35.9350 1.95661   2
   1  -4  -3 41.3358 2.30424   3
  -1  -4   3 41.1080 2.22339   3
   1   4  -3 37.1084 1.86359   3
  -1   4   3 38.2623 1.94749   2
  -1   4   3 40.1221 2.23732   3
   0   4   3 640.654 15.5217   3
   0   4   3 618.749 15.8045   3
   1   4   3 108.089 5.36494   1
   2   4   3 72.2811 2.79164   3
   3   4   3 52.2863 2.84098   3
   4  -4   3 49.9196 3.41339   3
   4   4   3 38.8125 3.15958   3
  -4  -5   3 693.453 19.1948   2
   4  -5  -3 709.438 20.0255   3
  -4  -5   3 657.128 20.5208   3
   4   5  -3 707.760 19.5076   3
  -4   5   3 685.936 23.1132   3
  -3  -5   3 102.168 4.69783   2
  -3  -5   3 101.436 5.37816   3
   3  -5  -3 116.214 5.36549   3
   3   5  -3 108.381 4.84721   3
  -3   5   3 114.804 5.29443   3
  -3   5   3 111.209 4.70361   2
  -2  -5   3 95.9066 4.24269   3
  -2  -5   3 90.5377 3.72536   2
   2  -5  -3 97.3980 4.15269   3
  -2   5   3 96.2234 4.09112   3
   2   5  -3 94.5208 3.80639   3
  -2   5   3 91.7991 3.68167   2
  -1  -5   3 670.915 17.0448   3
   1  -5  -3 681.430 17.0048   3
  -1  -5   3 669.902 16.6879   2
   1   5  -3 664.517 16.6024   3
  -1   5   3 664.923 16.6564   2
  -1   5   3 675.094 16.9725   3
   0   5   3 686.013 16.5152   3
   0   5   3 649.729 16.8288   3
   1   5   3 165.250 5.22711   3
   1   5   3 182.402 4.98894   3
   2   5   3 25.2280 1.79214   3
   3   5   3 131.726 4.79101   3
   4  -5   3 32.8675 2.90000   3
   4   5   3 32.5241 2.90477   3
  -4  -6   3 246.202 10.3839   3
  -4  -6   3 268.076 9.28745   2
   4  -6  -3 282.138 10.1657   3
   4   6  -3 280.181 9.61818   3
   3  -6  -3 8.28420 2.14642   3
  -3  -6   3 12.0625 2.00764   2
  -3  -6   3 14.1140 2.50737   3
  -3   6   3 11.6149 2.23982   3
  -3   6   3 13.9093 1.98280   2
   3   6  -3 13.9036 2.09740   3
   2  -6  -3 186.752 6.52907   3
  -2  -6   3 195.796 6.68516   3
  -2  -6   3 195.880 6.14630   2
  -2   6   3 196.799 6.44450   3
   2   6  -3 201.626 6.23334   3
  -2   6   3 191.327 6.06305   2
  -1  -6   3 90.0964 3.66090   3
   1  -6  -3 91.6192 3.67021   3
  -1  -6   3 90.8143 3.24971   2
  -1   6   3 91.7464 3.51563   3
  -1   6   3 92.4043 3.22657   2
   1   6  -3 93.6307 3.15860   3
   0  -6  -3 44.4338 2.08662   3
   0   6   3 42.1410 1.96657   3
   1   6   3 36.5046 1.85746   3
   1   6   3 32.0518 2.00670   3
   2   6   3 404.293 10.6387   3
   3   6   3 111.082 4.36894   3
   4  -7  -3 175.925 7.76694   3
  -4  -7   3 140.113 7.68030   3
   4   7  -3 155.950 7.17100   3
  -3  -7   3 247.954 8.13891   2
   3  -7  -3 244.260 8.67992   3
  -3  -7   3 265.054 9.07362   3
  -3   7   3 244.392 7.96787   2
   3   7  -3 249.254 8.22655   3
  -3   7   3 244.511 8.48123   3
  -2  -7   3 132.117 5.17008   3
  -2  -7   3 123.657 4.54483   2
   2  -7  -3 123.215 4.97044   3
   2   7  -3 128.223 4.59218   3
  -2   7   3 122.164 4.45037   2
  -2   7   3 120.270 4.80812   3
  -1  -7   3 1031.73 25.5780   2
  -1  -7   3 1040.64 26.0040   3
   1  -7  -3 1047.13 26.0027   3
  -1   7   3 1065.29 25.5554   2
  -1   7   3 1043.54 25.8715   3
   1   7  -3 1070.67 25.4699   3
   0  -7  -3 240.974 6.88724   3
   0   7   3 251.267 6.86267   3
   1   7   3 128.866 4.52286   3
   1   7   3 133.135 4.19214   3
   2   7   3 508.748 13.1800   3
   3   7   3 262.513 7.95078   3
   4  -8  -3 8.65044 2.94997   3
  -4  -8   3 5.67740 2.78598   3
   4   8  -3 8.83584 2.48770   3
  -3  -8   3 47.0753 4.11888   3
  -3  -8   3 56.7776 3.57002   2
   3  -8  -3 55.8765 4.04373   3
  -3   8   3 52.9419 3.80503   3
   3   8  -3 51.3256 3.45697   3
  -3   8   3 50.6600 3.34200   2
   2  -8  -3 14.6856 2.12141   3
  -2  -8   3 9.50513 1.86783   3
  -2  -8   3 9.62186 1.54848   2
  -2   8   3 11.3328 1.82996   3
   2   8  -3 13.7792 1.70475   3
  -2   8   3 7.99516 1.44022   2
  -1  -8   3 10.0040 1.25746   2
   1  -8  -3 8.31571 1.50300   3
  -1  -8   3 9.40654 1.48549   3
  -1   8   3 11.0486 1.42837   3
  -1   8   3 10.3298 1.28923   2
   1   8  -3 9.77253 1.14479   3
   0  -8  -3 466.898 12.3852   3
   0  -8   3 484.359 11.8496   2
   0   8   3 477.783 12.3136   3
   1   8   3 7.49194 1.20669   3
   2   8   3 131.705 4.51297   3
   3   8   3 225.618 7.17929   3
   4  -9  -3 18.2245 3.53871   3
  -4  -9   3 18.5717 3.41626   3
   4   9  -3 14.5638 2.86773   3
  -3  -9   3 7.20507 1.86153   2
   3  -9  -3 6.29297 2.27063   3
  -3  -9   3 8.43534 2.41389   3
  -3   9   3 7.93773 1.89199   2
   3   9  -3 6.00706 1.79836   3
  -3   9   3 9.19083 2.12759   3
  -2  -9   3 101.108 4.66612   3
   2  -9  -3 92.8027 4.48023   3
  -2  -9   3 94.8755 3.93806   2
  -2   9   3 101.645 3.93404   2
   2   9  -3 97.0585 3.98946   3
  -2   9   3 96.7972 4.25260   3
  -1  -9   3 259.967 7.90172   3
   1  -9  -3 264.503 7.91586   3
  -1  -9   3 261.181 7.38414   2
  -1   9   3 264.478 7.34784   2
   1   9  -3 263.606 7.20625   3
  -1   9   3 262.853 7.68236   3
   0  -9   3 142.315 4.47968   3
   0  -9   3 145.564 4.14251   2
   0  -9  -3 139.177 4.74187   3
   0  -9   3 137.732 4.18531   3
   0   9   3 143.484 4.58883   3
   1   9   3 74.5322 3.05394   3
   2   9   3 270.207 7.86645   3
   3   9   3 162.414 5.76516   3
   4 -10  -3 12.8547 3.21152   3
  -4 -10   3 5.73777 3.07670   3
   4  10  -3 13.3931 2.79420   3
   3 -10  -3 51.8328 4.30736   3
  -3 -10   3 44.1784 4.15415   3
   3  10  -3 59.3323 3.67250   3
  -3  10   3 49.0954 3.42785   2
  -3  10   3 46.2486 3.74648   3
  -2 -10   3 20.2766 2.09849   2
  -2 -10   3 24.7399 2.65242   3
   2 -10  -3 24.9250 2.70401   3
   2  10  -3 24.8877 2.22297   3
  -2  10   3 21.6601 2.09949   2
  -2  10   3 20.7504 2.29518   3
  -1 -10   3 215.294 6.79323   3
   1 -10  -3 218.414 6.85632   3
  -1 -10   3 202.880 6.19574   2
  -1  10   3 213.622 6.19652   2
   1  10  -3 211.600 6.05756   3
  -1  10   3 202.432 6.46318   3
   0 -10  -3 256.083 7.63906   3
   0 -10   3 264.747 7.39287   3
   0 -10   3 258.987 7.03876   3
   0  10   3 259.277 7.44861   3
  -1 -10  -3 140.412 4.68963   3
   1  10   3 142.767 4.72033   3
   2  10   3 187.089 6.00621   3
   3  10   3 249.007 7.88219   3
   3 -11  -3 18.2303 2.83244   3
  -3 -11   3 14.9681 2.96883   3
  -3  11   3 14.0833 2.37723   3
  -3  11   3 10.8901 2.07536   2
   3  11  -3 14.0565 2.21853   3
   2 -11  -3 17.0035 2.42633   3
  -2 -11   3 22.7491 2.79672   3
  -2  11   3 21.4586 2.09952   2
  -2  11   3 21.7289 2.35172   3
   2  11  -3 20.6401 2.03865   3
   1 -11  -3 49.2595 3.04786   3
  -1 -11   3 47.3741 2.98258   3
   1  11  -3 43.1552 2.18678   3
  -1  11   3 42.3703 2.65226   3
  -1  11   3 48.1135 2.40482   2
   0 -11  -3 6.05744 1.44825   3
   0 -11   3 4.99544 1.22187   3
   0 -11   3 2.64333 0.79031   3
   0  11   3 4.31664 1.07735   3
  -1 -11  -3 288.612 8.49083   3
   1  11   3 305.004 8.48354   3
   2  11   3 195.870 6.32592   3
   3  11   3 26.9665 2.61757   3
   3 -12  -3 79.1930 5.08913   3
  -3 -12   3 77.7952 5.41968   3
   3  12  -3 87.1846 4.50656   3
  -3  12   3 85.5451 4.33352   2
  -3  12   3 77.6678 4.65257   3
  -2 -12   3 261.937 8.99475   3
   2 -12  -3 269.485 8.81550   3
  -2  12   3 271.834 8.53458   3
   2  12  -3 264.296 8.09082   3
  -2  12   3 266.431 7.98537   2
   1 -12  -3 112.212 4.70080   3
  -1 -12   3 109.311 4.62250   3
  -1  12   3 112.646 4.34101   3
  -1  12   3 108.467 3.98436   2
   1  12  -3 111.418 3.81958   3
   0 -12   3 246.850 7.18026   3
   0 -12  -3 269.148 7.94334   3
   0 -12   3 262.488 7.69753   3
   0  12   3 262.840 7.66119   3
   1  12   3 1335.31 32.6904   3
   2  12   3 117.117 4.59085   3
   3  12   3 108.455 4.75755   3
   3 -13  -3 196.495 8.10909   3
  -3 -13   3 196.966 8.63152   3
  -3  13   3 193.312 7.62843   3
  -3  13   3 200.719 7.09825   2
   3  13  -3 222.622 7.71040   3
   2 -13  -3 108.901 5.22333   3
  -2 -13   3 117.522 5.53955   3
  -2  13   3 114.233 4.93522   3
  -2  13   3 116.037 4.48832   2
   2  13  -3 112.665 4.56415   3
   1 -13  -3 29.9292 2.76895   3
  -1 -13   3 30.7947 2.81836   3
   1  13  -3 30.2219 1.93210   3
  -1  13   3 35.2405 2.24708   2
  -1  13   3 33.6750 2.53647   3
   0 -13  -3 258.454 7.84312   3
   0 -13   3 248.353 7.59162   3
   0  13   3 239.319 7.44057   3
  -1 -13  -3 449.944 12.6537   3
   1  13   3 469.805 12.5421   3
   2  13   3 13.2748 1.84210   3
   3  13   3 14.2564 2.17125   3
  -3 -14   3 363.266 12.7817   3
   3 -14  -3 363.925 12.1278   3
   3  14  -3 353.020 11.1741   3
  -3  14   3 361.170 10.8457   2
  -3  14   3 364.568 11.6149   3
   2 -14  -3 242.768 8.63548   3
  -2 -14   3 249.153 8.98033   3
  -2  14   3 247.239 8.18576   3
   2  14  -3 255.186 7.92761   3
  -2  14   3 256.367 7.78327   2
  -1 -14   3 29.5478 2.86448   3
   1 -14  -3 25.9667 2.78637   3
  -1  14   3 31.1629 2.53004   3
   1  14  -3 29.5203 2.17734   3
  -1  14   3 37.5929 2.35155   2
   0 -14  -3 477.742 13.3555   3
   0 -14   3 478.714 13.1696   3
   0  14   3 481.741 13.0168   3
  -1 -14  -3 558.090 15.4884   3
   1  14   3 591.663 15.3929   3
   2  14   3 29.7775 2.56215   3
   3  14   3 44.2885 3.50564   3
   3 -15  -3 150.216 7.18743   3
  -3 -15   3 152.244 7.43918   3
  -3  15   3 148.001 6.68132   3
  -3  15   3 157.159 6.05795   2
  -2 -15   3 262.754 9.30882   3
   2 -15  -3 246.618 8.94643   3
  -2  15   3 265.676 8.62466   3
   2  15  -3 257.785 9.52414   3
  -2  15   3 262.396 8.06572   2
   1 -15  -3 59.3783 3.79579   3
  -1 -15   3 50.0700 3.63859   3
  -1  15   3 54.8797 2.88691   2
  -1  15   3 53.5975 3.25980   3
   0 -15   3 3.11090 1.48795   3
   0 -15  -3 3.78992 1.64179   3
   0  15   3 4.55123 1.35530   3
   1 -15   3 248.949 7.72041   3
  -1 -15  -3 241.698 8.16121   3
   1  15   3 248.016 7.78162   3
   2  15   3 414.109 11.9122   3
   3  15   3 14.5330 2.39783   3
  -3 -16   3 18.9089 3.65786   3
   3 -16  -3 14.6353 3.17642   3
  -3  16   3 18.8924 2.94195   3
  -2 -16   3 404.327 12.8477   3
   2 -16  -3 407.750 12.5720   3
  -2  16   3 395.775 12.0028   3
  -2  16   3 402.755 11.4805   2
  -1 -16   3 60.4942 4.02790   3
   1 -16  -3 65.4669 4.11246   3
  -1  16   3 59.4143 3.49669   3
  -1  16   3 61.2774 3.13777   2
   0 -16   3 285.043 8.90962   3
   0 -16  -3 278.605 9.01531   3
   0  16   3 281.685 8.61706   3
   1 -16   3 31.6939 2.79275   3
   1  16   3 28.8192 2.62717   3
   2 -16   3 65.7123 3.86498   3
   2  16   3 72.5663 3.84563   3
   3  16   3 3.15297 1.74867   3
  -3 -17   3 50.1145 5.08792   3
   3 -17  -3 42.3010 4.43275   3
  -2 -17   3 163.023 7.25787   3
   2 -17  -3 152.315 6.88445   3
  -2  17   3 155.344 6.32238   3
  -2  17   3 160.434 5.83035   2
  -1 -17   3 6.09332 2.17323   3
   1 -17  -3 5.30206 2.00168   3
  -1  17   3 7.48049 1.79461   3
  -1  17   3 7.39027 1.52390   2
   0 -17  -3 29.1209 2.90543   3
   0 -17   3 30.3013 2.92424   3
   0  17   3 24.5884 2.44309   3
   1 -17   3 147.442 5.78447   3
   1  17   3 140.133 5.57068   3
   2 -17   3 121.041 5.34259   3
   2  17   3 131.618 5.39536   3
   3 -18  -3 30.3168 3.96769   3
  -3 -18   3 31.4746 4.38627   3
   2 -18  -3 3.32513 2.29646   3
  -2 -18   3 9.29813 2.83540   3
  -2  18   3 9.07361 1.84340   2
  -2  18   3 6.48702 1.95780   3
  -1 -18   3 226.030 8.34196   3
   1 -18  -3 224.068 8.28186   3
  -1  18   3 222.749 7.65379   3
  -1  18   3 227.877 7.17714   2
   0 -18  -3 29.0596 3.05498   3
   0 -18   3 24.6458 2.90318   3
   0  18   3 29.7550 2.66674   3
   1 -18   3 55.3051 3.85990   3
   1  18   3 51.1338 3.36326   3
   2 -18   3 2.94689 2.03348   3
   2  18   3 0.85795 1.51060   3
   2 -19  -3 207.306 8.27171   3
  -2 -19   3 203.313 8.64629   3
  -2  19   3 195.673 6.95053   2
  -2  19   3 199.951 7.55138   3
  -1 -19   3 27.3781 3.39990   3
   1 -19  -3 28.3721 3.35689   3
  -1  19   3 28.6207 2.53110   2
  -1  19   3 27.5692 2.85118   3
   0 -19  -3 37.6812 3.50431   3
   0 -19   3 31.0318 3.27132   3
   0  19   3 28.0290 2.73998   3
   1 -19   3 0.82174 1.74648   3
   1  19   3 2.21488 1.53649   3
   2 -19   3 68.2401 4.31137   3
   2  19   3 57.3577 3.87471   3
   2 -20  -3 41.3298 4.17277   3
  -2 -20   3 36.0139 4.27895   3
  -2  20   3 35.7519 3.46585   3
  -2  20   3 38.0033 3.14870   2
  -1 -20   3 166.522 7.16160   3
   1 -20  -3 150.512 6.85785   3
  -1  20   3 150.686 6.23315   3
  -1  20   3 160.373 5.76884   2
   0 -20   3 47.6628 4.00897   3
   0 -20  -3 44.9787 3.92371   3
   0  20   3 45.5747 3.52231   3
   1 -20   3 17.0431 2.75536   3
   1  20   3 15.3604 2.35837   3
   2 -20   3 87.1463 5.00391   3
   2  20   3 88.5273 4.65132   3
  -2 -21   3 72.4104 5.89735   3
   2 -21  -3 71.3937 5.57503   3
  -2  21   3 66.5992 4.03354   2
  -2  21   3 66.1435 4.48651   3
   1 -21  -3 105.986 5.86160   3
  -1 -21   3 107.462 6.06978   3
  -1  21   3 113.944 4.78021   2
  -1  21   3 116.085 5.42447   3
   0 -21  -3 30.6185 3.36336   3
   0 -21   3 23.5014 3.29268   3
   0  21   3 32.3951 3.09661   3
   1 -21   3 18.3772 2.90343   3
   1  21   3 18.9804 2.59598   3
   2 -21   3 76.5044 4.92257   3
   2  21   3 67.9839 4.42411   3
   2 -22  -3 214.533 9.02129   3
  -2 -22   3 204.926 9.32836   3
  -2  22   3 215.341 8.15118   3
  -2  22   3 200.033 8.67001   2
   1 -22  -3 20.6279 3.24163   3
  -1 -22   3 22.6999 3.52632   3
  -1  22   3 16.1229 2.24102   2
  -1  22   3 21.6267 2.82242   3
   0 -22   3 2.88936 2.37949   3
   0 -22  -3 5.18322 2.25696   3
   0  22   3 4.71560 1.88050   3
   1 -22   3 20.3287 3.09734   3
   1 -22   3 20.2482 3.20167   3
   1  22   3 19.7986 2.71759   3
   1 -23  -3 1.11449 2.26869   3
  -1 -23   3 3.02632 2.69019   3
  -1  23   3 2.93653 1.79249   3
  -1  23   3 0.37965 1.54285   2
   0 -23   3 3.82813 2.53955   3
   0  23   3 7.23327 2.09985   3
   1 -23   3 98.9576 5.76039   3
   1 -23   3 103.497 5.82079   3
   1  23   3 91.3872 5.12052   3
  -1 -24   3 22.7580 3.78347   3
   1 -24  -3 20.6257 3.53992   3
  -1  24   3 22.0956 2.98840   3
  -1  24   3 18.4718 2.48048   2
   0 -24   3 75.3392 5.64653   3
   0  24   3 71.0671 4.49693   3
   1 -24   3 7.51245 2.63028   3
   1  24   3 8.14170 2.31682   3
   0 -25   3 42.4054 4.61273   3
   0  25   3 42.4431 3.79163   3
  -4   0   4 30.7538 3.43028   2
  -4   0   4 24.1362 3.88323   3
   4   0  -4 32.9272 3.85481   3
  -3   0   4 12.3719 2.51640   3
  -3   0   4 8.90380 2.07583   2
   3   0  -4 11.8933 2.24424   3
   2   0  -4 118.914 4.65611   3
  -2   0   4 116.016 4.44900   2
  -2   0   4 121.206 4.94577   3
  -1   0   4 88.4054 3.52376   3
   1   0  -4 85.2667 3.19638   3
  -1   0   4 86.3279 3.20953   2
   0   0   4 2.67501 0.72457   2
   1   0   4 7.91186 1.88985   1
   2   0   4 67.7865 4.69083   1
  -4  -1   4 0.18284 2.59140   3
   4  -1  -4 -2.2591 2.15782   3
  -4  -1   4 2.16711 2.06544   2
  -4   1   4 3.11395 2.72819   3
   4   1  -4 -0.1868 2.25436   3
  -4   1   4 1.29264 2.16601   2
  -3  -1   4 12.9295 2.65801   3
   3  -1  -4 13.8362 2.37111   3
  -3  -1   4 9.79359 2.14034   2
  -3   1   4 11.5271 2.14047   2
   3   1  -4 8.34964 2.07038   3
  -3   1   4 11.1910 2.47549   3
  -2  -1   4 155.849 5.50250   2
  -2  -1   4 169.168 6.10680   3
   2  -1  -4 161.017 5.73761   3
  -2   1   4 161.887 5.52338   2
   2   1  -4 166.762 5.71805   3
  -2   1   4 164.485 5.97852   3
  -1  -1   4 392.667 10.5481   3
  -1  -1   4 379.126 10.1294   2
   1  -1  -4 377.839 10.1545   3
   1   1  -4 381.304 10.0485   3
  -1   1   4 395.122 10.5341   3
  -1   1   4 387.519 10.1539   2
   0   1   4 41.9226 2.06876   3
   0   1   4 41.9114 1.76242   2
   1  -1   4 187.891 7.26230   1
   1   1   4 185.130 7.55878   1
   2  -1   4 92.1555 5.33205   1
   4  -2  -4 1.89890 2.36829   3
  -4  -2   4 3.85156 2.71520   3
  -4  -2   4 5.71378 2.31686   2
  -4   2   4 0.00710 2.54652   3
   4   2  -4 3.57916 2.51664   3
  -4   2   4 -0.2441 2.09807   2
  -3  -2   4 76.7377 4.27268   2
   3  -2  -4 75.9172 4.44710   3
  -3  -2   4 82.9746 4.98053   3
   3   2  -4 67.6333 4.25175   3
  -3   2   4 76.5317 4.12958   2
  -3   2   4 68.8548 4.68532   3
   2  -2  -4 7.07934 1.65489   3
  -2  -2   4 6.15144 1.39711   2
  -2  -2   4 4.73262 1.58326   3
  -2   2   4 7.57379 1.67868   3
  -2   2   4 6.29074 1.47711   2
   2   2  -4 5.49264 1.48067   3
  -1  -2   4 21.2114 1.85085   3
  -1  -2   4 19.8419 1.63521   2
   1  -2  -4 18.3926 1.70702   3
  -1   2   4 19.5938 1.62248   2
  -1   2   4 24.1037 1.97759   3
   0   2   4 134.807 4.46738   3
   0   2   4 148.138 4.11222   2
   0   2   4 142.909 4.29956   3
   1  -2   4 65.9353 3.77643   1
   1   2   4 62.3759 4.19750   1
  -4  -3   4 75.4017 5.33863   2
   4  -3  -4 86.6741 5.90336   3
  -4  -3   4 89.1685 6.52507   3
  -4   3   4 85.1222 5.06020   2
  -4   3   4 73.9666 5.94147   3
   4   3  -4 80.4872 5.41602   3
   3  -3  -4 19.0526 2.69020   3
  -3  -3   4 21.3284 2.50629   2
  -3  -3   4 27.7846 3.32679   3
  -3   3   4 23.5681 2.63375   2
  -3   3   4 22.2543 3.02820   3
   3   3  -4 20.8709 2.63247   3
  -2  -3   4 108.177 4.18871   2
  -2  -3   4 105.480 4.69726   3
   2  -3  -4 101.114 4.49857   3
  -2   3   4 102.685 4.17496   2
  -2   3   4 94.6134 4.51785   3
   2   3  -4 107.619 4.24338   3
  -1  -3   4 71.1641 3.24250   3
   1  -3  -4 77.6620 3.17670   3
  -1  -3   4 77.9313 3.00181   2
  -1   3   4 74.4317 2.97238   2
  -1   3   4 77.0389 3.35724   3
   0   3   4 153.865 4.58251   3
   0   3   4 153.777 4.36186   2
   0   3   4 144.486 4.79357   3
   1  -3   4 419.973 12.6080   1
   1   3   4 421.454 13.8593   1
  -4  -4   4 34.1427 4.14653   3
   4  -4  -4 27.0310 3.74566   3
  -4  -4   4 26.4305 3.41382   2
  -4   4   4 25.3911 3.33315   2
   4   4  -4 22.4874 3.21455   3
  -4   4   4 24.8333 3.63228   3
  -3  -4   4 106.676 5.76937   3
  -3  -4   4 120.197 5.17451   2
   3  -4  -4 112.242 5.45186   3
  -3   4   4 113.444 5.02797   2
  -3   4   4 108.151 5.55973   3
   3   4  -4 113.335 5.13916   3
  -2  -4   4 340.149 10.2302   3
   2  -4  -4 336.790 9.95071   3
  -2  -4   4 317.146 9.52653   2
  -2   4   4 332.662 9.49822   2
   2   4  -4 338.415 9.58369   3
  -2   4   4 329.748 10.0189   3
   1  -4  -4 163.525 5.14428   3
  -1  -4   4 151.752 5.20861   3
  -1  -4   4 159.671 4.90611   2
  -1   4   4 156.172 4.87506   2
  -1   4   4 152.977 5.21743   3
   0   4   4 13.5467 1.30871   3
   0   4   4 12.2574 1.14918   2
   0   4   4 12.2567 1.44726   3
   1  -4   4 762.780 20.1446   1
   1   4   4 732.345 21.8608   1
  -4  -5   4 126.339 7.17466   3
   4  -5  -4 105.515 6.69404   3
  -4  -5   4 118.043 6.05202   2
  -4   5   4 112.231 6.62897   3
  -4   5   4 104.269 5.92683   2
  -3  -5   4 41.0074 3.77260   3
  -3  -5   4 41.1971 3.35014   2
   3  -5  -4 44.2116 3.66527   3
  -3   5   4 40.6072 3.32555   2
   3   5  -4 36.4391 3.16525   3
  -3   5   4 35.4657 3.60786   3
  -2  -5   4 12.2979 2.02231   3
  -2  -5   4 13.4371 1.78911   2
   2  -5  -4 15.0325 2.10256   3
   2   5  -4 11.2660 1.59028   3
  -2   5   4 16.7868 1.87175   2
   1  -5  -4 177.740 5.65393   3
  -1  -5   4 173.316 5.35862   2
  -1  -5   4 176.238 5.75671   3
  -1   5   4 176.136 5.75014   3
  -1   5   4 177.375 5.37686   2
   0   5   4 184.847 5.95551   3
   0   5   4 195.550 5.60398   3
   3   5   4 67.3258 3.19539   3
   3  -6  -4 108.664 5.47625   3
  -3  -6   4 105.358 4.98725   2
  -3  -6   4 107.434 5.78389   3
  -3   6   4 110.476 4.94144   2
  -3   6   4 106.981 5.51107   3
   3   6  -4 105.039 5.20431   3
   2  -6  -4 407.481 11.7300   3
  -2  -6   4 402.544 11.3076   2
  -2  -6   4 402.458 11.9634   3
  -2   6   4 398.932 11.2426   2
   2   6  -4 403.417 11.2383   3
  -2   6   4 411.322 11.7501   3
  -1  -6   4 171.646 5.31564   2
  -1  -6   4 178.101 5.79897   3
   1  -6  -4 167.820 5.58651   3
  -1   6   4 170.344 5.32539   2
  -1   6   4 176.015 5.69674   3
   0   6   4 288.881 7.95942   3
   1   6   4 205.439 6.00585   3
   2   6   4 267.269 7.57856   3
   3   6   4 34.5919 2.57030   3
   3  -7  -4 36.5598 3.59527   3
  -3  -7   4 36.0239 3.18851   2
  -3  -7   4 37.2361 3.88732   3
  -3   7   4 40.5177 3.73611   3
  -3   7   4 37.0665 3.17174   2
   3   7  -4 31.6417 3.31148   3
   2  -7  -4 120.243 5.13749   3
  -2  -7   4 121.352 4.71421   2
  -2  -7   4 124.141 5.31986   3
  -2   7   4 122.082 5.11295   3
  -2   7   4 121.848 4.66697   2
   2   7  -4 119.738 4.59084   3
  -1  -7   4 50.4773 2.48858   2
  -1  -7   4 42.6088 2.79498   3
   1  -7  -4 45.4469 2.77625   3
  -1   7   4 46.0484 2.44424   2
  -1   7   4 45.3158 2.71651   3
   0   7   4 21.6793 1.73524   3
   1   7   4 885.840 21.9523   3
   2   7   4 85.1134 3.49847   3
   3   7   4 50.9678 2.99536   3
  -3  -8   4 7.31950 2.67223   3
   3  -8  -4 8.47812 2.35480   3
  -3  -8   4 8.53188 2.03782   2
  -3   8   4 9.34501 2.13984   2
  -3   8   4 6.46414 2.32786   3
  -2  -8   4 113.226 4.52459   2
  -2  -8   4 109.383 5.09587   3
   2  -8  -4 113.350 4.98652   3
  -2   8   4 118.849 4.99457   3
  -2   8   4 113.195 4.43169   2
   2   8  -4 110.747 4.84972   3
  -1  -8   4 173.826 5.90193   3
  -1  -8   4 175.839 5.46521   2
   1  -8  -4 173.985 5.86882   3
  -1   8   4 175.207 5.47561   2
  -1   8   4 173.326 5.82379   3
   0   8   4 58.1728 2.69294   3
   1   8   4 185.354 5.75191   3
   2   8   4 145.452 4.95933   3
   3   8   4 33.8953 2.69097   3
  -3  -9   4 6.95721 2.52877   3
   3  -9  -4 3.54438 2.21777   3
  -3  -9   4 9.55437 2.12252   2
  -3   9   4 7.28476 2.09196   2
  -3   9   4 8.43571 2.37964   3
  -2  -9   4 61.0303 3.32522   2
  -2  -9   4 62.7033 3.93724   3
   2  -9  -4 60.9844 3.84434   3
  -2   9   4 60.8140 3.26936   2
  -2   9   4 58.4664 3.62976   3
  -1  -9   4 43.5216 2.86800   3
  -1  -9   4 42.1881 2.34470   2
   1  -9  -4 37.2811 2.77533   3
  -1   9   4 38.8103 2.36032   2
  -1   9   4 42.1582 2.69503   3
   0  -9   4 77.9986 2.85978   2
   0   9   4 82.1011 3.31643   3
   1   9   4 18.4220 1.86182   3
   2   9   4 221.725 6.81453   3
   3   9   4 12.1706 1.93413   3
  -3 -10   4 21.3008 2.71372   2
  -3 -10   4 15.1115 3.11880   3
   3 -10  -4 17.4051 2.94443   3
  -3  10   4 16.3706 2.44404   2
  -3  10   4 14.3172 2.75292   3
   2 -10  -4 131.275 5.57406   3
  -2 -10   4 127.147 5.72290   3
  -2 -10   4 130.443 5.05893   2
  -2  10   4 127.592 5.38893   3
  -2  10   4 131.181 4.94924   2
  -1 -10   4 274.528 8.40335   3
   1 -10  -4 263.426 8.31422   3
  -1 -10   4 263.161 7.73799   2
  -1  10   4 274.711 8.20359   3
  -1  10   4 265.869 7.77274   2
   0 -10  -4 36.3059 2.36927   3
   0 -10   4 35.9085 1.92959   2
   0  10   4 32.7416 2.22569   3
   1  10   4 41.5448 2.58380   3
   2  10   4 64.4212 3.21488   3
   3  10   4 11.2396 1.87511   3
  -3 -11   4 1.56717 2.49327   3
  -3 -11   4 8.31805 2.22082   2
   3 -11  -4 6.74817 2.36090   3
  -3  11   4 4.83033 2.01485   2
  -3  11   4 6.16128 2.39666   3
  -2 -11   4 1.38792 1.70597   3
   2 -11  -4 1.57590 1.72763   3
  -2 -11   4 2.38650 1.43038   2
  -2  11   4 1.19484 1.39606   2
  -2  11   4 3.15996 1.68552   3
  -1 -11   4 90.8423 3.61382   2
   1 -11  -4 88.5755 4.14817   3
  -1 -11   4 82.4682 4.12789   3
  -1  11   4 91.8077 4.03794   3
  -1  11   4 89.5951 3.63287   2
   0 -11   4 377.045 10.4862   3
   0  11   4 380.563 10.5556   3
   1  11   4 80.6192 3.61226   3
   2  11   4 13.5897 1.83815   3
   3  11   4 51.4335 3.36273   3
   3 -12  -4 51.1744 4.43870   3
  -3 -12   4 42.9125 4.58664   3
  -3  12   4 43.4578 4.00327   3
  -3  12   4 51.2020 3.81426   2
   2 -12  -4 161.064 6.54219   3
  -2 -12   4 161.641 5.93068   2
  -2 -12   4 165.485 6.82953   3
  -2  12   4 170.215 5.92418   2
  -2  12   4 162.413 6.36398   3
   1 -12  -4 195.370 6.92355   3
  -1 -12   4 208.802 6.40630   2
  -1 -12   4 203.305 7.11729   3
  -1  12   4 206.172 6.83815   3
  -1  12   4 204.356 6.40870   2
   0 -12   4 628.395 16.2848   3
   0  12   4 616.703 16.3453   3
   1  12   4 61.8819 3.21518   3
   2  12   4 216.133 7.05451   3
   3  12   4 34.8080 3.13827   3
  -3 -13   4 235.908 9.93668   3
   3 -13  -4 234.054 9.20550   3
  -3  13   4 240.234 8.22859   2
  -3  13   4 236.211 8.96720   3
  -2 -13   4 32.3276 3.41551   3
   2 -13  -4 28.5445 3.15347   3
  -2  13   4 29.9121 2.67441   2
  -2  13   4 27.2450 2.96783   3
   1 -13  -4 254.802 8.29256   3
  -1 -13   4 251.359 8.33749   3
  -1  13   4 252.314 8.03326   3
  -1  13   4 246.112 7.57280   2
   0 -13   4 117.923 4.71760   3
   0  13   4 118.578 4.63378   3
   1  13   4 128.577 4.93790   3
   2  13   4 10.3855 1.80102   3
   3  13   4 13.3491 2.21637   3
  -3 -14   4 57.6841 5.36569   3
   3 -14  -4 51.2633 4.54193   3
  -3  14   4 56.7841 4.54854   3
  -3  14   4 60.9451 4.05859   2
   2 -14  -4 76.9337 4.68577   3
  -2 -14   4 78.7415 4.96432   3
  -2  14   4 82.4790 4.52580   3
  -2  14   4 80.5364 4.02211   2
   1 -14  -4 90.1696 4.45081   3
  -1 -14   4 82.4905 4.50773   3
  -1  14   4 86.2419 4.18573   3
  -1  14   4 83.3996 3.76380   2
   0 -14   4 1169.98 29.2087   3
   0  14   4 1158.12 29.2090   3
   1  14   4 49.4809 3.05388   3
   2  14   4 21.7628 2.37700   3
   3 -15  -4 199.518 8.34352   3
  -3 -15   4 189.986 8.69332   3
  -3  15   4 180.760 7.17003   2
  -3  15   4 188.196 7.99660   3
   2 -15  -4 11.0175 2.47312   3
  -2 -15   4 6.32107 2.38600   3
  -2  15   4 9.83307 1.95857   2
  -2  15   4 10.1474 2.25650   3
   1 -15  -4 356.178 11.0458   3
  -1 -15   4 351.462 11.1037   3
  -1  15   4 361.861 10.2299   2
  -1  15   4 356.153 10.7188   3
   0 -15   4 189.037 6.77514   3
   0  15   4 198.419 6.68215   3
   1  15   4 178.907 6.34765   3
   2  15   4 11.4812 1.97799   3
  -3 -16   4 47.0296 5.01782   3
   3 -16  -4 41.1793 4.39464   3
  -3  16   4 43.8122 4.25326   3
  -3  16   4 48.7268 3.78064   2
   2 -16  -4 43.5895 3.93620   3
  -2 -16   4 44.2732 4.36361   3
  -2  16   4 40.7091 3.62777   3
  -2  16   4 37.2041 3.10789   2
  -1 -16   4 318.836 10.6695   3
   1 -16  -4 338.120 10.6353   3
  -1  16   4 351.861 9.87404   2
  -1  16   4 329.917 10.3283   3
   0 -16   4 15.7468 2.37696   3
   0  16   4 15.8515 2.11629   3
   1  16   4 122.376 5.10112   3
   2  16   4 10.4927 1.94085   3
   2 -17  -4 7.23934 2.43012   3
  -2 -17   4 8.82802 2.68133   3
  -2  17   4 7.31595 1.92769   2
  -2  17   4 7.62120 2.17127   3
  -1 -17   4 155.693 6.65777   3
   1 -17  -4 147.274 6.34711   3
  -1  17   4 146.926 5.54728   2
  -1  17   4 153.634 6.10954   3
   0 -17   4 16.6484 2.49758   3
   0  17   4 12.2772 2.00028   3
   1 -17   4 47.6761 3.57490   3
   1  17   4 42.2012 3.19532   3
   2  17   4 9.12048 2.00516   3
   2 -18  -4 20.3912 3.14006   3
  -2 -18   4 15.6205 3.17649   3
  -2  18   4 16.5104 2.77959   3
  -2  18   4 21.0841 2.52946   2
   1 -18  -4 9.17867 3.55363   3
  -1 -18   4 5.68502 2.32978   3
  -1  18   4 4.44137 1.69436   2
  -1  18   4 6.23767 2.08264   3
   0 -18   4 60.2154 4.14387   3
   0  18   4 52.7326 3.54554   3
   1 -18   4 2.04183 1.95893   3
   1  18   4 2.59470 1.58079   3
   2  18   4 13.8873 2.32649   3
   2 -19  -4 36.3135 3.88438   3
  -2 -19   4 40.7939 4.76333   3
  -2  19   4 26.7075 3.33506   3
  -2  19   4 38.1460 3.31628   2
  -1 -19   4 6.17539 2.49507   3
  -1  19   4 9.55266 1.98027   2
  -1  19   4 10.2527 2.32310   3
   0 -19   4 23.7937 3.09184   3
   0  19   4 25.9741 2.76899   3
   1 -19   4 61.5956 4.33228   3
   1  19   4 58.9950 3.87149   3
   2 -20  -4 20.5141 3.41756   3
  -2 -20   4 25.2338 4.04426   3
  -2  20   4 21.9463 2.69810   2
  -2  20   4 27.3310 3.39338   3
  -1 -20   4 36.5822 3.92777   3
  -1  20   4 32.0019 2.94127   2
  -1  20   4 33.2125 3.34544   3
   0 -20   4 2.49962 2.15299   3
   0  20   4 -1.5902 1.51324   3
   1 -20   4 2.89228 2.14933   3
   1  20   4 0.76052 1.65184   3
  -1 -21   4 -2.7443 2.14666   3
  -1  21   4 -1.1832 1.43848   2
  -1  21   4 -1.5074 1.80300   3
   0 -21   4 6.53934 2.65620   3
   0  21   4 4.71057 1.94500   3
   1 -21   4 131.617 6.32490   3
   1  21   4 130.643 5.91285   3
  -1 -22   4 18.8472 3.37116   3
  -1  22   4 14.4037 2.85024   3
  -1  22   4 19.3085 2.61249   2
   0 -22   4 23.8011 3.52291   3
   0  22   4 22.0224 2.90507   3
  -3   0   5 10.0038 2.37832   2
  -3   0   5 13.1816 2.79832   3
  -2   0   5 7.64670 1.94746   3
  -2   0   5 7.66183 1.67406   2
  -1   0   5 31.9076 2.50596   3
  -1   0   5 29.4542 2.22657   2
   0   0   5 3.74760 0.99491   2
   1   0   5 36.0942 3.45292   1
  -3  -1   5 64.4639 5.00060   3
  -3  -1   5 59.1673 4.36197   2
  -3   1   5 73.4366 4.34279   2
  -3   1   5 66.1139 5.11097   3
  -2  -1   5 136.938 5.26832   2
  -2  -1   5 138.755 5.80709   3
  -2   1   5 134.597 5.20666   2
  -2   1   5 145.648 5.83073   3
  -1  -1   5 104.485 3.80907   2
  -1  -1   5 93.8332 4.13460   3
  -1   1   5 101.864 4.22645   3
  -1   1   5 98.6786 3.80804   2
   0  -1   5 75.2828 2.82730   2
   0   1   5 81.9249 2.88781   2
   1  -1   5 43.8270 3.63251   1
  -3  -2   5 68.7297 5.16060   3
  -3  -2   5 65.2919 4.29020   2
  -3   2   5 68.2215 5.08920   3
  -3   2   5 65.2258 4.29285   2
  -2  -2   5 28.0145 2.54287   2
  -2  -2   5 21.4383 2.70476   3
  -2   2   5 28.2828 2.51786   2
  -2   2   5 28.1224 2.87329   3
  -1  -2   5 105.802 4.29203   3
  -1  -2   5 109.349 3.95039   2
  -1   2   5 100.896 3.86954   2
  -1   2   5 96.5629 4.18572   3
   0   2   5 371.532 10.0009   3
   0   2   5 374.765 9.71925   2
   1  -2   5 68.3617 4.31827   1
  -3  -3   5 28.9160 3.63515   3
  -3  -3   5 26.1667 3.03929   2
  -3   3   5 31.9210 3.76288   3
  -3   3   5 25.3145 2.96050   2
  -2  -3   5 31.1291 2.69172   2
  -2  -3   5 22.2618 2.73294   3
  -2   3   5 25.4185 2.51029   2
  -2   3   5 27.2280 2.88150   3
  -1  -3   5 191.543 6.33108   3
  -1  -3   5 186.922 5.87530   2
  -1   3   5 190.171 5.90077   2
  -1   3   5 185.905 6.31765   3
   0   3   5 194.964 5.63944   2
   0   3   5 196.608 5.95082   3
   1  -3   5 422.426 13.4082   1
  -3  -4   5 116.726 6.50975   3
  -3  -4   5 116.191 5.52259   2
  -3   4   5 115.548 6.21356   3
  -3   4   5 119.214 5.66133   2
  -2  -4   5 18.0918 2.53297   3
  -2  -4   5 17.4601 2.16962   2
  -2   4   5 18.5171 2.15323   2
  -2   4   5 17.9356 2.50789   3
  -1  -4   5 385.730 11.1164   3
  -1  -4   5 399.626 10.6760   2
  -1   4   5 393.776 11.1760   3
  -1   4   5 393.661 10.6705   2
   0   4   5 592.745 15.2200   3
   0   4   5 590.025 14.8892   2
  -3  -5   5 94.4898 5.61336   3
  -3  -5   5 83.6713 4.81922   2
  -3   5   5 85.1353 4.73697   2
  -3   5   5 91.5348 5.45531   3
  -2  -5   5 40.3053 3.43175   3
  -2  -5   5 33.8263 2.91482   2
  -2   5   5 36.9095 3.25985   3
  -2   5   5 43.5106 3.09331   2
  -1  -5   5 14.6137 1.67505   2
  -1  -5   5 9.75539 1.67817   3
  -1   5   5 8.06676 1.65970   3
  -1   5   5 10.3450 1.48817   2
   0   5   5 836.448 20.9879   3
   0   5   5 836.080 20.6423   2
  -3  -6   5 102.091 5.93819   3
  -3  -6   5 89.0400 4.99814   2
  -3   6   5 88.1379 5.66212   3
  -3   6   5 95.0870 4.98195   2
  -2  -6   5 70.2555 4.42433   3
  -2  -6   5 71.3301 3.72936   2
  -2   6   5 68.5489 4.05286   3
  -2   6   5 69.3019 3.67071   2
  -1  -6   5 106.121 4.39327   3
  -1  -6   5 101.040 3.91335   2
  -1   6   5 106.571 4.39697   3
  -1   6   5 93.4318 3.89567   2
   0   6   5 22.9375 2.01835   3
   0   6   5 23.4730 1.86242   2
   1   6   5 75.7737 3.15529   3
  -3  -7   5 31.5770 3.31156   2
  -3  -7   5 27.9598 3.74300   3
  -3   7   5 35.4540 3.37270   2
  -3   7   5 29.3073 3.62407   3
  -2  -7   5 62.4384 4.10494   3
  -2  -7   5 69.9002 3.62265   2
  -2   7   5 53.2459 3.85874   3
  -2   7   5 61.1863 3.50290   2
  -1  -7   5 133.327 4.75468   2
  -1  -7   5 135.334 5.23073   3
  -1   7   5 127.336 5.16655   3
  -1   7   5 143.826 4.84659   2
   0   7   5 258.748 7.43080   2
   0   7   5 268.466 7.83808   3
   1   7   5 136.021 4.66753   3
   2   7   5 17.1354 1.86182   3
  -3  -8   5 3.61572 2.11781   2
  -3  -8   5 10.3140 2.99214   3
  -3   8   5 10.2573 2.40744   2
  -3   8   5 2.72762 2.34261   3
  -2  -8   5 128.426 5.82347   3
  -2  -8   5 133.909 5.25337   2
  -2   8   5 129.501 5.77817   3
  -2   8   5 134.229 5.28263   2
  -1  -8   5 52.6177 2.84825   2
  -1  -8   5 48.9263 3.21012   3
  -1   8   5 52.8337 2.83338   2
  -1   8   5 50.2171 3.20098   3
   0   8   5 72.9133 3.39667   3
   0   8   5 72.7508 3.08055   2
   1   8   5 32.2792 2.26829   3
   2   8   5 22.9895 2.14465   3
  -3  -9   5 47.0604 4.85375   3
  -3  -9   5 67.2394 4.37776   2
  -3   9   5 66.3215 4.99821   3
  -3   9   5 52.9810 4.14394   2
  -2  -9   5 178.597 6.44556   2
  -2  -9   5 173.336 7.05657   3
  -2   9   5 178.891 6.37912   2
  -2   9   5 181.826 6.98063   3
  -1  -9   5 83.0851 3.56280   2
  -1  -9   5 79.2884 3.99348   3
  -1   9   5 80.7637 3.59499   2
  -1   9   5 77.5335 3.97533   3
   0   9   5 124.662 4.28525   2
   0   9   5 113.810 4.50485   3
   1   9   5 66.7624 3.19765   3
   2   9   5 47.1969 2.90395   3
  -3 -10   5 142.523 6.22411   2
  -3 -10   5 154.138 7.77082   3
  -3  10   5 128.795 6.22846   2
  -3  10   5 140.092 6.96624   3
  -2 -10   5 231.932 8.56663   3
  -2 -10   5 217.974 7.46344   2
  -2  10   5 213.655 7.43646   2
  -2  10   5 228.011 8.17908   3
  -1 -10   5 74.5741 4.11597   3
  -1 -10   5 82.4414 3.61640   2
  -1  10   5 77.4308 3.60134   2
  -1  10   5 82.7562 4.04170   3
   0  10   5 97.0001 3.85471   2
   0  10   5 107.243 4.28755   3
   1  10   5 47.6589 2.80439   3
   2  10   5 3.98427 1.45144   3
  -3 -11   5 15.9885 3.46548   3
  -3 -11   5 16.7737 2.86552   2
  -3  11   5 17.7938 3.30118   3
  -3  11   5 13.1403 2.55016   2
  -2 -11   5 15.0321 2.17629   2
  -2 -11   5 11.3626 2.57596   3
  -2  11   5 9.45840 1.99091   2
  -2  11   5 7.65524 2.23083   3
  -1 -11   5 277.121 8.27304   2
  -1 -11   5 273.557 8.97826   3
  -1  11   5 285.337 8.90217   3
  -1  11   5 273.655 8.31208   2
   0 -11   5 9.28583 1.31688   2
   0  11   5 7.63174 1.56557   3
   0  11   5 6.48646 1.33532   2
   1  11   5 109.506 4.43834   3
   2  11   5 36.4678 2.87722   3
  -2 -12   5 5.70482 2.30416   3
  -2 -12   5 5.67298 1.82158   2
  -2  12   5 8.57915 2.21420   3
  -2  12   5 5.25017 1.82262   2
  -1 -12   5 101.788 4.91412   3
  -1 -12   5 98.8047 4.17188   2
  -1  12   5 110.518 4.41999   2
  -1  12   5 103.752 4.80549   3
   0  12   5 32.3104 2.67929   3
   1  12   5 42.3459 2.89209   3
   2  12   5 14.2965 2.11473   3
  -2 -13   5 86.7944 5.55639   3
  -2 -13   5 86.5302 4.44507   2
  -2  13   5 82.6781 4.36828   2
  -2  13   5 89.2503 5.00282   3
  -1 -13   5 365.646 10.4692   2
  -1 -13   5 363.862 11.3497   3
  -1  13   5 373.773 11.1691   3
  -1  13   5 363.980 10.6131   2
   0 -13   5 70.3867 3.81435   3
   0  13   5 71.8059 3.72566   3
   1  13   5 34.6697 2.84190   3
   2  13   5 34.7532 3.05263   3
  -2 -14   5 117.426 6.39647   3
  -2  14   5 114.856 5.22666   2
  -2  14   5 112.529 5.75233   3
  -1 -14   5 129.142 5.72955   3
  -1  14   5 123.099 5.41804   3
  -1  14   5 116.994 4.93204   2
   0 -14   5 30.2498 2.82810   3
   0  14   5 28.9074 2.68885   3
   1  14   5 62.1164 3.61336   3
   2  14   5 75.2988 4.13841   3
  -2 -15   5 136.020 6.79614   3
  -2  15   5 139.964 5.85165   2
  -2  15   5 136.237 6.44777   3
  -1 -15   5 241.244 8.80373   3
  -1  15   5 259.814 8.66759   3
  -1  15   5 248.034 8.04682   2
   0 -15   5 3.95764 1.91977   3
   0  15   5 5.77548 1.66657   3
   1  15   5 24.8752 2.64759   3
  -2 -16   5 201.626 8.67765   3
  -2  16   5 202.231 8.12172   3
  -2  16   5 210.319 7.51138   2
  -1 -16   5 169.379 7.12282   3
  -1  16   5 178.119 6.31805   2
  -1  16   5 162.117 6.74255   3
   0 -16   5 63.0532 4.27598   3
   0  16   5 54.2221 3.60377   3
   1  16   5 73.8234 4.08743   3
  -2 -17   5 234.199 9.73686   3
  -2  17   5 243.620 8.39766   2
  -2  17   5 232.000 8.90518   3
  -1 -17   5 10.5667 2.52723   3
  -1  17   5 8.06192 2.30777   3
  -1  17   5 11.0332 2.05088   2
   0 -17   5 15.1443 2.76270   3
   0  17   5 19.6048 2.56433   3
   1  17   5 27.3632 3.00643   3
  -1 -18   5 1.29638 2.24746   3
  -1  18   5 1.64709 1.69574   2
  -1  18   5 1.16716 1.83999   3
   0 -18   5 85.1271 5.08328   3
   0  18   5 81.0965 4.16186   2
   0  18   5 75.1127 4.39519   3
   1  18   5 39.3254 3.50941   3
  -1 -19   5 52.5094 4.80068   3
  -1  19   5 64.0235 3.97473   2
  -1  19   5 52.5373 4.30568   3
   0 -19   5 21.2488 3.15824   3
   0  19   5 23.5555 2.61358   2
   0  19   5 17.1374 2.74096   3
  -2   0   6 287.577 9.08453   2
  -2   0   6 273.068 9.89086   3
  -1   0   6 279.878 8.90777   3
  -1   0   6 279.371 8.29754   2
   0   0   6 181.971 5.50643   2
  -2  -1   6 45.8717 3.91974   3
  -2  -1   6 41.7515 3.30323   2
  -2   1   6 41.3462 3.23404   2
  -2   1   6 34.4002 3.41974   3
  -1  -1   6 184.191 6.04115   2
  -1  -1   6 181.209 6.57627   3
  -1   1   6 175.328 6.04061   2
  -1   1   6 181.917 6.52624   3
   0  -1   6 10.7808 1.41474   2
   0   1   6 7.99253 1.28456   2
   0   1   6 10.2964 1.62538   3
  -2  -2   6 293.444 9.30930   2
  -2  -2   6 287.838 9.94515   3
  -2   2   6 297.867 9.28762   2
  -2   2   6 282.466 9.91250   3
  -1  -2   6 202.430 7.09542   3
  -1  -2   6 213.862 6.66389   2
  -1   2   6 204.626 7.14621   3
  -1   2   6 203.384 6.64668   2
   0  -2   6 40.8508 2.30740   2
   0   2   6 39.8602 2.27912   2
   0   2   6 41.3118 2.69336   3
  -2  -3   6 143.172 5.78504   2
  -2  -3   6 152.426 6.44420   3
  -2   3   6 139.993 5.82363   2
  -2   3   6 135.673 6.31994   3
  -1  -3   6 175.616 5.86908   2
  -1  -3   6 181.496 6.43313   3
  -1   3   6 176.358 5.90493   2
  -1   3   6 165.056 6.33687   3
   0   3   6 158.138 5.45344   3
   0   3   6 156.883 5.04271   2
  -2  -4   6 71.0738 4.03550   2
  -2  -4   6 64.2205 4.55480   3
  -2   4   6 67.5623 4.09757   2
  -2   4   6 68.8804 4.61619   3
  -1  -4   6 106.564 4.34182   2
  -1  -4   6 113.294 4.89544   3
  -1   4   6 103.343 4.33078   2
  -1   4   6 109.936 4.89293   3
   0  -4   6 176.184 5.32173   2
   0   4   6 167.533 5.80414   3
   0   4   6 172.395 5.42064   2
  -2  -5   6 86.8707 4.54173   2
  -2  -5   6 91.3994 5.28168   3
  -2   5   6 82.4265 5.07657   3
  -2   5   6 91.0228 4.49856   2
  -1  -5   6 289.051 9.13533   3
  -1  -5   6 282.660 8.59553   2
  -1   5   6 291.526 9.19041   3
  -1   5   6 288.608 8.63778   2
   0   5   6 147.522 5.23403   3
   0   5   6 141.411 4.83275   2
  -2  -6   6 71.5658 4.04348   2
  -2  -6   6 60.5214 4.48084   3
  -2   6   6 64.0544 4.56511   3
  -2   6   6 60.1323 3.85652   2
  -1  -6   6 137.042 4.91849   2
  -1  -6   6 133.273 5.47624   3
  -1   6   6 127.395 4.91630   2
  -1   6   6 119.822 5.35926   3
   0   6   6 206.975 6.40213   2
   0   6   6 211.428 6.84843   3
  -2  -7   6 19.8337 2.93597   3
  -2  -7   6 16.4751 2.38401   2
  -2   7   6 16.1171 2.40881   2
  -2   7   6 17.4975 2.85828   3
  -1  -7   6 363.504 11.2250   3
  -1  -7   6 380.045 10.7083   2
  -1   7   6 367.549 10.7959   2
  -1   7   6 397.285 11.4761   3
   0  -7   6 5.90921 1.55230   3
   0  -7   6 9.22202 1.39235   2
   0   7   6 4.24191 1.46941   3
   0   7   6 6.77553 1.40004   2
   1   7   6 1.16259 1.22648   3
  -2  -8   6 90.3646 4.66924   2
  -2  -8   6 89.3017 5.39882   3
  -2   8   6 102.986 4.77922   2
  -2   8   6 88.8076 5.21727   3
  -1  -8   6 67.2630 3.47081   2
  -1  -8   6 68.7546 4.10355   3
  -1   8   6 68.8452 4.05066   3
  -1   8   6 71.0252 3.64435   2
   0  -8   6 2.70058 1.43182   3
   0  -8   6 2.52145 1.17248   2
   0   8   6 3.56348 1.28538   2
   0   8   6 4.09529 1.49673   3
   1   8   6 37.2586 2.65646   3
  -2  -9   6 26.8175 3.46527   3
  -2  -9   6 32.8820 3.15404   2
  -2   9   6 28.0020 2.99980   2
  -2   9   6 38.8960 3.74879   3
  -1  -9   6 16.9244 2.04060   2
  -1  -9   6 19.4137 2.53245   3
  -1   9   6 16.5005 2.41778   3
  -1   9   6 17.2085 2.23353   2
   0  -9   6 160.390 5.69450   3
   0  -9   6 155.881 5.14657   2
   0   9   6 160.955 5.47292   2
   0   9   6 164.316 5.94918   3
   1   9   6 44.0494 2.91273   3
  -2 -10   6 113.150 6.32353   3
  -2 -10   6 111.476 5.23341   2
  -2  10   6 109.030 5.29880   2
  -2  10   6 118.407 6.08133   3
  -1 -10   6 76.4620 3.72747   2
  -1 -10   6 80.2054 4.48668   3
  -1  10   6 73.8645 3.86203   2
  -1  10   6 77.7972 4.42138   3
   0 -10   6 35.5686 2.34917   2
   0  10   6 33.5627 2.57789   2
   0  10   6 30.6836 2.87352   3
   1  10   6 22.2662 2.34696   3
  -2 -11   6 245.019 8.52275   2
  -2 -11   6 244.926 9.83773   3
  -2  11   6 257.774 8.66919   2
  -2  11   6 254.319 9.33823   3
  -1 -11   6 19.8151 2.18721   2
  -1 -11   6 12.3448 2.34838   3
  -1  11   6 14.0326 2.06263   2
  -1  11   6 15.8916 2.54772   3
   0  11   6 -0.0089 1.43499   3
   0  11   6 1.38843 1.20071   2
   1  11   6 12.7187 1.96586   3
  -1 -12   6 27.9903 2.56587   2
  -1 -12   6 30.4572 3.21215   3
  -1  12   6 22.9973 2.94267   3
  -1  12   6 26.4403 2.66696   2
   0  12   6 6.38731 1.84304   3
   0  12   6 9.71923 1.74093   2
   1  12   6 36.1733 3.02678   3
  -1 -13   6 16.1382 2.14639   2
  -1 -13   6 19.7402 2.94206   3
  -1  13   6 23.3283 2.61102   2
  -1  13   6 25.1906 2.99527   3
   0  13   6 5.49373 1.58343   2
   0  13   6 4.27005 1.83924   3
   1  13   6 68.9590 3.91993   3
  -1 -14   6 7.43030 2.47513   3
  -1  14   6 8.52185 2.26471   3
  -1  14   6 12.1501 2.18580   2
   0  14   6 39.6239 3.04883   2
   0  14   6 39.0554 3.42581   3
   0 -15   6 92.3767 5.09022   3
   0  15   6 87.0316 4.23747   2
   0  15   6 81.1113 4.60454   3
  -1   0   7 121.067 5.58274   3
  -1   0   7 115.376 4.92209   2
   0   0   7 42.2672 2.63630   2
  -1  -1   7 11.6781 2.22067   3
  -1  -1   7 16.8546 2.21624   2
  -1   1   7 12.0524 1.85861   2
  -1   1   7 11.5512 2.28781   3
   0  -1   7 50.9799 2.76746   2
   0   1   7 43.0644 2.72202   2
   0   1   7 52.3333 3.25845   3
  -1  -2   7 98.6091 4.51478   2
  -1  -2   7 102.021 5.11975   3
  -1   2   7 91.2091 4.30395   2
  -1   2   7 86.5255 4.93059   3
   0  -2   7 117.674 4.23347   2
   0   2   7 107.901 4.28133   2
   0   2   7 115.163 4.88635   3
  -1  -3   7 9.55312 2.24366   3
  -1  -3   7 8.11447 1.88190   2
  -1   3   7 7.70172 1.79128   2
  -1   3   7 3.24748 1.83777   3
   0   3   7 15.8961 2.28129   3
   0   3   7 15.7581 1.90632   2
  -1  -4   7 9.71001 1.95549   2
  -1  -4   7 10.9400 2.22724   3
  -1   4   7 9.76769 2.31087   3
  -1   4   7 10.1975 1.94606   2
   0   4   7 10.4223 1.65256   2
   0   4   7 8.85247 1.95306   3
  -1  -5   7 88.5288 4.30394   2
  -1  -5   7 98.6986 5.05843   3
  -1   5   7 89.3351 4.34599   2
  -1   5   7 85.3599 4.84643   3
   0   5   7 46.3881 3.31500   3
   0   5   7 53.0899 3.00840   2
  -1  -6   7 89.3228 4.91509   3
  -1  -6   7 79.3677 4.16375   2
  -1   6   7 76.1956 4.08117   2
  -1   6   7 85.2911 4.81227   3
   0  -6   7 10.0610 1.94763   3
   0  -6   7 9.00000 1.64443   2
   0   6   7 8.72552 1.96720   3
   0   6   7 7.00350 1.58291   2
   0   0   0    0.00    0.00   0

 _exptl_absorpt_process_details 'SADABS 2014/4'
 _exptl_absorpt_correction_type   multiscan
 _exptl_absorpt_correction_T_max  0.9485
 _exptl_absorpt_correction_T_min  0.8840
 _exptl_special_details
)
 The following wavelength and cell were deduced by SADABS from the
 direction cosines etc. They are given here for emergency use only:
 CELL 0.71065    3.769   22.032    5.801   89.971   94.555   89.991
)

;
_shelx_hkl_checksum              46222
loop_
_space_group_symop_operation_xyz
'x, y, z'
'-x, y+1/2, -z'
loop_
_atom_site_label
_atom_site_type_symbol
_atom_site_fract_x
_atom_site_fract_y
_atom_site_fract_z
_atom_site_U_iso_or_equiv
_atom_site_adp_type
_atom_site_occupancy
_atom_site_site_symmetry_order
_atom_site_calc_flag
_atom_site_refinement_flags_posn
_atom_site_refinement_flags_adp
O1 O 0.2917(5) 0.06493(8) 0.3738(3) 0.0169(5) Uani 1 1 d . .
N1 N 0.5969(6) 0.14291(10) 0.6540(4) 0.0134(5) Uani 1 1 d . .
N2 N 0.8298(6) 0.11580(10) 1.0047(4) 0.0138(5) Uani 1 1 d . .
C1 C 0.3062(7) -0.08272(12) 0.6551(5) 0.0172(6) Uani 1 1 d . .
H1 H 0.2326 -0.1232 0.6202 0.021 Uiso 1 1 calc R U
C2 C 0.4705(7) -0.06914(12) 0.8723(5) 0.0164(6) Uani 1 1 d . .
H8 H 0.5062 -0.1000 0.9863 0.020 Uiso 1 1 calc R U
C3 C 0.5806(7) -0.01054(12) 0.9202(5) 0.0161(6) Uani 1 1 d . .
H9 H 0.6932 -0.0013 1.0683 0.019 Uiso 1 1 calc R U
C4 C 0.5306(7) 0.03570(12) 0.7560(5) 0.0131(5) Uani 1 1 d . .
C5 C 0.6511(7) 0.09759(12) 0.8038(5) 0.0131(6) Uani 1 1 d . .
C6 C 0.7515(7) 0.19359(12) 0.7640(5) 0.0140(6) Uani 1 1 d . .
C7 C 0.7724(7) 0.25368(12) 0.6903(5) 0.0166(6) Uani 1 1 d . .
H5 H 0.6732 0.2659 0.5419 0.020 Uiso 1 1 calc R U
C8 C 0.9427(7) 0.29476(13) 0.8408(5) 0.0183(6) Uani 1 1 d . .
H2 H 0.9631 0.3358 0.7936 0.022 Uiso 1 1 calc R U
C9 C 1.0864(7) 0.27763(12) 1.0617(5) 0.0173(6) Uani 1 1 d . .
H3 H 1.1979 0.3075 1.1610 0.021 Uiso 1 1 calc R U
C10 C 1.0696(7) 0.21808(12) 1.1382(5) 0.0159(6) Uani 1 1 d . .
H10 H 1.1690 0.2060 1.2867 0.019 Uiso 1 1 calc R U
C11 C 0.8978(7) 0.17707(12) 0.9838(5) 0.0131(5) Uani 1 1 d . .
C12 C 0.2489(8) -0.03778(11) 0.4892(5) 0.0162(6) Uani 1 1 d . .
H7 H 0.1371 -0.0475 0.3414 0.019 Uiso 1 1 calc R U
C13 C 0.3552(7) 0.02155(11) 0.5393(5) 0.0138(6) Uani 1 1 d . .
H4 H 0.9016 0.0926 1.1283 0.050 Uiso 1 1 d . .
H6 H 0.3724 0.1017 0.4369 0.050 Uiso 1 1 d . .
loop_
_atom_site_aniso_label
_atom_site_aniso_U_11
_atom_site_aniso_U_22
_atom_site_aniso_U_33
_atom_site_aniso_U_23
_atom_site_aniso_U_13
_atom_site_aniso_U_12
O1 0.0222(10) 0.0156(10) 0.0116(10) 0.0014(8) -0.0056(8) -0.0009(8)
N1 0.0131(11) 0.0136(10) 0.0135(11) -0.0013(10) 0.0011(9) -0.0006(9)
N2 0.0170(11) 0.0131(11) 0.0111(12) 0.0004(9) 0.0006(10) 0.0003(8)
C1 0.0175(13) 0.0148(13) 0.0196(15) -0.0019(11) 0.0043(12) -0.0002(10)
C2 0.0178(13) 0.0164(14) 0.0150(14) 0.0029(11) 0.0024(11) 0.0029(10)
C3 0.0189(13) 0.0185(14) 0.0108(13) 0.0015(11) 0.0006(11) 0.0030(11)
C4 0.0112(11) 0.0151(13) 0.0131(14) -0.0009(10) 0.0021(11) 0.0015(10)
C5 0.0118(12) 0.0178(13) 0.0096(15) 0.0003(10) 0.0010(11) 0.0023(10)
C6 0.0117(13) 0.0175(13) 0.0132(13) -0.0014(11) 0.0040(11) 0.0004(10)
C7 0.0169(13) 0.0168(13) 0.0162(15) 0.0023(11) 0.0016(12) 0.0022(10)
C8 0.0186(14) 0.0146(12) 0.0224(15) -0.0007(11) 0.0063(12) 0.0004(10)
C9 0.0152(14) 0.0171(14) 0.0195(15) -0.0056(11) 0.0005(12) -0.0020(10)
C10 0.0138(12) 0.0213(14) 0.0128(14) -0.0025(11) 0.0015(11) 0.0009(11)
C11 0.0109(12) 0.0155(13) 0.0131(13) -0.0006(10) 0.0024(11) 0.0019(10)
C12 0.0162(13) 0.0188(15) 0.0132(15) -0.0012(11) -0.0015(11) -0.0006(10)
C13 0.0132(12) 0.0168(14) 0.0112(14) 0.0008(10) 0.0002(11) 0.0026(10)
loop_
_atom_type_symbol
_atom_type_description
_atom_type_scat_dispersion_real
_atom_type_scat_dispersion_imag
_atom_type_scat_source
C C 0.0033 0.0016 'International Tables Vol C Tables 4.2.6.8 and 6.1.1.4'
H H 0.0000 0.0000 'International Tables Vol C Tables 4.2.6.8 and 6.1.1.4'
N N 0.0061 0.0033 'International Tables Vol C Tables 4.2.6.8 and 6.1.1.4'
O O 0.0106 0.0060 'International Tables Vol C Tables 4.2.6.8 and 6.1.1.4'
loop_
_geom_angle_atom_site_label_1
_geom_angle_atom_site_label_2
_geom_angle_atom_site_label_3
_geom_angle
C13 O1 H6 107.4
C5 N1 C6 105.4(2)
C5 N2 C11 107.2(2)
C5 N2 H4 127.6
C11 N2 H4 125.2
C12 C1 C2 120.6(3)
C12 C1 H1 119.7
C2 C1 H1 119.7
C3 C2 C1 119.3(3)
C3 C2 H8 120.4
C1 C2 H8 120.4
C2 C3 C4 121.6(3)
C2 C3 H9 119.2
C4 C3 H9 119.2
C3 C4 C13 118.4(3)
C3 C4 C5 121.9(2)
C13 C4 C5 119.6(2)
N1 C5 N2 112.3(2)
N1 C5 C4 123.3(3)
N2 C5 C4 124.4(2)
N1 C6 C7 130.7(3)
N1 C6 C11 109.3(2)
C7 C6 C11 119.9(3)
C8 C7 C6 117.5(3)
C8 C7 H5 121.2
C6 C7 H5 121.2
C7 C8 C9 121.9(3)
C7 C8 H2 119.0
C9 C8 H2 119.0
C10 C9 C8 121.5(3)
C10 C9 H3 119.3
C8 C9 H3 119.3
C9 C10 C11 115.9(3)
C9 C10 H10 122.0
C11 C10 H10 122.0
N2 C11 C10 131.0(3)
N2 C11 C6 105.8(2)
C10 C11 C6 123.2(3)
C1 C12 C13 120.0(3)
C1 C12 H7 120.0
C13 C12 H7 120.0
O1 C13 C12 118.7(3)
O1 C13 C4 121.2(2)
C12 C13 C4 120.1(2)
loop_
_geom_bond_atom_site_label_1
_geom_bond_atom_site_label_2
_geom_bond_distance
O1 C13 1.363(3)
O1 H6 0.9302
N1 C5 1.329(4)
N1 C6 1.391(3)
N2 C5 1.360(4)
N2 C11 1.381(3)
N2 H4 0.9047
C1 C12 1.386(4)
C1 C2 1.393(4)
C1 H1 0.9500
C2 C3 1.378(4)
C2 H8 0.9500
C3 C4 1.398(4)
C3 H9 0.9500
C4 C13 1.408(4)
C4 C5 1.457(4)
C6 C7 1.395(4)
C6 C11 1.398(4)
C7 C8 1.380(4)
C7 H5 0.9500
C8 C9 1.403(4)
C8 H2 0.9500
C9 C10 1.388(4)
C9 H3 0.9500
C10 C11 1.395(4)
C10 H10 0.9500
C12 C13 1.391(4)
C12 H7 0.9500
