#------------------------------------------------------------------------------
#$Date: 2019-11-12 04:17:52 +0200 (Tue, 12 Nov 2019) $
#$Revision: 227525 $
#$URL: file:///home/coder/svn-repositories/cod/cif/4/03/35/4033502.cif $
#------------------------------------------------------------------------------
#
# This file is available in the Crystallography Open Database (COD),
# http://www.crystallography.net/
#
# All data on this site have been placed in the public domain by the
# contributors.
#
data_4033502
loop_
_publ_author_name
'Chang, Meng-Yang'
'Chen, Yu-Hsin'
'Wang, Heui-Sin'
_publ_section_title
;
 Cu(OAc)<sub>2</sub> Mediated Synthesis of 3-Sulfonyl Chromen-4-ones.
;
_journal_issue                   4
_journal_name_full               'The Journal of organic chemistry'
_journal_page_first              2361
_journal_page_last               2368
_journal_paper_doi               10.1021/acs.joc.8b00177
_journal_volume                  83
_journal_year                    2018
_chemical_formula_sum            'C18 H16 O4 S'
_chemical_formula_weight         328.37
_space_group_crystal_system      triclinic
_space_group_IT_number           2
_space_group_name_Hall           '-P 1'
_space_group_name_H-M_alt        'P -1'
_symmetry_space_group_name_Hall  '-P 1'
_symmetry_space_group_name_H-M   'P -1'
_atom_sites_solution_hydrogens   geom
_audit_creation_method           SHELXL-2014/6
_cell_angle_alpha                95.636(5)
_cell_angle_beta                 113.616(4)
_cell_angle_gamma                113.126(4)
_cell_formula_units_Z            2
_cell_length_a                   8.922(2)
_cell_length_b                   10.140(2)
_cell_length_c                   10.581(2)
_cell_measurement_reflns_used    3509
_cell_measurement_temperature    100(2)
_cell_measurement_theta_max      26.4810
_cell_measurement_theta_min      2.6550
_cell_volume                     768.6(3)
_computing_cell_refinement       'SAINT V8.34A (Bruker AXS Inc., 2013)'
_computing_data_collection       'Bruker APEX2'
_computing_data_reduction        'SAINT V8.34A (Bruker AXS Inc., 2013)'
_computing_molecular_graphics    'Bruker SHELXTL'
_computing_publication_material  'Bruker SHELXTL'
_computing_structure_refinement  'SHELXL-2014/6 (Sheldrick, 2014)'
_diffrn_ambient_temperature      100(2)
_diffrn_detector_area_resol_mean 8.3333
_diffrn_measured_fraction_theta_full 0.964
_diffrn_measured_fraction_theta_max 0.957
_diffrn_measurement_device_type  'Bruker APEX-II CCD'
_diffrn_measurement_method       '\f and \w scans'
_diffrn_radiation_type           MoK\a
_diffrn_radiation_wavelength     0.71073
_diffrn_reflns_av_R_equivalents  0.0321
_diffrn_reflns_av_unetI/netI     0.0321
_diffrn_reflns_Laue_measured_fraction_full 0.964
_diffrn_reflns_Laue_measured_fraction_max 0.957
_diffrn_reflns_limit_h_max       11
_diffrn_reflns_limit_h_min       -11
_diffrn_reflns_limit_k_max       12
_diffrn_reflns_limit_k_min       -12
_diffrn_reflns_limit_l_max       13
_diffrn_reflns_limit_l_min       -13
_diffrn_reflns_number            11063
_diffrn_reflns_point_group_measured_fraction_full 0.964
_diffrn_reflns_point_group_measured_fraction_max 0.957
_diffrn_reflns_theta_full        25.242
_diffrn_reflns_theta_max         26.563
_diffrn_reflns_theta_min         2.204
_exptl_absorpt_coefficient_mu    0.229
_exptl_absorpt_correction_T_max  0.9485
_exptl_absorpt_correction_T_min  0.8446
_exptl_absorpt_correction_type   multi-scan
_exptl_absorpt_process_details   'SADABS V2014/4 (Bruker AXS Inc.)'
_exptl_crystal_colour            Colorless
_exptl_crystal_density_diffrn    1.419
_exptl_crystal_density_meas      ?
_exptl_crystal_density_method    'not measured'
_exptl_crystal_description       Lump
_exptl_crystal_F_000             344
_exptl_crystal_size_max          0.23
_exptl_crystal_size_mid          0.20
_exptl_crystal_size_min          0.20
_refine_diff_density_max         0.414
_refine_diff_density_min         -0.395
_refine_diff_density_rms         0.056
_refine_ls_extinction_method     none
_refine_ls_goodness_of_fit_ref   1.036
_refine_ls_hydrogen_treatment    constr
_refine_ls_matrix_type           full
_refine_ls_number_parameters     210
_refine_ls_number_reflns         3075
_refine_ls_number_restraints     0
_refine_ls_restrained_S_all      1.036
_refine_ls_R_factor_all          0.0457
_refine_ls_R_factor_gt           0.0364
_refine_ls_shift/su_max          0.001
_refine_ls_shift/su_mean         0.000
_refine_ls_structure_factor_coef Fsqd
_refine_ls_weighting_details
'w=1/[\s^2^(Fo^2^)+(0.0527P)^2^+0.2835P] where P=(Fo^2^+2Fc^2^)/3'
_refine_ls_weighting_scheme      calc
_refine_ls_wR_factor_gt          0.0928
_refine_ls_wR_factor_ref         0.0984
_reflns_Friedel_coverage         0.000
_reflns_number_gt                2580
_reflns_number_total             3075
_reflns_threshold_expression     'I > 2\s(I)'
_cod_data_source_file            jo8b00177_si_001.cif
_cod_data_source_block           mo_161263LT_0m
_cod_depositor_comments
;
The following automatic conversions were performed:

'_exptl_crystal_density_meas' value 'not measured' was changed to '?'
- the value is perceived as not measured.

Automatic conversion script
Id: cif_fix_values 4973 2017-02-22 13:04:09Z antanas 

 Adding full bibliography for 4033500--4033507.cif.
;
_cod_original_cell_volume        768.7(3)
_cod_database_code               4033502
_shelx_space_group_comment
;
The symmetry employed for this shelxl refinement is uniquely defined
by the following loop, which should always be used as a source of
symmetry information in preference to the above space-group names.
They are only intended as comments.
;
_shelxl_version_number           2014/6
_shelx_res_file
;
TITL mo_161263LT_0m in P-1
CELL 0.71073 8.9221 10.1404 10.5813 95.636 113.616 113.126
ZERR 2.00 0.0020 0.0022 0.0024 0.005 0.004 0.004
LATT 1
SFAC C H O S
UNIT 36 32 8 2
TEMP -173
ACTA
L.S. 4
FMAP 2
PLAN 5
BOND $H
WGHT    0.052700    0.283500
FVAR       0.71167
S1    4    1.110376    0.621897    0.774265    11.00000    0.01378    0.01271 =
         0.01302    0.00541    0.00608    0.00617
O1    3    1.263079    0.689052    0.745368    11.00000    0.01574    0.01955 =
         0.01967    0.00747    0.01055    0.00806
O2    3    1.051035    0.843411    0.622877    11.00000    0.01779    0.01329 =
         0.01811    0.00656    0.00937    0.00488
O3    3    0.600172    0.429762    0.431419    11.00000    0.01512    0.01393 =
         0.01475    0.00640    0.00596    0.00609
O4    3    1.078089    0.484890    0.813065    11.00000    0.01920    0.01356 =
         0.01739    0.00747    0.00697    0.00809
C1    1    0.470489    0.586904    0.138981    11.00000    0.02284    0.02981 =
         0.01575    0.01068    0.00784    0.01519
AFIX  43
H1    2    0.371902    0.556522    0.043563    11.00000   -1.20000
AFIX   0
C2    1    0.466493    0.486074    0.216836    11.00000    0.01847    0.01951 =
         0.01789    0.00544    0.00781    0.00916
AFIX  43
H13   2    0.365654    0.386741    0.176847    11.00000   -1.20000
AFIX   0
C3    1    0.613823    0.532921    0.355843    11.00000    0.01794    0.01690 =
         0.01488    0.00964    0.01056    0.01134
C4    1    0.764256    0.676483    0.415665    11.00000    0.01749    0.01602 =
         0.01559    0.00756    0.00990    0.00994
C5    1    0.920882    0.716031    0.559511    11.00000    0.01641    0.01455 =
         0.01605    0.00524    0.01011    0.00874
C6    1    0.906144    0.588959    0.618937    11.00000    0.01449    0.01502 =
         0.01190    0.00609    0.00719    0.00755
C7    1    1.137206    0.754552    0.913271    11.00000    0.01397    0.01337 =
         0.01118    0.00496    0.00515    0.00661
C8    1    1.033669    0.704720    0.983750    11.00000    0.01499    0.01204 =
         0.01486    0.00671    0.00634    0.00484
AFIX  43
H5    2    0.951643    0.600660    0.958753    11.00000   -1.20000
AFIX   0
C9    1    1.051727    0.809215    1.091373    11.00000    0.01761    0.01769 =
         0.01703    0.00878    0.01026    0.00829
AFIX  43
H4    2    0.979295    0.776379    1.138711    11.00000   -1.20000
AFIX   0
C10   1    1.174999    0.961961    1.130918    11.00000    0.01573    0.01642 =
         0.01356    0.00655    0.00477    0.00825
C11   1    1.190226    1.074171    1.245573    11.00000    0.02250    0.01728 =
         0.01733    0.00401    0.00869    0.00887
AFIX 137
H16   2    1.320300    1.151372    1.305183    11.00000   -1.50000
H3    2    1.145565    1.022654    1.306755    11.00000   -1.50000
H2    2    1.114739    1.121630    1.199515    11.00000   -1.50000
AFIX   0
C12   1    0.745536    0.455641    0.559063    11.00000    0.01579    0.01608 =
         0.01245    0.00503    0.00813    0.00974
C13   1    0.691953    0.321378    0.610968    11.00000    0.01619    0.01459 =
         0.01699    0.00656    0.00852    0.00555
AFIX  23
H6    2    0.560170    0.280663    0.587662    11.00000   -1.20000
H10   2    0.768184    0.352827    0.717522    11.00000   -1.20000
AFIX   0
C14   1    0.717946    0.197400    0.542941    11.00000    0.02732    0.01596 =
         0.02297    0.00894    0.01383    0.01013
AFIX 137
H7    2    0.656816    0.175520    0.437493    11.00000   -1.50000
H8    2    0.662847    0.106300    0.567933    11.00000   -1.50000
H9    2    0.850838    0.230909    0.579792    11.00000   -1.50000
AFIX   0
C15   1    0.618104    0.734075    0.198418    11.00000    0.02868    0.02651 =
         0.02257    0.01617    0.01384    0.01535
AFIX  43
H12   2    0.617877    0.803341    0.144149    11.00000   -1.20000
AFIX   0
C16   1    0.763679    0.778215    0.335776    11.00000    0.02172    0.01839 =
         0.02203    0.01017    0.01230    0.00926
AFIX  43
H11   2    0.863690    0.877956    0.376093    11.00000   -1.20000
AFIX   0
C17   1    1.261536    0.906243    0.950781    11.00000    0.01496    0.01556 =
         0.01841    0.00710    0.00843    0.00496
AFIX  43
H15   2    1.331588    0.939080    0.901658    11.00000   -1.20000
AFIX   0
C18   1    1.281186    1.008402    1.061084    11.00000    0.01615    0.01188 =
         0.01964    0.00404    0.00647    0.00346
AFIX  43
H14   2    1.368351    1.111648    1.089529    11.00000   -1.20000
AFIX   0
HKLF 4 1 1 0 0 0 1 0 0 0 1

REM  mo_161263LT_0m in P-1
REM R1 =  0.0364 for    2580 Fo > 4sig(Fo)  and  0.0457 for all    3075 data
REM    210 parameters refined using      0 restraints

END

WGHT      0.0478      0.3173

REM Highest difference peak  0.414,  deepest hole -0.395,  1-sigma level  0.056
Q1    1   0.9869  0.5900  0.6848  11.00000  0.05    0.41
Q2    1   1.1144  0.7011  0.8374  11.00000  0.05    0.39
Q3    1   0.8449  0.6903  0.4848  11.00000  0.05    0.36
Q4    1   1.1731  1.0151  1.1889  11.00000  0.05    0.28
Q5    1   0.7221  0.6025  0.3751  11.00000  0.05    0.28
;
_shelx_res_checksum              17334
_shelx_hkl_file
;
  -1   0   0 1014.73 17.5580   3
  -1   0   0 1024.09 17.5959   2
  -1   0   0 1009.01 17.6397   1
   1   0   0 1015.52 17.6174   3
   1   0   0 1024.66 17.7586   1
   1   0   0 1040.40 17.5568   2
  -2   0   0 150.476 4.28302   3
  -2   0   0 154.136 4.49846   2
  -2   0   0 140.215 4.27463   1
   2   0   0 150.225 4.42774   3
   2   0   0 147.154 4.50659   1
   2   0   0 152.358 4.28339   2
  -3   0   0 15.9288 1.94927   3
  -3   0   0 13.3739 1.94408   1
  -3   0   0 19.7660 2.30171   2
   3   0   0 17.8129 2.20343   3
   3   0   0 15.6419 1.92942   2
   3   0   0 16.2563 2.10221   1
  -4   0   0 1.93576 1.30131   3
  -4   0   0 4.44547 1.56556   1
  -4   0   0 5.26737 1.90617   2
   4   0   0 4.95546 2.14793   2
   4   0   0 5.86575 1.76610   3
   4   0   0 3.40452 1.56457   1
  -5   0   0 231.361 8.03329   3
  -5   0   0 221.461 8.08047   1
  -5   0   0 242.646 8.65494   2
   5   0   0 230.363 8.38567   3
   5   0   0 244.394 8.98870   1
  -6   0   0 477.886 13.7630   1
  -6   0   0 468.555 13.9993   2
  -6   0   0 469.230 13.3631   3
   6   0   0 466.232 14.0802   3
   6   0   0 512.875 14.9235   1
  -7   0   0 0.29643 2.07199   3
  -7   0   0 2.02627 1.98026   1
  -7   0   0 3.85010 3.02269   2
   7   0   0 0.55074 1.93270   3
   7   0   0 -0.4134 2.03378   1
  -8   0   0 34.7264 4.84976   3
  -8   0   0 35.5470 5.23387   1
   8   0   0 54.9630 6.70903   1
   8   0   0 48.7138 6.10937   3
  -9   0   0 25.6640 4.66063   3
   9   0   0 14.9702 4.29265   3
   9   0   0 18.6923 4.84960   1
   9  -1   0 109.253 8.66646   1
   9  -1   0 112.156 8.43366   3
  -9   1   0 106.727 13.4842   1
  -9   1   0 116.786 7.57527   3
   8  -1   0 273.553 12.1459   1
   8  -1   0 286.951 12.1646   3
  -8   1   0 302.580 11.8380   1
  -8   1   0 299.876 11.2611   3
   7  -1   0 1.98358 2.12979   3
   7  -1   0 2.78037 2.30275   1
  -7   1   0 5.28843 2.45331   3
  -7   1   0 -1.3836 2.55374   2
  -7   1   0 7.63454 2.68920   1
   6  -1   0 708.757 17.7717   3
   6  -1   0 713.142 18.3551   1
  -6   1   0 677.730 17.0372   3
  -6   1   0 706.195 17.5035   1
  -6   1   0 720.006 17.8358   2
   5  -1   0 21.6830 2.69086   2
   5  -1   0 19.5228 2.95652   3
   5  -1   0 20.9844 3.22117   1
  -5   1   0 22.6596 3.05988   1
  -5   1   0 17.0674 2.61096   3
  -5   1   0 20.9914 3.11768   2
   4  -1   0 2.03499 1.27785   1
   4  -1   0 1.94958 1.15483   2
   4  -1   0 3.36263 1.45032   3
  -4   1   0 1.19205 1.18006   3
  -4   1   0 1.20713 1.46578   2
  -4   1   0 3.83121 1.43641   1
   3  -1   0 12.4266 1.68593   2
   3  -1   0 14.0674 1.86013   3
   3  -1   0 14.6145 2.06705   1
  -3   1   0 10.7416 1.71445   1
  -3   1   0 13.2547 1.91000   2
  -3   1   0 11.3420 1.65692   3
   2  -1   0 1700.01 29.3130   2
   2  -1   0 1709.57 29.7022   1
   2  -1   0 1735.07 29.5515   3
  -2   1   0 1725.31 29.4403   3
  -2   1   0 1706.09 29.3927   2
  -2   1   0 1604.04 29.4701   1
   1  -1   0 205.393 4.44686   1
   1  -1   0 203.616 4.30742   2
   1  -1   0 211.150 4.37882   3
  -1   1   0 207.537 4.33581   3
  -1   1   0 206.147 4.39420   1
   0  -1   0 1709.93 28.2358   2
   0  -1   0 1694.09 28.1902   3
   0  -1   0 1681.62 28.2037   2
   0  -1   0 1702.59 28.2974   1
   0   1   0 1685.73 28.3247   1
   0   1   0 1745.37 28.2612   3
  -1  -1   0 1162.36 20.4342   1
  -1  -1   0 1187.07 20.3318   3
  -1  -1   0 1166.34 20.3939   2
   1   1   0 1158.64 20.3796   3
   1   1   0 1146.34 20.5592   1
  -2  -1   0 230.960 6.14327   2
  -2  -1   0 228.007 6.08192   1
  -2  -1   0 230.325 5.96760   3
   2   1   0 221.200 6.02517   3
  -3  -1   0 90.7034 3.96711   3
  -3  -1   0 92.5896 4.41288   2
  -3  -1   0 90.6819 4.06566   1
   3   1   0 83.1590 4.24649   1
   3   1   0 96.1356 4.40448   1
   3   1   0 89.5528 4.13908   3
  -4  -1   0 672.894 15.6133   1
  -4  -1   0 724.843 16.1736   2
  -4  -1   0 689.091 15.4866   3
   4   1   0 667.295 16.3554   1
   4   1   0 715.115 16.1692   3
  -5  -1   0 213.361 7.96966   1
  -5  -1   0 198.146 8.27647   2
  -5  -1   0 196.215 7.59647   3
   5   1   0 212.769 8.60493   1
   5   1   0 205.671 8.23044   3
  -6  -1   0 3.16849 2.15779   3
  -6  -1   0 6.15503 2.96303   2
  -6  -1   0 2.09518 1.97531   1
   6   1   0 6.71601 2.51155   3
   6   1   0 2.79531 2.21372   1
  -7  -1   0 22.7848 4.44892   2
  -7  -1   0 17.4778 3.75618   1
  -7  -1   0 16.9933 3.41521   3
   7   1   0 23.8848 4.33754   3
   7   1   0 19.4228 4.25858   1
  -8  -1   0 0.35568 2.27686   3
   8   1   0 -0.1103 2.41281   3
   8   1   0 -0.0219 2.32100   1
   9  -2   0 -0.1292 2.53194   1
   9  -2   0 3.15907 2.84320   3
  -9   2   0 2.30514 2.24424   3
  -9   2   0 2.01083 2.65098   1
   8  -2   0 28.6868 4.43302   3
   8  -2   0 25.2596 4.85326   1
  -8   2   0 24.1157 4.28359   1
  -8   2   0 22.1997 3.76746   3
   7  -2   0 81.8835 6.01936   3
   7  -2   0 82.4377 6.03244   1
  -7   2   0 76.8529 5.43412   3
  -7   2   0 73.7799 5.58251   1
  -7   2   0 65.0938 5.86396   2
   6  -2   0 156.230 6.74291   2
   6  -2   0 169.570 7.43457   3
   6  -2   0 180.020 7.78905   1
  -6   2   0 165.527 7.44161   2
  -6   2   0 166.478 7.11977   3
  -6   2   0 175.553 7.44518   1
   5  -2   0 49.5877 4.43279   1
   5  -2   0 52.6641 4.00993   3
   5  -2   0 52.1015 3.55020   2
  -5   2   0 49.2403 3.66168   3
  -5   2   0 45.8813 3.92064   2
  -5   2   0 48.5477 3.76861   1
   4  -2   0 362.481 9.42823   3
   4  -2   0 348.848 8.98090   2
   4  -2   0 346.725 9.53847   1
  -4   2   0 353.379 9.20709   2
  -4   2   0 356.577 9.23752   3
  -4   2   0 348.187 9.39219   1
   3  -2   0 226.175 6.41684   3
   3  -2   0 225.350 6.49753   1
   3  -2   0 223.689 6.16473   2
  -3   2   0 231.766 6.48458   1
  -3   2   0 232.682 6.33072   3
  -3   2   0 233.345 6.38009   2
   2  -2   0 10.1586 1.31474   2
   2  -2   0 10.2487 1.39244   1
  -2   2   0 9.24744 1.38365   1
  -2   2   0 11.1176 1.41770   2
  -2   2   0 10.5526 1.32490   3
   1  -2   0 98.3401 2.92104   2
   1  -2   0 102.977 3.02557   1
  -1   2   0 101.949 2.98705   1
  -1   2   0 101.489 2.92605   3
   0  -2   0 5.88072 0.94722   1
   0  -2   0 6.07546 0.95807   3
   0  -2   0 4.05083 0.94432   2
   0  -2   0 3.56265 0.88367   2
   0   2   0 4.69761 0.91976   1
   0   2   0 5.36375 0.92672   3
  -1  -2   0 853.641 15.9202   2
  -1  -2   0 851.638 15.9132   1
  -1  -2   0 841.575 15.8448   2
  -1  -2   0 846.659 15.7074   3
   1   2   0 832.634 16.0630   1
   1   2   0 836.456 15.8275   3
  -2  -2   0 47.6618 2.81703   3
  -2  -2   0 48.3504 2.94677   2
  -2  -2   0 49.7678 3.12415   2
  -2  -2   0 46.7246 2.80918   1
   2   2   0 51.3195 3.01312   1
   2   2   0 39.2734 2.71810   3
  -3  -2   0 159.045 5.75330   1
  -3  -2   0 148.163 5.41333   3
  -3  -2   0 155.228 5.96799   2
   3   2   0 154.182 6.07602   1
   3   2   0 162.151 5.92492   3
  -4  -2   0 4.34828 1.63012   1
  -4  -2   0 0.77197 1.94299   2
  -4  -2   0 0.72997 1.45273   3
   4   2   0 1.25791 1.64936   1
   4   2   0 1.07137 1.41422   1
   4   2   0 2.23959 1.61495   3
  -5  -2   0 51.2303 4.80426   1
  -5  -2   0 52.1884 5.04200   2
  -5  -2   0 58.4114 4.50355   3
   5   2   0 54.4200 5.54352   1
   5   2   0 63.4565 5.65977   3
  -6  -2   0 104.475 6.26756   3
  -6  -2   0 101.305 7.41886   2
  -6  -2   0 99.1626 6.31697   1
   6   2   0 103.609 6.96532   3
   6   2   0 109.598 7.23695   1
  -7  -2   0 34.1991 4.50571   3
   7   2   0 40.2721 5.54423   1
   7   2   0 48.1882 5.98005   3
  -8  -2   0 3.38477 2.51383   3
   8   2   0 7.69413 3.87038   1
   8   2   0 5.52763 3.20404   3
   9  -3   0 33.6189 5.24724   3
   9  -3   0 29.1277 5.36847   1
  -9   3   0 23.5049 4.08775   3
  -9   3   0 25.4575 4.35635   1
   8  -3   0 91.7423 6.67838   3
   8  -3   0 109.660 7.28137   1
  -8   3   0 86.9122 6.06373   3
  -8   3   0 89.3892 6.57600   1
   7  -3   0 385.896 12.8448   1
   7  -3   0 390.094 12.5096   3
  -7   3   0 395.686 12.2060   3
  -7   3   0 397.655 12.6069   1
  -7   3   0 355.630 12.1434   2
   6  -3   0 12.7755 2.77518   1
   6  -3   0 15.2232 2.62157   2
   6  -3   0 9.66194 2.55033   3
  -6   3   0 8.57799 2.24498   3
  -6   3   0 15.3940 2.93076   2
  -6   3   0 7.93694 2.31559   1
   5  -3   0 109.380 5.25079   3
   5  -3   0 112.243 5.42464   1
   5  -3   0 108.918 5.06104   2
  -5   3   0 114.101 5.17001   3
  -5   3   0 106.506 5.24842   2
  -5   3   0 106.632 5.30044   1
   4  -3   0 33.6139 2.96439   2
   4  -3   0 31.2931 3.04371   1
   4  -3   0 33.0216 3.04153   3
  -4   3   0 38.1359 2.96683   1
  -4   3   0 31.2663 2.93857   2
  -4   3   0 32.3737 2.96239   3
   3  -3   0 144.040 4.79090   2
   3  -3   0 146.977 5.10365   1
  -3   3   0 152.144 4.86137   3
  -3   3   0 151.311 4.91904   2
  -3   3   0 141.674 4.98357   1
   2  -3   0 227.112 5.93701   2
   2  -3   0 234.278 6.19016   1
  -2   3   0 239.938 6.19637   1
  -2   3   0 243.243 6.04385   3
   1  -3   0 40.9379 2.37550   2
   1  -3   0 43.1872 2.35266   2
   1  -3   0 40.9120 2.28532   1
   1  -3   0 45.3699 2.24632   3
  -1   3   0 38.7121 2.18411   3
  -1   3   0 39.4498 2.29595   1
   0  -3   0 2.06850 1.04519   2
   0  -3   0 2.03072 1.07732   2
   0  -3   0 4.24607 1.08258   3
   0  -3   0 4.70656 1.06847   1
   0   3   0 4.08751 1.15705   1
   0   3   0 3.94748 1.07609   3
  -1  -3   0 194.435 5.47185   3
  -1  -3   0 197.777 5.78462   2
  -1  -3   0 195.352 5.74520   2
  -1  -3   0 198.354 5.65960   1
   1   3   0 191.825 5.84880   1
   1   3   0 198.684 5.69434   3
  -2  -3   0 630.682 13.8402   2
  -2  -3   0 587.228 13.6720   2
  -2  -3   0 631.709 13.5960   1
  -2  -3   0 624.878 13.3473   3
   2   3   0 638.951 13.8751   3
   2   3   0 604.745 14.1204   1
  -3  -3   0 5.84848 1.81987   1
  -3  -3   0 1.19799 1.85947   2
  -3  -3   0 2.84978 1.53335   3
   3   3   0 1.50606 1.46209   1
   3   3   0 3.27618 1.58509   3
  -4  -3   0 28.4631 3.78068   2
  -4  -3   0 22.1608 3.11590   1
  -4  -3   0 27.7203 3.45046   3
   4   3   0 23.8921 3.40174   1
   4   3   0 20.5460 3.23681   3
  -5  -3   0 15.0613 3.27216   1
  -5  -3   0 16.1048 2.88426   3
  -5  -3   0 12.9760 3.15448   2
   5   3   0 11.8961 3.23191   1
   5   3   0 15.1891 3.31193   3
   5   3   0 21.8924 3.97572   1
  -6  -3   0 3.97567 2.84511   1
  -6  -3   0 2.21653 2.15426   3
  -6  -3   0 -3.3464 2.76675   2
   6   3   0 1.04224 2.19085   1
   6   3   0 -2.1584 2.08795   3
  -7  -3   0 14.4852 3.40093   3
   7   3   0 19.3341 4.42554   3
   7   3   0 12.0474 3.88328   1
  10  -4   0 30.4285 5.74160   1
  10  -4   0 27.7148 4.95230   3
 -10   4   0 27.0241 4.95270   3
 -10   4   0 34.8843 5.58431   1
   9  -4   0 113.235 8.01722   1
   9  -4   0 109.486 7.48158   3
  -9   4   0 107.792 7.19368   3
  -9   4   0 105.122 7.48794   1
   8  -4   0 10.5934 3.22554   3
   8  -4   0 12.5969 3.33393   1
  -8   4   0 11.7789 3.03473   1
  -8   4   0 12.9500 3.04879   3
   7  -4   0 1.50224 1.69414   3
   7  -4   0 -0.4991 1.58394   1
  -7   4   0 2.52468 1.91093   3
  -7   4   0 1.41194 1.80634   1
   6  -4   0 67.1230 4.66621   3
   6  -4   0 58.9467 4.33582   2
   6  -4   0 69.1637 4.81213   1
  -6   4   0 63.4227 4.42145   3
  -6   4   0 70.3441 4.85059   2
  -6   4   0 69.0250 4.75261   1
   5  -4   0 176.618 6.69726   3
   5  -4   0 173.165 6.91872   1
   5  -4   0 195.846 6.76528   2
  -5   4   0 192.838 6.80339   3
  -5   4   0 181.078 6.73570   2
  -5   4   0 176.446 6.87509   1
   4  -4   0 6.53679 1.68856   2
   4  -4   0 3.89935 1.37768   1
  -4   4   0 4.99756 1.56526   2
  -4   4   0 6.75230 1.70834   1
  -4   4   0 5.45965 1.49528   3
   3  -4   0 196.105 6.20888   1
   3  -4   0 185.889 5.87199   2
  -3   4   0 201.365 6.21431   1
  -3   4   0 185.050 5.88302   3
   2  -4   0 11.5315 1.64973   2
   2  -4   0 7.92036 1.51580   2
   2  -4   0 9.61733 1.63306   1
  -2   4   0 9.93500 1.60299   3
  -2   4   0 10.2427 1.64975   1
   1  -4   0 71.2835 3.09905   3
   1  -4   0 67.1367 3.14237   1
   1  -4   0 64.2383 3.11759   2
   1  -4   0 70.4823 3.25847   2
  -1   4   0 71.2336 3.16365   3
  -1   4   0 71.8577 3.35107   1
   0  -4   0 37.3965 2.66572   2
   0  -4   0 35.7486 2.77714   2
   0  -4   0 41.3571 2.60834   1
   0  -4   0 37.9963 2.47821   3
   0   4   0 41.0229 2.77561   1
   0   4   0 40.3868 2.58715   3
  -1  -4   0 80.4440 4.14837   2
  -1  -4   0 77.2549 3.96238   2
  -1  -4   0 77.2835 3.73681   1
  -1  -4   0 86.1776 3.76418   3
   1   4   0 84.7829 4.10495   1
   1   4   0 81.1311 3.87010   3
  -2  -4   0 12.9552 2.33028   2
  -2  -4   0 14.9981 2.46927   2
  -2  -4   0 11.7469 2.06033   3
  -2  -4   0 20.1512 2.50103   1
   2   4   0 18.5452 2.57451   3
   2   4   0 15.0087 2.39821   1
  -3  -4   0 10.2865 2.69510   2
  -3  -4   0 10.9875 2.25635   3
  -3  -4   0 14.1861 3.45094   2
  -3  -4   0 14.7621 2.62245   1
   3   4   0 12.0456 2.63947   1
   3   4   0 13.0291 2.58204   3
  -4  -4   0 72.0746 4.85417   3
  -4  -4   0 59.8472 5.47385   2
  -4  -4   0 67.9366 4.87840   1
   4   4   0 69.7938 5.46899   1
   4   4   0 85.2180 5.72215   3
  -5  -4   0 19.0339 3.27934   3
  -5  -4   0 18.7137 3.59477   1
  -5  -4   0 19.4192 4.12138   2
   5   4   0 22.7431 3.94362   3
   5   4   0 17.8257 3.87910   1
  -6  -4   0 0.55584 2.01109   3
  -6  -4   0 2.37441 3.44039   2
   6   4   0 -2.2512 2.16568   1
   6   4   0 3.71394 2.71317   3
  -7  -4   0 3.20400 2.36666   3
   7   4   0 -0.5283 2.83514   1
   7   4   0 -3.8339 2.26881   3
  10  -5   0 21.6696 4.96074   1
  10  -5   0 22.3915 4.52730   3
 -10   5   0 17.8695 4.30135   3
 -10   5   0 21.6121 4.38315   1
   9  -5   0 1.00751 2.02964   1
   9  -5   0 0.34927 2.12582   3
  -9   5   0 -1.3974 2.09272   3
  -9   5   0 2.39490 2.30220   1
   8  -5   0 11.5856 3.01445   1
   8  -5   0 13.0644 3.17088   3
  -8   5   0 11.1985 3.05854   3
  -8   5   0 9.32334 3.05273   1
   7  -5   0 0.79322 1.67143   2
   7  -5   0 -0.5786 1.73888   3
   7  -5   0 0.88447 1.80444   1
  -7   5   0 2.19438 1.97812   3
  -7   5   0 3.03955 2.14737   1
   6  -5   0 1.60273 1.66515   1
   6  -5   0 1.84646 1.67049   2
  -6   5   0 2.91403 1.67522   1
  -6   5   0 1.94806 2.06861   2
  -6   5   0 2.49839 1.68298   3
   5  -5   0 1.58685 1.40223   2
   5  -5   0 2.58043 1.65386   1
  -5   5   0 3.06419 1.60794   2
  -5   5   0 3.56281 1.59353   3
  -5   5   0 -0.3253 1.27999   1
   4  -5   0 28.8862 2.87860   2
   4  -5   0 34.6146 3.58598   1
  -4   5   0 32.4288 3.26150   3
  -4   5   0 29.6574 3.29979   1
   3  -5   0 77.8472 4.00031   2
   3  -5   0 80.1198 4.03382   1
  -3   5   0 76.7534 3.87891   3
  -3   5   0 84.0897 4.22074   1
   2  -5   0 240.574 7.14042   1
   2  -5   0 249.019 7.16295   2
   2  -5   0 256.594 6.87552   3
   2  -5   0 254.686 7.27781   2
  -2   5   0 258.980 7.49551   1
  -2   5   0 253.771 7.21460   3
   1  -5   0 167.576 5.22738   3
   1  -5   0 155.454 5.32770   1
   1  -5   0 163.162 5.58847   2
   1  -5   0 156.379 5.44090   2
  -1   5   0 164.461 5.52825   3
  -1   5   0 156.662 5.69299   1
   0  -5   0 -1.4469 1.04434   2
   0  -5   0 -0.5617 0.95880   3
   0  -5   0 -0.2723 1.00253   2
   0  -5   0 -1.7893 0.84077   1
   0   5   0 -0.6298 0.74987   3
   0   5   0 0.59826 1.03227   1
  -1  -5   0 3.17145 1.46900   3
  -1  -5   0 6.19534 1.86402   2
  -1  -5   0 4.67591 1.57220   1
  -1  -5   0 5.86313 1.73357   2
   1   5   0 6.92837 1.67088   3
   1   5   0 1.68379 1.32205   1
  -2  -5   0 14.2825 2.82385   2
  -2  -5   0 8.19322 1.97901   3
  -2  -5   0 16.6270 2.69989   2
  -2  -5   0 15.5492 2.55368   1
   2   5   0 13.7160 2.57575   3
   2   5   0 13.8547 2.53051   1
  -3  -5   0 203.833 7.80552   1
  -3  -5   0 195.812 8.57960   2
  -3  -5   0 205.197 7.49799   3
   3   5   0 211.273 8.42688   3
   3   5   0 196.801 8.58261   1
  -4  -5   0 339.640 10.5982   3
  -4  -5   0 348.055 11.6329   1
  -4  -5   0 347.701 12.3043   2
   4   5   0 325.236 11.9063   3
   4   5   0 321.422 12.2590   1
  -5  -5   0 62.1826 5.59737   3
  -5  -5   0 59.4715 6.40783   2
   5   5   0 50.1883 6.10318   3
   5   5   0 43.5055 6.08146   1
  -6  -5   0 1.41947 2.21038   3
   6   5   0 0.44715 2.35776   1
   6   5   0 3.67348 2.98810   1
   6   5   0 -0.8586 2.47843   3
  10  -6   0 7.10574 3.67891   1
 -10   6   0 2.81712 2.70360   3
 -10   6   0 1.61255 2.59779   1
   9  -6   0 4.71284 2.86043   1
  -9   6   0 -0.2619 1.96502   3
  -9   6   0 3.53768 2.60036   1
   8  -6   0 -0.8443 1.98416   1
  -8   6   0 1.56198 1.99581   1
  -8   6   0 1.01798 2.11601   3
   7  -6   0 14.4687 2.95199   2
   7  -6   0 14.6497 3.24433   1
  -7   6   0 10.8414 2.78114   3
  -7   6   0 17.6786 3.43117   1
   6  -6   0 35.1562 4.16897   1
   6  -6   0 40.7791 4.25065   2
  -6   6   0 33.6543 3.95521   3
  -6   6   0 32.4131 4.05693   1
   5  -6   0 10.5931 2.57107   1
   5  -6   0 11.8167 2.41933   2
  -5   6   0 14.5748 2.72527   1
  -5   6   0 7.49547 2.13052   3
   4  -6   0 185.376 6.79927   2
   4  -6   0 178.203 6.78691   1
  -4   6   0 178.684 7.00707   1
  -4   6   0 171.771 6.64566   3
   3  -6   0 149.514 5.86722   1
   3  -6   0 140.233 5.45319   3
   3  -6   0 158.202 5.99633   2
  -3   6   0 145.958 5.73159   3
  -3   6   0 144.711 6.03885   1
   2  -6   0 318.847 8.84253   1
   2  -6   0 306.236 8.84462   2
   2  -6   0 314.456 9.04498   2
   2  -6   0 327.577 8.63760   3
   2  -6   0 310.536 9.01698   2
  -2   6   0 322.593 8.99141   3
  -2   6   0 342.965 9.48103   1
   1  -6   0 3.59330 1.55138   2
   1  -6   0 1.80574 1.18294   3
   1  -6   0 0.86720 1.01479   1
   1  -6   0 -0.0889 1.35993   2
  -1   6   0 0.41502 1.00123   1
  -1   6   0 0.73793 1.13533   3
   0  -6   0 5.32806 1.95082   2
   0  -6   0 4.86636 1.67235   3
   0  -6   0 4.18039 1.82740   2
   0  -6   0 9.54675 1.97529   1
   0   6   0 5.28957 1.72396   3
   0   6   0 4.05877 1.68496   1
  -1  -6   0 64.4730 4.92459   2
  -1  -6   0 70.9056 4.72288   2
  -1  -6   0 70.1311 4.22303   1
  -1  -6   0 72.6255 4.17033   3
   1   6   0 73.9248 4.85363   1
   1   6   0 69.9034 4.54519   3
  -2  -6   0 127.397 7.01499   2
  -2  -6   0 122.558 5.72649   3
  -2  -6   0 128.191 5.94448   1
   2   6   0 107.344 6.24712   1
   2   6   0 127.338 6.58704   3
  -3  -6   0 476.584 14.6881   2
  -3  -6   0 489.411 12.8835   3
   3   6   0 469.693 14.2717   3
  -4  -6   0 92.7161 5.50896   3
  -4  -6   0 98.8139 7.95799   2
   4   6   0 87.9943 6.93284   1
   4   6   0 101.468 7.04229   3
  -5  -6   0 103.202 8.88465   2
   5   6   0 94.3923 8.46388   3
   5   6   0 83.7072 8.56556   1
  10  -7   0 6.26875 3.36129   1
 -10   7   0 7.52964 3.44489   1
 -10   7   0 8.61724 3.31868   3
   9  -7   0 34.1645 5.27046   1
  -9   7   0 26.7053 4.57930   3
  -9   7   0 22.1104 4.23024   1
   8  -7   0 131.372 7.69395   1
  -8   7   0 124.294 7.35776   3
  -8   7   0 125.614 7.66471   1
   7  -7   0 79.0709 5.58368   2
   7  -7   0 92.1322 6.10684   1
  -7   7   0 92.3399 6.35705   1
  -7   7   0 71.9758 5.54523   3
   6  -7   0 151.583 7.29106   1
   6  -7   0 154.177 7.24299   2
  -6   7   0 158.002 7.32614   3
  -6   7   0 148.328 7.46632   1
   5  -7   0 0.86344 1.65127   1
   5  -7   0 -0.5053 1.36757   2
  -5   7   0 0.82513 1.44814   3
  -5   7   0 -0.4024 1.42521   1
   4  -7   0 41.0989 3.78958   3
   4  -7   0 36.2116 3.86026   1
   4  -7   0 35.2032 3.68484   2
  -4   7   0 29.2376 3.60294   1
  -4   7   0 30.5769 3.55970   3
   3  -7   0 534.311 12.8568   3
   3  -7   0 512.735 17.9452   2
   3  -7   0 537.420 13.3516   1
   3  -7   0 524.923 13.6103   2
  -3   7   0 559.523 13.7461   3
  -3   7   0 544.198 14.1519   1
   2  -7   0 198.554 7.48258   2
   2  -7   0 209.619 7.57538   2
   2  -7   0 207.122 7.23247   1
   2  -7   0 206.949 6.89781   3
   2  -7   0 195.462 7.16630   2
  -2   7   0 202.692 7.44321   3
  -2   7   0 216.434 7.91069   1
   1  -7   0 58.1934 3.86621   1
   1  -7   0 52.9646 3.65793   3
   1  -7   0 51.1551 4.21958   2
   1  -7   0 56.0487 4.65442   2
  -1   7   0 41.2185 4.20445   1
  -1   7   0 45.8443 4.24299   3
   0  -7   0 -0.0633 1.42270   1
   0  -7   0 0.05956 1.67262   2
   0  -7   0 1.71297 1.51631   3
   0  -7   0 1.23161 1.92966   2
   0   7   0 0.46315 1.48666   1
   0   7   0 1.63600 1.50988   3
  -1  -7   0 10.7835 2.33944   3
  -1  -7   0 16.1684 2.72664   1
  -1  -7   0 13.7649 2.98627   2
   1   7   0 10.9271 2.63600   1
   1   7   0 10.2549 2.62833   3
  -2  -7   0 -0.1742 2.50229   2
  -2  -7   0 0.79538 1.78948   3
   2   7   0 0.09287 1.70238   1
   2   7   0 -0.3633 1.87447   3
  -3  -7   0 -0.9867 2.73249   2
   3   7   0 1.23963 2.01921   1
   3   7   0 0.43506 1.92362   3
  -4  -7   0 36.0086 5.75635   2
   4   7   0 25.7886 4.99231   1
   4   7   0 36.4197 5.61739   3
  10  -8   0 9.67032 3.52762   1
 -10   8   0 5.53074 3.01219   3
 -10   8   0 5.55415 3.07195   1
   9  -8   0 61.3804 6.91894   1
  -9   8   0 42.4977 5.57137   3
  -9   8   0 40.4689 5.64431   1
   8  -8   0 83.3774 7.93762   1
  -8   8   0 60.5804 6.39371   3
  -8   8   0 64.3780 6.63666   1
   7  -8   0 37.6383 4.69620   2
   7  -8   0 52.5669 5.65288   1
  -7   8   0 45.6730 5.34538   1
  -7   8   0 41.5908 5.05468   3
   6  -8   0 84.5753 5.63151   1
   6  -8   0 66.1976 5.75198   2
  -6   8   0 82.8871 5.62221   3
  -6   8   0 79.2701 5.83679   1
   5  -8   0 281.273 10.0165   2
   5  -8   0 287.266 9.55064   3
   5  -8   0 292.120 10.0694   1
  -5   8   0 292.684 10.3202   3
  -5   8   0 303.820 10.7415   1
   4  -8   0 89.2342 5.30923   1
   4  -8   0 88.6416 5.70391   2
   4  -8   0 92.4067 5.02041   3
  -4   8   0 80.4957 5.46343   1
  -4   8   0 84.8093 5.23752   3
   3  -8   0 335.595 10.1638   1
   3  -8   0 334.173 9.75774   3
   3  -8   0 336.145 10.7163   2
   3  -8   0 313.202 12.3254   2
  -3   8   0 340.822 10.7012   3
  -3   8   0 324.609 10.8968   1
   2  -8   0 47.5284 4.42952   1
   2  -8   0 46.0434 4.13053   3
   2  -8   0 34.9740 4.04160   2
   2  -8   0 36.7952 4.46510   2
  -2   8   0 40.6381 4.34416   3
  -2   8   0 41.4984 4.48721   1
   1  -8   0 29.7428 3.41834   3
   1  -8   0 40.0210 4.03250   1
   1  -8   0 42.5359 4.52612   2
  -1   8   0 30.4256 3.79492   3
  -1   8   0 28.9529 3.93733   1
   0  -8   0 -0.8616 1.42344   3
   0  -8   0 4.74076 2.46416   2
   0  -8   0 2.80671 1.76664   1
   0   8   0 1.31272 1.63014   1
   0   8   0 3.98666 1.89922   3
  -1  -8   0 53.7982 5.59445   2
   1   8   0 55.5135 5.73959   1
   1   8   0 60.4189 5.80818   3
  -2  -8   0 48.4991 5.66331   2
   2   8   0 66.0237 6.62156   1
   2   8   0 67.2133 6.51002   3
  -3  -8   0 -1.1881 3.04993   2
   3   8   0 1.57265 2.46430   3
   3   8   0 1.42712 2.25318   1
   9  -9   0 1.96347 2.42540   1
  -9   9   0 1.77672 2.40001   3
  -9   9   0 0.64748 2.16413   1
   8  -9   0 166.407 8.80918   1
  -8   9   0 168.857 8.88365   3
  -8   9   0 166.795 9.35050   1
   7  -9   0 96.4896 6.76524   2
   7  -9   0 106.099 6.74418   1
  -7   9   0 107.808 6.87425   3
  -7   9   0 96.5827 6.98784   1
   6  -9   0 2.49881 2.01832   1
   6  -9   0 3.33544 2.19012   2
  -6   9   0 1.96634 2.07641   3
  -6   9   0 3.58800 2.11356   1
   5  -9   0 342.881 10.7342   3
   5  -9   0 340.426 11.8902   2
   5  -9   0 363.847 11.6727   1
  -5   9   0 339.788 11.7411   3
  -5   9   0 346.720 12.2762   1
   4  -9   0 316.977 9.98606   3
   4  -9   0 319.629 10.4966   1
   4  -9   0 311.077 11.0748   2
  -4   9   0 308.051 11.2563   1
  -4   9   0 314.053 10.8878   3
   3  -9   0 24.3691 3.62556   1
   3  -9   0 17.1750 3.44701   2
   3  -9   0 12.7610 2.65421   3
  -3   9   0 14.2863 3.01495   3
  -3   9   0 17.2128 3.35671   1
   2  -9   0 1179.46 26.5524   2
   2  -9   0 1160.29 24.1667   3
   2  -9   0 1183.78 25.2779   1
  -2   9   0 1186.32 26.4728   3
  -2   9   0 1181.90 26.9931   1
   1  -9   0 124.968 7.15956   2
   1  -9   0 118.925 5.70722   3
  -1   9   0 123.809 6.83832   3
  -1   9   0 110.237 6.82766   1
   0  -9   0 37.9287 4.94884   2
   0   9   0 31.3224 4.48156   3
   0   9   0 30.4505 4.55935   1
  -1  -9   0 161.455 9.04294   2
   1   9   0 142.419 8.53549   1
   1   9   0 162.653 8.48906   3
  -2  -9   0 -0.5686 3.18110   2
   2   9   0 0.38501 2.28849   3
   2   9   0 1.33990 2.36334   1
  -9  10   0 25.3710 4.84514   1
  -9  10   0 38.4390 5.70376   3
  -8  10   0 25.7844 4.59036   3
  -8  10   0 42.2349 5.80395   1
   7 -10   0 77.3172 5.72258   3
   7 -10   0 83.5247 9.21525   1
  -7  10   0 67.2283 7.05057   1
  -7  10   0 86.8928 6.47140   3
   6 -10   0 153.108 8.78761   1
   6 -10   0 162.732 8.77068   2
   6 -10   0 155.763 7.34474   3
  -6  10   0 178.108 8.81750   3
  -6  10   0 166.236 8.87162   1
   5 -10   0 68.4459 6.31800   2
   5 -10   0 60.6567 5.40691   3
  -5  10   0 61.9221 6.25254   3
  -5  10   0 60.9034 6.42746   1
   4 -10   0 225.985 9.79510   2
   4 -10   0 205.333 7.93238   3
  -4  10   0 192.899 9.06711   3
  -4  10   0 212.240 9.71426   1
   3 -10   0 -0.8722 2.10006   2
  -3  10   0 1.17279 1.82598   1
  -3  10   0 1.04784 1.78918   3
   2 -10   0 148.416 8.27973   2
  -2  10   0 134.275 7.57733   3
  -2  10   0 136.768 7.89495   1
   1 -10   0 11.6836 3.67060   2
  -1  10   0 13.1572 3.33230   3
  -1  10   0 10.1207 3.11786   1
   0 -10   0 58.2477 6.43709   2
   0  10   0 61.2512 6.70328   1
   0  10   0 63.6348 6.64978   3
  -1 -10   0 2.62980 3.09546   2
   1  10   0 0.27398 2.26494   3
   1  10   0 0.94200 2.52810   1
   8 -11   0 28.5794 4.43020   3
  -8  11   0 36.7775 5.85359   1
  -8  11   0 40.6697 6.01888   3
   7 -11   0 13.9884 3.21400   3
  -7  11   0 9.27961 3.31493   3
  -7  11   0 19.8208 4.35519   1
   6 -11   0 3.10632 2.72408   2
   6 -11   0 0.99255 1.93853   3
  -6  11   0 1.47823 2.00229   1
  -6  11   0 1.43931 2.15341   3
   5 -11   0 -1.5736 1.74865   3
   5 -11   0 -2.9813 1.93431   2
  -5  11   0 0.26091 1.99204   1
  -5  11   0 -0.7491 1.86382   3
   4 -11   0 34.8715 4.11961   3
   4 -11   0 43.1687 5.73522   2
  -4  11   0 37.8550 5.34189   1
  -4  11   0 27.6489 4.54433   3
   3 -11   0 71.1506 7.09300   2
  -3  11   0 67.8249 6.86329   1
  -3  11   0 63.5567 6.69198   3
   2 -11   0 39.7745 5.31001   2
  -2  11   0 39.5795 5.33343   3
  -2  11   0 40.7225 5.48528   1
   1 -11   0 2.80150 2.85724   2
  -1  11   0 1.88233 2.13604   3
  -1  11   0 0.57129 2.07334   1
   0 -11   0 4.80107 3.27524   2
   0  11   0 3.42595 2.75744   1
   0  11   0 6.59969 2.74747   3
   7 -12   0 1.35110 2.13882   3
  -7  12   0 -0.0631 2.21001   1
  -7  12   0 -0.2144 2.16799   3
   6 -12   0 0.42866 2.13304   3
  -6  12   0 0.92491 2.51195   3
  -6  12   0 2.10648 2.48641   1
   5 -12   0 2.48262 3.00553   2
  -5  12   0 0.93003 2.19990   1
  -5  12   0 1.48573 2.24235   3
   4 -12   0 76.7367 7.74726   2
  -4  12   0 78.2683 7.89618   1
  -4  12   0 77.0392 7.48201   3
   3 -12   0 3.43365 2.95382   2
  -3  12   0 -1.9552 1.67924   3
  -3  12   0 -0.6513 1.71846   1
   2 -12   0 1.55426 3.10041   2
  -2  12   0 5.10399 2.65320   3
  -2  12   0 1.41893 2.52321   1
  -2  12  -1 147.803 9.02853   1
   2 -12   1 162.807 9.45808   2
  -3  12  -1 32.6396 5.05651   1
  -3  12  -1 35.2436 5.40014   3
   3 -12   1 38.6423 5.83982   2
  -4  12  -1 4.52032 2.70189   3
  -4  12  -1 -0.5735 1.99296   1
   4 -12   1 6.26144 3.10371   2
  -5  12  -1 2.52601 2.35817   3
  -5  12  -1 3.02286 2.50745   1
   5 -12   1 2.43890 2.68903   2
  -6  12  -1 8.93272 2.96304   3
  -6  12  -1 10.3293 3.50088   1
   6 -12   1 12.6165 3.94491   2
  -7  12  -1 -0.1206 2.15147   3
  -7  12  -1 2.11765 2.52634   1
   7 -12   1 -1.1794 1.86170   3
   0  11  -1 12.3720 3.49520   1
   0 -11   1 13.5740 3.81410   2
  -1  11  -1 -1.1971 1.81094   1
  -1  11  -1 0.87978 2.02278   3
   1 -11   1 1.79546 2.78244   2
  -2  11  -1 6.92211 2.60672   3
  -2  11  -1 10.0068 3.14255   1
   2 -11   1 6.07036 3.06894   2
  -3  11  -1 1.35721 2.01627   1
  -3  11  -1 1.46381 1.84414   3
   3 -11   1 2.68852 2.65537   2
  -4  11  -1 8.27040 2.90606   1
  -4  11  -1 4.99646 2.53608   3
   4 -11   1 13.6823 3.73643   2
  -5  11  -1 370.220 13.3214   3
  -5  11  -1 327.990 13.2375   1
   5 -11   1 366.123 13.3379   2
  -6  11  -1 303.187 12.6844   1
  -6  11  -1 291.866 12.0946   3
   6 -11   1 289.450 9.88950   3
   6 -11   1 307.053 12.4914   2
  -7  11  -1 6.57766 2.92763   1
  -7  11  -1 9.38559 3.37302   3
   7 -11   1 8.16860 2.59622   3
  -8  11  -1 1.47518 2.48687   3
  -8  11  -1 3.35983 2.63550   1
   8 -11   1 1.94682 2.12211   3
   2  10  -1 22.9081 4.46087   1
  -2 -10   1 17.3823 4.59483   2
   1  10  -1 33.7627 5.04001   1
  -1 -10   1 28.1982 4.74917   2
   0  10  -1 11.1855 3.12076   3
   0  10  -1 9.65058 2.98218   1
   0 -10   1 7.61852 3.10842   2
  -1  10  -1 13.2810 3.11564   3
  -1  10  -1 10.3103 2.91550   1
   1 -10   1 13.6560 3.35242   2
  -2  10  -1 7.82010 2.57732   3
  -2  10  -1 7.66458 2.66788   1
   2 -10   1 8.03179 3.05661   2
  -3  10  -1 148.136 7.91747   1
  -3  10  -1 171.831 8.15294   3
   3 -10   1 167.575 8.29274   2
  -4  10  -1 100.323 6.40353   3
  -4  10  -1 107.554 6.88155   1
   4 -10   1 97.6006 6.68272   2
  -5  10  -1 41.1190 5.33236   3
  -5  10  -1 35.2252 4.65656   1
   5 -10   1 45.9370 5.35725   2
   5 -10   1 45.9179 4.46982   3
  -6  10  -1 58.2284 6.14112   1
  -6  10  -1 48.7931 5.80812   3
   6 -10   1 58.1718 5.24727   3
   6 -10   1 51.3635 5.65726   2
  -7  10  -1 44.8498 5.81067   3
  -7  10  -1 36.1474 5.04245   1
   7 -10   1 42.4976 5.24360   2
   7 -10   1 46.4529 4.98116   3
  -8  10  -1 16.7199 4.06793   1
  -8  10  -1 7.22596 2.79042   3
  -9  10  -1 300.256 13.1452   3
   3   9  -1 21.2436 4.45337   1
  -3  -9   1 14.3258 4.47183   2
   2   9  -1 45.4248 5.47542   1
   2   9  -1 56.9352 6.38567   3
  -2  -9   1 50.5518 6.04691   2
   1   9  -1 30.7982 4.56441   1
   1   9  -1 32.6365 4.44222   3
  -1  -9   1 31.7004 4.81940   2
   0   9  -1 27.1381 4.12470   1
   0   9  -1 28.8586 4.02962   3
   0  -9   1 21.8260 3.69822   2
  -1   9  -1 4.65873 2.07011   3
  -1   9  -1 7.84220 2.45191   1
   1  -9   1 5.96390 2.59916   2
  -2   9  -1 48.2950 4.80292   3
  -2   9  -1 43.3262 4.77795   1
   2  -9   1 52.9566 5.06577   2
  -3   9  -1 130.165 6.56942   3
  -3   9  -1 135.020 7.02266   1
   3  -9   1 133.329 7.12141   2
   3  -9   1 133.763 7.30211   1
  -4   9  -1 16.5808 3.23352   1
  -4   9  -1 17.5008 3.27214   3
   4  -9   1 23.9566 3.05250   3
   4  -9   1 18.6505 3.44133   2
   4  -9   1 21.5542 3.25774   1
  -5   9  -1 6.26692 2.51637   3
  -5   9  -1 2.96743 2.06293   1
   5  -9   1 7.04307 2.41022   2
   5  -9   1 5.85553 2.05764   3
   5  -9   1 4.29928 2.12746   1
  -6   9  -1 174.444 8.26637   3
  -6   9  -1 150.619 8.15325   1
   6  -9   1 158.748 7.60670   1
   6  -9   1 155.870 8.01898   2
  -7   9  -1 90.4700 6.53786   3
  -7   9  -1 89.5109 6.75981   1
   7  -9   1 89.4545 6.64197   2
   7  -9   1 96.6530 6.43106   1
  -8   9  -1 21.3724 4.23238   3
  -8   9  -1 18.6784 4.10968   1
   8  -9   1 25.9638 6.19120   1
  -9   9  -1 112.933 8.35707   1
  -9   9  -1 119.248 8.21434   3
   4   8  -1 23.9530 4.60464   3
   4   8  -1 17.1179 4.32673   1
  -4  -8   1 33.5656 5.86521   2
   3   8  -1 2.08318 2.23207   1
   3   8  -1 5.59339 2.54368   3
  -3  -8   1 8.73559 3.53039   2
   2   8  -1 168.717 8.62641   1
   2   8  -1 172.591 8.28780   3
  -2  -8   1 187.407 9.07697   2
   1   8  -1 9.43781 2.58761   3
   1   8  -1 4.23385 2.19930   1
  -1  -8   1 3.83869 2.54052   2
   0   8  -1 380.717 12.0901   1
   0   8  -1 372.206 11.5468   3
   0  -8   1 392.132 11.8213   2
  -1   8  -1 159.519 6.89452   3
  -1   8  -1 161.982 7.25490   1
   1  -8   1 158.809 7.25782   2
   1  -8   1 153.823 6.04549   1
   1  -8   1 165.197 7.02500   2
  -2   8  -1 6.09736 2.11052   1
  -2   8  -1 5.61536 2.01157   3
   2  -8   1 7.96937 2.33815   2
   2  -8   1 4.42928 1.98070   2
   2  -8   1 4.54082 2.23677   2
   2  -8   1 6.07154 1.85880   1
  -3   8  -1 354.482 10.6963   3
  -3   8  -1 345.960 10.9926   1
   3  -8   1 360.203 10.8963   2
   3  -8   1 328.787 10.2593   2
   3  -8   1 343.359 9.81145   1
   3  -8   1 335.484 9.23116   3
  -4   8  -1 1.16029 1.48874   3
  -4   8  -1 2.78212 1.72315   1
   4  -8   1 0.37279 1.40428   1
   4  -8   1 1.92980 1.39032   3
   4  -8   1 -0.3449 1.55591   2
   4  -8   1 2.96081 2.01450   2
  -5   8  -1 255.726 9.53857   3
  -5   8  -1 254.472 9.76780   1
   5  -8   1 243.958 8.92413   1
   5  -8   1 262.936 9.58086   2
  -6   8  -1 283.759 10.8154   1
  -6   8  -1 289.666 10.5228   3
   6  -8   1 277.870 10.2490   2
   6  -8   1 266.931 9.98825   1
  -7   8  -1 55.2147 5.93059   1
  -7   8  -1 53.6066 5.65803   3
   7  -8   1 61.4711 6.21290   1
   7  -8   1 68.1259 6.14657   2
  -8   8  -1 14.9470 3.61394   1
  -8   8  -1 19.0035 3.78630   3
   8  -8   1 20.4972 3.88872   1
  -9   8  -1 3.48097 2.25860   3
  -9   8  -1 1.52018 2.15873   1
   9  -8   1 2.40475 2.46868   1
   5   7  -1 5.19374 3.19628   1
   5   7  -1 14.1865 4.04560   3
  -5  -7   1 15.3478 4.41117   2
   4   7  -1 191.534 10.1134   1
   4   7  -1 215.777 9.99359   3
  -4  -7   1 199.682 10.4250   2
   3   7  -1 69.8561 6.61373   1
   3   7  -1 79.1480 6.08754   3
  -3  -7   1 93.3786 7.28431   2
   2   7  -1 3.06107 2.13051   1
   2   7  -1 4.91065 2.04250   3
  -2  -7   1 4.26304 2.59079   2
   1   7  -1 335.659 10.7893   1
   1   7  -1 306.887 9.97789   3
  -1  -7   1 311.156 8.77159   1
  -1  -7   1 301.950 10.1347   2
  -1  -7   1 298.932 9.87191   2
   0   7  -1 360.070 10.3893   3
   0   7  -1 358.449 10.8556   1
   0  -7   1 370.550 9.44892   1
   0  -7   1 351.947 10.5032   2
   0  -7   1 336.811 10.2311   2
  -1   7  -1 163.828 6.73307   1
  -1   7  -1 169.221 6.45043   3
   1  -7   1 161.519 6.59483   2
   1  -7   1 164.672 6.46355   2
   1  -7   1 176.697 5.91796   1
  -2   7  -1 233.759 8.00425   1
  -2   7  -1 225.678 7.51928   3
   2  -7   1 219.272 7.49756   2
   2  -7   1 220.787 7.69460   2
   2  -7   1 221.657 7.00770   1
   2  -7   1 224.187 7.74499   2
  -3   7  -1 10.8596 2.26024   3
  -3   7  -1 10.8058 2.30363   1
   3  -7   1 9.87368 2.19800   2
   3  -7   1 6.78919 1.76463   3
   3  -7   1 10.1145 2.09176   2
   3  -7   1 8.94749 1.96703   1
  -4   7  -1 529.944 14.0631   1
  -4   7  -1 544.586 13.8201   3
   4  -7   1 521.393 12.6971   3
   4  -7   1 491.072 13.1654   2
   4  -7   1 535.846 13.6781   2
   4  -7   1 530.124 13.3686   1
  -5   7  -1 159.869 7.23194   1
  -5   7  -1 148.772 6.68326   3
   5  -7   1 147.555 6.68379   1
   5  -7   1 157.331 6.90570   2
  -6   7  -1 61.7286 5.83487   1
  -6   7  -1 75.8510 5.35946   3
   6  -7   1 67.6578 5.08914   1
   6  -7   1 71.0652 5.89376   2
  -7   7  -1 95.2240 6.53919   1
  -7   7  -1 90.6826 6.25388   3
   7  -7   1 104.742 6.35752   1
   7  -7   1 101.781 6.36419   2
  -8   7  -1 37.2558 5.10054   1
  -8   7  -1 46.5538 5.50454   3
   8  -7   1 39.0482 5.14743   1
  -9   7  -1 6.96128 2.95174   1
  -9   7  -1 1.73941 2.49836   3
   9  -7   1 6.40533 2.72444   1
   6   6  -1 77.0203 8.58356   1
   6   6  -1 65.8439 7.36807   3
   6   6  -1 64.3908 7.56041   1
  -6  -6   1 66.4485 7.35848   2
   5   6  -1 111.540 7.91207   1
   5   6  -1 102.230 7.40529   3
  -5  -6   1 105.732 8.17083   2
   4   6  -1 351.884 13.1534   1
   4   6  -1 369.105 12.6204   3
  -4  -6   1 380.193 13.0902   2
   3   6  -1 4.25687 2.15366   1
   3   6  -1 3.13008 2.21026   3
  -3  -6   1 4.32830 2.76940   2
   2   6  -1 2.31690 1.66198   1
   2   6  -1 0.70124 1.39428   3
  -2  -6   1 3.45866 1.50475   1
  -2  -6   1 2.25033 2.16209   2
  -2  -6   1 2.88795 1.92962   2
   1   6  -1 65.2297 4.03139   3
   1   6  -1 54.8040 4.03985   1
  -1  -6   1 57.3611 4.44385   2
  -1  -6   1 60.3819 4.42720   2
  -1  -6   1 55.3646 3.41615   1
   0   6  -1 12.0164 2.08308   3
   0   6  -1 8.73423 1.89008   1
   0  -6   1 8.96830 1.95346   2
   0  -6   1 11.0056 1.80857   1
   0  -6   1 9.90910 2.13973   2
  -1   6  -1 22.8366 2.69138   1
  -1   6  -1 21.8343 2.49073   3
   1  -6   1 28.1154 2.76356   2
   1  -6   1 23.4426 2.39172   1
   1  -6   1 21.6168 2.51074   2
  -2   6  -1 335.116 9.33532   1
  -2   6  -1 331.295 9.04933   3
   2  -6   1 339.182 8.61444   1
   2  -6   1 328.303 8.92182   2
   2  -6   1 331.752 8.97136   2
   2  -6   1 340.626 8.25052   3
  -3   6  -1 3.92168 1.50179   1
  -3   6  -1 1.53012 1.21704   3
   3  -6   1 2.57799 1.46455   2
   3  -6   1 3.77293 1.55572   2
   3  -6   1 3.91696 1.32857   3
   3  -6   1 7.46623 1.67597   1
  -4   6  -1 279.168 9.09242   1
  -4   6  -1 283.782 8.91577   3
   4  -6   1 285.551 8.91763   2
   4  -6   1 300.888 8.94769   1
  -5   6  -1 -0.0761 1.30385   1
  -5   6  -1 2.14370 1.55377   3
   5  -6   1 2.07269 1.63205   2
   5  -6   1 2.65706 1.60323   1
  -6   6  -1 9.10820 2.39685   1
  -6   6  -1 16.5797 2.99968   3
   6  -6   1 16.9043 3.19313   1
   6  -6   1 9.25923 2.49161   2
  -7   6  -1 -0.9429 1.51700   3
  -7   6  -1 -1.1917 1.62748   1
   7  -6   1 1.53991 1.80847   2
   7  -6   1 0.16002 1.59919   1
  -8   6  -1 3.79616 2.56365   1
  -8   6  -1 1.33819 2.08060   3
   8  -6   1 7.01479 2.69896   1
  -9   6  -1 17.8035 4.04539   1
  -9   6  -1 11.5517 3.45892   3
   9  -6   1 19.9616 4.20377   1
   6   5  -1 99.3473 7.74534   3
   6   5  -1 96.4295 9.20598   1
   6   5  -1 98.2209 7.83101   1
  -6  -5   1 107.335 8.78174   2
   5   5  -1 17.6303 3.89665   3
   5   5  -1 11.1000 3.21283   1
  -5  -5   1 18.9932 4.02374   2
   4   5  -1 85.9169 6.07784   1
   4   5  -1 84.1961 5.78286   3
  -4  -5   1 81.9212 6.32034   2
   3   5  -1 28.0276 3.72897   1
   3   5  -1 34.2104 3.93600   3
  -3  -5   1 37.9998 4.02500   2
  -3  -5   1 36.3487 3.60815   1
  -3  -5   1 32.4302 3.92772   2
   2   5  -1 13.4826 2.23511   3
   2   5  -1 10.8956 2.29272   1
  -2  -5   1 10.1089 2.43190   2
  -2  -5   1 12.2098 2.39419   2
  -2  -5   1 15.4868 2.27069   1
   1   5  -1 13.4951 2.14203   1
   1   5  -1 14.7405 2.11308   3
  -1  -5   1 15.7498 2.27590   2
  -1  -5   1 10.7315 1.98582   2
  -1  -5   1 15.5025 1.95601   1
   0   5  -1 260.931 7.12952   3
   0   5  -1 256.181 7.38747   1
   0  -5   1 260.194 7.11440   2
   0  -5   1 250.667 7.12081   2
   0  -5   1 256.763 6.58041   1
  -1   5  -1 189.821 5.76922   3
  -1   5  -1 190.504 6.03837   1
   1  -5   1 193.335 5.91287   2
   1  -5   1 207.472 5.92649   2
   1  -5   1 203.646 5.55495   1
  -2   5  -1 62.6177 3.24350   3
  -2   5  -1 59.1887 3.29908   1
   2  -5   1 62.4575 3.19514   1
   2  -5   1 58.3358 3.18409   2
   2  -5   1 59.8231 2.91441   3
   2  -5   1 62.4888 3.38996   2
  -3   5  -1 32.5797 3.05218   3
  -3   5  -1 29.3013 3.06842   1
   3  -5   1 26.0243 2.51428   2
   3  -5   1 16.1363 2.30125   2
   3  -5   1 28.7637 2.94653   1
  -4   5  -1 25.7959 3.18481   1
  -4   5  -1 21.7733 2.61767   3
   4  -5   1 27.1762 3.04514   1
   4  -5   1 21.3290 2.63523   2
  -5   5  -1 18.2735 2.65436   3
  -5   5  -1 23.7697 3.08445   1
   5  -5   1 21.6025 2.87641   2
   5  -5   1 29.9597 3.81193   1
  -6   5  -1 15.1548 2.90459   1
  -6   5  -1 19.4860 3.12653   3
   6  -5   1 18.1854 2.99945   2
   6  -5   1 14.9220 3.10001   1
  -7   5  -1 41.4043 4.83753   1
  -7   5  -1 35.2978 4.31644   3
   7  -5   1 37.0332 4.33090   2
   7  -5   1 50.3687 5.60204   1
   7  -5   1 48.7039 4.98219   3
  -8   5  -1 184.930 9.12518   1
  -8   5  -1 162.127 8.36730   3
   8  -5   1 163.204 8.60994   1
   8  -5   1 174.691 8.59289   3
  -9   5  -1 2.21248 2.36558   1
  -9   5  -1 -1.7467 1.77833   3
   9  -5   1 0.35935 2.00653   1
   9  -5   1 -0.6854 1.99818   3
   7   4  -1 17.4577 4.41155   1
   7   4  -1 16.1539 4.20804   3
  -7  -4   1 22.0725 5.08631   2
   6   4  -1 32.2167 4.92346   3
   6   4  -1 28.0366 4.95066   1
   6   4  -1 24.5736 4.57428   1
  -6  -4   1 27.6430 5.01792   2
  -6  -4   1 22.0550 3.42683   3
   5   4  -1 43.1723 5.32740   1
   5   4  -1 36.9023 4.66576   3
  -5  -4   1 33.4161 3.67809   3
  -5  -4   1 36.5528 4.69998   2
   4   4  -1 65.3130 5.02691   1
   4   4  -1 64.7435 5.43344   3
  -4  -4   1 60.1079 4.05911   3
  -4  -4   1 64.3024 4.32796   1
  -4  -4   1 58.2697 5.18792   2
  -4  -4   1 56.1482 4.97487   2
   3   4  -1 13.6413 2.52637   1
   3   4  -1 13.3520 2.35126   3
  -3  -4   1 10.5895 1.91268   3
  -3  -4   1 14.9886 2.33038   1
  -3  -4   1 10.5936 2.58254   2
  -3  -4   1 7.91697 2.20687   2
   2   4  -1 94.5084 4.58631   1
   2   4  -1 103.586 4.40139   3
  -2  -4   1 96.3034 4.60057   2
  -2  -4   1 103.940 4.15838   1
  -2  -4   1 106.677 4.69840   2
   1   4  -1 519.008 11.8526   1
   1   4  -1 539.320 11.4922   3
  -1  -4   1 516.367 10.8723   1
  -1  -4   1 525.289 11.4822   2
  -1  -4   1 518.343 11.3862   2
   0   4  -1 356.055 8.01939   3
   0   4  -1 337.539 8.15220   1
   0  -4   1 346.025 7.98864   2
   0  -4   1 350.637 7.62851   1
   0  -4   1 342.182 7.93490   2
  -1   4  -1 33.3369 2.25449   1
  -1   4  -1 42.2969 2.28406   3
   1  -4   1 41.9257 2.42555   2
   1  -4   1 38.9258 2.39962   2
   1  -4   1 35.5057 2.07479   1
  -2   4  -1 466.526 10.2395   3
  -2   4  -1 465.434 10.4587   1
   2  -4   1 468.778 10.2078   1
   2  -4   1 452.585 10.0889   2
   2  -4   1 481.420 10.3601   2
  -3   4  -1 0.70697 1.00633   3
  -3   4  -1 2.89303 1.20521   1
   3  -4   1 1.64571 1.24487   2
   3  -4   1 1.67516 1.20868   2
   3  -4   1 2.85677 1.16825   1
  -4   4  -1 28.1147 3.04529   1
  -4   4  -1 19.7179 2.44604   3
   4  -4   1 21.8740 2.67440   1
   4  -4   1 23.0042 2.65029   2
  -5   4  -1 95.6059 5.03348   2
  -5   4  -1 100.334 5.15148   3
   5  -4   1 108.281 5.23087   2
   5  -4   1 103.236 5.28649   3
  -6   4  -1 30.4344 3.89809   1
  -6   4  -1 27.4243 3.64552   2
  -6   4  -1 31.5146 3.86342   3
   6  -4   1 31.0363 3.85889   3
   6  -4   1 33.0242 4.00468   1
   6  -4   1 29.3448 3.61279   2
  -7   4  -1 37.1700 4.45735   3
  -7   4  -1 48.8924 5.48718   1
   7  -4   1 51.5154 5.12380   3
   7  -4   1 49.8328 5.51729   1
  -8   4  -1 12.2749 3.20981   3
  -8   4  -1 6.50947 2.58199   1
   8  -4   1 10.3668 2.94090   3
   8  -4   1 16.7902 3.90112   1
  -9   4  -1 55.6755 6.28940   3
  -9   4  -1 57.2811 6.69282   1
   9  -4   1 51.5118 6.42254   1
   9  -4   1 56.9212 6.32200   3
   8   3  -1 21.8070 4.90751   3
   7   3  -1 66.8578 7.32043   1
   7   3  -1 68.0285 7.15240   3
  -7  -3   1 61.9460 5.43336   3
  -7  -3   1 68.0177 7.38307   2
   6   3  -1 4.56209 2.30399   1
   6   3  -1 2.25072 2.49105   3
  -6  -3   1 -0.3056 2.67644   2
  -6  -3   1 4.49132 2.04789   3
   5   3  -1 12.0660 2.91362   1
   5   3  -1 10.4340 2.96945   1
   5   3  -1 8.89775 2.53894   3
  -5  -3   1 13.7147 2.74463   1
  -5  -3   1 10.1017 2.41368   3
  -5  -3   1 10.7840 3.07560   2
   4   3  -1 25.3200 3.44981   1
   4   3  -1 30.7782 3.54102   3
  -4  -3   1 29.6286 3.41073   2
  -4  -3   1 28.0067 3.03206   3
  -4  -3   1 27.2052 3.51305   2
  -4  -3   1 24.9545 3.05692   1
   3   3  -1 1.05484 1.31977   1
   3   3  -1 0.24142 1.14582   3
  -3  -3   1 -0.8580 1.50598   2
  -3  -3   1 5.15641 1.43010   1
  -3  -3   1 -0.2556 1.31789   2
  -3  -3   1 0.66075 1.02089   3
   2   3  -1 65.7136 3.16560   3
   2   3  -1 66.8792 3.39148   1
  -2  -3   1 64.0429 2.99828   1
  -2  -3   1 62.9192 3.33493   2
  -2  -3   1 73.2646 3.57952   2
   1   3  -1 23.5940 2.08340   1
   1   3  -1 22.8365 1.89116   3
  -1  -3   1 20.6166 1.90981   2
  -1  -3   1 20.7665 1.62395   1
  -1  -3   1 20.1557 1.79207   2
   0   3  -1 1382.15 23.9100   3
   0   3  -1 1365.75 24.1385   1
   0  -3   1 1395.46 23.9004   2
   0  -3   1 1383.26 23.6715   1
   0  -3   1 1368.47 23.9438   2
  -1   3  -1 96.4458 3.02171   3
  -1   3  -1 95.1396 3.17667   1
   1  -3   1 90.5247 2.96001   1
   1  -3   1 93.2956 3.09017   2
   1  -3   1 92.2036 3.06777   2
   1  -3   1 93.7264 3.16268   2
  -2   3  -1 8.99189 1.37851   1
  -2   3  -1 9.56195 1.41289   3
   2  -3   1 8.67313 1.42243   2
   2  -3   1 7.08972 1.29947   2
   2  -3   1 7.27987 1.32852   1
  -3   3  -1 41.3143 2.78508   1
  -3   3  -1 40.1332 2.66153   3
   3  -3   1 40.6417 2.72919   2
   3  -3   1 37.6307 2.67588   3
   3  -3   1 46.9523 2.85560   1
  -4   3  -1 116.862 4.96297   3
  -4   3  -1 118.630 4.98703   2
  -4   3  -1 119.650 5.18778   1
   4  -3   1 118.371 5.04071   3
   4  -3   1 125.755 5.05189   2
   4  -3   1 121.047 5.17041   1
  -5   3  -1 58.8222 4.06227   3
  -5   3  -1 73.3179 4.61170   1
  -5   3  -1 56.1891 4.30604   2
   5  -3   1 60.7168 4.32679   3
   5  -3   1 61.0378 4.06377   2
   5  -3   1 66.7893 4.46591   1
  -6   3  -1 87.0124 5.62083   1
  -6   3  -1 89.9663 5.82660   2
  -6   3  -1 91.5212 5.52706   3
   6  -3   1 86.9699 5.23719   2
   6  -3   1 71.2492 5.15857   3
   6  -3   1 88.8661 5.69527   1
  -7   3  -1 20.6854 3.77618   1
  -7   3  -1 24.4386 3.85803   3
   7  -3   1 25.6328 4.47159   1
   7  -3   1 22.3785 3.77414   3
  -8   3  -1 28.3037 4.48760   1
  -8   3  -1 24.4752 4.21508   3
   8  -3   1 15.0843 3.58395   3
   8  -3   1 34.2591 5.55013   1
  -9   3  -1 63.6935 7.22501   1
  -9   3  -1 51.3059 6.09472   3
   9  -3   1 67.1431 7.39534   1
   9  -3   1 71.4387 7.56338   3
   8   2  -1 47.4314 6.24650   3
   8   2  -1 48.9015 6.86717   1
  -8  -2   1 34.1496 4.41849   3
   7   2  -1 7.95718 3.11615   3
   7   2  -1 12.5722 3.52324   1
  -7  -2   1 13.2133 2.99948   3
  -7  -2   1 13.1850 4.17366   2
   6   2  -1 13.3276 3.23712   3
   6   2  -1 15.8613 3.58932   1
  -6  -2   1 12.8121 3.49534   2
  -6  -2   1 17.0316 3.17787   1
  -6  -2   1 18.5492 3.08610   3
   5   2  -1 4.33794 2.18344   1
   5   2  -1 6.66026 2.20674   3
  -5  -2   1 2.60623 1.67217   3
  -5  -2   1 2.32810 1.73861   1
  -5  -2   1 5.30401 2.60197   2
   4   2  -1 42.1429 4.10078   1
   4   2  -1 39.3286 3.80609   3
  -4  -2   1 33.8713 3.46513   2
  -4  -2   1 37.1067 3.36173   1
  -4  -2   1 32.8578 3.13724   3
  -4  -2   1 33.0268 3.38514   2
   3   2  -1 303.327 8.09633   3
   3   2  -1 307.464 8.52878   1
  -3  -2   1 293.572 8.00033   2
  -3  -2   1 304.545 7.80639   1
  -3  -2   1 309.527 8.26238   2
  -3  -2   1 305.181 7.56899   3
   2   2  -1 733.721 14.0736   3
   2   2  -1 718.011 14.4151   1
  -2  -2   1 724.386 13.8754   1
  -2  -2   1 720.920 14.0981   2
  -2  -2   1 707.296 13.5182   3
  -2  -2   1 721.434 14.0568   2
   1   2  -1 32.2489 1.62193   3
   1   2  -1 32.0667 1.83817   1
  -1  -2   1 32.4060 1.55782   1
   0   2  -1 2.94740 0.62344   1
   0   2  -1 3.76260 0.69224   1
  -1   2  -1 1805.10 30.5679   1
  -1   2  -1 1793.17 30.3920   3
   1  -2   1 1745.23 30.3208   2
   1  -2   1 1864.68 30.5164   1
   1  -2   1 1786.33 30.3696   2
  -2   2  -1 67.0841 2.95214   1
  -2   2  -1 71.2517 2.89388   3
   2  -2   1 70.8559 2.93307   2
   2  -2   1 68.8035 2.54944   4
   2  -2   1 71.7336 2.98002   3
   2  -2   1 66.8826 2.97305   1
   2  -2   1 64.3244 3.62043   2
  -3   2  -1 793.500 16.3250   3
  -3   2  -1 817.268 16.6879   1
  -3   2  -1 823.125 16.3394   2
   3  -2   1 802.562 16.3629   3
   3  -2   1 816.160 16.7241   1
   3  -2   1 824.477 16.3313   2
  -4   2  -1 1977.57 36.0943   3
  -4   2  -1 1951.62 35.7756   2
  -4   2  -1 1952.81 36.4088   1
   4  -2   1 1934.31 35.7600   2
   4  -2   1 1935.70 36.3638   1
   4  -2   1 1923.29 36.0025   3
  -5   2  -1 -0.0776 1.40043   3
  -5   2  -1 1.18160 1.72847   2
  -5   2  -1 0.29439 1.31995   1
   5  -2   1 0.52440 1.51933   1
   5  -2   1 -0.9368 1.35879   3
   5  -2   1 2.46557 1.45270   2
  -6   2  -1 78.0094 5.72909   2
  -6   2  -1 82.0951 5.38546   3
  -6   2  -1 83.2233 5.72094   1
   6  -2   1 85.6753 5.73048   3
   6  -2   1 84.2268 5.76024   1
   6  -2   1 74.9362 5.05413   2
  -7   2  -1 21.4936 3.88215   1
  -7   2  -1 17.3897 3.37127   3
   7  -2   1 28.5601 4.62928   1
   7  -2   1 15.3910 3.50574   3
  -8   2  -1 287.376 11.5229   3
  -8   2  -1 273.246 11.6882   1
   8  -2   1 297.743 12.4107   1
   8  -2   1 291.283 11.9347   3
  -9   2  -1 128.987 8.64202   1
  -9   2  -1 121.214 8.02319   3
   9  -2   1 126.195 9.29451   1
   9  -2   1 113.854 8.30820   3
   9   1  -1 7.06418 3.52367   3
   8   1  -1 13.9462 4.03718   1
   8   1  -1 11.9218 3.76708   3
  -8  -1   1 11.5234 2.89453   3
   7   1  -1 13.9173 3.51047   3
   7   1  -1 21.8580 4.19994   1
  -7  -1   1 23.0180 3.74368   1
  -7  -1   1 20.0586 4.19612   2
  -7  -1   1 15.2659 3.15475   3
   6   1  -1 73.3195 5.64596   1
   6   1  -1 75.3077 5.67983   3
  -6  -1   1 74.9474 6.11159   2
  -6  -1   1 88.2979 5.29563   1
  -6  -1   1 68.7062 4.85768   3
   5   1  -1 90.6876 5.29885   3
   5   1  -1 77.5051 5.17440   1
  -5  -1   1 89.1567 5.56835   2
  -5  -1   1 85.2850 4.77152   1
  -5  -1   1 88.4606 4.67174   3
   4   1  -1 51.6453 3.54190   3
   4   1  -1 47.9002 3.57003   1
  -4  -1   1 44.5242 3.12662   1
  -4  -1   1 48.4181 3.11736   3
  -4  -1   1 54.9383 3.63990   2
  -4  -1   1 49.3407 3.79689   2
   3   1  -1 133.180 4.62639   3
   3   1  -1 127.874 4.82298   1
  -3  -1   1 129.049 4.80766   2
  -3  -1   1 132.573 4.61622   2
  -3  -1   1 136.743 4.56745   1
  -3  -1   1 131.981 4.31018   3
   2   1  -1 623.257 12.3478   1
   2   1  -1 616.952 12.0113   3
  -2  -1   1 634.232 11.7689   3
  -2  -1   1 630.395 12.1022   2
  -2  -1   1 637.467 12.0706   2
  -2  -1   1 625.141 11.9594   1
   1   1  -1 2376.57 39.2414   1
   1   1  -1 2382.20 39.2334   1
   0  -1   1 1928.78 33.3336   4
  -1   1  -1 236.952 5.21227   1
  -1   1  -1 231.988 5.08037   3
   1  -1   1 238.855 5.08934   3
   1  -1   1 236.122 5.06120   2
   1  -1   1 235.858 5.20930   1
   1  -1   1 228.227 5.27977   4
  -2   1  -1 3906.65 66.5321   2
  -2   1  -1 4002.63 66.8587   1
  -2   1  -1 4058.94 66.6853   3
   2  -1   1 3916.16 66.8655   1
   2  -1   1 3917.70 66.6476   3
   2  -1   1 4025.48 66.5675   2
  -3   1  -1 273.526 7.57773   1
  -3   1  -1 252.836 7.23696   3
  -3   1  -1 253.334 7.33187   2
   3  -1   1 280.811 7.38500   2
   3  -1   1 272.588 7.70145   1
   3  -1   1 254.745 7.27560   3
  -4   1  -1 89.0450 4.86335   2
  -4   1  -1 88.2049 4.66412   1
  -4   1  -1 101.810 4.72628   3
   4  -1   1 83.6216 4.68572   1
   4  -1   1 102.082 4.91217   3
   4  -1   1 81.7292 4.33687   2
  -5   1  -1 11.4769 2.66766   2
  -5   1  -1 10.2210 2.23584   3
  -5   1  -1 11.6621 2.53883   1
   5  -1   1 9.24272 2.08866   2
   5  -1   1 14.5034 2.78175   3
   5  -1   1 12.1272 2.57217   1
  -6   1  -1 185.823 8.05998   3
  -6   1  -1 186.604 8.45961   2
  -6   1  -1 177.914 8.22630   1
   6  -1   1 184.243 8.34590   3
   6  -1   1 185.888 8.57439   1
  -7   1  -1 267.488 10.4720   3
  -7   1  -1 275.009 11.0318   1
   7  -1   1 270.116 11.5824   1
   7  -1   1 274.083 11.1653   3
  -8   1  -1 62.7860 6.36578   3
  -8   1  -1 73.5063 7.07798   1
   8  -1   1 62.4902 6.89702   3
   8  -1   1 70.6338 7.85920   1
   9  -1   1 -0.3102 2.48975   3
   9   0  -1 27.9376 5.44152   1
   9   0  -1 26.5616 5.22580   3
  -9   0   1 15.7543 3.64814   3
   8   0  -1 0.34030 2.26475   3
   8   0  -1 4.18874 2.62565   1
  -8   0   1 1.74469 3.16277   2
  -8   0   1 -0.7187 1.90752   3
  -8   0   1 -1.3956 1.97833   1
   7   0  -1 650.350 18.0534   3
   7   0  -1 669.480 18.8319   1
  -7   0   1 645.508 17.2151   1
  -7   0   1 654.890 16.7983   3
  -7   0   1 680.290 18.2406   2
   6   0  -1 71.5200 5.46318   1
   6   0  -1 84.9633 5.66431   3
  -6   0   1 77.5266 4.85288   3
  -6   0   1 85.4103 5.19186   1
  -6   0   1 81.6722 5.91819   2
   5   0  -1 17.4380 3.01369   1
   5   0  -1 18.0275 2.73255   3
  -5   0   1 24.3891 2.97410   1
  -5   0   1 22.0741 2.80898   3
  -5   0   1 25.5973 3.26818   2
   4   0  -1 126.274 5.09794   3
   4   0  -1 130.811 5.36108   1
  -4   0   1 138.578 5.38949   2
  -4   0   1 127.916 4.94877   1
  -4   0   1 129.614 4.82836   3
   3   0  -1 668.190 14.0813   1
   3   0  -1 674.633 13.8096   3
  -3   0   1 691.028 13.8146   2
  -3   0   1 699.592 13.8799   2
  -3   0   1 689.947 13.5637   3
  -3   0   1 679.412 13.7077   1
   2   0  -1 37.0190 1.93139   3
   2   0  -1 33.4976 1.95267   1
  -2   0   1 34.5358 1.82476   1
  -2   0   1 36.3648 2.10283   2
  -2   0   1 35.4138 1.93982   2
  -2   0   1 28.8896 2.03928   4
  -2   0   1 32.1762 1.69958   3
   1   0  -1 81.0877 1.96094   1
  -1   0   1 79.0566 2.66908   4
  -1   0   1 82.9457 1.86212   1
   0   0  -1 79.5375 1.94424   1
   0   0  -1 75.4488 1.84090   3
   0   0   1 78.7860 1.84917   3
   0   0   1 75.3309 1.85081   2
   0   0   1 76.1121 1.90814   1
   0   0   1 78.0944 1.85314   2
  -1   0  -1 1011.98 17.8658   2
  -1   0  -1 955.586 17.9978   1
  -1   0  -1 1008.49 17.8986   3
   1   0   1 987.599 18.0895   1
   1   0   1 1025.21 17.8486   2
   1   0   1 1019.77 18.1250   1
   1   0   1 988.622 17.8881   3
  -2   0  -1 465.213 10.2246   2
  -2   0  -1 462.608 10.1861   3
  -2   0  -1 472.748 10.4199   1
   2   0   1 458.606 10.2142   3
   2   0   1 461.015 10.0590   2
  -3   0  -1 51.5884 3.25293   3
  -3   0  -1 46.3624 3.25623   1
  -3   0  -1 56.3561 3.58020   2
   3   0   1 48.5368 3.21896   2
   3   0   1 51.0810 3.36867   3
   3   0   1 53.5186 3.47452   1
  -4   0  -1 131.389 5.67298   3
  -4   0  -1 128.601 5.75414   1
  -4   0  -1 140.517 6.08184   2
   4   0   1 139.453 5.98493   3
   4   0   1 139.796 6.19680   1
   4   0   1 131.855 5.55001   2
  -5   0  -1 1.90913 2.07214   2
  -5   0  -1 1.18484 1.59691   3
  -5   0  -1 0.66808 1.61262   1
   5   0   1 2.86160 1.83947   2
   5   0   1 1.88324 1.85504   3
   5   0   1 1.14523 1.62938   1
  -6   0  -1 81.8461 6.69976   2
  -6   0  -1 95.3804 6.17228   1
  -6   0  -1 88.9113 5.93435   3
   6   0   1 87.3370 6.45335   1
   6   0   1 93.5057 6.47283   3
  -7   0  -1 262.965 10.9479   1
  -7   0  -1 254.925 10.4006   3
   7   0   1 265.008 11.1241   3
   7   0   1 256.912 11.5240   1
  -8   0  -1 0.65242 2.13318   3
  -8   0  -1 -1.5745 2.21711   1
   8   0   1 2.33382 2.44660   3
   8   0   1 -0.5164 2.18015   1
   9  -1  -1 261.810 12.5639   1
   9  -1  -1 257.147 12.0854   3
  -9   1   1 287.008 11.1893   3
   8  -1  -1 20.8097 4.32275   1
   8  -1  -1 26.7213 4.59416   3
  -8   1   1 28.2184 4.20704   3
  -8   1   1 18.1284 3.58485   1
  -8   1   1 26.9134 4.59297   2
   7  -1  -1 65.1300 6.02378   3
   7  -1  -1 47.6158 5.46314   1
  -7   1   1 46.8593 4.98066   1
  -7   1   1 54.3911 4.93883   3
  -7   1   1 52.8342 5.49312   2
   6  -1  -1 2.05468 1.91102   3
   6  -1  -1 3.90410 1.99906   1
  -6   1   1 0.69227 1.67955   1
  -6   1   1 1.49903 1.99603   2
  -6   1   1 0.19441 1.56723   3
   5  -1  -1 16.9528 2.69130   3
   5  -1  -1 9.95926 2.32446   1
  -5   1   1 12.6667 2.31903   1
  -5   1   1 14.4998 2.50249   2
  -5   1   1 10.6685 2.04489   3
   4  -1  -1 146.255 5.30660   3
   4  -1  -1 139.371 5.44547   1
  -4   1   1 142.001 5.35417   2
  -4   1   1 132.824 4.85877   3
  -4   1   1 144.562 5.17461   1
   3  -1  -1 273.756 7.08766   1
  -3   1   1 262.680 6.14949   4
  -3   1   1 275.685 6.65494   3
  -3   1   1 280.209 6.94347   2
  -3   1   1 279.164 6.88533   1
   2  -1  -1 1836.51 31.3819   3
   2  -1  -1 1807.36 31.5252   1
   2  -1  -1 1917.26 33.3796   2
  -2   1   1 1806.89 31.2018   3
  -2   1   1 1747.82 31.1719   4
  -2   1   1 1830.14 31.3376   1
  -2   1   1 1872.01 31.3600   2
   1  -1  -1 256.555 5.36300   2
   1  -1  -1 252.465 5.56540   1
  -1   1   1 264.574 5.44670   2
  -1   1   1 266.041 5.44672   3
  -1   1   1 263.669 5.52497   1
   0  -1  -1 199.472 4.74612   1
   0  -1  -1 211.494 4.67731   2
   0  -1  -1 206.928 4.67625   3
   0   1   1 198.860 4.71869   1
   0   1   1 205.799 4.63057   3
   0   1   1 211.571 4.65622   2
  -1  -1  -1 2161.32 38.4099   1
  -1  -1  -1 2223.71 38.2763   3
  -1  -1  -1 2259.35 38.3078   2
   1   1   1 2236.71 38.1658   2
   1   1   1 2244.98 38.6156   1
  -2  -1  -1 233.587 6.79680   1
  -2  -1  -1 244.514 6.73342   3
  -2  -1  -1 245.512 6.82655   2
   2   1   1 235.279 7.08398   1
   2   1   1 246.779 6.65938   2
   2   1   1 250.937 6.89881   3
  -3  -1  -1 24.7206 2.85590   2
  -3  -1  -1 23.2328 2.64003   3
  -3  -1  -1 23.4920 2.93898   1
   3   1   1 26.1040 3.04773   1
   3   1   1 30.2062 3.13768   3
   3   1   1 23.6507 2.58689   2
  -4  -1  -1 35.1777 3.82347   2
  -4  -1  -1 35.1728 3.84887   1
  -4  -1  -1 37.9142 3.78462   3
   4   1   1 34.5963 3.94621   1
   4   1   1 36.4928 3.98338   3
   4   1   1 33.3607 3.41207   2
  -5  -1  -1 501.822 13.9801   1
  -5  -1  -1 494.246 14.1596   2
  -5  -1  -1 481.273 13.4877   3
   5   1   1 491.277 14.6285   1
   5   1   1 469.451 13.9701   3
  -6  -1  -1 0.51675 1.94364   3
  -6  -1  -1 -0.8106 2.33964   2
  -6  -1  -1 -2.6697 1.78525   1
   6   1   1 1.58649 2.16499   1
   6   1   1 -2.4812 1.67117   3
  -7  -1  -1 34.8010 4.75698   3
  -7  -1  -1 36.9484 5.07460   1
   7   1   1 41.2415 5.95225   1
   7   1   1 41.1012 5.61409   3
  -8  -1  -1 13.3598 3.56004   3
   8   1   1 12.8078 4.40316   1
   8   1   1 15.6810 4.07628   3
  10  -2  -1 27.6568 5.21963   3
  10  -2  -1 30.3522 5.93039   1
 -10   2   1 29.0295 5.11373   3
   9  -2  -1 222.672 11.3487   1
   9  -2  -1 205.546 10.4655   3
  -9   2   1 224.766 9.88274   3
  -9   2   1 225.322 10.2526   1
   8  -2  -1 9.01054 2.99862   3
   8  -2  -1 8.47820 3.02550   1
  -8   2   1 12.3088 3.04138   1
  -8   2   1 4.36787 2.99690   2
  -8   2   1 6.36487 2.53901   3
   7  -2  -1 23.3723 3.72370   3
   7  -2  -1 38.8713 4.81392   1
  -7   2   1 29.1721 3.95840   1
  -7   2   1 25.9643 4.07435   2
  -7   2   1 32.1968 3.83135   3
   6  -2  -1 176.342 7.48347   1
   6  -2  -1 166.401 7.27219   3
  -6   2   1 171.585 6.77091   3
  -6   2   1 177.136 7.10506   1
  -6   2   1 175.832 7.36536   2
   5  -2  -1 312.988 8.61686   2
   5  -2  -1 307.384 9.16487   3
  -5   2   1 304.818 8.93680   1
  -5   2   1 318.245 9.13369   2
  -5   2   1 311.663 8.77570   3
   4  -2  -1 104.193 4.16022   2
   4  -2  -1 105.918 4.44897   3
   4  -2  -1 101.624 4.52022   1
  -4   2   1 96.0654 4.38729   2
  -4   2   1 95.9895 4.10067   3
  -4   2   1 106.916 4.43625   1
   3  -2  -1 251.526 6.60522   3
   3  -2  -1 254.441 6.45946   2
  -3   2   1 252.598 6.48675   3
  -3   2   1 243.279 6.53335   1
  -3   2   1 244.551 6.54238   2
   2  -2  -1 8.02153 1.26163   2
   2  -2  -1 10.3594 1.55203   1
  -2   2   1 8.82218 1.27011   3
  -2   2   1 7.71519 1.29833   2
  -2   2   1 7.87540 1.24296   1
   1  -2  -1 1231.61 22.1593   1
   1  -2  -1 1221.74 21.8724   2
   1  -2  -1 1240.73 21.9174   3
  -1   2   1 1245.13 21.8787   2
  -1   2   1 1264.81 21.9943   3
  -1   2   1 1250.17 22.1479   1
   0  -2  -1 403.551 8.56263   3
   0  -2  -1 397.484 8.61219   2
   0  -2  -1 400.596 8.73093   1
   0   2   1 406.162 8.50011   2
   0   2   1 388.137 8.72515   1
   0   2   1 406.071 8.59390   3
  -1  -2  -1 4.84371 1.29059   1
  -1  -2  -1 5.33953 1.38320   2
  -1  -2  -1 4.36825 1.27749   3
   1   2   1 4.60003 1.23541   2
   1   2   1 8.19534 1.44291   3
   1   2   1 7.07832 1.43796   1
  -2  -2  -1 439.838 10.8398   1
  -2  -2  -1 444.044 10.6237   3
  -2  -2  -1 452.617 10.8561   2
   2   2   1 431.991 10.7137   3
   2   2   1 432.018 11.1230   1
   2   2   1 450.645 10.6268   2
  -3  -2  -1 10.3123 2.29649   2
  -3  -2  -1 8.07456 2.01420   3
  -3  -2  -1 10.9028 2.22908   1
   3   2   1 11.3506 2.48709   1
   3   2   1 9.77626 2.14380   3
  -4  -2  -1 1.92882 2.14676   2
  -4  -2  -1 -0.4724 1.60538   3
  -4  -2  -1 1.46762 1.60433   1
   4   2   1 1.33022 1.71183   1
   4   2   1 2.31255 1.82128   1
   4   2   1 0.39117 1.59383   3
  -5  -2  -1 421.779 13.5363   2
  -5  -2  -1 450.476 13.3747   1
  -5  -2  -1 425.992 12.7887   3
   5   2   1 419.294 13.9083   1
   5   2   1 433.424 13.6042   3
  -6  -2  -1 23.4561 4.21678   1
  -6  -2  -1 22.3708 6.90659   2
  -6  -2  -1 32.9421 4.72501   3
   6   2   1 34.4616 5.35072   1
   6   2   1 33.1310 4.98806   3
  -7  -2  -1 1.45221 2.38692   3
   7   2   1 1.71916 2.54221   3
   7   2   1 1.82743 2.77251   1
  10  -3  -1 30.9207 5.55236   3
  10  -3  -1 34.7673 6.21116   1
 -10   3   1 35.7768 5.44247   3
   9  -3  -1 262.340 11.4387   3
   9  -3  -1 246.157 11.5295   1
  -9   3   1 234.079 10.3663   3
  -9   3   1 250.868 10.8276   1
   8  -3  -1 46.8930 5.64908   3
   8  -3  -1 42.7705 5.56873   1
  -8   3   1 43.9101 5.31702   1
  -8   3   1 47.6675 5.02854   3
   7  -3  -1 179.343 8.27535   3
   7  -3  -1 196.419 8.71912   1
  -7   3   1 192.490 7.92122   3
  -7   3   1 197.288 8.54943   2
  -7   3   1 210.151 8.43394   1
   6  -3  -1 771.136 17.5083   2
   6  -3  -1 779.584 18.3123   3
   6  -3  -1 791.308 18.6792   1
  -6   3   1 768.464 18.0129   2
  -6   3   1 785.696 18.1703   1
  -6   3   1 767.802 17.7916   3
   5  -3  -1 53.5074 3.87509   1
   5  -3  -1 49.4221 3.41080   2
   5  -3  -1 53.4575 3.82403   3
  -5   3   1 56.5306 3.94261   2
  -5   3   1 63.4210 3.79938   3
  -5   3   1 56.7876 3.79481   1
   4  -3  -1 430.839 10.5854   3
   4  -3  -1 434.231 10.3420   2
  -4   3   1 416.580 10.5395   1
  -4   3   1 441.453 10.5138   2
  -4   3   1 437.631 10.4707   3
   3  -3  -1 489.257 10.6843   2
   3  -3  -1 484.573 11.1057   1
  -3   3   1 500.196 10.7784   2
  -3   3   1 468.703 10.8282   1
  -3   3   1 479.522 10.7517   3
   2  -3  -1 9.04052 1.61462   1
   2  -3  -1 6.59929 1.35618   2
  -2   3   1 7.56250 1.36363   1
  -2   3   1 5.30077 1.33149   2
  -2   3   1 5.10489 1.36333   2
  -2   3   1 6.89296 1.32714   3
   1  -3  -1 79.1120 3.30409   3
   1  -3  -1 84.4798 3.51659   2
   1  -3  -1 82.0693 3.42730   1
  -1   3   1 85.3131 3.53198   1
  -1   3   1 84.8335 3.36738   2
  -1   3   1 84.4534 3.38559   3
   0  -3  -1 102.446 3.92813   3
   0  -3  -1 118.002 4.24841   2
   0  -3  -1 108.327 4.10508   1
   0   3   1 110.548 4.10668   3
   0   3   1 105.511 5.64651   2
   0   3   1 114.130 4.28339   1
  -1  -3  -1 62.3632 3.43523   1
  -1  -3  -1 56.9248 3.28378   3
  -1  -3  -1 64.3474 3.74799   2
   1   3   1 56.4616 3.42960   1
   1   3   1 61.3896 3.44256   3
  -2  -3  -1 12.9980 2.32879   2
  -2  -3  -1 12.2605 2.25492   1
  -2  -3  -1 5.99154 1.63987   3
   2   3   1 11.7125 2.05264   3
   2   3   1 11.5934 2.18556   1
  -3  -3  -1 10.6621 2.35059   1
  -3  -3  -1 9.28472 2.55445   2
  -3  -3  -1 8.12223 2.20945   3
   3   3   1 10.1974 2.49265   1
   3   3   1 11.8524 2.52151   3
  -4  -3  -1 33.3126 4.08940   1
  -4  -3  -1 35.9454 4.53123   2
  -4  -3  -1 37.8091 4.28426   3
   4   3   1 30.8966 4.20145   3
   4   3   1 31.2456 4.14268   1
  -5  -3  -1 7.59707 2.57316   3
  -5  -3  -1 13.2900 3.09232   1
  -5  -3  -1 4.86222 3.12910   2
   5   3   1 5.63069 2.58164   3
   5   3   1 8.17359 2.92385   1
   5   3   1 8.83887 3.22536   1
  -6  -3  -1 43.9832 5.17903   3
  -6  -3  -1 55.9548 6.14730   1
   6   3   1 43.1982 5.88057   1
   6   3   1 40.7756 5.61419   3
  -7  -3  -1 -0.3719 1.99136   3
   7   3   1 1.97546 2.78568   1
   7   3   1 0.23325 2.39409   3
  10  -4  -1 46.0027 6.17062   3
  10  -4  -1 43.4323 6.37362   1
 -10   4   1 42.0116 5.71409   1
 -10   4   1 40.1593 5.38315   3
   9  -4  -1 2.07488 2.38115   3
   9  -4  -1 3.32340 2.56336   1
  -9   4   1 0.94316 2.27622   1
  -9   4   1 -1.6491 2.01060   3
   8  -4  -1 181.443 8.70916   3
   8  -4  -1 225.484 9.80855   1
  -8   4   1 226.393 9.39253   1
  -8   4   1 215.201 9.16219   3
   7  -4  -1 24.5378 4.03784   1
   7  -4  -1 21.6042 3.59682   3
  -7   4   1 14.5544 3.00312   1
  -7   4   1 19.6040 3.40308   2
  -7   4   1 17.6907 3.22290   3
   6  -4  -1 84.5034 4.94527   2
   6  -4  -1 85.7728 5.19166   1
   6  -4  -1 83.9985 5.14694   3
  -6   4   1 88.2751 5.30335   1
  -6   4   1 84.7870 5.00608   3
  -6   4   1 87.0109 5.26492   2
   5  -4  -1 74.5037 4.53561   1
   5  -4  -1 61.2323 3.87548   2
  -5   4   1 72.3570 4.34572   1
  -5   4   1 69.0162 4.31283   2
  -5   4   1 74.5685 4.16763   3
   4  -4  -1 243.818 7.27749   2
   4  -4  -1 242.881 7.66791   1
  -4   4   1 237.037 7.30912   3
  -4   4   1 245.946 7.36755   2
  -4   4   1 240.953 7.48006   1
   3  -4  -1 120.637 4.85778   1
   3  -4  -1 125.738 4.63513   2
  -3   4   1 116.407 4.54672   3
  -3   4   1 120.863 4.77276   1
  -3   4   1 117.045 4.52546   2
   2  -4  -1 595.172 12.8697   2
   2  -4  -1 599.730 13.1850   1
   2  -4  -1 615.726 12.8462   3
  -2   4   1 613.211 13.2171   1
  -2   4   1 610.996 13.0099   3
  -2   4   1 599.288 12.7204   2
   1  -4  -1 30.6144 2.64380   2
   1  -4  -1 35.2570 2.98274   3
   1  -4  -1 32.8900 2.62682   1
  -1   4   1 29.9621 2.80699   1
  -1   4   1 31.8880 2.84302   3
   0  -4  -1 1.35431 1.21411   2
   0  -4  -1 0.50014 0.95018   1
   0  -4  -1 0.61431 1.08935   3
   0   4   1 -0.2309 0.87742   1
   0   4   1 0.52762 0.98675   3
  -1  -4  -1 220.716 7.03969   3
  -1  -4  -1 225.641 7.35587   2
  -1  -4  -1 226.112 7.25846   1
   1   4   1 218.583 7.56416   1
   1   4   1 232.046 7.28190   3
  -2  -4  -1 2.13343 1.38171   3
  -2  -4  -1 -1.4827 1.58383   2
  -2  -4  -1 -0.6464 1.26230   1
   2   4   1 0.66473 1.43419   1
   2   4   1 1.09036 1.42326   3
  -3  -4  -1 11.5621 2.95275   2
  -3  -4  -1 15.2307 2.84611   3
  -3  -4  -1 21.1081 3.12175   1
   3   4   1 19.2508 3.35066   1
   3   4   1 11.4375 2.71429   3
  -4  -4  -1 89.5406 5.65044   3
  -4  -4  -1 82.6298 6.41219   2
  -4  -4  -1 86.8837 5.85082   1
   4   4   1 80.5989 6.29625   1
   4   4   1 85.1806 6.16482   3
  -5  -4  -1 26.2630 4.72455   2
  -5  -4  -1 29.6460 4.42017   1
  -5  -4  -1 22.8270 3.83700   3
   5   4   1 24.4341 4.48739   1
   5   4   1 20.2552 4.05280   3
   5   4   1 22.1828 4.20478   1
  -6  -4  -1 202.415 9.42708   3
   6   4   1 176.391 10.1951   3
   6   4   1 220.867 11.5110   1
  10  -5  -1 29.2325 5.43649   1
  10  -5  -1 47.8462 6.34079   3
 -10   5   1 36.3431 5.54420   1
 -10   5   1 36.0324 5.16866   3
   9  -5  -1 6.56203 2.94431   3
   9  -5  -1 10.8989 3.27031   1
  -9   5   1 15.0568 3.38544   3
  -9   5   1 10.8010 3.43765   1
   8  -5  -1 84.6770 6.34996   1
   8  -5  -1 79.8015 5.90435   3
  -8   5   1 85.5097 5.79593   3
  -8   5   1 85.6509 6.26759   1
   7  -5  -1 124.783 6.40790   2
   7  -5  -1 125.151 7.02550   1
  -7   5   1 134.092 6.62613   3
  -7   5   1 127.903 6.99931   2
  -7   5   1 136.101 7.01830   1
   6  -5  -1 0.40667 1.42773   2
   6  -5  -1 2.88398 1.76167   1
  -6   5   1 1.49497 1.65160   3
  -6   5   1 4.45335 1.99404   1
  -6   5   1 4.82121 2.26127   2
   5  -5  -1 42.4617 3.98590   1
   5  -5  -1 30.9292 3.27092   2
  -5   5   1 34.9791 3.76303   1
  -5   5   1 30.4225 3.38477   3
  -5   5   1 41.9215 3.94472   2
   4  -5  -1 27.9804 3.38711   1
   4  -5  -1 33.6897 3.23485   2
  -4   5   1 26.4163 3.05937   1
  -4   5   1 30.3512 3.10974   2
  -4   5   1 25.8763 2.94064   3
   3  -5  -1 160.125 5.86711   2
   3  -5  -1 173.090 6.20658   1
  -3   5   1 164.411 6.07813   1
  -3   5   1 160.269 5.81467   3
  -3   5   1 162.685 5.69371   2
   2  -5  -1 105.268 4.47093   3
   2  -5  -1 111.262 4.69973   1
   2  -5  -1 111.889 4.71307   2
  -2   5   1 105.233 4.80341   1
  -2   5   1 104.824 4.57730   3
   1  -5  -1 51.4525 3.28318   3
   1  -5  -1 49.6882 3.51825   2
   1  -5  -1 42.6660 3.17912   1
  -1   5   1 52.1823 3.56949   1
  -1   5   1 49.1366 3.27129   3
   0  -5  -1 191.379 6.69621   1
   0  -5  -1 189.772 6.82614   2
   0  -5  -1 202.310 6.63672   3
   0   5   1 185.068 6.92271   1
   0   5   1 188.550 6.73005   3
  -1  -5  -1 37.1883 3.76447   1
  -1  -5  -1 34.0551 3.53600   3
  -1  -5  -1 39.2326 3.79259   2
   1   5   1 45.5171 4.24206   1
   1   5   1 40.6287 3.96349   3
  -2  -5  -1 122.727 6.65760   2
  -2  -5  -1 125.182 5.92896   3
  -2  -5  -1 134.281 6.25063   1
   2   5   1 116.398 6.24485   3
   2   5   1 126.418 6.73490   1
  -3  -5  -1 35.1202 4.14484   3
  -3  -5  -1 27.6118 4.23780   2
  -3  -5  -1 32.8276 4.11696   1
   3   5   1 31.4445 4.44600   1
   3   5   1 29.6832 4.14399   3
  -4  -5  -1 23.8544 3.97581   3
  -4  -5  -1 37.7159 5.06561   2
  -4  -5  -1 28.9420 4.32695   1
   4   5   1 28.9452 4.49262   3
   4   5   1 30.0093 4.71449   1
  -5  -5  -1 112.639 6.99096   3
   5   5   1 126.732 8.63738   1
   5   5   1 118.994 8.16398   3
   5   5   1 129.133 8.76478   1
  10  -6  -1 3.24106 2.66710   1
 -10   6   1 8.08260 3.36158   1
 -10   6   1 2.02664 2.59135   3
   9  -6  -1 55.9956 6.76549   1
  -9   6   1 36.9247 5.09031   3
  -9   6   1 53.2722 5.94409   1
   8  -6  -1 27.3646 4.63669   1
  -8   6   1 14.6071 3.31768   3
  -8   6   1 17.3031 3.42405   1
   7  -6  -1 2.15690 1.94880   1
   7  -6  -1 3.51241 1.91586   2
  -7   6   1 0.96586 1.68722   3
  -7   6   1 -2.1474 1.47777   1
   6  -6  -1 28.6641 3.53425   2
   6  -6  -1 36.7921 4.54759   1
  -6   6   1 28.4332 3.77636   1
  -6   6   1 36.5442 4.10845   2
  -6   6   1 28.7888 3.95875   3
   5  -6  -1 16.1810 2.63975   2
   5  -6  -1 20.1351 3.12974   1
  -5   6   1 17.2811 3.00051   1
  -5   6   1 13.6651 2.51577   2
  -5   6   1 15.8970 2.71835   3
   4  -6  -1 210.787 7.62321   1
   4  -6  -1 209.914 7.45791   2
  -4   6   1 215.150 7.73630   1
  -4   6   1 207.895 7.40611   3
   3  -6  -1 0.41092 1.28891   2
   3  -6  -1 2.61127 1.38589   3
   3  -6  -1 1.30728 1.41941   1
  -3   6   1 0.20584 1.13561   1
  -3   6   1 -1.0272 0.99596   3
   2  -6  -1 123.855 5.50425   2
   2  -6  -1 122.636 5.41395   1
   2  -6  -1 122.154 5.29535   3
  -2   6   1 129.490 5.80758   1
  -2   6   1 123.294 5.33476   3
   1  -6  -1 96.3378 4.77589   3
   1  -6  -1 96.8287 4.88779   1
   1  -6  -1 105.398 5.21310   2
  -1   6   1 108.054 5.11773   3
  -1   6   1 97.2820 5.29221   1
   0  -6  -1 87.2169 4.79849   3
   0  -6  -1 88.9564 4.97875   1
   0  -6  -1 88.1090 5.28669   2
   0   6   1 81.7432 4.84703   3
   0   6   1 79.1710 5.14398   1
  -1  -6  -1 5.06956 2.10259   1
  -1  -6  -1 9.29902 2.32975   3
  -1  -6  -1 6.43017 2.55057   2
   1   6   1 7.55487 2.22995   3
   1   6   1 3.43035 1.99800   1
  -2  -6  -1 75.0441 5.00326   3
  -2  -6  -1 66.3777 4.97335   1
  -2  -6  -1 79.8915 6.38991   2
   2   6   1 85.3724 5.81895   3
   2   6   1 73.0527 5.77686   1
  -3  -6  -1 31.2197 4.32578   1
  -3  -6  -1 23.7720 3.72291   3
  -3  -6  -1 25.1424 4.44960   2
   3   6   1 23.8942 4.07946   3
   3   6   1 28.2171 4.53986   1
  -4  -6  -1 51.3825 5.18704   3
  -4  -6  -1 50.2158 6.25389   2
   4   6   1 37.1452 5.29249   1
   4   6   1 58.9379 6.68404   3
  -5  -6  -1 55.8932 5.66505   3
   5   6   1 63.1839 7.24513   3
   5   6   1 55.3773 6.99939   1
  10  -7  -1 57.2226 7.07350   1
 -10   7   1 43.3177 6.05009   3
 -10   7   1 51.6035 6.41771   1
   9  -7  -1 22.1862 4.35119   1
  -9   7   1 22.5791 4.44265   3
  -9   7   1 30.0245 4.81349   1
   8  -7  -1 26.8763 4.52349   1
  -8   7   1 18.5958 3.76515   3
  -8   7   1 18.1637 3.58012   1
   7  -7  -1 80.8359 5.85764   1
   7  -7  -1 73.6899 5.42407   2
  -7   7   1 86.8009 5.76854   3
  -7   7   1 79.2555 5.88872   1
   6  -7  -1 336.039 11.2292   1
   6  -7  -1 316.373 10.6049   2
  -6   7   1 325.529 10.9327   3
  -6   7   1 322.390 11.2051   1
   5  -7  -1 6.26423 2.06477   1
   5  -7  -1 9.52243 2.47384   2
  -5   7   1 10.2061 2.48108   3
  -5   7   1 8.17243 2.32804   1
   4  -7  -1 85.2818 4.87513   3
   4  -7  -1 85.9009 5.01787   1
   4  -7  -1 77.7910 5.05085   2
  -4   7   1 85.9194 4.98068   3
  -4   7   1 77.9394 5.12840   1
   3  -7  -1 2.58739 1.65513   2
   3  -7  -1 1.26139 1.51744   3
   3  -7  -1 0.55959 1.37957   1
  -3   7   1 1.27831 1.58165   1
  -3   7   1 1.20810 1.40866   3
   2  -7  -1 26.1127 3.27064   3
   2  -7  -1 32.3094 3.74177   1
   2  -7  -1 26.3458 3.34656   2
  -2   7   1 23.4124 3.33683   1
  -2   7   1 36.7950 4.12894   3
   1  -7  -1 268.893 8.77453   3
   1  -7  -1 286.989 9.62218   2
   1  -7  -1 284.545 9.22354   1
  -1   7   1 278.608 9.83947   1
  -1   7   1 270.242 9.33413   3
   0  -7  -1 30.6011 3.98760   2
   0  -7  -1 30.6924 3.71710   3
   0  -7  -1 28.4025 3.64523   1
   0   7   1 27.3360 3.94701   1
   0   7   1 28.3647 3.66368   3
  -1  -7  -1 7.03038 2.28166   3
  -1  -7  -1 10.2206 2.68781   1
  -1  -7  -1 3.41528 2.56579   2
   1   7   1 3.55469 2.24767   1
   1   7   1 7.53593 2.39061   3
  -2  -7  -1 151.772 8.62128   2
  -2  -7  -1 167.282 7.46408   3
   2   7   1 166.807 8.93480   1
   2   7   1 170.433 8.52970   3
  -3  -7  -1 13.7545 4.11540   2
  -3  -7  -1 19.2944 3.63420   3
   3   7   1 20.1458 4.18123   1
   3   7   1 18.0314 3.94270   3
  -4  -7  -1 122.288 7.13023   3
   4   7   1 122.859 8.69233   3
   4   7   1 137.799 9.29135   1
  10  -8  -1 2.54560 2.49737   1
 -10   8   1 2.59274 2.56554   3
 -10   8   1 7.45887 3.19618   1
   9  -8  -1 52.7674 6.38457   1
  -9   8   1 41.8456 5.70394   1
  -9   8   1 39.8777 5.56374   3
   8  -8  -1 181.373 9.23583   1
  -8   8   1 184.795 8.95391   3
  -8   8   1 194.207 9.54964   1
   7  -8  -1 73.4094 5.66491   1
   7  -8  -1 78.5154 6.69261   2
  -7   8   1 62.9697 6.04718   1
  -7   8   1 57.6983 5.77641   3
   6  -8  -1 189.142 8.37735   1
   6  -8  -1 163.255 7.83747   2
  -6   8   1 171.994 7.96441   3
  -6   8   1 173.835 8.37760   1
   5  -8  -1 51.6242 5.18394   1
   5  -8  -1 36.0535 4.08288   3
   5  -8  -1 50.0831 5.08555   2
  -5   8   1 39.2658 4.47343   3
  -5   8   1 55.3495 5.49929   1
   4  -8  -1 65.1938 4.76597   3
   4  -8  -1 84.2482 5.60885   2
   4  -8  -1 71.1933 5.07668   1
  -4   8   1 76.4600 5.17425   3
  -4   8   1 80.9312 5.63624   1
   3  -8  -1 498.143 13.3053   3
   3  -8  -1 508.845 14.0431   2
   3  -8  -1 495.783 13.7522   1
  -3   8   1 496.489 14.3952   1
  -3   8   1 491.824 13.9266   3
   2  -8  -1 853.551 20.2596   2
   2  -8  -1 844.234 19.6711   1
   2  -8  -1 833.810 18.9871   3
  -2   8   1 864.149 20.7833   1
  -2   8   1 796.839 19.8836   3
   1  -8  -1 322.389 10.9992   2
   1  -8  -1 310.046 10.2858   1
   1  -8  -1 308.884 9.75710   3
  -1   8   1 266.060 10.7765   1
  -1   8   1 312.586 10.7066   3
   0  -8  -1 12.8334 3.26944   2
   0  -8  -1 10.2402 2.68484   3
   0  -8  -1 19.8541 3.36672   1
   0   8   1 6.16907 2.47428   1
   0   8   1 8.09749 2.42497   3
  -1  -8  -1 5.11339 2.40692   3
  -1  -8  -1 -0.6279 2.55656   2
   1   8   1 2.87663 2.39518   1
  -2  -8  -1 68.9593 6.88430   2
  -2  -8  -1 62.2167 5.53593   3
   2   8   1 79.6423 7.68739   1
   2   8   1 64.4064 6.81524   3
  -3  -8  -1 45.9406 5.07420   3
   3   8   1 45.6445 6.03016   3
   3   8   1 45.9734 6.36530   1
  10  -9  -1 2.49813 2.96858   1
 -10   9   1 4.00464 2.73382   3
 -10   9   1 1.28707 2.67814   1
   9  -9  -1 58.5184 6.70916   1
  -9   9   1 66.0762 7.11035   1
  -9   9   1 52.4867 6.25133   3
   8  -9  -1 87.2416 6.83651   1
  -8   9   1 91.7581 7.02306   1
  -8   9   1 118.028 7.43251   3
   7  -9  -1 40.9969 5.34092   1
  -7   9   1 29.6017 4.54366   3
  -7   9   1 40.3019 5.17563   1
   6  -9  -1 20.8837 3.73866   1
   6  -9  -1 16.4301 3.47410   2
   6  -9  -1 13.3567 2.94447   3
  -6   9   1 16.7732 3.53653   1
  -6   9   1 21.8451 3.94479   3
   5  -9  -1 166.817 7.43205   3
   5  -9  -1 170.772 8.04770   1
   5  -9  -1 158.150 8.10069   2
  -5   9   1 171.448 8.46331   1
  -5   9   1 159.782 7.91134   3
   4  -9  -1 274.877 9.68882   3
   4  -9  -1 273.997 10.4178   2
   4  -9  -1 281.598 10.1204   1
  -4   9   1 259.647 10.0823   3
  -4   9   1 277.063 10.8361   1
   3  -9  -1 170.959 7.39967   3
   3  -9  -1 183.783 8.59207   2
   3  -9  -1 186.480 8.07969   1
  -3   9   1 173.373 8.42134   1
  -3   9   1 178.564 8.16029   3
   2  -9  -1 68.2286 4.89104   3
   2  -9  -1 48.6258 5.13389   2
   2  -9  -1 59.2461 5.66871   1
  -2   9   1 57.2001 5.56179   3
  -2   9   1 59.2773 5.92973   1
   1  -9  -1 5.97002 2.83603   2
   1  -9  -1 5.24882 2.37878   3
  -1   9   1 8.74611 2.74239   3
  -1   9   1 7.05253 2.54197   1
   0  -9  -1 20.9205 3.52400   3
   0  -9  -1 22.0551 4.37142   2
   0   9   1 20.1341 3.79703   3
   0   9   1 13.1074 3.32348   1
  -1  -9  -1 3.47567 3.21885   2
  -1  -9  -1 4.94157 2.16011   3
   1   9   1 0.16141 2.43787   3
   1   9   1 3.34297 2.21209   1
  -2  -9  -1 68.0905 5.92784   3
   2   9   1 82.0267 8.00157   3
   2   9   1 69.5309 7.43933   1
   9 -10  -1 10.7426 3.70784   1
  -9  10   1 9.15633 3.27482   3
  -9  10   1 7.71434 3.39796   1
   8 -10  -1 49.1336 6.34329   1
  -8  10   1 38.0070 5.48290   3
  -8  10   1 32.1650 5.19972   1
   7 -10  -1 2.06524 2.25459   1
   7 -10  -1 2.07994 2.05828   3
  -7  10   1 4.95836 2.51704   1
  -7  10   1 0.50883 1.70558   3
   6 -10  -1 2.25981 1.96439   3
   6 -10  -1 1.62041 2.17208   1
   6 -10  -1 2.52072 2.39319   2
  -6  10   1 0.79997 2.09235   1
  -6  10   1 3.68156 2.09722   3
   5 -10  -1 35.2639 4.39619   3
   5 -10  -1 39.7006 5.01026   1
   5 -10  -1 31.8793 4.57862   2
  -5  10   1 40.6131 5.33903   1
  -5  10   1 28.6048 4.47290   3
   4 -10  -1 103.756 6.07436   3
   4 -10  -1 116.899 6.85502   1
   4 -10  -1 108.202 7.18457   2
  -4  10   1 96.6713 6.45743   3
  -4  10   1 97.6277 6.86892   1
   3 -10  -1 36.0109 5.17017   2
   3 -10  -1 42.7875 4.67850   3
  -3  10   1 39.2196 4.96719   3
  -3  10   1 38.1764 5.12621   1
   2 -10  -1 20.9318 3.52773   3
   2 -10  -1 14.7187 3.82831   2
  -2  10   1 22.0025 4.07377   3
  -2  10   1 24.4552 4.21869   1
   1 -10  -1 43.3033 5.79558   2
   1 -10  -1 31.9992 4.12990   3
  -1  10   1 36.6128 5.11348   3
  -1  10   1 32.4695 4.98149   1
   0 -10  -1 141.159 9.17915   2
   0 -10  -1 123.016 6.68404   3
   0  10   1 141.013 8.40389   3
   1  10   1 16.9473 4.04630   1
   1  10   1 19.6368 4.41852   3
   8 -11  -1 26.8085 4.43211   3
  -8  11   1 17.7944 3.98280   3
  -8  11   1 16.6105 3.97998   1
   7 -11  -1 12.8839 3.27084   3
  -7  11   1 8.59447 3.17655   1
  -7  11   1 13.9459 3.56453   3
   6 -11  -1 19.5560 3.70566   3
  -6  11   1 12.4650 3.52541   1
  -6  11   1 17.7754 4.24555   3
   5 -11  -1 131.572 7.21649   3
   5 -11  -1 143.932 8.71867   2
  -5  11   1 131.022 8.03133   3
  -5  11   1 138.172 8.64375   1
   4 -11  -1 17.1940 4.10895   2
   4 -11  -1 8.74976 2.96753   3
  -4  11   1 6.58979 2.79222   3
  -4  11   1 7.93801 3.02951   1
   3 -11  -1 91.9848 5.93366   3
   3 -11  -1 86.8457 7.60333   2
  -3  11   1 98.0486 6.99136   3
  -3  11   1 83.7591 7.85634   1
   2 -11  -1 21.5935 4.46140   2
   2 -11  -1 15.2664 3.18690   3
  -2  11   1 18.1839 4.05214   1
  -2  11   1 17.0766 4.00006   3
   1 -11  -1 0.91721 3.34635   2
  -1  11   1 -0.9633 1.83883   1
  -1  11   1 0.92640 2.22691   3
   7 -12  -1 46.7396 5.52887   3
  -7  12   1 30.6742 5.34667   1
  -7  12   1 34.2038 5.78134   3
   6 -12  -1 83.5774 7.22396   3
  -6  12   1 70.3922 7.65505   3
  -6  12   1 80.5679 8.43358   1
   5 -12  -1 62.4976 5.99597   3
  -5  12   1 61.3462 7.43202   3
  -5  12   1 55.5448 6.90422   1
   4 -12  -1 -0.2466 1.84161   3
  -4  12   1 0.91084 2.35431   1
  -4  12   1 -1.8210 1.65650   3
  -3  12   1 1.48263 2.19442   1
  -3  12   1 -0.8938 2.13562   3
  -1  12  -2 8.24484 3.22460   1
   1 -12   2 5.07168 3.39122   2
  -2  12  -2 9.19528 3.14670   1
   2 -12   2 0.75306 2.99783   2
  -3  12  -2 4.47665 2.39517   1
   3 -12   2 3.58890 2.96912   2
  -4  12  -2 50.9731 6.18723   1
   4 -12   2 50.2683 6.06936   2
  -5  12  -2 250.086 11.4256   3
  -5  12  -2 254.603 11.8955   1
   5 -12   2 303.348 12.3965   2
  -6  12  -2 4.15485 2.72623   3
  -6  12  -2 1.59964 2.20404   1
   6 -12   2 0.24666 2.95180   2
   1  11  -2 135.951 8.73557   1
  -1 -11   2 130.512 8.92373   2
   0  11  -2 37.9597 5.26739   1
   0 -11   2 47.7928 5.99802   2
  -1  11  -2 12.2606 3.07966   1
   1 -11   2 8.38054 3.26251   2
  -2  11  -2 14.0328 3.28931   1
   2 -11   2 18.3516 3.61305   2
  -3  11  -2 41.7307 5.28433   3
  -3  11  -2 43.2953 5.34073   1
   3 -11   2 43.7883 5.43467   2
  -4  11  -2 4.33066 2.53260   1
  -4  11  -2 4.96556 2.29234   3
   4 -11   2 9.25934 3.17253   2
  -5  11  -2 17.8310 3.85605   1
  -5  11  -2 13.5814 3.32278   3
   5 -11   2 9.15814 3.19285   2
  -6  11  -2 101.041 7.25209   3
  -6  11  -2 103.991 7.52816   1
   6 -11   2 127.405 8.02878   2
  -7  11  -2 67.9512 7.19050   1
  -7  11  -2 72.6644 7.62662   3
   7 -11   2 63.3036 6.78971   2
   2  10  -2 -1.8321 1.59269   1
  -2 -10   2 -4.0973 2.64634   2
   1  10  -2 5.39301 2.46811   1
  -1 -10   2 7.26904 3.09226   2
   0  10  -2 -1.0340 1.73853   1
   0 -10   2 0.95144 2.62102   2
  -1  10  -2 45.7892 5.29731   1
  -1  10  -2 63.2199 6.39900   3
   1 -10   2 46.0189 5.13538   2
  -2  10  -2 64.4301 4.96913   3
  -2  10  -2 65.7277 6.00271   1
   2 -10   2 81.9329 6.59265   2
  -3  10  -2 31.7089 4.36975   3
  -3  10  -2 28.9195 4.14091   1
   3 -10   2 28.8404 4.05240   2
  -4  10  -2 82.4942 6.00034   1
  -4  10  -2 92.5844 5.99784   3
   4 -10   2 88.9249 6.40495   2
  -5  10  -2 46.7470 5.51661   3
  -5  10  -2 46.5793 5.49246   1
   5 -10   2 43.5442 5.22997   2
  -6  10  -2 98.9883 6.69085   3
  -6  10  -2 88.2767 6.67865   1
   6 -10   2 81.4309 4.99446   3
   6 -10   2 87.1803 6.74192   2
  -7  10  -2 10.6345 3.33941   1
  -7  10  -2 18.0167 3.99193   3
   7 -10   2 15.8075 3.10554   3
   7 -10   2 22.5095 4.41572   2
  -8  10  -2 7.01762 3.05167   1
  -8  10  -2 6.42439 3.19561   3
   3   9  -2 21.3383 4.35588   1
  -3  -9   2 26.1371 4.69519   2
   2   9  -2 -2.3379 1.46666   1
  -2  -9   2 2.56666 2.70293   2
   1   9  -2 1.78949 1.88542   1
  -1  -9   2 -0.3068 2.35451   2
   0   9  -2 253.413 9.44786   3
   0   9  -2 258.691 9.91267   1
   0  -9   2 261.100 9.72809   2
  -1   9  -2 5.08025 1.94485   3
  -1   9  -2 0.56441 1.65188   1
   1  -9   2 0.04137 1.93271   2
  -2   9  -2 45.8776 4.61306   3
  -2   9  -2 44.1360 4.67274   1
   2  -9   2 57.3607 5.06236   2
  -3   9  -2 66.2408 4.80314   3
  -3   9  -2 73.1919 5.20077   1
   3  -9   2 72.2199 5.40181   2
  -4   9  -2 89.4857 5.95574   1
  -4   9  -2 101.364 5.87609   3
   4  -9   2 98.7648 6.06336   2
  -5   9  -2 96.8073 6.25822   1
  -5   9  -2 103.136 6.29054   3
   5  -9   2 101.656 6.43193   2
  -6   9  -2 94.8148 6.62025   1
  -6   9  -2 96.7845 6.40757   3
   6  -9   2 105.374 6.66025   2
  -7   9  -2 146.215 8.43277   1
  -7   9  -2 146.377 8.08148   3
   7  -9   2 164.663 8.50213   2
  -8   9  -2 265.665 11.9145   1
  -8   9  -2 254.051 11.4107   3
  -9   9  -2 7.71818 3.73890   3
   4   8  -2 32.6566 5.37102   1
  -4  -8   2 37.5775 5.52785   2
   3   8  -2 22.3896 4.02019   1
  -3  -8   2 32.1493 4.82271   2
   2   8  -2 183.660 8.18908   3
   2   8  -2 185.454 8.62343   1
  -2  -8   2 193.304 8.69717   2
   1   8  -2 228.870 8.49504   3
   1   8  -2 222.561 8.71956   1
  -1  -8   2 211.120 8.63725   2
   0   8  -2 1048.85 22.5758   3
   0   8  -2 1027.10 22.9679   1
   0  -8   2 1039.35 22.7337   2
   0  -8   2 1027.22 22.3378   2
  -1   8  -2 38.3130 3.95608   3
  -1   8  -2 33.3189 3.65257   1
   1  -8   2 33.1913 3.69097   2
   1  -8   2 30.8254 3.60562   2
  -2   8  -2 23.8597 3.13695   3
  -2   8  -2 21.4483 3.17145   1
   2  -8   2 28.2135 3.29165   2
   2  -8   2 27.9853 3.39933   2
  -3   8  -2 103.285 5.39031   3
  -3   8  -2 96.9074 5.52066   1
   3  -8   2 115.522 5.81271   2
   3  -8   2 107.793 4.75024   1
   3  -8   2 105.750 5.54323   2
  -4   8  -2 62.9986 4.69182   1
  -4   8  -2 66.7914 4.64063   3
   4  -8   2 66.3973 4.88664   2
   4  -8   2 57.1458 4.07619   1
   4  -8   2 62.5553 4.78313   2
  -5   8  -2 77.3264 5.52218   1
  -5   8  -2 95.4148 5.67212   3
   5  -8   2 96.4938 5.28417   1
   5  -8   2 95.5466 5.88369   2
  -6   8  -2 103.802 6.72076   1
  -6   8  -2 116.420 6.75151   3
   6  -8   2 107.854 6.17049   1
   6  -8   2 120.226 6.92129   2
  -7   8  -2 1.48123 2.21975   1
  -7   8  -2 4.90687 2.55645   3
   7  -8   2 1.98108 2.32862   1
   7  -8   2 3.22175 1.90845   2
  -8   8  -2 118.509 7.93555   3
  -8   8  -2 106.406 7.68153   1
  -9   8  -2 0.70044 2.30879   1
  -9   8  -2 2.20833 2.79543   3
   5   7  -2 3.61686 2.55501   1
  -5  -7   2 5.32032 3.34720   2
   4   7  -2 26.0340 4.20549   3
   4   7  -2 20.4497 4.01765   1
  -4  -7   2 20.2046 4.19788   2
   3   7  -2 192.830 8.66028   1
   3   7  -2 200.468 8.46172   3
  -3  -7   2 186.842 8.78936   2
   2   7  -2 56.4111 5.17521   1
   2   7  -2 60.2072 4.41947   3
  -2  -7   2 63.5683 5.32825   2
  -2  -7   2 48.6353 4.54553   2
   1   7  -2 -0.0871 1.40281   1
   1   7  -2 -0.9248 1.09098   3
  -1  -7   2 2.91013 1.70283   2
  -1  -7   2 -1.8437 1.84214   2
   0   7  -2 231.249 7.82436   1
   0   7  -2 223.553 7.39261   3
   0  -7   2 219.750 7.54841   2
   0  -7   2 222.452 7.61307   2
  -1   7  -2 110.413 4.81273   3
  -1   7  -2 93.2674 4.84663   1
   1  -7   2 100.465 4.94422   2
   1  -7   2 101.757 4.83693   2
  -2   7  -2 24.4374 3.00406   1
  -2   7  -2 22.6526 2.89131   3
   2  -7   2 21.6739 2.61952   2
   2  -7   2 24.9591 2.53044   1
   2  -7   2 22.1017 2.77818   2
  -3   7  -2 343.119 9.92764   3
  -3   7  -2 353.290 10.2583   1
   3  -7   2 344.895 9.91348   2
   3  -7   2 321.622 9.54312   2
   3  -7   2 348.222 9.16690   1
  -4   7  -2 72.6246 4.61616   3
  -4   7  -2 74.4380 4.81199   1
   4  -7   2 76.2998 4.72281   2
   4  -7   2 70.7949 4.77144   2
   4  -7   2 75.1819 4.30151   1
  -5   7  -2 8.05190 2.38775   1
  -5   7  -2 9.29817 2.20533   3
   5  -7   2 10.4487 2.50291   1
   5  -7   2 6.62894 2.30190   2
  -6   7  -2 -0.2147 1.48160   1
  -6   7  -2 4.34892 2.03853   3
   6  -7   2 -0.3308 1.45128   1
   6  -7   2 -0.6620 1.64729   2
  -7   7  -2 8.17580 2.62492   1
  -7   7  -2 5.68271 2.40493   3
   7  -7   2 4.44968 2.46494   2
   7  -7   2 3.75663 2.26466   1
  -8   7  -2 13.7454 3.46362   3
  -8   7  -2 15.6366 3.66546   1
   8  -7   2 14.5384 3.46392   1
  -9   7  -2 38.5270 5.61497   1
  -9   7  -2 38.3102 5.69593   3
   9  -7   2 52.9150 7.00879   1
   6   6  -2 8.62393 3.26413   1
  -6  -6   2 20.0074 4.73242   2
   5   6  -2 2.94876 2.35613   1
   5   6  -2 3.99016 2.73221   3
  -5  -6   2 0.07381 2.81767   2
   4   6  -2 2.37071 2.14109   1
   4   6  -2 2.26579 1.83805   3
  -4  -6   2 0.65142 2.72747   2
   3   6  -2 104.091 5.77031   3
   3   6  -2 117.363 6.22627   1
  -3  -6   2 115.961 6.51688   2
  -3  -6   2 102.349 5.91626   2
   2   6  -2 -1.4855 1.16772   3
   2   6  -2 1.45345 1.41827   1
  -2  -6   2 -0.2485 1.78743   2
  -2  -6   2 1.60698 1.67179   2
   1   6  -2 41.6826 3.07500   3
   1   6  -2 43.6233 3.40385   1
  -1  -6   2 41.4165 3.53014   2
  -1  -6   2 39.2942 3.42095   2
   0   6  -2 17.3897 2.21370   3
   0   6  -2 17.4146 2.29093   1
   0  -6   2 17.2312 2.29782   2
   0  -6   2 18.9988 2.36786   2
  -1   6  -2 21.9643 2.44115   1
  -1   6  -2 25.6763 2.64425   3
   1  -6   2 23.5694 2.49556   2
   1  -6   2 23.6309 2.55317   2
  -2   6  -2 47.1005 3.01999   3
  -2   6  -2 47.5345 3.22385   1
   2  -6   2 42.5269 2.99587   2
   2  -6   2 46.2146 2.62344   1
   2  -6   2 40.6193 3.11530   2
  -3   6  -2 286.119 8.41353   3
  -3   6  -2 294.112 8.77498   1
   3  -6   2 295.667 8.59874   2
   3  -6   2 287.593 8.00457   1
   3  -6   2 286.894 8.31481   2
  -4   6  -2 32.5158 3.48758   1
  -4   6  -2 23.1173 2.87697   3
   4  -6   2 35.7653 3.53567   2
   4  -6   2 32.8420 3.31907   2
   4  -6   2 39.6844 3.70333   1
  -5   6  -2 68.7953 4.71521   1
  -5   6  -2 60.8868 4.28233   3
   5  -6   2 65.3683 4.55248   2
   5  -6   2 59.8923 4.29540   1
  -6   6  -2 61.9628 5.68239   3
  -6   6  -2 59.5685 5.68153   1
   6  -6   2 60.8026 4.75334   1
   6  -6   2 64.1715 4.96220   2
  -7   6  -2 23.3978 3.68215   3
  -7   6  -2 30.1369 4.36894   1
   7  -6   2 36.4778 4.55556   2
   7  -6   2 36.8441 4.77401   1
  -8   6  -2 31.6515 4.69863   3
  -8   6  -2 24.9766 4.40157   1
   8  -6   2 17.6211 3.77448   1
  -9   6  -2 9.59693 3.31796   1
  -9   6  -2 7.76258 3.20247   3
   9  -6   2 5.24988 2.96390   1
   7   5  -2 0.20148 2.87933   3
   7   5  -2 2.59063 2.90761   1
  -7  -5   2 -4.5366 3.19163   2
   6   5  -2 3.14310 2.48347   1
   6   5  -2 5.98673 2.73516   3
   6   5  -2 4.69380 2.49127   1
  -6  -5   2 5.73553 3.10039   2
   5   5  -2 100.302 6.77820   1
   5   5  -2 115.379 6.96586   3
  -5  -5   2 101.775 7.11420   2
   4   5  -2 171.241 7.83310   1
   4   5  -2 157.205 7.10461   3
  -4  -5   2 159.739 11.1458   2
  -4  -5   2 175.083 7.95699   2
   3   5  -2 137.895 6.27287   1
   3   5  -2 145.793 6.07273   3
  -3  -5   2 135.238 6.38026   2
  -3  -5   2 122.952 5.96257   2
   2   5  -2 3.84989 1.35748   3
   2   5  -2 2.98123 1.40217   1
  -2  -5   2 5.04672 1.83275   2
  -2  -5   2 2.04877 1.55811   2
   1   5  -2 299.545 8.16210   1
   1   5  -2 305.331 7.85649   3
  -1  -5   2 312.333 7.93317   2
  -1  -5   2 313.727 8.09438   2
   0   5  -2 1.85997 0.88275   3
   0   5  -2 1.04740 0.98480   1
  -1   5  -2 1590.55 28.2251   3
  -1   5  -2 1576.16 28.5492   1
   1  -5   2 1546.65 28.1933   2
  -2   5  -2 33.7093 2.57185   1
  -2   5  -2 36.3183 2.45170   3
   2  -5   2 36.5163 2.68297   2
   2  -5   2 35.3469 2.59431   2
   2  -5   2 33.4648 2.30091   1
  -3   5  -2 0.86464 1.06861   1
  -3   5  -2 0.30332 0.89794   3
   3  -5   2 1.22786 1.04901   2
   3  -5   2 0.35490 0.98733   1
   3  -5   2 -0.9064 0.98542   2
  -4   5  -2 120.724 5.34332   3
  -4   5  -2 118.373 5.49786   1
   4  -5   2 114.273 5.22354   2
   4  -5   2 115.036 5.52696   2
   4  -5   2 119.522 5.19038   1
  -5   5  -2 22.5609 3.18352   1
  -5   5  -2 25.2179 3.35597   3
   5  -5   2 25.6170 3.28278   1
   5  -5   2 26.5504 3.29277   2
  -6   5  -2 2.02985 1.81600   3
  -6   5  -2 -0.8220 1.66691   1
   6  -5   2 1.14163 1.64143   1
   6  -5   2 1.35943 1.83461   2
  -7   5  -2 39.6772 5.05028   1
  -7   5  -2 26.6278 4.13213   3
   7  -5   2 34.6917 4.56661   2
   7  -5   2 33.9917 4.37473   3
   7  -5   2 32.3365 4.22880   1
  -8   5  -2 17.8983 3.91250   3
  -8   5  -2 18.6273 4.00969   1
   8  -5   2 17.7951 3.89904   1
   8  -5   2 19.5087 3.89322   3
  -9   5  -2 163.846 9.25850   3
  -9   5  -2 152.143 9.45092   1
   9  -5   2 134.379 8.39602   3
   9  -5   2 156.511 9.16575   1
   7   4  -2 28.5314 5.01584   3
   7   4  -2 30.6165 5.35462   1
  -7  -4   2 21.8785 4.82256   2
   6   4  -2 30.6595 4.84674   1
   6   4  -2 29.1231 4.70320   1
   6   4  -2 41.7766 5.23793   3
  -6  -4   2 35.6487 5.09965   2
   5   4  -2 410.093 13.2961   1
   5   4  -2 398.619 12.4655   3
  -5  -4   2 400.197 12.5917   2
   4   4  -2 120.185 6.18000   1
   4   4  -2 120.004 5.74484   3
  -4  -4   2 121.491 4.93490   1
  -4  -4   2 117.210 6.36788   2
  -4  -4   2 108.905 5.71638   2
   3   4  -2 8.38387 1.92067   1
   3   4  -2 12.2163 2.06083   3
  -3  -4   2 8.36650 2.14372   2
  -3  -4   2 11.7961 2.25356   2
   2   4  -2 98.9687 3.86255   3
   2   4  -2 87.8605 3.93533   1
  -2  -4   2 91.4377 4.04575   2
  -2  -4   2 88.2360 3.84463   2
   1   4  -2 55.8163 2.73121   1
   0   4  -2 779.612 14.7033   1
  -1   4  -2 1287.05 22.8629   3
  -1   4  -2 1283.06 23.1485   1
  -2   4  -2 58.3250 3.04196   1
  -2   4  -2 63.6257 2.96560   3
   2  -4   2 63.3896 2.99961   2
   2  -4   2 57.3181 2.82283   1
   2  -4   2 57.0777 2.98808   2
  -3   4  -2 118.302 4.81158   1
  -3   4  -2 112.509 4.51576   3
   3  -4   2 108.195 4.51194   2
   3  -4   2 115.351 4.52272   1
   3  -4   2 111.620 4.53067   2
  -4   4  -2 0.59818 1.22371   1
  -4   4  -2 2.20118 1.24447   3
   4  -4   2 1.05747 1.19224   1
   4  -4   2 0.31179 1.15858   2
  -5   4  -2 11.5657 2.38137   3
  -5   4  -2 13.7293 2.58459   1
   5  -4   2 14.6977 2.58797   2
   5  -4   2 11.9876 2.52562   1
   5  -4   2 17.6350 2.82627   3
  -6   4  -2 8.19557 2.57149   1
  -6   4  -2 10.6897 2.60827   3
   6  -4   2 7.28885 2.34067   1
   6  -4   2 9.70092 2.39967   3
   6  -4   2 5.21420 2.15817   2
  -7   4  -2 1.60768 2.24135   1
  -7   4  -2 2.64951 2.14946   3
   7  -4   2 2.70811 1.96896   3
   7  -4   2 1.80884 1.97077   1
  -8   4  -2 5.96528 2.70640   3
  -8   4  -2 6.30458 2.94705   1
   8  -4   2 9.30956 3.17062   1
   8  -4   2 7.04403 2.68335   3
  -9   4  -2 64.5766 7.27586   1
  -9   4  -2 65.2235 6.92116   3
   9  -4   2 56.3377 6.83986   1
   9  -4   2 57.6414 6.44594   3
   8   3  -2 0.49421 2.85521   1
   8   3  -2 -0.0931 2.65533   3
  -8  -3   2 -3.9258 3.41581   2
   7   3  -2 25.1217 4.70307   1
   7   3  -2 28.5969 4.77277   3
  -7  -3   2 24.7058 4.89679   2
   6   3  -2 15.2488 3.33197   3
   6   3  -2 10.7063 3.04616   1
  -6  -3   2 11.2650 3.35920   2
   5   3  -2 53.8585 5.00043   3
   5   3  -2 48.5533 4.96754   1
  -5  -3   2 53.1115 3.84667   1
  -5  -3   2 44.7708 4.46367   2
  -5  -3   2 57.8387 5.29960   2
   4   3  -2 51.4675 3.95015   1
   4   3  -2 56.2167 3.97646   3
  -4  -3   2 47.1402 3.09706   1
  -4  -3   2 39.5351 3.78326   2
  -4  -3   2 51.5925 3.95822   2
   3   3  -2 293.233 7.87323   3
   3   3  -2 299.435 8.27967   1
  -3  -3   2 305.112 8.05924   2
  -3  -3   2 300.409 7.99391   2
   2   3  -2 4.25711 1.09537   1
  -1   3  -2 42.9057 1.95918   3
  -1   3  -2 39.4723 2.01839   1
   1  -3   2 43.7448 3.17267   4
  -2   3  -2 433.743 9.81410   1
  -2   3  -2 443.966 9.64338   3
   2  -3   2 442.175 9.60484   2
   2  -3   2 443.794 9.65261   2
   2  -3   2 430.305 10.5456   4
   2  -3   2 440.232 9.55613   1
  -3   3  -2 2091.74 36.9677   1
  -3   3  -2 2042.23 36.5283   3
   3  -3   2 2048.02 35.9630   4
   3  -3   2 2030.99 36.1325   3
   3  -3   2 2038.08 36.3941   2
   3  -3   2 1878.63 38.5243   2
   3  -3   2 1996.94 36.3811   1
  -4   3  -2 340.730 9.93421   1
  -4   3  -2 340.354 9.59411   3
   4  -3   2 340.907 9.65591   1
   4  -3   2 334.734 9.42068   2
   4  -3   2 323.813 9.24751   3
   4  -3   2 339.695 7.72556   4
  -5   3  -2 5.61122 1.97991   1
  -5   3  -2 2.03478 1.70760   3
  -5   3  -2 6.01745 2.23575   2
   5  -3   2 4.09371 1.73038   1
   5  -3   2 6.82744 2.16222   3
   5  -3   2 3.79285 1.83222   2
  -6   3  -2 -0.6645 1.62666   1
  -6   3  -2 1.06280 1.93156   3
   6  -3   2 -2.9880 1.28860   1
   6  -3   2 1.72160 1.74195   2
   6  -3   2 0.06054 1.60709   3
  -7   3  -2 23.6549 3.97856   1
  -7   3  -2 28.4016 4.26911   3
   7  -3   2 29.8180 4.30841   3
   7  -3   2 38.6289 5.45582   1
  -8   3  -2 41.8175 5.36749   3
  -8   3  -2 42.5604 5.80001   1
   8  -3   2 55.4736 6.94056   1
   8  -3   2 41.7990 5.39294   3
  -9   3  -2 1.83921 2.88053   3
  -9   3  -2 -1.5840 2.75830   1
   9  -3   2 -3.7030 2.26395   1
   9  -3   2 -4.2621 1.85713   3
   8   2  -2 70.3313 7.82273   1
   8   2  -2 62.1337 6.86912   3
  -8  -2   2 57.3846 6.64515   2
   7   2  -2 1.13277 2.20533   3
   7   2  -2 4.43064 2.79747   1
  -7  -2   2 2.42886 1.78311   3
  -7  -2   2 2.62230 3.00824   2
   6   2  -2 429.276 13.5304   1
   6   2  -2 408.942 12.8225   3
  -6  -2   2 409.391 10.9544   3
  -6  -2   2 418.632 11.6615   1
  -6  -2   2 423.078 13.0304   2
   5   2  -2 22.7790 3.42337   1
   5   2  -2 32.4868 3.73137   3
  -5  -2   2 30.1347 3.19271   1
  -5  -2   2 29.7869 3.58483   2
  -5  -2   2 30.8130 3.85392   2
   4   2  -2 1.56127 1.34619   1
   4   2  -2 1.52479 1.31958   3
  -4  -2   2 1.63583 1.66501   2
  -4  -2   2 2.94843 1.65627   2
  -4  -2   2 1.65443 1.18013   1
   3   2  -2 55.9913 3.10340   1
   3   2  -2 50.6588 2.76734   3
  -3  -2   2 51.7258 2.49727   1
  -3  -2   2 56.7939 3.02674   2
  -3  -2   2 47.2659 3.08040   2
   2   2  -2 256.397 6.60104   1
   2   2  -2 247.901 5.81178   1
  -1  -2   2 3.86543 1.60103   4
   0  -2   2 379.302 9.92834   4
  -1   2  -2 5794.94 95.4162   1
  -1   2  -2 5860.55 95.1586   3
   1  -2   2 5769.94 97.3898   4
   1  -2   2 5767.78 95.0587   1
  -2   2  -2 660.584 13.2747   3
  -2   2  -2 639.266 13.4181   1
   2  -2   2 667.665 13.2483   2
   2  -2   2 656.427 13.0320   3
   2  -2   2 644.967 13.5740   4
   2  -2   2 664.113 13.2752   1
   2  -2   2 635.698 13.1992   2
  -3   2  -2 15.8604 2.32708   1
  -3   2  -2 13.9706 2.05213   3
   3  -2   2 10.0083 1.83017   1
   3  -2   2 16.1411 1.93319   4
   3  -2   2 14.6194 2.10300   2
   3  -2   2 12.6782 2.02140   3
  -4   2  -2 25.1655 3.18629   1
  -4   2  -2 27.3695 3.18496   3
  -4   2  -2 20.5443 2.66865   2
   4  -2   2 26.8576 3.15032   1
   4  -2   2 28.2505 3.16649   2
   4  -2   2 28.3135 2.16260   4
   4  -2   2 29.5900 3.16406   3
  -5   2  -2 169.261 7.29072   2
  -5   2  -2 186.288 7.46092   3
  -5   2  -2 177.522 7.74480   1
   5  -2   2 189.404 7.73179   1
   5  -2   2 181.131 7.26580   2
   5  -2   2 177.594 5.28724   4
   5  -2   2 171.283 7.33216   3
  -6   2  -2 73.4400 5.68571   1
  -6   2  -2 56.2207 5.47518   3
   6  -2   2 67.7434 6.27972   1
   6  -2   2 52.6814 6.17675   2
   6  -2   2 63.4545 5.69714   3
  -7   2  -2 112.548 7.48000   1
  -7   2  -2 90.6140 6.51556   3
   7  -2   2 92.4390 6.83818   1
   7  -2   2 94.9049 6.79680   3
  -8   2  -2 46.7810 5.95714   1
  -8   2  -2 54.1820 6.19147   3
   8  -2   2 52.5503 6.12862   3
   8  -2   2 59.3875 7.33923   1
   9   1  -2 36.0644 5.69945   3
   9   1  -2 50.4153 7.26321   1
  -9  -1   2 34.9759 4.58822   3
   8   1  -2 288.220 12.5614   1
   8   1  -2 302.953 12.3192   3
  -8  -1   2 281.996 12.2523   2
  -8  -1   2 296.636 10.3504   3
   7   1  -2 328.124 12.3881   1
   7   1  -2 329.385 11.7467   3
  -7  -1   2 335.918 10.7426   1
  -7  -1   2 339.822 12.0961   2
  -7  -1   2 325.285 10.2067   3
   6   1  -2 10.0492 2.76222   1
   6   1  -2 4.57307 2.24643   3
  -6  -1   2 3.77297 2.56684   2
  -6  -1   2 11.2094 2.40408   1
  -6  -1   2 9.22169 2.02677   3
  -6  -1   2 3.15051 2.58765   2
   5   1  -2 376.793 11.0581   1
   5   1  -2 365.550 10.5277   3
  -5  -1   2 382.670 10.4973   2
  -5  -1   2 375.925 9.87811   1
  -5  -1   2 381.771 10.7167   2
  -5  -1   2 365.158 9.35921   3
   4   1  -2 293.487 8.38093   1
   4   1  -2 284.348 7.95923   3
  -4  -1   2 284.649 7.45778   1
  -4  -1   2 281.616 7.05987   3
  -4  -1   2 290.067 8.07336   2
  -4  -1   2 302.362 8.01658   2
   3   1  -2 36.0765 2.30129   3
   3   1  -2 39.5328 2.50565   1
  -3  -1   2 40.1897 2.10818   1
  -3  -1   2 44.2129 2.66689   2
  -3  -1   2 38.5568 2.41729   2
   2   1  -2 115.886 3.11681   1
   2   1  -2 118.965 3.22804   1
  -2  -1   2 115.044 5.03759   4
  -1  -1   2 290.580 7.98125   4
   0  -1   2 742.880 15.1447   4
  -1   1  -2 427.436 8.66960   3
  -1   1  -2 430.813 8.93062   1
   1  -1   2 430.575 8.66746   2
   1  -1   2 413.288 8.69773   1
   1  -1   2 409.058 8.61903   2
   1  -1   2 416.375 8.49112   3
   1  -1   2 424.918 9.75463   4
  -2   1  -2 1761.88 32.3123   1
  -2   1  -2 1793.78 31.9883   3
   2  -1   2 1755.77 32.2324   4
   2  -1   2 1844.76 32.0218   2
   2  -1   2 1778.88 31.8336   3
   2  -1   2 1800.02 32.2448   1
  -3   1  -2 85.1631 4.21497   3
  -3   1  -2 80.9909 4.27135   2
  -3   1  -2 87.2199 4.43306   1
   3  -1   2 83.3818 4.18922   3
   3  -1   2 83.4319 4.13410   2
   3  -1   2 82.9288 4.31053   1
  -4   1  -2 86.6110 5.05576   2
  -4   1  -2 89.9784 4.98261   1
  -4   1  -2 88.1243 4.81756   3
   4  -1   2 83.8331 4.93570   1
   4  -1   2 85.6623 4.65229   2
   4  -1   2 92.2252 5.02321   3
  -5   1  -2 444.422 12.8455   3
  -5   1  -2 462.173 13.2857   1
  -5   1  -2 443.546 12.9785   2
   5  -1   2 435.092 12.6487   2
   5  -1   2 467.797 13.6139   1
  -6   1  -2 104.423 6.43173   3
  -6   1  -2 116.870 6.98126   1
   6  -1   2 115.234 6.96487   3
   6  -1   2 118.783 7.18368   1
  -7   1  -2 -0.5568 2.08951   3
  -7   1  -2 2.22596 2.30752   1
   7  -1   2 0.39933 2.15788   3
   7  -1   2 -0.5510 2.04184   1
  -8   1  -2 15.7137 4.16888   1
  -8   1  -2 9.50636 3.42644   3
   8  -1   2 16.4605 4.18621   1
   8  -1   2 7.19618 3.28401   3
   9   0  -2 18.9561 4.26199   3
   9   0  -2 18.8923 4.66612   1
  -9   0   2 17.8388 3.67453   3
   8   0  -2 -4.1064 1.69672   1
   8   0  -2 -0.2620 2.04824   3
  -8   0   2 -0.4100 1.89546   3
  -8   0   2 -0.2260 2.90076   2
   7   0  -2 150.392 7.74522   3
   7   0  -2 143.623 7.81333   1
  -7   0   2 147.150 6.68155   3
  -7   0   2 159.374 8.19195   2
  -7   0   2 156.442 7.00727   1
   6   0  -2 281.265 9.63439   3
   6   0  -2 284.359 10.0369   1
  -6   0   2 276.390 8.81306   1
  -6   0   2 295.163 9.87404   2
  -6   0   2 282.269 8.63918   3
   5   0  -2 289.767 8.75358   3
   5   0  -2 295.994 9.24918   1
  -5   0   2 300.956 9.01418   2
  -5   0   2 305.580 8.20752   3
  -5   0   2 305.173 8.88242   2
  -5   0   2 298.304 8.37346   1
   4   0  -2 17.6387 2.33338   1
   4   0  -2 18.5978 2.23401   3
  -4   0   2 19.5832 2.33689   2
  -4   0   2 17.9997 2.04042   3
  -4   0   2 18.8038 2.08535   1
  -4   0   2 21.8434 2.32034   2
   3   0  -2 561.311 11.1826   3
   3   0  -2 545.197 11.4455   1
  -3   0   2 533.586 12.6519   4
  -3   0   2 553.823 11.1577   2
  -3   0   2 543.260 10.6032   3
  -3   0   2 536.002 10.8009   1
  -3   0   2 562.633 11.1173   2
   2   0  -2 550.842 10.3631   1
  -2   0   2 540.001 12.1379   4
  -2   0   2 561.556 9.96002   1
  -1   0   2 13.4833 1.77964   4
   0   0  -2 76.9146 2.54332   1
   0   0  -2 80.6994 2.50194   3
   0   0   2 77.9004 2.40544   3
   0   0   2 82.8704 2.54938   2
   0   0   2 79.4210 2.51999   1
   0   0   2 82.0308 2.53789   1
  -1   0  -2 4.35540 1.15331   1
  -1   0  -2 6.70285 2.12252   2
  -1   0  -2 5.12707 1.21787   3
   1   0   2 6.80614 1.32237   1
   1   0   2 5.88125 1.22879   3
   1   0   2 5.67912 1.32951   2
  -2   0  -2 91.1575 4.07334   1
  -2   0  -2 87.6797 3.92186   3
  -2   0  -2 85.0558 3.97754   2
   2   0   2 89.0488 3.92363   2
   2   0   2 92.2522 3.95739   3
   2   0   2 87.6846 4.04656   1
  -3   0  -2 333.226 9.28633   2
  -3   0  -2 318.213 9.46437   1
  -3   0  -2 315.542 9.20638   3
   3   0   2 349.931 9.23041   2
   3   0   2 327.761 9.56911   1
  -4   0  -2 533.472 14.0228   2
  -4   0  -2 561.519 14.5442   1
  -4   0  -2 540.570 14.0409   3
   4   0   2 582.813 14.8425   1
   4   0   2 566.738 14.2771   3
   4   0   2 540.294 13.7730   2
  -5   0  -2 1.11369 1.72323   1
  -5   0  -2 0.68480 2.20888   2
  -5   0  -2 1.01927 1.92575   3
   5   0   2 1.13331 1.76729   1
   5   0   2 -0.9287 1.67296   2
   5   0   2 0.85082 1.85784   3
  -6   0  -2 100.453 6.44039   3
  -6   0  -2 92.4061 6.67842   1
   6   0   2 111.695 7.08078   3
   6   0   2 90.6811 6.84593   1
  -7   0  -2 7.49983 3.27884   3
  -7   0  -2 6.69283 3.27610   1
   7   0   2 12.2174 3.78114   1
   7   0   2 9.96701 3.35349   3
  -8   0  -2 38.0682 5.64924   3
  -8   0  -2 45.7970 6.21861   1
   8   0   2 53.4320 7.52355   1
   8   0   2 41.1870 5.95722   3
  10  -1  -2 7.88798 3.55723   3
  10  -1  -2 2.84924 3.29240   1
 -10   1   2 5.01455 2.76917   3
   9  -1  -2 92.4327 8.23068   3
   9  -1  -2 102.743 9.33157   1
  -9   1   2 88.4461 6.30246   3
   8  -1  -2 143.645 8.22589   3
   8  -1  -2 151.074 8.53154   1
  -8   1   2 155.138 8.51054   2
  -8   1   2 154.794 7.50326   3
  -8   1   2 156.313 7.69641   1
   7  -1  -2 192.858 8.73427   1
   7  -1  -2 186.721 8.44318   3
  -7   1   2 171.782 7.36430   3
  -7   1   2 184.350 8.41755   2
  -7   1   2 187.651 7.68405   1
   6  -1  -2 423.234 12.0493   3
   6  -1  -2 402.468 12.1947   1
  -6   1   2 425.676 11.4341   1
  -6   1   2 411.629 11.1323   3
  -6   1   2 427.242 12.1070   2
   5  -1  -2 183.940 6.64951   3
   5  -1  -2 183.406 6.83978   1
  -5   1   2 180.801 6.72270   2
  -5   1   2 182.753 6.12572   3
  -5   1   2 183.954 6.28418   1
   4  -1  -2 230.987 6.81056   3
   4  -1  -2 234.479 6.97683   1
  -4   1   2 230.757 6.33377   3
  -4   1   2 234.412 6.55553   1
  -4   1   2 250.110 6.87072   2
  -4   1   2 225.686 6.84277   4
  -4   1   2 243.405 6.74486   2
   3  -1  -2 106.731 3.92025   1
   3  -1  -2 108.044 3.83255   3
  -3   1   2 104.489 3.79831   2
  -3   1   2 102.315 3.67125   2
  -3   1   2 112.235 3.53521   3
  -3   1   2 99.8892 3.52018   1
  -3   1   2 103.151 4.19153   4
  -2   1   2 9999.99 163.058   2
   1  -1  -2 323.446 6.95887   1
  -1   1   2 318.998 6.72153   2
  -1   1   2 324.968 6.66931   3
  -1   1   2 313.578 6.77306   1
   0  -1  -2 276.901 6.45269   3
   0  -1  -2 269.842 6.61393   1
   0  -1  -2 278.308 6.47053   2
   0   1   2 284.851 6.45566   2
   0   1   2 267.379 6.53198   1
   0   1   2 273.198 6.37512   3
  -1  -1  -2 17.4291 2.13970   1
  -1  -1  -2 17.0673 2.05870   2
  -1  -1  -2 12.7863 1.79641   3
   1   1   2 18.5823 2.03567   2
   1   1   2 13.3086 1.88889   1
   1   1   2 14.8004 1.88055   3
  -2  -1  -2 95.5977 4.59143   2
  -2  -1  -2 100.999 4.43930   3
  -2  -1  -2 94.1671 4.46469   1
   2   1   2 100.537 4.64728   1
   2   1   2 95.1098 4.32374   2
   2   1   2 98.8164 4.47053   3
  -3  -1  -2 -0.4368 1.64630   2
  -3  -1  -2 0.98420 1.33884   3
  -3  -1  -2 0.32892 1.37979   1
   3   1   2 1.43521 1.41734   1
   3   1   2 -1.6123 1.17193   3
   3   1   2 -0.8241 1.12996   1
   3   1   2 1.58281 1.44154   2
  -4  -1  -2 352.649 11.1375   1
  -4  -1  -2 364.071 11.1131   2
  -4  -1  -2 339.341 10.7046   3
   4   1   2 336.064 11.1920   1
   4   1   2 341.329 10.9295   3
   4   1   2 335.139 10.3613   2
  -5  -1  -2 115.685 7.23153   2
  -5  -1  -2 137.899 7.30230   1
  -5  -1  -2 127.928 6.88792   3
   5   1   2 127.593 7.26971   3
   5   1   2 133.613 7.60795   1
  -6  -1  -2 11.4469 3.28627   3
  -6  -1  -2 8.16463 3.26182   1
   6   1   2 11.2124 3.27435   1
   6   1   2 10.5226 3.24954   3
  -7  -1  -2 2.22061 2.55859   1
  -7  -1  -2 -0.1996 2.36370   3
   7   1   2 0.08995 2.46996   1
   7   1   2 3.87805 2.76543   3
  10  -2  -2 54.6366 6.84442   3
  10  -2  -2 59.0671 8.02590   1
 -10   2   2 39.1230 5.12033   3
   9  -2  -2 20.4437 4.55604   1
   9  -2  -2 17.8995 4.04697   3
  -9   2   2 15.5850 3.43997   3
  -9   2   2 15.2696 3.54369   1
   8  -2  -2 340.859 12.1219   3
   8  -2  -2 328.854 12.5282   1
  -8   2   2 329.503 11.1574   3
  -8   2   2 327.594 11.9643   2
  -8   2   2 341.223 11.3355   1
   7  -2  -2 277.214 10.3857   1
   7  -2  -2 258.905 9.85719   3
  -7   2   2 285.705 10.1451   2
  -7   2   2 289.309 9.60727   1
  -7   2   2 281.180 9.43800   3
   6  -2  -2 9.52003 2.39031   3
   6  -2  -2 3.20581 1.85860   1
  -6   2   2 5.04986 1.85715   3
  -6   2   2 6.96389 2.26445   2
  -6   2   2 5.93107 1.98885   1
   5  -2  -2 128.653 5.58176   1
   5  -2  -2 121.562 5.31111   3
  -5   2   2 129.603 5.01054   3
  -5   2   2 131.767 5.26064   1
  -5   2   2 122.228 4.50501   4
  -5   2   2 118.832 5.36760   2
   4  -2  -2 144.525 5.16626   3
   4  -2  -2 138.739 5.26022   1
  -4   2   2 142.528 4.82375   3
  -4   2   2 129.639 4.79182   4
  -4   2   2 140.789 4.96301   1
  -4   2   2 143.249 5.11680   2
   3  -2  -2 1345.75 24.1074   3
   3  -2  -2 1334.65 24.4667   1
  -3   2   2 1293.72 23.9378   2
  -3   2   2 1274.01 23.9422   1
  -3   2   2 1315.25 23.7988   3
   2  -2  -2 5099.13 87.1138   1
   2  -2  -2 5148.87 86.6199   2
  -2   2   2 5314.78 86.9942   1
  -2   2   2 5282.14 86.7625   3
  -2   2   2 5319.28 86.8516   2
   1  -2  -2 428.248 9.12788   3
   1  -2  -2 432.070 9.08423   2
   1  -2  -2 401.263 9.29770   1
  -1   2   2 425.651 9.11110   3
  -1   2   2 432.714 9.11755   2
  -1   2   2 419.943 9.33725   1
   0  -2  -2 7.09185 1.53870   1
   0  -2  -2 12.9273 1.77990   3
   0  -2  -2 11.4271 1.72646   2
   0   2   2 10.5744 1.63165   1
   0   2   2 12.4480 1.76968   2
   0   2   2 9.78035 1.53691   3
  -1  -2  -2 118.900 4.68823   3
  -1  -2  -2 123.825 4.85638   2
  -1  -2  -2 115.015 4.73683   1
   1   2   2 120.915 4.59412   2
   1   2   2 120.592 4.67655   3
   1   2   2 121.519 4.85668   1
  -2  -2  -2 157.517 6.23948   1
  -2  -2  -2 172.257 6.38416   2
  -2  -2  -2 152.699 5.97114   3
   2   2   2 154.545 5.82093   2
   2   2   2 177.689 6.59814   1
   2   2   2 162.321 6.18008   3
  -3  -2  -2 9.39481 2.26741   1
  -3  -2  -2 11.0510 2.27285   3
  -3  -2  -2 6.95424 2.47696   2
   3   2   2 10.0725 2.31408   3
   3   2   2 11.6286 2.41991   2
   3   2   2 9.33018 2.43035   1
  -4  -2  -2 187.889 8.26396   1
  -4  -2  -2 178.393 7.85952   3
  -4  -2  -2 175.155 8.16114   2
   4   2   2 179.784 8.48812   1
   4   2   2 187.706 8.29003   3
   4   2   2 185.469 8.48676   1
  -5  -2  -2 133.085 7.22987   3
  -5  -2  -2 122.689 7.21715   1
  -5  -2  -2 118.917 11.1262   2
   5   2   2 127.739 7.45769   3
   5   2   2 131.120 7.85859   1
  -6  -2  -2 27.4793 4.56904   1
  -6  -2  -2 23.9242 4.09424   3
   6   2   2 37.1244 5.70221   1
   6   2   2 26.3829 4.61549   3
  -7  -2  -2 28.3501 4.85596   3
  -7  -2  -2 34.9231 6.67332   1
   7   2   2 41.2498 5.91655   3
   7   2   2 39.6673 6.37288   1
  10  -3  -2 10.1883 3.49406   1
  10  -3  -2 8.55812 3.28508   3
 -10   3   2 3.64965 2.51169   3
   9  -3  -2 5.17726 2.97406   1
   9  -3  -2 3.98792 2.63166   3
  -9   3   2 2.64588 2.26927   3
  -9   3   2 3.70882 2.59164   1
   8  -3  -2 183.790 8.75787   3
   8  -3  -2 183.546 9.07196   1
  -8   3   2 200.176 8.69763   1
  -8   3   2 189.220 8.09099   3
  -8   3   2 178.207 8.88258   2
   7  -3  -2 72.8722 5.44192   1
   7  -3  -2 78.1961 5.51308   3
  -7   3   2 85.6045 5.79276   2
  -7   3   2 83.8493 5.10643   3
  -7   3   2 85.5996 5.42525   1
   6  -3  -2 31.6273 3.92564   1
   6  -3  -2 27.1374 3.43476   3
  -6   3   2 28.0510 3.44324   1
  -6   3   2 26.0079 3.38480   2
  -6   3   2 29.2708 3.37679   3
   5  -3  -2 19.6428 2.69268   3
   5  -3  -2 17.7186 2.34160   2
   5  -3  -2 22.7539 3.03497   1
  -5   3   2 21.8365 2.32161   4
  -5   3   2 20.7986 2.70123   1
  -5   3   2 22.4143 2.64311   3
  -5   3   2 22.3083 2.77178   2
   4  -3  -2 6.06252 1.63899   1
   4  -3  -2 9.45385 1.69238   2
  -4   3   2 11.2086 1.87030   3
  -4   3   2 9.34074 1.87819   2
  -4   3   2 13.5723 2.06929   1
   3  -3  -2 511.463 11.2093   2
  -3   3   2 528.898 11.4378   2
  -3   3   2 521.397 11.3338   3
  -3   3   2 506.858 11.5243   1
   2  -3  -2 1132.89 21.0575   2
   2  -3  -2 1081.04 21.4358   1
  -2   3   2 1134.69 21.0230   2
  -2   3   2 1125.64 21.3509   1
  -2   3   2 1143.35 21.2227   3
   1  -3  -2 23.0269 2.22491   2
   1  -3  -2 19.9783 2.22038   3
   1  -3  -2 21.4716 2.31361   1
  -1   3   2 21.4213 2.15433   3
  -1   3   2 23.4758 2.45794   1
  -1   3   2 20.3470 2.07649   2
   0  -3  -2 16.6813 2.10048   3
   0  -3  -2 15.8591 2.08177   1
   0  -3  -2 19.2184 2.29625   2
   0   3   2 20.2412 2.32643   2
   0   3   2 23.3336 2.46003   3
   0   3   2 19.2709 2.40170   1
  -1  -3  -2 2.37533 1.47615   2
  -1  -3  -2 -0.8960 1.14990   3
  -1  -3  -2 1.02635 1.20134   1
   1   3   2 -0.6489 1.05530   1
   1   3   2 0.36692 1.11800   2
   1   3   2 -1.1493 0.94471   3
  -2  -3  -2 3.05029 1.62647   3
  -2  -3  -2 -1.2208 1.14831   1
  -2  -3  -2 0.67632 1.82073   2
   2   3   2 0.49073 1.26002   1
   2   3   2 1.55463 1.41224   2
   2   3   2 0.44235 1.39032   3
  -3  -3  -2 0.13918 1.44600   1
  -3  -3  -2 -0.7413 2.08228   2
  -3  -3  -2 -1.0706 1.47724   3
   3   3   2 -0.7306 1.62438   3
   3   3   2 -1.4932 1.24606   1
  -4  -3  -2 14.6684 3.34179   1
  -4  -3  -2 15.8929 3.35617   3
   4   3   2 25.5403 4.22754   1
   4   3   2 23.8518 4.22687   1
   4   3   2 15.1431 3.27467   3
  -5  -3  -2 69.4942 6.41703   3
  -5  -3  -2 85.2547 7.39783   1
   5   3   2 76.7161 7.63026   1
   5   3   2 73.0699 6.92255   3
  -6  -3  -2 127.238 8.29331   1
  -6  -3  -2 123.585 7.68041   3
   6   3   2 121.931 8.73311   1
   6   3   2 126.871 8.63133   3
  10  -4  -2 5.60471 2.80662   3
  10  -4  -2 3.84240 2.93172   1
 -10   4   2 0.54105 2.59340   1
 -10   4   2 8.44815 2.96798   3
   9  -4  -2 37.8661 5.14329   1
   9  -4  -2 29.7556 4.52963   3
  -9   4   2 29.7043 4.30945   3
  -9   4   2 31.3217 4.68203   1
   8  -4  -2 75.9817 5.68632   3
   8  -4  -2 91.2028 6.41680   1
  -8   4   2 76.6231 6.50364   2
  -8   4   2 89.9989 5.75044   3
  -8   4   2 84.3028 5.92818   1
   7  -4  -2 25.0353 3.75514   3
   7  -4  -2 29.1916 4.09456   1
  -7   4   2 24.2906 3.54553   1
  -7   4   2 22.8999 3.23715   3
  -7   4   2 20.8712 3.52241   2
   6  -4  -2 35.1072 3.55073   2
   6  -4  -2 44.6261 4.59473   1
   6  -4  -2 43.9602 4.33330   3
  -6   4   2 41.0060 4.02428   1
  -6   4   2 41.8598 2.72568   4
  -6   4   2 32.5478 3.58885   3
  -6   4   2 41.3223 4.18635   2
   5  -4  -2 3.08320 1.55168   1
   5  -4  -2 -0.5476 0.98587   2
  -5   4   2 0.08542 1.35292   2
  -5   4   2 1.35529 1.34193   1
  -5   4   2 1.76695 1.24365   3
   4  -4  -2 123.840 4.98484   2
  -4   4   2 126.225 5.04465   3
  -4   4   2 121.061 5.12626   1
  -4   4   2 123.406 5.13056   2
   3  -4  -2 1277.57 24.5797   2
   3  -4  -2 1293.24 25.2830   1
  -3   4   2 1285.71 24.8142   3
  -3   4   2 1330.90 24.8340   2
  -3   4   2 1270.50 24.9227   1
  -3   4   2 1327.72 24.8466   2
   2  -4  -2 788.515 16.2376   3
   2  -4  -2 780.777 16.6573   1
   2  -4  -2 788.969 16.2989   2
  -2   4   2 778.706 16.2980   3
  -2   4   2 778.048 16.5145   1
  -2   4   2 776.957 16.0838   2
   1  -4  -2 868.744 17.5339   3
   1  -4  -2 821.075 17.6814   1
   1  -4  -2 810.009 17.2409   2
  -1   4   2 843.320 17.4676   3
  -1   4   2 839.427 17.8837   1
  -1   4   2 846.991 17.2032   2
   0  -4  -2 44.9322 3.37552   1
   0  -4  -2 46.8957 3.60260   2
   0  -4  -2 42.5743 3.23420   3
   0   4   2 43.3255 3.21928   2
   0   4   2 42.0609 3.21586   3
   0   4   2 43.8053 3.44075   1
  -1  -4  -2 2.69266 1.47885   1
  -1  -4  -2 5.62306 1.78317   3
  -1  -4  -2 1.60764 1.78313   2
   1   4   2 3.21244 1.52046   1
   1   4   2 1.48919 1.44741   2
   1   4   2 4.55301 1.78785   3
  -2  -4  -2 2.88947 1.78302   1
  -2  -4  -2 0.50313 2.07803   2
  -2  -4  -2 4.30274 1.88295   3
   2   4   2 2.31938 1.77034   3
   2   4   2 5.43876 2.04902   1
  -3  -4  -2 1.59783 1.82927   3
  -3  -4  -2 5.41970 2.19524   1
  -3  -4  -2 -0.1165 2.44402   2
   3   4   2 4.10331 2.21668   1
   3   4   2 0.97543 1.98889   3
  -4  -4  -2 62.8872 6.23847   2
  -4  -4  -2 69.3052 6.14864   3
  -4  -4  -2 74.0900 6.73456   1
   4   4   2 66.4429 6.41510   1
   4   4   2 62.8118 6.09300   3
  -5  -4  -2 54.8538 5.76949   3
  -5  -4  -2 78.5937 7.32575   1
   5   4   2 67.2505 7.20466   3
   5   4   2 69.4924 7.48245   1
   5   4   2 60.6724 7.22096   1
  -6  -4  -2 17.2850 3.99624   3
   6   4   2 24.5633 5.58724   1
   6   4   2 23.5961 4.91531   3
  10  -5  -2 2.16870 2.54338   3
  10  -5  -2 -0.2669 2.45598   1
 -10   5   2 1.64685 2.23059   3
 -10   5   2 -0.1044 2.26085   1
   9  -5  -2 139.999 8.42191   1
   9  -5  -2 133.016 7.85014   3
  -9   5   2 138.215 8.01981   1
  -9   5   2 153.682 7.98766   3
   8  -5  -2 5.80807 2.52084   3
   8  -5  -2 7.99282 2.72521   1
  -8   5   2 6.98675 2.50850   1
  -8   5   2 7.01551 2.61339   3
   7  -5  -2 352.814 12.0194   1
  -7   5   2 366.630 11.6036   2
  -7   5   2 356.662 11.2380   3
  -7   5   2 369.009 11.7023   1
   6  -5  -2 61.2243 5.67196   1
   6  -5  -2 49.3906 4.21738   2
  -6   5   2 46.7161 4.60439   1
  -6   5   2 43.1727 4.19981   3
  -6   5   2 47.4898 4.46989   2
   5  -5  -2 126.352 6.11249   1
   5  -5  -2 127.416 5.60870   2
  -5   5   2 131.893 5.89044   2
  -5   5   2 143.403 5.87401   3
  -5   5   2 131.511 5.96189   1
   4  -5  -2 118.288 5.21193   2
   4  -5  -2 128.079 5.76405   1
  -4   5   2 114.426 5.41980   1
  -4   5   2 117.375 5.16967   3
  -4   5   2 123.187 5.33323   2
   3  -5  -2 29.9591 2.98069   2
   3  -5  -2 30.0156 3.25233   1
   3  -5  -2 26.4800 2.97273   3
  -3   5   2 33.2115 3.03750   2
  -3   5   2 32.7087 3.25128   3
  -3   5   2 33.6908 3.46897   1
   2  -5  -2 205.994 7.16407   1
   2  -5  -2 215.013 7.16711   2
   2  -5  -2 218.060 7.02003   3
  -2   5   2 215.048 7.13042   3
  -2   5   2 219.305 7.40159   1
  -2   5   2 210.818 6.85740   2
   1  -5  -2 656.686 15.1508   2
   1  -5  -2 672.922 15.1061   3
   1  -5  -2 660.815 15.3798   1
  -1   5   2 652.311 15.1796   3
  -1   5   2 642.861 14.7367   2
  -1   5   2 653.952 15.7339   1
   0  -5  -2 13.4654 2.40283   1
   0  -5  -2 15.2442 2.52071   3
   0  -5  -2 16.2935 2.72611   2
   0   5   2 14.3960 2.51675   1
   0   5   2 14.7143 2.50422   3
  -1  -5  -2 20.2863 3.13813   3
  -1  -5  -2 11.1466 2.33030   1
  -1  -5  -2 12.7712 2.88322   2
   1   5   2 16.2971 2.92853   3
   1   5   2 15.5717 2.90139   1
  -2  -5  -2 3.40641 2.05394   3
  -2  -5  -2 5.68211 2.83217   2
  -2  -5  -2 5.72394 2.41062   1
   2   5   2 7.39614 2.42065   1
   2   5   2 4.30432 2.12556   3
  -3  -5  -2 27.5060 4.02725   3
  -3  -5  -2 26.0929 4.22261   1
  -3  -5  -2 25.2875 4.19633   2
   3   5   2 21.7368 4.06533   3
   3   5   2 19.5156 3.74816   1
  -4  -5  -2 12.4461 3.43136   3
  -4  -5  -2 12.8188 3.57099   1
   4   5   2 14.2545 3.61680   3
   4   5   2 10.2893 3.32108   1
  -5  -5  -2 -2.4933 2.24946   3
   5   5   2 0.24049 2.57300   1
   5   5   2 3.27854 3.19087   1
   5   5   2 5.79200 3.35292   3
  10  -6  -2 18.7129 4.19819   1
 -10   6   2 18.2861 4.21450   1
 -10   6   2 14.8301 3.64079   3
   9  -6  -2 33.2912 5.41952   1
  -9   6   2 18.2158 3.55690   3
  -9   6   2 13.8813 3.51422   1
   8  -6  -2 31.6791 4.47321   1
  -8   6   2 35.5387 4.73990   1
  -8   6   2 25.7214 3.87184   3
   7  -6  -2 97.6041 6.29955   1
  -7   6   2 105.969 5.07685   4
  -7   6   2 105.091 6.40406   2
  -7   6   2 100.112 5.98489   3
  -7   6   2 98.1086 6.15849   1
   6  -6  -2 105.793 5.66257   2
   6  -6  -2 107.416 6.19877   1
  -6   6   2 101.963 5.83278   2
  -6   6   2 109.330 6.03117   1
  -6   6   2 99.9617 5.53504   3
   5  -6  -2 124.682 5.96950   2
   5  -6  -2 123.706 6.31309   1
  -5   6   2 123.564 5.94616   2
  -5   6   2 131.337 6.07214   3
  -5   6   2 118.979 6.04713   1
   4  -6  -2 157.719 6.78656   1
   4  -6  -2 170.101 6.68103   2
  -4   6   2 162.840 6.38089   2
  -4   6   2 153.139 6.45719   3
  -4   6   2 164.842 6.85931   1
   3  -6  -2 345.449 10.3415   1
   3  -6  -2 351.882 10.0577   2
   3  -6  -2 348.857 9.99424   3
  -3   6   2 340.102 9.98069   3
  -3   6   2 354.134 10.5151   1
  -3   6   2 336.488 9.68717   2
   2  -6  -2 88.4429 4.88420   3
   2  -6  -2 88.5978 5.05615   2
   2  -6  -2 92.5809 5.13004   1
  -2   6   2 82.6558 4.74174   3
  -2   6   2 99.4641 5.33285   1
   1  -6  -2 64.8393 4.34668   3
   1  -6  -2 65.6068 4.69741   2
   1  -6  -2 62.6469 4.39300   1
  -1   6   2 61.4359 4.58366   1
  -1   6   2 59.7779 5.07344   3
   0  -6  -2 16.4798 3.01512   1
   0  -6  -2 13.5975 2.60811   3
   0  -6  -2 12.7053 2.86209   2
   0   6   2 13.6163 2.65707   3
  -1  -6  -2 109.644 6.32493   1
  -1  -6  -2 110.042 6.06441   3
  -1  -6  -2 111.086 6.73858   2
   1   6   2 105.881 6.45761   1
   1   6   2 105.473 6.26525   3
  -2  -6  -2 270.542 10.0135   3
  -2  -6  -2 267.338 10.2720   1
  -2  -6  -2 277.400 10.9963   2
   2   6   2 275.746 10.6157   3
   2   6   2 263.542 10.9208   1
  -3  -6  -2 120.204 10.4000   2
  -3  -6  -2 116.404 7.39432   1
  -3  -6  -2 118.414 7.17882   3
   3   6   2 105.416 7.38206   3
   3   6   2 109.246 7.68728   1
  -4  -6  -2 4.93445 2.89396   3
   4   6   2 2.96220 2.75670   1
   4   6   2 2.95452 2.63590   3
  10  -7  -2 6.33271 2.96733   1
 -10   7   2 6.29476 2.82892   3
 -10   7   2 6.33093 3.20692   1
   9  -7  -2 18.1611 4.00438   1
  -9   7   2 21.5057 4.17572   1
  -9   7   2 18.4916 3.83538   3
   8  -7  -2 38.7946 5.08668   1
  -8   7   2 47.0985 5.44021   1
  -8   7   2 43.6816 5.20374   3
   7  -7  -2 8.17453 2.76440   1
  -7   7   2 1.29684 2.11344   1
  -7   7   2 5.09100 1.97672   3
   6  -7  -2 4.32231 2.05743   2
   6  -7  -2 -0.5804 1.70668   1
  -6   7   2 2.40849 1.89772   1
  -6   7   2 2.52428 1.91119   3
   5  -7  -2 1.95622 1.93414   1
   5  -7  -2 2.88854 1.81487   2
  -5   7   2 5.91110 2.08680   1
  -5   7   2 4.76193 1.90792   3
  -5   7   2 4.55899 2.12049   2
   4  -7  -2 228.325 8.44801   2
   4  -7  -2 231.376 8.38397   3
   4  -7  -2 238.897 8.91293   1
  -4   7   2 227.608 8.30601   2
  -4   7   2 232.097 8.92120   1
  -4   7   2 235.459 8.62668   3
   3  -7  -2 375.215 11.3494   2
   3  -7  -2 364.376 10.9290   3
   3  -7  -2 370.481 11.3332   1
  -3   7   2 377.169 11.2883   3
  -3   7   2 363.121 11.4924   1
   2  -7  -2 0.65684 1.62511   3
   2  -7  -2 -1.0375 1.67412   2
   2  -7  -2 1.11184 1.84835   1
  -2   7   2 -0.6644 1.43783   1
  -2   7   2 0.81102 1.43744   3
   1  -7  -2 398.207 12.2024   2
   1  -7  -2 416.082 12.2477   1
   1  -7  -2 395.582 11.6936   3
  -1   7   2 386.548 12.0342   3
  -1   7   2 390.202 12.4578   1
   0  -7  -2 211.047 8.77451   1
   0  -7  -2 225.049 9.29263   2
   0  -7  -2 228.861 8.63876   3
   0   7   2 202.692 8.72947   3
   0   7   2 226.118 9.55602   1
  -1  -7  -2 211.384 8.74386   3
  -1  -7  -2 206.708 8.95717   1
  -1  -7  -2 217.262 9.82255   2
   1   7   2 202.486 9.24018   3
   1   7   2 226.976 9.82581   1
  -2  -7  -2 174.889 8.27726   3
  -2  -7  -2 172.990 9.65512   2
  -2  -7  -2 186.885 8.97762   1
   2   7   2 171.413 8.92402   3
   2   7   2 194.686 9.86131   1
  -3  -7  -2 -2.3239 1.94733   3
   3   7   2 -0.6438 1.94229   3
   3   7   2 -0.5565 2.12019   1
  10  -8  -2 150.527 9.31235   1
 -10   8   2 135.320 8.56839   3
 -10   8   2 153.515 9.49232   1
   9  -8  -2 154.551 9.01443   1
  -9   8   2 150.607 8.83057   1
  -9   8   2 172.688 8.87801   3
   8  -8  -2 24.0301 4.48868   1
  -8   8   2 26.1613 4.30878   3
  -8   8   2 30.4239 4.57341   1
   7  -8  -2 -1.9136 1.71688   1
  -7   8   2 1.61622 1.95235   3
  -7   8   2 2.18821 1.94659   1
   6  -8  -2 53.2948 5.40498   1
   6  -8  -2 51.5859 5.06803   2
  -6   8   2 54.9555 5.35184   3
  -6   8   2 62.2368 6.02490   1
   5  -8  -2 213.248 8.47024   3
   5  -8  -2 214.210 8.89771   2
   5  -8  -2 224.934 9.13705   1
  -5   8   2 218.140 9.28126   1
  -5   8   2 219.572 8.97238   3
   4  -8  -2 252.207 9.53343   2
   4  -8  -2 259.654 9.21318   3
   4  -8  -2 266.971 9.70451   1
  -4   8   2 242.270 9.37324   3
  -4   8   2 246.943 9.86557   1
   3  -8  -2 160.178 7.55252   1
   3  -8  -2 167.037 7.94094   2
   3  -8  -2 142.203 7.03496   3
  -3   8   2 152.155 7.46081   3
  -3   8   2 167.962 8.01367   1
   2  -8  -2 145.492 7.23365   1
   2  -8  -2 130.783 7.28542   2
   2  -8  -2 148.162 7.01413   3
  -2   8   2 148.241 7.69692   1
  -2   8   2 118.465 6.72148   3
   1  -8  -2 2.12532 2.02648   3
   1  -8  -2 -0.5684 1.86137   1
   1  -8  -2 -1.7246 2.19126   2
  -1   8   2 -0.7003 1.49895   3
  -1   8   2 3.07855 2.12603   1
   0  -8  -2 4.89038 2.54827   3
   0  -8  -2 11.3253 3.45555   2
   0  -8  -2 6.80479 2.63742   1
   0   8   2 8.24048 2.69067   1
   0   8   2 14.2959 3.30330   3
  -1  -8  -2 77.1824 5.73835   3
  -1  -8  -2 72.5932 6.98078   2
   1   8   2 71.0451 6.91591   3
   1   8   2 85.4387 6.79955   1
  -2  -8  -2 24.3796 4.09117   3
   2   8   2 20.1875 4.14701   3
   2   8   2 22.4646 4.34081   1
  10  -9  -2 64.0466 7.84209   1
 -10   9   2 50.0918 6.33399   3
 -10   9   2 59.6778 7.17132   1
   9  -9  -2 12.3267 3.58528   1
  -9   9   2 9.59537 3.18865   1
  -9   9   2 12.6175 3.63350   3
   8  -9  -2 1.83496 2.48001   1
  -8   9   2 -0.5774 1.77819   3
  -8   9   2 3.71003 2.43085   1
   7  -9  -2 80.5252 7.38221   1
  -7   9   2 78.2665 6.07959   3
  -7   9   2 65.2436 6.77368   1
   6  -9  -2 2.49035 2.32948   2
   6  -9  -2 2.53531 1.95730   3
   6  -9  -2 -0.7375 1.70231   1
  -6   9   2 1.66779 2.28771   1
  -6   9   2 1.95150 1.98062   3
   5  -9  -2 25.9783 3.73268   3
   5  -9  -2 35.6496 4.70791   1
   5  -9  -2 30.8321 4.23269   2
  -5   9   2 43.6088 5.31161   3
  -5   9   2 32.8860 4.67828   1
   4  -9  -2 1.86410 2.25945   2
   4  -9  -2 0.62384 1.76743   3
   4  -9  -2 1.53679 1.93754   1
  -4   9   2 2.20299 1.86521   1
  -4   9   2 3.16992 2.00873   3
   3  -9  -2 15.8664 3.39107   1
   3  -9  -2 21.2514 3.57024   3
   3  -9  -2 17.7925 3.59511   2
  -3   9   2 16.4030 3.45113   1
  -3   9   2 16.5210 3.26921   3
   2  -9  -2 9.16953 3.31197   2
   2  -9  -2 9.15012 2.59897   3
   2  -9  -2 10.1781 2.91606   1
  -2   9   2 12.1949 3.30472   1
  -2   9   2 9.58781 2.86397   3
   1  -9  -2 72.0645 6.66621   2
   1  -9  -2 69.0544 6.43865   1
   1  -9  -2 73.8831 6.35582   3
  -1   9   2 59.6468 6.22514   1
  -1   9   2 76.2841 7.03294   3
   0  -9  -2 50.4503 6.12993   2
   0  -9  -2 45.6236 5.26481   3
   0   9   2 56.1638 6.25639   3
   0   9   2 60.5727 6.79161   1
  -1  -9  -2 8.27549 3.09284   3
   1   9   2 9.26544 3.32878   1
   1   9   2 13.1850 4.01407   3
   9 -10  -2 19.1580 4.47684   1
  -9  10   2 18.3799 4.27149   3
  -9  10   2 14.8812 3.86858   1
   8 -10  -2 26.7673 4.91126   1
  -8  10   2 26.7230 4.49171   3
  -8  10   2 21.2550 4.27007   1
   7 -10  -2 155.245 8.59078   1
   7 -10  -2 153.136 7.99154   3
  -7  10   2 146.658 8.47924   3
  -7  10   2 142.818 8.64315   1
   6 -10  -2 28.2884 4.61415   1
   6 -10  -2 26.4684 4.08422   3
  -6  10   2 39.8607 5.42906   1
  -6  10   2 25.6733 4.42083   3
   5 -10  -2 79.8156 5.99484   3
   5 -10  -2 86.9269 6.35225   1
   5 -10  -2 90.4471 7.79857   2
  -5  10   2 97.9962 6.69968   3
  -5  10   2 91.2357 6.90963   1
   4 -10  -2 94.0009 6.72657   1
   4 -10  -2 92.3853 6.09386   3
   4 -10  -2 84.3920 7.41292   2
  -4  10   2 87.1052 6.79635   1
  -4  10   2 92.1480 6.66979   3
   3 -10  -2 127.125 7.09558   3
   3 -10  -2 140.642 7.89130   1
   3 -10  -2 139.231 8.25943   2
  -3  10   2 129.437 7.74953   3
  -3  10   2 146.204 8.49255   1
   2 -10  -2 27.5006 4.56641   2
   2 -10  -2 25.9655 4.18068   3
  -2  10   2 35.9533 5.13651   1
  -2  10   2 40.1321 5.35511   3
   1 -10  -2 14.5359 3.62114   3
  -1  10   2 10.3751 3.14656   1
  -1  10   2 12.3903 3.50256   3
   0 -10  -2 0.58495 2.30264   3
   0  10   2 -1.8916 2.13168   3
   0  10   2 4.60647 2.87062   1
   8 -11  -2 25.0821 5.08703   1
   8 -11  -2 21.1599 3.98692   3
  -8  11   2 19.7323 4.46329   3
  -8  11   2 22.4077 4.47411   1
   7 -11  -2 28.7190 4.49630   3
   7 -11  -2 30.0359 5.24650   1
  -7  11   2 21.2793 4.46343   1
  -7  11   2 28.2129 4.94526   3
   6 -11  -2 23.9968 4.31217   3
  -6  11   2 31.0026 5.20500   1
  -6  11   2 32.6141 5.43455   3
   5 -11  -2 171.411 8.56422   3
  -5  11   2 173.963 9.50548   3
  -5  11   2 174.656 9.75125   1
   4 -11  -2 176.719 8.76885   3
  -4  11   2 190.392 10.2055   1
  -4  11   2 214.350 10.2250   3
   3 -11  -2 60.7498 6.04665   3
  -3  11   2 58.8704 6.69071   3
  -3  11   2 56.6574 6.80332   1
   2 -11  -2 0.94171 2.30643   3
  -2  11   2 2.95507 2.51700   1
  -2  11   2 0.95898 2.09314   3
   1 -11  -2 10.0408 3.28442   3
  -1  11   2 8.26793 3.36304   3
  -1  11   2 8.36693 3.47808   1
   7 -12  -2 62.2123 6.55129   3
  -7  12   2 59.9059 7.34709   1
  -7  12   2 50.3695 7.02822   3
   6 -12  -2 10.3183 3.39237   3
  -6  12   2 6.09750 2.89611   1
  -6  12   2 17.4220 4.11683   3
   5 -12  -2 20.0316 4.01651   3
  -5  12   2 19.0906 4.15015   3
  -5  12   2 16.6040 4.33898   1
   4 -12  -2 62.9076 6.27804   3
  -4  12   2 70.8079 7.80696   1
  -4  12   2 73.2306 7.68477   3
  -1  12  -3 83.3577 7.78888   1
   1 -12   3 74.0108 7.08538   2
  -2  12  -3 6.85978 2.70515   1
   2 -12   3 10.6802 3.39681   2
  -3  12  -3 3.18572 2.34767   1
   3 -12   3 6.61932 2.99177   2
  -4  12  -3 0.66973 1.91422   1
   4 -12   3 2.69483 2.49826   2
  -5  12  -3 8.23803 2.95206   1
   5 -12   3 2.04432 2.81607   2
  -6  12  -3 75.9345 7.88067   1
   6 -12   3 96.2096 8.45716   2
   1  11  -3 31.8793 4.95322   1
  -1 -11   3 37.4679 5.55504   2
   0  11  -3 147.685 8.35398   1
   0 -11   3 151.980 8.46376   2
  -1  11  -3 15.7605 3.37652   1
   1 -11   3 18.1369 3.86688   2
  -2  11  -3 19.3941 3.63127   1
   2 -11   3 18.6352 3.68843   2
  -3  11  -3 33.2773 4.51293   1
   3 -11   3 33.3653 4.60505   2
  -4  11  -3 44.6850 5.34888   1
   4 -11   3 53.4403 5.83300   2
  -5  11  -3 4.28430 2.37647   3
  -5  11  -3 -0.4104 2.00272   1
   5 -11   3 -0.0899 2.04102   2
  -6  11  -3 36.3032 5.21898   1
  -6  11  -3 35.9425 5.14694   3
   6 -11   3 57.1548 6.19075   2
  -7  11  -3 4.25828 2.52019   1
  -7  11  -3 5.96016 3.15202   3
   7 -11   3 2.82078 2.74746   2
   2  10  -3 10.1340 3.18379   1
  -2 -10   3 10.9481 3.73514   2
   1  10  -3 36.3414 4.95251   1
  -1 -10   3 39.1695 5.02733   2
   0  10  -3 31.2112 4.30283   1
   0 -10   3 31.2704 4.24178   2
  -1  10  -3 0.72295 1.62638   1
   1 -10   3 -0.6753 1.82978   2
  -2  10  -3 10.7677 2.73361   1
   2 -10   3 12.3250 3.00551   2
  -3  10  -3 97.6264 6.23878   1
  -3  10  -3 103.061 6.17589   3
   3 -10   3 102.830 6.57332   2
  -4  10  -3 296.020 10.7740   3
  -4  10  -3 275.601 10.9186   1
   4 -10   3 284.865 10.7341   2
  -5  10  -3 24.6493 4.23546   3
  -5  10  -3 19.3921 3.68134   1
   5 -10   3 24.5497 4.10847   2
  -6  10  -3 28.0083 4.43582   3
  -6  10  -3 20.3929 3.96194   1
   6 -10   3 26.3387 4.29144   2
  -7  10  -3 68.5508 6.93228   1
  -7  10  -3 88.5323 6.81536   3
   7 -10   3 83.9295 7.59381   2
  -8  10  -3 10.8931 3.43327   3
  -8  10  -3 16.9472 3.99270   1
   3   9  -3 40.6497 5.17100   1
  -3  -9   3 31.3477 4.97586   2
   2   9  -3 208.052 9.37346   1
  -2  -9   3 218.041 9.55390   2
   1   9  -3 30.9815 4.21491   1
  -1  -9   3 34.4846 4.25640   2
   0   9  -3 77.6969 5.28817   1
   0  -9   3 90.7250 5.95934   2
   0  -9   3 87.4754 6.54093   2
  -1   9  -3 38.8218 4.57255   3
  -1   9  -3 29.2246 3.59221   1
   1  -9   3 31.4771 3.63719   2
   1  -9   3 42.2033 4.32981   2
  -2   9  -3 1.53798 1.51461   1
  -2   9  -3 0.66998 1.48224   3
   2  -9   3 0.90669 1.45022   2
   2  -9   3 -1.6145 1.67552   2
  -3   9  -3 63.7256 4.59628   3
  -3   9  -3 79.4346 5.29699   1
   3  -9   3 75.4214 5.15722   2
  -4   9  -3 9.07725 2.45911   3
  -4   9  -3 9.91680 2.59300   1
   4  -9   3 13.1942 2.88373   2
  -5   9  -3 125.109 6.85765   3
  -5   9  -3 130.304 7.25875   1
   5  -9   3 139.406 7.30203   2
  -6   9  -3 -1.4754 1.72173   3
  -6   9  -3 2.11721 1.94212   1
   6  -9   3 0.38115 1.80694   2
  -7   9  -3 172.588 9.30704   3
  -7   9  -3 181.032 9.55792   1
   7  -9   3 184.808 9.36937   2
  -8   9  -3 12.9060 3.53764   1
  -8   9  -3 6.40926 2.96201   3
   4   8  -3 23.5168 4.09899   1
  -4  -8   3 23.7393 4.62356   2
   3   8  -3 121.653 6.91983   1
  -3  -8   3 102.160 7.05818   2
   2   8  -3 3.71166 2.01659   1
  -2  -8   3 3.28119 2.39244   2
   1   8  -3 0.78253 1.41798   1
  -1  -8   3 2.18596 1.89607   2
  -1  -8   3 0.08728 1.80939   2
   0   8  -3 18.8749 2.83292   3
   0   8  -3 14.9052 2.61643   1
   0  -8   3 21.0004 2.96458   2
   0  -8   3 23.4532 3.25686   2
  -1   8  -3 51.8741 3.74487   3
  -1   8  -3 56.0438 4.08534   1
   1  -8   3 62.4977 4.48314   2
   1  -8   3 60.0372 4.25509   2
  -2   8  -3 22.5181 3.03667   3
  -2   8  -3 20.3770 2.94062   1
   2  -8   3 23.5331 2.92260   2
   2  -8   3 22.8288 3.14376   2
  -3   8  -3 15.2746 2.75997   1
  -3   8  -3 11.6575 2.40249   3
   3  -8   3 13.5230 2.62085   2
   3  -8   3 12.9397 2.50643   2
  -4   8  -3 50.8531 4.89886   3
  -4   8  -3 51.0287 4.98499   1
   4  -8   3 46.7291 5.19373   2
   4  -8   3 44.9423 4.50129   2
  -5   8  -3 72.1862 5.27340   1
  -5   8  -3 71.4336 5.09895   3
   5  -8   3 79.1902 5.51132   2
  -6   8  -3 178.011 8.27565   3
   6  -8   3 164.132 8.05429   2
  -7   8  -3 106.668 7.39063   1
  -7   8  -3 130.142 7.62268   3
   7  -8   3 122.286 7.46373   2
  -8   8  -3 0.00378 1.92844   1
  -8   8  -3 0.27143 2.15948   3
   5   7  -3 5.18796 2.92714   1
  -5  -7   3 0.83952 2.97094   2
   4   7  -3 56.3291 5.67317   1
  -4  -7   3 59.6839 5.97642   2
   3   7  -3 18.2535 3.16759   1
  -3  -7   3 18.2899 3.41235   2
   2   7  -3 362.106 10.7887   3
   2   7  -3 412.033 11.7190   1
  -2  -7   3 403.343 11.2093   2
  -2  -7   3 399.170 11.3190   2
   1   7  -3 303.575 9.19531   1
   1   7  -3 297.666 8.73070   3
  -1  -7   3 302.238 9.13169   2
   0   7  -3 12.7714 2.06088   3
   0   7  -3 9.92424 2.01330   1
   0  -7   3 15.1520 2.30939   2
  -1   7  -3 233.055 7.15046   3
  -1   7  -3 237.268 7.53379   1
   1  -7   3 234.817 7.25115   2
   1  -7   3 242.662 7.38242   2
  -2   7  -3 210.619 6.87054   3
  -2   7  -3 199.155 7.01967   1
   2  -7   3 200.210 6.86375   2
   2  -7   3 207.515 6.82840   2
  -3   7  -3 14.7236 2.55973   1
  -3   7  -3 16.4636 2.66893   3
   3  -7   3 19.5549 2.76874   2
   3  -7   3 13.5963 2.19478   2
  -4   7  -3 188.038 7.65829   1
  -4   7  -3 204.303 7.52050   3
   4  -7   3 194.750 7.45682   2
   4  -7   3 185.981 7.36102   2
   4  -7   3 196.837 6.69937   1
  -5   7  -3 329.419 10.6287   3
  -5   7  -3 300.502 10.6285   1
   5  -7   3 305.715 10.3229   2
   5  -7   3 312.982 9.73324   1
  -6   7  -3 60.3155 5.87838   1
  -6   7  -3 66.8999 5.20144   3
   6  -7   3 67.5564 5.03589   1
   6  -7   3 69.5144 5.32814   2
  -7   7  -3 23.9048 4.09780   3
  -7   7  -3 37.7679 5.15322   1
   7  -7   3 36.1135 4.76217   2
   7  -7   3 37.0649 4.84745   1
  -8   7  -3 18.0041 3.93315   3
  -8   7  -3 19.2974 3.99992   1
   6   6  -3 15.0174 3.66659   1
  -6  -6   3 18.6507 4.61575   2
   5   6  -3 1.18772 2.07895   1
  -5  -6   3 -0.6244 2.72599   2
   4   6  -3 21.8582 3.84069   3
   4   6  -3 22.7315 3.41074   1
  -4  -6   3 20.0639 3.68276   2
   3   6  -3 25.3386 3.16242   3
   3   6  -3 27.3084 3.46797   1
  -3  -6   3 19.0558 2.93013   2
  -3  -6   3 20.8202 3.16552   2
   2   6  -3 457.422 11.6486   1
   2   6  -3 456.138 11.1975   3
  -2  -6   3 440.602 11.3353   2
  -2  -6   3 435.595 11.1820   2
   1   6  -3 464.909 10.7984   3
   1   6  -3 470.429 11.2111   1
   0   6  -3 138.678 4.95970   1
  -1   6  -3 410.588 9.68874   3
  -1   6  -3 415.131 9.96764   1
  -2   6  -3 57.7285 3.20363   3
  -2   6  -3 59.5532 3.48396   1
   2  -6   3 57.4859 3.37592   2
   2  -6   3 58.7397 3.42248   2
  -3   6  -3 439.355 11.2410   3
  -3   6  -3 453.287 11.6239   1
   3  -6   3 439.835 11.1375   2
   3  -6   3 432.180 11.1738   2
   3  -6   3 449.566 10.4385   1
  -4   6  -3 351.352 10.8206   1
  -4   6  -3 348.284 10.4597   3
   4  -6   3 354.815 10.4167   2
   4  -6   3 378.546 10.6250   2
   4  -6   3 376.738 9.97400   1
  -5   6  -3 234.313 9.17230   1
  -5   6  -3 246.792 9.07188   3
   5  -6   3 232.279 8.20089   1
   5  -6   3 246.356 8.91254   2
  -6   6  -3 39.9234 4.83763   3
  -6   6  -3 41.2096 4.73694   1
   6  -6   3 47.7930 4.95632   1
   6  -6   3 50.6076 5.18167   2
  -7   6  -3 22.1839 3.93534   1
  -7   6  -3 26.8904 4.30312   3
   7  -6   3 28.6383 4.25850   1
   7  -6   3 20.3289 3.74313   2
  -8   6  -3 74.8740 7.31702   3
   8  -6   3 91.9019 6.88126   1
   7   5  -3 23.1943 4.61650   1
  -7  -5   3 22.8396 4.88648   2
   6   5  -3 249.881 11.0046   1
   6   5  -3 258.560 11.1783   1
  -6  -5   3 248.753 10.8778   2
   5   5  -3 49.5058 5.10068   1
   5   5  -3 59.3280 5.64274   3
  -5  -5   3 46.9021 5.20000   2
   4   5  -3 59.9970 4.91017   3
   4   5  -3 58.6948 5.12001   1
  -4  -5   3 47.4219 4.40500   2
  -4  -5   3 48.0943 4.53824   2
   3   5  -3 29.9931 3.05606   3
   3   5  -3 39.1322 3.63134   1
  -3  -5   3 28.4281 3.09661   2
   2   5  -3 256.884 7.34863   1
   1   5  -3 107.983 3.91385   1
   0   5  -3 96.3686 3.45486   1
   0   5  -3 91.9415 3.37176   1
  -1   5  -3 30.8730 2.17360   1
  -2   5  -3 308.411 8.13923   1
  -2   5  -3 301.244 7.77438   3
   2  -5   3 305.197 7.77574   2
   2  -5   3 290.695 7.66755   2
  -3   5  -3 68.6290 3.76412   3
  -3   5  -3 69.7562 3.95821   1
   3  -5   3 62.0892 3.71317   2
   3  -5   3 68.0116 3.82803   2
   3  -5   3 70.5073 3.52108   1
  -4   5  -3 260.223 8.90569   1
  -4   5  -3 259.015 8.53041   3
   4  -5   3 272.072 8.26697   1
   4  -5   3 279.178 8.63734   2
   4  -5   3 267.421 8.56186   2
  -5   5  -3 93.1831 5.68301   1
  -5   5  -3 87.6083 5.33900   3
   5  -5   3 89.8570 5.16027   1
   5  -5   3 95.1529 5.48806   2
  -6   5  -3 2.31433 1.99459   1
  -6   5  -3 -0.4702 1.46554   3
   6  -5   3 0.74461 1.69693   2
   6  -5   3 2.00415 1.76664   1
  -7   5  -3 2.48637 2.19951   3
  -7   5  -3 -1.1240 1.77369   1
   7  -5   3 5.33113 2.21969   3
   7  -5   3 4.66760 2.17205   1
  -8   5  -3 115.264 7.89452   3
  -8   5  -3 112.718 8.04624   1
   8  -5   3 111.533 7.49444   1
   8  -5   3 96.9252 6.91308   3
   7   4  -3 4.60144 2.97380   1
   7   4  -3 11.5067 3.59200   3
  -7  -4   3 4.98337 3.41258   2
   6   4  -3 88.2540 6.42543   1
   6   4  -3 91.3526 6.37968   3
   6   4  -3 86.5028 6.47349   1
  -6  -4   3 79.4932 6.66466   2
   5   4  -3 63.7516 5.37757   3
   5   4  -3 66.0264 5.16028   1
  -5  -4   3 66.9575 5.39063   2
  -5  -4   3 63.5168 4.92204   2
   4   4  -3 32.8822 3.57312   1
   4   4  -3 30.6441 3.30064   3
  -4  -4   3 24.6886 3.01274   2
  -4  -4   3 32.2300 3.54032   2
   3   4  -3 204.398 6.09638   3
   3   4  -3 203.044 6.44377   1
   2   4  -3 170.860 5.11758   1
   2   4  -3 171.960 5.58130   1
  -1   4  -3 574.328 11.5717   1
  -2   4  -3 571.277 12.0920   3
  -2   4  -3 540.133 12.2493   1
   2  -4   3 562.717 11.9995   2
   2  -4   3 567.000 12.1007   2
   2  -4   3 585.992 14.5387   4
  -3   4  -3 271.871 8.21132   1
  -3   4  -3 266.901 7.90470   3
   3  -4   3 282.997 8.00569   2
   3  -4   3 273.422 7.93239   2
   3  -4   3 274.851 7.68400   1
   3  -4   3 277.981 8.61285   4
  -4   4  -3 6.45150 1.93889   1
  -4   4  -3 14.4128 2.39067   3
   4  -4   3 11.4761 2.13751   3
   4  -4   3 10.7034 2.04455   1
   4  -4   3 14.7131 2.43795   2
   4  -4   3 13.7453 2.16764   4
  -5   4  -3 370.100 11.4592   3
  -5   4  -3 359.108 11.7828   1
   5  -4   3 375.123 11.3089   2
   5  -4   3 369.176 10.7551   3
   5  -4   3 363.378 11.0132   1
  -6   4  -3 88.2860 6.06840   3
  -6   4  -3 97.3421 6.56567   1
   6  -4   3 75.3467 5.50525   1
   6  -4   3 83.8606 5.73617   2
   6  -4   3 94.2800 5.60544   3
  -7   4  -3 2.85498 2.44135   1
  -7   4  -3 4.87885 2.80184   3
   7  -4   3 6.58732 2.44994   3
   7  -4   3 5.87424 2.59803   1
  -8   4  -3 3.69290 2.74106   1
  -8   4  -3 -2.8984 1.80080   3
   8  -4   3 2.53509 2.52755   1
   8  -4   3 1.61665 2.11569   3
   8   3  -3 23.4409 4.81383   1
   8   3  -3 25.4379 4.74997   3
  -8  -3   3 20.0802 4.77452   2
   7   3  -3 0.13063 2.32557   3
   7   3  -3 1.22233 2.12341   1
  -7  -3   3 -0.5403 2.87319   2
   6   3  -3 165.912 8.10789   1
   6   3  -3 152.878 7.53569   3
  -6  -3   3 162.817 8.00255   2
   5   3  -3 2.07289 1.78966   3
   5   3  -3 -0.1653 1.44623   1
  -5  -3   3 -0.1834 1.80371   2
  -5  -3   3 0.09763 2.07934   2
   4   3  -3 515.905 12.7678   1
   4   3  -3 520.968 12.1514   3
  -4  -3   3 525.315 12.3891   2
  -4  -3   3 511.230 12.1988   2
   3   3  -3 195.356 5.84066   1
  -1  -3   3 5.51423 2.03771   4
   0  -3   3 43.4005 4.47929   4
  -1   3  -3 439.809 9.36314   1
   1  -3   3 463.094 12.2569   4
  -2   3  -3 1.01846 1.03264   1
  -2   3  -3 2.77484 1.05452   3
   2  -3   3 2.45898 1.00712   1
   2  -3   3 2.42080 1.11103   2
   2  -3   3 1.19383 1.10092   2
   2  -3   3 0.52178 1.18292   4
  -3   3  -3 779.984 16.4850   3
  -3   3  -3 743.870 16.7599   1
   3  -3   3 750.149 16.1234   1
   3  -3   3 761.274 16.3245   2
   3  -3   3 775.421 16.7825   4
   3  -3   3 761.838 15.7489   3
   3  -3   3 755.315 16.4071   2
  -4   3  -3 179.827 6.96201   3
  -4   3  -3 178.346 7.13886   1
   4  -3   3 175.980 5.98101   4
   4  -3   3 171.233 6.81022   2
   4  -3   3 172.476 6.67985   1
   4  -3   3 159.008 6.30857   3
  -5   3  -3 4.61328 2.07707   3
  -5   3  -3 7.55826 2.40545   1
   5  -3   3 7.02510 2.23501   3
   5  -3   3 3.96216 1.93609   2
   5  -3   3 3.04417 1.26492   4
   5  -3   3 4.38872 2.07116   1
  -6   3  -3 12.5309 3.11759   1
  -6   3  -3 14.2614 3.26183   3
   6  -3   3 11.6706 2.95411   2
   6  -3   3 12.8463 3.01919   3
   6  -3   3 13.4267 3.02362   1
  -7   3  -3 14.0955 3.63545   1
  -7   3  -3 11.2367 3.29786   3
   7  -3   3 15.5793 3.56396   1
   7  -3   3 15.7529 3.55346   3
  -8   3  -3 51.2490 6.69741   1
  -8   3  -3 40.1099 5.54235   3
   8  -3   3 25.8344 4.73880   3
   8  -3   3 43.9436 6.26227   1
   9   2  -3 47.2671 6.38944   3
   9   2  -3 60.1995 7.57373   1
  -9  -2   3 47.4702 6.58316   2
   8   2  -3 64.1851 6.70952   3
   8   2  -3 76.2706 8.00358   1
  -8  -2   3 67.8953 7.09191   2
   7   2  -3 1.09402 1.99753   1
   7   2  -3 -2.7201 1.79994   3
  -7  -2   3 3.03063 2.81318   2
   6   2  -3 158.850 7.53161   1
   6   2  -3 158.855 7.28320   3
  -6  -2   3 145.193 7.56998   1
  -6  -2   3 145.617 7.35562   2
  -6  -2   3 133.605 6.81199   2
   5   2  -3 169.332 6.97636   1
   5   2  -3 168.580 6.60014   3
  -5  -2   3 162.430 6.77226   2
  -5  -2   3 171.610 6.54620   2
   4   2  -3 2.53030 1.36180   1
   4   2  -3 3.28898 1.36971   3
  -4  -2   3 5.10356 1.58564   2
  -4  -2   3 4.04842 1.63233   2
   3   2  -3 212.823 5.69448   1
  -2  -2   3 86.4680 5.14821   4
  -1  -2   3 158.401 6.62212   4
   0  -2   3 32.6220 3.40925   4
  -1   2  -3 66.0010 2.73494   3
  -1   2  -3 73.1786 2.95249   1
   1  -2   3 67.8210 2.78641   2
   1  -2   3 69.8328 2.51245   1
   1  -2   3 66.0288 3.93492   4
  -2   2  -3 1332.02 24.6394   3
  -2   2  -3 1313.70 25.0124   1
   2  -2   3 1310.37 24.5613   2
   2  -2   3 1290.14 24.4153   1
   2  -2   3 1307.74 25.7959   4
   2  -2   3 1311.93 24.5734   2
   2  -2   3 1337.59 24.1634   3
  -3   2  -3 0.44119 1.18651   1
  -3   2  -3 -1.2804 0.99331   3
   3  -2   3 0.57328 1.09067   1
   3  -2   3 1.90630 1.25910   4
   3  -2   3 0.22995 1.13573   3
   3  -2   3 -0.3449 1.17828   2
  -4   2  -3 18.7358 2.90015   1
  -4   2  -3 17.1241 2.84307   3
   4  -2   3 18.8328 2.79041   2
   4  -2   3 25.5017 3.38676   1
   4  -2   3 22.2542 3.13357   3
   4  -2   3 27.4659 3.12059   4
  -5   2  -3 107.930 6.16111   3
  -5   2  -3 111.204 6.40104   1
   5  -2   3 96.2975 4.75162   4
   5  -2   3 119.354 6.28664   3
   5  -2   3 113.025 6.23003   2
   5  -2   3 107.525 6.18254   1
  -6   2  -3 -0.6945 2.03639   1
  -6   2  -3 2.55592 1.99075   3
   6  -2   3 -1.2031 1.63020   1
   6  -2   3 0.45226 1.80235   3
  -7   2  -3 112.994 7.82498   1
  -7   2  -3 110.025 7.58462   3
   7  -2   3 118.193 7.79334   1
   7  -2   3 107.240 7.26073   3
  -8   2  -3 196.772 10.8075   1
  -8   2  -3 193.681 10.3237   3
   8  -2   3 190.288 10.0831   3
   8  -2   3 184.191 10.5758   1
   9   1  -3 4.70281 3.12036   1
   9   1  -3 0.03951 2.26626   3
  -9  -1   3 -0.3514 3.48693   2
   8   1  -3 114.070 7.83578   1
   8   1  -3 108.331 7.53207   3
  -8  -1   3 110.419 8.03709   2
   7   1  -3 56.6200 5.72863   1
   7   1  -3 66.0243 5.97404   3
  -7  -1   3 59.7804 5.65888   2
   6   1  -3 96.1914 5.77316   1
   6   1  -3 89.1486 5.50030   3
  -6  -1   3 94.9915 5.95423   2
  -6  -1   3 92.3792 4.63593   1
  -6  -1   3 90.9790 5.43511   2
   5   1  -3 7.68895 1.90513   3
   5   1  -3 6.23101 1.96304   1
  -5  -1   3 7.14412 1.90926   2
  -5  -1   3 9.39447 1.72144   1
  -5  -1   3 6.83055 2.20700   2
   4   1  -3 149.243 5.31547   1
   4   1  -3 151.784 5.02073   3
  -4  -1   3 148.523 5.19394   2
  -4  -1   3 153.505 5.08808   2
   3   1  -3 19.4380 1.82310   1
   3   1  -3 19.5606 1.84600   1
  -3  -1   3 15.1637 2.76315   4
  -2  -1   3 8.81598 2.14061   4
  -1  -1   3 216.489 7.32120   4
   0   1  -3 -0.3414 0.60325   1
   0   1  -3 1.25539 0.76555   1
   0  -1   3 2.71648 1.59297   4
  -1   1  -3 412.074 9.27390   1
  -1   1  -3 392.713 8.91129   3
   1  -1   3 412.780 8.98588   2
   1  -1   3 407.001 8.88662   1
   1  -1   3 410.959 8.67343   3
   1  -1   3 394.320 8.89992   2
   1  -1   3 411.392 10.6072   4
  -2   1  -3 2425.29 44.0569   1
  -2   1  -3 2431.59 43.6906   3
   2  -1   3 2542.36 43.7710   2
   2  -1   3 2449.46 44.8763   4
   2  -1   3 2505.37 43.8881   1
   2  -1   3 2463.14 43.3501   3
  -3   1  -3 4.91132 1.62154   3
  -3   1  -3 3.59443 1.49686   1
   3  -1   3 4.69467 1.59596   3
   3  -1   3 2.68221 1.50943   2
   3  -1   3 5.33329 1.61226   1
  -4   1  -3 -1.0741 1.36454   1
  -4   1  -3 -2.0623 1.37579   3
  -4   1  -3 2.12243 1.96464   2
   4  -1   3 -1.1156 1.45360   3
   4  -1   3 2.37065 1.65603   2
   4  -1   3 -0.5713 1.42974   1
  -5   1  -3 7.55936 2.50582   3
  -5   1  -3 6.26116 2.45709   1
   5  -1   3 9.05147 2.61369   3
   5  -1   3 4.83692 2.09571   2
   5  -1   3 4.48121 2.16019   1
  -6   1  -3 228.512 9.83994   3
  -6   1  -3 240.471 10.4022   1
   6  -1   3 202.554 9.55006   3
   6  -1   3 221.203 10.1308   1
  -7   1  -3 150.404 9.14540   1
  -7   1  -3 134.248 8.39569   3
   7  -1   3 144.825 8.69979   3
   7  -1   3 176.602 9.75246   1
  -8   1  -3 108.309 8.56223   1
  -8   1  -3 102.519 7.97232   3
   8  -1   3 99.1903 8.93803   3
   8  -1   3 113.627 10.0720   1
   9   0  -3 44.3748 6.25256   1
   9   0  -3 54.6520 6.55844   3
  -9   0   3 40.4927 4.37044   3
  -9   0   3 61.8724 7.03238   2
   8   0  -3 26.3538 4.55242   1
   8   0  -3 31.9014 4.77286   3
  -8   0   3 29.4689 4.58717   2
  -8   0   3 25.0927 3.36315   3
   7   0  -3 73.1408 5.56519   1
   7   0  -3 62.0955 5.69565   3
  -7   0   3 67.4324 4.27785   3
  -7   0   3 69.7361 4.68374   1
  -7   0   3 60.5826 5.69900   2
   6   0  -3 291.522 9.52160   3
   6   0  -3 294.382 9.90635   1
  -6   0   3 296.932 9.52704   2
  -6   0   3 298.887 8.24634   3
  -6   0   3 311.918 9.87101   2
  -6   0   3 304.159 8.71196   1
   5   0  -3 158.084 6.23694   1
   5   0  -3 169.082 6.13102   3
  -5   0   3 166.389 6.25970   2
  -5   0   3 167.932 5.49351   1
  -5   0   3 177.569 6.19370   2
   4   0  -3 1866.59 33.7069   1
   4   0  -3 1841.95 33.1338   3
  -4   0   3 1899.98 33.2448   2
  -4   0   3 1838.40 36.0501   4
  -4   0   3 1898.06 33.1500   2
  -4   0   3 1817.13 32.4134   1
   3   0  -3 427.136 8.94569   1
   3   0  -3 419.563 8.59736   3
  -3   0   3 395.292 10.9919   4
   2   0  -3 23.6805 1.52732   1
  -2   0   3 24.2306 2.90609   4
   1   0  -3 801.891 14.5124   1
  -1   0   3 816.899 17.5388   4
   0   0  -3 116.108 3.79772   1
   0   0  -3 117.044 3.68927   3
   0   0   3 118.707 3.71251   1
   0   0   3 111.231 3.43603   3
   0   0   3 109.933 3.56505   1
   0   0   3 112.551 3.64237   2
   0   0   3 110.375 3.65209   2
  -1   0  -3 151.516 5.16940   1
  -1   0  -3 153.819 4.98263   3
   1   0   3 151.724 4.87300   3
   1   0   3 157.071 5.10522   1
   1   0   3 147.773 4.95040   2
  -2   0  -3 389.442 10.3008   2
  -2   0  -3 398.577 10.3125   3
  -2   0  -3 403.322 10.6773   1
   2   0   3 419.411 10.3177   2
   2   0   3 422.374 10.6134   1
   2   0   3 401.985 10.2676   3
  -3   0  -3 77.4369 4.78560   2
  -3   0  -3 77.0817 4.76874   1
  -3   0  -3 77.7381 4.51311   3
   3   0   3 85.6575 4.74336   3
   3   0   3 78.8030 4.61472   2
   3   0   3 72.9909 4.58352   1
  -4   0  -3 64.4421 5.09520   1
  -4   0  -3 73.7303 5.06667   3
   4   0   3 71.2379 5.20881   1
   4   0   3 64.4533 5.40572   3
   4   0   3 64.8306 4.72656   2
  -5   0  -3 8.06235 2.86231   3
  -5   0  -3 12.6671 3.23892   1
   5   0   3 15.5973 3.38267   3
   5   0   3 17.0205 3.56321   1
  -6   0  -3 142.549 8.30533   1
  -6   0  -3 134.018 7.76485   3
   6   0   3 140.216 8.55184   1
   6   0   3 138.058 8.00102   3
  -7   0  -3 53.9869 6.32119   3
  -7   0  -3 50.6234 6.50303   1
   7   0   3 49.4616 6.52231   1
   7   0   3 47.2849 6.03869   3
  10  -1  -3 1.31484 2.49635   3
  10  -1  -3 1.37610 2.93099   1
 -10   1   3 1.06893 2.20981   3
   9  -1  -3 53.3041 6.57650   1
   9  -1  -3 37.7511 5.46772   3
  -9   1   3 44.7598 4.77847   3
  -9   1   3 50.2423 6.00370   2
   8  -1  -3 53.5403 5.87968   1
   8  -1  -3 58.8636 5.94573   3
  -8   1   3 58.4105 5.87955   2
  -8   1   3 58.2906 5.35745   1
  -8   1   3 45.9851 4.45943   3
   7  -1  -3 8.30732 2.68921   1
   7  -1  -3 7.28074 2.53915   3
  -7   1   3 7.62270 2.24248   1
  -7   1   3 7.68287 2.71777   2
  -7   1   3 6.72216 2.04588   3
   6  -1  -3 187.745 7.34310   3
   6  -1  -3 178.542 7.35255   1
  -6   1   3 181.356 7.19893   2
  -6   1   3 184.016 6.58109   1
  -6   1   3 176.478 6.27561   3
  -6   1   3 193.637 7.19697   2
   5  -1  -3 774.272 17.2122   1
   5  -1  -3 801.135 17.0024   3
  -5   1   3 785.733 16.2664   1
  -5   1   3 765.984 17.8014   4
  -5   1   3 806.855 16.8649   2
  -5   1   3 786.790 15.9579   3
  -5   1   3 801.629 16.7558   2
   4  -1  -3 12.9390 1.92629   3
   4  -1  -3 10.8761 1.77009   1
  -4   1   3 11.0056 2.21710   4
  -4   1   3 12.8547 1.50590   3
  -4   1   3 15.3240 1.82199   1
  -4   1   3 14.2030 1.94306   2
  -4   1   3 12.3693 1.78967   2
   3  -1  -3 460.017 10.0305   1
   3  -1  -3 473.932 9.87464   3
  -3   1   3 476.398 9.31310   3
  -3   1   3 458.308 9.61188   2
  -3   1   3 432.801 11.6479   4
  -3   1   3 472.442 9.80287   2
  -3   1   3 465.475 9.51536   1
   2  -1  -3 1532.69 27.4777   1
  -2   1   3 1559.77 26.7426   3
  -2   1   3 1561.06 27.1510   2
  -2   1   3 1595.41 30.2261   4
  -2   1   3 1549.94 27.0372   1
  -2   1   3 1557.16 27.1555   2
   1  -1  -3 57.5713 2.64730   3
   1  -1  -3 53.7529 2.67183   1
  -1   1   3 52.6846 2.42937   1
  -1   1   3 59.9272 2.70810   2
  -1   1   3 61.8222 2.74788   2
  -1   1   3 57.8972 2.48418   3
   0  -1  -3 975.262 18.7341   3
   0  -1  -3 976.956 19.0371   1
   0   1   3 988.838 18.6470   3
   0   1   3 998.217 18.9750   1
   0   1   3 975.427 18.6997   2
  -1  -1  -3 62.5406 3.61769   2
  -1  -1  -3 58.9784 3.40981   3
  -1  -1  -3 65.0864 3.69219   1
   1   1   3 70.2595 3.65284   2
   1   1   3 58.5741 3.49252   1
   1   1   3 64.1169 3.50008   3
  -2  -1  -3 72.6587 4.36167   2
  -2  -1  -3 61.9575 4.10127   1
  -2  -1  -3 67.7371 4.07787   3
   2   1   3 64.8916 4.10338   1
   2   1   3 60.7845 4.01063   3
   2   1   3 57.8180 3.94416   1
   2   1   3 65.5940 3.94859   2
  -3  -1  -3 1.12908 1.49300   1
  -3  -1  -3 -0.7213 1.81406   2
  -3  -1  -3 0.46679 1.48646   3
   3   1   3 -0.9931 1.37188   1
   3   1   3 2.27749 1.65437   2
   3   1   3 0.76452 1.71472   3
  -4  -1  -3 378.886 12.1535   2
  -4  -1  -3 382.738 12.0981   3
  -4  -1  -3 396.900 12.6452   1
   4   1   3 381.318 11.7485   2
   4   1   3 392.490 12.7081   1
   4   1   3 402.310 12.4641   3
  -5  -1  -3 114.361 7.12627   1
  -5  -1  -3 97.6375 6.45007   3
   5   1   3 91.7677 6.48944   3
   5   1   3 93.0089 6.76485   1
  -6  -1  -3 43.9129 5.87982   1
  -6  -1  -3 36.3622 5.11351   3
   6   1   3 43.3632 6.25563   1
   6   1   3 45.4226 5.67085   3
  -7  -1  -3 0.12603 2.23852   3
  -7  -1  -3 -1.4806 2.74813   1
   7   1   3 -2.0706 2.03467   3
   7   1   3 -2.1436 2.46611   1
  10  -2  -3 85.6328 8.48451   3
  10  -2  -3 63.6290 7.60101   1
 -10   2   3 79.2998 6.03329   3
   9  -2  -3 70.3786 7.19661   3
   9  -2  -3 53.9066 6.49849   1
  -9   2   3 59.3135 6.35884   2
  -9   2   3 65.2411 5.88999   3
   8  -2  -3 15.9133 3.39166   3
   8  -2  -3 17.9896 3.75874   1
  -8   2   3 10.2145 2.66029   1
  -8   2   3 10.8993 3.35902   2
  -8   2   3 13.8856 2.87708   3
   7  -2  -3 36.3285 4.39462   3
   7  -2  -3 37.3836 4.51578   1
  -7   2   3 50.5915 5.05620   2
  -7   2   3 39.3229 3.95790   3
  -7   2   3 43.8025 4.34170   1
   6  -2  -3 67.7926 4.54781   3
   6  -2  -3 71.2091 4.75235   1
  -6   2   3 69.4823 3.96652   3
  -6   2   3 58.2625 3.93337   4
  -6   2   3 71.7202 4.21574   1
  -6   2   3 65.5694 4.65795   2
   5  -2  -3 147.422 5.94159   1
   5  -2  -3 144.758 5.73839   3
  -5   2   3 136.044 5.81112   4
  -5   2   3 152.237 5.61247   2
  -5   2   3 145.682 5.13698   3
  -5   2   3 154.346 5.84998   2
  -5   2   3 152.248 5.49369   1
   4  -2  -3 413.010 9.81682   3
   4  -2  -3 403.958 10.0578   1
  -4   2   3 398.487 9.47053   1
  -4   2   3 374.517 10.6295   4
  -4   2   3 404.130 9.53064   2
  -4   2   3 402.641 9.70070   2
  -4   2   3 412.828 9.28524   3
   3  -2  -3 139.982 4.81078   1
  -3   2   3 140.096 4.64695   2
  -3   2   3 127.792 4.30330   3
  -3   2   3 131.656 4.45645   1
  -3   2   3 128.783 4.47951   2
   2  -2  -3 271.302 7.20822   1
  -2   2   3 279.949 6.86732   3
  -2   2   3 276.269 6.99255   2
  -2   2   3 285.765 7.08162   1
  -2   2   3 288.398 7.06987   2
  -2   2   3 288.252 7.08935   2
   1  -2  -3 318.077 7.77685   3
   1  -2  -3 314.746 8.08624   1
  -1   2   3 317.549 7.90526   1
  -1   2   3 303.058 7.58349   3
  -1   2   3 322.036 7.81450   2
   0  -2  -3 673.485 14.4394   3
   0  -2  -3 676.352 14.3020   2
   0  -2  -3 667.588 14.6775   1
   0   2   3 669.100 14.2586   3
   0   2   3 705.817 14.8034   1
   0   2   3 675.839 14.3135   2
  -1  -2  -3 42.3631 3.51209   2
  -1  -2  -3 33.7341 3.29965   1
  -1  -2  -3 35.0251 3.17926   3
   1   2   3 41.8584 3.21854   2
   1   2   3 41.4418 3.90082   1
   1   2   3 45.8454 3.70708   3
  -2  -2  -3 14.6165 2.71059   1
  -2  -2  -3 9.44699 2.33324   2
  -2  -2  -3 12.3386 2.38740   3
   2   2   3 8.51594 2.14016   3
   2   2   3 11.6091 2.58746   1
   2   2   3 13.8302 2.45349   2
  -3  -2  -3 257.546 9.23148   3
  -3  -2  -3 256.156 9.37957   2
  -3  -2  -3 242.607 9.21566   1
   3   2   3 265.554 9.39214   3
   3   2   3 243.288 8.82757   2
   3   2   3 253.127 9.58133   1
   3   2   3 268.319 9.77368   1
  -4  -2  -3 51.2737 5.70087   1
  -4  -2  -3 52.4880 5.45328   3
   4   2   3 39.1993 4.81203   3
   4   2   3 44.0592 5.32476   1
  -5  -2  -3 185.877 9.29894   1
  -5  -2  -3 169.739 8.60938   3
   5   2   3 170.934 9.19138   1
   5   2   3 170.669 8.96716   3
  -6  -2  -3 9.03554 3.26558   3
  -6  -2  -3 11.5637 3.71949   1
   6   2   3 11.7284 3.92023   1
   6   2   3 6.72531 2.95954   3
  10  -3  -3 7.65962 3.44904   3
  10  -3  -3 2.74604 2.87807   1
 -10   3   3 7.74728 2.90072   3
   9  -3  -3 10.8950 3.48403   3
   9  -3  -3 14.9656 3.84418   1
  -9   3   3 7.65433 2.74043   1
  -9   3   3 6.27136 3.15471   2
  -9   3   3 7.40162 2.56377   3
   8  -3  -3 0.84452 2.01122   1
   8  -3  -3 -2.2038 1.60232   3
  -8   3   3 1.42002 1.83245   1
  -8   3   3 1.30275 1.77689   3
  -8   3   3 1.54466 2.58810   2
   7  -3  -3 20.4486 3.50720   1
   7  -3  -3 23.0986 3.62473   3
  -7   3   3 14.8958 3.08165   2
  -7   3   3 19.7812 2.42054   4
  -7   3   3 16.2450 2.86550   1
  -7   3   3 20.2814 3.02402   3
   6  -3  -3 36.5407 3.79792   3
   6  -3  -3 30.3858 3.62234   1
  -6   3   3 29.7896 3.45118   2
  -6   3   3 33.6975 3.08914   4
  -6   3   3 30.9780 3.19721   3
  -6   3   3 31.3713 3.36402   1
   5  -3  -3 355.775 9.75575   3
  -5   3   3 347.774 9.70117   2
  -5   3   3 354.696 9.30407   3
  -5   3   3 343.282 10.0467   4
  -5   3   3 358.587 9.61500   1
   4  -3  -3 6.54298 1.72578   1
  -4   3   3 8.73302 1.85833   2
  -4   3   3 9.22926 1.70237   1
  -4   3   3 8.74154 1.74839   3
   3  -3  -3 311.437 8.46713   1
  -3   3   3 298.696 7.86095   3
  -3   3   3 310.262 8.06803   2
  -3   3   3 300.293 8.02722   1
   2  -3  -3 19.3673 2.19782   2
   2  -3  -3 16.8097 2.17797   3
   2  -3  -3 23.3684 2.77940   1
  -2   3   3 20.3129 2.33982   1
  -2   3   3 25.5574 2.48892   2
  -2   3   3 17.7539 2.04474   3
   1  -3  -3 906.921 18.0633   2
   1  -3  -3 857.194 18.5284   1
   1  -3  -3 904.717 18.3168   3
  -1   3   3 897.112 18.1495   3
  -1   3   3 918.325 18.1355   2
  -1   3   3 894.078 18.3762   1
   0  -3  -3 76.4529 4.12038   3
   0  -3  -3 87.6918 4.43763   2
   0  -3  -3 75.1765 4.21470   1
   0   3   3 83.7512 4.27928   1
   0   3   3 88.3367 4.31920   2
   0   3   3 78.9206 4.20121   3
  -1  -3  -3 61.2070 4.26205   1
  -1  -3  -3 73.2833 4.60745   2
  -1  -3  -3 57.9582 4.07069   3
   1   3   3 62.7565 3.99868   2
   1   3   3 63.6303 4.14826   3
   1   3   3 65.1083 4.23817   1
  -2  -3  -3 0.80329 2.08789   2
  -2  -3  -3 0.68615 1.56260   1
  -2  -3  -3 -0.0582 1.57700   3
   2   3   3 0.86094 1.42919   2
   2   3   3 1.10014 1.66357   1
   2   3   3 0.95513 1.61649   3
  -3  -3  -3 499.741 14.4193   3
  -3  -3  -3 502.138 14.6802   2
  -3  -3  -3 536.884 15.0897   1
   3   3   3 519.364 14.7809   3
   3   3   3 514.484 15.4376   1
  -4  -3  -3 28.5031 4.28090   1
  -4  -3  -3 18.7576 3.63616   3
   4   3   3 18.1636 3.67842   1
   4   3   3 21.3588 4.07434   1
   4   3   3 21.4516 3.92437   3
  -5  -3  -3 4.02050 2.77761   3
  -5  -3  -3 7.12275 3.16622   1
   5   3   3 3.27795 2.72818   3
   5   3   3 8.47201 3.25691   1
  -6  -3  -3 94.7331 8.58773   1
  -6  -3  -3 108.093 7.67622   3
   6   3   3 92.5797 8.61338   3
   6   3   3 105.421 9.91391   1
  10  -4  -3 -1.1230 2.58537   1
  10  -4  -3 -1.6348 2.03059   3
 -10   4   3 -0.3595 2.04480   3
 -10   4   3 -3.0493 2.89468   1
   9  -4  -3 -0.5089 1.97679   1
   9  -4  -3 -2.9488 1.71710   3
  -9   4   3 -1.5370 1.67016   1
  -9   4   3 1.00112 2.03929   3
  -9   4   3 -3.1413 2.58444   2
   8  -4  -3 152.997 7.85293   3
   8  -4  -3 149.893 7.93489   1
  -8   4   3 156.712 7.31975   3
  -8   4   3 177.104 7.92724   1
  -8   4   3 158.312 7.95019   2
   7  -4  -3 224.347 9.20129   1
   7  -4  -3 230.492 8.82541   3
  -7   4   3 226.343 8.84531   2
  -7   4   3 226.780 8.33488   3
  -7   4   3 235.480 8.73809   1
  -7   4   3 228.707 7.03875   4
   6  -4  -3 275.957 9.55392   1
  -6   4   3 263.015 8.94449   2
  -6   4   3 275.019 8.62613   3
  -6   4   3 266.489 8.86013   1
  -6   4   3 261.343 8.66266   4
   5  -4  -3 202.208 6.83571   2
   5  -4  -3 199.991 7.46862   1
  -5   4   3 198.402 7.20742   2
  -5   4   3 207.957 7.16776   1
  -5   4   3 198.740 6.82744   3
   4  -4  -3 19.8841 2.38299   2
   4  -4  -3 26.1765 3.11469   1
  -4   4   3 23.7493 2.79413   3
  -4   4   3 22.3526 2.73870   1
  -4   4   3 23.0662 2.71650   2
   3  -4  -3 477.380 11.8889   1
   3  -4  -3 452.596 11.1670   2
  -3   4   3 459.439 11.1641   2
  -3   4   3 464.681 11.5325   1
  -3   4   3 475.086 11.3415   3
   2  -4  -3 244.190 7.45725   3
   2  -4  -3 248.745 7.44835   2
   2  -4  -3 256.147 7.89969   1
  -2   4   3 245.729 7.43591   2
  -2   4   3 248.678 7.48968   3
  -2   4   3 248.410 7.74488   1
   1  -4  -3 171.458 6.29174   3
   1  -4  -3 176.450 6.31937   2
   1  -4  -3 166.268 6.42075   1
  -1   4   3 165.201 6.19873   3
  -1   4   3 178.741 6.22305   2
  -1   4   3 176.907 6.54161   1
   0  -4  -3 15.1249 2.47567   2
   0  -4  -3 17.4033 2.85857   1
   0  -4  -3 14.5103 2.53023   3
   0   4   3 13.0747 2.35411   3
   0   4   3 18.3248 2.69031   2
   0   4   3 17.2931 2.65580   1
  -1  -4  -3 15.4568 2.78348   3
  -1  -4  -3 17.3727 3.00829   1
  -1  -4  -3 15.3269 2.90533   2
   1   4   3 13.9678 2.61804   3
   1   4   3 16.6762 3.00507   1
   1   4   3 18.2176 2.88128   2
  -2  -4  -3 11.5691 2.79685   3
  -2  -4  -3 10.7429 2.70467   1
  -2  -4  -3 9.42389 3.05960   2
   2   4   3 7.53540 2.51270   3
   2   4   3 9.56314 2.69463   1
  -3  -4  -3 30.2310 4.60195   1
  -3  -4  -3 34.4008 4.41188   3
  -3  -4  -3 36.5700 6.46382   2
   3   4   3 33.1080 4.56101   1
   3   4   3 36.6563 4.88319   3
  -4  -4  -3 9.45741 3.18724   1
  -4  -4  -3 6.84968 3.01022   3
   4   4   3 9.21242 3.11552   3
   4   4   3 6.53975 2.63488   1
   4   4   3 6.37325 2.97266   1
  -5  -4  -3 1.78104 2.53409   3
  -5  -4  -3 1.59478 2.83689   1
   5   4   3 -2.1231 1.99638   1
   5   4   3 -0.3078 2.29992   3
  11  -5  -3 76.8470 7.96933   3
  10  -5  -3 44.9826 6.57923   1
  10  -5  -3 34.4421 5.37168   3
 -10   5   3 34.9028 4.87993   3
 -10   5   3 42.7295 5.58590   1
   9  -5  -3 -2.9858 1.80562   1
   9  -5  -3 3.22441 2.24978   3
  -9   5   3 -0.0551 1.90726   3
  -9   5   3 3.16385 2.33496   1
   8  -5  -3 138.591 7.84283   1
  -8   5   3 131.390 6.92275   3
  -8   5   3 146.979 7.85425   2
  -8   5   3 156.895 7.68592   1
   7  -5  -3 90.8088 5.97748   1
  -7   5   3 85.8789 5.83646   2
  -7   5   3 84.1824 4.79694   4
  -7   5   3 79.5215 5.49522   1
  -7   5   3 89.2294 5.30334   3
   6  -5  -3 -0.1593 1.50835   1
   6  -5  -3 -0.6625 1.35052   2
  -6   5   3 0.64979 1.42348   1
  -6   5   3 -2.7485 1.49518   2
  -6   5   3 0.53567 1.26466   3
   5  -5  -3 232.155 7.79448   2
   5  -5  -3 239.328 8.59036   1
  -5   5   3 234.412 7.94024   3
  -5   5   3 234.126 8.06577   2
  -5   5   3 236.320 8.29074   1
   4  -5  -3 63.2147 4.31653   1
   4  -5  -3 64.4121 4.05043   2
  -4   5   3 67.7077 4.17310   2
  -4   5   3 72.0763 4.36450   1
  -4   5   3 68.5081 4.09750   3
  -4   5   3 57.1559 4.08932   2
   3  -5  -3 37.4981 3.62147   3
   3  -5  -3 39.3897 3.84734   1
   3  -5  -3 33.7672 3.31095   2
  -3   5   3 41.1374 3.96333   1
  -3   5   3 32.6126 3.28407   2
  -3   5   3 37.1067 3.52129   3
   2  -5  -3 158.073 6.31605   2
   2  -5  -3 145.081 6.31938   1
   2  -5  -3 166.911 6.49828   3
  -2   5   3 164.170 6.20335   2
  -2   5   3 158.436 6.25515   3
  -2   5   3 162.477 6.62889   1
   1  -5  -3 160.862 6.62903   3
   1  -5  -3 162.908 6.74038   2
   1  -5  -3 160.180 6.86449   1
  -1   5   3 172.414 6.97983   1
  -1   5   3 161.456 6.48814   2
  -1   5   3 165.378 6.63528   3
   0  -5  -3 169.192 7.34956   2
   0  -5  -3 165.574 7.26113   1
   0  -5  -3 152.831 6.86469   3
   0   5   3 189.635 7.77578   1
   0   5   3 172.720 7.01677   2
   0   5   3 170.632 7.24935   3
  -1  -5  -3 115.825 6.45114   1
  -1  -5  -3 125.620 6.49603   3
  -1  -5  -3 117.690 6.85097   2
   1   5   3 125.253 6.63927   3
   1   5   3 130.142 7.03727   1
  -2  -5  -3 17.7109 3.38346   3
  -2  -5  -3 24.5560 4.06491   2
  -2  -5  -3 30.1237 4.37378   1
   2   5   3 30.9250 4.34134   3
   2   5   3 26.4601 4.39929   1
  -3  -5  -3 -0.0027 1.98438   3
  -3  -5  -3 0.35619 2.12600   1
   3   5   3 -1.2422 1.68671   1
   3   5   3 0.70390 2.18181   3
  -4  -5  -3 55.8798 6.22477   1
  -4  -5  -3 51.1726 6.01443   3
   4   5   3 76.4144 8.19102   1
   4   5   3 73.1951 7.49142   3
  11  -6  -3 -0.3456 2.81058   1
  10  -6  -3 30.4530 5.03203   1
 -10   6   3 51.2679 6.07088   1
 -10   6   3 48.3600 5.83111   3
   9  -6  -3 10.6064 3.35371   1
  -9   6   3 7.72303 2.56802   3
  -9   6   3 17.2044 3.73673   1
   8  -6  -3 65.2106 7.04444   1
  -8   6   3 45.0315 4.89248   3
  -8   6   3 53.4148 5.47452   1
   7  -6  -3 4.93899 2.45313   1
  -7   6   3 2.83785 2.38142   2
  -7   6   3 3.61552 2.03847   3
  -7   6   3 7.75542 2.47389   1
   6  -6  -3 36.0785 3.99313   2
  -6   6   3 41.2225 4.45628   2
  -6   6   3 26.2664 3.65922   3
  -6   6   3 34.3804 4.10392   1
   5  -6  -3 5.72504 2.16146   1
   5  -6  -3 7.46426 2.14806   2
  -5   6   3 6.04299 2.25574   2
  -5   6   3 12.5068 2.68049   2
  -5   6   3 8.96789 2.42774   1
  -5   6   3 5.51418 2.02017   3
   4  -6  -3 69.3997 4.78839   3
   4  -6  -3 74.2355 4.71650   2
   4  -6  -3 82.1817 4.99771   1
  -4   6   3 66.2345 4.34973   2
  -4   6   3 70.2308 4.50417   3
  -4   6   3 72.5980 4.85306   1
   3  -6  -3 6.20406 1.95632   1
   3  -6  -3 9.09727 2.31518   3
   3  -6  -3 5.58071 2.10123   2
  -3   6   3 4.99830 1.97219   1
  -3   6   3 8.00748 2.21105   3
  -3   6   3 9.47004 2.37734   2
   2  -6  -3 428.037 12.0168   2
   2  -6  -3 414.308 12.2984   1
   2  -6  -3 409.177 11.9152   3
  -2   6   3 422.493 11.6806   2
  -2   6   3 434.252 12.6853   1
  -2   6   3 434.866 12.1260   3
   1  -6  -3 673.496 16.3938   3
   1  -6  -3 658.649 16.4300   2
   1  -6  -3 650.337 16.6120   1
  -1   6   3 628.969 15.8616   2
  -1   6   3 663.108 16.5696   3
  -1   6   3 659.388 16.9178   1
   0  -6  -3 169.220 7.94118   2
   0  -6  -3 153.338 7.13687   3
   0  -6  -3 165.683 7.74908   1
   0   6   3 160.527 7.62286   3
   0   6   3 155.248 7.76736   1
  -1  -6  -3 47.1215 5.35285   1
  -1  -6  -3 50.6494 5.16989   2
  -1  -6  -3 52.6871 5.37229   3
   1   6   3 46.4365 5.24079   3
   1   6   3 50.8689 5.54235   1
  -2  -6  -3 4.03556 2.38092   3
  -2  -6  -3 3.10429 2.32559   1
   2   6   3 0.37168 1.94073   1
   2   6   3 0.25946 2.05944   3
  -3  -6  -3 -0.2930 2.41493   1
  -3  -6  -3 2.97565 2.72331   3
   3   6   3 5.77070 2.74405   3
   3   6   3 -2.0430 1.81913   1
  -4  -6  -3 149.066 9.05829   3
   4   6   3 171.281 10.5347   1
   4   6   3 155.801 9.69206   3
  10  -7  -3 280.446 12.5823   1
 -10   7   3 263.508 11.2280   3
 -10   7   3 286.567 12.2220   1
   9  -7  -3 33.2637 5.32201   1
  -9   7   3 27.7075 4.53946   1
  -9   7   3 26.8629 4.21016   3
   8  -7  -3 7.28340 2.97307   1
  -8   7   3 6.26669 2.48464   3
  -8   7   3 9.15624 3.06675   1
   7  -7  -3 13.8527 3.19561   1
  -7   7   3 20.3477 3.79915   1
  -7   7   3 11.6232 2.78500   3
   6  -7  -3 -0.1704 1.70571   2
   6  -7  -3 1.76225 2.18625   1
  -6   7   3 -0.9094 1.81188   2
  -6   7   3 2.21992 2.03425   1
  -6   7   3 -1.1841 1.80312   2
  -6   7   3 0.10175 1.53166   3
   5  -7  -3 15.4338 2.89709   2
   5  -7  -3 16.5368 3.21017   1
  -5   7   3 14.5683 2.97069   1
  -5   7   3 16.3628 2.98954   3
  -5   7   3 16.9405 2.94857   2
   4  -7  -3 2.05204 1.75921   3
   4  -7  -3 -0.0870 1.50271   1
   4  -7  -3 2.68043 1.96875   2
  -4   7   3 3.04935 1.87735   1
  -4   7   3 -1.0485 1.69050   2
  -4   7   3 2.47491 1.83242   3
   3  -7  -3 176.270 7.75041   1
   3  -7  -3 180.453 7.67023   3
   3  -7  -3 180.007 7.58093   2
  -3   7   3 174.250 7.91289   1
  -3   7   3 161.882 7.32770   3
  -3   7   3 168.786 7.96345   2
   2  -7  -3 268.963 9.69275   3
   2  -7  -3 280.821 10.1340   1
   2  -7  -3 261.945 9.73760   2
  -2   7   3 285.738 10.3505   1
  -2   7   3 274.966 9.88194   3
   1  -7  -3 46.2836 4.90157   1
   1  -7  -3 40.0573 4.50489   2
   1  -7  -3 45.4042 4.90600   3
  -1   7   3 45.8322 5.15175   1
  -1   7   3 46.8809 5.06252   3
   0  -7  -3 200.487 8.93943   1
   0  -7  -3 178.720 8.30136   3
   0  -7  -3 176.037 8.82532   2
   0   7   3 181.746 8.87877   1
   0   7   3 178.549 8.57138   3
  -1  -7  -3 -1.8436 1.96163   1
  -1  -7  -3 5.00836 2.46759   3
   1   7   3 1.12583 2.00696   3
   1   7   3 1.56919 2.07105   1
  -2  -7  -3 16.7207 4.06705   1
  -2  -7  -3 10.9701 3.29477   3
   2   7   3 16.1600 3.97767   1
   2   7   3 17.0971 3.90257   3
  -3  -7  -3 182.194 9.73823   3
   3   7   3 207.542 10.9099   3
   3   7   3 204.523 11.2543   1
  10  -8  -3 0.99439 2.36799   1
 -10   8   3 4.92191 2.69336   3
 -10   8   3 2.39547 2.54597   1
   9  -8  -3 101.789 7.49448   1
  -9   8   3 95.1410 7.15923   1
  -9   8   3 92.9379 6.84238   3
   8  -8  -3 90.3435 6.89905   1
  -8   8   3 90.8524 6.42994   3
  -8   8   3 106.649 7.23889   1
   7  -8  -3 0.20208 1.91344   1
  -7   8   3 0.34716 1.57115   1
  -7   8   3 -0.6946 1.64834   3
   6  -8  -3 -2.3266 1.57239   1
  -6   8   3 -1.1504 1.50435   3
  -6   8   3 -1.5858 1.54614   1
   5  -8  -3 14.3945 2.94334   2
   5  -8  -3 14.7052 3.17511   1
   5  -8  -3 11.3667 2.91848   3
  -5   8   3 7.75860 2.58032   1
  -5   8   3 11.9882 2.92174   3
   4  -8  -3 1.09148 1.80703   3
   4  -8  -3 -1.4562 1.98363   2
   4  -8  -3 1.79276 1.83359   1
  -4   8   3 1.45829 1.69253   1
  -4   8   3 -1.8417 1.46773   3
   3  -8  -3 20.4546 3.45930   2
   3  -8  -3 19.4057 3.56791   1
   3  -8  -3 21.4787 3.47589   3
  -3   8   3 24.2770 3.80457   1
  -3   8   3 24.7566 3.97996   3
   2  -8  -3 0.29036 1.99204   3
   2  -8  -3 -0.8645 1.97519   2
   2  -8  -3 2.18503 2.22936   1
  -2   8   3 1.81752 1.92666   1
  -2   8   3 -0.7613 1.58631   3
   1  -8  -3 8.65490 2.96778   3
   1  -8  -3 11.2434 3.25901   2
   1  -8  -3 8.62875 3.00496   1
  -1   8   3 10.5651 3.04028   3
  -1   8   3 6.75151 2.79636   1
   0  -8  -3 170.616 8.61750   1
   0  -8  -3 135.256 7.70425   3
   0   8   3 144.980 8.47983   1
   0   8   3 134.659 8.07184   3
  -1  -8  -3 43.4008 5.43216   3
   1   8   3 52.3164 6.65974   1
   1   8   3 57.9599 6.65313   3
  -2  -8  -3 91.2442 7.94099   3
   2   8   3 84.6420 8.35849   3
  10  -9  -3 73.5613 8.16768   1
 -10   9   3 64.2200 7.18330   3
 -10   9   3 71.0161 7.45257   1
   9  -9  -3 131.803 8.57743   1
  -9   9   3 127.734 8.56821   1
  -9   9   3 111.490 7.63699   3
   8  -9  -3 285.326 12.1678   1
  -8   9   3 293.223 11.7679   3
  -8   9   3 301.506 12.3615   1
   7  -9  -3 64.9912 7.15597   1
  -7   9   3 49.4067 5.86985   1
  -7   9   3 55.8475 6.48879   3
   6  -9  -3 25.3022 4.02920   3
   6  -9  -3 13.9063 3.62236   1
  -6   9   3 22.4689 3.96745   1
  -6   9   3 18.6793 3.63073   3
   5  -9  -3 39.5159 5.11779   1
   5  -9  -3 30.1491 4.15286   3
  -5   9   3 32.5967 4.61424   3
  -5   9   3 31.3645 4.60724   1
   4  -9  -3 153.506 8.15036   1
   4  -9  -3 153.863 9.01510   2
   4  -9  -3 140.352 7.51657   3
  -4   9   3 138.732 8.03819   1
  -4   9   3 145.590 7.77683   3
   3  -9  -3 354.202 12.6484   1
   3  -9  -3 373.232 13.4664   2
   3  -9  -3 327.690 11.8243   3
  -3   9   3 366.154 13.3483   1
  -3   9   3 361.924 12.6706   3
   2  -9  -3 27.9665 4.70299   1
   2  -9  -3 25.9719 4.10742   3
  -2   9   3 17.7719 3.85239   1
  -2   9   3 25.7647 4.09087   3
   1  -9  -3 0.23810 2.54216   1
   1  -9  -3 2.29666 2.50228   3
  -1   9   3 -1.1580 1.83133   3
  -1   9   3 1.27542 2.10775   1
   0  -9  -3 33.7607 4.69381   3
   0   9   3 22.5573 4.60212   1
   0   9   3 28.4685 5.15881   3
  -1  -9  -3 -1.0183 1.99169   3
   1   9   3 -1.6569 2.27457   1
   1   9   3 -4.0784 1.79847   3
   9 -10  -3 34.4168 5.63115   1
  -9  10   3 33.6151 5.39979   1
   8 -10  -3 0.40663 2.42482   1
  -8  10   3 4.48892 2.66328   3
  -8  10   3 0.30251 2.33113   1
   7 -10  -3 1.35584 2.43969   1
   7 -10  -3 0.52291 1.97624   3
  -7  10   3 1.84809 2.02746   3
  -7  10   3 -0.0740 2.03619   1
   6 -10  -3 12.7769 3.56436   1
   6 -10  -3 12.4924 3.19892   3
  -6  10   3 15.2731 3.65031   3
  -6  10   3 10.9191 3.32822   1
   5 -10  -3 169.073 8.95037   1
   5 -10  -3 158.273 8.39199   3
  -5  10   3 167.488 8.99359   3
  -5  10   3 172.226 9.32101   1
   4 -10  -3 284.831 11.7342   1
   4 -10  -3 276.145 10.9911   3
  -4  10   3 298.877 11.9161   3
  -4  10   3 288.885 12.2712   1
   3 -10  -3 121.816 7.86019   1
   3 -10  -3 123.102 7.35698   3
  -3  10   3 130.524 8.07829   3
  -3  10   3 125.425 8.16894   1
   2 -10  -3 3.77544 2.50284   3
  -2  10   3 1.71299 2.43559   3
  -2  10   3 7.28563 3.04758   1
   1 -10  -3 12.1797 3.64436   3
  -1  10   3 12.8428 3.72891   1
   8 -11  -3 24.3122 5.12057   1
   8 -11  -3 11.4698 3.53076   3
  -8  11   3 16.0035 3.80445   3
  -8  11   3 18.4487 4.68437   1
   7 -11  -3 11.5184 3.50750   3
   7 -11  -3 9.68427 3.46783   1
  -7  11   3 3.56885 2.98656   1
  -7  11   3 6.06991 3.01053   3
   6 -11  -3 2.17730 2.41879   3
   6 -11  -3 5.82269 3.17745   1
  -6  11   3 7.56564 3.37128   1
  -6  11   3 7.56421 2.89546   3
   5 -11  -3 5.13599 2.79343   3
   5 -11  -3 -0.0496 2.69681   1
  -5  11   3 6.28599 3.09647   1
  -5  11   3 4.36301 2.70374   3
   4 -11  -3 5.63384 2.83600   3
  -4  11   3 17.0159 4.22632   1
  -4  11   3 12.7451 3.40682   3
   3 -11  -3 0.21065 2.17347   3
  -3  11   3 -1.3420 1.97136   3
  -3  11   3 -1.2350 2.22648   1
   2 -11  -3 48.0807 6.07980   3
  -2  11   3 48.6290 6.55844   3
  -2  11   3 59.6305 7.40129   1
   6 -12  -3 2.56674 2.87429   3
  -6  12   3 1.02368 2.60156   1
  -6  12   3 8.20289 3.51493   3
  -5  12   3 21.0501 4.59522   3
  -1  12  -4 138.049 8.20025   1
   1 -12   4 144.878 8.67325   2
  -2  12  -4 2.36867 2.11947   1
   2 -12   4 5.94358 3.02848   2
  -3  12  -4 20.4628 3.97059   1
   3 -12   4 27.0402 4.53145   2
  -4  12  -4 19.7852 4.00211   1
   4 -12   4 29.7285 4.90339   2
  -5  12  -4 30.8580 4.94596   1
   5 -12   4 26.1747 4.74003   2
   1  11  -4 73.9083 7.01988   1
  -1 -11   4 64.5578 6.70948   2
   0  11  -4 45.0014 5.34949   1
   0 -11   4 48.9034 5.49285   2
  -1  11  -4 45.7609 5.19920   1
   1 -11   4 50.4271 5.57063   2
  -2  11  -4 74.5531 5.81268   1
   2 -11   4 87.4017 6.34993   2
  -3  11  -4 73.2784 6.62113   1
   3 -11   4 89.2085 7.37849   2
  -4  11  -4 2.83254 2.13947   1
   4 -11   4 5.14365 2.68483   2
  -5  11  -4 5.30070 2.46855   1
   5 -11   4 5.65259 2.69037   2
  -6  11  -4 4.82386 2.54994   1
   6 -11   4 5.46731 2.92356   2
   2  10  -4 6.09805 2.44946   1
  -2 -10   4 8.16835 3.22888   2
   1  10  -4 30.7869 4.34210   1
  -1 -10   4 21.7258 4.00261   2
   0  10  -4 102.684 6.13014   1
   0 -10   4 90.7705 6.20802   2
  -1  10  -4 97.1817 5.79441   1
   1 -10   4 91.1356 6.02578   2
  -2  10  -4 7.97781 2.48709   1
   2 -10   4 10.0356 2.72951   2
  -3  10  -4 3.23497 2.03112   1
   3 -10   4 9.21693 2.56792   2
  -4  10  -4 -0.0817 1.53202   1
   4 -10   4 -0.2914 1.92041   2
  -5  10  -4 130.489 7.64312   1
  -5  10  -4 131.062 7.45203   3
   5 -10   4 126.729 7.40370   2
  -6  10  -4 17.6346 3.82104   3
  -6  10  -4 15.6875 3.61069   1
   6 -10   4 28.2562 4.56852   2
  -7  10  -4 3.44509 2.50654   1
  -7  10  -4 -0.7896 2.40080   3
   7 -10   4 6.90319 3.05687   2
   4   9  -4 5.95556 2.96046   1
  -4  -9   4 6.18650 3.58677   2
   3   9  -4 30.2780 4.38421   1
  -3  -9   4 40.6526 4.91991   2
   2   9  -4 0.50930 1.87566   1
  -2  -9   4 4.92723 2.66070   2
   1   9  -4 23.1561 3.32428   1
  -1  -9   4 16.1762 3.04808   2
  -1  -9   4 21.3352 3.39445   2
   0   9  -4 38.8226 4.08932   1
   0  -9   4 37.4238 4.03361   2
  -1   9  -4 41.6907 4.21205   1
   1  -9   4 41.3591 4.18702   2
   1  -9   4 51.5187 4.43304   2
  -2   9  -4 105.363 5.67643   1
   2  -9   4 108.551 5.78216   2
   2  -9   4 93.4746 5.27123   2
  -3   9  -4 1.71033 1.79383   3
  -3   9  -4 0.40266 1.39843   1
   3  -9   4 0.47043 1.64418   2
   3  -9   4 0.81211 1.88443   2
  -4   9  -4 24.6278 3.90257   3
  -4   9  -4 28.5898 3.99392   1
   4  -9   4 27.8217 3.79783   2
  -5   9  -4 90.0600 6.26131   1
  -5   9  -4 100.846 6.26394   3
   5  -9   4 81.7531 5.96834   2
  -6   9  -4 -0.7237 1.83125   3
  -6   9  -4 1.90544 2.01007   1
   6  -9   4 0.95170 2.03271   2
  -7   9  -4 43.6981 5.41769   1
  -7   9  -4 50.2453 6.15437   3
   7  -9   4 54.4029 6.23961   2
   5   8  -4 3.94916 2.42233   1
  -5  -8   4 4.60117 3.82921   2
   4   8  -4 6.99964 2.62278   1
  -4  -8   4 9.32512 3.30096   2
   3   8  -4 1.11788 1.80715   1
  -3  -8   4 0.72661 2.33710   2
   2   8  -4 182.241 7.48548   1
  -2  -8   4 174.662 7.47046   2
  -2  -8   4 173.043 7.14551   2
   1   8  -4 0.25654 1.38658   1
   0   8  -4 3.09068 1.66533   1
  -1   8  -4 30.9189 3.43516   1
  -1   8  -4 31.9030 4.85505   3
  -2   8  -4 1.05180 1.37681   1
  -2   8  -4 0.72562 1.22149   3
   2  -8   4 -0.0128 1.29301   2
   2  -8   4 -0.8219 1.41045   2
  -3   8  -4 20.4540 3.21273   1
  -3   8  -4 22.7690 3.03932   3
   3  -8   4 19.0480 3.02749   2
   3  -8   4 19.1828 2.78539   2
  -4   8  -4 380.668 12.1518   1
  -4   8  -4 401.673 11.8519   3
   4  -8   4 397.735 11.7642   2
  -5   8  -4 -0.7962 1.22477   3
  -5   8  -4 0.51139 1.59798   1
   5  -8   4 -0.1999 1.68693   2
  -6   8  -4 193.488 9.26313   1
  -6   8  -4 193.047 8.98984   3
   6  -8   4 197.624 8.94913   2
  -7   8  -4 9.05705 2.62599   1
  -7   8  -4 7.66033 2.68282   3
   7  -8   4 8.50954 2.82855   2
  -8   8  -4 30.7203 5.18854   1
  -8   8  -4 35.3834 5.48869   3
  -6  -7   4 4.65253 3.63667   2
   5   7  -4 4.31534 2.42469   1
  -5  -7   4 -0.1813 2.86109   2
   4   7  -4 17.0040 3.38035   1
  -4  -7   4 15.7249 3.46923   2
   3   7  -4 111.690 5.83457   1
  -3  -7   4 87.1600 5.64754   2
  -3  -7   4 92.4184 5.50504   2
   2   7  -4 1000.07 21.4251   1
   1   7  -4 29.3819 3.03140   1
   0   7  -4 10.1289 1.88210   1
  -1   7  -4 6.99273 1.66971   3
  -1   7  -4 9.51781 1.87872   1
  -2   7  -4 309.461 8.60136   3
  -2   7  -4 301.299 8.83940   1
   2  -7   4 298.342 8.50269   2
   2  -7   4 292.616 8.52142   2
  -3   7  -4 579.976 13.9328   3
  -3   7  -4 558.090 14.1416   1
   3  -7   4 546.824 13.5796   2
   3  -7   4 557.616 13.7962   2
  -4   7  -4 430.494 12.2935   3
  -4   7  -4 439.144 12.7301   1
   4  -7   4 427.724 12.1267   2
   4  -7   4 414.389 12.0197   2
  -5   7  -4 4.62497 2.15718   3
  -5   7  -4 4.04400 2.12033   1
   5  -7   4 2.13830 1.90697   2
  -6   7  -4 90.3924 6.49019   1
  -6   7  -4 87.3680 6.25699   3
   6  -7   4 90.9781 6.39233   2
  -7   7  -4 9.10628 3.17254   3
  -7   7  -4 5.13880 2.82634   1
   7  -7   4 5.92185 2.71793   2
  -8   7  -4 66.8052 7.38841   1
  -8   7  -4 71.7197 7.72140   3
   6   6  -4 50.6362 6.09927   1
  -6  -6   4 53.0180 6.08056   2
   5   6  -4 6.08496 2.49761   1
  -5  -6   4 6.64708 2.86733   2
   4   6  -4 84.6268 5.38638   1
  -4  -6   4 86.0334 5.65341   2
  -4  -6   4 81.3705 5.14902   2
   3   6  -4 1.40888 1.58884   1
   2   6  -4 446.164 10.9017   1
  -1   6  -4 549.516 12.1207   1
  -2   6  -4 191.788 6.16239   3
  -2   6  -4 197.877 6.56984   1
   2  -6   4 193.319 6.21527   2
  -3   6  -4 44.8936 3.60702   1
  -3   6  -4 45.7990 3.39148   3
   3  -6   4 46.3220 3.78648   2
   3  -6   4 38.3894 3.60936   2
  -4   6  -4 120.814 6.16463   1
  -4   6  -4 133.118 6.09191   3
   4  -6   4 127.142 6.01577   2
   4  -6   4 114.840 5.14047   1
   4  -6   4 122.892 5.97588   2
  -5   6  -4 27.7607 3.79041   3
  -5   6  -4 25.9021 3.76178   1
   5  -6   4 30.6193 3.62880   1
   5  -6   4 22.6815 3.43160   2
  -6   6  -4 252.340 10.6126   1
  -6   6  -4 276.879 10.6672   3
   6  -6   4 250.533 10.1088   2
   6  -6   4 248.714 9.42512   1
  -7   6  -4 136.354 8.11616   3
  -7   6  -4 140.409 8.53885   1
   7  -6   4 133.787 9.56560   2
  -8   6  -4 41.0911 5.83577   1
  -8   6  -4 61.4175 7.14343   3
   7   5  -4 35.3311 5.42831   1
  -7  -5   4 28.1320 5.23158   2
   6   5  -4 6.44167 2.61372   1
  -6  -5   4 8.25624 3.42735   2
   5   5  -4 15.9128 3.01578   1
  -5  -5   4 11.0702 2.71127   2
  -5  -5   4 18.0364 3.49732   2
   4   5  -4 6.19640 2.17138   3
   4   5  -4 6.56410 1.98694   1
  -4  -5   4 3.14917 2.05036   2
   3   5  -4 17.7510 2.38828   1
  -1   5  -4 118.954 4.15377   1
  -2   5  -4 14.2429 1.99259   3
  -2   5  -4 11.7348 1.96131   1
   2  -5   4 15.1811 3.06426   4
  -3   5  -4 75.5292 4.47060   1
  -3   5  -4 81.6939 4.37550   3
   3  -5   4 76.8423 3.70375   1
   3  -5   4 87.6493 5.43545   4
   3  -5   4 82.4160 4.40291   2
   3  -5   4 89.3098 4.51309   2
  -4   5  -4 798.340 18.3534   3
  -4   5  -4 790.684 18.9026   1
   4  -5   4 773.969 18.0784   2
   4  -5   4 772.315 18.5223   4
   4  -5   4 808.011 18.3565   2
   4  -5   4 761.496 17.1307   1
  -5   5  -4 360.957 11.8572   3
  -5   5  -4 393.090 12.5980   1
   5  -5   4 363.378 11.0465   1
   5  -5   4 360.873 11.5906   2
  -6   5  -4 17.0268 3.57431   3
  -6   5  -4 17.9562 3.92780   1
   6  -5   4 20.5145 3.33879   1
   6  -5   4 18.2996 3.46306   2
  -7   5  -4 23.1740 4.48025   3
  -7   5  -4 11.8488 3.40629   1
   7  -5   4 13.5055 3.34758   1
   7  -5   4 15.9607 3.36250   3
  -8   5  -4 4.25911 2.78433   1
  -8   5  -4 2.87028 2.70820   3
   8  -5   4 -1.3814 1.79685   3
   8   4  -4 9.77656 3.85711   1
  -8  -4   4 5.38010 3.96050   2
   7   4  -4 1.18345 2.23864   1
  -7  -4   4 5.28391 3.11803   2
   6   4  -4 49.4532 5.49602   1
   6   4  -4 41.6427 4.98883   1
  -6  -4   4 41.3526 4.85576   2
   5   4  -4 537.612 14.0167   3
   5   4  -4 570.229 14.9036   1
  -5  -4   4 572.132 14.3242   2
  -5  -4   4 551.739 13.9516   2
   4   4  -4 341.867 9.02365   3
   4   4  -4 338.090 9.58964   1
   3   4  -4 64.6693 3.22055   1
  -1  -4   4 667.963 18.6124   4
   0  -4   4 86.0364 5.79211   4
  -1   4  -4 36.3700 2.20260   1
   1  -4   4 44.5342 5.00331   4
  -2   4  -4 279.293 7.90218   1
  -2   4  -4 289.180 7.78781   3
   2  -4   4 283.762 7.68732   2
   2  -4   4 300.274 10.2048   4
   2  -4   4 283.749 7.67809   2
  -3   4  -4 255.908 8.25821   1
  -3   4  -4 252.099 7.93379   3
   3  -4   4 256.434 8.97363   4
   3  -4   4 249.264 7.91334   2
   3  -4   4 242.162 7.79254   2
   3  -4   4 239.872 7.18822   1
  -4   4  -4 0.46706 1.38992   1
  -4   4  -4 1.72329 1.73856   3
   4  -4   4 1.98850 1.32847   1
   4  -4   4 1.41966 1.39743   3
   4  -4   4 -2.0742 1.32151   2
   4  -4   4 -0.3372 1.18514   4
   4  -4   4 1.04722 1.54630   2
  -5   4  -4 23.4362 3.91519   1
  -5   4  -4 26.4413 4.03414   3
   5  -4   4 31.2031 3.97955   2
   5  -4   4 29.8410 3.39082   4
   5  -4   4 22.6547 3.20805   3
   5  -4   4 25.6201 3.55761   1
  -6   4  -4 35.6609 4.87211   3
  -6   4  -4 29.9265 4.46316   1
   6  -4   4 37.9742 4.75998   1
   6  -4   4 32.2062 4.36245   2
   6  -4   4 29.3215 3.99200   3
  -7   4  -4 47.0892 5.88052   3
  -7   4  -4 40.5876 5.62862   1
   7  -4   4 54.3904 5.70772   3
   7  -4   4 59.6242 6.51981   1
  -8   4  -4 67.4015 7.40999   1
  -8   4  -4 51.3281 6.55226   3
   8  -4   4 82.5945 8.71652   1
   8  -4   4 65.7983 6.53661   3
   8   3  -4 10.2322 3.66266   1
  -8  -3   4 14.5204 4.09833   2
   7   3  -4 570.273 16.6735   3
   7   3  -4 540.856 16.6023   1
  -7  -3   4 553.067 16.1657   2
   6   3  -4 603.259 16.1437   1
   6   3  -4 589.226 15.3492   3
  -6  -3   4 596.655 15.4803   2
  -6  -3   4 562.200 14.9933   2
   5   3  -4 113.950 5.72330   1
   5   3  -4 123.085 5.52354   3
  -5  -3   4 113.418 5.77332   2
  -5  -3   4 105.641 5.28295   2
   4   3  -4 250.970 7.45164   1
  -2  -3   4 29.0318 4.05207   4
  -1  -3   4 1698.68 35.6167   4
   0  -3   4 113.032 6.11060   4
  -1   3  -4 122.007 4.09334   1
   1  -3   4 120.441 6.16621   4
  -2   3  -4 0.23111 0.95724   3
  -2   3  -4 0.31106 1.00249   1
   2  -3   4 -0.2760 1.15566   4
   2  -3   4 0.46448 0.82344   1
   2  -3   4 0.23683 1.09451   2
   2  -3   4 1.97838 1.26437   2
  -3   3  -4 38.8098 3.68448   3
  -3   3  -4 47.9660 3.70747   1
   3  -3   4 42.8672 3.59419   4
   3  -3   4 48.4108 3.60181   2
   3  -3   4 43.3130 3.71038   2
   3  -3   4 45.2228 3.18897   1
   3  -3   4 38.7800 2.95112   3
  -4   3  -4 102.055 5.63407   3
  -4   3  -4 103.300 5.82079   1
   4  -3   4 94.1192 5.16611   1
   4  -3   4 106.517 5.60846   2
   4  -3   4 89.8028 5.06609   4
   4  -3   4 97.4482 5.05503   3
  -5   3  -4 3.61377 2.25395   1
  -5   3  -4 8.29815 2.56198   3
   5  -3   4 4.07344 2.05808   3
   5  -3   4 3.41722 1.62341   4
   5  -3   4 4.07869 2.24489   2
   5  -3   4 -1.0299 1.52621   1
  -6   3  -4 23.6260 4.06086   3
  -6   3  -4 22.0418 4.15707   1
   6  -3   4 15.6219 3.54493   1
   6  -3   4 22.9290 3.86080   3
   6  -3   4 20.8384 4.30980   2
  -7   3  -4 130.476 8.25132   3
  -7   3  -4 118.518 8.36493   1
   7  -3   4 112.326 7.40571   3
   7  -3   4 106.256 7.55000   1
  -8   3  -4 19.2874 4.29507   3
  -8   3  -4 14.6595 4.40027   1
   8  -3   4 17.6195 3.99286   3
   8  -3   4 14.2668 4.22042   1
   9   2  -4 0.18624 2.48190   1
  -9  -2   4 0.59564 3.42584   2
   8   2  -4 31.3709 5.14740   1
   8   2  -4 29.5111 4.65333   3
  -8  -2   4 22.4234 4.28222   2
   7   2  -4 56.5660 5.84285   1
   7   2  -4 50.4636 5.31863   3
  -7  -2   4 54.7902 5.54680   2
   6   2  -4 89.7293 5.63179   1
   6   2  -4 88.7234 5.53640   3
  -6  -2   4 107.298 6.16157   2
  -6  -2   4 104.712 5.64539   2
   5   2  -4 96.7903 4.97456   1
   5   2  -4 89.6127 4.62923   3
  -5  -2   4 95.5589 5.03296   2
  -5  -2   4 93.0298 4.71711   2
   4   2  -4 111.841 4.42083   1
  -3  -2   4 149.098 7.61396   4
  -2  -2   4 221.408 8.99534   4
  -1  -2   4 74.3254 4.89446   4
   0  -2   4 95.3279 5.39272   4
  -1   2  -4 107.201 4.10463   1
  -1   2  -4 115.101 3.97052   3
   1  -2   4 107.542 4.00560   2
   1  -2   4 104.087 3.90243   2
   1  -2   4 109.520 3.46623   1
   1  -2   4 108.212 5.59382   4
  -2   2  -4 214.052 6.64654   3
  -2   2  -4 204.768 6.81477   1
   2  -2   4 191.913 6.35935   2
   2  -2   4 206.087 6.23613   1
   2  -2   4 209.531 6.58722   2
   2  -2   4 195.558 5.90756   3
   2  -2   4 202.634 7.72456   4
  -3   2  -4 6.35298 2.08988   1
  -3   2  -4 8.09962 2.08700   3
   3  -2   4 6.16233 1.70565   1
   3  -2   4 5.36518 2.02441   4
   3  -2   4 6.72939 2.02289   2
   3  -2   4 6.96078 1.84969   3
  -4   2  -4 94.1910 5.78398   3
  -4   2  -4 107.394 6.12983   1
   4  -2   4 101.197 5.55868   4
   4  -2   4 107.189 5.62306   3
   4  -2   4 99.2171 5.71235   2
   4  -2   4 101.649 5.60550   1
  -5   2  -4 38.3558 4.76353   3
  -5   2  -4 41.3584 5.14855   1
   5  -2   4 34.2594 4.14108   3
   5  -2   4 39.6014 3.75498   4
   5  -2   4 40.4518 4.57327   2
   5  -2   4 28.0860 4.09780   1
  -6   2  -4 3.36480 2.39217   1
  -6   2  -4 4.13579 2.15942   3
   6  -2   4 0.38989 2.14910   1
   6  -2   4 -0.6941 1.73832   3
  -7   2  -4 4.65312 3.09175   1
  -7   2  -4 10.7272 3.52599   3
   7  -2   4 10.4117 3.06493   3
   7  -2   4 7.20110 3.04869   1
   9   1  -4 0.99462 2.55704   3
   9   1  -4 3.27347 2.65653   1
  -9  -1   4 1.06494 3.44189   2
   8   1  -4 3.26786 2.38521   3
   8   1  -4 3.18355 2.25995   1
  -8  -1   4 1.30563 2.59678   2
   7   1  -4 4.93353 2.17108   1
   7   1  -4 4.58534 2.34737   3
  -7  -1   4 4.73871 2.56440   2
   6   1  -4 5.14958 1.99122   3
   6   1  -4 2.76155 1.90033   1
  -6  -1   4 1.39342 1.80162   2
  -6  -1   4 6.29573 2.31848   2
   5   1  -4 236.768 7.21150   3
   5   1  -4 228.488 7.54477   1
  -5  -1   4 243.752 7.48120   2
  -5  -1   4 245.032 7.30129   2
   4   1  -4 117.609 4.30585   1
  -4  -1   4 106.759 6.46120   4
  -3  -1   4 227.157 8.91753   4
  -2  -1   4 715.269 17.6011   4
  -1  -1   4 569.561 14.8102   4
   0   1  -4 3.03396 0.96070   1
   0   1  -4 2.90515 0.99793   3
   0  -1   4 2.30674 1.57723   4
  -1   1  -4 627.632 13.1481   3
  -1   1  -4 617.628 13.5044   1
   1  -1   4 622.153 13.1541   2
   1  -1   4 631.831 15.6461   4
   1  -1   4 613.466 12.5572   3
   1  -1   4 613.357 12.9175   1
   1  -1   4 622.977 13.1460   2
  -2   1  -4 92.2052 4.53266   3
  -2   1  -4 93.6895 4.69967   1
   2  -1   4 87.6149 4.34027   1
   2  -1   4 83.4541 5.19005   4
   2  -1   4 86.5411 4.43303   2
   2  -1   4 90.2861 4.23660   3
   2  -1   4 89.9978 4.52145   2
  -3   1  -4 343.667 10.7379   1
  -3   1  -4 334.663 10.1947   3
   3  -1   4 328.756 9.81784   3
   3  -1   4 345.773 10.3422   1
   3  -1   4 346.082 10.2756   2
   3  -1   4 350.117 11.1897   4
  -4   1  -4 50.1923 5.04400   3
  -4   1  -4 41.6584 4.61902   1
   4  -1   4 50.3972 4.76944   2
   4  -1   4 55.9304 5.31790   1
   4  -1   4 52.2667 4.63452   4
   4  -1   4 46.4145 4.57457   3
  -5   1  -4 -1.5732 1.46845   1
  -5   1  -4 3.32937 2.27070   3
   5  -1   4 0.07093 1.64858   2
   5  -1   4 2.58589 1.93013   1
   5  -1   4 0.89247 1.94027   3
   5  -1   4 -0.7781 1.89761   4
  -6   1  -4 73.9362 6.85842   3
  -6   1  -4 64.4513 6.70161   1
   6  -1   4 70.8139 6.72484   3
   6  -1   4 89.1095 8.40015   1
  -7   1  -4 31.7381 5.48620   1
  -7   1  -4 37.6292 5.55341   3
   7  -1   4 41.5638 5.99823   1
   7  -1   4 35.3936 5.37521   3
  10   0  -4 36.9147 6.26091   1
  10   0  -4 36.7226 5.99160   3
 -10   0   4 27.3884 5.57439   2
   9   0  -4 -2.1683 1.98240   1
   9   0  -4 1.08928 2.58469   3
  -9   0   4 1.94395 3.08414   2
   8   0  -4 45.8236 5.61862   1
   8   0  -4 51.0285 5.61019   3
  -8   0   4 45.7010 5.40354   2
   7   0  -4 -0.0416 1.79353   3
   7   0  -4 0.56204 1.93153   1
  -7   0   4 0.75630 1.32092   1
  -7   0   4 2.99433 2.33347   2
  -7   0   4 0.11246 2.92170   2
   6   0  -4 5.45412 2.12869   1
   6   0  -4 7.07766 2.04533   3
  -6   0   4 4.80605 2.23441   2
  -6   0   4 5.63199 2.12785   2
  -6   0   4 3.37490 1.43036   1
   5   0  -4 182.783 6.47854   1
   5   0  -4 174.248 6.00773   3
  -5   0   4 182.775 6.33241   2
  -5   0   4 169.138 7.94601   4
  -5   0   4 182.260 6.04856   2
   4   0  -4 120.293 4.36824   1
   4   0  -4 120.506 4.11367   3
  -4   0   4 102.188 5.93136   4
   3   0  -4 380.656 8.19333   1
  -3   0   4 370.265 11.2671   4
   2   0  -4 103.055 3.20006   1
   1   0  -4 -0.0262 0.79605   1
  -1   0   4 1.23815 1.56457   4
   0   0  -4 51.0328 2.80264   3
   0   0  -4 47.1114 2.79232   1
   0   0   4 45.9214 2.76620   2
   0   0   4 50.8388 2.79875   2
   0   0   4 47.0666 2.58133   1
   0   0   4 49.7968 2.50436   3
   0   0   4 47.8261 4.13221   4
  -1   0  -4 12.5938 2.04918   3
  -1   0  -4 9.31877 1.85002   1
   1   0   4 14.0356 2.02181   1
   1   0   4 11.3073 1.79152   3
   1   0   4 11.4898 1.91844   2
   1   0   4 12.7815 2.03930   2
  -2   0  -4 54.5433 3.84776   3
  -2   0  -4 54.4618 3.94142   1
   2   0   4 49.8473 3.75368   2
   2   0   4 57.6169 3.80599   3
   2   0   4 59.4615 3.91911   1
  -3   0  -4 318.592 10.2267   3
  -3   0  -4 316.955 10.5033   1
   3   0   4 310.729 9.97750   2
   3   0   4 318.095 9.95617   3
   3   0   4 310.613 10.1889   1
  -4   0  -4 9.37446 2.75851   1
  -4   0  -4 9.54392 2.91888   3
   4   0   4 8.83791 2.60111   1
   4   0   4 5.68749 2.22920   2
   4   0   4 7.77249 2.48828   3
  -5   0  -4 4.03070 2.67386   1
  -5   0  -4 -0.7871 2.20871   3
   5   0   4 1.39369 1.94142   1
   5   0   4 1.36543 2.04709   3
  -6   0  -4 32.3118 4.98098   3
  -6   0  -4 28.6686 4.83778   1
   6   0   4 33.2979 5.55337   1
   6   0   4 27.8661 4.59817   3
  -7   0  -4 68.3985 7.44050   3
  -7   0  -4 63.4788 7.49206   1
   7   0   4 82.2038 9.11078   1
   7   0   4 77.6632 7.63411   3
  10  -1  -4 1.31857 2.96418   3
  10  -1  -4 1.46399 2.77985   1
 -10   1   4 -0.4402 3.46882   2
   9  -1  -4 3.60514 2.77977   3
   9  -1  -4 9.73220 3.37568   1
  -9   1   4 10.4759 3.70877   2
   8  -1  -4 -0.6921 1.75136   1
   8  -1  -4 1.31467 2.03945   3
  -8   1   4 3.62614 2.54209   2
   7  -1  -4 260.911 9.70517   1
   7  -1  -4 264.757 9.42886   3
  -7   1   4 259.861 9.42660   2
  -7   1   4 264.636 8.39603   1
  -7   1   4 258.208 9.24244   2
   6  -1  -4 -0.2082 1.53911   3
   6  -1  -4 4.16688 1.94133   1
  -6   1   4 2.05162 1.91419   4
  -6   1   4 2.93924 1.44865   1
  -6   1   4 2.60810 1.84431   2
  -6   1   4 0.85279 1.92295   2
   5  -1  -4 2.45375 1.38456   3
   5  -1  -4 -0.6815 1.05845   1
  -5   1   4 0.29404 1.22674   2
  -5   1   4 1.46583 1.03807   1
  -5   1   4 2.10625 1.75516   4
  -5   1   4 1.26203 1.54615   2
   4  -1  -4 145.136 5.03383   3
   4  -1  -4 148.082 5.18442   1
  -4   1   4 145.713 6.83879   4
  -4   1   4 150.504 5.03277   2
  -4   1   4 155.806 4.98183   2
  -4   1   4 152.751 4.48849   1
   3  -1  -4 17.0307 1.92417   1
   3  -1  -4 19.7627 1.94502   3
  -3   1   4 21.5362 1.70161   1
  -3   1   4 20.1049 1.87044   2
  -3   1   4 24.6026 3.42520   4
  -3   1   4 22.8299 2.07721   2
   2  -1  -4 28.3425 2.16390   1
  -2   1   4 28.5702 3.57532   4
  -2   1   4 34.3996 1.96323   1
  -2   1   4 33.2361 2.23310   2
  -2   1   4 33.1055 2.24958   2
   1  -1  -4 441.043 10.1374   1
   1  -1  -4 450.050 9.80836   3
  -1   1   4 429.249 9.74266   2
  -1   1   4 447.519 9.50049   3
  -1   1   4 452.707 9.84710   2
  -1   1   4 426.746 9.72120   1
   0  -1  -4 98.5673 4.27580   3
   0  -1  -4 101.044 4.42484   1
   0   1   4 99.8609 4.33225   2
   0   1   4 100.079 4.23881   1
   0   1   4 101.004 4.32595   2
   0   1   4 105.061 4.18094   3
  -1  -1  -4 67.3817 3.98380   3
  -1  -1  -4 70.0894 4.21462   1
   1   1   4 71.0567 4.09458   1
   1   1   4 76.7413 4.06021   3
   1   1   4 72.5758 4.09856   2
  -2  -1  -4 229.992 8.15220   2
  -2  -1  -4 265.706 8.91987   1
  -2  -1  -4 232.727 8.25001   3
   2   1   4 247.591 8.39887   3
   2   1   4 253.575 8.74493   1
   2   1   4 244.644 8.24417   2
  -3  -1  -4 23.2473 3.72935   1
  -3  -1  -4 23.8786 3.77075   2
  -3  -1  -4 22.7993 3.35069   3
   3   1   4 15.9138 2.93777   2
   3   1   4 26.2772 3.58924   3
   3   1   4 19.6947 3.32964   1
  -4  -1  -4 0.91702 2.02966   1
  -4  -1  -4 -1.4855 1.99462   3
   4   1   4 -1.6875 1.51532   1
   4   1   4 3.81128 2.33091   3
  -5  -1  -4 0.71652 2.28646   1
  -5  -1  -4 0.32546 2.34496   3
   5   1   4 4.03820 2.64166   1
   5   1   4 0.70823 2.05816   3
  -6  -1  -4 20.4934 4.31367   3
  -6  -1  -4 26.8864 4.78609   1
   6   1   4 28.7797 5.47591   1
   6   1   4 25.2835 4.63123   3
  10  -2  -4 41.2556 6.08065   1
  10  -2  -4 31.2856 5.27718   3
 -10   2   4 34.8682 4.30693   3
 -10   2   4 37.2680 5.93061   2
   9  -2  -4 12.2430 3.41325   3
   9  -2  -4 13.2538 3.62716   1
  -9   2   4 15.4181 4.11620   2
  -9   2   4 16.9328 3.07438   3
   8  -2  -4 61.1747 5.83541   3
   8  -2  -4 53.6828 5.71902   1
  -8   2   4 62.5758 4.34912   3
  -8   2   4 54.0529 4.90546   1
  -8   2   4 64.9504 5.96965   2
   7  -2  -4 290.908 9.96691   3
   7  -2  -4 280.658 10.1412   1
  -7   2   4 292.269 10.0551   2
  -7   2   4 294.141 9.22914   1
  -7   2   4 301.234 8.86615   3
  -7   2   4 293.373 9.78764   2
  -7   2   4 293.161 9.91648   4
   6  -2  -4 21.4707 3.18727   1
   6  -2  -4 27.2587 3.38131   3
  -6   2   4 26.5778 3.66831   4
  -6   2   4 23.5283 2.68018   3
  -6   2   4 25.2037 2.92304   1
  -6   2   4 27.5057 3.40799   2
  -6   2   4 26.7976 3.12631   2
   5  -2  -4 69.0670 3.97294   3
   5  -2  -4 70.9378 4.09815   1
  -5   2   4 60.5444 4.64866   4
  -5   2   4 62.7168 3.33376   3
  -5   2   4 72.6672 4.06003   2
  -5   2   4 65.6661 3.83476   2
  -5   2   4 69.4628 3.62709   1
   4  -2  -4 1696.05 31.2195   1
  -4   2   4 1661.18 30.3063   2
  -4   2   4 1597.51 33.2146   4
  -4   2   4 1663.52 30.5148   2
  -4   2   4 1653.39 30.1150   1
  -4   2   4 1712.82 29.8859   3
   3  -2  -4 308.551 8.20453   1
  -3   2   4 306.657 7.71798   1
  -3   2   4 315.952 7.52409   3
  -3   2   4 307.780 7.89631   2
  -3   2   4 310.394 7.83168   2
   2  -2  -4 1731.63 31.9148   1
  -2   2   4 1748.52 31.4789   1
  -2   2   4 1799.39 31.1653   3
  -2   2   4 1744.19 31.4716   2
  -2   2   4 1714.23 31.3816   2
   1  -2  -4 988.367 19.7905   3
   1  -2  -4 1016.61 20.2788   1
  -1   2   4 998.346 19.6771   2
  -1   2   4 997.317 19.7855   1
  -1   2   4 983.205 19.3893   3
   0  -2  -4 109.335 4.90335   3
   0  -2  -4 97.9412 4.80664   1
   0   2   4 102.478 4.81004   1
   0   2   4 108.099 4.76246   3
   0   2   4 113.683 4.90948   2
  -1  -2  -4 257.913 8.87078   1
  -1  -2  -4 275.678 8.52687   2
  -1  -2  -4 266.051 8.56782   3
   1   2   4 260.767 8.72314   1
   1   2   4 281.347 8.67829   3
   1   2   4 277.639 8.58004   2
  -2  -2  -4 548.342 14.9687   1
  -2  -2  -4 570.192 14.7346   3
  -2  -2  -4 563.557 14.5171   2
   2   2   4 564.611 15.0964   1
   2   2   4 532.567 14.2065   2
  -3  -2  -4 171.167 7.95643   3
  -3  -2  -4 178.714 8.33006   1
   3   2   4 160.029 8.12872   1
   3   2   4 176.135 8.37685   1
   3   2   4 182.171 7.97141   2
   3   2   4 175.165 8.06942   3
  -4  -2  -4 2.19644 2.32301   3
  -4  -2  -4 2.37843 2.69861   1
   4   2   4 -1.1334 1.79480   3
   4   2   4 0.12078 1.88542   1
  -5  -2  -4 1.83545 2.67186   1
  -5  -2  -4 -1.8915 2.42704   3
   5   2   4 0.31335 2.19129   3
   5   2   4 0.12027 2.17696   1
  -6  -2  -4 25.4746 5.04053   1
  -6  -2  -4 22.5648 4.69428   3
   6   2   4 28.1995 5.10108   3
   6   2   4 29.5785 5.48811   1
  10  -3  -4 6.83973 3.36836   3
  10  -3  -4 8.43145 3.47049   1
 -10   3   4 10.3271 2.84883   3
   9  -3  -4 64.8402 6.82123   1
   9  -3  -4 57.3653 6.17210   3
  -9   3   4 66.6450 5.02365   3
  -9   3   4 84.6397 7.53962   1
  -9   3   4 72.7836 6.77931   2
   8  -3  -4 241.797 9.84816   1
   8  -3  -4 224.052 9.35115   3
  -8   3   4 233.941 8.89542   1
  -8   3   4 238.342 8.52386   3
  -8   3   4 221.363 9.44790   2
   7  -3  -4 76.4258 5.14502   3
   7  -3  -4 71.0719 5.31495   1
  -7   3   4 70.4830 4.53012   3
  -7   3   4 80.9463 5.46891   2
  -7   3   4 84.7689 5.00311   1
  -7   3   4 73.9213 4.95068   4
   6  -3  -4 119.096 6.13068   1
   6  -3  -4 130.950 6.04008   3
  -6   3   4 130.084 5.33560   3
  -6   3   4 100.588 5.92279   4
  -6   3   4 126.268 5.54268   1
  -6   3   4 127.566 6.03134   2
   5  -3  -4 304.325 9.25106   1
  -5   3   4 297.863 8.20088   3
  -5   3   4 297.161 8.78571   2
  -5   3   4 296.509 8.43831   1
  -5   3   4 264.871 9.82131   4
   4  -3  -4 2132.25 39.5462   1
  -4   3   4 2110.21 38.7707   2
  -4   3   4 2160.69 38.4083   3
  -4   3   4 2161.77 38.7394   1
   3  -3  -4 743.063 16.5547   1
  -3   3   4 779.479 16.2254   2
  -3   3   4 766.875 15.8767   3
  -3   3   4 785.715 16.2056   2
  -3   3   4 758.091 16.1648   1
   2  -3  -4 14.8798 2.44075   1
   2  -3  -4 17.0631 2.37980   3
  -2   3   4 16.3309 2.25318   1
  -2   3   4 14.1949 2.04353   3
  -2   3   4 17.2832 2.32845   2
   1  -3  -4 431.119 10.6824   2
   1  -3  -4 420.285 11.2217   1
   1  -3  -4 420.328 10.9110   3
  -1   3   4 415.323 10.7014   2
  -1   3   4 406.173 10.7823   1
  -1   3   4 421.933 10.6837   3
   0  -3  -4 401.318 10.7898   2
   0  -3  -4 380.849 10.7630   3
   0  -3  -4 372.239 11.0402   1
   0   3   4 405.682 10.7695   3
   0   3   4 402.557 11.1160   1
   0   3   4 391.097 10.7854   2
  -1  -3  -4 9.03958 2.46999   2
  -1  -3  -4 2.55908 1.61877   1
  -1  -3  -4 5.65725 2.15244   3
   1   3   4 4.88897 1.99773   1
   1   3   4 3.87425 1.87283   2
   1   3   4 2.13508 1.73503   3
  -2  -3  -4 299.602 10.7001   1
  -2  -3  -4 303.807 10.4484   3
  -2  -3  -4 294.966 10.2397   2
   2   3   4 294.024 10.7262   1
   2   3   4 291.223 10.2898   3
   2   3   4 279.004 9.96952   2
  -3  -3  -4 300.668 11.4983   1
  -3  -3  -4 306.201 11.2148   3
   3   3   4 314.206 11.7107   1
   3   3   4 287.144 11.4670   1
   3   3   4 295.592 11.0201   3
  -4  -3  -4 17.8581 3.98748   1
  -4  -3  -4 24.6678 4.46047   3
   4   3   4 18.9129 3.90593   3
   4   3   4 18.2806 3.94540   1
  -5  -3  -4 18.9585 4.45813   3
  -5  -3  -4 18.6065 4.55591   1
   5   3   4 20.6038 4.58192   1
   5   3   4 12.5958 3.50184   3
  11  -4  -4 18.4258 4.93889   1
  11  -4  -4 18.5300 4.36329   3
 -11   4   4 11.3364 3.38566   3
  10  -4  -4 156.949 9.00780   3
  10  -4  -4 145.509 9.04020   1
 -10   4   4 163.057 8.09624   3
   9  -4  -4 327.130 12.6502   1
   9  -4  -4 327.932 12.3485   3
  -9   4   4 345.857 11.9670   1
  -9   4   4 342.688 12.5915   2
  -9   4   4 319.337 11.1325   3
   8  -4  -4 99.8606 6.37789   3
   8  -4  -4 99.6991 6.84770   1
  -8   4   4 93.4507 6.57983   2
  -8   4   4 106.032 5.91323   3
  -8   4   4 96.5938 5.16252   4
  -8   4   4 97.8354 6.02362   1
   7  -4  -4 2.79495 2.05032   1
  -7   4   4 0.59002 1.62553   1
  -7   4   4 0.98840 1.53957   3
  -7   4   4 2.41918 2.41214   2
  -7   4   4 2.04229 2.04452   4
   6  -4  -4 59.2803 5.36200   1
  -6   4   4 75.6039 4.68303   1
  -6   4   4 63.5181 4.63588   2
  -6   4   4 63.9594 4.15498   3
  -6   4   4 62.2066 5.15887   4
   5  -4  -4 688.079 16.5549   1
  -5   4   4 687.307 15.8755   2
  -5   4   4 666.048 15.3572   3
  -5   4   4 673.906 15.6895   1
   4  -4  -4 234.702 8.05899   1
  -4   4   4 238.976 7.70473   2
  -4   4   4 239.842 7.67758   1
  -4   4   4 227.622 7.36161   3
   3  -4  -4 2.15063 1.42483   2
   3  -4  -4 1.41450 1.52308   3
   3  -4  -4 2.19984 1.45741   1
  -3   4   4 3.41560 1.43940   3
  -3   4   4 4.05108 1.38960   2
  -3   4   4 4.27961 1.53949   1
   2  -4  -4 -0.4884 1.21790   2
   2  -4  -4 1.19772 1.34839   3
   2  -4  -4 -0.8398 1.09236   1
  -2   4   4 0.35552 1.08982   1
  -2   4   4 -0.6190 1.00132   3
  -2   4   4 0.35040 1.34532   2
   1  -4  -4 3.50338 1.80278   3
   1  -4  -4 4.68519 1.92427   1
   1  -4  -4 7.75598 2.11865   2
  -1   4   4 3.96318 1.65771   3
  -1   4   4 2.77499 1.71921   1
  -1   4   4 0.70356 1.57820   2
   0  -4  -4 161.638 7.05563   3
   0  -4  -4 192.688 7.47272   2
   0  -4  -4 160.499 7.24762   1
   0   4   4 179.280 7.55570   1
   0   4   4 174.775 7.10120   3
   0   4   4 173.739 6.99481   2
  -1  -4  -4 -0.1803 1.93348   3
  -1  -4  -4 0.45506 1.72326   1
  -1  -4  -4 1.92967 2.31750   2
   1   4   4 -0.2005 1.64991   3
   1   4   4 1.30757 1.66667   2
   1   4   4 3.96888 2.17669   1
  -2  -4  -4 124.965 7.09168   3
  -2  -4  -4 124.975 7.29546   1
   2   4   4 107.677 6.84831   1
   2   4   4 120.559 6.98936   3
  -3  -4  -4 68.8307 6.69450   1
  -3  -4  -4 56.3423 5.97832   3
   3   4   4 70.7822 6.39948   3
  -4  -4  -4 56.6288 6.40472   3
  -4  -4  -4 64.4858 7.04899   1
   4   4   4 58.7083 6.71406   1
   4   4   4 65.7630 6.87439   3
   4   4   4 74.2421 8.07222   1
   5   4   4 5.95470 3.28709   3
  11  -5  -4 1.30450 2.57822   3
  11  -5  -4 4.35381 3.41586   1
 -11   5   4 1.84730 2.49755   3
  10  -5  -4 69.0816 7.63882   1
  10  -5  -4 60.8619 6.67912   3
 -10   5   4 73.4890 6.62833   3
 -10   5   4 65.1507 8.38194   1
   9  -5  -4 53.7711 6.33854   1
  -9   5   4 54.6120 5.73864   1
  -9   5   4 52.5394 5.98771   2
  -9   5   4 45.3970 5.07909   3
   8  -5  -4 3.33043 2.25014   1
  -8   5   4 1.14825 2.47481   2
  -8   5   4 0.69473 1.84329   3
  -8   5   4 2.03314 1.76034   4
  -8   5   4 1.98450 1.94097   1
   7  -5  -4 18.9457 3.54998   1
  -7   5   4 25.4639 3.86182   2
  -7   5   4 27.1387 4.02328   4
  -7   5   4 14.7628 2.85579   3
  -7   5   4 24.9319 3.64115   1
   6  -5  -4 196.068 8.29679   1
  -6   5   4 195.436 7.83212   2
  -6   5   4 191.467 7.60080   1
  -6   5   4 180.108 7.31272   3
   5  -5  -4 3.54358 1.71265   2
   5  -5  -4 1.51461 1.65643   1
  -5   5   4 5.18111 1.84638   3
  -5   5   4 3.43974 1.61879   1
  -5   5   4 4.02253 1.99056   2
   4  -5  -4 272.191 9.32962   1
   4  -5  -4 271.395 8.68660   2
  -4   5   4 272.799 9.00694   1
  -4   5   4 291.573 8.93072   3
  -4   5   4 285.020 8.87654   2
   3  -5  -4 117.246 5.95705   1
   3  -5  -4 128.026 5.85652   3
   3  -5  -4 114.747 5.49089   2
  -3   5   4 112.430 5.49029   2
  -3   5   4 112.885 5.70269   1
  -3   5   4 120.769 5.53694   3
   2  -5  -4 22.5323 3.20397   3
   2  -5  -4 24.1609 3.49360   1
   2  -5  -4 23.9077 3.19051   2
  -2   5   4 22.0687 3.01993   2
  -2   5   4 23.2211 3.12762   3
  -2   5   4 16.8910 2.76102   1
   1  -5  -4 11.9147 2.75217   3
   1  -5  -4 10.2408 2.58311   1
   1  -5  -4 7.83026 2.32585   2
  -1   5   4 9.83671 2.45290   1
  -1   5   4 5.55257 2.10655   2
  -1   5   4 9.58883 2.37499   3
   0  -5  -4 107.889 6.47594   2
   0  -5  -4 122.557 6.54003   3
   0  -5  -4 127.782 6.80250   1
   0   5   4 125.803 6.53877   3
   0   5   4 116.159 6.33332   2
   0   5   4 115.255 6.62876   1
  -1  -5  -4 252.933 9.85473   3
  -1  -5  -4 255.999 10.1794   1
   1   5   4 240.240 9.66440   3
   1   5   4 249.843 10.2547   1
  -2  -5  -4 74.5207 6.78230   3
  -2  -5  -4 71.1435 6.63270   1
   2   5   4 70.6126 6.94335   1
   2   5   4 77.9212 7.16481   3
  -3  -5  -4 8.49188 2.95910   3
  -3  -5  -4 13.5610 3.67280   1
   3   5   4 4.02879 2.43187   3
   3   5   4 9.34289 3.53423   1
  -4  -5  -4 3.27570 3.29848   1
  -4  -5  -4 7.15070 3.46254   3
   4   5   4 4.67394 2.89709   1
   4   5   4 9.57429 3.85932   1
   4   5   4 3.77801 3.00476   3
  11  -6  -4 47.7876 6.89992   1
 -11   6   4 54.0222 6.19175   3
  10  -6  -4 90.9145 9.25361   1
 -10   6   4 95.0979 7.05013   1
 -10   6   4 66.9295 6.44945   3
   9  -6  -4 185.570 9.73812   1
  -9   6   4 200.277 9.24535   1
  -9   6   4 180.461 8.49898   3
   8  -6  -4 364.380 13.0400   1
  -8   6   4 373.730 12.0454   3
  -8   6   4 350.041 11.7457   4
  -8   6   4 370.634 12.4912   1
  -8   6   4 390.108 12.8569   2
   7  -6  -4 61.1634 6.15997   1
  -7   6   4 56.3901 5.21870   3
  -7   6   4 62.3031 5.78300   2
  -7   6   4 53.6543 5.22049   1
   6  -6  -4 1.55938 2.09063   1
  -6   6   4 0.42611 1.57702   3
  -6   6   4 1.34111 1.91576   2
  -6   6   4 1.77751 1.74506   1
   5  -6  -4 -1.8476 1.35431   2
   5  -6  -4 -1.3144 1.33160   1
  -5   6   4 -0.4331 1.31985   1
  -5   6   4 0.39636 1.74281   2
  -5   6   4 -0.4022 1.48640   3
   4  -6  -4 19.5129 3.25564   3
   4  -6  -4 21.6752 3.04297   2
   4  -6  -4 17.2574 3.15305   1
  -4   6   4 21.6962 3.21172   2
  -4   6   4 19.2744 3.12622   1
  -4   6   4 13.4249 2.58779   3
   3  -6  -4 385.477 11.3388   2
   3  -6  -4 374.385 11.8647   1
   3  -6  -4 367.826 11.2972   3
  -3   6   4 385.442 11.3116   2
  -3   6   4 390.280 11.8776   1
  -3   6   4 367.462 11.2335   3
   2  -6  -4 16.8149 3.23329   1
   2  -6  -4 17.1461 3.06314   3
   2  -6  -4 15.2905 2.89473   2
  -2   6   4 14.6446 2.89019   1
  -2   6   4 12.1908 2.62988   3
  -2   6   4 18.5658 3.07973   2
   1  -6  -4 57.4711 5.27036   2
   1  -6  -4 63.2805 5.62847   3
   1  -6  -4 46.9041 5.00797   1
  -1   6   4 55.8649 5.38582   1
  -1   6   4 58.4705 5.40112   3
   0  -6  -4 32.3462 4.57397   1
   0  -6  -4 33.1240 4.35183   3
   0  -6  -4 25.8964 5.38237   2
   0   6   4 35.2108 4.64858   3
   0   6   4 30.0942 4.36622   1
  -1  -6  -4 2.13553 2.22722   1
  -1  -6  -4 4.60346 2.48812   3
   1   6   4 -0.6126 1.66058   3
   1   6   4 1.75870 1.88355   1
  -2  -6  -4 4.29536 2.80963   1
  -2  -6  -4 7.71183 2.78978   3
   2   6   4 4.92954 2.67233   1
   2   6   4 5.37964 2.96313   3
  -3  -6  -4 16.7876 3.99679   3
  -3  -6  -4 20.0469 4.54555   1
   3   6   4 23.3858 4.93779   3
   3   6   4 23.2253 5.27195   1
  11  -7  -4 0.06433 2.68342   1
  10  -7  -4 43.0756 6.18748   1
 -10   7   4 37.6852 5.07908   3
 -10   7   4 35.9868 5.28066   1
   9  -7  -4 142.885 8.75307   1
  -9   7   4 147.119 7.93069   3
  -9   7   4 157.947 8.59506   1
   8  -7  -4 12.1266 3.40733   1
  -8   7   4 8.26187 2.95845   1
  -8   7   4 7.93513 3.17094   4
  -8   7   4 7.87909 2.69774   3
   7  -7  -4 8.05026 2.73017   1
  -7   7   4 12.2809 3.13217   1
  -7   7   4 14.0225 3.03283   3
   6  -7  -4 24.1686 3.99972   1
  -6   7   4 20.3503 3.41346   3
  -6   7   4 23.7739 3.95931   2
  -6   7   4 29.7876 4.29168   1
   5  -7  -4 95.2646 6.50858   2
   5  -7  -4 96.2266 6.16800   1
   5  -7  -4 96.8541 6.07522   3
  -5   7   4 101.043 6.00061   3
  -5   7   4 97.5367 6.05586   1
  -5   7   4 98.0174 5.80388   2
   4  -7  -4 -0.1313 1.74552   2
   4  -7  -4 -2.2756 1.37989   1
   4  -7  -4 1.51543 1.80534   3
  -4   7   4 -1.4772 1.85521   2
  -4   7   4 -0.1450 1.46356   3
  -4   7   4 -0.4277 1.69094   1
   3  -7  -4 66.2696 5.31398   1
   3  -7  -4 62.4140 5.32453   2
   3  -7  -4 52.1101 5.18915   3
  -3   7   4 62.0241 5.47299   3
  -3   7   4 62.4154 5.94309   1
   2  -7  -4 -3.5342 1.53233   3
   2  -7  -4 0.58235 1.96362   2
   2  -7  -4 -1.3626 1.62653   1
  -2   7   4 0.65089 1.75396   3
  -2   7   4 0.66614 1.67795   1
   1  -7  -4 3.32444 2.37618   3
   1  -7  -4 1.74051 1.99508   1
  -1   7   4 1.56502 1.94731   3
  -1   7   4 1.90761 2.15842   1
   0  -7  -4 148.228 8.31718   1
   0  -7  -4 141.602 7.89188   3
   0   7   4 132.298 8.08411   1
   0   7   4 129.019 7.74615   3
  -1  -7  -4 127.248 8.17562   1
  -1  -7  -4 122.572 7.62298   3
   1   7   4 119.997 8.08541   1
   1   7   4 114.499 7.58388   3
  -2  -7  -4 7.59894 3.08913   3
  -2  -7  -4 9.16713 3.49952   1
   2   7   4 5.04956 2.81403   1
   2   7   4 10.4860 3.42881   3
  10  -8  -4 -0.1606 2.31522   1
 -10   8   4 5.96725 3.20460   1
 -10   8   4 2.57245 2.32878   3
   9  -8  -4 52.5712 6.46152   1
  -9   8   4 58.7496 6.28297   3
  -9   8   4 51.8452 6.01714   1
   8  -8  -4 3.22829 2.69937   1
  -8   8   4 4.01364 2.42346   3
  -8   8   4 5.89026 2.61357   1
   7  -8  -4 50.0272 6.17537   1
  -7   8   4 51.4862 5.54820   3
  -7   8   4 52.2915 5.64674   1
   6  -8  -4 131.664 7.40582   3
   6  -8  -4 130.105 7.62198   1
  -6   8   4 137.236 7.61282   1
  -6   8   4 122.910 7.05722   3
   5  -8  -4 99.9089 6.27077   3
   5  -8  -4 101.322 6.70390   1
  -5   8   4 91.7184 6.14863   3
  -5   8   4 101.993 6.75513   1
   4  -8  -4 5.25047 2.53311   3
   4  -8  -4 7.79297 2.54041   1
  -4   8   4 4.93769 2.53559   3
  -4   8   4 5.58654 2.57848   1
   3  -8  -4 5.96665 2.59454   1
   3  -8  -4 8.68569 2.64699   3
  -3   8   4 13.0072 3.02829   3
  -3   8   4 10.4050 2.82122   1
   2  -8  -4 19.0887 3.94207   1
   2  -8  -4 17.1632 3.43715   3
  -2   8   4 9.89535 2.83196   1
  -2   8   4 10.6349 2.89149   3
   1  -8  -4 159.440 8.50978   3
   1  -8  -4 182.243 9.30609   1
  -1   8   4 188.239 9.24451   3
  -1   8   4 179.029 9.41878   1
   0  -8  -4 88.0484 6.81104   3
   0  -8  -4 86.6635 7.80909   1
   0   8   4 77.8566 7.52151   3
   0   8   4 72.1324 7.46266   1
  -1  -8  -4 -1.7327 2.82895   1
  -1  -8  -4 0.25449 2.41812   3
   1   8   4 2.35928 2.55484   1
   1   8   4 2.65643 2.42745   3
  10  -9  -4 69.4221 7.77498   1
 -10   9   4 65.7694 7.19932   3
 -10   9   4 64.9759 7.41540   1
   9  -9  -4 1.43831 2.86042   1
  -9   9   4 3.67762 2.79859   1
  -9   9   4 2.43603 2.47892   3
   8  -9  -4 30.7551 5.30759   1
  -8   9   4 24.5257 4.46603   3
  -8   9   4 28.5667 4.93982   1
   7  -9  -4 68.7365 7.18257   1
   7  -9  -4 65.3339 6.71476   3
  -7   9   4 59.5482 6.44735   1
  -7   9   4 73.0378 7.00652   3
   6  -9  -4 31.8403 4.49919   3
   6  -9  -4 31.7596 4.90702   1
  -6   9   4 35.3113 4.74618   3
  -6   9   4 33.5792 4.82413   1
   5  -9  -4 42.6492 5.27362   1
   5  -9  -4 43.6674 5.33660   3
  -5   9   4 38.9437 5.08794   1
  -5   9   4 39.7151 5.08611   3
   4  -9  -4 76.6570 7.24973   1
   4  -9  -4 64.9924 6.32137   3
  -4   9   4 65.3391 6.53739   1
  -4   9   4 72.0107 6.53704   3
   3  -9  -4 5.84518 2.75605   3
   3  -9  -4 11.8550 3.57547   1
  -3   9   4 11.1593 3.25103   1
  -3   9   4 17.0826 3.84076   3
   2  -9  -4 17.2239 4.03141   1
   2  -9  -4 15.1735 3.59640   3
  -2   9   4 13.2765 3.55441   1
  -2   9   4 20.9695 3.98785   3
   1  -9  -4 28.6701 4.83723   3
   1  -9  -4 26.4847 4.81021   1
  -1   9   4 22.6018 4.53497   1
  -1   9   4 35.2142 5.19897   3
   0  -9  -4 28.3922 4.92301   3
   0   9   4 38.8343 5.99371   1
   0   9   4 30.6244 5.23476   3
   9 -10  -4 69.8467 7.84970   1
  -9  10   4 69.2914 7.36545   3
  -9  10   4 75.6785 7.80103   1
   8 -10  -4 -0.9158 2.28255   3
   8 -10  -4 2.45518 2.54941   1
  -8  10   4 0.92430 2.21423   1
  -8  10   4 -2.1336 1.76357   3
   7 -10  -4 6.27252 3.23782   1
   7 -10  -4 3.26755 2.53805   3
  -7  10   4 6.75583 2.82878   3
  -7  10   4 6.85887 3.02716   1
   6 -10  -4 80.3331 7.36200   3
   6 -10  -4 78.1252 7.62472   1
  -6  10   4 97.3548 7.04751   3
  -6  10   4 86.0924 8.12545   1
   5 -10  -4 0.96167 2.25185   3
   5 -10  -4 -2.6432 2.05458   1
  -5  10   4 1.63395 2.22556   1
  -5  10   4 3.30829 2.48226   3
   4 -10  -4 24.1202 4.86485   1
   4 -10  -4 26.0489 4.43251   3
  -4  10   4 34.4145 5.24247   3
  -4  10   4 26.1825 4.92251   1
   3 -10  -4 93.2950 8.33670   1
   3 -10  -4 106.875 7.33166   3
  -3  10   4 100.303 7.30792   3
  -3  10   4 100.515 8.97746   1
   2 -10  -4 16.6439 5.40031   1
   2 -10  -4 13.9573 3.71166   3
  -2  10   4 19.7313 4.27385   1
  -2  10   4 14.5593 3.80534   3
   1 -10  -4 2.12703 3.01165   3
  -1  10   4 6.17641 2.93585   3
  -1  10   4 7.99067 3.04999   1
   8 -11  -4 -0.3019 2.82496   1
   8 -11  -4 3.19201 2.64558   3
  -8  11   4 2.51585 2.61789   1
  -8  11   4 3.07239 2.70126   3
   7 -11  -4 26.4508 5.13397   1
   7 -11  -4 12.9498 3.62309   3
  -7  11   4 16.5871 4.16300   3
  -7  11   4 17.1773 4.50075   1
   6 -11  -4 1.74606 2.61074   1
   6 -11  -4 -1.6833 2.12635   3
  -6  11   4 1.29705 2.61276   3
  -6  11   4 -0.2355 2.24126   1
   5 -11  -4 113.659 8.47313   1
   5 -11  -4 103.814 7.46564   3
  -5  11   4 105.150 7.80143   3
  -5  11   4 118.859 8.56908   1
   4 -11  -4 99.2866 7.57175   3
  -4  11   4 118.477 8.26621   3
  -4  11   4 105.539 8.06261   1
   3 -11  -4 81.2726 7.60754   3
  -3  11   4 75.7712 8.12877   3
  -3  11   4 73.4141 7.85832   1
  -2  12  -5 50.4284 5.69401   1
   2 -12   5 56.8730 6.04905   2
  -3  12  -5 2.25502 2.08944   1
   3 -12   5 -1.1517 2.31295   2
  -4  12  -5 20.5239 4.01738   1
   4 -12   5 25.1292 4.37109   2
   1  11  -5 130.701 7.70431   1
  -1 -11   5 138.838 8.04099   2
   0  11  -5 44.9630 4.98437   1
   0 -11   5 44.8982 5.13812   2
  -1  11  -5 -0.9263 1.47883   1
   1 -11   5 1.15095 2.19850   2
  -2  11  -5 0.44961 1.66480   1
   2 -11   5 6.83802 2.63910   2
  -3  11  -5 0.35770 1.72245   1
   3 -11   5 0.92425 2.12424   2
  -4  11  -5 20.7126 3.91934   1
   4 -11   5 28.6911 4.51531   2
  -5  11  -5 5.70532 2.65886   1
   5 -11   5 4.29115 2.34343   2
   6 -11   5 3.08416 2.44790   2
   2  10  -5 106.558 6.64542   1
  -2 -10   5 110.064 6.99261   2
   1  10  -5 29.8748 3.99537   1
   0  10  -5 2.46817 1.69548   1
  -1  10  -5 4.90848 1.94518   1
   1 -10   5 2.29018 2.04129   2
  -2  10  -5 38.8880 4.38545   1
   2 -10   5 52.3785 4.93940   2
  -3  10  -5 -0.9768 1.38784   1
   3 -10   5 2.25785 2.14636   2
  -4  10  -5 28.1120 4.18880   1
   4 -10   5 39.6117 4.63223   2
  -5  10  -5 8.82036 2.70429   1
  -6  10  -5 -1.4066 1.74591   1
   6 -10   5 1.61223 2.17667   2
   4   9  -5 0.12872 1.90540   1
  -4  -9   5 -1.7699 2.50402   2
   3   9  -5 5.68636 2.45106   1
  -3  -9   5 6.14292 2.74674   2
   2   9  -5 16.8363 2.93556   1
   1   9  -5 0.49851 1.34086   1
   0   9  -5 60.2023 4.27149   1
  -1   9  -5 37.2755 3.79689   1
  -2   9  -5 160.289 6.93638   1
  -3   9  -5 0.78512 1.54279   1
   3  -9   5 2.70614 1.97020   2
  -4   9  -5 70.2822 5.21612   1
   4  -9   5 65.1131 5.65422   2
  -5   9  -5 -0.2799 1.46449   1
  -5   9  -5 1.06547 1.98037   3
   5  -9   5 1.01290 1.88749   2
  -6   9  -5 110.439 7.46950   1
  -6   9  -5 114.098 7.29370   3
   6  -9   5 126.278 7.65315   2
  -7   9  -5 108.898 7.75859   3
  -7   9  -5 94.4192 7.42358   1
   7  -9   5 105.742 7.70842   2
   5   8  -5 2.13027 2.22627   1
  -5  -8   5 5.70118 3.25622   2
   4   8  -5 10.8404 3.06272   1
  -4  -8   5 9.27547 3.09225   2
   3   8  -5 20.8694 3.17964   1
   2   8  -5 0.71980 1.39110   1
   1   8  -5 20.8741 2.68410   1
   0   8  -5 23.2938 2.82669   1
  -1   8  -5 19.3854 2.68618   1
  -2   8  -5 184.719 7.12123   1
   2  -8   5 194.268 7.10398   2
  -3   8  -5 21.1347 3.07148   1
  -3   8  -5 20.9444 4.40011   3
   3  -8   5 27.0710 3.19524   2
   3  -8   5 24.2615 3.20432   2
  -4   8  -5 36.7124 4.31874   1
  -4   8  -5 44.0008 4.71304   3
   4  -8   5 37.2660 4.25683   2
  -5   8  -5 336.064 12.1096   1
  -5   8  -5 343.971 11.9619   3
   5  -8   5 335.679 11.6455   2
  -6   8  -5 55.6987 6.22108   3
  -6   8  -5 48.8105 5.95343   1
   6  -8   5 58.1744 6.07286   2
  -7   8  -5 29.1370 4.93500   3
  -7   8  -5 32.6383 5.27327   1
   7  -8   5 39.3494 5.44808   2
   6   7  -5 -1.6835 2.04425   1
  -6  -7   5 0.31309 2.68595   2
   5   7  -5 44.5717 5.13650   1
  -5  -7   5 42.4001 5.10706   2
   4   7  -5 57.9986 5.21661   1
   3   7  -5 85.3868 4.86067   1
   2   7  -5 2.86859 1.47083   1
  -1   7  -5 1.66627 1.24025   1
  -2   7  -5 5.14348 1.45074   3
  -2   7  -5 4.10626 1.60351   1
  -3   7  -5 114.828 5.46896   3
  -3   7  -5 106.855 5.62001   1
   3  -7   5 110.258 5.41284   2
   3  -7   5 105.908 5.33553   2
  -4   7  -5 68.2041 5.10116   1
  -4   7  -5 69.5565 4.96971   3
   4  -7   5 72.1450 4.99069   2
  -5   7  -5 350.405 11.8913   3
  -5   7  -5 327.920 12.0976   1
   5  -7   5 347.769 11.6662   2
  -6   7  -5 29.8390 4.34801   1
  -6   7  -5 37.0235 4.87864   3
   6  -7   5 38.5194 4.88573   2
  -7   7  -5 2.30333 2.22820   3
  -7   7  -5 1.37051 2.18306   1
   7  -7   5 3.54770 2.57012   2
   6   6  -5 33.4735 4.86179   1
  -6  -6   5 34.6551 4.77937   2
   5   6  -5 15.9009 3.13309   1
   4   6  -5 20.8934 3.06074   1
   3   6  -5 3.58514 1.59077   1
  -1   6  -5 21.5621 2.32585   1
  -2   6  -5 38.5232 3.28937   3
  -2   6  -5 27.4255 3.07573   1
   2  -6   5 31.2046 3.05916   2
  -3   6  -5 804.615 18.3233   1
  -3   6  -5 783.137 17.7414   3
   3  -6   5 772.074 17.5854   2
   3  -6   5 774.157 17.5613   2
  -4   6  -5 -1.8163 1.39586   1
  -4   6  -5 -2.9014 1.41776   3
   4  -6   5 -0.2880 1.42490   2
  -5   6  -5 55.0329 5.67335   1
  -5   6  -5 55.8056 5.61369   3
   5  -6   5 49.0757 5.15117   2
  -6   6  -5 185.746 9.14849   3
  -6   6  -5 174.422 9.29486   1
   6  -6   5 173.769 8.73112   2
  -7   6  -5 109.603 7.79647   3
  -7   6  -5 102.514 7.76282   1
   7   5  -5 -1.8368 2.13622   1
  -7  -5   5 1.78836 3.17613   2
   6   5  -5 14.6945 3.29034   1
  -6  -5   5 14.6548 3.44450   2
   5   5  -5 352.123 10.9223   1
  -5  -5   5 334.875 10.1553   2
   4   5  -5 78.1166 4.40415   1
   0  -5   5 1.88437 2.10680   4
  -1   5  -5 8.93951 1.54470   1
   1  -5   5 5.55065 2.54805   4
  -2   5  -5 371.612 10.0719   1
  -2   5  -5 387.008 9.88847   3
   2  -5   5 388.567 9.87397   2
   2  -5   5 408.461 13.6441   4
   2  -5   5 394.859 9.91146   2
  -3   5  -5 929.560 20.2036   3
  -3   5  -5 893.925 20.4746   1
   3  -5   5 949.203 20.2510   2
   3  -5   5 943.245 23.0299   4
   3  -5   5 928.749 20.1581   2
  -4   5  -5 121.031 6.59131   1
  -4   5  -5 120.860 6.36267   3
   4  -5   5 119.387 6.34165   2
   4  -5   5 114.912 5.20464   1
   4  -5   5 113.834 6.50631   4
  -5   5  -5 37.3759 4.66116   3
  -5   5  -5 24.0612 3.88065   1
   5  -5   5 30.0110 4.43770   1
   5  -5   5 39.9437 4.85030   4
   5  -5   5 31.6664 4.18873   2
  -6   5  -5 28.8100 4.75325   3
  -6   5  -5 26.0879 4.67501   1
   6  -5   5 25.8038 4.25105   2
  -7   5  -5 1.92503 2.59015   3
  -7   5  -5 4.84886 2.89946   1
   7  -5   5 3.07158 2.06766   3
   8   4  -5 130.491 8.63829   1
  -8  -4   5 121.821 8.65359   2
   7   4  -5 55.5595 6.07445   1
  -7  -4   5 62.9874 6.25013   2
   6   4  -5 144.611 7.32161   1
   6   4  -5 142.192 7.18615   1
  -6  -4   5 139.635 7.11693   2
  -6  -4   5 144.890 6.89490   2
   5   4  -5 35.0192 3.76293   1
   4   4  -5 882.682 17.9736   1
  -2  -4   5 2.50727 2.43107   4
  -1  -4   5 285.724 11.7004   4
   0  -4   5 26.5937 4.38834   4
  -1   4  -5 120.585 4.36247   1
   1  -4   5 116.929 6.92283   4
  -2   4  -5 113.036 4.83591   3
  -2   4  -5 116.137 5.11779   1
   2  -4   5 111.776 4.81315   2
   2  -4   5 124.178 6.85587   4
   2  -4   5 116.558 4.91545   2
  -3   4  -5 1.43414 1.64305   3
  -3   4  -5 3.07212 1.76897   1
   3  -4   5 1.38610 1.56106   2
   3  -4   5 3.04830 1.73317   2
   3  -4   5 4.01232 1.30769   1
   3  -4   5 3.99135 1.97379   4
  -4   4  -5 9.71543 2.50769   3
  -4   4  -5 9.52086 2.48994   1
   4  -4   5 7.34935 2.38628   4
   4  -4   5 6.69124 1.77913   1
   4  -4   5 4.82826 2.04249   2
  -5   4  -5 20.5937 3.77561   3
  -5   4  -5 22.8194 3.83859   1
   5  -4   5 25.5831 3.86402   2
   5  -4   5 28.9092 3.76261   1
   5  -4   5 29.1093 4.46347   4
   5  -4   5 40.7716 4.21424   3
  -6   4  -5 115.938 7.42592   3
  -6   4  -5 126.479 7.98863   1
   6  -4   5 108.272 6.36220   3
   6  -4   5 110.452 7.23541   2
   6  -4   5 107.911 6.76860   1
  -7   4  -5 15.0741 4.23150   1
  -7   4  -5 3.94342 2.99160   3
   7  -4   5 5.60851 2.40611   3
   8   3  -5 43.8672 5.92007   1
  -8  -3   5 37.3193 5.42544   2
   7   3  -5 -2.3763 1.68396   1
  -7  -3   5 1.03919 2.55200   2
   6   3  -5 4.35796 2.19363   1
  -6  -3   5 2.61461 2.26053   2
  -6  -3   5 2.37319 1.88807   2
   5   3  -5 155.864 6.23713   1
   5   3  -5 153.739 5.77345   3
   5   3  -5 157.566 6.25816   1
  -3  -3   5 0.99684 2.03688   4
  -1  -3   5 404.372 13.5104   4
   0  -3   5 306.022 11.1700   4
  -1   3  -5 75.5142 3.50487   3
  -1   3  -5 76.4570 3.65361   1
   1  -3   5 83.0987 5.40041   4
  -2   3  -5 11.6292 2.16973   1
  -2   3  -5 8.20632 1.86243   3
   2  -3   5 9.42984 2.64315   4
   2  -3   5 11.8997 1.65153   1
   2  -3   5 11.5195 2.07396   2
   2  -3   5 12.0018 2.13451   2
  -3   3  -5 49.9428 4.50908   3
  -3   3  -5 56.0247 4.36819   1
   3  -3   5 50.1493 4.34726   2
   3  -3   5 54.1483 4.57599   4
   3  -3   5 47.3665 4.12058   2
   3  -3   5 43.7650 3.15227   3
   3  -3   5 49.8690 3.46404   1
  -4   3  -5 22.2318 3.64348   3
  -4   3  -5 22.1669 3.68795   1
   4  -3   5 24.3619 3.84616   4
   4  -3   5 27.3134 3.48008   1
   4  -3   5 27.5654 3.67265   2
   4  -3   5 27.9025 3.32681   3
  -5   3  -5 38.4965 5.01392   1
  -5   3  -5 34.7337 4.77995   3
   5  -3   5 49.9174 4.69794   4
   5  -3   5 38.4179 4.31969   3
   5  -3   5 44.2999 4.84964   1
   5  -3   5 38.0324 4.67531   2
  -6   3  -5 3.49823 2.63854   1
  -6   3  -5 2.71968 2.50126   3
   6  -3   5 -0.8690 1.80136   1
   6  -3   5 3.21365 2.19245   3
  -7   3  -5 45.0258 6.40483   1
  -7   3  -5 46.7429 6.05887   3
   7  -3   5 26.8254 4.52009   3
   9   2  -5 19.8679 4.66089   1
  -9  -2   5 24.3078 5.05175   2
   8   2  -5 2.15040 2.33098   1
  -8  -2   5 4.17833 3.11449   2
   7   2  -5 2.41729 2.13827   3
   7   2  -5 1.73096 2.05239   1
  -7  -2   5 2.20337 2.52516   2
   6   2  -5 16.3321 2.87481   1
   6   2  -5 17.4111 2.74725   3
  -6  -2   5 15.9166 3.00465   2
  -6  -2   5 12.6521 2.63473   2
   5   2  -5 146.466 5.71628   1
  -4  -2   5 33.1051 4.83903   4
  -3  -2   5 762.567 20.6950   4
  -2  -2   5 474.752 14.7729   4
  -1  -2   5 9.25115 2.69097   4
   0   2  -5 129.424 4.11593   1
   0  -2   5 124.487 6.71221   4
  -1   2  -5 0.66923 1.15570   3
  -1   2  -5 1.25051 1.17565   1
   1  -2   5 0.12760 1.04145   2
   1  -2   5 -0.1888 0.98015   2
   1  -2   5 1.90017 1.74668   4
  -2   2  -5 -0.2407 1.30030   1
  -2   2  -5 0.48114 1.37488   3
   2  -2   5 1.33002 1.39548   2
   2  -2   5 3.01333 2.05311   4
   2  -2   5 0.66897 1.08186   1
   2  -2   5 1.94813 1.19282   3
   2  -2   5 -0.0861 1.18039   2
  -3   2  -5 3.97333 1.74200   3
  -3   2  -5 6.62270 2.17305   1
   3  -2   5 6.36091 1.92828   3
   3  -2   5 5.26301 2.35722   4
   3  -2   5 4.51425 1.77502   1
   3  -2   5 5.91981 2.07846   2
  -4   2  -5 18.0392 3.34678   1
  -4   2  -5 23.8288 3.71978   3
   4  -2   5 27.2479 4.16394   4
   4  -2   5 20.6953 3.35371   1
   4  -2   5 26.9199 3.78161   2
   4  -2   5 24.2405 3.41850   3
  -5   2  -5 5.32961 2.55384   3
  -5   2  -5 5.42800 2.44818   1
   5  -2   5 2.80416 2.16934   1
   5  -2   5 5.62620 2.46637   2
   5  -2   5 3.16717 2.12519   3
   5  -2   5 6.07207 2.43845   4
  -6   2  -5 4.04194 2.75210   1
  -6   2  -5 4.66252 2.63324   3
   6  -2   5 10.6759 3.14531   1
   6  -2   5 6.85230 2.86060   3
  -7   2  -5 2.24467 2.64767   3
  -7   2  -5 1.68420 3.01722   1
   7  -2   5 1.89418 2.79497   1
   7  -2   5 6.40759 2.94026   3
   9   1  -5 18.1046 4.22544   1
  -9  -1   5 17.6834 4.39028   2
   8   1  -5 7.52049 2.75864   3
   8   1  -5 1.38762 2.21126   1
  -8  -1   5 5.15231 3.08008   2
   7   1  -5 3.84165 2.17117   3
   7   1  -5 3.94978 2.17587   1
  -7  -1   5 4.95166 2.59139   2
  -7  -1   5 4.19088 2.44438   2
   6   1  -5 37.2418 3.62930   3
   6   1  -5 29.3791 3.52987   1
  -6  -1   5 29.5661 3.34449   2
  -6  -1   5 30.3584 3.47444   2
   5   1  -5 50.6598 3.42448   1
   5   1  -5 48.3349 3.10619   3
  -5  -1   5 47.6865 5.63361   4
   4   1  -5 272.212 6.84543   1
  -4  -1   5 261.368 10.5901   4
  -3  -1   5 28.3720 4.24130   4
  -2  -1   5 3.41829 1.90213   4
   1   1  -5 7.30798 1.19612   1
  -1  -1   5 12.9483 2.96578   4
   0   1  -5 48.9197 2.81218   3
   0   1  -5 52.5363 2.94236   1
   0  -1   5 46.9092 2.76202   2
   0  -1   5 52.9549 2.94386   2
   0  -1   5 44.3385 4.97519   4
  -1   1  -5 62.7063 3.73692   1
  -1   1  -5 66.0798 3.67318   3
   1  -1   5 62.0039 3.63068   2
   1  -1   5 65.9205 3.61014   2
   1  -1   5 63.9159 3.17326   3
   1  -1   5 61.8427 3.28228   1
   1  -1   5 66.5799 5.12705   4
  -2   1  -5 67.8850 4.43899   3
  -2   1  -5 70.0157 4.61061   1
   2  -1   5 70.6547 4.18653   1
   2  -1   5 73.1098 5.63697   4
   2  -1   5 69.8041 4.24297   2
   2  -1   5 76.9334 4.58904   2
   2  -1   5 72.0120 4.14635   3
  -3   1  -5 97.9338 5.82862   1
  -3   1  -5 86.5546 5.49756   3
   3  -1   5 89.4067 5.25982   3
   3  -1   5 89.7083 5.54112   2
   3  -1   5 85.7419 5.19720   1
   3  -1   5 87.5567 6.25492   4
  -4   1  -5 14.4012 3.34473   3
  -4   1  -5 16.9266 3.45265   1
   4  -1   5 13.3721 2.97522   1
   4  -1   5 13.5078 2.89781   3
   4  -1   5 13.4151 2.91983   2
   4  -1   5 17.1883 3.82813   4
  -5   1  -5 4.57191 2.31516   1
  -5   1  -5 4.95933 2.74677   3
   5  -1   5 7.62235 2.66806   3
   5  -1   5 10.0593 3.20360   4
   5  -1   5 7.70992 2.87437   1
  -6   1  -5 51.0901 6.18529   1
  -6   1  -5 50.3173 6.23687   3
   6  -1   5 60.9156 6.77972   1
   6  -1   5 71.9594 6.85027   3
  10   0  -5 4.22413 3.30967   1
  10   0  -5 6.31242 3.44809   3
 -10   0   5 1.74149 3.41848   2
   9   0  -5 4.34195 3.10297   3
   9   0  -5 2.01258 2.48169   1
  -9   0   5 4.32248 3.10735   2
   8   0  -5 15.0639 3.40310   3
   8   0  -5 21.6890 3.97229   1
  -8   0   5 23.3551 4.16789   2
   7   0  -5 2.44526 2.01290   3
   7   0  -5 2.35957 1.91719   1
  -7   0   5 2.01278 2.34368   2
  -7   0   5 2.15473 2.20070   2
   6   0  -5 1.35081 1.50116   1
   6   0  -5 2.36706 1.64415   3
  -6   0   5 0.25348 1.81724   2
  -6   0   5 2.34942 2.43352   4
  -6   0   5 3.94878 1.85012   2
   5   0  -5 0.75762 1.22784   1
   5   0  -5 0.33747 1.20959   3
  -5   0   5 -0.5369 1.09739   2
  -5   0   5 -0.7650 1.73987   4
  -5   0   5 0.37229 1.37389   2
   4   0  -5 16.5722 2.00822   1
  -4   0   5 21.9513 3.71961   4
   3   0  -5 4.29450 1.10761   1
   3   0  -5 3.95304 1.05474   1
  -3   0   5 2.53812 2.07056   4
   2   0  -5 100.802 3.59247   1
  -2   0   5 105.020 6.19941   4
   1   0  -5 43.6879 2.65923   3
   1   0  -5 49.9786 2.85572   1
  -1   0   5 51.7077 2.79943   2
  -1   0   5 48.3600 4.63653   4
  -1   0   5 46.6676 2.66971   2
   0   0  -5 942.910 19.1865   1
   0   0  -5 961.630 18.8407   3
   0   0   5 930.704 18.7348   2
   0   0   5 951.163 22.6895   4
   0   0   5 939.955 18.7620   2
   0   0   5 940.195 17.8254   3
   0   0   5 892.923 18.2404   1
  -1   0  -5 81.6583 4.40413   3
  -1   0  -5 88.9087 4.74025   1
   1   0   5 71.7512 4.18447   2
   1   0   5 86.0424 4.34109   1
   1   0   5 89.2622 4.22466   3
   1   0   5 82.0988 4.46097   2
  -2   0  -5 154.437 7.07859   1
  -2   0  -5 167.610 7.01237   3
   2   0   5 165.710 6.84067   1
   2   0   5 171.457 6.96961   2
   2   0   5 171.829 6.72119   3
  -3   0  -5 56.5489 5.48660   1
  -3   0  -5 53.3540 5.07152   3
   3   0   5 55.7427 5.14938   2
   3   0   5 51.2647 4.85112   3
   3   0   5 63.5200 4.95068   1
  -4   0  -5 86.6137 6.28838   3
  -4   0  -5 86.4831 6.50590   1
   4   0   5 89.9250 6.11756   2
   4   0   5 91.3171 6.33661   1
   4   0   5 95.2190 6.28385   3
  -5   0  -5 93.8598 7.19427   1
  -5   0  -5 99.8573 7.41861   3
   5   0   5 99.2973 7.30010   1
   5   0   5 96.9842 6.74367   3
  -6   0  -5 229.906 11.2160   3
  -6   0  -5 187.442 10.7154   1
   6   0   5 201.902 10.4408   3
   6   0   5 231.257 11.4034   1
  10  -1  -5 50.5033 6.35352   3
  10  -1  -5 49.0702 6.55046   1
 -10   1   5 57.0273 6.79858   2
   9  -1  -5 39.6745 5.35049   3
   9  -1  -5 36.1724 5.41055   1
  -9   1   5 42.4603 5.49549   2
   8  -1  -5 103.017 6.56129   3
   8  -1  -5 102.813 6.63632   1
  -8   1   5 82.1527 6.20245   2
   7  -1  -5 10.7641 2.65731   3
   7  -1  -5 9.11096 2.64803   1
  -7   1   5 13.4742 2.76451   2
  -7   1   5 13.1137 3.38893   4
  -7   1   5 12.7068 2.15021   1
  -7   1   5 13.3512 3.07444   2
   6  -1  -5 164.900 6.43904   3
   6  -1  -5 164.089 6.66938   1
  -6   1   5 149.527 5.16181   1
  -6   1   5 152.524 6.07521   2
  -6   1   5 138.849 7.68276   4
  -6   1   5 156.566 6.50856   2
   5  -1  -5 158.653 6.00380   1
   5  -1  -5 167.714 5.92881   3
  -5   1   5 155.914 5.76764   2
  -5   1   5 160.706 7.93926   4
  -5   1   5 160.571 5.62091   2
   4  -1  -5 99.3088 4.10457   3
   4  -1  -5 100.323 4.31077   1
  -4   1   5 98.6642 6.24367   4
  -4   1   5 100.390 4.18083   2
  -4   1   5 103.957 4.08808   2
   3  -1  -5 170.394 5.46950   1
  -3   1   5 169.926 5.20243   2
  -3   1   5 171.576 7.96048   4
  -3   1   5 169.188 5.23295   2
   2  -1  -5 38.9311 2.63036   1
  -2   1   5 32.9192 2.51645   2
  -2   1   5 33.1053 2.49605   2
  -2   1   5 38.1003 2.26987   1
  -2   1   5 34.9286 4.27640   4
   1  -1  -5 2.24585 1.31293   3
   1  -1  -5 -0.1813 1.00677   1
  -1   1   5 0.25847 0.79822   1
  -1   1   5 -1.3485 0.98823   2
  -1   1   5 0.15736 0.94685   3
  -1   1   5 0.04507 1.06163   2
   0  -1  -5 2114.89 38.8776   3
   0  -1  -5 2131.55 39.4473   1
   0   1   5 2112.26 38.7697   1
   0   1   5 2096.40 38.8288   2
   0   1   5 2121.05 38.2779   3
   0   1   5 2153.10 38.8356   2
  -1  -1  -5 208.377 7.82784   1
  -1  -1  -5 215.612 7.62210   3
   1   1   5 190.766 7.33274   1
   1   1   5 195.974 7.32512   2
   1   1   5 193.311 7.34401   1
   1   1   5 215.689 7.42231   3
  -2  -1  -5 6.00627 2.12541   3
  -2  -1  -5 6.71048 2.31656   1
   2   1   5 7.48743 2.19363   1
   2   1   5 8.02186 2.32050   3
   2   1   5 4.49989 2.02668   2
  -3  -1  -5 4.63422 2.34354   1
  -3  -1  -5 7.59313 2.71396   3
   3   1   5 9.26105 2.62731   2
   3   1   5 11.9002 2.94531   1
   3   1   5 4.72743 2.28784   3
  -4  -1  -5 71.4793 6.91033   1
  -4  -1  -5 87.5861 6.48548   3
   4   1   5 82.1757 6.23480   3
   4   1   5 85.1237 6.45449   1
  -5  -1  -5 51.8746 6.21122   3
  -5  -1  -5 50.9952 6.24741   1
   5   1   5 53.2378 6.14793   3
   5   1   5 57.1222 6.62935   1
  -6  -1  -5 95.4491 9.05899   3
  -6  -1  -5 85.5779 8.77473   1
   6   1   5 75.8391 8.17844   1
   6   1   5 79.6269 7.64974   3
  10  -2  -5 48.3716 6.26543   3
  10  -2  -5 39.5177 5.91670   1
 -10   2   5 41.9173 5.94397   2
   9  -2  -5 13.5827 3.65836   3
   9  -2  -5 7.10271 3.17479   1
  -9   2   5 16.1850 3.92043   2
   8  -2  -5 69.6156 5.59081   1
   8  -2  -5 70.6029 6.25679   3
  -8   2   5 61.0710 5.18672   4
  -8   2   5 72.0609 6.14619   2
   7  -2  -5 17.1560 3.13585   3
   7  -2  -5 27.5593 3.92911   1
  -7   2   5 15.4950 3.09466   2
  -7   2   5 13.1808 2.64386   2
  -7   2   5 11.3134 2.21999   1
  -7   2   5 16.7135 3.48721   4
   6  -2  -5 532.874 13.5158   1
   6  -2  -5 521.130 12.9610   3
  -6   2   5 506.590 11.9315   1
  -6   2   5 477.989 14.8468   4
  -6   2   5 510.576 12.8710   2
  -6   2   5 475.857 12.6297   2
   5  -2  -5 625.434 14.7015   1
   5  -2  -5 617.107 14.0633   3
  -5   2   5 608.977 13.8383   2
  -5   2   5 620.747 13.2776   1
  -5   2   5 568.207 16.7228   4
  -5   2   5 632.022 14.1435   2
   4  -2  -5 87.8729 4.43371   1
  -4   2   5 89.1267 4.17970   2
  -4   2   5 88.6025 3.77580   1
  -4   2   5 90.5005 6.12981   4
  -4   2   5 85.7479 4.05505   2
   3  -2  -5 19.2305 2.43191   1
  -3   2   5 19.8740 2.10144   1
  -3   2   5 26.5306 2.63821   2
  -3   2   5 18.3804 2.18976   2
  -3   2   5 17.4369 1.94420   3
   2  -2  -5 405.485 10.0120   3
   2  -2  -5 398.866 10.4181   1
  -2   2   5 415.828 9.55367   3
  -2   2   5 414.611 9.79106   1
  -2   2   5 401.980 10.0123   2
  -2   2   5 375.473 9.77387   2
   1  -2  -5 193.842 6.95300   1
   1  -2  -5 186.650 6.65149   3
  -1   2   5 181.768 6.44369   2
  -1   2   5 183.112 6.37869   1
  -1   2   5 192.499 6.32598   3
   0  -2  -5 319.311 9.50581   3
   0  -2  -5 310.445 9.81573   1
   0   2   5 320.142 9.47709   2
   0   2   5 313.004 9.21460   3
   0   2   5 308.129 9.43792   1
  -1  -2  -5 0.91331 1.76193   1
  -1  -2  -5 3.74223 1.88146   3
   1   2   5 4.37638 2.01287   1
   1   2   5 4.30330 1.99956   2
   1   2   5 2.44335 1.73945   3
  -2  -2  -5 132.628 6.97892   3
  -2  -2  -5 139.863 7.39016   1
   2   2   5 140.115 7.20822   1
   2   2   5 127.634 6.74453   3
   2   2   5 140.516 6.93787   2
   2   2   5 127.036 6.94679   1
  -3  -2  -5 2.56080 2.29399   3
  -3  -2  -5 8.31203 2.83417   1
   3   2   5 5.85784 2.49455   3
   3   2   5 4.13677 2.23008   1
  -4  -2  -5 108.566 7.44189   3
  -4  -2  -5 98.2846 7.49668   1
   4   2   5 95.4788 7.05834   3
   4   2   5 99.9035 7.30730   1
  -5  -2  -5 32.2727 5.37352   3
  -5  -2  -5 31.7477 5.71822   1
   5   2   5 18.4477 4.40434   1
   5   2   5 31.3744 5.10164   3
  11  -3  -5 109.470 8.61113   1
  11  -3  -5 115.210 8.52771   3
  10  -3  -5 36.0394 5.37965   3
  10  -3  -5 39.8402 5.82452   1
 -10   3   5 31.2035 4.03323   3
 -10   3   5 35.4131 5.53451   2
   9  -3  -5 -2.7946 1.90186   1
   9  -3  -5 1.17816 2.09899   3
  -9   3   5 -1.2986 1.56445   3
  -9   3   5 1.69524 2.63411   2
   8  -3  -5 0.81777 2.07399   1
   8  -3  -5 -0.2008 1.85836   3
  -8   3   5 -2.2847 1.84854   2
  -8   3   5 0.22555 1.59445   3
  -8   3   5 -0.0677 1.69280   1
  -8   3   5 1.34672 2.10524   4
   7  -3  -5 196.126 8.42535   1
   7  -3  -5 188.700 7.97080   3
  -7   3   5 187.600 8.14742   2
  -7   3   5 196.443 8.15221   2
  -7   3   5 203.931 7.10282   3
  -7   3   5 183.700 8.68357   4
  -7   3   5 200.235 7.37910   1
   6  -3  -5 2.48751 1.70500   1
  -6   3   5 1.43612 1.42650   3
  -6   3   5 -0.0966 1.49203   2
  -6   3   5 -0.7056 2.03988   4
  -6   3   5 1.91530 1.89580   2
  -6   3   5 -0.4863 1.25204   1
   5  -3  -5 61.7735 4.26192   1
  -5   3   5 54.4846 5.24653   4
  -5   3   5 59.0698 3.64655   1
  -5   3   5 53.0838 3.37907   3
  -5   3   5 59.0315 4.14625   2
  -5   3   5 52.1213 3.76366   2
   4  -3  -5 1.48123 1.39914   1
  -4   3   5 -0.0922 1.00970   3
  -4   3   5 2.80639 1.40928   2
  -4   3   5 0.52553 1.22089   2
  -4   3   5 -0.2033 1.01401   1
   3  -3  -5 2.88944 1.41022   1
  -3   3   5 0.68547 1.23516   2
  -3   3   5 3.47676 1.44200   1
  -3   3   5 0.99449 1.17857   3
  -3   3   5 3.26692 1.48449   2
   2  -3  -5 193.780 7.14988   1
   2  -3  -5 192.556 6.72219   3
  -2   3   5 185.459 6.69348   2
  -2   3   5 189.012 6.47935   3
  -2   3   5 179.613 6.53983   1
   1  -3  -5 146.970 6.50548   1
   1  -3  -5 167.095 6.63054   3
  -1   3   5 156.944 6.33539   2
  -1   3   5 154.395 6.11327   3
  -1   3   5 152.152 6.32058   1
   0  -3  -5 60.1184 4.45794   3
   0  -3  -5 57.7783 4.61616   1
   0  -3  -5 52.7820 5.30963   2
   0   3   5 52.4068 4.56855   3
   0   3   5 58.0385 4.43590   1
   0   3   5 54.3987 4.74443   2
  -1  -3  -5 520.237 14.8224   3
  -1  -3  -5 550.048 15.4560   1
   1   3   5 524.470 14.5335   3
   1   3   5 554.452 15.2676   1
   1   3   5 547.612 14.6675   2
  -2  -3  -5 10.1013 2.79191   3
   2   3   5 7.94167 2.48862   3
   2   3   5 8.31172 2.59300   1
  -3  -3  -5 157.333 8.67574   1
  -3  -3  -5 155.956 8.41614   3
   3   3   5 154.805 8.66794   1
   3   3   5 142.341 8.40624   1
   3   3   5 143.075 8.15263   3
  -4  -3  -5 21.0322 4.85271   1
  -4  -3  -5 26.1339 4.83219   3
   4   3   5 34.3301 5.68736   1
   4   3   5 19.4854 4.06549   3
  11  -4  -5 6.40131 3.30614   3
  11  -4  -5 6.59387 3.69415   1
 -11   4   5 0.46392 2.23005   3
  10  -4  -5 -0.6610 2.24532   3
  10  -4  -5 0.16154 2.67137   1
 -10   4   5 2.15435 2.19887   3
 -10   4   5 0.78182 3.08967   2
   9  -4  -5 6.14781 2.59282   3
   9  -4  -5 3.33890 2.68572   1
  -9   4   5 6.00871 3.07332   2
  -9   4   5 3.40394 2.13902   3
  -9   4   5 6.15401 2.67501   1
   8  -4  -5 43.0375 5.35890   1
  -8   4   5 60.5907 5.94450   2
  -8   4   5 39.7598 4.45269   1
  -8   4   5 45.8559 4.50347   3
  -8   4   5 51.3507 5.12732   4
   7  -4  -5 978.410 23.1631   1
  -7   4   5 979.131 23.9783   4
  -7   4   5 987.955 21.7571   1
  -7   4   5 971.589 21.2362   3
  -7   4   5 1013.38 22.5486   2
   6  -4  -5 0.63333 1.68711   1
  -6   4   5 2.27426 1.57929   1
  -6   4   5 -1.6538 1.66822   2
  -6   4   5 1.13617 2.35288   4
  -6   4   5 1.55557 1.44454   3
   5  -4  -5 486.933 13.4566   1
  -5   4   5 498.830 12.2933   3
  -5   4   5 479.973 12.5387   1
  -5   4   5 501.560 12.9170   2
   4  -4  -5 53.4519 4.25153   1
  -4   4   5 60.4447 4.16347   2
  -4   4   5 48.6791 3.67255   1
  -4   4   5 51.9728 3.66973   3
   3  -4  -5 6.55876 2.02102   1
   3  -4  -5 10.5421 2.37403   3
  -3   4   5 6.11975 1.89260   1
  -3   4   5 3.65462 1.80942   2
  -3   4   5 7.32097 1.91486   3
   2  -4  -5 282.940 9.23266   3
   2  -4  -5 274.379 9.41718   1
  -2   4   5 269.192 8.76448   3
  -2   4   5 282.585 8.94724   2
  -2   4   5 282.213 9.09952   1
   1  -4  -5 32.7113 3.69925   2
   1  -4  -5 35.4224 4.12015   3
   1  -4  -5 32.4760 3.93223   1
  -1   4   5 33.0454 3.86799   2
  -1   4   5 37.1377 4.07359   1
  -1   4   5 37.7882 3.90180   3
   0  -4  -5 226.205 13.0372   2
   0  -4  -5 257.082 9.60122   3
   0  -4  -5 251.431 9.83302   1
   0   4   5 258.887 9.36277   2
   0   4   5 263.935 9.36389   3
   0   4   5 256.681 9.60153   1
  -1  -4  -5 854.807 21.4722   1
  -1  -4  -5 843.942 20.8738   3
   1   4   5 872.083 21.6584   1
   1   4   5 817.149 20.5899   3
  -2  -4  -5 85.6029 6.36791   3
  -2  -4  -5 87.4145 6.75121   1
   2   4   5 83.4956 6.61404   1
   2   4   5 95.8540 6.47505   3
  -3  -4  -5 -2.5329 2.43672   1
  -3  -4  -5 0.80802 2.35858   3
   3   4   5 0.46671 2.20314   3
   3   4   5 2.26058 2.33875   1
   3   4   5 4.32133 2.68511   1
  -4  -4  -5 1.42085 2.78840   1
  -4  -4  -5 1.61972 2.69628   3
   4   4   5 -0.3082 2.31876   1
   4   4   5 0.53602 2.53034   3
  11  -5  -5 12.5034 4.02784   1
 -11   5   5 7.33685 2.83863   3
  10  -5  -5 25.3646 5.04693   1
 -10   5   5 27.0128 4.08639   3
   9  -5  -5 390.699 14.0601   1
  -9   5   5 373.495 13.3216   2
  -9   5   5 373.480 12.1820   3
  -9   5   5 383.326 12.7839   1
   8  -5  -5 451.900 14.8434   1
  -8   5   5 463.466 14.7642   4
  -8   5   5 492.663 13.8059   3
  -8   5   5 477.593 13.9982   1
  -8   5   5 500.023 14.7738   2
   7  -5  -5 92.8731 6.46551   1
  -7   5   5 100.457 7.17489   4
  -7   5   5 111.139 5.83062   3
  -7   5   5 105.240 6.01224   1
  -7   5   5 84.7435 6.09574   2
   6  -5  -5 55.5409 5.47712   1
  -6   5   5 55.8183 4.27770   3
  -6   5   5 55.6683 4.98867   1
  -6   5   5 64.3870 4.94044   2
   5  -5  -5 60.9919 4.83332   1
  -5   5   5 49.9907 4.71668   2
  -5   5   5 59.3375 4.16769   3
  -5   5   5 63.3739 4.73055   2
  -5   5   5 53.5526 4.84475   1
   4  -5  -5 1.42008 1.91547   3
   4  -5  -5 1.74370 1.86799   1
  -4   5   5 1.02728 1.48775   1
  -4   5   5 2.61844 1.69175   3
  -4   5   5 3.69483 1.71681   2
   3  -5  -5 250.986 9.23820   1
   3  -5  -5 234.618 8.34397   2
   3  -5  -5 256.274 8.83912   3
  -3   5   5 257.606 8.80519   2
  -3   5   5 239.433 8.34713   3
  -3   5   5 233.642 8.68178   1
   2  -5  -5 18.1998 3.51225   1
   2  -5  -5 16.0076 2.98756   3
   2  -5  -5 18.5528 3.01838   2
  -2   5   5 17.4218 2.87663   3
  -2   5   5 18.2064 3.10869   1
  -2   5   5 25.4497 3.58313   2
   1  -5  -5 102.102 6.22903   3
   1  -5  -5 107.413 6.43922   1
  -1   5   5 103.978 6.01113   2
  -1   5   5 108.586 6.17139   3
  -1   5   5 101.886 6.05367   1
   0  -5  -5 183.827 8.84131   1
   0  -5  -5 177.992 8.45932   3
   0   5   5 185.662 8.61124   1
   0   5   5 194.377 8.44212   3
  -1  -5  -5 16.8662 3.87651   1
  -1  -5  -5 10.6499 3.22318   3
   1   5   5 11.7385 2.95441   3
   1   5   5 12.6441 3.53969   1
  -2  -5  -5 2.33275 2.59706   3
  -2  -5  -5 1.05039 2.41668   1
   2   5   5 4.08646 2.41662   1
   2   5   5 2.10917 2.47400   3
  -3  -5  -5 12.3231 3.58238   3
  -3  -5  -5 11.4515 3.68278   1
   3   5   5 15.0098 3.86671   3
   3   5   5 7.88808 3.33408   1
   3   5   5 8.12071 3.41783   1
  11  -6  -5 7.80599 3.83306   1
 -11   6   5 7.82363 3.18846   3
  10  -6  -5 84.1357 8.28576   1
 -10   6   5 82.4869 6.22388   3
   9  -6  -5 33.7970 5.34059   1
  -9   6   5 23.0670 3.96247   3
  -9   6   5 29.8581 4.41456   1
   8  -6  -5 45.0755 5.93431   1
  -8   6   5 39.7616 5.04418   2
  -8   6   5 42.3912 5.48802   4
  -8   6   5 33.7078 4.32265   3
  -8   6   5 28.5513 4.11930   1
   7  -6  -5 75.7411 6.02471   1
  -7   6   5 74.8116 5.16240   3
  -7   6   5 67.0464 5.95524   2
  -7   6   5 67.9261 5.33118   1
   6  -6  -5 7.64243 2.84056   1
  -6   6   5 16.1025 3.01396   1
  -6   6   5 13.6175 3.17432   2
  -6   6   5 10.5352 2.94770   2
  -6   6   5 8.12853 2.28931   3
   5  -6  -5 33.4700 4.56432   1
  -5   6   5 28.4892 3.82797   2
  -5   6   5 23.9418 3.48693   1
  -5   6   5 20.7838 3.20113   3
   4  -6  -5 153.079 7.24430   3
   4  -6  -5 167.650 7.82711   1
  -4   6   5 153.377 7.03559   3
  -4   6   5 150.600 7.23621   1
  -4   6   5 158.939 7.28630   2
   3  -6  -5 159.555 7.59927   3
   3  -6  -5 169.712 7.91248   1
  -3   6   5 160.279 7.63455   1
  -3   6   5 169.168 7.37813   3
  -3   6   5 168.507 7.47122   2
   2  -6  -5 6.11035 2.39172   1
   2  -6  -5 6.08093 2.42553   3
  -2   6   5 3.90903 2.27101   2
  -2   6   5 8.57449 2.56417   1
  -2   6   5 5.88553 2.20871   3
   1  -6  -5 14.4767 3.38978   1
   1  -6  -5 17.7447 3.52758   3
  -1   6   5 17.9488 3.50765   3
  -1   6   5 21.3489 3.61616   1
   0  -6  -5 4.75786 2.56694   3
   0  -6  -5 2.12090 2.12978   1
   0   6   5 4.26296 2.11410   3
   0   6   5 2.20362 2.10173   1
  -1  -6  -5 14.4672 3.81032   1
  -1  -6  -5 14.3019 3.79144   3
   1   6   5 10.6240 3.36922   3
   1   6   5 20.0852 4.34870   1
  -2  -6  -5 48.3766 6.02845   3
  -2  -6  -5 60.9435 7.06491   1
   2   6   5 54.2439 6.89969   1
   2   6   5 58.1101 6.90395   3
  11  -7  -5 52.9316 7.25114   1
  10  -7  -5 18.2833 4.29914   1
 -10   7   5 7.53867 3.09833   3
 -10   7   5 10.1730 3.31192   1
   9  -7  -5 -3.0138 2.04291   1
  -9   7   5 -2.7923 1.66444   1
  -9   7   5 0.16140 1.90832   3
   8  -7  -5 14.0277 3.75413   1
  -8   7   5 7.58390 2.58556   3
  -8   7   5 6.90772 2.78664   1
  -8   7   5 7.25915 3.50700   4
   7  -7  -5 81.7013 7.51944   1
  -7   7   5 67.0345 6.25637   1
  -7   7   5 70.7095 5.46306   3
  -7   7   5 81.8718 7.26884   2
  -7   7   5 90.8593 8.44067   2
   6  -7  -5 118.042 7.29679   1
  -6   7   5 120.248 6.83422   1
  -6   7   5 99.4224 6.40161   2
  -6   7   5 117.357 6.53581   3
   5  -7  -5 7.42786 2.83808   1
   5  -7  -5 4.88394 2.21506   3
  -5   7   5 6.59946 2.52004   1
  -5   7   5 5.41920 2.46010   2
  -5   7   5 6.09292 2.21085   3
   4  -7  -5 83.2685 6.14358   1
   4  -7  -5 76.5772 5.66211   3
  -4   7   5 80.6270 5.95311   1
  -4   7   5 90.4670 8.85803   2
  -4   7   5 86.3866 5.74383   3
   3  -7  -5 36.1071 4.82243   1
   3  -7  -5 44.6998 5.29831   3
  -3   7   5 37.0296 4.45837   3
  -3   7   5 39.2831 4.87153   1
   2  -7  -5 117.229 7.16697   3
   2  -7  -5 127.093 7.63020   1
  -2   7   5 130.363 7.14916   3
  -2   7   5 135.878 7.71191   1
   1  -7  -5 43.1844 5.43770   1
   1  -7  -5 35.4003 4.82315   3
  -1   7   5 48.4943 5.64207   3
  -1   7   5 41.8034 5.19410   1
   0  -7  -5 29.7488 4.79856   3
   0  -7  -5 22.1964 4.36935   1
   0   7   5 32.8642 4.79252   3
   0   7   5 29.7022 4.74092   1
  -1  -7  -5 8.50777 3.33795   3
  -1  -7  -5 15.6564 4.16756   1
   1   7   5 10.9564 3.65076   1
   1   7   5 15.6946 3.73524   3
  10  -8  -5 13.3134 4.15774   1
 -10   8   5 13.2596 3.56805   3
 -10   8   5 8.50903 3.16379   1
   9  -8  -5 2.64983 2.85300   1
  -9   8   5 2.02079 2.18571   3
  -9   8   5 0.74733 2.17707   1
   8  -8  -5 16.5991 4.40204   1
  -8   8   5 17.9607 3.71639   3
  -8   8   5 11.3171 3.14514   1
   7  -8  -5 24.6506 4.44651   1
  -7   8   5 24.3846 3.99560   3
  -7   8   5 19.0853 3.77711   1
   6  -8  -5 9.40060 3.00538   1
   6  -8  -5 0.90861 2.02800   3
  -6   8   5 5.80051 2.48750   1
  -6   8   5 6.57342 2.38452   3
   5  -8  -5 5.06777 2.72218   1
   5  -8  -5 2.83218 2.23075   3
  -5   8   5 2.91006 2.12651   1
  -5   8   5 0.77264 1.80390   3
   4  -8  -5 88.6504 6.65072   1
   4  -8  -5 78.5849 7.01720   3
  -4   8   5 108.889 6.87979   1
  -4   8   5 94.4555 6.35415   3
   3  -8  -5 85.3245 6.65080   1
   3  -8  -5 83.0102 7.30404   3
  -3   8   5 79.5907 6.24556   1
  -3   8   5 84.1036 6.14900   3
   2  -8  -5 28.1829 4.58029   3
   2  -8  -5 30.8706 5.11864   1
  -2   8   5 29.5741 4.48948   3
  -2   8   5 20.4129 4.15862   1
   1  -8  -5 7.65874 3.34005   1
   1  -8  -5 5.12681 2.82003   3
  -1   8   5 4.26228 2.68836   3
  -1   8   5 3.76129 2.28058   1
   0  -8  -5 8.77711 3.49127   1
   0  -8  -5 2.47965 2.74123   3
   0   8   5 4.08696 2.77669   1
   0   8   5 4.14632 2.57676   3
  10  -9  -5 13.7981 4.54192   1
 -10   9   5 11.2781 3.55632   1
 -10   9   5 17.3726 3.90781   3
   9  -9  -5 1.69857 2.43612   1
  -9   9   5 0.09676 2.21888   3
  -9   9   5 1.05297 2.20849   1
   8  -9  -5 1.94448 2.70877   1
  -8   9   5 2.59993 2.52489   1
  -8   9   5 3.19929 2.23014   3
   7  -9  -5 -0.2003 2.14882   3
   7  -9  -5 0.44572 2.44885   1
  -7   9   5 0.23244 1.89697   3
  -7   9   5 0.90201 2.10445   1
   6  -9  -5 -0.9109 2.01522   3
   6  -9  -5 -0.1459 2.31393   1
  -6   9   5 0.27857 2.03397   1
  -6   9   5 -0.4220 1.76700   3
   5  -9  -5 13.5924 3.38390   1
   5  -9  -5 14.9164 3.57582   3
  -5   9   5 12.5930 3.24493   1
  -5   9   5 10.3240 3.12978   3
   4  -9  -5 89.6441 8.07687   1
   4  -9  -5 75.1683 7.23003   3
  -4   9   5 89.5007 7.89789   1
  -4   9   5 86.7878 6.52259   3
   3  -9  -5 4.52051 2.97826   3
   3  -9  -5 2.52223 2.79525   1
  -3   9   5 7.83266 2.79477   3
  -3   9   5 8.48626 2.93482   1
   2  -9  -5 53.4086 6.57106   1
   2  -9  -5 48.7961 6.14503   3
  -2   9   5 48.1396 6.15491   3
  -2   9   5 53.9591 6.75557   1
   1  -9  -5 40.9114 6.08969   1
   1  -9  -5 23.0976 4.66632   3
  -1   9   5 32.7868 5.46790   1
  -1   9   5 36.5136 5.67242   3
   9 -10  -5 60.1622 7.67183   1
  -9  10   5 59.0639 7.10216   1
  -9  10   5 46.3601 6.15052   3
   8 -10  -5 0.23800 2.27476   1
   8 -10  -5 -1.1304 2.21128   3
  -8  10   5 0.96491 2.11548   1
  -8  10   5 1.33453 2.13199   3
   7 -10  -5 17.4239 4.00999   3
   7 -10  -5 21.8102 4.61664   1
  -7  10   5 25.5723 5.00097   1
  -7  10   5 21.8296 4.27048   3
   6 -10  -5 41.1642 5.61896   3
   6 -10  -5 42.0851 5.88746   1
  -6  10   5 37.7999 5.26931   3
  -6  10   5 40.2115 5.78989   1
   5 -10  -5 159.750 9.59140   1
   5 -10  -5 156.001 9.01317   3
  -5  10   5 164.551 9.21350   3
  -5  10   5 146.348 9.42342   1
   4 -10  -5 153.786 9.57683   1
   4 -10  -5 157.898 9.01714   3
  -4  10   5 140.461 8.56271   3
  -4  10   5 152.166 9.53188   1
   3 -10  -5 30.5592 5.10132   3
   3 -10  -5 31.9231 5.44146   1
  -3  10   5 26.7350 5.05060   1
  -3  10   5 23.4392 4.59326   3
   2 -10  -5 135.874 12.7338   1
   2 -10  -5 111.358 7.99172   3
  -2  10   5 99.5405 9.09162   3
  -2  10   5 106.102 8.48821   1
   7 -11  -5 94.0185 8.75314   3
   7 -11  -5 90.1891 9.29343   1
  -7  11   5 86.6097 8.31749   3
  -7  11   5 106.242 8.34400   1
   6 -11  -5 94.0164 8.60600   3
   6 -11  -5 113.719 10.2546   1
  -6  11   5 115.092 8.75138   1
  -6  11   5 104.383 7.91577   3
   5 -11  -5 163.641 9.75645   3
   5 -11  -5 188.739 10.7679   1
  -5  11   5 189.688 10.5983   1
  -5  11   5 181.464 10.2312   3
   1  11  -6 193.829 8.66627   1
   0  11  -6 8.05612 2.34578   1
  -1  11  -6 19.9260 3.36745   1
  -2  11  -6 1.28187 1.62943   1
   2 -11   6 -0.3901 1.86374   2
  -3  11  -6 7.20980 2.45753   1
   3 -11   6 5.11836 2.58987   2
  -4  11  -6 14.4302 3.32585   1
   4 -11   6 21.5118 4.11386   2
   5 -11   6 8.40782 3.11463   2
   2  10  -6 33.4408 4.17750   1
   1  10  -6 3.55982 1.78820   1
   0  10  -6 24.6580 3.28481   1
  -1  10  -6 10.1193 2.40119   1
  -2  10  -6 2.24498 1.62531   1
   2 -10   6 0.34584 1.79315   2
  -3  10  -6 43.3470 4.85313   1
   3 -10   6 40.3769 4.59373   2
  -4  10  -6 5.18108 2.20273   1
   4 -10   6 3.67691 2.52896   2
  -5  10  -6 57.2020 6.29797   1
   5 -10   6 59.3647 6.14030   2
   6 -10   6 7.18157 3.13755   2
   4   9  -6 0.79402 2.06651   1
   3   9  -6 11.3563 2.79588   1
   2   9  -6 2.82078 1.52592   1
   1   9  -6 85.8371 4.77395   1
   0   9  -6 1.10095 1.23804   1
  -1   9  -6 6.35872 1.97253   1
  -2   9  -6 7.18174 2.10588   1
  -3   9  -6 134.756 6.74814   1
   3  -9   6 147.858 6.84468   2
  -4   9  -6 164.652 8.01681   1
   4  -9   6 153.668 7.54760   2
  -5   9  -6 25.2309 4.15312   1
   5  -9   6 33.8318 4.75365   2
  -6   9  -6 2.38842 2.20289   1
   6  -9   6 2.91067 2.33803   2
   5   8  -6 192.365 9.01142   1
   4   8  -6 19.0330 3.22986   1
   3   8  -6 14.3274 2.58603   1
  -1   8  -6 5.96934 1.72910   1
  -2   8  -6 13.9060 2.46576   1
  -3   8  -6 136.907 6.68112   1
   3  -8   6 151.060 6.65088   2
   3  -8   6 149.496 6.69786   2
  -4   8  -6 0.53463 1.63809   1
   4  -8   6 4.06902 2.12192   2
  -5   8  -6 14.3155 3.27715   1
   5  -8   6 24.7912 3.95896   2
  -6   8  -6 11.9766 3.29100   1
  -6   8  -6 11.5388 3.30182   3
   6  -8   6 20.6381 4.06994   2
   6   7  -6 0.09052 2.10654   1
  -6  -7   6 1.43394 2.76557   2
   5   7  -6 0.21340 1.67937   1
   4   7  -6 19.4617 2.91835   1
  -1   7  -6 33.2142 3.15733   1
  -2   7  -6 60.9263 4.01047   1
  -3   7  -6 13.2195 2.67620   1
   3  -7   6 12.1556 2.42445   2
   3  -7   6 17.5375 2.78568   2
  -4   7  -6 39.7662 4.84666   1
  -4   7  -6 33.2168 4.37978   3
   4  -7   6 33.3412 4.07006   2
  -5   7  -6 210.809 9.83469   1
  -5   7  -6 238.480 10.1125   3
   5  -7   6 221.405 9.50959   2
  -6   7  -6 378.670 14.0314   3
   6  -7   6 365.807 13.4817   2
  -7   7  -6 155.091 9.59670   3
  -7  -6   6 2.80244 3.01810   2
   6   6  -6 64.0566 6.05233   1
  -6  -6   6 69.7947 6.06379   2
   5   6  -6 33.4569 4.05364   1
  -1   6  -6 57.1650 3.29559   1
   1  -6   6 50.1311 6.47307   4
  -2   6  -6 569.556 13.5258   3
  -2   6  -6 561.539 13.9078   1
   2  -6   6 584.499 18.5006   4
  -3   6  -6 62.8585 4.61150   1
  -3   6  -6 63.2372 4.52017   3
   3  -6   6 62.3598 4.45134   2
   3  -6   6 69.4869 5.98563   4
   3  -6   6 66.6287 4.68259   2
  -4   6  -6 284.149 10.4943   1
  -4   6  -6 265.304 9.98574   3
   4  -6   6 254.374 10.9550   4
   4  -6   6 273.664 9.86624   2
  -5   6  -6 7.59403 2.64006   3
  -5   6  -6 14.8831 3.62270   1
   5  -6   6 16.3151 3.29762   2
  -6   6  -6 3.03676 2.51843   1
  -6   6  -6 -0.1852 2.42046   3
   6  -6   6 1.75373 2.55741   2
  -7   6  -6 3.91871 2.89792   3
  -7   6  -6 0.18797 2.45247   1
   7   5  -6 6.78585 2.95777   1
  -7  -5   6 8.61502 3.48833   2
   6   5  -6 128.651 6.82487   1
   5   5  -6 26.1669 3.28505   1
  -2  -5   6 390.381 15.6329   4
  -1  -5   6 358.575 14.5050   4
   0  -5   6 131.102 8.30615   4
  -1   5  -6 146.221 5.26154   1
   1  -5   6 150.193 8.82876   4
  -2   5  -6 581.681 14.3125   1
  -2   5  -6 617.188 14.1323   3
   2  -5   6 624.648 18.5707   4
   2  -5   6 577.207 13.7103   2
   2  -5   6 577.441 13.8750   2
  -3   5  -6 83.2491 5.17511   3
  -3   5  -6 86.3014 5.28646   1
   3  -5   6 65.3977 4.69982   2
   3  -5   6 80.5551 5.02436   2
   3  -5   6 80.1564 6.17321   4
  -4   5  -6 214.130 9.06467   1
  -4   5  -6 208.631 8.76620   3
   4  -5   6 189.246 8.43771   2
   4  -5   6 194.527 9.21562   4
  -5   5  -6 4.42217 2.53311   3
  -5   5  -6 3.16769 2.74782   1
   5  -5   6 3.30438 2.52564   2
  -6   5  -6 5.51775 2.81296   3
  -6   5  -6 8.99728 3.45998   1
   6  -5   6 13.0347 3.26461   2
  -7   5  -6 -0.4828 2.53183   1
  -7   5  -6 1.41568 3.15435   3
   8   4  -6 8.97997 3.30156   1
  -8  -4   6 7.07164 3.59687   2
   7   4  -6 22.5641 3.94064   1
  -7  -4   6 26.3361 4.14034   2
   6   4  -6 8.27864 2.64487   1
   5   4  -6 303.823 9.05090   1
  -3  -4   6 44.6152 6.36250   4
  -2  -4   6 108.906 7.84717   4
  -1  -4   6 260.330 11.5881   4
   0  -4   6 9.20893 3.09855   4
  -1   4  -6 45.1898 3.06233   1
   1  -4   6 49.6471 5.87098   4
  -2   4  -6 134.401 6.02891   1
  -2   4  -6 122.645 5.57454   3
   2  -4   6 134.436 5.77213   2
   2  -4   6 133.416 5.65768   2
   2  -4   6 120.785 7.43063   4
  -3   4  -6 79.9328 5.15761   3
  -3   4  -6 71.0501 5.07791   1
   3  -4   6 71.9043 5.83819   4
   3  -4   6 80.6068 5.10067   2
   3  -4   6 71.0980 4.75431   2
  -4   4  -6 75.4042 5.64837   1
  -4   4  -6 63.2559 5.74696   3
   4  -4   6 71.4195 5.64404   4
   4  -4   6 71.4245 5.41763   2
  -5   4  -6 10.7530 3.18708   3
  -5   4  -6 14.3861 3.32827   1
   5  -4   6 8.54640 2.34726   3
   5  -4   6 13.7324 3.33259   2
  -6   4  -6 4.20609 2.66090   3
  -6   4  -6 3.06341 2.73442   1
   6  -4   6 1.54542 1.91415   3
   8   3  -6 40.7229 5.42359   1
  -8  -3   6 45.6771 5.64321   2
   7   3  -6 67.9202 6.20354   1
  -7  -3   6 41.9760 4.69520   2
   6   3  -6 46.5420 4.48794   1
  -4  -3   6 16.4960 4.00472   4
  -3  -3   6 758.841 22.3500   4
  -2  -3   6 58.7028 6.43568   4
  -1  -3   6 171.389 9.04529   4
   0  -3   6 39.0869 5.19945   4
  -1   3  -6 1.33034 1.39644   3
  -1   3  -6 3.05900 1.34860   1
   1  -3   6 2.63186 1.25600   2
   1  -3   6 1.23221 2.00308   4
   1  -3   6 1.90347 1.37418   2
  -2   3  -6 145.171 6.11038   3
  -2   3  -6 138.843 6.22635   1
   2  -3   6 138.937 5.94299   2
   2  -3   6 134.050 5.99266   2
   2  -3   6 136.762 7.72489   4
  -3   3  -6 75.9829 5.07983   3
  -3   3  -6 52.8142 5.11890   1
   3  -3   6 60.5906 3.96421   1
   3  -3   6 69.5995 5.04438   2
   3  -3   6 64.4102 5.52345   4
  -4   3  -6 27.3039 4.36961   1
  -4   3  -6 33.5860 4.50520   3
   4  -3   6 32.8465 3.61046   3
   4  -3   6 25.6876 3.84568   2
   4  -3   6 26.8967 3.61035   1
   4  -3   6 31.6181 4.69855   4
  -5   3  -6 49.5524 5.80531   1
  -5   3  -6 37.5922 5.06169   3
   5  -3   6 50.3448 4.98337   3
   5  -3   6 47.1820 5.39652   2
  -6   3  -6 0.34729 2.45727   3
  -6   3  -6 -3.2387 1.95039   1
   6  -3   6 1.99492 1.83311   3
   9   2  -6 256.469 11.8261   1
  -9  -2   6 260.439 11.6130   2
   8   2  -6 47.7490 5.56444   1
  -8  -2   6 41.6332 5.23892   2
   7   2  -6 44.3414 4.83423   1
  -7  -2   6 56.0091 5.01576   2
  -7  -2   6 47.6620 4.59461   2
   6   2  -6 22.4202 3.23589   1
  -5  -2   6 -0.2615 2.32019   4
  -4  -2   6 30.2595 4.83381   4
  -3  -2   6 556.798 17.6486   4
  -2  -2   6 79.1205 5.95347   4
  -1  -2   6 156.271 8.22706   4
   0   2  -6 40.5256 2.75730   1
   0  -2   6 46.8869 5.74483   4
  -1   2  -6 34.5257 3.28303   3
  -1   2  -6 41.0072 3.78561   1
   1  -2   6 37.2242 3.28962   2
   1  -2   6 37.9934 3.35434   2
   1  -2   6 38.7337 5.08827   4
  -2   2  -6 0.98387 1.66387   3
  -2   2  -6 0.23494 1.52206   1
   2  -2   6 0.35802 1.39719   2
   2  -2   6 -1.4582 0.94762   1
   2  -2   6 3.96059 1.84364   2
   2  -2   6 0.49615 1.87567   4
  -3   2  -6 -0.7001 1.67441   3
  -3   2  -6 0.82775 1.90395   1
   3  -2   6 -0.1585 1.84963   4
   3  -2   6 -2.7197 1.42106   2
   3  -2   6 -2.4620 1.27166   3
   3  -2   6 0.99504 1.36116   1
  -4   2  -6 4.12267 2.44931   1
  -4   2  -6 -0.0279 2.13351   3
   4  -2   6 1.58496 1.74662   1
   4  -2   6 2.93402 2.28335   4
   4  -2   6 3.23980 1.97587   3
   4  -2   6 0.30066 1.74702   2
  -5   2  -6 17.3537 3.99638   3
  -5   2  -6 19.8351 4.10820   1
   5  -2   6 21.0930 3.83421   1
   5  -2   6 17.3441 3.32066   3
  -6   2  -6 19.5524 4.73725   1
  -6   2  -6 18.3018 4.40008   3
   6  -2   6 15.4282 3.60712   3
   9   1  -6 28.6985 4.88444   1
  -9  -1   6 18.8418 4.22567   2
   8   1  -6 1.04196 1.95051   1
  -8  -1   6 3.51417 2.59274   2
   7   1  -6 19.3421 4.33452   3
   7   1  -6 24.4901 3.66878   1
  -7  -1   6 27.8647 3.84480   2
  -7  -1   6 17.4234 3.04627   2
   6   1  -6 48.1489 4.36699   1
   6   1  -6 49.7172 3.82757   3
  -6  -1   6 38.4451 5.60995   4
   5   1  -6 112.578 4.69236   1
  -5  -1   6 102.302 7.48067   4
  -4  -1   6 16.4761 3.83953   4
  -3  -1   6 57.4245 5.55793   4
  -2  -1   6 18.9662 3.75357   4
   1   1  -6 3.20076 1.16783   1
  -1  -1   6 3.96965 2.39691   4
   0   1  -6 205.005 6.75611   1
   0   1  -6 220.681 6.67900   3
   0  -1   6 229.088 10.0550   4
   0  -1   6 203.623 6.50649   2
   0  -1   6 204.909 6.44486   2
  -1   1  -6 464.485 12.2157   1
  -1   1  -6 473.074 11.8318   3
   1  -1   6 452.755 15.0465   4
   1  -1   6 433.938 11.5719   2
   1  -1   6 462.882 11.7577   2
   1  -1   6 420.523 10.7633   1
  -2   1  -6 3.05419 1.83633   1
  -2   1  -6 1.40609 1.83150   3
   2  -1   6 2.73444 2.44775   4
   2  -1   6 1.06905 1.63049   2
   2  -1   6 5.33632 2.04938   2
   2  -1   6 4.03642 1.66483   1
   2  -1   6 2.05710 1.66490   3
  -3   1  -6 31.4504 4.02332   1
  -3   1  -6 44.5195 4.85527   3
   3  -1   6 46.6161 6.10396   4
   3  -1   6 43.7666 4.53806   1
   3  -1   6 35.9454 4.35087   2
   3  -1   6 33.4657 3.87736   3
  -4   1  -6 1.69127 2.30420   3
  -4   1  -6 3.71001 2.39243   1
   4  -1   6 4.84738 2.55197   2
   4  -1   6 5.07693 2.72245   4
   4  -1   6 1.02678 1.95036   3
   4  -1   6 2.07990 2.00756   1
  -5   1  -6 47.7636 5.92035   3
  -5   1  -6 39.3314 5.56002   1
   5  -1   6 54.2207 5.63591   3
   5  -1   6 60.1701 6.60357   1
  -6   1  -6 51.5856 6.66246   3
   6  -1   6 46.0679 5.73657   3
  10   0  -6 -3.0504 2.53004   1
 -10   0   6 2.68850 3.27720   2
   9   0  -6 39.7720 5.52286   1
  -9   0   6 17.7971 4.07826   2
   8   0  -6 18.4228 3.75570   1
   8   0  -6 16.3145 3.40970   3
  -8   0   6 10.8167 3.25559   2
   7   0  -6 2.54259 2.04048   1
   7   0  -6 3.10760 1.97024   3
  -7   0   6 2.17100 2.18869   2
  -7   0   6 4.25398 1.93380   2
  -7   0   6 4.07002 2.81698   4
   6   0  -6 39.6234 3.69772   3
   6   0  -6 36.6477 3.76061   1
  -6   0   6 37.0355 3.55537   2
  -6   0   6 36.3377 3.35134   2
  -6   0   6 32.5968 5.13515   4
   5   0  -6 2.00883 1.39432   3
   5   0  -6 8.20592 1.84642   1
  -5   0   6 6.30163 2.84122   4
   4   0  -6 66.7327 3.42721   1
  -4   0   6 67.0358 5.83744   4
   3   0  -6 62.2738 3.09161   1
  -3   0   6 66.9599 5.72629   4
   2   0  -6 16.3726 2.02701   1
  -2   0   6 11.4046 3.12161   4
   1   0  -6 491.691 11.1966   3
   1   0  -6 478.151 11.6282   1
  -1   0   6 473.049 11.1261   2
  -1   0   6 504.813 15.6992   4
  -1   0   6 490.928 11.2734   2
   0   0  -6 595.338 14.3127   1
   0   0  -6 601.604 13.9296   3
   0   0   6 586.142 13.8277   2
   0   0   6 601.145 17.9397   4
   0   0   6 587.748 13.1473   1
   0   0   6 590.527 13.8077   2
  -1   0  -6 69.7032 4.55560   3
  -1   0  -6 71.7956 4.78663   1
   1   0   6 62.4137 4.03324   3
   1   0   6 66.5674 4.15855   1
   1   0   6 75.9264 4.70243   2
   1   0   6 63.2842 4.34516   2
   1   0   6 76.6083 6.46849   4
  -2   0  -6 467.823 13.3588   3
  -2   0  -6 457.215 13.7333   1
   2   0   6 456.860 13.0578   2
   2   0   6 441.235 12.7450   1
   2   0   6 430.327 15.6478   4
   2   0   6 446.102 12.3771   3
  -3   0  -6 131.568 7.57620   1
  -3   0  -6 128.014 7.25252   3
   3   0   6 132.885 8.82114   4
   3   0   6 123.158 6.68203   3
   3   0   6 126.797 7.11696   2
   3   0   6 122.469 6.93048   1
  -4   0  -6 49.4179 6.00088   1
  -4   0  -6 46.3946 5.49544   3
   4   0   6 63.9547 7.76375   4
   4   0   6 47.4701 5.61092   1
   4   0   6 55.3440 5.58381   3
  -5   0  -6 90.0524 8.92012   1
  -5   0  -6 84.1114 7.97811   3
   5   0   6 94.8174 7.08828   3
   5   0   6 89.3595 8.16489   1
  10  -1  -6 23.0488 4.85957   1
  10  -1  -6 24.9554 4.70663   3
 -10   1   6 26.0220 5.09410   2
   9  -1  -6 51.3256 5.82956   3
  -9   1   6 48.5826 5.64374   2
   8  -1  -6 11.6028 3.09039   3
   8  -1  -6 9.81269 2.79924   1
  -8   1   6 11.4951 3.36466   2
  -8   1   6 14.9763 3.57457   4
   7  -1  -6 250.892 9.16414   1
   7  -1  -6 258.432 8.97323   3
  -7   1   6 256.551 8.96330   2
  -7   1   6 240.585 8.49124   2
  -7   1   6 222.233 10.7303   4
   6  -1  -6 181.335 6.99367   1
   6  -1  -6 168.516 6.62717   3
  -6   1   6 168.778 8.93511   4
  -6   1   6 167.288 6.37043   2
  -6   1   6 168.022 6.58782   2
   5  -1  -6 15.3514 2.50481   1
   5  -1  -6 11.1938 2.10625   3
  -5   1   6 13.9303 3.59964   4
  -5   1   6 13.2479 2.06310   2
  -5   1   6 15.0326 2.30764   2
   4  -1  -6 0.64209 1.17749   1
  -4   1   6 -0.1076 1.18808   2
  -4   1   6 -1.2006 2.05741   4
  -4   1   6 1.74465 1.10062   2
   3  -1  -6 27.0999 2.75232   1
  -3   1   6 32.6203 2.54088   2
  -3   1   6 30.2490 4.57140   4
  -3   1   6 38.9338 2.90578   2
   2  -1  -6 10.5329 1.94371   1
   2  -1  -6 15.3192 2.09694   3
  -2   1   6 10.6737 1.56451   1
  -2   1   6 13.0563 2.02045   2
  -2   1   6 16.1802 3.77714   4
  -2   1   6 10.9702 1.91618   2
   1  -1  -6 -0.5063 1.18767   1
   1  -1  -6 0.59806 1.54201   3
  -1   1   6 0.24288 0.95743   1
  -1   1   6 -0.3551 1.21113   2
  -1   1   6 0.83765 1.18706   2
  -1   1   6 -0.3832 1.08082   3
   0  -1  -6 71.5585 4.64699   1
   0  -1  -6 66.4942 4.52481   3
   0   1   6 75.4285 4.65470   2
   0   1   6 73.6376 4.33933   1
   0   1   6 70.7777 4.26085   1
   0   1   6 70.1837 4.16715   3
   0   1   6 66.7541 4.37808   2
  -1  -1  -6 500.477 14.1684   1
  -1  -1  -6 481.266 13.4675   3
   1   1   6 499.922 13.0332   3
   1   1   6 495.038 13.4906   2
   1   1   6 496.516 13.4217   1
  -2  -1  -6 95.3899 6.15089   3
  -2  -1  -6 94.9152 6.35301   1
   2   1   6 95.2794 5.99924   1
   2   1   6 97.8188 5.89618   3
   2   1   6 94.4700 5.98202   2
  -3  -1  -6 22.1169 4.04314   3
  -3  -1  -6 16.9378 3.60041   1
   3   1   6 15.1457 3.32574   2
   3   1   6 18.3637 3.44115   3
   3   1   6 16.6113 3.44883   1
  -4  -1  -6 61.1849 6.61092   3
  -4  -1  -6 56.6769 6.50202   1
   4   1   6 60.8722 6.58913   1
   4   1   6 67.3151 6.45392   3
  -5  -1  -6 19.1910 4.65923   1
  -5  -1  -6 20.5044 4.48484   3
   5   1   6 25.0127 4.60970   3
   5   1   6 27.0308 5.27151   1
  10  -2  -6 2.60457 2.86564   3
  10  -2  -6 2.47150 2.91858   1
 -10   2   6 3.11051 3.15354   2
   9  -2  -6 251.976 10.4058   3
   9  -2  -6 229.578 10.3195   1
  -9   2   6 232.305 10.1187   2
   8  -2  -6 45.4929 5.11424   3
   8  -2  -6 31.2886 4.33796   1
  -8   2   6 32.6101 4.47497   2
  -8   2   6 27.9420 4.72087   4
   7  -2  -6 75.8733 5.09960   3
   7  -2  -6 59.0575 5.40916   1
  -7   2   6 73.3968 5.22408   2
  -7   2   6 67.9538 3.91651   1
  -7   2   6 71.9527 4.89405   2
  -7   2   6 59.9224 6.48123   4
   6  -2  -6 17.1068 2.89179   1
   6  -2  -6 13.7350 2.54143   3
  -6   2   6 12.2301 1.96866   1
  -6   2   6 18.3497 2.94721   2
  -6   2   6 10.6934 3.45026   4
  -6   2   6 14.8054 2.45919   2
   5  -2  -6 32.9188 3.53968   1
  -5   2   6 38.2962 2.76955   1
  -5   2   6 41.8875 3.55861   2
  -5   2   6 43.1832 5.74101   4
  -5   2   6 36.6293 3.49977   2
   4  -2  -6 35.6834 3.43168   1
  -4   2   6 44.3454 3.24153   2
  -4   2   6 41.5936 2.75977   1
  -4   2   6 45.6443 3.37648   2
  -4   2   6 41.7923 5.46163   4
   3  -2  -6 144.824 5.81321   1
  -3   2   6 145.455 8.36794   4
  -3   2   6 142.385 5.05147   1
  -3   2   6 147.552 5.63849   2
  -3   2   6 159.102 5.68786   2
   2  -2  -6 24.4314 2.99841   1
   2  -2  -6 17.6591 2.54513   3
  -2   2   6 18.1330 2.50279   2
  -2   2   6 27.7162 3.05731   2
  -2   2   6 25.9764 2.63848   3
  -2   2   6 27.2047 2.79541   1
   1  -2  -6 10.1521 2.43061   1
   1  -2  -6 14.3262 2.69268   3
  -1   2   6 10.1548 2.24162   2
  -1   2   6 9.51939 2.08495   3
  -1   2   6 8.09018 1.99239   1
  -1   2   6 6.40594 1.91174   2
   0  -2  -6 4.81001 2.26446   1
   0  -2  -6 6.50041 2.29547   3
   0   2   6 8.27599 2.36763   2
   0   2   6 11.7638 2.56415   1
   0   2   6 5.05601 2.01814   3
  -1  -2  -6 233.235 9.56125   1
  -1  -2  -6 252.903 9.50014   3
   1   2   6 243.138 9.06082   3
   1   2   6 248.180 9.33877   1
   1   2   6 240.245 9.13358   2
   1   2   6 247.186 9.35505   1
  -2  -2  -6 89.6081 6.28343   3
  -2  -2  -6 90.2703 6.44183   1
   2   2   6 72.9502 5.72457   2
   2   2   6 80.2968 5.88835   3
   2   2   6 80.9287 5.92358   1
  -3  -2  -6 86.6430 8.03604   1
  -3  -2  -6 77.9924 7.27954   3
   3   2   6 60.0398 6.03402   3
   3   2   6 74.8768 6.88219   1
  -4  -2  -6 110.868 8.09485   3
  -4  -2  -6 128.864 8.87600   1
   4   2   6 121.603 8.34775   1
   4   2   6 107.288 7.63191   3
  11  -3  -6 81.2455 8.67906   1
  11  -3  -6 73.5024 7.96208   3
 -11   3   6 77.6955 9.09373   2
  10  -3  -6 47.1936 6.24015   1
  10  -3  -6 58.0628 6.60577   3
 -10   3   6 58.3267 6.41602   2
   9  -3  -6 164.401 8.74983   1
   9  -3  -6 150.066 8.23003   3
  -9   3   6 160.099 8.79383   4
  -9   3   6 150.970 8.44715   2
   8  -3  -6 4.32922 2.48488   1
   8  -3  -6 2.42933 2.29701   3
  -8   3   6 8.20035 3.03823   4
  -8   3   6 2.31040 2.38180   2
   7  -3  -6 13.6579 3.10398   1
  -7   3   6 18.0700 4.07240   4
  -7   3   6 15.7504 3.26748   2
  -7   3   6 16.1224 3.74479   2
  -7   3   6 16.8717 2.69025   1
   6  -3  -6 460.026 13.1210   1
  -6   3   6 465.722 12.4340   2
  -6   3   6 467.715 12.6953   2
  -6   3   6 458.054 15.6731   4
  -6   3   6 473.028 11.7976   1
   5  -3  -6 977.438 21.4577   1
  -5   3   6 973.036 25.1455   4
  -5   3   6 956.089 19.9384   1
  -5   3   6 973.169 20.8237   2
  -5   3   6 960.028 19.2761   3
  -5   3   6 946.286 20.4470   2
   4  -3  -6 499.828 13.1456   1
  -4   3   6 502.128 12.0743   1
  -4   3   6 489.896 12.3786   2
  -4   3   6 494.665 11.5966   3
  -4   3   6 510.372 12.6961   2
  -4   3   6 493.629 12.5722   2
   3  -3  -6 156.505 6.64979   1
   3  -3  -6 146.563 6.10453   3
  -3   3   6 142.020 5.66985   3
  -3   3   6 145.100 6.12104   2
  -3   3   6 145.690 6.09737   2
  -3   3   6 151.833 5.90845   1
   2  -3  -6 11.7999 2.54760   1
   2  -3  -6 15.4241 2.72876   3
  -2   3   6 10.7449 2.18075   1
  -2   3   6 16.7355 2.70050   2
  -2   3   6 15.8041 2.47872   3
   1  -3  -6 24.4486 3.57624   3
   1  -3  -6 23.6637 3.37740   1
  -1   3   6 28.5731 3.40859   3
  -1   3   6 18.5478 3.03639   2
  -1   3   6 17.8401 2.96056   1
   0  -3  -6 602.629 16.0302   3
   0  -3  -6 576.697 16.3210   1
   0   3   6 615.998 15.9973   1
   0   3   6 583.647 15.6096   2
   0   3   6 582.531 15.3298   3
  -1  -3  -6 94.2975 6.46468   3
  -1  -3  -6 96.7996 6.49472   1
   1   3   6 99.5089 6.09667   3
   1   3   6 98.2378 6.40601   1
   1   3   6 98.7328 6.21724   2
  -2  -3  -6 155.924 8.59777   3
  -2  -3  -6 153.056 8.62606   1
   2   3   6 156.887 8.52882   1
   2   3   6 147.327 8.01527   3
   2   3   6 156.739 8.46990   1
  -3  -3  -6 34.5710 5.16932   3
  -3  -3  -6 30.6033 5.22139   1
   3   3   6 40.5248 5.37459   3
   3   3   6 35.3305 5.26382   1
  -4  -3  -6 37.8419 6.17462   3
  -4  -3  -6 38.3534 6.45048   1
   4   3   6 23.9782 4.66745   3
   4   3   6 30.6703 5.42129   1
  11  -4  -6 37.9034 5.80957   3
  11  -4  -6 46.8666 6.96484   1
  10  -4  -6 48.8057 5.96976   3
  10  -4  -6 50.3258 6.59317   1
 -10   4   6 43.9556 4.52027   3
 -10   4   6 55.6131 6.53826   2
   9  -4  -6 152.226 8.74197   1
  -9   4   6 143.860 8.39660   2
  -9   4   6 158.570 7.03700   3
  -9   4   6 160.107 8.69654   4
   8  -4  -6 15.6280 3.54380   1
  -8   4   6 12.4327 2.49817   3
  -8   4   6 15.9800 3.84387   4
  -8   4   6 15.7813 3.51665   2
  -8   4   6 16.0725 3.01959   1
   7  -4  -6 32.0057 4.33604   1
  -7   4   6 30.0338 3.32475   3
  -7   4   6 28.1761 3.43273   1
  -7   4   6 33.7647 5.38666   4
  -7   4   6 31.1650 4.28553   2
   6  -4  -6 1329.89 28.7259   1
  -6   4   6 1345.14 32.0810   4
  -6   4   6 1382.93 28.1735   2
  -6   4   6 1351.42 27.1933   1
  -6   4   6 1328.34 26.5616   3
  -6   4   6 1279.67 33.9294   2
   5  -4  -6 182.441 7.82100   1
  -5   4   6 175.000 7.30867   2
  -5   4   6 178.333 6.62532   3
  -5   4   6 175.418 6.82144   1
   4  -4  -6 5.49151 2.14897   1
  -4   4   6 0.42479 1.49585   3
  -4   4   6 5.48474 2.05800   2
  -4   4   6 1.78446 1.53185   1
   3  -4  -6 5.06162 1.99163   1
   3  -4  -6 7.71950 2.44063   3
  -3   4   6 8.74315 2.24018   1
  -3   4   6 7.67559 2.14694   3
  -3   4   6 10.9060 2.51534   2
   2  -4  -6 11.9792 2.79902   3
   2  -4  -6 6.85886 2.48391   1
  -2   4   6 9.39827 2.28520   1
  -2   4   6 3.65754 2.00573   2
  -2   4   6 8.53361 2.25151   3
   1  -4  -6 5.67390 2.26402   1
   1  -4  -6 6.31358 2.63276   3
  -1   4   6 4.21894 1.90899   1
  -1   4   6 7.58770 2.29326   3
  -1   4   6 2.89381 2.22289   2
   0  -4  -6 180.395 8.84405   1
   0  -4  -6 194.075 8.69738   3
   0   4   6 168.936 7.89514   3
   0   4   6 177.334 8.32110   2
   0   4   6 173.159 8.34666   1
  -1  -4  -6 81.8291 6.45646   1
  -1  -4  -6 82.2787 6.31951   3
   1   4   6 88.6657 6.19883   3
   1   4   6 103.111 6.87885   1
  -2  -4  -6 1.14985 2.31737   3
  -2  -4  -6 3.04426 2.47889   1
   2   4   6 1.54101 2.25883   1
   2   4   6 -1.2168 1.94337   1
   2   4   6 1.69250 2.16252   3
  -3  -4  -6 7.63593 3.55260   3
  -3  -4  -6 8.37246 3.55916   1
   3   4   6 7.98057 3.46152   1
   3   4   6 9.93896 3.55617   3
  11  -5  -6 73.6946 8.30569   1
 -11   5   6 81.7370 6.16419   3
  10  -5  -6 11.5381 3.71080   1
 -10   5   6 9.61915 2.95401   3
 -10   5   6 17.7963 4.53778   2
   9  -5  -6 11.1863 3.50896   1
  -9   5   6 7.46382 3.17294   2
  -9   5   6 11.1403 3.43164   4
  -9   5   6 5.51189 2.34093   3
   8  -5  -6 111.935 7.44520   1
  -8   5   6 120.287 6.28631   3
  -8   5   6 126.534 7.55894   2
  -8   5   6 140.212 8.65230   4
  -8   5   6 127.883 6.75746   1
   7  -5  -6 309.487 11.4470   1
  -7   5   6 300.769 10.8392   2
  -7   5   6 291.738 12.8754   4
  -7   5   6 304.215 10.2101   1
  -7   5   6 301.122 9.86944   3
   6  -5  -6 103.642 6.66095   1
  -6   5   6 105.020 6.34053   2
  -6   5   6 106.081 5.57257   3
  -6   5   6 108.914 5.90355   1
   5  -5  -6 38.8757 4.61412   1
  -5   5   6 38.2242 3.99695   3
  -5   5   6 42.6459 4.38975   1
  -5   5   6 39.5893 4.21539   2
   4  -5  -6 -0.9204 1.67264   1
   4  -5  -6 5.32847 2.37747   3
  -4   5   6 -0.5766 1.45760   1
  -4   5   6 0.32405 1.48378   3
  -4   5   6 0.89544 1.69467   2
   3  -5  -6 -0.5400 1.80771   3
   3  -5  -6 0.82327 1.76445   1
  -3   5   6 -2.0446 1.66825   2
  -3   5   6 1.31759 1.56511   1
  -3   5   6 -0.8672 1.45236   3
   2  -5  -6 114.544 6.68964   3
   2  -5  -6 125.801 7.13937   1
  -2   5   6 112.095 6.31265   2
  -2   5   6 109.642 6.18375   1
  -2   5   6 104.687 6.13171   3
   1  -5  -6 0.62130 2.25813   1
   1  -5  -6 3.38104 2.27815   3
  -1   5   6 -0.4613 1.71463   3
  -1   5   6 2.09288 2.02882   2
  -1   5   6 2.66278 1.96508   1
   0  -5  -6 6.52918 2.83548   1
   0  -5  -6 9.55081 2.93224   3
   0   5   6 12.4442 3.19280   3
   0   5   6 1.29458 1.99837   1
  -1  -5  -6 2.11125 2.38737   3
  -1  -5  -6 4.59118 2.66997   1
   1   5   6 2.13968 2.14960   1
   1   5   6 5.77082 2.70234   3
  -2  -5  -6 13.8494 4.17929   1
  -2  -5  -6 13.9839 3.87429   3
   2   5   6 11.2489 3.36056   3
   2   5   6 13.6156 3.76234   1
  11  -6  -6 1.39884 3.15118   1
 -11   6   6 2.31524 2.56623   3
  10  -6  -6 -0.3092 2.22276   1
 -10   6   6 -0.1134 1.99612   3
   9  -6  -6 25.3715 4.63251   1
  -9   6   6 23.3190 4.55137   2
  -9   6   6 23.0785 4.66613   4
  -9   6   6 23.6318 3.81190   3
  -9   6   6 22.8915 3.90550   1
   8  -6  -6 115.726 7.66430   1
  -8   6   6 132.933 8.87305   4
  -8   6   6 114.454 6.47921   3
  -8   6   6 138.448 7.33149   1
  -8   6   6 125.090 7.59159   2
   7  -6  -6 0.71262 2.20452   1
  -7   6   6 3.50637 2.01434   1
  -7   6   6 1.19923 1.67449   3
  -7   6   6 -0.2540 2.18498   2
   6  -6  -6 14.0690 3.37909   1
  -6   6   6 16.3397 3.10689   1
  -6   6   6 17.8301 3.42663   2
  -6   6   6 20.9571 3.36620   3
   5  -6  -6 78.6452 6.01976   1
   5  -6  -6 88.1829 6.03836   3
  -5   6   6 79.5109 5.55113   1
  -5   6   6 81.2966 5.28618   3
  -5   6   6 86.7201 5.71515   2
   4  -6  -6 2.11679 2.21461   3
   4  -6  -6 1.22438 1.93488   1
  -4   6   6 4.46077 2.13577   1
  -4   6   6 3.50670 1.94407   3
  -4   6   6 2.24726 2.15229   2
   3  -6  -6 4.78883 2.63922   1
   3  -6  -6 0.76324 2.19468   3
  -3   6   6 2.36257 1.94102   1
  -3   6   6 6.79376 2.20068   3
  -3   6   6 3.62970 2.22419   2
   2  -6  -6 50.3146 5.30984   3
   2  -6  -6 49.4658 5.60307   1
  -2   6   6 49.4636 5.26307   1
  -2   6   6 53.2434 5.28844   3
   1  -6  -6 2.81537 2.39071   3
   1  -6  -6 1.00733 2.08123   1
  -1   6   6 -0.7870 1.79996   3
  -1   6   6 -0.2948 1.77312   1
   0  -6  -6 98.5997 7.15470   3
   0  -6  -6 102.215 7.60462   1
   0   6   6 98.8450 7.23373   1
   0   6   6 89.7060 6.68999   3
  -1  -6  -6 10.0808 3.59575   3
  -1  -6  -6 8.73461 3.42362   1
   1   6   6 7.37535 3.14341   1
   1   6   6 9.64170 3.09945   3
  -2  -6  -6 -0.6448 2.44233   3
   2   6   6 -0.8318 2.25268   1
   2   6   6 0.33304 2.31499   3
  10  -7  -6 2.08461 3.04638   1
 -10   7   6 8.39220 2.98002   3
   9  -7  -6 12.2620 3.71743   1
  -9   7   6 17.9936 3.59137   1
  -9   7   6 15.2994 3.39547   3
  -9   7   6 25.0476 4.99058   4
   8  -7  -6 56.2357 6.63981   1
  -8   7   6 50.2677 5.35878   3
  -8   7   6 66.1028 8.05840   4
  -8   7   6 57.4285 5.94046   1
   7  -7  -6 63.5531 6.88233   1
  -7   7   6 58.1355 6.24786   2
  -7   7   6 53.9874 5.44278   3
  -7   7   6 49.5033 5.31401   1
   6  -7  -6 1.97799 2.15794   1
   6  -7  -6 -0.0605 2.19743   3
  -6   7   6 3.02944 1.99833   1
  -6   7   6 0.87377 1.74218   2
  -6   7   6 0.13054 1.68625   3
   5  -7  -6 51.4150 5.52700   3
   5  -7  -6 65.9950 6.62330   1
  -5   7   6 47.4512 5.42573   1
  -5   7   6 55.3252 6.23579   2
  -5   7   6 50.9654 5.20060   3
   4  -7  -6 7.88610 2.88787   1
   4  -7  -6 14.2830 3.30206   3
  -4   7   6 15.5877 3.27820   3
  -4   7   6 19.7509 3.61896   1
   3  -7  -6 46.0017 5.30561   3
   3  -7  -6 53.0665 5.87718   1
  -3   7   6 53.9373 5.79254   1
  -3   7   6 57.8413 5.64852   3
   2  -7  -6 -0.9950 1.99662   1
   2  -7  -6 0.31113 2.21288   3
  -2   7   6 0.98879 2.22666   3
  -2   7   6 0.18707 1.67822   1
   1  -7  -6 53.4380 6.15695   3
   1  -7  -6 66.1591 7.09592   1
  -1   7   6 59.4645 6.04420   3
  -1   7   6 64.6816 6.93408   1
   0  -7  -6 12.3841 3.91899   3
   0  -7  -6 9.91492 3.60127   1
   0   7   6 11.2780 3.25616   3
   0   7   6 12.0337 3.54008   1
  -1  -7  -6 4.93128 3.27747   1
  -1  -7  -6 7.17118 3.34110   3
   1   7   6 4.47007 2.79319   3
   1   7   6 2.90305 3.06864   1
  10  -8  -6 62.8021 7.95746   1
 -10   8   6 51.7257 6.16646   3
   9  -8  -6 8.78931 3.52378   1
  -9   8   6 3.87008 3.88560   4
  -9   8   6 6.73920 2.83726   3
  -9   8   6 6.16371 2.66855   1
   8  -8  -6 17.5563 4.26864   1
  -8   8   6 21.5897 3.79964   3
  -8   8   6 25.8230 4.33188   1
   7  -8  -6 58.5331 6.60356   1
  -7   8   6 53.2135 5.93719   1
  -7   8   6 52.8585 5.52423   3
   6  -8  -6 26.4542 5.00364   1
   6  -8  -6 27.3635 4.47596   3
  -6   8   6 19.7051 3.57538   3
  -6   8   6 31.1357 4.64417   1
   5  -8  -6 84.1942 6.78658   1
   5  -8  -6 85.8541 6.56068   3
  -5   8   6 89.7554 6.48090   1
  -5   8   6 84.5107 6.12236   3
   4  -8  -6 19.0637 3.99658   3
   4  -8  -6 16.0698 3.96746   1
  -4   8   6 16.2636 3.52805   1
  -4   8   6 16.4620 3.47423   3
   3  -8  -6 22.6003 4.45760   1
   3  -8  -6 14.9069 3.81000   3
  -3   8   6 13.2000 3.65747   1
  -3   8   6 16.9509 3.54241   3
   2  -8  -6 175.854 9.33768   3
   2  -8  -6 174.171 9.78956   1
  -2   8   6 149.975 8.78668   3
  -2   8   6 176.211 9.43126   1
   1  -8  -6 155.624 9.85024   1
   1  -8  -6 154.139 9.12324   3
  -1   8   6 135.743 9.14901   1
  -1   8   6 157.899 9.06063   3
   9  -9  -6 8.09242 3.55252   1
  -9   9   6 5.26304 2.64622   1
  -9   9   6 4.35657 2.65007   3
   8  -9  -6 14.8673 4.10728   1
  -8   9   6 25.7792 4.43545   3
  -8   9   6 19.0641 4.20418   1
   7  -9  -6 54.7603 6.45453   3
   7  -9  -6 61.5994 7.26666   1
  -7   9   6 67.7823 7.13768   1
  -7   9   6 60.5779 6.32486   3
   6  -9  -6 4.50846 2.92294   1
   6  -9  -6 -1.2572 2.44219   3
  -6   9   6 6.03596 2.75269   3
  -6   9   6 1.08613 2.15529   1
   5  -9  -6 40.7095 5.78696   1
   5  -9  -6 36.2020 5.50056   3
  -5   9   6 39.0446 5.10211   3
  -5   9   6 42.9954 5.74920   1
   4  -9  -6 1.58203 2.46682   3
   4  -9  -6 10.1502 3.68433   1
  -4   9   6 7.90397 2.95894   1
  -4   9   6 2.05487 1.96535   3
   3  -9  -6 139.012 8.77788   3
   3  -9  -6 151.197 9.43438   1
  -3   9   6 141.582 9.09494   1
  -3   9   6 117.528 8.00375   3
   2  -9  -6 193.556 10.9672   1
   2  -9  -6 203.190 10.7488   3
  -2   9   6 211.799 10.9957   1
  -2   9   6 203.332 10.5940   3
   8 -10  -6 77.6493 8.90770   1
   8 -10  -6 55.5381 6.94430   3
  -8  10   6 52.6636 6.63362   1
  -8  10   6 62.2949 6.98375   3
   7 -10  -6 103.354 8.25908   1
   7 -10  -6 101.678 7.84143   3
  -7  10   6 97.9942 7.42912   3
  -7  10   6 111.454 8.02614   1
   6 -10  -6 26.4347 5.19457   1
   6 -10  -6 28.6721 5.25184   3
  -6  10   6 32.4058 5.40734   1
  -6  10   6 23.7320 4.49525   3
   5 -10  -6 7.58233 3.56356   1
   5 -10  -6 4.40980 3.12787   3
  -5  10   6 8.77646 3.14684   3
  -5  10   6 9.37633 3.52373   1
   4 -10  -6 33.2820 5.48636   3
   4 -10  -6 40.7355 6.53421   1
  -4  10   6 39.5854 6.09835   1
  -4  10   6 46.3359 6.13902   3
   0  11  -7 36.0072 4.39355   1
  -1  11  -7 -1.1337 1.40814   1
  -2  11  -7 2.25704 2.16499   1
  -3  11  -7 21.0177 3.60947   1
   3 -11   7 19.2965 3.58137   2
   2  10  -7 55.3412 5.13591   1
   0  10  -7 26.6667 3.39007   1
  -1  10  -7 6.02878 1.89356   1
  -2  10  -7 1.16942 1.59367   1
  -3  10  -7 2.90417 1.98875   1
   3 -10   7 3.04062 2.29096   2
  -4  10  -7 33.8265 4.51376   1
   4 -10   7 33.1613 4.47178   2
   5 -10   7 13.7342 3.50337   2
   3   9  -7 139.112 6.33541   1
  -1   9  -7 2.69952 1.59210   1
  -2   9  -7 9.67369 2.26240   1
  -3   9  -7 14.6112 2.87561   1
   3  -9   7 16.6528 3.17228   2
  -4   9  -7 -1.1498 1.51351   1
   4  -9   7 2.98517 2.15945   2
  -5   9  -7 4.86316 2.43242   1
   5  -9   7 10.0679 3.13665   2
   5   8  -7 -0.5321 1.69207   1
   4   8  -7 19.7255 2.96352   1
  -1   8  -7 12.7004 2.34909   1
  -2   8  -7 30.8356 3.64838   1
  -3   8  -7 6.39958 2.15032   1
   3  -8   7 6.81235 2.21560   2
  -4   8  -7 96.0811 6.37456   1
   4  -8   7 85.5234 5.94028   2
  -5   8  -7 174.425 9.27384   1
   5  -8   7 173.706 8.76244   2
  -6   8  -7 106.952 7.96797   1
   6  -8   7 96.9292 7.42063   2
   6   7  -7 12.6380 3.26736   1
   5   7  -7 -1.1107 1.36854   1
  -1   7  -7 43.7349 3.22476   1
  -2   7  -7 -0.5646 1.20221   1
  -3   7  -7 60.7084 5.51429   1
   3  -7   7 51.1537 4.78267   2
  -4   7  -7 111.359 6.91298   1
   4  -7   7 113.250 6.65634   2
  -5   7  -7 26.5153 4.69988   1
   5  -7   7 28.3567 4.49740   2
  -6   7  -7 2.41137 2.48750   1
  -6   7  -7 0.06985 2.58781   3
   6  -7   7 0.95491 2.44536   2
   6   6  -7 25.7844 3.79328   1
   5   6  -7 124.805 5.86627   1
  -1  -6   7 9.65579 3.81359   4
   0  -6   7 54.5841 7.29290   4
  -1   6  -7 3.74388 1.36110   1
   1  -6   7 -2.0426 2.05556   4
  -2   6  -7 16.6417 2.70196   1
   2  -6   7 29.5920 5.37610   4
   2  -6   7 23.6496 2.89179   2
  -3   6  -7 290.044 10.2411   1
   3  -6   7 282.553 12.5481   4
   3  -6   7 279.442 9.78246   2
  -4   6  -7 19.3910 3.75848   1
   4  -6   7 34.1605 4.49079   2
   4  -6   7 30.7696 5.03111   4
  -5   6  -7 3.32508 2.24619   1
  -5   6  -7 -0.1987 2.07686   3
   5  -6   7 0.82247 2.06943   2
  -6   6  -7 19.6503 4.50550   3
  -6   6  -7 12.1144 3.70620   1
   6  -6   7 10.3485 3.44192   2
   7   5  -7 7.22794 2.77908   1
   6   5  -7 11.8208 2.82961   1
   6   5  -7 12.4537 2.74175   1
  -3  -5   7 122.601 9.43936   4
  -2  -5   7 64.3436 7.94068   4
  -1  -5   7 22.1860 5.05750   4
   0  -5   7 78.1299 8.33349   4
  -1   5  -7 990.030 20.6938   1
   1  -5   7 1017.90 27.1252   4
  -2   5  -7 34.8393 3.79964   1
  -2   5  -7 28.2053 3.46218   3
   2  -5   7 30.4746 5.27538   4
   2  -5   7 25.4599 3.25732   2
   2  -5   7 28.4802 3.25093   2
  -3   5  -7 105.803 6.21206   1
  -3   5  -7 117.723 6.43905   3
   3  -5   7 105.573 7.58515   4
   3  -5   7 102.932 5.98298   2
  -4   5  -7 0.41174 1.72892   1
  -4   5  -7 0.71308 2.24980   3
   4  -5   7 0.85290 1.88893   2
   4  -5   7 0.90711 2.20956   4
  -5   5  -7 20.1748 4.07473   1
  -5   5  -7 15.3904 3.57339   3
   5  -5   7 17.3020 3.87921   2
  -6   5  -7 33.7312 5.61621   1
  -6   5  -7 41.3239 5.77908   3
   8   4  -7 46.8820 6.04132   1
  -8  -4   7 39.5582 5.27022   2
   7   4  -7 98.4676 6.25371   1
   6   4  -7 72.0226 4.86106   1
  -4  -4   7 13.1293 4.49366   4
  -3  -4   7 93.5725 8.16207   4
  -2  -4   7 3.60357 2.85967   4
  -1  -4   7 190.727 10.4040   4
   0  -4   7 176.790 9.87738   4
  -1   4  -7 850.937 18.4243   1
   1  -4   7 841.043 23.6517   4
  -2   4  -7 4.92535 1.99998   3
  -2   4  -7 2.86743 1.78410   1
   2  -4   7 7.88000 3.05619   4
   2  -4   7 4.10202 1.90889   2
   2  -4   7 4.22430 1.88667   2
  -3   4  -7 76.0771 6.21372   3
  -3   4  -7 61.5019 5.90817   1
   3  -4   7 69.4378 5.77193   2
   3  -4   7 68.1517 6.02241   4
  -4   4  -7 17.7353 3.57492   1
  -4   4  -7 16.8766 3.64329   3
   4  -4   7 23.4859 4.47856   4
   4  -4   7 18.0757 3.57891   2
  -5   4  -7 38.6823 5.46128   1
  -5   4  -7 41.1771 5.71740   3
   5  -4   7 38.0599 5.20552   2
  -6   4  -7 20.5788 4.38316   3
  -6   4  -7 29.2996 5.13075   1
   6  -4   7 24.5394 3.91904   3
   8   3  -7 5.48558 2.72985   1
  -8  -3   7 7.02485 2.92510   2
   7   3  -7 46.2623 4.97404   1
   6   3  -7 7.77275 2.14766   1
  -5  -3   7 334.279 15.1006   4
  -4  -3   7 60.8417 7.43102   4
  -3  -3   7 51.1428 6.48990   4
  -2  -3   7 0.99346 2.15486   4
  -1  -3   7 -0.1909 1.98148   4
   0   3  -7 10.1332 1.84664   1
   0  -3   7 8.81832 3.17095   4
  -1   3  -7 189.026 7.10552   1
  -1   3  -7 194.873 6.97227   3
   1  -3   7 201.212 10.2024   4
   1  -3   7 200.804 6.96460   2
   1  -3   7 192.348 6.81195   2
  -2   3  -7 2.73898 1.93340   3
  -2   3  -7 2.99078 1.75050   1
   2  -3   7 1.50198 1.62161   2
   2  -3   7 2.11944 2.41118   4
   2  -3   7 1.41846 1.76491   2
  -3   3  -7 5.29711 2.35700   3
  -3   3  -7 2.27607 2.05643   1
   3  -3   7 9.65019 3.19121   4
   3  -3   7 3.53304 2.14485   2
  -4   3  -7 175.121 8.89622   3
  -4   3  -7 177.226 9.15112   1
   4  -3   7 178.057 9.44463   4
   4  -3   7 163.868 8.43070   2
  -5   3  -7 15.8871 3.80345   1
  -5   3  -7 27.4487 4.81169   3
   5  -3   7 19.7744 4.08168   2
   5  -3   7 15.9622 3.07073   3
  -6   3  -7 4.91338 2.84931   3
   6  -3   7 2.08882 2.20789   3
   9   2  -7 3.59138 2.59087   1
  -9  -2   7 0.30823 2.68586   2
   8   2  -7 6.39656 2.49654   1
  -8  -2   7 7.06359 2.90700   2
   7   2  -7 2.89519 1.98155   1
   6   2  -7 100.803 5.13447   1
  -6  -2   7 100.237 8.40482   4
  -5  -2   7 185.207 10.8783   4
  -4  -2   7 102.378 8.04144   4
  -3  -2   7 208.132 10.6908   4
  -2  -2   7 -0.5500 1.91387   4
   1   2  -7 0.28219 0.91271   1
   1   2  -7 -0.9968 0.98222   1
  -1  -2   7 0.93651 2.09426   4
   0   2  -7 3.26836 1.40201   1
   0   2  -7 0.01476 1.23833   3
   0  -2   7 2.04140 2.52519   4
   0  -2   7 2.51186 1.34914   2
  -1   2  -7 31.8434 3.61040   3
  -1   2  -7 28.8002 3.51410   1
   1  -2   7 30.3030 5.06126   4
   1  -2   7 24.1579 3.09386   2
   1  -2   7 33.3172 3.41504   2
  -2   2  -7 33.9810 4.20807   1
  -2   2  -7 32.1270 4.10402   3
   2  -2   7 40.0248 4.24828   2
   2  -2   7 40.5815 5.65087   4
   2  -2   7 37.2117 3.55772   1
  -3   2  -7 19.3886 3.56628   1
  -3   2  -7 19.4160 3.78666   3
   3  -2   7 19.1305 2.89858   3
   3  -2   7 17.9475 3.34912   2
   3  -2   7 20.0877 4.42712   4
  -4   2  -7 60.2075 6.35570   1
  -4   2  -7 53.2194 5.94233   3
   4  -2   7 72.0301 6.71565   2
   4  -2   7 71.9291 7.77392   4
   4  -2   7 63.1100 5.44923   3
  -5   2  -7 18.3340 4.30371   3
  -5   2  -7 17.2365 4.32447   1
   5  -2   7 20.9551 3.72576   3
   9   1  -7 8.61933 3.19540   1
  -9  -1   7 7.26518 3.36519   2
   8   1  -7 1.81899 2.04976   1
  -8  -1   7 -2.4580 2.08576   2
   7   1  -7 20.7218 3.33375   1
  -7  -1   7 9.33510 3.64930   4
  -7  -1   7 11.7233 2.63876   2
   6   1  -7 204.969 7.25004   1
  -6  -1   7 205.585 11.2522   4
   5   1  -7 2.31418 1.24759   1
  -5  -1   7 2.71349 2.88135   4
  -4  -1   7 165.560 9.43766   4
  -3  -1   7 0.56923 2.39036   4
   2   1  -7 44.4523 2.78125   1
  -2  -1   7 43.5425 6.05231   4
   1   1  -7 6.29499 1.70784   1
   1   1  -7 5.54563 1.71661   3
  -1  -1   7 2.54186 2.54714   4
   0   1  -7 74.5987 4.35464   3
   0   1  -7 71.8852 4.43456   1
   0  -1   7 62.2547 4.01170   2
   0  -1   7 75.4760 6.67272   4
   0  -1   7 73.2953 4.34076   2
  -1   1  -7 99.7541 5.48044   3
  -1   1  -7 89.6735 5.39514   1
   1  -1   7 78.3967 7.04784   4
   1  -1   7 88.0784 4.37538   1
   1  -1   7 89.6655 5.21907   2
   1  -1   7 91.3717 5.18801   2
  -2   1  -7 468.275 13.8421   3
  -2   1  -7 483.561 14.6062   1
   2  -1   7 436.572 12.6228   1
   2  -1   7 469.854 12.0789   3
   2  -1   7 474.984 13.7509   2
   2  -1   7 499.408 17.3471   4
  -3   1  -7 7.05821 2.65505   1
  -3   1  -7 2.34775 2.23869   3
   3  -1   7 1.54104 2.68211   4
   3  -1   7 9.57098 2.72962   1
   3  -1   7 2.09947 2.23345   2
   3  -1   7 8.44277 2.36144   3
  -4   1  -7 33.7634 5.22778   1
  -4   1  -7 37.4959 5.29694   3
   4  -1   7 40.1946 5.52396   2
   4  -1   7 51.2159 7.07927   4
   4  -1   7 42.5529 4.85361   3
  -5   1  -7 8.97436 3.75095   3
  -5   1  -7 10.1497 3.92873   1
   5  -1   7 14.8879 3.42428   3
  10   0  -7 0.62133 2.75703   1
 -10   0   7 -1.7881 2.90609   2
   9   0  -7 -0.4702 2.29437   1
  -9   0   7 4.13565 2.89359   2
   8   0  -7 7.64402 2.69434   1
  -8   0   7 16.7853 4.23169   4
  -8   0   7 6.66146 2.88525   2
   7   0  -7 53.1307 4.99484   1
  -7   0   7 53.0144 4.63280   2
  -7   0   7 61.4859 4.41478   2
  -7   0   7 57.2894 7.14453   4
   6   0  -7 42.6204 4.00096   1
   6   0  -7 31.8789 3.39884   3
  -6   0   7 37.8069 5.89323   4
   5   0  -7 203.842 6.83013   1
  -5   0   7 204.897 10.6633   4
   4   0  -7 315.428 8.29610   1
  -4   0   7 308.304 13.0135   4
   3   0  -7 10.6654 1.73803   1
  -3   0   7 7.36080 3.14027   4
   2   0  -7 4.07938 1.51361   3
   2   0  -7 5.40166 1.59471   1
  -2   0   7 6.13416 1.63914   2
  -2   0   7 8.98628 3.48848   4
  -2   0   7 5.45621 1.56356   2
   1   0  -7 77.9077 4.42439   1
   1   0  -7 74.0573 4.32202   3
  -1   0   7 77.6507 4.32091   2
  -1   0   7 80.2184 6.97962   4
  -1   0   7 72.9950 4.20565   2
   0   0  -7 118.521 5.69612   3
   0   0  -7 105.514 5.66737   1
   0   0   7 112.372 5.56494   2
   0   0   7 116.222 8.28851   4
   0   0   7 109.537 5.43932   2
   0   0   7 103.765 4.71023   1
  -1   0  -7 89.3775 5.62130   3
  -1   0  -7 77.0530 5.38198   1
   1   0   7 82.5162 5.42787   2
   1   0   7 74.8732 4.71672   1
   1   0   7 92.1383 4.73093   3
   1   0   7 89.8834 7.70147   4
  -2   0  -7 17.1877 3.51139   1
  -2   0  -7 15.3243 3.39789   3
   2   0   7 16.1038 3.04215   1
   2   0   7 20.8604 3.68192   2
   2   0   7 15.9746 4.52169   4
   2   0   7 21.8278 3.19391   3
  -3   0  -7 12.5241 3.31229   1
  -3   0  -7 10.8298 3.32081   3
   3   0   7 11.3260 3.16932   2
   3   0   7 14.2673 3.11628   3
   3   0   7 16.4297 4.68481   4
   3   0   7 10.5688 2.90967   1
  -4   0  -7 47.0665 5.90073   3
  -4   0  -7 45.9986 6.24075   1
   4   0   7 61.7131 7.99224   4
   4   0   7 46.2310 5.49895   3
  -5   0  -7 53.6878 6.70616   3
  -5   0  -7 60.5557 7.43139   1
   5   0   7 63.0001 6.80032   3
  10  -1  -7 84.0312 8.22550   1
 -10   1   7 71.9154 7.11765   2
   9  -1  -7 1.68169 2.40826   1
  -9   1   7 0.82863 2.70546   2
  -9   1   7 5.16457 3.10529   4
   8  -1  -7 7.38708 2.64081   1
   8  -1  -7 4.27608 2.57414   3
  -8   1   7 6.73898 2.76602   2
  -8   1   7 3.70716 3.10017   4
   7  -1  -7 0.36611 1.67785   3
   7  -1  -7 1.29262 1.87661   1
  -7   1   7 -2.5250 2.36903   4
  -7   1   7 1.31773 1.68507   2
  -7   1   7 1.00942 1.95020   2
   6  -1  -7 59.2498 4.47308   1
   6  -1  -7 73.4657 4.46557   3
  -6   1   7 68.9759 7.53121   4
  -6   1   7 67.2193 4.29038   2
  -6   1   7 63.1852 4.56025   2
   5  -1  -7 61.8251 4.17832   1
  -5   1   7 68.5331 4.21659   2
  -5   1   7 66.6290 7.33065   4
  -5   1   7 66.5484 3.95002   2
   4  -1  -7 1.01985 1.29436   1
  -4   1   7 1.64905 1.33206   2
  -4   1   7 -1.4159 2.38423   4
  -4   1   7 -0.3063 1.27813   2
   3  -1  -7 10.7479 2.07374   1
  -3   1   7 13.7214 2.15179   2
  -3   1   7 23.7710 4.83869   4
  -3   1   7 13.7860 2.13543   2
   2  -1  -7 181.666 6.42881   3
   2  -1  -7 176.821 6.73282   1
  -2   1   7 172.881 6.45693   2
  -2   1   7 171.574 6.38557   2
  -2   1   7 191.155 10.1118   4
  -2   1   7 168.718 5.46906   1
  -2   1   7 173.629 5.54150   1
   1  -1  -7 36.1181 3.79459   3
   1  -1  -7 30.9642 3.60819   1
  -1   1   7 29.2208 3.30470   2
  -1   1   7 34.7858 3.55652   2
  -1   1   7 29.8854 3.00549   1
  -1   1   7 26.0447 4.94404   4
   0  -1  -7 72.0089 5.17188   1
   0  -1  -7 71.9898 5.06338   3
   0   1   7 62.2241 7.64698   4
   0   1   7 69.3470 4.38357   3
   0   1   7 75.0580 4.99495   2
   0   1   7 75.9487 5.03744   2
   0   1   7 65.2875 4.39714   1
  -1  -1  -7 76.4327 5.68659   1
  -1  -1  -7 71.6538 5.58350   3
   1   1   7 68.6508 5.23647   2
   1   1   7 60.9073 4.81271   1
   1   1   7 77.3355 5.03585   3
  -2  -1  -7 57.1283 6.06836   1
  -2  -1  -7 65.2177 6.20614   3
   2   1   7 70.0708 6.43542   2
   2   1   7 63.7019 5.94912   1
   2   1   7 59.0645 5.26877   3
  -3  -1  -7 315.001 12.8592   1
  -3  -1  -7 285.044 12.0386   3
   3   1   7 289.125 11.7146   1
   3   1   7 297.887 11.4295   3
  -4  -1  -7 385.787 14.8699   3
  -4  -1  -7 398.060 15.6265   1
   4   1   7 369.879 13.7074   3
   4   1   7 388.529 17.4020   4
   4   1   7 394.443 18.3973   1
  10  -2  -7 19.0647 4.56495   3
  10  -2  -7 9.34551 3.52530   1
 -10   2   7 7.69278 3.39037   2
   9  -2  -7 12.5831 3.37587   1
   9  -2  -7 3.82141 2.57544   3
  -9   2   7 2.39031 2.46598   2
  -9   2   7 4.45531 3.31147   4
   8  -2  -7 10.1614 2.87880   1
   8  -2  -7 2.89062 2.26224   3
  -8   2   7 8.45163 3.50365   4
  -8   2   7 5.09383 2.57918   2
   7  -2  -7 76.9950 5.20047   3
   7  -2  -7 78.9818 5.50196   1
  -7   2   7 78.3287 5.15825   2
  -7   2   7 76.9213 5.43421   2
  -7   2   7 67.4192 7.57274   4
   6  -2  -7 608.851 15.4429   1
  -6   2   7 586.150 14.4362   2
  -6   2   7 609.745 19.5571   4
  -6   2   7 584.714 14.7175   2
   5  -2  -7 514.742 13.4587   1
  -5   2   7 511.698 12.8792   2
  -5   2   7 519.841 12.7403   2
  -5   2   7 514.352 17.5977   4
   4  -2  -7 0.01025 1.44232   1
  -4   2   7 -0.4922 2.66122   4
  -4   2   7 -0.7756 1.41259   2
  -4   2   7 1.29531 1.33911   2
  -4   2   7 0.62506 1.60480   2
  -4   2   7 -0.3157 0.95361   1
   3  -2  -7 -0.1627 1.62794   3
   3  -2  -7 -0.7675 1.26416   1
  -3   2   7 0.32327 1.30373   2
  -3   2   7 0.11883 1.33117   2
  -3   2   7 0.54387 1.18475   1
  -3   2   7 -0.9088 2.75269   4
   2  -2  -7 497.321 12.9265   3
   2  -2  -7 492.611 13.3957   1
  -2   2   7 484.037 12.1821   1
  -2   2   7 486.178 11.5607   3
  -2   2   7 490.248 12.7187   2
  -2   2   7 491.187 12.7894   2
   1  -2  -7 126.786 6.53870   3
   1  -2  -7 120.603 6.48736   1
  -1   2   7 125.108 5.62363   3
  -1   2   7 126.944 6.24666   2
  -1   2   7 127.789 6.03660   1
  -1   2   7 127.853 6.41692   2
   0  -2  -7 29.5228 3.93310   3
   0  -2  -7 14.1451 3.16943   1
   0   2   7 20.8755 3.46905   2
   0   2   7 23.3102 3.27883   3
   0   2   7 19.4815 3.29031   1
   0   2   7 19.8770 3.19089   1
  -1  -2  -7 5.18831 2.54386   1
  -1  -2  -7 1.88334 2.40796   3
   1   2   7 5.67718 2.36100   3
   1   2   7 6.71813 2.72341   2
   1   2   7 6.14479 2.38591   1
  -2  -2  -7 163.225 9.04690   1
  -2  -2  -7 142.963 8.34362   3
   2   2   7 165.975 8.39339   1
   2   2   7 138.503 7.84968   3
  -3  -2  -7 0.84443 2.45429   3
  -3  -2  -7 -0.1319 2.48381   1
   3   2   7 4.19135 2.72061   1
   3   2   7 1.27787 2.40112   3
  -4  -2  -7 4.28410 3.41600   1
  -4  -2  -7 0.50431 2.90488   3
   4   2   7 -1.6982 2.25218   3
   4   2   7 1.94957 3.53974   1
  11  -3  -7 0.17235 2.60820   3
 -11   3   7 0.25867 3.25477   2
  10  -3  -7 5.67461 3.02041   1
  10  -3  -7 9.69340 3.36923   3
 -10   3   7 2.31411 3.02920   2
   9  -3  -7 3.78869 2.40024   1
   9  -3  -7 3.61220 2.45057   3
  -9   3   7 0.26121 2.66783   2
  -9   3   7 4.86453 3.09444   4
   8  -3  -7 363.713 12.7757   1
  -8   3   7 352.529 14.2578   4
  -8   3   7 394.984 12.5117   2
   7  -3  -7 840.913 20.6168   1
  -7   3   7 834.551 24.0736   4
  -7   3   7 825.155 19.7955   2
   6  -3  -7 41.6109 4.58349   1
  -6   3   7 34.8712 3.82140   2
  -6   3   7 44.4325 3.34824   1
  -6   3   7 45.5178 4.47018   2
  -6   3   7 39.7309 5.99857   4
   5  -3  -7 40.3615 4.39436   1
  -5   3   7 39.4555 4.04251   2
  -5   3   7 41.6702 3.94360   2
  -5   3   7 39.2725 6.15557   4
  -5   3   7 39.4095 3.14494   1
   4  -3  -7 58.8963 4.52007   1
  -4   3   7 58.9792 3.62725   3
  -4   3   7 63.0711 4.47339   2
  -4   3   7 68.9268 7.65796   4
  -4   3   7 59.9087 3.80870   1
  -4   3   7 61.4076 4.35072   2
   3  -3  -7 10.5507 2.39319   3
   3  -3  -7 11.9718 2.62361   1
  -3   3   7 3.20084 1.89273   2
  -3   3   7 9.16018 2.03800   3
  -3   3   7 14.5335 2.74770   2
  -3   3   7 7.81011 2.05628   1
   2  -3  -7 532.926 14.4131   3
   2  -3  -7 535.172 14.9390   1
  -2   3   7 502.337 13.6890   1
  -2   3   7 529.534 14.0792   2
  -2   3   7 524.676 13.3307   3
   1  -3  -7 108.730 6.47644   3
   1  -3  -7 112.379 6.64110   1
  -1   3   7 101.415 5.90462   1
  -1   3   7 107.433 5.82342   3
  -1   3   7 110.839 6.30737   2
   0  -3  -7 44.4908 5.38886   1
   0  -3  -7 43.4049 5.08874   3
   0   3   7 50.4429 5.31116   2
   0   3   7 50.4985 5.38883   1
   0   3   7 48.9935 4.85076   3
  -1  -3  -7 37.3498 4.99845   3
  -1  -3  -7 39.0306 5.18648   1
   1   3   7 50.1643 5.69169   1
   1   3   7 32.4847 5.23845   2
   1   3   7 38.3640 4.97161   1
   1   3   7 48.2768 5.22844   3
  -2  -3  -7 1.79166 2.55217   3
  -2  -3  -7 3.12516 2.79651   1
   2   3   7 6.75878 2.78641   1
   2   3   7 3.48239 2.45304   3
  -3  -3  -7 -1.1903 2.48162   3
  -3  -3  -7 -2.6148 2.51642   1
   3   3   7 1.85744 2.56572   1
   3   3   7 -0.5314 2.03349   3
  11  -4  -7 1.54073 3.21053   1
 -11   4   7 5.88316 3.81108   2
  10  -4  -7 5.59916 3.19518   1
 -10   4   7 3.15971 3.25354   2
   9  -4  -7 19.1795 4.08841   1
  -9   4   7 20.2628 4.12729   2
  -9   4   7 21.7757 4.29293   4
   8  -4  -7 1.66301 2.13968   1
  -8   4   7 1.72193 2.72396   4
  -8   4   7 4.35183 2.67884   2
   7  -4  -7 72.2233 6.80361   1
  -7   4   7 77.9680 4.52533   3
  -7   4   7 73.1799 4.74466   1
  -7   4   7 71.2112 5.56854   2
  -7   4   7 78.5301 7.42437   4
   6  -4  -7 44.6750 4.96081   1
  -6   4   7 54.4893 3.82331   3
  -6   4   7 39.6044 4.40519   2
  -6   4   7 46.9164 6.85640   4
  -6   4   7 45.3553 4.19422   1
   5  -4  -7 4.27829 2.23387   1
  -5   4   7 3.76625 1.74689   1
  -5   4   7 4.66379 1.85694   3
  -5   4   7 0.77204 3.15505   4
  -5   4   7 2.08314 1.98853   2
   4  -4  -7 193.861 8.45065   1
   4  -4  -7 200.058 8.06754   3
  -4   4   7 204.421 7.35923   3
  -4   4   7 203.386 7.68153   1
  -4   4   7 199.459 8.04890   2
   3  -4  -7 197.324 8.22856   3
   3  -4  -7 204.525 8.65977   1
  -3   4   7 197.756 7.45942   3
  -3   4   7 196.292 7.74260   1
  -3   4   7 188.356 7.99160   2
   2  -4  -7 98.1749 6.39962   1
   2  -4  -7 70.4410 6.16280   3
  -2   4   7 84.3098 5.33784   3
  -2   4   7 75.2253 5.44261   2
  -2   4   7 82.9354 5.41591   1
   1  -4  -7 180.103 8.90734   1
   1  -4  -7 167.421 8.27602   3
  -1   4   7 157.565 7.88471   1
  -1   4   7 166.569 7.62613   3
  -1   4   7 163.840 8.08636   2
   0  -4  -7 20.1789 4.02000   3
   0  -4  -7 19.1643 4.16451   1
   0   4   7 27.7032 6.78152   2
   0   4   7 20.2828 3.72113   1
   0   4   7 18.9186 3.59398   3
  -1  -4  -7 19.4638 4.27421   1
  -1  -4  -7 15.9112 3.92699   3
   1   4   7 20.5195 4.27586   1
   1   4   7 19.9929 3.93759   3
  -2  -4  -7 87.5952 8.70830   1
  -2  -4  -7 86.0357 8.29308   3
   2   4   7 108.572 9.53953   1
   2   4   7 95.0760 8.07588   3
   2   4   7 91.6901 8.74361   1
  11  -5  -7 5.42190 2.97899   1
  10  -5  -7 1.45686 2.83268   1
 -10   5   7 -1.3819 2.63647   2
 -10   5   7 0.92033 1.91234   3
   9  -5  -7 78.9713 7.69879   1
  -9   5   7 72.9324 6.96167   4
  -9   5   7 92.8052 7.03748   2
  -9   5   7 82.4445 5.35516   3
   8  -5  -7 -1.3376 2.16622   1
  -8   5   7 -0.4180 2.43843   2
  -8   5   7 -0.7879 1.52402   3
  -8   5   7 5.05984 3.37377   4
   7  -5  -7 81.5235 6.40461   1
  -7   5   7 64.9979 7.97148   4
  -7   5   7 74.2453 4.82693   3
  -7   5   7 64.1115 4.89009   1
  -7   5   7 62.7740 5.95602   2
   6  -5  -7 4.69002 2.28209   1
  -6   5   7 2.61010 2.34111   2
  -6   5   7 1.85196 1.88370   1
  -6   5   7 0.69730 2.02573   2
  -6   5   7 2.65911 3.36289   4
  -6   5   7 3.88766 1.76117   3
   5  -5  -7 8.03471 2.53816   1
   5  -5  -7 4.87525 2.56675   3
  -5   5   7 9.41880 2.41741   1
  -5   5   7 11.3542 2.70046   2
  -5   5   7 13.3917 2.69470   3
   4  -5  -7 59.8539 6.01471   1
   4  -5  -7 53.3264 5.36575   3
  -4   5   7 50.1515 4.70555   3
  -4   5   7 56.0285 5.15647   1
  -4   5   7 63.6263 5.61963   2
   3  -5  -7 20.4071 3.92597   3
   3  -5  -7 8.58879 2.91669   1
  -3   5   7 16.4434 3.03352   3
  -3   5   7 15.9837 3.23074   2
  -3   5   7 12.2239 2.73995   1
   2  -5  -7 1.86597 2.42630   1
   2  -5  -7 5.83461 2.74866   3
  -2   5   7 6.39807 2.36891   3
  -2   5   7 1.91651 2.25267   2
  -2   5   7 2.33403 1.97188   1
   1  -5  -7 443.797 14.5030   3
   1  -5  -7 424.180 14.8802   1
  -1   5   7 439.996 13.9237   3
  -1   5   7 444.813 14.4694   1
   0  -5  -7 9.37475 3.42072   1
   0  -5  -7 12.3421 3.51274   3
   0   5   7 17.1405 3.79932   1
   0   5   7 11.5187 3.06296   3
  -1  -5  -7 49.3496 6.62615   1
  -1  -5  -7 41.7193 6.00733   3
   1   5   7 43.3791 5.51187   3
   1   5   7 60.0301 7.13846   1
   2   5   7 6.51070 3.18327   3
  10  -6  -7 30.8482 5.64651   1
 -10   6   7 26.2205 4.05583   3
   9  -6  -7 337.704 13.6898   1
  -9   6   7 348.558 11.5911   3
  -9   6   7 349.232 14.9532   4
  -9   6   7 342.310 13.2420   2
   8  -6  -7 77.3294 7.74756   1
  -8   6   7 86.2657 7.50029   2
  -8   6   7 76.0240 5.33885   3
  -8   6   7 60.2177 5.87403   1
  -8   6   7 77.2921 8.70769   4
   7  -6  -7 118.008 7.61654   1
  -7   6   7 110.437 9.49606   4
  -7   6   7 121.879 7.46961   2
  -7   6   7 127.255 7.52996   2
  -7   6   7 119.927 6.72250   1
  -7   6   7 107.926 6.13209   3
   6  -6  -7 -1.5411 1.66490   1
  -6   6   7 3.99546 2.14083   3
  -6   6   7 2.00913 2.18788   2
  -6   6   7 4.27994 2.13875   1
   5  -6  -7 -0.9906 1.87609   1
   5  -6  -7 -0.8335 1.86352   3
  -5   6   7 3.12376 2.34829   2
  -5   6   7 -0.6789 1.45336   1
  -5   6   7 2.19803 1.82388   3
   4  -6  -7 20.0755 3.98011   1
   4  -6  -7 29.0205 4.52902   3
  -4   6   7 26.6876 4.15438   2
  -4   6   7 22.6833 3.47254   3
  -4   6   7 24.6987 3.77053   1
   3  -6  -7 -0.1987 2.33959   1
   3  -6  -7 -1.9230 2.19608   3
  -3   6   7 0.13844 1.68774   1
  -3   6   7 0.11705 1.80415   3
  -3   6   7 -0.7844 2.03063   2
   2  -6  -7 43.4204 5.76045   1
   2  -6  -7 41.7575 5.45335   3
  -2   6   7 46.3475 5.72349   1
  -2   6   7 45.9135 5.08886   3
   1  -6  -7 213.445 10.4193   3
   1  -6  -7 219.293 10.8288   1
  -1   6   7 206.340 10.2102   1
  -1   6   7 225.737 10.0211   3
   0  -6  -7 -1.1913 2.35294   1
   0  -6  -7 0.70905 2.44791   3
   0   6   7 1.00287 2.15677   3
   0   6   7 -0.6273 2.04144   1
  -1  -6  -7 -0.0336 2.85323   1
  -1  -6  -7 2.24239 2.99724   3
   1   6   7 -1.2879 2.28641   1
   1   6   7 3.99628 2.48683   3
  10  -7  -7 37.9190 6.17748   1
 -10   7   7 38.3166 5.05044   3
   9  -7  -7 21.9259 4.79661   1
  -9   7   7 18.0837 3.53541   3
  -9   7   7 26.4435 5.78269   4
   8  -7  -7 8.53407 3.42536   1
  -8   7   7 7.40193 2.50073   3
  -8   7   7 3.08050 4.03841   4
  -8   7   7 5.79638 2.58945   1
   7  -7  -7 82.9180 8.02578   1
  -7   7   7 81.4745 5.77918   3
  -7   7   7 77.3505 5.89307   1
  -7   7   7 73.7757 10.2334   2
   6  -7  -7 13.1570 3.71856   1
   6  -7  -7 7.41640 2.89812   3
  -6   7   7 15.9128 3.18997   3
  -6   7   7 14.7062 5.22440   2
  -6   7   7 10.3431 2.82035   1
   5  -7  -7 57.4166 6.35562   1
   5  -7  -7 43.0398 5.30181   3
  -5   7   7 44.9324 4.95540   3
  -5   7   7 48.0105 5.40506   1
   4  -7  -7 18.5291 3.76276   3
   4  -7  -7 26.8366 4.98198   1
  -4   7   7 13.2871 3.20095   3
  -4   7   7 23.5624 4.18710   1
   3  -7  -7 53.6003 6.68495   1
   3  -7  -7 45.7804 5.75023   3
  -3   7   7 49.9830 5.64521   1
  -3   7   7 55.3230 5.79812   3
   2  -7  -7 -0.3065 2.33791   1
   2  -7  -7 1.46371 2.39813   3
  -2   7   7 -0.9883 2.06761   1
  -2   7   7 0.32369 2.04479   3
   1  -7  -7 19.5401 4.15854   3
   1  -7  -7 21.3500 4.68555   1
  -1   7   7 20.2628 4.02997   3
  -1   7   7 31.2133 5.24325   1
   0  -7  -7 24.7862 5.14496   1
   0  -7  -7 21.4280 4.99141   3
   0   7   7 13.3156 3.92542   1
   0   7   7 14.8931 3.77197   3
  10  -8  -7 -2.8921 2.22909   1
 -10   8   7 2.08917 2.34348   3
   9  -8  -7 24.8995 5.09308   1
  -9   8   7 28.5207 6.50670   4
  -9   8   7 38.5358 5.09140   3
   8  -8  -7 125.267 8.70535   1
  -8   8   7 102.250 6.97650   3
  -8   8   7 108.930 7.48162   1
   7  -8  -7 7.04682 3.11065   3
   7  -8  -7 7.85964 3.33625   1
  -7   8   7 2.55747 2.28586   3
  -7   8   7 3.06567 2.36247   1
   6  -8  -7 18.2408 4.04291   3
   6  -8  -7 18.8330 4.15956   1
  -6   8   7 25.4396 3.95971   3
  -6   8   7 28.4334 4.49768   1
   5  -8  -7 2.55431 2.58235   1
   5  -8  -7 -2.1642 2.15667   3
  -5   8   7 -0.9677 1.80168   3
  -5   8   7 -2.5090 1.82000   1
   4  -8  -7 30.7110 5.38142   1
   4  -8  -7 41.1731 5.65933   3
  -4   8   7 30.5097 4.52751   3
  -4   8   7 26.8869 4.65803   1
   3  -8  -7 185.106 10.3379   1
   3  -8  -7 189.413 10.0743   3
  -3   8   7 194.445 9.83135   1
  -3   8   7 178.968 9.51968   3
   2  -8  -7 67.0232 7.93264   1
   2  -8  -7 40.1345 5.86935   3
  -2   8   7 51.9261 6.78614   1
  -2   8   7 54.5372 6.24434   3
   9  -9  -7 42.3643 6.49847   1
  -9   9   7 33.5740 5.07338   3
  -9   9   7 31.4953 7.36067   4
   8  -9  -7 45.8875 6.54172   1
   8  -9  -7 39.6813 6.00639   3
  -8   9   7 45.8763 5.98280   1
  -8   9   7 39.0191 5.23090   3
   7  -9  -7 10.6701 3.54416   3
   7  -9  -7 3.87617 3.10779   1
  -7   9   7 10.3385 3.48138   1
  -7   9   7 6.94403 3.05953   3
   6  -9  -7 70.6089 7.86362   1
   6  -9  -7 69.7319 7.42701   3
  -6   9   7 57.6868 6.10502   3
  -6   9   7 66.5088 7.04595   1
   5  -9  -7 42.4986 6.06319   1
   5  -9  -7 17.0413 4.19056   3
  -5   9   7 31.9048 5.14075   1
  -5   9   7 21.2797 3.97953   3
   4  -9  -7 57.4949 7.59725   1
   4  -9  -7 45.7791 6.29911   3
  -4   9   7 48.7483 5.97174   3
  -4   9   7 48.1517 6.52482   1
   3  -9  -7 9.80505 3.62817   3
   3  -9  -7 9.21591 3.90375   1
  -3   9   7 5.16127 3.02964   3
  -3   9   7 2.63600 2.37225   1
   7 -10  -7 -0.4138 2.53330   1
   7 -10  -7 0.26176 2.78963   3
  -7  10   7 0.97477 2.67489   1
  -7  10   7 5.68592 2.83844   3
   6 -10  -7 14.9083 4.20513   3
   6 -10  -7 8.39215 3.95950   1
  -6  10   7 9.55087 3.25363   3
  -6  10   7 5.57158 3.12788   1
  -1  10  -8 10.7228 2.35796   1
  -2  10  -8 33.8304 4.16014   1
  -3  10  -8 47.9491 5.15335   1
   3 -10   8 58.5260 5.59181   2
  -1   9  -8 109.573 5.47435   1
  -2   9  -8 4.02183 1.71964   1
  -3   9  -8 3.60504 2.15573   1
   3  -9   8 6.34509 2.39353   2
  -4   9  -8 -1.0526 1.63068   1
   4  -9   8 0.85348 2.00281   2
  -1   8  -8 246.325 8.15685   1
  -2   8  -8 32.4220 3.83309   1
  -3   8  -8 31.9762 4.32370   1
   3  -8   8 30.8073 3.90805   2
  -4   8  -8 35.7525 4.76831   1
   4  -8   8 38.4405 4.74807   2
  -5   8  -8 3.22594 2.18837   1
   5  -8   8 1.73810 2.32058   2
   0  -7   8 67.7803 8.79782   4
   1  -7   8 106.364 8.94517   4
  -2   7  -8 86.2634 5.21021   1
   2  -7   8 82.6809 7.77986   4
  -3   7  -8 30.2977 4.09733   1
   3  -7   8 25.0101 5.27303   4
   3  -7   8 25.8651 3.85828   2
  -4   7  -8 11.3999 3.11918   1
   4  -7   8 7.05632 3.53863   4
   4  -7   8 13.3441 3.23998   2
  -5   7  -8 172.201 9.69452   1
   5  -7   8 171.042 9.32906   2
   6   6  -8 1.32538 1.57712   1
   6   6  -8 0.03564 1.80333   1
  -2  -6   8 84.7947 9.69925   4
  -1  -6   8 134.917 9.98799   4
   0  -6   8 27.6399 5.67399   4
  -1   6  -8 40.0943 3.69177   1
   1  -6   8 30.4258 5.66136   4
  -2   6  -8 2.98550 1.54288   1
   2  -6   8 1.86886 1.73081   2
   2  -6   8 -0.6375 1.56778   2
   2  -6   8 3.87634 2.70993   4
  -3   6  -8 189.803 8.50839   1
   3  -6   8 187.265 10.8438   4
   3  -6   8 181.016 8.11458   2
  -4   6  -8 184.921 9.24379   1
   4  -6   8 179.093 8.96537   2
   4  -6   8 188.130 10.6279   4
  -5   6  -8 187.847 10.2285   1
   5  -6   8 194.562 10.0122   2
   7   5  -8 76.4023 5.76346   1
  -4  -5   8 198.970 12.5587   4
  -3  -5   8 7.49080 3.81444   4
  -2  -5   8 271.150 14.0318   4
  -1  -5   8 74.1291 8.66895   4
   0  -5   8 79.1443 7.63697   4
  -1   5  -8 37.8759 3.76862   1
   1  -5   8 43.7743 6.49435   4
  -2   5  -8 19.9057 3.20443   1
   2  -5   8 16.2123 2.73982   2
   2  -5   8 18.3053 3.12284   2
   2  -5   8 22.7301 4.94309   4
  -3   5  -8 32.6023 4.46357   1
   3  -5   8 31.5765 4.18290   2
   3  -5   8 41.6546 6.24336   4
  -4   5  -8 31.3077 4.84796   1
  -4   5  -8 25.3467 5.10757   3
   4  -5   8 35.7883 5.80570   4
   4  -5   8 16.0815 3.45455   2
  -5   5  -8 49.2996 6.53211   1
  -5   5  -8 50.7449 6.39856   3
   5  -5   8 51.8486 6.25299   2
   8   4  -8 177.788 8.82115   1
   7   4  -8 -0.4176 1.87272   1
  -5  -4   8 88.6915 9.95946   4
  -4  -4   8 6.68847 3.68099   4
  -3  -4   8 164.733 11.0641   4
  -2  -4   8 121.472 9.31367   4
  -1  -4   8 2.13533 2.83048   4
   0   4  -8 462.752 11.3736   1
   0  -4   8 465.390 17.4946   4
  -1   4  -8 310.073 9.70596   1
   1  -4   8 304.803 13.5793   4
  -2   4  -8 172.777 7.87788   1
   2  -4   8 178.318 7.63775   2
   2  -4   8 164.436 9.79594   4
  -3   4  -8 32.9871 4.63794   1
  -3   4  -8 56.6291 5.75565   3
   3  -4   8 49.7880 6.81781   4
   3  -4   8 46.1066 5.04032   2
  -4   4  -8 14.9420 3.62308   1
  -4   4  -8 16.9121 3.92978   3
   4  -4   8 16.6711 4.17934   4
   4  -4   8 16.3123 3.49474   2
  -5   4  -8 24.9673 4.80228   1
  -5   4  -8 30.5435 5.20408   3
   5  -4   8 26.9771 4.69307   2
   8   3  -8 15.6386 3.30730   1
   7   3  -8 165.096 7.26515   1
  -6  -3   8 249.074 13.8722   4
  -5  -3   8 25.8587 5.89830   4
  -4  -3   8 48.7437 7.08481   4
  -3  -3   8 104.824 8.43888   4
  -2  -3   8 1.97113 2.83208   4
  -1  -3   8 40.2104 6.25142   4
   0   3  -8 0.64562 1.33860   1
   0  -3   8 -0.5451 2.34752   4
  -1   3  -8 2.47785 1.63415   1
  -1   3  -8 1.07530 1.82689   3
   1  -3   8 2.99450 1.68608   2
   1  -3   8 1.59319 1.69824   2
   1  -3   8 1.66215 2.62177   4
  -2   3  -8 239.740 9.55783   1
  -2   3  -8 237.598 9.29708   3
   2  -3   8 241.226 11.8808   4
   2  -3   8 238.912 9.24795   2
  -3   3  -8 40.7115 5.02975   1
  -3   3  -8 39.0290 4.79526   3
   3  -3   8 47.1094 6.71978   4
   3  -3   8 49.4246 5.40493   2
  -4   3  -8 4.35840 2.95681   3
  -4   3  -8 3.16275 2.69563   1
   4  -3   8 3.48466 2.49648   2
   4  -3   8 2.02882 2.68006   4
  -5   3  -8 11.9228 3.85440   3
  -5   3  -8 11.1736 3.76421   1
   9   2  -8 34.1035 5.14829   1
  -9  -2   8 27.8664 4.44275   2
   8   2  -8 70.4473 5.66781   1
  -8  -2   8 81.7079 5.99256   2
   7   2  -8 13.1521 2.80471   1
  -7  -2   8 5.47076 3.56376   4
   6   2  -8 115.186 5.25475   1
  -6  -2   8 139.666 10.2798   4
  -5  -2   8 34.7466 6.23041   4
  -4  -2   8 24.2992 5.20020   4
  -3  -2   8 35.9556 5.89916   4
  -2  -2   8 3.05497 3.12521   4
   1   2  -8 -0.2933 1.07694   1
  -1  -2   8 1.97383 2.80426   4
   0   2  -8 94.6657 5.16256   1
   0   2  -8 104.381 5.18949   3
   0  -2   8 95.8136 8.01438   4
   0  -2   8 97.1616 5.01657   2
   0  -2   8 92.6200 4.79019   2
  -1   2  -8 106.252 5.97518   1
  -1   2  -8 105.193 5.87373   3
   1  -2   8 102.929 5.85361   2
   1  -2   8 102.504 8.21820   4
   1  -2   8 89.1833 5.34703   2
  -2   2  -8 1.77354 2.29756   3
  -2   2  -8 3.22704 2.11143   1
   2  -2   8 1.97766 2.71647   4
   2  -2   8 1.20083 2.00303   2
  -3   2  -8 187.718 9.57457   1
  -3   2  -8 199.649 9.54053   3
   3  -2   8 183.136 9.07161   2
   3  -2   8 187.965 11.0190   4
  -4   2  -8 73.7932 7.48418   1
  -4   2  -8 83.2727 7.87437   3
   4  -2   8 96.0025 5.69749   3
   4  -2   8 91.6018 7.14092   2
   4  -2   8 87.6245 7.92210   4
   9   1  -8 75.9713 7.08407   1
  -9  -1   8 73.5854 6.37975   2
   8   1  -8 56.5694 5.63095   1
  -8  -1   8 60.8597 7.86209   4
  -8  -1   8 64.5920 5.46721   2
   7   1  -8 -1.5583 1.60114   1
  -7  -1   8 -1.0739 2.47080   4
   6   1  -8 6.65257 2.08960   1
  -6  -1   8 7.16827 3.92869   4
  -5  -1   8 861.753 25.6448   4
  -4  -1   8 94.5125 8.00461   4
  -3  -1   8 24.0714 5.04807   4
   2   1  -8 -0.4708 1.06118   1
  -2  -1   8 -0.1131 2.57400   4
   1   1  -8 2.82238 1.63243   1
   1   1  -8 0.34141 1.57241   3
  -1  -1   8 -0.6624 1.24131   2
  -1  -1   8 0.10908 2.63952   4
  -1  -1   8 0.32047 1.30965   2
   0   1  -8 -0.1908 1.39499   1
   0   1  -8 -0.1630 1.91548   3
   0  -1   8 1.73060 1.75251   2
   0  -1   8 -0.0117 1.49679   2
   0  -1   8 -1.4936 2.09187   4
  -1   1  -8 -1.3720 1.64948   1
  -1   1  -8 -1.9115 1.66768   3
   1  -1   8 0.37829 2.55004   4
   1  -1   8 0.33715 1.60909   2
  -2   1  -8 17.3384 3.58574   3
  -2   1  -8 8.67547 2.82462   1
   2  -1   8 13.2647 4.46435   4
   2  -1   8 13.3568 3.20622   2
  -3   1  -8 42.3212 5.76285   1
  -3   1  -8 53.9076 5.99797   3
   3  -1   8 53.9764 4.86462   3
   3  -1   8 54.4508 7.57051   4
   3  -1   8 66.3037 6.61754   2
  -4   1  -8 21.9230 4.62945   3
  -4   1  -8 18.1212 4.49282   1
   4  -1   8 43.7296 7.28919   4
   4  -1   8 23.4085 3.88215   3
  10   0  -8 39.4845 5.58362   1
 -10   0   8 27.6781 4.91665   2
   9   0  -8 0.43566 2.14355   1
  -9   0   8 -2.0437 2.45598   2
  -9   0   8 1.64018 3.09324   4
   8   0  -8 118.934 6.85256   1
  -8   0   8 115.880 9.25369   4
  -8   0   8 114.869 6.57799   2
   7   0  -8 94.8180 5.63652   1
  -7   0   8 109.377 8.88283   4
   6   0  -8 1.55288 1.71271   1
  -6   0   8 -1.1826 2.55082   4
   5   0  -8 255.502 8.06527   1
  -5   0   8 274.087 13.1779   4
   4   0  -8 0.75742 1.48696   1
  -4   0   8 0.64973 2.91618   4
   3   0  -8 19.4989 2.62964   1
  -3   0   8 28.8512 5.63491   4
   2   0  -8 166.568 6.45604   1
   2   0  -8 150.849 5.95236   3
  -2   0   8 155.024 6.02824   2
  -2   0   8 155.971 6.09154   2
  -2   0   8 159.748 9.93131   4
   1   0  -8 146.661 6.70523   1
   1   0  -8 173.716 6.86851   3
  -1   0   8 149.232 6.44965   2
  -1   0   8 154.674 6.55309   2
  -1   0   8 157.975 10.0442   4
   0   0  -8 2.56115 1.83153   3
   0   0  -8 1.28726 1.84835   1
   0   0   8 -0.8495 1.58692   2
   0   0   8 3.15243 3.06565   4
  -1   0  -8 2.57939 2.21380   1
  -1   0  -8 -4.5853 1.79259   3
   1   0   8 -0.6710 2.57444   4
   1   0   8 1.07125 1.89952   2
  -2   0  -8 9.85056 3.24590   3
  -2   0  -8 14.7459 3.58617   1
   2   0   8 2.52685 3.41471   4
   2   0   8 9.23889 2.83865   2
   2   0   8 9.03813 2.48664   3
  -3   0  -8 132.066 8.73332   1
  -3   0  -8 136.154 8.59730   3
   3   0   8 152.005 10.6398   4
   3   0   8 117.790 11.4825   2
   3   0   8 126.446 7.33192   3
  -4   0  -8 2.82241 2.84135   3
  -4   0  -8 -1.5615 2.43262   1
   4   0   8 0.32138 3.10094   4
   4   0   8 2.54153 2.65967   3
  10  -1  -8 -3.6719 2.02817   1
 -10   1   8 0.23262 2.86317   2
   9  -1  -8 24.4147 4.23572   1
  -9   1   8 34.2764 4.70897   2
  -9   1   8 26.0767 5.36923   4
   8  -1  -8 3.69135 2.27468   1
  -8   1   8 2.14396 2.27281   2
  -8   1   8 0.59539 2.87060   4
   7  -1  -8 7.68812 2.43488   1
  -7   1   8 11.4090 2.73421   2
  -7   1   8 8.30010 2.34580   2
  -7   1   8 7.36625 3.39688   4
   6  -1  -8 11.2541 2.53643   1
  -6   1   8 9.82820 2.19933   2
  -6   1   8 10.9263 2.57889   2
  -6   1   8 13.8380 4.23505   4
   5  -1  -8 0.90054 1.58582   1
  -5   1   8 0.96799 1.62938   2
  -5   1   8 0.86553 1.79433   2
  -5   1   8 1.27309 2.97807   4
   4  -1  -8 676.552 15.8677   1
  -4   1   8 675.808 15.4365   2
  -4   1   8 664.556 15.3308   2
  -4   1   8 675.265 15.4308   2
  -4   1   8 699.489 22.1435   4
   3  -1  -8 544.450 13.6461   1
   3  -1  -8 517.460 12.8061   3
  -3   1   8 518.413 12.8888   2
  -3   1   8 506.609 12.8361   2
  -3   1   8 524.436 18.6720   4
   2  -1  -8 50.7455 4.76043   1
   2  -1  -8 60.2601 4.49633   3
  -2   1   8 58.9338 4.19842   2
  -2   1   8 47.4843 7.20344   4
  -2   1   8 36.7701 3.66617   2
   1  -1  -8 17.5521 3.25088   3
   1  -1  -8 20.7228 3.45934   1
  -1   1   8 19.5409 5.11765   4
  -1   1   8 15.9771 2.89732   2
  -1   1   8 18.4627 2.48616   1
  -1   1   8 15.8629 2.79039   2
   0  -1  -8 18.6367 3.32707   3
   0  -1  -8 18.5782 3.39677   1
   0   1   8 19.7017 5.18985   4
   0   1   8 16.8676 2.82499   1
   0   1   8 23.1112 3.57439   2
   0   1   8 16.3281 2.67027   3
  -1  -1  -8 166.465 8.78241   1
  -1  -1  -8 173.273 8.71095   3
   1   1   8 185.548 8.76052   2
   1   1   8 164.262 11.2419   4
   1   1   8 167.182 7.41520   3
  -2  -1  -8 41.1051 5.43582   3
  -2  -1  -8 40.9095 5.82483   1
   2   1   8 53.3801 5.31827   3
   2   1   8 48.5801 7.89080   4
   2   1   8 45.2014 5.63238   2
  -3  -1  -8 3.83866 2.65359   3
  -3  -1  -8 1.89610 2.86355   1
   3   1   8 0.46256 2.26174   3
   3   1   8 -0.1618 3.34287   4
  10  -2  -8 -1.2243 2.23991   1
 -10   2   8 -0.9147 2.82252   2
   9  -2  -8 25.9186 4.42539   1
  -9   2   8 15.1480 4.45733   4
  -9   2   8 21.1422 4.06092   2
   8  -2  -8 26.1239 4.10186   1
   8  -2  -8 29.5941 4.11512   3
  -8   2   8 29.2613 5.46588   4
  -8   2   8 29.8192 4.35851   2
   7  -2  -8 20.4711 3.48944   1
  -7   2   8 21.7106 3.38347   2
  -7   2   8 24.7537 5.14968   4
  -7   2   8 14.8218 3.27637   2
   6  -2  -8 116.563 6.40214   1
  -6   2   8 106.017 5.66367   2
  -6   2   8 111.112 6.03346   2
  -6   2   8 99.7590 8.72789   4
   5  -2  -8 479.937 13.2583   1
  -5   2   8 482.361 17.9525   4
  -5   2   8 474.018 12.7216   2
  -5   2   8 470.266 12.4838   2
   4  -2  -8 0.46662 1.59916   1
  -4   2   8 -1.5802 1.49193   2
  -4   2   8 -0.4891 2.77456   4
  -4   2   8 -1.2041 1.38573   2
   3  -2  -8 55.5910 5.05508   1
   3  -2  -8 59.0124 4.60132   3
  -3   2   8 59.0132 4.50095   2
  -3   2   8 60.0438 4.33306   2
  -3   2   8 60.4796 3.73202   1
  -3   2   8 63.5813 8.00260   4
   2  -2  -8 22.0180 3.57177   3
   2  -2  -8 18.9502 3.26254   1
  -2   2   8 26.6105 5.81644   4
  -2   2   8 21.5758 3.35177   2
  -2   2   8 18.3787 3.61622   2
  -2   2   8 27.8178 3.32106   1
   1  -2  -8 1.18128 2.25017   3
   1  -2  -8 4.88326 2.37511   1
  -1   2   8 3.18349 1.72244   1
  -1   2   8 2.06811 2.02780   2
  -1   2   8 6.77963 2.14490   3
  -1   2   8 3.08771 1.84011   1
   0  -2  -8 164.737 8.38361   3
   0  -2  -8 154.943 8.48865   1
   0   2   8 168.451 7.78917   1
   0   2   8 162.126 8.25572   2
   0   2   8 184.824 7.65786   3
  -1  -2  -8 56.5074 6.38877   1
  -1  -2  -8 69.7405 6.82870   3
   1   2   8 61.7631 5.47882   3
   1   2   8 66.9064 6.66744   2
   1   2   8 61.3925 6.11609   1
  -2  -2  -8 1.40650 2.90186   3
  -2  -2  -8 -1.0652 2.06082   1
   2   2   8 2.12222 2.32793   3
  -3  -2  -8 2.32181 3.06202   1
  -3  -2  -8 3.25238 2.74727   3
   3   2   8 4.50748 3.00305   3
  10  -3  -8 -2.0360 2.58019   1
 -10   3   8 -0.5315 2.79370   2
   9  -3  -8 7.33626 2.92398   1
  -9   3   8 9.04119 3.82550   4
  -9   3   8 4.31307 3.07397   2
   8  -3  -8 5.52503 2.68173   1
  -8   3   8 15.4349 3.47455   2
  -8   3   8 5.99328 3.62294   4
   7  -3  -8 32.7455 4.47939   1
  -7   3   8 41.6004 6.61120   4
  -7   3   8 32.5126 4.26944   2
   6  -3  -8 28.0775 4.13066   1
  -6   3   8 20.1025 3.36097   2
  -6   3   8 29.9607 5.96163   4
   5  -3  -8 28.2418 3.84624   1
  -5   3   8 22.3535 3.12713   2
  -5   3   8 31.6090 6.07945   4
  -5   3   8 28.0228 3.65158   2
  -5   3   8 27.1451 3.38732   1
   4  -3  -8 37.0536 4.21084   3
   4  -3  -8 23.1603 3.62603   1
  -4   3   8 27.6994 3.95541   2
  -4   3   8 29.1312 3.23570   1
  -4   3   8 34.9409 3.98730   2
  -4   3   8 31.7599 6.38004   4
   3  -3  -8 3.50961 2.35276   3
   3  -3  -8 2.86501 2.05885   1
  -3   3   8 1.08361 1.59660   3
  -3   3   8 2.86935 2.09033   2
  -3   3   8 2.04417 1.53308   1
   2  -3  -8 5.02669 2.58812   1
   2  -3  -8 6.93937 2.86452   3
  -2   3   8 6.80073 2.15216   1
  -2   3   8 4.14309 2.09775   2
  -2   3   8 7.16471 2.06070   3
   1  -3  -8 243.005 10.0660   3
   1  -3  -8 243.161 10.4299   1
  -1   3   8 237.637 8.90187   3
  -1   3   8 231.504 9.43424   1
  -1   3   8 264.034 10.2176   2
   0  -3  -8 157.981 8.63540   3
   0  -3  -8 158.802 9.03821   1
   0   3   8 171.987 8.84488   2
   0   3   8 164.478 8.29436   1
   0   3   8 151.226 8.00875   1
   0   3   8 160.651 7.97284   3
  -1  -3  -8 16.5851 4.09399   1
  -1  -3  -8 8.52908 3.35516   3
   1   3   8 14.5619 3.45348   1
   1   3   8 9.63074 2.98033   3
  -2  -3  -8 -0.2233 2.54365   3
  -2  -3  -8 0.70483 3.02673   1
   2   3   8 -0.1504 2.37651   3
  10  -4  -8 -0.2015 2.57547   1
 -10   4   8 1.72305 2.87772   2
   9  -4  -8 2.45765 2.57031   1
  -9   4   8 -1.1965 2.90919   4
  -9   4   8 -2.8571 2.46309   2
   8  -4  -8 1.23358 2.42225   1
  -8   4   8 0.22130 3.00578   4
  -8   4   8 -3.0714 2.15336   2
   7  -4  -8 118.748 7.36267   1
  -7   4   8 116.746 9.37129   4
  -7   4   8 114.991 6.90082   2
   6  -4  -8 212.572 9.23286   1
  -6   4   8 192.802 8.51177   2
  -6   4   8 193.159 11.7997   4
  -6   4   8 207.180 8.72786   2
   5  -4  -8 85.2989 5.90278   1
  -5   4   8 76.9589 4.53722   3
  -5   4   8 80.7109 9.11375   4
  -5   4   8 71.4809 5.27089   2
  -5   4   8 88.3614 5.05942   1
   4  -4  -8 17.9661 3.42675   3
   4  -4  -8 19.4772 3.61144   1
  -4   4   8 11.9180 2.58829   1
  -4   4   8 18.4223 2.89402   3
  -4   4   8 17.6086 3.23591   2
   3  -4  -8 17.9859 3.79203   3
   3  -4  -8 13.3881 3.28063   1
  -3   4   8 19.9864 3.28853   1
  -3   4   8 8.49834 2.29162   3
  -3   4   8 17.6482 3.19066   2
   2  -4  -8 97.1491 6.90384   1
   2  -4  -8 103.767 6.95113   3
  -2   4   8 104.569 6.67288   2
  -2   4   8 101.090 6.28510   1
  -2   4   8 95.2690 5.84798   3
   1  -4  -8 222.237 10.5681   1
   1  -4  -8 215.116 9.98513   3
  -1   4   8 199.866 8.82484   3
  -1   4   8 218.260 9.55148   1
  -1   4   8 221.014 9.78858   2
   0  -4  -8 25.6358 4.64053   1
   0  -4  -8 28.3783 4.70539   3
   0   4   8 22.6827 3.94873   3
   0   4   8 25.9960 4.61584   1
  -1  -4  -8 5.56124 3.37727   3
  -1  -4  -8 9.17940 3.63994   1
   1   4   8 3.81118 2.78995   3
   1   4   8 7.01935 3.06885   1
   1   4   8 8.30355 3.21983   1
  10  -5  -8 2.35567 2.82914   1
 -10   5   8 -3.8277 2.76929   2
   9  -5  -8 71.7330 7.78721   1
  -9   5   8 76.9716 7.26031   2
  -9   5   8 70.7547 8.53249   4
   8  -5  -8 138.201 8.59749   1
  -8   5   8 139.589 6.35438   3
  -8   5   8 160.184 8.48869   2
  -8   5   8 138.493 10.1520   4
   7  -5  -8 308.684 12.1514   1
  -7   5   8 306.937 9.71526   3
  -7   5   8 323.155 15.4054   4
  -7   5   8 304.873 11.6285   2
  -7   5   8 307.178 11.5793   2
   6  -5  -8 10.0606 3.10958   1
  -6   5   8 17.8421 3.23398   1
  -6   5   8 16.5399 2.81663   3
  -6   5   8 17.6265 3.54725   2
  -6   5   8 15.6588 5.18093   4
   5  -5  -8 3.11338 2.44362   1
   5  -5  -8 -1.5461 1.93869   3
  -5   5   8 0.94587 1.96440   2
  -5   5   8 0.42219 1.62606   1
  -5   5   8 0.67344 1.78434   3
   4  -5  -8 2.01270 2.32362   3
   4  -5  -8 4.83215 2.78188   1
  -4   5   8 3.25018 2.37090   2
  -4   5   8 3.32113 1.85543   1
  -4   5   8 4.67113 2.04845   3
   3  -5  -8 8.17681 3.30506   1
   3  -5  -8 9.26456 3.20918   3
  -3   5   8 8.72305 2.89971   2
  -3   5   8 14.3474 3.03217   3
  -3   5   8 9.87567 2.76838   1
   2  -5  -8 281.116 11.5968   3
   2  -5  -8 299.463 12.2446   1
  -2   5   8 278.321 10.6269   3
  -2   5   8 263.655 11.2916   2
  -2   5   8 308.313 11.5319   1
   1  -5  -8 212.483 10.4909   3
   1  -5  -8 214.485 10.9105   1
  -1   5   8 208.774 9.50016   3
  -1   5   8 217.672 10.1393   1
   0  -5  -8 8.82418 3.51262   1
   0  -5  -8 15.4759 4.27450   3
   0   5   8 6.26131 3.04799   1
   0   5   8 6.18179 2.73318   3
  -1  -5  -8 25.2116 5.24977   3
   1   5   8 28.4511 6.42290   1
   1   5   8 20.6663 4.30093   3
   1   5   8 26.1477 5.79930   1
  10  -6  -8 1.22459 2.82439   1
 -10   6   8 -1.2764 1.89289   3
   9  -6  -8 71.3754 8.07664   1
  -9   6   8 83.5821 9.34940   4
  -9   6   8 83.4620 7.79440   2
  -9   6   8 77.9484 5.49829   3
   8  -6  -8 181.683 9.96611   1
  -8   6   8 180.881 11.7863   4
  -8   6   8 175.630 9.53169   2
  -8   6   8 185.859 9.62263   2
  -8   6   8 178.267 7.79220   3
   7  -6  -8 100.164 7.55132   1
  -7   6   8 108.098 7.27287   2
  -7   6   8 98.3846 9.52285   4
  -7   6   8 104.874 5.96066   3
   6  -6  -8 0.28662 2.32397   1
   6  -6  -8 -0.9468 2.19777   3
  -6   6   8 1.57008 1.75590   3
  -6   6   8 0.01677 2.12916   2
  -6   6   8 1.09984 1.77393   1
   5  -6  -8 4.90014 2.64734   3
   5  -6  -8 6.12752 2.84969   1
  -5   6   8 5.88283 2.48987   1
  -5   6   8 5.32684 2.85689   2
  -5   6   8 10.2149 2.82972   3
   4  -6  -8 16.2417 4.11556   3
   4  -6  -8 7.60187 3.03797   1
  -4   6   8 13.5988 3.10504   3
  -4   6   8 12.5270 3.06572   1
  -4   6   8 9.96095 3.08367   2
   3  -6  -8 4.14646 2.64319   3
   3  -6  -8 0.26400 2.45578   1
  -3   6   8 -1.9732 1.70031   3
  -3   6   8 1.78337 2.33004   1
   2  -6  -8 1.45169 2.52921   1
   2  -6  -8 1.62102 2.63683   3
  -2   6   8 1.22675 2.07869   3
  -2   6   8 0.19389 2.11199   1
   1  -6  -8 1.06007 2.67827   1
   1  -6  -8 5.09299 2.98531   3
  -1   6   8 0.95455 2.22028   1
  -1   6   8 5.76740 2.65819   3
   0  -6  -8 29.1488 5.49755   1
   0  -6  -8 30.0186 5.40145   3
   0   6   8 33.6050 5.76601   1
   0   6   8 29.7547 4.90180   3
  10  -7  -8 152.908 10.2940   1
 -10   7   8 173.024 8.42064   3
   9  -7  -8 1.83510 3.16282   1
  -9   7   8 3.13174 2.19269   3
  -9   7   8 5.38441 4.43079   4
   8  -7  -8 54.7891 6.70818   1
  -8   7   8 39.7560 4.78674   3
  -8   7   8 53.2439 8.62780   4
   7  -7  -8 3.07480 3.08050   3
   7  -7  -8 7.91187 3.18771   1
  -7   7   8 4.70629 2.33055   3
   6  -7  -8 6.28465 3.43461   1
   6  -7  -8 5.50005 2.92205   3
  -6   7   8 5.54771 2.54729   1
  -6   7   8 1.57580 1.95132   3
   5  -7  -8 4.07324 2.60775   1
   5  -7  -8 4.90418 2.72946   3
  -5   7   8 0.76245 1.86614   3
  -5   7   8 0.20251 2.19424   1
   4  -7  -8 43.3633 5.92259   1
   4  -7  -8 61.1349 6.70411   3
  -4   7   8 74.4952 6.84530   1
  -4   7   8 68.9925 6.50999   3
   3  -7  -8 5.63304 3.38668   3
   3  -7  -8 5.21829 3.18332   1
  -3   7   8 7.57563 3.01991   1
  -3   7   8 5.93157 2.73698   3
   2  -7  -8 61.0731 6.99813   3
   2  -7  -8 73.6029 8.57456   1
  -2   7   8 72.2302 7.58145   1
  -2   7   8 54.6263 6.21915   3
   9  -8  -8 0.07891 2.70562   1
  -9   8   8 -0.4221 2.23295   3
  -9   8   8 4.73190 4.45275   4
   8  -8  -8 10.5005 3.49555   1
   8  -8  -8 3.71786 3.43087   3
  -8   8   8 2.21114 2.33374   3
   7  -8  -8 117.245 8.78128   1
   7  -8  -8 114.430 8.23046   3
  -7   8   8 112.188 7.12924   3
   6  -8  -8 89.0947 8.40223   3
   6  -8  -8 100.308 9.24369   1
  -6   8   8 114.309 7.57755   1
  -6   8   8 85.5142 6.40622   3
   5  -8  -8 2.78835 2.97396   1
   5  -8  -8 5.47228 3.38071   3
  -5   8   8 1.77305 2.47411   1
  -5   8   8 7.62475 2.91817   3
   4  -8  -8 0.43278 2.69458   1
   4  -8  -8 1.38712 2.70097   3
  -4   8   8 0.25860 1.94447   1
  -4   8   8 -0.2395 2.09296   3
   3  -8  -8 19.5595 4.67750   3
   3  -8  -8 14.2375 4.70512   1
  -3   8   8 17.6287 4.34126   1
  -3   8   8 18.5262 4.09310   3
   8  -9  -8 2.37418 2.98822   1
   8  -9  -8 1.68890 3.19972   3
  -8   9   8 3.26014 2.52239   3
   7  -9  -8 64.6319 8.05612   1
   7  -9  -8 81.8745 8.52897   3
  -7   9   8 71.9425 6.88768   3
   6  -9  -8 9.82530 4.00969   3
   6  -9  -8 7.63059 3.75388   1
  -6   9   8 5.39030 2.92484   3
  -6   9   8 -1.5515 2.06886   1
   5  -9  -8 8.21889 3.63955   3
   5  -9  -8 15.0113 5.22723   1
  -5   9   8 8.21597 3.70535   1
  -5   9   8 8.79889 3.20953   3
  -1  10  -9 37.5557 4.13020   1
  -1   9  -9 103.539 5.39636   1
  -2   9  -9 17.1345 3.29701   1
  -3   9  -9 20.3857 3.59247   1
   3  -9   9 22.7178 3.78170   2
  -1   8  -9 2.11522 1.43605   1
  -2   8  -9 13.5963 2.83849   1
  -3   8  -9 0.74630 1.77243   1
   3  -8   9 3.19936 2.25387   2
  -1  -7   9 9.10563 4.25524   4
   0  -7   9 24.3743 5.84071   4
  -1   7  -9 17.2842 2.68798   1
   1  -7   9 13.7944 4.71465   4
  -2   7  -9 154.977 7.21431   1
   2  -7   9 141.745 6.87444   2
   2  -7   9 152.326 10.6450   4
  -3   7  -9 63.5951 6.16928   1
   3  -7   9 74.3837 6.52290   2
   3  -7   9 88.5531 8.09568   4
  -4   7  -9 144.613 8.51775   1
   4  -7   9 138.551 8.24189   2
  -3  -6   9 -1.6826 2.89669   4
  -2  -6   9 236.882 13.8606   4
  -1  -6   9 1.98625 2.95713   4
   0  -6   9 111.115 9.33806   4
  -1   6  -9 27.9815 3.47708   1
   1  -6   9 29.8096 5.99116   4
  -2   6  -9 13.4911 2.86178   1
   2  -6   9 13.4420 4.27158   4
   2  -6   9 7.78826 2.43643   2
  -3   6  -9 36.0804 4.77388   1
   3  -6   9 43.7069 7.13473   4
   3  -6   9 39.0809 4.78445   2
  -4   6  -9 117.690 7.88449   1
   4  -6   9 110.916 7.63597   2
  -4  -5   9 3.29136 3.59607   4
  -3  -5   9 29.9028 6.38916   4
  -2  -5   9 272.198 14.6584   4
  -1  -5   9 12.0503 4.41762   4
   0   5  -9 3.20642 1.48406   1
   0  -5   9 0.88332 2.78892   4
  -1   5  -9 -0.9660 1.22427   1
   1  -5   9 -1.5564 2.21519   4
  -2   5  -9 11.3137 2.76240   1
   2  -5   9 10.2998 3.94600   4
   2  -5   9 8.46974 2.58652   2
  -3   5  -9 26.3374 4.14169   1
   3  -5   9 36.7141 6.26650   4
  -4   5  -9 -0.7023 1.87661   1
   4  -5   9 1.42705 2.42311   2
   8   4  -9 12.3027 3.22017   1
   7   4  -9 14.1982 3.03915   1
  -6  -4   9 6.68255 4.24034   4
  -5  -4   9 35.6672 6.97325   4
  -4  -4   9 183.588 12.3977   4
  -3  -4   9 84.3184 9.74853   4
  -2  -4   9 -0.4840 2.89943   4
  -1  -4   9 325.975 15.3123   4
   0   4  -9 90.4275 4.75129   1
   0  -4   9 86.0843 8.03954   4
  -1   4  -9 61.6559 4.70507   1
   1  -4   9 58.8513 4.38240   2
   1  -4   9 64.5514 4.67683   2
   1  -4   9 68.2164 8.21898   4
  -2   4  -9 122.230 7.09104   1
   2  -4   9 129.509 7.00091   2
   2  -4   9 134.003 9.58666   4
  -3   4  -9 2.29114 2.36629   1
   3  -4   9 -1.0555 1.85389   2
   3  -4   9 1.73525 2.56517   4
  -4   4  -9 146.576 9.16737   1
   4  -4   9 163.570 9.18885   2
   8   3  -9 49.9091 5.38688   1
   7   3  -9 102.885 5.65920   1
  -7  -3   9 126.443 10.8013   4
  -6  -3   9 2.54614 3.18455   4
  -5  -3   9 119.856 10.1705   4
  -4  -3   9 203.369 12.3856   4
  -3  -3   9 8.06085 3.85190   4
  -2  -3   9 138.730 9.89708   4
   1   3  -9 860.575 18.2743   1
   0   3  -9 6.82676 2.03412   1
   0  -3   9 8.40152 4.04292   4
  -1   3  -9 121.277 6.65430   1
   1  -3   9 137.657 6.68001   2
   1  -3   9 135.994 9.78641   4
  -2   3  -9 2.51341 2.22698   1
   2  -3   9 0.67651 2.11594   2
   2  -3   9 0.11159 2.79827   4
  -3   3  -9 185.798 9.39901   3
  -3   3  -9 181.588 9.64314   1
   3  -3   9 185.747 11.3837   4
   3  -3   9 169.551 9.17181   2
  -4   3  -9 41.9057 5.91928   1
  -4   3  -9 41.0993 5.86078   3
   4  -3   9 40.6919 5.70442   2
   9   2  -9 44.9379 5.47818   1
  -9  -2   9 62.4724 5.96001   2
   8   2  -9 -0.5899 2.26944   1
  -8  -2   9 0.08317 3.37290   4
   7   2  -9 260.563 9.03168   1
  -7  -2   9 298.887 15.5106   4
  -6  -2   9 171.951 11.6856   4
  -5  -2   9 197.976 12.2197   4
  -4  -2   9 2.19186 3.17550   4
  -3  -2   9 89.1813 8.06488   4
   2   2  -9 11.8836 2.11350   1
  -2  -2   9 16.6236 4.68439   4
   1   2  -9 308.735 9.45487   1
  -1  -2   9 311.567 14.6211   4
   0   2  -9 4.36976 1.89701   1
   0  -2   9 2.59010 1.75355   2
   0  -2   9 11.5754 2.62565   2
   0  -2   9 5.00667 3.58090   4
  -1   2  -9 7.71504 2.76506   3
  -1   2  -9 5.38762 2.34834   1
   1  -2   9 7.57859 2.56943   2
   1  -2   9 7.65769 3.69587   4
  -2   2  -9 77.6236 6.99364   3
  -2   2  -9 86.0740 6.49844   1
   2  -2   9 88.6491 8.31493   4
   2  -2   9 72.8786 6.63649   2
  -3   2  -9 7.48991 3.09612   3
  -3   2  -9 10.8308 3.36845   1
   3  -2   9 7.86365 2.97710   2
   3  -2   9 15.7119 4.65008   4
   9   1  -9 -1.4694 2.12190   1
  -9  -1   9 0.32368 2.39714   2
   8   1  -9 26.9622 4.16047   1
  -8  -1   9 25.9530 5.79267   4
   7   1  -9 141.425 6.45561   1
  -7  -1   9 142.184 10.7533   4
   6   1  -9 17.7159 2.82658   1
  -6  -1   9 16.4131 4.82626   4
  -5  -1   9 42.0540 6.72113   4
  -4  -1   9 -3.7872 2.25618   4
   3   1  -9 79.9571 4.27048   1
  -3  -1   9 68.4897 8.14561   4
   2   1  -9 12.9812 2.39970   1
  -2  -1   9 14.2596 4.54014   4
   1   1  -9 66.0035 4.71203   1
   1   1  -9 67.3522 5.43401   3
  -1  -1   9 57.0857 4.23613   2
  -1  -1   9 70.2988 8.40475   4
  -1  -1   9 63.6332 4.51063   2
   0   1  -9 13.6835 2.92796   3
   0   1  -9 18.6313 3.43644   1
   0  -1   9 27.5276 6.07864   4
   0  -1   9 10.5281 2.74710   2
  -1   1  -9 3.79101 2.37405   1
  -1   1  -9 6.74779 2.64160   3
   1  -1   9 7.60515 3.43651   4
   1  -1   9 4.57394 2.47987   2
  -2   1  -9 35.4886 5.25162   1
  -2   1  -9 45.6557 5.80235   3
   2  -1   9 43.3659 5.36336   2
   2  -1   9 53.4485 7.74881   4
  -3   1  -9 4.80314 2.90659   1
  -3   1  -9 1.41016 2.69229   3
   3  -1   9 1.02292 3.08560   4
   3  -1   9 2.94340 2.59050   2
   9   0  -9 2.59311 2.29717   1
  -9   0   9 -0.2283 2.91324   4
  -9   0   9 -0.0274 2.54497   2
   8   0  -9 10.7587 2.73296   1
  -8   0   9 16.2066 4.95301   4
  -8   0   9 12.7720 3.04522   2
   7   0  -9 0.67068 1.97253   1
  -7   0   9 1.76199 3.37732   4
   6   0  -9 38.9958 4.02085   1
  -6   0   9 42.8907 6.83885   4
   5   0  -9 41.1539 3.87366   1
  -5   0   9 53.0733 7.53856   4
   4   0  -9 327.127 9.81879   1
  -4   0   9 379.573 16.2509   4
   3   0  -9 50.4124 5.71561   3
   3   0  -9 41.2592 3.97209   1
  -3   0   9 58.4468 4.09229   2
  -3   0   9 55.9296 7.52900   4
   2   0  -9 22.4033 3.37889   3
   2   0  -9 18.5278 3.12585   1
  -2   0   9 20.1702 2.94778   2
  -2   0   9 22.4078 5.31183   4
  -2   0   9 20.1069 2.92430   2
   1   0  -9 32.5498 4.15673   1
   1   0  -9 41.3187 4.61169   3
  -1   0   9 49.1098 7.59211   4
  -1   0   9 38.4189 4.23811   2
   0   0  -9 144.973 7.64204   3
   0   0  -9 148.414 7.86204   1
   0   0   9 141.710 7.53223   2
   0   0   9 147.473 10.7990   4
  -1   0  -9 -0.0837 2.29728   1
  -1   0  -9 -2.3206 2.14359   3
   1   0   9 -1.3576 1.88336   2
   1   0   9 3.14333 3.53578   4
  -2   0  -9 4.64937 2.99463   1
  -2   0  -9 2.54365 2.89004   3
   2   0   9 4.35264 2.63001   2
   2   0   9 5.25031 3.85096   4
  -3   0  -9 34.0366 5.79894   1
  -3   0  -9 41.3799 6.04821   3
   3   0   9 33.5019 7.01561   4
   3   0   9 39.2735 4.80580   3
  10  -1  -9 -0.9732 2.26489   1
 -10   1   9 2.44723 3.36906   4
 -10   1   9 3.46541 2.99148   2
   9  -1  -9 0.40173 2.38013   1
  -9   1   9 -2.1735 3.00084   4
  -9   1   9 -1.0064 2.34045   2
   8  -1  -9 29.9322 4.17979   1
  -8   1   9 33.0795 6.30923   4
  -8   1   9 33.7260 4.40917   2
   7  -1  -9 42.3961 4.72793   1
  -7   1   9 45.9050 4.34856   2
  -7   1   9 35.0484 6.28091   4
  -7   1   9 40.1906 4.36091   2
   6  -1  -9 391.355 11.8606   1
  -6   1   9 389.653 11.4022   2
  -6   1   9 398.800 17.0636   4
  -6   1   9 391.473 11.1534   2
   5  -1  -9 0.14245 1.46763   1
  -5   1   9 1.16345 3.09947   4
  -5   1   9 1.64601 1.79486   2
  -5   1   9 -0.5789 1.41100   2
   4  -1  -9 100.828 5.62726   1
  -4   1   9 105.316 5.36511   2
  -4   1   9 110.693 9.38791   4
  -4   1   9 104.057 5.42439   2
   3  -1  -9 236.861 8.84729   1
   3  -1  -9 223.705 8.28674   3
  -3   1   9 243.648 13.1421   4
  -3   1   9 229.517 8.29504   2
  -3   1   9 243.826 8.44146   2
   2  -1  -9 31.3455 4.16170   3
   2  -1  -9 28.6064 3.96496   1
  -2   1   9 29.5672 3.73204   2
  -2   1   9 30.5470 6.16471   4
   1  -1  -9 14.3691 3.27415   1
   1  -1  -9 20.5109 3.78737   3
  -1   1   9 14.5833 4.79254   4
  -1   1   9 17.8652 3.44441   2
   0  -1  -9 226.864 10.4702   1
   0  -1  -9 269.990 10.6948   3
   0   1   9 229.612 13.4943   4
   0   1   9 246.652 10.3747   2
  -1  -1  -9 15.2037 3.79817   1
  -1  -1  -9 12.7034 3.72762   3
   1   1   9 14.0857 3.61921   2
   1   1   9 19.0312 3.13280   3
   1   1   9 13.2616 4.78237   4
  -2  -1  -9 9.99879 3.35092   1
  -2  -1  -9 11.6766 3.83571   3
   2   1   9 15.3694 3.28747   3
   2   1   9 16.5199 5.48865   4
  10  -2  -9 -0.7842 2.45283   1
 -10   2   9 1.28978 2.99566   2
 -10   2   9 5.52123 3.65128   4
   9  -2  -9 4.02310 2.46398   1
  -9   2   9 10.9096 4.40665   4
  -9   2   9 2.81044 2.77448   2
   8  -2  -9 -3.1249 1.56345   1
  -8   2   9 0.64990 2.14622   2
  -8   2   9 -0.5420 2.69615   4
   7  -2  -9 -0.9642 1.98364   1
  -7   2   9 2.06966 2.24678   2
  -7   2   9 -3.9654 2.55269   4
   6  -2  -9 8.00233 2.46820   1
  -6   2   9 5.04972 2.21886   2
  -6   2   9 5.68965 4.14731   4
  -6   2   9 7.14897 2.18604   2
   5  -2  -9 70.7520 5.15859   1
  -5   2   9 87.0259 9.81037   4
  -5   2   9 68.1075 4.79831   2
  -5   2   9 65.4186 4.93743   2
   4  -2  -9 32.7225 4.15018   1
   4  -2  -9 42.6184 4.48146   3
  -4   2   9 33.2426 3.85942   2
  -4   2   9 44.5757 7.34138   4
  -4   2   9 42.0798 4.37416   2
   3  -2  -9 105.581 6.33878   1
   3  -2  -9 107.631 6.17481   3
  -3   2   9 92.9908 5.74649   2
  -3   2   9 106.547 9.39212   4
   2  -2  -9 123.340 7.18016   1
   2  -2  -9 123.142 7.01337   3
  -2   2   9 116.256 6.57193   2
  -2   2   9 122.789 10.0162   4
   1  -2  -9 29.6411 4.60233   3
   1  -2  -9 25.0035 4.30075   1
  -1   2   9 31.6269 6.69392   4
  -1   2   9 20.7740 3.92268   2
   0  -2  -9 -0.4990 2.16804   1
   0  -2  -9 0.98276 2.55493   3
   0   2   9 -2.1885 1.59402   3
   0   2   9 1.59268 3.58840   4
   0   2   9 3.46398 2.43000   2
  -1  -2  -9 81.3171 7.79810   3
  -1  -2  -9 59.1027 6.88061   1
   1   2   9 74.8071 6.24087   3
   1   2   9 77.8917 10.6578   4
  -2  -2  -9 259.597 12.8417   1
   2   2   9 226.283 15.0380   4
   2   2   9 231.109 10.4379   3
  10  -3  -9 0.02197 2.56441   1
 -10   3   9 -2.2550 3.06644   4
 -10   3   9 -0.6741 2.75436   2
   9  -3  -9 23.4153 4.36750   1
  -9   3   9 26.3406 5.74187   4
  -9   3   9 17.7139 3.67804   2
   8  -3  -9 67.7464 6.65879   1
  -8   3   9 68.2080 8.57936   4
  -8   3   9 63.4824 6.20202   2
   7  -3  -9 80.9022 6.19004   1
  -7   3   9 73.6653 5.71097   2
  -7   3   9 106.081 9.72661   4
   6  -3  -9 105.037 6.53125   1
  -6   3   9 98.3902 9.05285   4
  -6   3   9 89.4692 6.06740   2
  -6   3   9 93.3528 6.11082   2
   5  -3  -9 18.0264 3.57478   1
  -5   3   9 19.1272 5.25926   4
  -5   3   9 18.4791 3.23843   2
   4  -3  -9 273.328 9.99378   3
   4  -3  -9 268.100 10.3541   1
  -4   3   9 268.680 9.86175   2
  -4   3   9 254.975 14.0694   4
   3  -3  -9 39.6457 5.11351   3
   3  -3  -9 41.6605 5.01489   1
  -3   3   9 44.1641 4.81822   2
  -3   3   9 48.4805 7.97563   4
   2  -3  -9 10.9691 3.22332   3
   2  -3  -9 7.55732 2.92661   1
  -2   3   9 7.63341 4.40941   4
  -2   3   9 12.3827 2.65936   3
  -2   3   9 5.42938 2.55471   2
   1  -3  -9 7.84416 3.20012   1
   1  -3  -9 9.77205 3.40034   3
  -1   3   9 6.07630 2.46912   3
  -1   3   9 14.4519 3.38468   2
   0  -3  -9 4.86796 3.10140   1
   0  -3  -9 4.40580 2.68945   3
   0   3   9 0.69330 4.16631   2
   0   3   9 1.49625 2.21765   3
  -1  -3  -9 67.1459 7.33380   3
  -1  -3  -9 59.4423 7.36302   1
   1   3   9 54.9688 5.78967   3
  10  -4  -9 140.332 9.03286   1
 -10   4   9 145.150 9.12254   2
 -10   4   9 147.161 10.4112   4
   9  -4  -9 89.6307 8.42580   1
  -9   4   9 107.044 9.48348   4
  -9   4   9 115.991 7.73503   2
   8  -4  -9 110.860 7.60411   1
  -8   4   9 104.579 9.78784   4
  -8   4   9 89.1156 6.73381   2
   7  -4  -9 220.913 10.1441   1
  -7   4   9 233.482 9.84235   2
  -7   4   9 230.594 13.5892   4
   6  -4  -9 4.82694 2.39478   1
  -6   4   9 2.15576 3.60800   4
  -6   4   9 8.97080 2.87263   2
   5  -4  -9 2.06122 2.21742   3
   5  -4  -9 0.78070 2.06570   1
  -5   4   9 0.42364 3.58870   4
  -5   4   9 2.03332 2.22418   2
   4  -4  -9 155.964 8.06349   3
   4  -4  -9 174.111 8.69150   1
  -4   4   9 155.054 7.93535   2
  -4   4   9 153.070 11.7133   4
   3  -4  -9 36.8581 5.25151   1
   3  -4  -9 37.4070 5.03845   3
  -3   4   9 33.5455 4.57406   2
  -3   4   9 37.7580 4.18744   3
   2  -4  -9 66.1212 6.69672   3
   2  -4  -9 78.1051 7.52972   1
  -2   4   9 74.9459 6.98486   2
  -2   4   9 52.9937 5.04631   3
   1  -4  -9 122.186 8.19874   3
   1  -4  -9 124.649 8.45528   1
  -1   4   9 110.591 6.94901   3
   0  -4  -9 33.9924 5.66583   1
   0  -4  -9 27.8117 5.00053   3
   0   4   9 32.4482 4.84787   3
  10  -5  -9 3.95054 3.30133   1
 -10   5   9 -1.7494 3.23767   4
 -10   5   9 -1.5745 2.71567   2
   9  -5  -9 33.7095 5.74640   1
  -9   5   9 34.3261 6.85149   4
  -9   5   9 33.2049 5.08999   2
   8  -5  -9 27.4595 4.78988   1
  -8   5   9 25.5833 4.43236   2
  -8   5   9 29.0452 6.34932   4
   7  -5  -9 -1.0571 2.31706   1
  -7   5   9 2.24896 2.44241   2
  -7   5   9 3.57398 3.90770   4
   6  -5  -9 184.107 9.26835   3
   6  -5  -9 162.714 9.02648   1
  -6   5   9 156.240 12.0534   4
  -6   5   9 157.713 8.25311   2
   5  -5  -9 22.3995 4.36644   3
   5  -5  -9 19.3554 4.15660   1
  -5   5   9 17.2080 5.77600   4
  -5   5   9 19.6454 3.08405   3
  -5   5   9 15.7564 3.67965   2
   4  -5  -9 39.2747 5.46699   3
   4  -5  -9 51.0122 5.98438   1
  -4   5   9 47.8752 4.75231   3
  -4   5   9 39.8916 5.04876   2
   3  -5  -9 1.54924 2.71262   3
   3  -5  -9 -2.0866 2.27811   1
  -3   5   9 1.12398 2.03758   2
  -3   5   9 -0.9849 1.76215   3
   2  -5  -9 21.2346 4.42693   1
   2  -5  -9 10.8263 3.75176   3
  -2   5   9 20.3751 3.74948   3
   1  -5  -9 7.55183 3.40016   3
   1  -5  -9 8.69111 3.63151   1
  -1   5   9 6.03169 2.75620   3
  10  -6  -9 2.12035 3.51890   1
 -10   6   9 2.94534 4.02619   4
   9  -6  -9 -0.3554 2.81755   1
  -9   6   9 0.40986 2.83384   2
  -9   6   9 0.69981 3.61791   4
   8  -6  -9 6.59302 3.36607   1
  -8   6   9 -0.7861 1.86561   3
  -8   6   9 8.51481 3.55875   2
  -8   6   9 7.94604 4.64843   4
   7  -6  -9 9.83646 3.56598   1
  -7   6   9 6.59692 2.53844   3
  -7   6   9 5.94336 4.59236   4
  -7   6   9 9.97969 3.27418   2
   6  -6  -9 93.1791 8.53141   1
   6  -6  -9 80.2369 7.56419   3
  -6   6   9 86.5516 5.82051   3
  -6   6   9 83.8095 7.61556   2
   5  -6  -9 3.20376 2.52322   1
   5  -6  -9 3.64832 2.62644   3
  -5   6   9 8.25735 2.52529   3
  -5   6   9 5.29290 2.99187   2
   4  -6  -9 13.3592 4.01101   1
   4  -6  -9 7.43227 3.52157   3
  -4   6   9 18.3639 3.45082   3
   3  -6  -9 205.019 10.9614   1
   3  -6  -9 197.301 10.5436   3
  -3   6   9 189.049 9.16158   3
   2  -6  -9 56.2479 7.27702   1
   2  -6  -9 46.2417 6.19724   3
  -2   6   9 63.5153 6.52584   3
   9  -7  -9 36.0439 6.40513   1
  -9   7   9 46.3393 4.96444   3
  -9   7   9 45.6458 8.23177   4
   8  -7  -9 98.7803 9.36234   1
  -8   7   9 99.8800 11.4452   4
  -8   7   9 107.915 6.55914   3
   7  -7  -9 41.8178 5.86502   3
   7  -7  -9 36.0418 5.91842   1
  -7   7   9 31.9851 7.79245   4
  -7   7   9 44.0677 4.86209   3
   6  -7  -9 22.0391 4.55877   3
   6  -7  -9 18.3913 4.57668   1
  -6   7   9 19.0247 3.66777   3
   5  -7  -9 0.92037 3.36173   3
   5  -7  -9 2.82167 3.39606   1
  -5   7   9 2.52391 2.16291   3
   4  -7  -9 32.7010 5.76772   1
   4  -7  -9 24.3376 4.71003   3
  -4   7   9 22.4694 4.14887   3
   3  -7  -9 206.161 11.3239   1
   3  -7  -9 165.922 10.2431   3
  -3   7   9 159.318 8.96386   3
   8  -8  -9 22.4430 5.19104   1
   8  -8  -9 27.6751 5.31312   3
  -8   8   9 26.0871 7.29970   4
  -8   8   9 20.5713 3.76524   3
   7  -8  -9 -0.9655 2.46953   1
   7  -8  -9 -0.6015 2.64039   3
  -7   8   9 -0.1470 2.09170   3
   6  -8  -9 15.1766 4.23779   3
   6  -8  -9 25.5117 5.53429   1
  -6   8   9 25.1882 4.20836   3
   5  -8  -9 20.6408 5.30998   1
   5  -8  -9 21.5712 5.13836   3
  -5   8   9 20.6198 4.05124   3
  -1   8 -10 -0.7177 1.29294   1
  -2   8 -10 4.58888 2.05734   1
   2  -8  10 6.33399 3.48268   4
  -2  -7  10 2.14553 3.23757   4
  -1  -7  10 14.7973 4.99773   4
   0  -7  10 12.8918 4.75551   4
  -1   7 -10 28.6176 3.56560   1
   1  -7  10 22.8437 5.70324   4
  -2   7 -10 1.70363 1.93042   1
   2  -7  10 -1.0323 2.65140   4
   3  -7  10 0.40860 2.13407   2
  -4  -6  10 -3.7408 2.83453   4
  -3  -6  10 -0.6871 2.96330   4
  -2  -6  10 11.7097 4.37755   4
  -1  -6  10 93.7810 10.8158   4
   0  -6  10 40.6622 7.17406   4
  -1   6 -10 8.47193 2.45746   1
   1  -6  10 10.6818 4.32979   4
  -2   6 -10 0.94201 1.51963   1
   2  -6  10 -0.1777 2.93314   4
   2  -6  10 1.13724 1.85281   2
  -3   6 -10 33.9932 4.93238   1
   3  -6  10 41.7204 5.20121   2
   3  -6  10 45.7967 7.78105   4
  -5  -5  10 27.7424 6.55442   4
  -4  -5  10 5.23653 4.00914   4
  -3  -5  10 31.8718 7.06817   4
  -2  -5  10 -1.7261 2.98897   4
  -1  -5  10 74.5790 9.85828   4
   0   5 -10 26.7399 3.32592   1
   0  -5  10 46.2252 7.71765   4
  -1   5 -10 40.5072 4.58474   1
   1  -5  10 35.1004 4.03162   2
   1  -5  10 44.7760 7.53477   4
  -2   5 -10 36.6206 4.75675   1
   2  -5  10 33.0896 4.36800   2
   2  -5  10 46.0942 7.57602   4
  -3   5 -10 180.749 9.63253   1
   3  -5  10 177.217 9.20391   2
   3  -5  10 175.338 11.5191   4
  -6  -4  10 88.6738 10.7924   4
  -5  -4  10 107.603 10.4195   4
  -4  -4  10 5.71051 4.38797   4
  -3  -4  10 171.747 12.2934   4
  -2  -4  10 349.479 16.9033   4
  -1  -4  10 155.030 11.2307   4
   0   4 -10 1.12274 1.54526   1
   0  -4  10 5.03168 3.55817   4
  -1   4 -10 18.8029 3.42025   1
   1  -4  10 20.9436 5.28455   4
   1  -4  10 21.6184 3.46277   2
  -2   4 -10 7.75233 2.72612   1
   2  -4  10 21.0807 5.37223   4
   2  -4  10 14.8581 3.33729   2
  -3   4 -10 147.443 8.97393   1
   3  -4  10 133.122 8.27521   2
   3  -4  10 151.535 10.6989   4
   8   3 -10 231.857 9.15414   1
  -7  -3  10 50.4848 8.04933   4
  -6  -3  10 21.4002 5.76172   4
  -5  -3  10 22.8318 5.69446   4
  -4  -3  10 299.933 15.7414   4
  -3  -3  10 144.210 11.1398   4
  -2  -3  10 292.624 15.0879   4
   1   3 -10 162.782 6.62187   1
  -1  -3  10 168.258 11.1751   4
   0   3 -10 14.2215 2.86784   1
   0  -3  10 15.3529 5.11479   4
   0  -3  10 14.8541 2.75740   2
  -1   3 -10 25.8444 3.98542   1
   1  -3  10 23.2356 5.70009   4
   1  -3  10 28.4907 4.07294   2
  -2   3 -10 10.6891 3.11976   1
   2  -3  10 16.9741 5.08067   4
   2  -3  10 16.4735 3.54061   2
  -3   3 -10 39.6754 5.67483   1
   3  -3  10 32.7874 6.64403   4
   3  -3  10 37.8674 5.57777   2
   8   2 -10 71.9360 5.40190   1
  -8  -2  10 83.6974 10.2605   4
  -7  -2  10 3.16125 3.90844   4
  -6  -2  10 12.0093 4.84050   4
  -5  -2  10 30.6392 6.32773   4
  -4  -2  10 63.9981 8.67274   4
  -3  -2  10 7.97079 4.02390   4
   2   2 -10 0.59793 1.45156   1
  -2  -2  10 -0.6174 3.20470   4
   1   2 -10 -0.0553 1.36732   1
  -1  -2  10 -1.5289 2.62278   4
  -1  -2  10 -0.2189 1.69580   2
   0   2 -10 243.111 9.57577   1
   0  -2  10 249.296 9.38773   2
   0  -2  10 259.166 14.2568   4
  -1   2 -10 74.0212 5.93594   1
   1  -2  10 66.9893 6.22310   2
   1  -2  10 70.3152 9.03613   4
  -2   2 -10 11.5593 3.42405   1
   2  -2  10 12.9759 3.35725   2
   2  -2  10 13.3822 4.85776   4
   9   1 -10 20.3983 3.97376   1
  -9  -1  10 23.5116 4.10713   2
  -9  -1  10 16.6507 5.40002   4
   8   1 -10 1.17140 2.00225   1
  -8  -1  10 7.86288 4.06102   4
   7   1 -10 8.10026 2.53047   1
  -7  -1  10 9.03201 4.53924   4
   6   1 -10 0.50145 1.60679   1
  -6  -1  10 2.82326 3.43008   4
   5   1 -10 97.3218 4.98590   1
  -5  -1  10 118.463 9.89808   4
   4   1 -10 48.9713 3.68440   1
  -4  -1  10 52.7436 7.75035   4
   3   1 -10 254.158 8.65094   1
  -3  -1  10 295.422 15.0260   4
   2   1 -10 490.198 13.3498   1
  -2  -1  10 442.389 12.4954   2
  -2  -1  10 497.792 19.9171   4
   1   1 -10 3.50027 2.21668   1
  -1  -1  10 1.97362 2.02652   2
  -1  -1  10 4.13880 3.58205   4
   0   1 -10 2.50369 2.07910   1
   0  -1  10 -1.3250 2.60497   4
   0  -1  10 -0.2746 1.80232   2
  -1   1 -10 6.72809 3.04248   1
  -1   1 -10 8.72395 4.07030   3
   1  -1  10 12.4013 4.80673   4
   1  -1  10 6.49897 2.77938   2
  -2   1 -10 19.6556 4.39249   1
  -2   1 -10 26.7061 4.72598   3
   2  -1  10 23.0086 4.50340   2
   2  -1  10 30.9647 6.62656   4
   9   0 -10 51.5735 5.83652   1
  -9   0  10 59.7349 8.84463   4
  -9   0  10 50.9626 5.38815   2
   8   0 -10 2.50506 2.31975   1
  -8   0  10 4.57892 2.69163   2
  -8   0  10 7.02259 4.15169   4
   7   0 -10 88.0786 5.62601   1
  -7   0  10 80.7240 9.68777   4
   6   0 -10 116.366 6.00055   1
  -6   0  10 131.800 10.4346   4
   5   0 -10 0.29728 1.55126   1
  -5   0  10 1.03568 3.29225   4
   4   0 -10 172.206 7.23070   1
  -4   0  10 178.940 11.9112   4
   3   0 -10 -0.5367 1.54270   1
  -3   0  10 0.36661 1.66040   2
  -3   0  10 -1.6284 1.53063   2
  -3   0  10 1.00309 3.21143   4
   2   0 -10 47.1276 4.87715   1
  -2   0  10 57.4800 5.06278   2
  -2   0  10 56.8380 8.31126   4
   1   0 -10 -2.7865 1.54838   1
  -1   0  10 -1.5970 1.82444   2
  -1   0  10 3.31186 3.43266   4
   0   0 -10 22.2368 4.10306   3
   0   0 -10 30.5753 4.67375   1
   0   0  10 31.5430 4.45899   2
   0   0  10 26.9014 6.53597   4
  -1   0 -10 57.5949 6.53188   1
  -1   0 -10 54.7306 6.46745   3
   1   0  10 73.6468 9.89488   4
   1   0  10 66.7163 6.72806   2
  -2   0 -10 75.0296 7.85119   1
  -2   0 -10 87.3988 8.42871   3
   2   0  10 91.3267 11.4265   4
   2   0  10 97.7972 9.25824   2
   9  -1 -10 6.75383 3.08692   1
  -9   1  10 10.7539 3.43082   2
  -9   1  10 8.15063 4.58829   4
   8  -1 -10 22.3802 3.80789   1
  -8   1  10 28.7218 6.27565   4
  -8   1  10 32.4812 4.35758   2
   7  -1 -10 211.148 8.94995   1
  -7   1  10 194.527 8.35733   2
  -7   1  10 228.182 13.6061   4
   6  -1 -10 13.7877 2.98308   1
  -6   1  10 13.5495 2.71265   2
  -6   1  10 20.3236 5.20025   4
  -6   1  10 12.8505 2.77808   2
   5  -1 -10 15.0314 2.92948   1
  -5   1  10 10.2089 2.62993   2
  -5   1  10 10.6911 4.68928   4
  -5   1  10 11.7380 2.50053   2
   4  -1 -10 6.11206 2.39223   1
  -4   1  10 6.60731 2.27608   2
  -4   1  10 9.39439 2.36652   2
  -4   1  10 14.1256 4.99263   4
   3  -1 -10 1.85854 2.10684   1
  -3   1  10 3.06255 2.02730   2
  -3   1  10 2.84335 3.31034   4
   2  -1 -10 0.32397 2.03138   1
   2  -1 -10 5.47105 2.76520   3
  -2   1  10 6.33181 2.42435   2
  -2   1  10 0.56215 3.13720   4
   1  -1 -10 2.34305 2.46701   1
   1  -1 -10 -1.9125 2.17795   3
  -1   1  10 -3.6783 1.61109   2
  -1   1  10 2.56583 3.62423   4
   0  -1 -10 25.8926 4.48641   1
   0  -1 -10 29.9211 4.95582   3
   0   1  10 27.3202 4.63038   2
   0   1  10 33.6021 7.17708   4
  -1  -1 -10 119.384 8.51946   3
  -1  -1 -10 109.187 8.13974   1
   1   1  10 107.916 12.5571   4
   1   1  10 95.1850 8.51500   2
  10  -2 -10 22.8867 4.56944   1
 -10   2  10 22.6665 4.48625   2
 -10   2  10 28.5954 6.40550   4
   9  -2 -10 57.4602 6.28278   1
  -9   2  10 60.4593 6.15185   2
  -9   2  10 48.4448 8.03606   4
   8  -2 -10 7.11489 2.98423   1
  -8   2  10 1.03675 2.52553   2
  -8   2  10 -1.5706 2.81413   4
   7  -2 -10 23.6439 4.10428   1
  -7   2  10 26.9525 6.12723   4
  -7   2  10 30.8232 4.32046   2
   6  -2 -10 27.8133 4.04535   1
  -6   2  10 24.7281 3.71005   2
  -6   2  10 22.3936 5.82660   4
  -6   2  10 21.6128 3.59199   2
   5  -2 -10 73.0225 5.59603   1
  -5   2  10 69.2678 9.32767   4
  -5   2  10 82.3954 5.51281   2
   4  -2 -10 32.7386 4.37343   1
   4  -2 -10 34.9277 4.49952   3
  -4   2  10 32.5397 6.62756   4
  -4   2  10 33.5494 4.24125   2
   3  -2 -10 27.2078 4.21558   1
   3  -2 -10 33.4851 4.71643   3
  -3   2  10 32.1635 6.69453   4
  -3   2  10 29.1063 4.05209   2
   2  -2 -10 8.40690 3.14013   1
   2  -2 -10 16.4497 3.76264   3
  -2   2  10 8.09895 4.31432   4
  -2   2  10 10.7703 3.09330   2
   1  -2 -10 69.1027 6.99889   1
   1  -2 -10 65.1603 6.86758   3
  -1   2  10 74.8786 6.94584   2
  -1   2  10 68.5038 9.98779   4
   0  -2 -10 9.06085 3.43264   3
   0  -2 -10 13.8117 3.94331   1
   0   2  10 13.0439 5.37670   4
   0   2  10 3.73578 3.08648   2
  -1  -2 -10 42.3184 6.61729   1
  -1  -2 -10 31.0749 5.92979   3
   1   2  10 27.4972 7.26098   4
   1   2  10 33.9305 4.44875   3
  10  -3 -10 13.8825 3.76447   1
 -10   3  10 9.38297 3.63673   2
 -10   3  10 26.6705 6.36650   4
   9  -3 -10 -0.1331 2.42216   1
  -9   3  10 7.52950 4.16324   4
  -9   3  10 9.75377 3.58977   2
   8  -3 -10 2.76724 2.55926   1
  -8   3  10 3.35929 3.48689   4
  -8   3  10 3.84072 2.67264   2
   7  -3 -10 1.19007 2.49156   1
  -7   3  10 3.36800 2.48523   2
  -7   3  10 5.17558 3.93008   4
   6  -3 -10 29.1074 4.31161   1
  -6   3  10 32.4875 6.77391   4
  -6   3  10 22.9236 3.92412   2
   5  -3 -10 40.0936 4.88003   3
   5  -3 -10 36.2044 4.87377   1
  -5   3  10 44.0264 7.48599   4
  -5   3  10 33.6875 4.46553   2
   4  -3 -10 8.03638 3.05994   3
   4  -3 -10 18.1099 3.64727   1
  -4   3  10 14.3108 3.39318   2
  -4   3  10 10.6955 4.91551   4
   3  -3 -10 5.73069 2.87283   1
   3  -3 -10 5.28938 3.11954   3
  -3   3  10 7.87772 4.48905   4
  -3   3  10 9.52239 2.92248   2
   2  -3 -10 16.2432 3.91216   1
   2  -3 -10 11.4598 3.81572   3
  -2   3  10 7.47842 5.15734   4
  -2   3  10 15.1815 3.56169   2
   1  -3 -10 39.3117 5.67876   1
   1  -3 -10 53.6146 6.49246   3
  -1   3  10 60.3307 6.60146   2
  -1   3  10 48.2954 9.04784   4
   0  -3 -10 21.9898 4.95598   1
   0  -3 -10 17.5672 4.78430   3
   0   3  10 13.8245 3.31394   3
   0   3  10 20.0062 6.65650   4
  10  -4 -10 -2.5206 2.49220   1
 -10   4  10 2.37940 3.24489   2
 -10   4  10 4.25353 3.77575   4
   9  -4 -10 -0.3248 2.58343   1
  -9   4  10 2.38085 2.92573   2
  -9   4  10 5.98088 4.12736   4
   8  -4 -10 10.1452 3.53293   1
  -8   4  10 6.30330 2.90807   2
  -8   4  10 2.85169 3.74177   4
   7  -4 -10 136.161 8.36065   1
  -7   4  10 147.380 11.6738   4
  -7   4  10 136.068 7.83183   2
   6  -4 -10 19.9225 4.08552   1
   6  -4 -10 12.0390 3.72017   3
  -6   4  10 16.9782 3.53791   2
  -6   4  10 11.3485 5.01715   4
   5  -4 -10 -0.3434 2.40202   3
   5  -4 -10 -0.4813 2.21199   1
  -5   4  10 3.03341 3.80749   4
  -5   4  10 -0.6348 2.03824   2
   4  -4 -10 18.9030 3.93796   1
   4  -4 -10 20.8215 4.30328   3
  -4   4  10 12.1064 5.44202   4
  -4   4  10 19.9464 3.80823   2
   3  -4 -10 14.1453 3.80074   3
   3  -4 -10 20.4040 4.47979   1
  -3   4  10 21.7680 6.40673   4
  -3   4  10 21.0424 3.41418   3
  -3   4  10 22.5938 4.17589   2
   2  -4 -10 72.4267 7.37134   3
   2  -4 -10 59.7063 6.78487   1
  -2   4  10 55.7904 6.28258   2
  -2   4  10 83.4336 11.2784   4
  -2   4  10 67.9552 5.88537   3
   1  -4 -10 -0.1789 2.64712   3
   1  -4 -10 0.46406 3.01102   1
  -1   4  10 5.83167 2.87980   3
   9  -5 -10 55.7607 7.05861   1
  -9   5  10 56.4008 8.96791   4
  -9   5  10 48.7406 6.27566   2
   8  -5 -10 102.357 7.92066   1
  -8   5  10 89.9971 10.7828   4
  -8   5  10 99.6915 7.55731   2
   7  -5 -10 200.552 10.3079   1
  -7   5  10 191.878 9.61439   2
  -7   5  10 209.340 14.0205   4
   6  -5 -10 23.2585 4.63949   3
   6  -5 -10 19.2319 4.35761   1
  -6   5  10 12.9217 5.41316   4
  -6   5  10 19.8721 4.12620   2
   5  -5 -10 13.5772 3.63057   1
   5  -5 -10 18.0356 4.16607   3
  -5   5  10 12.2295 5.53168   4
  -5   5  10 16.5950 3.92929   2
   4  -5 -10 52.6505 6.63766   3
   4  -5 -10 44.7091 6.31374   1
  -4   5  10 47.9099 4.80240   3
  -4   5  10 42.8031 8.90131   4
  -4   5  10 55.5444 6.21043   2
   3  -5 -10 136.039 8.93877   3
   3  -5 -10 152.973 9.71368   1
  -3   5  10 142.110 7.42964   3
   2  -5 -10 117.231 8.93193   1
   2  -5 -10 132.777 9.04633   3
  -2   5  10 122.001 7.47996   3
   9  -6 -10 116.947 9.04881   1
  -9   6  10 118.686 8.74567   2
  -9   6  10 137.047 11.9967   4
   8  -6 -10 130.835 8.93691   1
  -8   6  10 145.160 12.2760   4
  -8   6  10 133.600 8.80420   2
   7  -6 -10 20.3468 4.70194   1
   7  -6 -10 33.8681 5.53121   3
  -7   6  10 30.9323 5.25457   2
  -7   6  10 37.6026 8.12276   4
   6  -6 -10 30.2579 5.31240   3
   6  -6 -10 32.5669 5.59061   1
  -6   6  10 35.6726 5.44960   2
  -6   6  10 41.8612 8.52166   4
   5  -6 -10 27.3925 5.25989   3
   5  -6 -10 21.8459 4.96136   1
  -5   6  10 27.8566 4.15801   3
   4  -6 -10 64.5488 7.26149   3
   4  -6 -10 69.0579 7.89589   1
  -4   6  10 78.2963 6.03602   3
   3  -6 -10 85.2631 8.72981   3
   3  -6 -10 110.217 8.79595   1
  -3   6  10 90.1834 6.78655   3
   8  -7 -10 0.02344 3.05916   3
   8  -7 -10 0.79630 3.17620   1
  -8   7  10 -0.7800 4.13817   4
   7  -7 -10 6.44970 3.63264   1
   7  -7 -10 14.9626 4.43491   3
  -7   7  10 15.1229 3.26704   3
  -7   7  10 11.5016 5.97133   4
   6  -7 -10 28.7608 5.75418   1
  -6   7  10 30.3270 4.22876   3
   5  -7 -10 22.9157 5.43396   3
   5  -7 -10 21.4203 5.45276   1
  -5   7  10 17.6749 3.60383   3
  -3  -7  11 2.45849 3.71023   4
  -2  -7  11 31.3847 7.17506   4
  -1  -7  11 66.8649 9.71796   4
   0  -7  11 25.4561 6.53796   4
  -1   7 -11 1.55236 1.65372   1
   1  -7  11 -0.0014 2.85136   4
  -4  -6  11 3.39241 3.98482   4
  -3  -6  11 19.0447 6.12959   4
  -2  -6  11 90.7215 11.4010   4
  -1  -6  11 4.12909 3.32582   4
   0   6 -11 15.9058 2.76187   1
   0  -6  11 11.6458 4.82365   4
  -1   6 -11 7.05025 2.51143   1
   1  -6  11 6.54382 4.47421   4
  -6  -5  11 -1.7437 3.61000   4
  -5  -5  11 11.7566 4.86299   4
  -4  -5  11 158.049 12.8214   4
  -3  -5  11 126.769 11.5062   4
  -2  -5  11 3.30597 3.81429   4
  -1  -5  11 24.8764 6.52329   4
   0   5 -11 61.9018 4.65952   1
   0  -5  11 85.5172 10.6789   4
  -1   5 -11 40.4911 4.80748   1
   1  -5  11 39.6166 4.68484   2
   1  -5  11 43.8754 7.87122   4
   2  -5  11 189.194 9.20898   2
  -7  -4  11 7.52333 5.19131   4
  -6  -4  11 12.1982 5.25055   4
  -5  -4  11 36.8225 7.80768   4
  -4  -4  11 378.344 18.8171   4
  -3  -4  11 1.83356 4.00114   4
  -2  -4  11 59.4128 9.26330   4
   1   4 -11 3.32046 1.65037   1
  -1  -4  11 3.12919 3.74444   4
   0   4 -11 12.6397 2.66592   1
   0  -4  11 16.9422 3.11677   2
   0  -4  11 19.4692 5.79363   4
  -1   4 -11 47.6594 5.34970   1
   1  -4  11 50.1565 8.26079   4
   1  -4  11 52.2674 5.51471   2
   2  -4  11 37.6171 5.16162   2
  -7  -3  11 25.0930 6.67443   4
  -6  -3  11 79.3981 11.0102   4
  -5  -3  11 1.38274 3.94641   4
  -4  -3  11 0.35866 3.45717   4
  -3  -3  11 70.7680 9.83329   4
   2   3 -11 10.2735 2.17297   1
  -2  -3  11 12.8568 4.78583   4
   1   3 -11 179.150 7.67812   1
  -1  -3  11 192.293 12.7514   4
   0   3 -11 103.971 6.46568   1
   0  -3  11 127.907 10.7409   4
   0  -3  11 107.548 6.46343   2
  -1   3 -11 1.39572 1.77981   1
   1  -3  11 3.78651 3.77243   4
   1  -3  11 0.90822 2.06487   2
   8   2 -11 14.6243 3.21238   1
  -8  -2  11 18.5286 5.87958   4
  -7  -2  11 20.0985 6.28501   4
  -6  -2  11 17.9110 5.58794   4
  -5  -2  11 6.79325 4.30403   4
  -4  -2  11 10.0409 4.55964   4
   3   2 -11 1059.19 22.5695   1
  -3  -2  11 1055.34 32.6283   4
   2   2 -11 26.5521 3.52563   1
  -2  -2  11 33.2517 7.09746   4
   1   2 -11 15.1956 3.16391   1
  -1  -2  11 9.27411 4.40445   4
  -1  -2  11 7.23236 2.40368   2
   0   2 -11 29.6107 4.38514   1
   0  -2  11 30.3165 4.40860   2
   0  -2  11 42.8534 7.79211   4
  -1   2 -11 16.7125 3.81147   1
   1  -2  11 14.0389 3.51084   2
   1  -2  11 15.5812 5.04946   4
   8   1 -11 50.7181 5.26422   1
  -8  -1  11 74.4799 10.2969   4
   7   1 -11 7.80135 2.28899   1
  -7  -1  11 11.4668 4.94574   4
   6   1 -11 36.9262 3.96895   1
  -6  -1  11 48.8088 8.16275   4
   5   1 -11 -1.7951 1.36711   1
  -5  -1  11 2.63701 3.79547   4
   4   1 -11 3.37676 2.02581   1
  -4  -1  11 5.96951 4.13691   4
   3   1 -11 195.684 8.01868   1
  -3  -1  11 195.306 13.0119   4
   2   1 -11 110.688 6.37870   1
  -2  -1  11 123.556 10.7978   4
  -2  -1  11 116.393 6.43159   2
   1   1 -11 0.61960 1.87594   1
  -1  -1  11 5.19747 4.01038   4
  -1  -1  11 -0.3534 2.02648   2
   0   1 -11 1.63089 2.00988   1
   0  -1  11 -0.7101 3.13727   4
   0  -1  11 -0.0489 2.04442   2
  -1   1 -11 41.4323 5.98204   1
   1  -1  11 53.6024 6.33605   2
   1  -1  11 43.2145 8.32317   4
  -9   0  11 116.762 12.6202   4
  -9   0  11 117.221 7.21410   2
   8   0 -11 31.0794 4.26277   1
  -8   0  11 33.4793 7.17350   4
   7   0 -11 47.2045 4.78245   1
  -7   0  11 64.7965 9.25236   4
   6   0 -11 39.3997 4.30190   1
  -6   0  11 37.8085 7.11157   4
   5   0 -11 7.93352 2.35846   1
  -5   0  11 16.3293 5.31024   4
   4   0 -11 15.2435 3.14898   1
  -4   0  11 16.0799 3.07254   2
  -4   0  11 11.6520 4.72956   4
   3   0 -11 47.3922 5.11529   1
  -3   0  11 48.1114 8.30589   4
  -3   0  11 49.7150 4.83404   2
   2   0 -11 1.83212 2.26419   1
  -2   0  11 2.62834 3.68919   4
  -2   0  11 4.31177 2.35880   2
   1   0 -11 17.9323 3.83253   1
  -1   0  11 13.8959 3.28766   2
  -1   0  11 25.8681 6.34815   4
   0   0 -11 4.29309 2.54739   1
   0   0  11 1.49348 3.38258   4
   0   0  11 4.73903 2.93493   2
   9  -1 -11 11.0665 3.20249   1
  -9   1  11 4.98066 4.68918   4
  -9   1  11 6.84987 2.98689   2
   8  -1 -11 55.7651 5.88276   1
  -8   1  11 51.4588 5.31152   2
  -8   1  11 52.2477 8.49670   4
   7  -1 -11 3.64921 2.31202   1
  -7   1  11 6.18132 4.32409   4
  -7   1  11 6.75693 2.48307   2
   6  -1 -11 20.5587 3.61283   1
  -6   1  11 18.9948 5.53084   4
  -6   1  11 20.8457 3.51805   2
   5  -1 -11 165.504 7.94923   1
  -5   1  11 172.069 7.59322   2
  -5   1  11 172.185 12.7322   4
   4  -1 -11 22.3482 3.55660   1
  -4   1  11 22.3379 3.59076   2
  -4   1  11 25.9717 6.39053   4
   3  -1 -11 2.39180 2.18945   1
  -3   1  11 2.27800 1.97513   2
  -3   1  11 3.66363 3.61611   4
   2  -1 -11 41.3323 5.40920   1
  -2   1  11 35.4488 7.10678   4
  -2   1  11 45.2896 5.30283   2
   1  -1 -11 33.4783 5.15666   1
  -1   1  11 42.0777 8.39095   4
  -1   1  11 38.6592 5.25458   2
   0  -1 -11 0.59252 3.40863   3
   0  -1 -11 2.88464 2.76197   1
   0   1  11 1.54957 4.00255   4
   0   1  11 0.40532 2.62413   2
   9  -2 -11 73.9858 7.27868   1
  -9   2  11 71.9504 9.78935   4
  -9   2  11 65.4939 6.38986   2
   8  -2 -11 65.5045 6.53241   1
  -8   2  11 70.0469 10.0805   4
  -8   2  11 83.5792 6.35026   2
   7  -2 -11 -0.8105 1.84646   1
  -7   2  11 2.41642 3.66467   4
  -7   2  11 -0.3623 2.08154   2
  -7   2  11 -1.9521 2.32285   2
   6  -2 -11 53.8220 5.51126   1
  -6   2  11 62.1057 9.30855   4
  -6   2  11 51.3651 5.20051   2
   5  -2 -11 -0.2635 2.27178   1
  -5   2  11 3.06313 4.02803   4
  -5   2  11 6.45882 2.56043   2
   4  -2 -11 46.0637 5.41247   1
  -4   2  11 38.5722 4.74156   2
  -4   2  11 50.6833 8.48266   4
   3  -2 -11 4.67407 2.78870   1
  -3   2  11 8.74027 4.88719   4
  -3   2  11 11.3632 3.15540   2
   2  -2 -11 70.2985 7.44383   3
   2  -2 -11 68.0620 7.20079   1
  -2   2  11 71.6093 6.95262   2
  -2   2  11 78.2521 10.1896   4
   1  -2 -11 32.2122 5.31432   1
   1  -2 -11 44.1317 6.02455   3
  -1   2  11 29.7348 7.43028   4
  -1   2  11 41.2156 5.87700   2
   9  -3 -11 11.3118 3.86265   1
  -9   3  11 10.8056 3.58841   2
  -9   3  11 9.05125 4.74816   4
   8  -3 -11 19.7082 4.07156   1
  -8   3  11 14.0158 3.73510   2
  -8   3  11 18.0543 5.73502   4
   7  -3 -11 6.01142 3.06181   1
  -7   3  11 9.30799 5.06247   4
  -7   3  11 4.76367 2.83098   2
   6  -3 -11 0.36818 2.30363   1
  -6   3  11 0.23738 3.65593   4
  -6   3  11 0.06515 2.19830   2
   5  -3 -11 135.998 8.16252   1
  -5   3  11 148.751 12.4490   4
  -5   3  11 153.401 8.15717   2
   4  -3 -11 108.304 7.53166   1
   4  -3 -11 103.446 11.5463   3
  -4   3  11 101.215 11.9430   4
  -4   3  11 106.912 7.05136   2
   3  -3 -11 -0.2683 2.65227   3
   3  -3 -11 0.28920 2.24584   1
  -3   3  11 1.25114 3.87326   4
  -3   3  11 -1.0645 2.13857   2
   2  -3 -11 60.1320 6.86337   3
   2  -3 -11 55.5804 6.96354   1
  -2   3  11 43.1708 8.46425   4
  -2   3  11 55.4576 6.64438   2
   9  -4 -11 21.6395 4.55808   1
  -9   4  11 34.9923 7.31641   4
  -9   4  11 19.8873 4.44680   2
   8  -4 -11 76.3801 7.70241   1
  -8   4  11 102.190 7.53567   2
  -8   4  11 101.121 12.4611   4
   7  -4 -11 14.4659 3.80202   1
  -7   4  11 28.8167 4.51343   2
  -7   4  11 13.7199 5.45983   4
   6  -4 -11 74.3184 7.49152   1
  -6   4  11 65.2409 9.60104   4
  -6   4  11 62.2499 6.42491   2
   5  -4 -11 112.401 7.83530   1
   5  -4 -11 131.514 8.31003   3
  -5   4  11 117.006 7.69511   2
  -5   4  11 88.0092 11.1153   4
   4  -4 -11 36.9690 5.72896   3
   4  -4 -11 30.0263 5.28564   1
  -4   4  11 37.3296 5.30388   2
  -4   4  11 41.8454 8.33473   4
   3  -4 -11 36.5394 6.00326   3
   3  -4 -11 22.1532 4.56222   1
  -3   4  11 21.9559 4.45322   2
  -3   4  11 18.6889 6.52638   4
   8  -5 -11 19.5642 4.59223   1
  -8   5  11 29.6104 7.11871   4
  -8   5  11 18.1623 4.20981   2
   7  -5 -11 9.72965 3.69966   1
   7  -5 -11 9.66180 4.07014   3
  -7   5  11 9.26276 5.73768   4
  -7   5  11 9.10940 3.57356   2
   6  -5 -11 254.955 12.0121   1
   6  -5 -11 255.777 11.6761   3
  -6   5  11 251.631 16.3627   4
  -6   5  11 242.849 11.2601   2
   5  -5 -11 85.0825 8.51571   1
   5  -5 -11 93.6880 8.80124   3
  -5   5  11 84.2687 7.76499   2
  -5   5  11 71.6194 11.1101   4
   4  -5 -11 5.55085 3.23877   1
   4  -5 -11 6.18827 3.39955   3
  -4   5  11 9.16392 5.95325   4
  -7   6  11 2.55812 3.17170   2
   6  -6 -11 20.3176 4.92505   3
  -6   6  11 25.9547 7.81750   4
  -3  -6  12 27.3956 6.92820   4
  -2  -6  12 32.1522 7.33463   4
  -1  -6  12 218.666 15.1125   4
  -5  -5  12 2.43087 4.06889   4
  -4  -5  12 8.66305 4.12866   4
  -3  -5  12 110.286 13.0906   4
  -2  -5  12 131.637 11.8434   4
   1   5 -12 33.2970 3.82391   1
  -1  -5  12 36.4883 7.78628   4
   0   5 -12 5.34008 2.23774   1
   0  -5  12 3.84661 4.05655   4
  -6  -4  12 5.81502 4.78936   4
  -5  -4  12 7.04934 5.11395   4
  -4  -4  12 -0.3537 3.88589   4
  -3  -4  12 41.6688 8.13306   4
  -2  -4  12 65.9685 10.2002   4
   1   4 -12 5.24064 2.16144   1
  -1  -4  12 2.41616 4.06911   4
   0   4 -12 83.4269 5.97846   1
   0  -4  12 77.0771 5.83902   2
   0  -4  12 103.379 12.1241   4
  -6  -3  12 0.28097 4.34471   4
  -5  -3  12 47.8692 8.83109   4
  -4  -3  12 76.2853 10.3663   4
  -3  -3  12 143.814 12.3021   4
   2   3 -12 1.37363 1.72918   1
  -2  -3  12 4.42154 3.66662   4
   1   3 -12 166.917 7.87843   1
  -1  -3  12 183.796 13.2018   4
   0   3 -12 23.5177 3.91239   1
   0  -3  12 31.9664 7.15834   4
   0  -3  12 27.1586 4.28928   2
  -7  -2  12 -1.3318 3.48506   4
  -6  -2  12 24.0909 6.62000   4
  -5  -2  12 99.0149 12.1031   4
   4   2 -12 168.841 6.98082   1
  -4  -2  12 188.404 13.4820   4
   3   2 -12 31.6036 3.78840   1
  -3  -2  12 32.2199 7.09336   4
   2   2 -12 2.05391 1.85192   1
  -2  -2  12 -1.8025 1.54078   2
  -2  -2  12 1.62220 3.33797   4
   1   2 -12 1.58615 1.94938   1
  -1  -2  12 -0.8757 3.32980   4
  -1  -2  12 1.02712 2.09082   2
   0   2 -12 13.9035 3.40529   1
   0  -2  12 15.9774 5.34617   4
   0  -2  12 18.3720 3.95815   2
   7   1 -12 3.47017 2.18312   1
  -7  -1  12 5.16249 4.31223   4
   6   1 -12 96.5721 5.71694   1
  -6  -1  12 98.2316 11.7396   4
   5   1 -12 1.53921 1.92403   1
  -5  -1  12 3.65122 3.93759   4
   4   1 -12 3.25322 1.93299   1
  -4  -1  12 7.10507 4.05775   4
   3   1 -12 83.4194 5.78559   1
  -3  -1  12 110.463 10.6262   4
   2   1 -12 14.3258 3.37706   1
  -2  -1  12 5.32269 2.64606   2
  -2  -1  12 9.01444 4.96317   4
   1   1 -12 38.4487 5.06046   1
  -1  -1  12 42.1295 8.48691   4
  -1  -1  12 60.0710 6.36745   2
   8   0 -12 7.93485 2.60393   1
  -8   0  12 12.5586 5.37179   4
   7   0 -12 52.0343 5.17615   1
  -7   0  12 53.6898 8.83880   4
   6   0 -12 23.7402 3.66171   1
  -6   0  12 30.4951 7.05772   4
   5   0 -12 36.7360 4.55769   1
  -5   0  12 35.5652 4.29084   2
  -5   0  12 39.7108 8.16111   4
   4   0 -12 35.9517 4.49984   1
  -4   0  12 35.2684 7.47306   4
  -4   0  12 46.1748 4.88345   2
   3   0 -12 -1.3474 1.79764   1
  -3   0  12 1.26787 3.61251   4
  -3   0  12 4.58272 2.18002   2
   2   0 -12 27.4404 4.29226   1
  -2   0  12 34.2143 4.73077   2
  -2   0  12 26.3973 6.82575   4
   1   0 -12 1.39451 2.24514   1
  -1   0  12 6.30831 4.78909   4
  -1   0  12 0.05238 2.44877   2
   8  -1 -12 9.72363 3.11533   1
  -8   1  12 10.3269 3.09153   2
  -8   1  12 8.92772 4.98567   4
   7  -1 -12 2.51811 2.35265   1
  -7   1  12 -1.1719 3.65451   4
  -7   1  12 0.92941 2.54149   2
  -7   1  12 1.15170 2.40122   2
   6  -1 -12 6.48498 2.85815   1
  -6   1  12 9.62240 2.80751   2
  -6   1  12 4.15963 4.00481   4
   5  -1 -12 0.28007 2.10697   1
  -5   1  12 -2.2257 1.86090   2
  -5   1  12 -0.5668 3.88962   4
   4  -1 -12 53.0994 5.83631   1
  -4   1  12 63.9409 5.88171   2
  -4   1  12 65.8821 9.84407   4
   3  -1 -12 43.8980 5.55832   1
  -3   1  12 33.1286 4.84819   2
  -3   1  12 56.9385 9.66663   4
   2  -1 -12 14.5059 3.92987   1
  -2   1  12 20.5682 4.28029   2
  -2   1  12 17.2893 6.21843   4
   8  -2 -12 19.9164 4.11549   1
  -8   2  12 23.4671 6.88730   4
  -8   2  12 11.6747 3.38167   2
   7  -2 -12 2.57071 2.55503   1
  -7   2  12 9.39083 5.38882   4
  -7   2  12 0.49398 2.31060   2
   6  -2 -12 30.6314 4.77544   1
  -6   2  12 40.4205 4.98966   2
  -6   2  12 26.7258 7.37425   4
   5  -2 -12 41.6574 5.25982   1
  -5   2  12 38.4851 8.24406   4
  -5   2  12 51.0263 5.73196   2
   4  -2 -12 22.6030 4.29389   1
  -4   2  12 25.1291 4.20442   2
  -4   2  12 23.1938 6.11475   4
   3  -2 -12 2.49372 2.54035   1
  -3   2  12 1.83861 2.23666   2
  -3   2  12 -0.5235 3.73913   4
   8  -3 -12 -3.5386 2.23537   1
  -8   3  12 1.61610 4.06631   4
  -8   3  12 -0.2430 2.63773   2
   7  -3 -12 14.3137 4.08406   1
  -7   3  12 16.8535 3.70493   2
  -7   3  12 22.2014 6.82241   4
   6  -3 -12 90.9307 7.25035   1
  -6   3  12 73.6366 10.8835   4
  -6   3  12 94.6692 7.07032   2
   5  -3 -12 139.207 8.62110   1
  -5   3  12 135.389 12.4627   4
  -5   3  12 137.625 8.25444   2
   4  -3 -12 1.35215 2.72168   1
  -4   3  12 -0.4119 3.68621   4
  -4   3  12 -2.8549 2.02577   2
   7  -4 -12 88.9015 8.62923   1
  -7   4  12 105.199 13.0530   4
  -7   4  12 93.7558 8.41387   2
   6  -4 -12 35.4915 5.69996   1
  -6   4  12 30.6834 5.13003   2
  -6   4  12 43.4865 8.62958   4
   5  -4 -12 5.35260 3.14132   1
  -5   4  12 3.58385 2.84248   2
  -5   4  12 -0.0698 4.28893   4
  -4  -3  13 17.1522 6.14236   4
   3   3 -13 1.94289 1.68494   1
  -3  -3  13 1.59484 3.94440   4
   5   2 -13 4.23655 2.26082   1
  -5  -2  13 -0.5501 4.12978   4
   4   2 -13 24.4913 3.56449   1
  -4  -2  13 32.6062 7.56309   4
   3   2 -13 54.2590 5.36793   1
  -3  -2  13 62.4820 9.86351   4
   6   1 -13 3.05766 2.29411   1
  -6  -1  13 2.89086 4.11717   4
   5   1 -13 309.000 10.9210   1
  -5  -1  13 341.635 18.8918   4
   4   1 -13 51.9727 5.39019   1
  -4  -1  13 57.0995 9.51274   4
   3   1 -13 22.0375 4.04370   1
  -3  -1  13 26.5700 6.70721   4
  -3  -1  13 25.3681 3.96683   2
   6   0 -13 57.0263 5.88337   1
  -6   0  13 51.9343 9.20035   4
   5   0 -13 324.402 11.7121   1
  -5   0  13 315.056 11.2740   2
  -5   0  13 319.691 18.7499   4
   4   0 -13 10.7891 3.12569   1
  -4   0  13 13.9659 3.20968   2
  -4   0  13 11.3665 5.02787   4
  -6   1  13 13.0738 5.55771   4
  -6   1  13 11.2875 3.25522   2
   5  -1 -13 118.062 7.54492   1
  -5   1  13 85.7960 11.7069   4
  -5   1  13 123.084 7.39581   2
   0   0   0    0.00    0.00   0

 _exptl_absorpt_process_details 'SADABS 2014/4'
 _exptl_absorpt_correction_type   multiscan
 _exptl_absorpt_correction_T_max  0.9485
 _exptl_absorpt_correction_T_min  0.8446
 _exptl_special_details
)
 The following wavelength and cell were deduced by SADABS from the
 direction cosines etc. They are given here for emergency use only:
 CELL 0.71105    8.955   10.157   10.613   95.591  113.649  113.055
)

;
_shelx_hkl_checksum              49056
loop_
_space_group_symop_operation_xyz
'x, y, z'
'-x, -y, -z'
loop_
_atom_site_label
_atom_site_type_symbol
_atom_site_fract_x
_atom_site_fract_y
_atom_site_fract_z
_atom_site_U_iso_or_equiv
_atom_site_adp_type
_atom_site_occupancy
_atom_site_site_symmetry_order
_atom_site_calc_flag
_atom_site_refinement_flags_posn
_atom_site_refinement_flags_adp
S1 S 1.11038(5) 0.62190(4) 0.77426(4) 0.01321(13) Uani 1 1 d . .
O1 O 1.26308(15) 0.68905(13) 0.74537(13) 0.0175(3) Uani 1 1 d . .
O2 O 1.05104(16) 0.84341(13) 0.62288(13) 0.0169(3) Uani 1 1 d . .
O3 O 0.60017(15) 0.42976(13) 0.43142(12) 0.0152(3) Uani 1 1 d . .
O4 O 1.07809(16) 0.48489(13) 0.81306(12) 0.0170(3) Uani 1 1 d . .
C1 C 0.4705(2) 0.5869(2) 0.13898(19) 0.0220(4) Uani 1 1 d . .
H1 H 0.3719 0.5565 0.0436 0.026 Uiso 1 1 calc R U
C2 C 0.4665(2) 0.4861(2) 0.21684(19) 0.0189(4) Uani 1 1 d . .
H13 H 0.3657 0.3867 0.1768 0.023 Uiso 1 1 calc R U
C3 C 0.6138(2) 0.53292(19) 0.35584(18) 0.0140(3) Uani 1 1 d . .
C4 C 0.7643(2) 0.67648(19) 0.41567(18) 0.0146(3) Uani 1 1 d . .
C5 C 0.9209(2) 0.71603(18) 0.55951(18) 0.0142(3) Uani 1 1 d . .
C6 C 0.9061(2) 0.58896(18) 0.61894(17) 0.0131(3) Uani 1 1 d . .
C7 C 1.1372(2) 0.75455(18) 0.91327(17) 0.0130(3) Uani 1 1 d . .
C8 C 1.0337(2) 0.70472(18) 0.98375(18) 0.0146(3) Uani 1 1 d . .
H5 H 0.9516 0.6007 0.9588 0.018 Uiso 1 1 calc R U
C9 C 1.0517(2) 0.80922(19) 1.09137(18) 0.0164(4) Uani 1 1 d . .
H4 H 0.9793 0.7764 1.1387 0.020 Uiso 1 1 calc R U
C10 C 1.1750(2) 0.96196(19) 1.13092(18) 0.0157(4) Uani 1 1 d . .
C11 C 1.1902(2) 1.0742(2) 1.24557(19) 0.0197(4) Uani 1 1 d . .
H16 H 1.3203 1.1514 1.3052 0.030 Uiso 1 1 calc R U
H3 H 1.1456 1.0227 1.3068 0.030 Uiso 1 1 calc R U
H2 H 1.1147 1.1216 1.1995 0.030 Uiso 1 1 calc R U
C12 C 0.7455(2) 0.45564(19) 0.55906(17) 0.0134(3) Uani 1 1 d . .
C13 C 0.6920(2) 0.32138(18) 0.61097(18) 0.0162(4) Uani 1 1 d . .
H6 H 0.5602 0.2807 0.5877 0.019 Uiso 1 1 calc R U
H10 H 0.7682 0.3528 0.7175 0.019 Uiso 1 1 calc R U
C14 C 0.7179(3) 0.1974(2) 0.5429(2) 0.0212(4) Uani 1 1 d . .
H7 H 0.6568 0.1755 0.4375 0.032 Uiso 1 1 calc R U
H8 H 0.6628 0.1063 0.5679 0.032 Uiso 1 1 calc R U
H9 H 0.8508 0.2309 0.5798 0.032 Uiso 1 1 calc R U
C15 C 0.6181(3) 0.7341(2) 0.1984(2) 0.0237(4) Uani 1 1 d . .
H12 H 0.6179 0.8033 0.1441 0.028 Uiso 1 1 calc R U
C16 C 0.7637(2) 0.7782(2) 0.3358(2) 0.0198(4) Uani 1 1 d . .
H11 H 0.8637 0.8780 0.3761 0.024 Uiso 1 1 calc R U
C17 C 1.2615(2) 0.90624(19) 0.95078(19) 0.0168(4) Uani 1 1 d . .
H15 H 1.3316 0.9391 0.9017 0.020 Uiso 1 1 calc R U
C18 C 1.2812(2) 1.00840(19) 1.06108(19) 0.0179(4) Uani 1 1 d . .
H14 H 1.3684 1.1116 1.0895 0.022 Uiso 1 1 calc R U
loop_
_atom_site_aniso_label
_atom_site_aniso_U_11
_atom_site_aniso_U_22
_atom_site_aniso_U_33
_atom_site_aniso_U_23
_atom_site_aniso_U_13
_atom_site_aniso_U_12
S1 0.0138(2) 0.0127(2) 0.0130(2) 0.00541(16) 0.00608(16) 0.00617(16)
O1 0.0157(6) 0.0195(6) 0.0197(6) 0.0075(5) 0.0106(5) 0.0081(5)
O2 0.0178(6) 0.0133(6) 0.0181(6) 0.0066(5) 0.0094(5) 0.0049(5)
O3 0.0151(6) 0.0139(6) 0.0147(6) 0.0064(5) 0.0060(5) 0.0061(5)
O4 0.0192(6) 0.0136(6) 0.0174(6) 0.0075(5) 0.0070(5) 0.0081(5)
C1 0.0228(9) 0.0298(10) 0.0158(8) 0.0107(8) 0.0078(7) 0.0152(8)
C2 0.0185(8) 0.0195(9) 0.0179(8) 0.0054(7) 0.0078(7) 0.0092(7)
C3 0.0179(8) 0.0169(8) 0.0149(8) 0.0096(7) 0.0106(7) 0.0113(7)
C4 0.0175(8) 0.0160(8) 0.0156(8) 0.0076(7) 0.0099(7) 0.0099(7)
C5 0.0164(8) 0.0145(8) 0.0161(8) 0.0052(7) 0.0101(7) 0.0087(7)
C6 0.0145(7) 0.0150(8) 0.0119(7) 0.0061(7) 0.0072(6) 0.0076(6)
C7 0.0140(7) 0.0134(8) 0.0112(7) 0.0050(6) 0.0051(6) 0.0066(6)
C8 0.0150(8) 0.0120(8) 0.0149(8) 0.0067(7) 0.0063(7) 0.0048(6)
C9 0.0176(8) 0.0177(8) 0.0170(8) 0.0088(7) 0.0103(7) 0.0083(7)
C10 0.0157(8) 0.0164(8) 0.0136(8) 0.0065(7) 0.0048(7) 0.0082(7)
C11 0.0225(9) 0.0173(8) 0.0173(8) 0.0040(7) 0.0087(7) 0.0089(7)
C12 0.0158(8) 0.0161(8) 0.0124(7) 0.0050(7) 0.0081(6) 0.0097(7)
C13 0.0162(8) 0.0146(8) 0.0170(8) 0.0066(7) 0.0085(7) 0.0055(7)
C14 0.0273(9) 0.0160(8) 0.0230(9) 0.0089(8) 0.0138(8) 0.0101(7)
C15 0.0287(10) 0.0265(10) 0.0226(9) 0.0162(8) 0.0138(8) 0.0154(8)
C16 0.0217(9) 0.0184(9) 0.0220(9) 0.0102(7) 0.0123(7) 0.0093(7)
C17 0.0150(8) 0.0156(8) 0.0184(8) 0.0071(7) 0.0084(7) 0.0050(7)
C18 0.0161(8) 0.0119(8) 0.0196(8) 0.0040(7) 0.0065(7) 0.0035(7)
loop_
_atom_type_symbol
_atom_type_description
_atom_type_scat_dispersion_real
_atom_type_scat_dispersion_imag
_atom_type_scat_source
C C 0.0033 0.0016 'International Tables Vol C Tables 4.2.6.8 and 6.1.1.4'
H H 0.0000 0.0000 'International Tables Vol C Tables 4.2.6.8 and 6.1.1.4'
O O 0.0106 0.0060 'International Tables Vol C Tables 4.2.6.8 and 6.1.1.4'
S S 0.1246 0.1234 'International Tables Vol C Tables 4.2.6.8 and 6.1.1.4'
loop_
_geom_angle_atom_site_label_1
_geom_angle_atom_site_label_2
_geom_angle_atom_site_label_3
_geom_angle
O1 S1 O4 118.06(7)
O1 S1 C7 108.98(8)
O4 S1 C7 107.76(8)
O1 S1 C6 107.55(8)
O4 S1 C6 108.69(8)
C7 S1 C6 105.05(7)
C12 O3 C3 121.08(13)
C2 C1 C15 120.89(16)
C2 C1 H1 119.6
C15 C1 H1 119.6
C1 C2 C3 118.41(16)
C1 C2 H13 120.8
C3 C2 H13 120.8
O3 C3 C4 121.87(14)
O3 C3 C2 116.23(15)
C4 C3 C2 121.89(17)
C3 C4 C16 118.73(15)
C3 C4 C5 119.23(16)
C16 C4 C5 122.02(16)
O2 C5 C6 123.51(15)
O2 C5 C4 122.50(16)
C6 C5 C4 113.99(14)
C12 C6 C5 122.10(15)
C12 C6 S1 122.54(13)
C5 C6 S1 115.35(12)
C8 C7 C17 121.34(15)
C8 C7 S1 118.83(12)
C17 C7 S1 119.83(14)
C7 C8 C9 119.00(15)
C7 C8 H5 120.5
C9 C8 H5 120.5
C8 C9 C10 120.84(17)
C8 C9 H4 119.6
C10 C9 H4 119.6
C18 C10 C9 118.95(15)
C18 C10 C11 120.82(16)
C9 C10 C11 120.22(17)
C10 C11 H16 109.5
C10 C11 H3 109.5
H16 C11 H3 109.5
C10 C11 H2 109.5
H16 C11 H2 109.5
H3 C11 H2 109.5
O3 C12 C6 120.27(16)
O3 C12 C13 108.66(13)
C6 C12 C13 131.07(15)
C12 C13 C14 112.57(15)
C12 C13 H6 109.1
C14 C13 H6 109.1
C12 C13 H10 109.1
C14 C13 H10 109.1
H6 C13 H10 107.8
C13 C14 H7 109.5
C13 C14 H8 109.5
H7 C14 H8 109.5
C13 C14 H9 109.5
H7 C14 H9 109.5
H8 C14 H9 109.5
C16 C15 C1 119.94(18)
C16 C15 H12 120.0
C1 C15 H12 120.0
C15 C16 C4 120.10(17)
C15 C16 H11 120.0
C4 C16 H11 120.0
C18 C17 C7 118.81(17)
C18 C17 H15 120.6
C7 C17 H15 120.6
C17 C18 C10 121.02(16)
C17 C18 H14 119.5
C10 C18 H14 119.5
loop_
_geom_bond_atom_site_label_1
_geom_bond_atom_site_label_2
_geom_bond_distance
S1 O1 1.4350(13)
S1 O4 1.4402(13)
S1 C7 1.7625(16)
S1 C6 1.7742(16)
O2 C5 1.222(2)
O3 C12 1.3545(19)
O3 C3 1.375(2)
C1 C2 1.373(3)
C1 C15 1.402(3)
C1 H1 0.9500
C2 C3 1.393(2)
C2 H13 0.9500
C3 C4 1.387(2)
C4 C16 1.397(3)
C4 C5 1.472(2)
C5 C6 1.472(2)
C6 C12 1.366(2)
C7 C8 1.387(2)
C7 C17 1.393(2)
C8 C9 1.388(2)
C8 H5 0.9500
C9 C10 1.396(2)
C9 H4 0.9500
C10 C18 1.394(3)
C10 C11 1.503(2)
C11 H16 0.9800
C11 H3 0.9800
C11 H2 0.9800
C12 C13 1.493(3)
C13 C14 1.529(2)
C13 H6 0.9900
C13 H10 0.9900
C14 H7 0.9800
C14 H8 0.9800
C14 H9 0.9800
C15 C16 1.379(3)
C15 H12 0.9500
C16 H11 0.9500
C17 C18 1.386(2)
C17 H15 0.9500
C18 H14 0.9500
