#------------------------------------------------------------------------------
#$Date: 2019-11-04 09:27:00 +0200 (Mon, 04 Nov 2019) $
#$Revision: 222356 $
#$URL: file:///home/coder/svn-repositories/cod/cif/4/03/37/4033781.cif $
#------------------------------------------------------------------------------
#
# This file is available in the Crystallography Open Database (COD),
# http://www.crystallography.net/
#
# All data on this site have been placed in the public domain by the
# contributors.
#
data_4033781
loop_
_publ_author_name
'Xu, Fen'
'Si, Xiao-Ju'
'Song, Yuan-Yuan'
'Wang, Xing-Dong'
'Liu, Chun-Sen'
'Geng, Peng-Fei'
'Du, Miao'
_publ_section_title
;
 Palladium-Catalyzed C-N Bond Cleavage of 2 H-Azirines for the Synthesis
 of Functionalized \a-Amido Ketones.
;
_journal_issue                   4
_journal_name_full               'The Journal of organic chemistry'
_journal_page_first              2200
_journal_page_last               2208
_journal_paper_doi               10.1021/acs.joc.8b03193
_journal_volume                  84
_journal_year                    2019
_chemical_formula_moiety         'C28 H40 N8 Pd'
_chemical_formula_sum            'C28 H40 N8 Pd'
_chemical_formula_weight         595.08
_space_group_crystal_system      triclinic
_space_group_IT_number           2
_space_group_name_Hall           '-P 1'
_space_group_name_H-M_alt        'P -1'
_atom_sites_solution_hydrogens   geom
_atom_sites_solution_primary     iterative
_audit_creation_date             2018-09-03
_audit_creation_method
;
Olex2 1.2
(compiled 2018.05.29 svn.r3508 for OlexSys, GUI svn.r5506)
;
_cell_angle_alpha                90.294(4)
_cell_angle_beta                 112.968(9)
_cell_angle_gamma                96.803(6)
_cell_formula_units_Z            1
_cell_length_a                   9.9466(10)
_cell_length_b                   11.2291(5)
_cell_length_c                   11.3124(6)
_cell_measurement_reflns_used    3177
_cell_measurement_temperature    293(2)
_cell_measurement_theta_max      70.3580
_cell_measurement_theta_min      4.2260
_cell_volume                     1153.32(16)
_computing_cell_refinement       'CrysAlisPro 1.171.38.46 (Rigaku OD, 2015)'
_computing_data_collection       'CrysAlisPro 1.171.38.46 (Rigaku OD, 2015)'
_computing_data_reduction        'CrysAlisPro 1.171.38.46 (Rigaku OD, 2015)'
_computing_molecular_graphics    'Olex2 (Dolomanov et al., 2009)'
_computing_publication_material  'Olex2 (Dolomanov et al., 2009)'
_computing_structure_refinement  'ShelXL (Sheldrick, 2015)'
_computing_structure_solution    'olex2.solve (Bourhis et al., 2015)'
_diffrn_ambient_temperature      293(2)
_diffrn_detector                 'CCD plate'
_diffrn_detector_area_resol_mean 5.3031
_diffrn_detector_type            AtlasS2
_diffrn_measured_fraction_theta_full 0.998
_diffrn_measured_fraction_theta_max 0.958
_diffrn_measurement_details
;
List of Runs (angles in degrees, time in seconds):

  # Type    Start    End  Width  t~exp~   \w     \q     \k     \f   Frames
--------------------------------------------------------------------------
  1  \w    -61.00  32.00   1.00    4.49    --  -40.05  38.00 -60.00   93
  2  \w     47.00  80.00   1.00    4.49    --   40.05 -99.00 -90.00   33
  3  \w     66.00  96.00   1.00    4.49    --   40.05-125.00-150.00   30
  4  \w     42.00 113.00   1.00   17.95    --  108.39 -30.00 -60.00   71
  5  \w     91.00 138.00   1.00   17.95    --  108.39 -77.00 -90.00   47
  6  \w     69.00 108.00   1.00   17.95    --  108.39 -95.00 -90.00   39
  7  \w     39.00 132.00   1.00   17.95    --  108.39 -61.00-150.00   93
  8  \w     86.00 178.00   1.00   17.95    --  108.39  30.00 -60.00   92
  9  \w     94.00 177.00   1.00   17.95    --  108.39  30.00-120.00   83
 10  \w    151.00 178.00   1.00   17.95    --  108.39  45.00 120.00   27
 11  \w    151.00 178.00   1.00   17.95    --  108.39  45.00 150.00   27
 12  \w     84.00 111.00   1.00   17.95    --  108.39  45.00 150.00   27
 13  \w     32.00  98.00   1.00   17.95    --  108.39 -30.00 120.00   66
 14  \w     27.00  85.00   1.00   17.95    --  108.39 -95.00 120.00   58
 15  \w     42.00 120.00   1.00   17.95    --  108.39-125.00 120.00   78
 16  \w      5.00  47.00   1.00    4.49    --   40.05 -99.00-150.00   42
 17  \w     27.00 106.00   1.00   17.95    --  108.39 -95.00-180.00   79
 18  \w    -64.00  30.00   1.00    4.49    --  -40.05  57.00 150.00   94
 19  \w   -111.00 -16.00   1.00    4.49    --  -40.05 -57.00   0.00   95
;
_diffrn_measurement_device       'four-circle diffractometer'
_diffrn_measurement_device_type  'SuperNova, Dual, Cu at zero, AtlasS2'
_diffrn_measurement_method       '\w scans'
_diffrn_orient_matrix_type
'CrysAlisPro convention (1999,Acta A55,543-557)'
_diffrn_orient_matrix_UB_11      -0.1594946000
_diffrn_orient_matrix_UB_12      0.0257472000
_diffrn_orient_matrix_UB_13      -0.0734988000
_diffrn_orient_matrix_UB_21      -0.0403936000
_diffrn_orient_matrix_UB_22      -0.0465092000
_diffrn_orient_matrix_UB_23      0.1113650000
_diffrn_orient_matrix_UB_31      0.0414811000
_diffrn_orient_matrix_UB_32      0.1277675000
_diffrn_orient_matrix_UB_33      0.0643598000
_diffrn_radiation_monochromator  mirror
_diffrn_radiation_probe          x-ray
_diffrn_radiation_type           CuK\a
_diffrn_radiation_wavelength     1.54184
_diffrn_reflns_av_R_equivalents  0.0389
_diffrn_reflns_av_unetI/netI     0.0451
_diffrn_reflns_Laue_measured_fraction_full 0.998
_diffrn_reflns_Laue_measured_fraction_max 0.958
_diffrn_reflns_limit_h_max       11
_diffrn_reflns_limit_h_min       -12
_diffrn_reflns_limit_k_max       13
_diffrn_reflns_limit_k_min       -10
_diffrn_reflns_limit_l_max       14
_diffrn_reflns_limit_l_min       -13
_diffrn_reflns_number            7583
_diffrn_reflns_point_group_measured_fraction_full 0.998
_diffrn_reflns_point_group_measured_fraction_max 0.958
_diffrn_reflns_theta_full        67.684
_diffrn_reflns_theta_max         74.380
_diffrn_reflns_theta_min         3.971
_diffrn_source                   'micro-focus sealed X-ray tube'
_diffrn_source_type              'SuperNova (Cu) X-ray Source'
_exptl_absorpt_coefficient_mu    3.393
_exptl_absorpt_correction_T_max  1.00000
_exptl_absorpt_correction_T_min  0.65933
_exptl_absorpt_correction_type   multi-scan
_exptl_absorpt_process_details
;
CrysAlisPro 1.171.38.46 (Rigaku Oxford Diffraction, 2015)
Empirical absorption correction using spherical harmonics,
 implemented in SCALE3 ABSPACK scaling algorithm.
;
_exptl_crystal_density_diffrn    0.857
_exptl_crystal_F_000             310
_platon_squeeze_details
;
TITL sxj-jl-5_a.res in P-1
CELL    9.9466   11.2291   11.3124     90.29    112.97     96.80
SPGR P-1
# Solvent Accessible Volume =       534
# Electrons Found in S.A.V. =       149
# Note: Atoms in Void are Labelled as Cxxx and Qxxx for all Others
C101 0.912 0.565 0.155 !       5.04 eA-3
C102 1.017 0.390 0.376 !       1.88 eA-3
C103 1.013 0.063 0.107 !       1.50 eA-3
C104 0.999 0.329 0.047 !       1.47 eA-3
C105 0.013 0.109 0.188 !       1.44 eA-3
C106 0.020 0.250 0.251 !       1.37 eA-3
C107 0.001 0.155 0.451 !       1.33 eA-3
C108 0.018 0.204 0.497 !       1.29 eA-3
Q109 0.495 0.517 0.077 !       1.27 eA-3
C110 0.022 0.171 0.219 !       1.24 eA-3
C111 1.008 1.001 0.048 !       1.12 eA-3
C112 0.980 0.781 0.408 !       1.12 eA-3
C113 1.009 0.814 0.207 !       1.09 eA-3
C114 0.042 0.126 0.314 !       1.09 eA-3
C115 1.018 0.952 0.141 !       1.06 eA-3
C116 0.994 0.796 0.252 !       1.05 eA-3
C117 1.015 0.862 0.111 !       1.03 eA-3
C118 0.038 0.096 0.393 !       1.01 eA-3
C119 0.009 0.282 0.171 !       1.01 eA-3
C120 0.008 0.890 0.219 !       0.97 eA-3
C121 1.012 0.890 0.405 !       0.80 eA-3
C122 0.995 0.672 0.472 !       0.77 eA-3
C123 0.960 0.690 0.252 !       0.74 eA-3
C124 0.970 0.717 0.205 !       0.73 eA-3
C125 0.010 0.019 0.465 !       0.71 eA-3
Q126 0.476 0.281 0.299 !       0.67 eA-3
C127 0.973 0.591 0.390 !       0.65 eA-3
C128 0.975 0.638 0.327 !       0.62 eA-3
Q129 0.592 0.497 0.031 !       0.58 eA-3
;
_refine_diff_density_max         1.134
_refine_diff_density_min         -0.645
_refine_diff_density_rms         0.074
_refine_ls_extinction_method     none
_refine_ls_goodness_of_fit_ref   1.083
_refine_ls_hydrogen_treatment    constr
_refine_ls_matrix_type           full
_refine_ls_number_parameters     173
_refine_ls_number_reflns         4506
_refine_ls_number_restraints     2
_refine_ls_restrained_S_all      1.084
_refine_ls_R_factor_all          0.0636
_refine_ls_R_factor_gt           0.0536
_refine_ls_shift/su_max          0.000
_refine_ls_shift/su_mean         0.000
_refine_ls_structure_factor_coef Fsqd
_refine_ls_weighting_details
'w=1/[\s^2^(Fo^2^)+(0.0977P)^2^+0.0929P] where P=(Fo^2^+2Fc^2^)/3'
_refine_ls_weighting_scheme      calc
_refine_ls_wR_factor_gt          0.1566
_refine_ls_wR_factor_ref         0.1671
_reflns_Friedel_coverage         0.000
_reflns_number_gt                3861
_reflns_number_total             4506
_reflns_threshold_expression     'I > 2\s(I)'
_iucr_refine_instructions_details
;
TITL sxj-jl-5_a.res in P-1
    1.res
    created by SHELXL-2018/1 at 10:42:03 on 03-Sep-2018
REM Old TITL SXJ-JL-5 in P1
REM SHELXT solution in P-1
REM R1 0.158, Rweak 0.098, Alpha 0.059, Orientation as input
REM Formula found by SHELXT: C30 N4 O4 Pd
CELL 1.54184 9.9466 11.2291 11.3124 90.294 112.968 96.803
ZERR 1 0.001 0.0005 0.0006 0.004 0.009 0.006
LATT 1
SFAC C H N Pd
UNIT 28 40 8 1
DFIX 1.45 0.01 N2 C10 N2 C11

L.S. 5 0 84
PLAN  20
CONN 4 C11
BOND $H
list 4
ABIN
fmap 2
acta
REM <olex2.extras>
REM <HklSrc "%.\\1.hkl">
REM </olex2.extras>

WGHT    0.097700    0.092900
FVAR       0.45249
C1    1    0.630684    0.287478    0.121351    11.00000    0.08569    0.07552 =
         0.10002    0.01551    0.04355    0.00767
AFIX  43
H1    2    0.717793    0.338432    0.138817    11.00000   -1.20000
AFIX   0
C2    1    0.639841    0.174798    0.165826    11.00000    0.10753    0.08464 =
         0.10456    0.02919    0.04353    0.03560
AFIX  43
H2    2    0.731727    0.150765    0.211076    11.00000   -1.20000
AFIX   0
C3    1    0.512189    0.095011    0.143974    11.00000    0.13627    0.06302 =
         0.07718    0.00628    0.04915    0.01774
C4    1    0.381222    0.139449    0.071625    11.00000    0.11197    0.06444 =
         0.09590    0.00844    0.04017   -0.00706
AFIX  43
H4    2    0.291899    0.090697    0.050902    11.00000   -1.20000
AFIX   0
C5    1    0.357647    0.559003    0.173852    11.00000    0.08292    0.08169 =
         0.08645    0.00844    0.03405    0.00919
AFIX  43
H5    2    0.272857    0.535879    0.100685    11.00000   -1.20000
AFIX   0
C6    1    0.342045    0.598287    0.280875    11.00000    0.09379    0.09272 =
         0.10096    0.01106    0.05280    0.01475
AFIX  43
H6    2    0.248325    0.600796    0.279497    11.00000   -1.20000
AFIX   0
C7    1    0.466496    0.635188    0.393726    11.00000    0.12024    0.07331 =
         0.08737    0.02373    0.05554    0.02081
C8    1    0.599611    0.624112    0.384488    11.00000    0.10668    0.08517 =
         0.06968    0.00640    0.02458    0.00683
AFIX  43
H8    2    0.686816    0.643934    0.456354    11.00000   -1.20000
AFIX   0
C9    1    0.605769    0.584070    0.270317    11.00000    0.08286    0.08640 =
         0.09104    0.00548    0.03727    0.01233
AFIX  43
H9    2    0.697163    0.580255    0.267063    11.00000   -1.20000
AFIX   0
C10   1    0.653659   -0.056838    0.268364    11.00000    0.23742    0.09604 =
         0.17570    0.06120    0.08184    0.06653
AFIX 137
H10A  2    0.723785   -0.038117    0.229994    11.00000   -1.50000
H10B  2    0.636699   -0.142258    0.273442    11.00000   -1.50000
H10C  2    0.691450   -0.018812    0.353239    11.00000   -1.50000
AFIX   0
C11   1    0.385075   -0.092503    0.171436    11.00000    0.25931    0.07507 =
         0.18161    0.02708    0.09219   -0.01462
AFIX 137
H11A  2    0.345551   -0.069685    0.231986    11.00000   -1.50000
H11B  2    0.406897   -0.173668    0.183634    11.00000   -1.50000
H11C  2    0.314203   -0.086832    0.085556    11.00000   -1.50000
AFIX   0
C12   1    0.316110    0.692746    0.504722    11.00000    0.21015    0.18769 =
         0.14522    0.00918    0.12017    0.06161
AFIX 137
H12A  2    0.281976    0.763116    0.460906    11.00000   -1.50000
H12B  2    0.328306    0.702159    0.592865    11.00000   -1.50000
H12C  2    0.245373    0.623768    0.463966    11.00000   -1.50000
AFIX   0
C13   1    0.585281    0.718586    0.612277    11.00000    0.23530    0.15574 =
         0.08076   -0.00147    0.06759    0.03861
AFIX 137
H13A  2    0.661370    0.669770    0.621455    11.00000   -1.50000
H13B  2    0.561532    0.713517    0.686759    11.00000   -1.50000
H13C  2    0.619040    0.800550    0.603851    11.00000   -1.50000
AFIX   0
C22   1    0.382328    0.254802    0.030342    11.00000    0.08502    0.07741 =
         0.07720    0.01055    0.02040    0.00787
AFIX  43
H22   2    0.292790    0.281871   -0.016756    11.00000   -1.20000
AFIX   0
N1    3    0.504651    0.328309    0.054701    11.00000    0.07651    0.06588 =
         0.07146    0.00959    0.02851    0.00934
N2    3    0.517319   -0.013857    0.191041    11.00000    0.19042    0.06388 =
         0.12713    0.02198    0.07048    0.02048
N3    3    0.486597    0.551701    0.167596    11.00000    0.08030    0.06906 =
         0.07472    0.01578    0.02601    0.00957
N4    3    0.456020    0.676431    0.499331    11.00000    0.16674    0.12575 =
         0.08695    0.01389    0.06898    0.03140
PD1   4    0.500000    0.500000    0.000000    10.50000    0.08850    0.06509 =
         0.07639    0.01229    0.03453    0.01051
HKLF 4




REM  sxj-jl-5_a.res in P-1
REM R1 =  0.0536 for    3861 Fo > 4sig(Fo)  and  0.0636 for all    4506 data
REM    173 parameters refined using      2 restraints

END  
     
WGHT      0.0975      0.0845 

REM Highest difference peak  1.134,  deepest hole -0.645,  1-sigma level  0.074
Q1    1   0.5040  0.4829 -0.0823  11.00000  0.05    1.13
Q2    1   0.3931  0.5009 -0.0333  11.00000  0.05    0.48
Q3    1   0.4957  0.4237  0.0203  11.00000  0.05    0.37
Q4    1   0.5591  0.6941  0.5369  11.00000  0.05    0.34
Q5    1   0.5591  0.6334  0.4991  11.00000  0.05    0.33
Q6    1   0.5068  0.3160 -0.0253  11.00000  0.05    0.32
Q7    1   0.4543  0.6068  0.4748  11.00000  0.05    0.31
Q8    1   0.4298  0.6908  0.5605  11.00000  0.05    0.29
Q9    1   0.5664  0.3742 -0.0190  11.00000  0.05    0.26
Q10   1   0.4774  0.3562  0.1210  11.00000  0.05    0.25
Q11   1   0.7079  0.7185  0.6405  11.00000  0.05    0.24
Q12   1   0.4769  0.6328  0.3424  11.00000  0.05    0.23
Q13   1   0.5084 -0.1122  0.1358  11.00000  0.05    0.22
Q14   1   0.4958  0.6119  0.1947  11.00000  0.05    0.21
Q15   1   0.4416  0.5654  0.3572  11.00000  0.05    0.21
Q16   1   0.5448  0.3183  0.1635  11.00000  0.05    0.21
Q17   1   0.5142  0.6980  0.4228  11.00000  0.05    0.21
Q18   1   0.5204  0.1610  0.1243  11.00000  0.05    0.20
Q19   1   0.4196  0.2062  0.0733  11.00000  0.05    0.19
Q20   1   0.3747  0.1485 -0.0104  11.00000  0.05    0.19

  REM The information below was added by Olex2.
  REM
  REM R1 = 0.0536 for 3861 Fo > 4sig(Fo) and 0.0636 for all 7583 data
  REM n/a parameters refined using n/a restraints
  REM Highest difference peak 1.13, deepest hole -0.64
  REM Mean Shift 0, Max Shift 0.000.

  REM +++ Tabular Listing of Refinement Information +++
  REM R1_all = 0.0636
  REM R1_gt = 0.0536
  REM wR_ref = 0.1671
  REM GOOF = 1.083
  REM Shift_max = 0.000
  REM Shift_mean = 0
  REM Reflections_all = 7583
  REM Reflections_gt = 3861
  REM Parameters = n/a
  REM Hole = -0.64
  REM Peak = 1.13
  REM Flack = n/a

  
;
_cod_data_source_file            jo8b03193_si_005.cif
_cod_data_source_block           1
_cod_database_code               4033781
_shelx_shelxl_version_number     2018/1
_chemical_oxdiff_formula         'C H O N Pd'
_shelx_space_group_comment
;
The symmetry employed for this shelxl refinement is uniquely defined
by the following loop, which should always be used as a source of
symmetry information in preference to the above space-group names.
They are only intended as comments.
;
_reflns_odcompleteness_completeness 99.85
_reflns_odcompleteness_iscentric 1
_reflns_odcompleteness_theta     66.97
_olex2_refinement_description
;
1. Fixed Uiso
 At 1.2 times of:
  All C(H) groups
 At 1.5 times of:
  All C(H,H,H) groups
2. Restrained distances
 N2-C10 = N2-C11
 1.45 with sigma of 0.01
3.a Aromatic/amide H refined with riding coordinates:
 C1(H1), C2(H2), C4(H4), C5(H5), C6(H6), C8(H8), C9(H9), C22(H22)
3.b Idealised Me refined as rotating group:
 C10(H10A,H10B,H10C), C11(H11A,H11B,H11C), C12(H12A,H12B,H12C), C13(H13A,H13B,
 H13C)
;
_shelx_fab_file
;
 -12 -1 4 0.16 0.00
 -12 -1 5 -0.39 0.00
 -12 -1 6 -0.35 0.00
 -12 -1 7 -0.53 0.00
 -12 0 3 -0.18 0.00
 -12 0 4 -0.33 0.00
 -12 0 5 0.43 0.00
 -12 0 6 0.59 0.00
 -12 0 7 0.10 0.00
 -12 1 4 -0.31 0.00
 -12 1 5 -0.20 0.00
 -12 1 6 -0.13 0.00
 -12 1 7 0.04 0.00
 -12 3 6 0.18 0.00
 -12 3 7 0.61 0.00
 -12 4 6 -0.10 0.00
 -12 4 7 -0.58 0.00
 -11 -4 3 -0.11 0.00
 -11 -4 4 -0.31 0.00
 -11 -4 5 -0.18 0.00
 -11 -4 6 0.22 0.00
 -11 -4 7 0.47 0.00
 -11 -4 8 0.09 0.00
 -11 -3 2 -0.65 0.00
 -11 -3 3 0.25 0.00
 -11 -3 4 0.64 0.00
 -11 -3 5 0.23 0.00
 -11 -3 6 -0.19 0.00
 -11 -3 7 -0.80 0.00
 -11 -3 8 -0.23 0.00
 -11 -3 9 -0.06 0.00
 -11 -2 1 0.04 0.00
 -11 -2 2 0.29 0.00
 -11 -2 3 0.01 0.00
 -11 -2 4 -0.82 0.00
 -11 -2 5 -0.21 0.00
 -11 -2 6 -0.20 0.00
 -11 -2 7 1.08 0.00
 -11 -2 8 -0.21 0.00
 -11 -2 9 -0.36 0.00
 -11 -2 10 0.16 0.00
 11 1 0 -0.47 0.00
 -11 -1 1 0.14 0.00
 -11 -1 2 0.35 0.00
 -11 -1 3 0.51 0.00
 -11 -1 4 0.33 0.00
 -11 -1 5 -0.15 0.00
 -11 -1 6 -0.70 0.00
 -11 -1 7 -0.63 0.00
 -11 -1 8 -0.07 0.00
 -11 -1 9 0.52 0.00
 -11 -1 10 0.37 0.00
 -11 0 2 0.32 0.00
 -11 0 3 -0.58 0.00
 -11 0 4 -0.55 0.00
 -11 0 5 0.54 0.00
 -11 0 6 0.67 0.00
 -11 0 7 0.47 0.00
 -11 0 8 -0.16 0.00
 -11 0 9 -1.12 0.00
 -11 0 10 0.23 0.00
 -11 1 2 0.21 0.00
 -11 1 3 0.40 0.00
 -11 1 4 -0.08 0.00
 -11 1 5 -0.18 0.00
 -11 1 6 -0.47 0.00
 -11 1 7 -0.01 0.00
 -11 1 8 0.31 0.00
 -11 1 9 0.31 0.00
 -11 1 10 0.01 0.00
 -11 2 2 -0.53 0.00
 -11 2 3 -0.69 0.00
 -11 2 4 -0.26 0.00
 -11 2 5 0.32 0.00
 -11 2 6 -0.04 0.00
 -11 2 7 0.13 0.00
 -11 2 8 -0.12 0.00
 -11 2 9 -0.47 0.00
 -11 3 0 -0.01 0.00
 -11 3 1 0.51 0.00
 -11 3 2 0.65 0.00
 -11 3 3 0.60 0.00
 -11 3 4 -0.14 0.00
 -11 3 5 -0.51 0.00
 -11 3 6 0.10 0.00
 -11 3 7 0.69 0.00
 -11 3 8 0.23 0.00
 -11 3 9 -0.11 0.00
 -11 3 10 0.30 0.00
 -11 4 0 0.00 0.00
 -11 4 1 -1.00 0.00
 -11 4 2 -0.36 0.00
 -11 4 3 -0.13 0.00
 -11 4 4 0.09 0.00
 -11 4 5 0.43 0.00
 -11 4 6 -0.19 0.00
 -11 4 7 -0.76 0.00
 -11 4 8 0.34 0.00
 -11 4 9 -0.20 0.00
 -11 4 10 -0.16 0.00
 -11 5 0 0.39 0.00
 -11 5 1 0.15 0.00
 -11 5 2 0.15 0.00
 -11 5 3 -0.25 0.00
 -11 5 4 -0.26 0.00
 -11 5 5 -0.18 0.00
 -11 5 6 0.01 0.00
 -11 5 7 0.74 0.00
 -11 5 8 0.16 0.00
 -11 5 9 0.44 0.00
 -11 6 1 -0.65 0.00
 -11 6 2 -0.07 0.00
 -11 6 3 0.20 0.00
 -11 6 4 0.49 0.00
 -11 6 5 0.30 0.00
 -11 6 6 -0.15 0.00
 -11 6 7 -0.25 0.00
 -11 6 8 0.13 0.00
 -11 7 2 -0.16 0.00
 -11 7 3 -0.08 0.00
 -11 7 4 -0.68 0.00
 -11 7 5 -0.22 0.00
 -11 7 6 0.24 0.00
 -11 7 7 -0.32 0.00
 -10 -5 2 -0.31 0.00
 -10 -5 3 -0.16 0.00
 -10 -5 4 -0.12 0.00
 -10 -5 5 0.00 0.00
 -10 -5 6 0.10 0.00
 -10 -5 7 0.17 0.00
 -10 -5 8 -0.51 0.00
 -10 -5 9 0.12 0.00
 10 4 0 -0.46 0.00
 -10 -4 1 0.24 0.00
 -10 -4 2 0.52 0.00
 -10 -4 3 0.01 0.00
 -10 -4 4 -0.20 0.00
 -10 -4 5 -0.48 0.00
 -10 -4 6 0.04 0.00
 -10 -4 7 0.32 0.00
 -10 -4 8 0.27 0.00
 -10 -4 9 0.49 0.00
 -10 -4 10 -0.70 0.00
 -10 -3 3 0.03 0.00
 -10 -3 4 0.91 0.00
 -10 -3 5 0.40 0.00
 -10 -3 6 0.19 0.00
 -10 -3 7 -0.59 0.00
 -10 -3 8 -0.60 0.00
 -10 -3 9 -0.19 0.00
 -10 -3 10 0.44 0.00
 -10 -3 11 0.00 0.00
 -10 -2 4 -1.13 0.00
 -10 -2 5 -0.81 0.00
 -10 -2 6 0.02 0.00
 -10 -2 7 1.09 0.00
 -10 -2 8 0.00 0.00
 -10 -2 9 0.09 0.00
 -10 -2 10 -0.27 0.00
 -10 -2 11 -0.87 0.00
 -10 -1 4 0.71 0.00
 -10 -1 5 0.17 0.00
 -10 -1 6 -0.40 0.00
 -10 -1 7 -0.93 0.00
 -10 -1 8 -0.37 0.00
 -10 -1 9 0.63 0.00
 -10 -1 10 0.36 0.00
 -10 -1 11 0.64 0.00
 -10 0 4 -0.80 0.00
 -10 0 5 0.01 0.00
 -10 0 6 0.94 0.00
 -10 0 7 0.49 0.00
 -10 0 8 -0.04 0.00
 -10 0 9 -0.76 0.00
 -10 0 10 -0.16 0.00
 -10 0 11 -0.50 0.00
 -10 0 12 -0.12 0.00
 -10 1 4 0.49 0.00
 -10 1 5 -0.21 0.00
 -10 1 6 -0.53 0.00
 -10 1 7 -0.43 0.00
 -10 1 8 0.36 0.00
 -10 1 9 0.74 0.00
 -10 1 10 0.18 0.00
 -10 1 11 0.40 0.00
 -10 1 12 -0.19 0.00
 10 -2 2 -0.58 0.00
 10 -2 1 0.10 0.00
 -10 2 0 0.82 0.00
 -10 2 1 0.28 0.00
 -10 2 2 -0.72 0.00
 -10 2 3 -0.99 0.00
 -10 2 4 -0.43 0.00
 -10 2 5 0.25 0.00
 -10 2 6 0.58 0.00
 -10 2 7 0.37 0.00
 -10 2 8 -0.34 0.00
 -10 2 9 -0.51 0.00
 -10 2 10 0.09 0.00
 -10 2 11 0.18 0.00
 -10 2 12 0.02 0.00
 10 -3 2 0.30 0.00
 10 -3 1 -0.28 0.00
 -10 3 0 -0.45 0.00
 -10 3 1 0.41 0.00
 -10 3 2 0.48 0.00
 -10 3 3 1.08 0.00
 -10 3 4 0.09 0.00
 -10 3 5 -0.92 0.00
 -10 3 6 0.02 0.00
 -10 3 7 0.13 0.00
 -10 3 8 0.31 0.00
 -10 3 9 0.10 0.00
 -10 3 10 0.21 0.00
 -10 3 11 -0.03 0.00
 10 -4 2 -0.43 0.00
 10 -4 1 0.35 0.00
 -10 4 0 -0.01 0.00
 -10 4 1 -0.55 0.00
 -10 4 2 -0.45 0.00
 -10 4 3 -0.60 0.00
 -10 4 4 0.05 0.00
 -10 4 5 0.58 0.00
 -10 4 6 0.08 0.00
 -10 4 7 -0.60 0.00
 -10 4 8 0.08 0.00
 -10 4 9 -0.20 0.00
 -10 4 10 -0.12 0.00
 -10 4 11 -0.15 0.00
 10 -5 2 -0.46 0.00
 10 -5 1 -0.13 0.00
 -10 5 0 0.02 0.00
 -10 5 1 0.11 0.00
 -10 5 2 0.40 0.00
 -10 5 3 -0.04 0.00
 -10 5 4 -0.22 0.00
 -10 5 5 -0.44 0.00
 -10 5 6 -0.13 0.00
 -10 5 7 0.96 0.00
 -10 5 8 0.32 0.00
 -10 5 9 0.56 0.00
 -10 5 10 -0.17 0.00
 10 -6 2 0.05 0.00
 10 -6 1 0.73 0.00
 -10 6 0 0.15 0.00
 -10 6 1 -0.73 0.00
 -10 6 2 -0.19 0.00
 -10 6 3 0.06 0.00
 -10 6 4 0.55 0.00
 -10 6 5 0.54 0.00
 -10 6 6 -0.14 0.00
 -10 6 7 -0.27 0.00
 -10 6 8 0.05 0.00
 -10 6 9 -0.43 0.00
 -10 6 10 0.29 0.00
 10 -7 1 -0.45 0.00
 -10 7 0 -0.08 0.00
 -10 7 1 0.00 0.00
 -10 7 2 -0.05 0.00
 -10 7 3 -0.09 0.00
 -10 7 4 -0.77 0.00
 -10 7 5 -0.42 0.00
 -10 7 6 0.12 0.00
 -10 7 7 0.09 0.00
 -10 7 8 0.51 0.00
 -10 7 9 -0.15 0.00
 -10 8 0 -0.01 0.00
 -10 8 1 -0.25 0.00
 -10 8 2 0.18 0.00
 -10 8 3 -0.25 0.00
 -10 8 4 0.56 0.00
 -10 8 5 0.43 0.00
 -10 8 6 -0.38 0.00
 -10 8 7 0.09 0.00
 -10 9 2 0.09 0.00
 -10 9 3 -0.17 0.00
 -10 9 4 -0.11 0.00
 -10 9 5 0.08 0.00
 -9 -7 9 -0.21 0.00
 -9 -6 4 0.66 0.00
 -9 -6 5 -0.09 0.00
 -9 -6 6 -0.28 0.00
 -9 -6 7 -0.41 0.00
 -9 -6 8 -0.08 0.00
 -9 -6 9 -0.01 0.00
 -9 -6 10 0.22 0.00
 -9 -5 1 0.18 0.00
 -9 -5 2 -0.36 0.00
 -9 -5 3 -0.35 0.00
 -9 -5 4 -0.59 0.00
 -9 -5 5 -0.05 0.00
 -9 -5 6 0.37 0.00
 -9 -5 7 0.13 0.00
 -9 -5 8 -0.17 0.00
 -9 -5 9 -0.12 0.00
 -9 -5 10 -0.49 0.00
 -9 -4 3 0.38 0.00
 -9 -4 4 0.00 0.00
 -9 -4 5 -0.46 0.00
 -9 -4 6 -0.41 0.00
 -9 -4 7 -0.16 0.00
 -9 -4 8 0.61 0.00
 -9 -4 9 0.41 0.00
 -9 -4 10 -0.39 0.00
 -9 -4 11 -0.09 0.00
 -9 -3 4 0.60 0.00
 -9 -3 5 0.72 0.00
 -9 -3 6 0.49 0.00
 -9 -3 7 -0.18 0.00
 -9 -3 8 -0.56 0.00
 -9 -3 9 -0.67 0.00
 -9 -3 10 0.46 0.00
 -9 -3 11 0.00 0.00
 -9 -3 12 -0.10 0.00
 -9 -2 5 -1.14 0.00
 -9 -2 6 -0.15 0.00
 -9 -2 7 0.86 0.00
 -9 -2 8 0.37 0.00
 -9 -2 9 0.42 0.00
 -9 -2 10 -0.37 0.00
 -9 -2 11 -0.92 0.00
 -9 -2 12 -0.02 0.00
 -9 -1 5 1.15 0.00
 -9 -1 6 -0.17 0.00
 -9 -1 7 -0.83 0.00
 -9 -1 8 -0.61 0.00
 -9 -1 9 0.15 0.00
 -9 -1 10 0.41 0.00
 -9 -1 11 0.68 0.00
 -9 -1 12 -0.19 0.00
 -9 0 5 -0.62 0.00
 -9 0 6 0.38 0.00
 -9 0 7 0.63 0.00
 -9 0 8 0.30 0.00
 -9 0 9 -0.34 0.00
 -9 0 10 -0.27 0.00
 -9 0 11 -0.76 0.00
 -9 0 12 0.05 0.00
 -9 1 2 -0.61 0.00
 -9 1 3 0.21 0.00
 -9 1 4 1.14 0.00
 -9 1 5 0.35 0.00
 -9 1 6 -0.73 0.00
 -9 1 7 -0.63 0.00
 -9 1 8 0.23 0.00
 -9 1 9 0.76 0.00
 -9 1 10 0.50 0.00
 -9 1 11 0.41 0.00
 -9 1 12 -0.31 0.00
 -9 2 1 0.78 0.00
 -9 2 2 -0.17 0.00
 -9 2 3 -1.02 0.00
 -9 2 4 -0.97 0.00
 -9 2 5 0.06 0.00
 -9 2 6 0.85 0.00
 -9 2 7 0.89 0.00
 -9 2 8 -0.37 0.00
 -9 2 9 -0.53 0.00
 -9 2 10 -0.10 0.00
 -9 2 11 0.11 0.00
 -9 2 12 0.05 0.00
 -9 3 0 -0.54 0.00
 -9 3 1 -0.32 0.00
 -9 3 2 0.26 0.00
 -9 3 3 1.31 0.00
 -9 3 4 0.55 0.00
 -9 3 5 -0.65 0.00
 -9 3 6 -0.57 0.00
 -9 3 7 -0.65 0.00
 -9 3 8 0.21 0.00
 -9 3 9 0.23 0.00
 -9 3 10 0.20 0.00
 -9 3 11 0.08 0.00
 -9 3 12 -0.24 0.00
 9 -4 2 -0.35 0.00
 9 -4 1 0.37 0.00
 -9 4 0 0.31 0.00
 -9 4 1 -0.08 0.00
 -9 4 2 -0.45 0.00
 -9 4 3 -1.10 0.00
 -9 4 4 -0.27 0.00
 -9 4 5 0.75 0.00
 -9 4 6 0.30 0.00
 -9 4 7 0.13 0.00
 -9 4 8 -0.08 0.00
 -9 4 9 -0.17 0.00
 -9 4 10 -0.11 0.00
 -9 4 11 -0.18 0.00
 -9 4 12 0.60 0.00
 9 -5 3 0.03 0.00
 9 -5 2 -0.35 0.00
 9 -5 1 -0.41 0.00
 -9 5 0 -0.25 0.00
 -9 5 1 -0.07 0.00
 -9 5 2 0.51 0.00
 -9 5 3 0.40 0.00
 -9 5 4 -0.18 0.00
 -9 5 5 -0.50 0.00
 -9 5 6 -0.56 0.00
 -9 5 7 0.86 0.00
 -9 5 8 0.43 0.00
 -9 5 9 0.51 0.00
 -9 5 10 -0.16 0.00
 -9 5 11 -0.45 0.00
 9 -6 3 -0.02 0.00
 9 -6 2 0.16 0.00
 9 -6 1 0.89 0.00
 -9 6 0 0.17 0.00
 -9 6 1 -0.55 0.00
 -9 6 2 -0.46 0.00
 -9 6 3 -0.05 0.00
 -9 6 4 0.37 0.00
 -9 6 5 0.69 0.00
 -9 6 6 0.09 0.00
 -9 6 7 -0.21 0.00
 -9 6 8 0.01 0.00
 -9 6 9 -0.55 0.00
 -9 6 10 0.18 0.00
 -9 6 11 0.25 0.00
 9 -7 3 -0.28 0.00
 9 -7 2 -0.26 0.00
 9 -7 1 -0.67 0.00
 -9 7 0 -0.27 0.00
 -9 7 1 0.29 0.00
 -9 7 2 0.04 0.00
 -9 7 3 0.11 0.00
 -9 7 4 -0.65 0.00
 -9 7 5 -0.72 0.00
 -9 7 6 0.22 0.00
 -9 7 7 0.24 0.00
 -9 7 8 0.56 0.00
 -9 7 9 0.25 0.00
 -9 7 10 -0.43 0.00
 9 -8 2 0.13 0.00
 9 -8 1 0.13 0.00
 -9 8 0 -0.13 0.00
 -9 8 1 -0.24 0.00
 -9 8 2 -0.02 0.00
 -9 8 3 -0.13 0.00
 -9 8 4 0.61 0.00
 -9 8 5 0.35 0.00
 -9 8 6 -0.19 0.00
 -9 8 7 -0.05 0.00
 -9 8 8 0.39 0.00
 9 -9 1 0.23 0.00
 -9 9 0 -0.11 0.00
 -9 9 1 0.34 0.00
 -9 9 2 0.06 0.00
 -9 9 3 -0.26 0.00
 -9 9 4 -0.26 0.00
 -9 9 5 -0.08 0.00
 -9 9 6 0.50 0.00
 -9 9 7 0.76 0.00
 -9 10 1 -0.14 0.00
 -9 10 2 0.21 0.00
 -9 10 3 -0.16 0.00
 -9 10 4 0.15 0.00
 -9 10 5 0.09 0.00
 -9 10 6 -0.40 0.00
 -8 -8 8 -0.11 0.00
 -8 -8 9 -0.02 0.00
 -8 -7 9 -0.03 0.00
 -8 -7 10 -0.21 0.00
 -8 -6 3 0.74 0.00
 -8 -6 4 0.73 0.00
 -8 -6 5 0.13 0.00
 -8 -6 6 -0.33 0.00
 -8 -6 7 -0.46 0.00
 -8 -6 8 -0.68 0.00
 -8 -6 9 -0.15 0.00
 -8 -6 10 0.19 0.00
 -8 -6 11 0.14 0.00
 -8 -5 3 -0.67 0.00
 -8 -5 4 -0.97 0.00
 -8 -5 5 -0.17 0.00
 -8 -5 6 0.24 0.00
 -8 -5 7 0.54 0.00
 -8 -5 8 -0.02 0.00
 -8 -5 9 -0.06 0.00
 -8 -5 10 -0.68 0.00
 -8 -5 11 0.31 0.00
 -8 -4 4 0.63 0.00
 -8 -4 5 -0.21 0.00
 -8 -4 6 -0.89 0.00
 -8 -4 7 -0.44 0.00
 -8 -4 8 0.40 0.00
 -8 -4 9 0.37 0.00
 -8 -4 10 -0.06 0.00
 -8 -4 11 -0.02 0.00
 -8 -4 12 -0.20 0.00
 -8 -3 5 0.58 0.00
 -8 -3 6 0.83 0.00
 -8 -3 7 0.30 0.00
 -8 -3 8 -0.26 0.00
 -8 -3 9 -0.89 0.00
 -8 -3 10 0.13 0.00
 -8 -3 11 0.23 0.00
 -8 -3 12 -0.04 0.00
 -8 -2 5 -1.33 0.00
 -8 -2 6 -0.39 0.00
 -8 -2 7 0.24 0.00
 -8 -2 8 0.57 0.00
 -8 -2 9 0.55 0.00
 -8 -2 10 -0.32 0.00
 -8 -2 11 -0.59 0.00
 -8 -2 12 -0.30 0.00
 -8 -2 13 0.06 0.00
 -8 -1 5 1.92 0.00
 -8 -1 6 0.53 0.00
 -8 -1 7 -0.60 0.00
 -8 -1 8 -0.55 0.00
 -8 -1 9 -0.59 0.00
 -8 -1 10 0.24 0.00
 -8 -1 11 0.72 0.00
 -8 -1 12 -0.06 0.00
 -8 -1 13 -0.01 0.00
 -8 0 4 -0.98 0.00
 -8 0 5 -1.67 0.00
 -8 0 6 -0.43 0.00
 -8 0 7 0.44 0.00
 -8 0 8 0.76 0.00
 -8 0 9 0.05 0.00
 -8 0 10 -0.28 0.00
 -8 0 11 -0.69 0.00
 -8 0 12 0.01 0.00
 -8 0 13 0.42 0.00
 -8 1 2 -1.79 0.00
 -8 1 3 -0.65 0.00
 -8 1 4 1.37 0.00
 -8 1 5 0.99 0.00
 -8 1 6 -0.17 0.00
 -8 1 7 -0.87 0.00
 -8 1 8 0.04 0.00
 -8 1 9 0.43 0.00
 -8 1 10 0.50 0.00
 -8 1 11 0.53 0.00
 -8 1 12 -0.40 0.00
 -8 1 13 0.14 0.00
 -8 2 0 0.75 0.00
 -8 2 1 1.56 0.00
 -8 2 2 0.53 0.00
 -8 2 3 -0.17 0.00
 -8 2 4 -1.71 0.00
 -8 2 5 -0.63 0.00
 -8 2 6 0.95 0.00
 -8 2 7 1.09 0.00
 -8 2 8 0.02 0.00
 -8 2 9 -0.44 0.00
 -8 2 10 -0.39 0.00
 -8 2 11 0.16 0.00
 -8 2 12 -0.03 0.00
 -8 2 13 -0.25 0.00
 8 -3 1 0.12 0.00
 -8 3 0 -0.96 0.00
 -8 3 1 -0.87 0.00
 -8 3 2 -0.51 0.00
 -8 3 3 1.31 0.00
 -8 3 4 1.23 0.00
 -8 3 5 0.02 0.00
 -8 3 6 -0.78 0.00
 -8 3 7 -1.62 0.00
 -8 3 8 0.02 0.00
 -8 3 9 0.17 0.00
 -8 3 10 0.23 0.00
 -8 3 11 0.35 0.00
 -8 3 12 -0.32 0.00
 -8 3 13 0.16 0.00
 8 -4 4 -0.37 0.00
 8 -4 3 -0.49 0.00
 8 -4 2 -0.78 0.00
 8 -4 1 0.42 0.00
 -8 4 0 0.41 0.00
 -8 4 1 0.69 0.00
 -8 4 2 -0.61 0.00
 -8 4 3 -1.34 0.00
 -8 4 4 -0.70 0.00
 -8 4 5 0.26 0.00
 -8 4 6 0.71 0.00
 -8 4 7 0.82 0.00
 -8 4 8 0.06 0.00
 -8 4 9 -0.17 0.00
 -8 4 10 -0.17 0.00
 -8 4 11 -0.15 0.00
 -8 4 12 0.52 0.00
 8 -5 5 -0.61 0.00
 8 -5 4 0.29 0.00
 8 -5 3 0.31 0.00
 8 -5 2 -0.05 0.00
 8 -5 1 -0.41 0.00
 -8 5 0 -0.58 0.00
 -8 5 1 -0.48 0.00
 -8 5 2 0.47 0.00
 -8 5 3 0.71 0.00
 -8 5 4 0.13 0.00
 -8 5 5 -0.49 0.00
 -8 5 6 -0.81 0.00
 -8 5 7 0.44 0.00
 -8 5 8 0.40 0.00
 -8 5 9 0.28 0.00
 -8 5 10 0.07 0.00
 -8 5 11 -0.31 0.00
 -8 5 12 -0.17 0.00
 8 -6 4 -0.32 0.00
 8 -6 3 -0.27 0.00
 8 -6 2 0.07 0.00
 8 -6 1 0.83 0.00
 -8 6 0 0.44 0.00
 -8 6 1 -0.31 0.00
 -8 6 2 -0.46 0.00
 -8 6 3 -0.38 0.00
 -8 6 4 0.16 0.00
 -8 6 5 0.59 0.00
 -8 6 6 0.33 0.00
 -8 6 7 0.06 0.00
 -8 6 8 -0.11 0.00
 -8 6 9 -0.46 0.00
 -8 6 10 0.10 0.00
 -8 6 11 0.29 0.00
 -8 6 12 -0.38 0.00
 8 -7 4 0.08 0.00
 8 -7 3 -0.18 0.00
 8 -7 2 -0.15 0.00
 8 -7 1 -0.94 0.00
 -8 7 0 -0.36 0.00
 -8 7 1 0.27 0.00
 -8 7 2 0.42 0.00
 -8 7 3 0.27 0.00
 -8 7 4 -0.39 0.00
 -8 7 5 -0.67 0.00
 -8 7 6 0.09 0.00
 -8 7 7 0.42 0.00
 -8 7 8 0.30 0.00
 -8 7 9 0.58 0.00
 -8 7 10 -0.17 0.00
 -8 7 11 0.16 0.00
 8 -8 4 -0.34 0.00
 8 -8 3 -0.04 0.00
 8 -8 2 0.29 0.00
 8 -8 1 0.18 0.00
 -8 8 0 0.10 0.00
 -8 8 1 -0.38 0.00
 -8 8 2 -0.16 0.00
 -8 8 3 -0.16 0.00
 -8 8 4 0.39 0.00
 -8 8 5 0.42 0.00
 -8 8 6 -0.26 0.00
 -8 8 7 0.02 0.00
 -8 8 8 0.06 0.00
 -8 8 9 -0.60 0.00
 -8 8 10 -0.27 0.00
 8 -9 3 0.09 0.00
 8 -9 2 0.09 0.00
 8 -9 1 -0.02 0.00
 -8 9 0 0.05 0.00
 -8 9 1 0.25 0.00
 -8 9 2 0.32 0.00
 -8 9 3 -0.24 0.00
 -8 9 4 -0.41 0.00
 -8 9 5 0.15 0.00
 -8 9 6 0.36 0.00
 -8 9 7 0.97 0.00
 -8 9 8 -0.38 0.00
 8 -10 2 0.43 0.00
 8 -10 1 -0.13 0.00
 -8 10 0 -0.31 0.00
 -8 10 1 -0.21 0.00
 -8 10 2 -0.09 0.00
 -8 10 3 -0.37 0.00
 -8 10 4 0.17 0.00
 -8 10 6 -0.03 0.00
 -8 10 7 0.19 0.00
 -8 11 2 0.40 0.00
 -8 11 3 0.05 0.00
 -8 11 4 0.13 0.00
 -8 11 5 0.38 0.00
 -8 11 6 0.34 0.00
 -7 -9 7 -0.24 0.00
 -7 -9 8 -0.03 0.00
 -7 -8 8 -0.18 0.00
 -7 -8 9 -0.22 0.00
 -7 -8 10 0.22 0.00
 -7 -7 9 0.07 0.00
 -7 -7 10 -0.15 0.00
 -7 -7 11 0.06 0.00
 -7 -6 5 0.33 0.00
 -7 -6 6 0.01 0.00
 -7 -6 7 -0.53 0.00
 -7 -6 8 -1.01 0.00
 -7 -6 9 -0.56 0.00
 -7 -6 10 0.31 0.00
 -7 -6 11 0.15 0.00
 -7 -5 4 -1.22 0.00
 -7 -5 5 -0.55 0.00
 -7 -5 6 0.02 0.00
 -7 -5 7 0.59 0.00
 -7 -5 8 0.25 0.00
 -7 -5 9 -0.04 0.00
 -7 -5 10 -0.47 0.00
 -7 -5 11 -0.07 0.00
 -7 -5 12 0.16 0.00
 -7 -4 4 1.51 0.00
 -7 -4 5 0.31 0.00
 -7 -4 6 -0.89 0.00
 -7 -4 7 -0.60 0.00
 -7 -4 8 -0.02 0.00
 -7 -4 9 0.18 0.00
 -7 -4 10 0.39 0.00
 -7 -4 11 -0.08 0.00
 -7 -4 12 -0.14 0.00
 -7 -3 5 -0.05 0.00
 -7 -3 6 0.85 0.00
 -7 -3 7 0.83 0.00
 -7 -3 8 0.07 0.00
 -7 -3 9 -0.75 0.00
 -7 -3 10 -0.06 0.00
 -7 -3 11 0.05 0.00
 -7 -3 12 0.23 0.00
 -7 -3 13 -0.06 0.00
 -7 -2 5 -0.84 0.00
 -7 -2 6 -1.02 0.00
 -7 -2 7 -0.16 0.00
 -7 -2 8 0.09 0.00
 -7 -2 9 0.49 0.00
 -7 -2 10 0.13 0.00
 -7 -2 11 -0.47 0.00
 -7 -2 12 -0.26 0.00
 -7 -2 13 -0.08 0.00
 -7 -1 5 2.08 0.00
 -7 -1 6 1.23 0.00
 -7 -1 7 0.16 0.00
 -7 -1 8 -0.66 0.00
 -7 -1 9 -0.99 0.00
 -7 -1 10 0.21 0.00
 -7 -1 11 0.29 0.00
 -7 -1 12 0.39 0.00
 -7 -1 13 0.02 0.00
 -7 0 5 -2.42 0.00
 -7 0 6 -1.50 0.00
 -7 0 7 0.30 0.00
 -7 0 8 0.64 0.00
 -7 0 9 0.45 0.00
 -7 0 10 -0.02 0.00
 -7 0 11 -0.75 0.00
 -7 0 12 0.05 0.00
 -7 0 13 0.17 0.00
 -7 1 5 1.36 0.00
 -7 1 6 0.75 0.00
 -7 1 7 -0.63 0.00
 -7 1 8 -0.50 0.00
 -7 1 9 0.03 0.00
 -7 1 10 0.45 0.00
 -7 1 11 0.33 0.00
 -7 1 12 -0.13 0.00
 -7 1 13 -0.03 0.00
 -7 2 5 -1.40 0.00
 -7 2 6 0.43 0.00
 -7 2 7 1.20 0.00
 -7 2 8 0.30 0.00
 -7 2 9 -0.10 0.00
 -7 2 10 -0.42 0.00
 -7 2 11 -0.10 0.00
 -7 2 12 0.00 0.00
 -7 2 13 -0.16 0.00
 7 -3 4 -0.70 0.00
 7 -3 3 1.07 0.00
 7 -3 2 1.62 0.00
 7 -3 1 0.75 0.00
 -7 3 0 -0.84 0.00
 -7 3 1 -1.68 0.00
 -7 3 2 -1.18 0.00
 -7 3 3 0.39 0.00
 -7 3 4 1.94 0.00
 -7 3 5 1.03 0.00
 -7 3 6 -0.67 0.00
 -7 3 7 -1.93 0.00
 -7 3 8 -0.64 0.00
 -7 3 9 0.13 0.00
 -7 3 10 0.33 0.00
 -7 3 11 0.44 0.00
 -7 3 12 -0.19 0.00
 -7 3 13 0.11 0.00
 7 -4 6 0.19 0.00
 7 -4 5 0.58 0.00
 7 -4 4 0.05 0.00
 7 -4 3 -0.75 0.00
 7 -4 2 -1.38 0.00
 7 -4 1 -0.10 0.00
 -7 4 0 0.50 0.00
 -7 4 1 1.20 0.00
 -7 4 2 -0.40 0.00
 -7 4 3 -1.23 0.00
 -7 4 4 -1.23 0.00
 -7 4 5 -0.54 0.00
 -7 4 6 0.64 0.00
 -7 4 7 1.45 0.00
 -7 4 8 0.02 0.00
 -7 4 9 0.06 0.00
 -7 4 10 -0.25 0.00
 -7 4 11 -0.24 0.00
 -7 4 12 0.30 0.00
 -7 4 13 0.11 0.00
 7 -5 6 -0.82 0.00
 7 -5 5 -0.79 0.00
 7 -5 4 0.01 0.00
 7 -5 3 0.46 0.00
 7 -5 2 0.62 0.00
 7 -5 1 -0.12 0.00
 -7 5 0 -0.73 0.00
 -7 5 1 -1.30 0.00
 -7 5 2 0.11 0.00
 -7 5 3 0.86 0.00
 -7 5 4 0.45 0.00
 -7 5 5 -0.03 0.00
 -7 5 6 -0.88 0.00
 -7 5 7 0.29 0.00
 -7 5 8 -0.07 0.00
 -7 5 9 0.30 0.00
 -7 5 10 0.29 0.00
 -7 5 11 -0.20 0.00
 -7 5 12 -0.38 0.00
 7 -6 6 0.19 0.00
 7 -6 5 0.19 0.00
 7 -6 4 -0.33 0.00
 7 -6 3 -0.46 0.00
 7 -6 2 -0.27 0.00
 7 -6 1 0.53 0.00
 -7 6 0 0.78 0.00
 -7 6 1 0.37 0.00
 -7 6 2 -0.38 0.00
 -7 6 3 -0.60 0.00
 -7 6 4 -0.15 0.00
 -7 6 5 0.31 0.00
 -7 6 6 0.47 0.00
 -7 6 7 0.37 0.00
 -7 6 8 -0.43 0.00
 -7 6 9 0.09 0.00
 -7 6 10 -0.23 0.00
 -7 6 11 0.27 0.00
 -7 6 12 -0.22 0.00
 7 -7 6 -0.12 0.00
 7 -7 5 0.18 0.00
 7 -7 4 0.23 0.00
 7 -7 3 0.12 0.00
 7 -7 2 -0.01 0.00
 7 -7 1 -0.90 0.00
 -7 7 0 -0.69 0.00
 -7 7 1 0.23 0.00
 -7 7 2 0.48 0.00
 -7 7 3 0.50 0.00
 -7 7 4 0.01 0.00
 -7 7 5 -0.56 0.00
 -7 7 6 0.15 0.00
 -7 7 7 0.27 0.00
 -7 7 8 -0.14 0.00
 -7 7 9 0.97 0.00
 -7 7 10 -0.10 0.00
 -7 7 11 0.23 0.00
 7 -8 5 -0.44 0.00
 7 -8 4 -0.43 0.00
 7 -8 3 -0.20 0.00
 7 -8 2 0.28 0.00
 7 -8 1 0.34 0.00
 -7 8 0 0.26 0.00
 -7 8 1 -0.21 0.00
 -7 8 2 -0.39 0.00
 -7 8 3 -0.37 0.00
 -7 8 4 0.30 0.00
 -7 8 5 0.08 0.00
 -7 8 6 0.07 0.00
 -7 8 7 -0.14 0.00
 -7 8 8 -0.25 0.00
 -7 8 9 -0.32 0.00
 -7 8 10 -0.34 0.00
 -7 8 11 -0.01 0.00
 7 -9 4 0.37 0.00
 7 -9 3 0.15 0.00
 7 -9 2 0.12 0.00
 7 -9 1 -0.24 0.00
 -7 9 0 0.08 0.00
 -7 9 1 0.16 0.00
 -7 9 2 0.61 0.00
 -7 9 3 -0.18 0.00
 -7 9 4 -0.09 0.00
 -7 9 5 -0.06 0.00
 -7 9 6 0.51 0.00
 -7 9 7 0.70 0.00
 -7 9 8 -0.49 0.00
 -7 9 9 0.13 0.00
 -7 9 10 0.27 0.00
 7 -10 3 0.05 0.00
 7 -10 2 0.58 0.00
 7 -10 1 -0.15 0.00
 -7 10 0 -0.10 0.00
 -7 10 1 -0.15 0.00
 -7 10 2 -0.44 0.00
 -7 10 3 -0.53 0.00
 -7 10 4 0.44 0.00
 -7 10 5 -0.02 0.00
 -7 10 6 0.68 0.00
 -7 10 7 0.17 0.00
 -7 10 8 -0.96 0.00
 7 -11 1 0.12 0.00
 -7 11 0 -0.01 0.00
 -7 11 1 0.42 0.00
 -7 11 2 0.33 0.00
 -7 11 3 -0.01 0.00
 -7 11 4 0.15 0.00
 -7 11 5 0.08 0.00
 -7 11 6 0.64 0.00
 -7 11 7 0.32 0.00
 -7 12 1 0.17 0.00
 -7 12 2 -0.34 0.00
 -7 12 3 -0.04 0.00
 -7 12 4 0.77 0.00
 -7 12 5 -0.52 0.00
 -6 -9 7 -0.31 0.00
 -6 -9 8 -0.03 0.00
 -6 -9 9 0.35 0.00
 -6 -8 8 -0.24 0.00
 -6 -8 9 -0.15 0.00
 -6 -8 10 -0.03 0.00
 -6 -7 9 0.41 0.00
 -6 -7 10 -0.23 0.00
 -6 -7 11 0.12 0.00
 -6 -6 6 0.52 0.00
 -6 -6 7 -0.41 0.00
 -6 -6 8 -1.14 0.00
 -6 -6 9 -0.59 0.00
 -6 -6 10 -0.04 0.00
 -6 -6 11 0.41 0.00
 -6 -6 12 -0.11 0.00
 -6 -5 4 -1.27 0.00
 -6 -5 5 -1.00 0.00
 -6 -5 6 -0.32 0.00
 -6 -5 7 0.12 0.00
 -6 -5 8 0.47 0.00
 -6 -5 9 0.38 0.00
 -6 -5 10 -0.51 0.00
 -6 -5 11 -0.03 0.00
 -6 -5 12 -0.27 0.00
 -6 -4 4 2.16 0.00
 -6 -4 5 1.12 0.00
 -6 -4 6 -0.20 0.00
 -6 -4 7 -0.81 0.00
 -6 -4 8 -0.25 0.00
 -6 -4 9 0.10 0.00
 -6 -4 10 0.17 0.00
 -6 -4 11 0.36 0.00
 -6 -4 12 -0.35 0.00
 -6 -4 13 0.16 0.00
 -6 -3 6 0.56 0.00
 -6 -3 7 0.78 0.00
 -6 -3 8 0.66 0.00
 -6 -3 9 -0.35 0.00
 -6 -3 10 -0.41 0.00
 -6 -3 11 0.07 0.00
 -6 -3 12 0.14 0.00
 -6 -3 13 0.08 0.00
 -6 -2 6 -1.36 0.00
 -6 -2 7 -0.84 0.00
 -6 -2 8 -0.23 0.00
 -6 -2 9 0.18 0.00
 -6 -2 10 0.47 0.00
 -6 -2 11 -0.05 0.00
 -6 -2 12 -0.27 0.00
 -6 -2 13 -0.21 0.00
 -6 -1 7 0.50 0.00
 -6 -1 8 -0.24 0.00
 -6 -1 9 -1.06 0.00
 -6 -1 10 0.05 0.00
 -6 -1 11 0.02 0.00
 -6 -1 12 0.57 0.00
 -6 -1 13 -0.06 0.00
 -6 0 7 -0.48 0.00
 -6 0 8 0.54 0.00
 -6 0 9 0.53 0.00
 -6 0 10 0.17 0.00
 -6 0 11 -0.51 0.00
 -6 0 12 -0.14 0.00
 -6 0 13 -0.34 0.00
 -6 0 14 0.26 0.00
 -6 1 7 -0.34 0.00
 -6 1 8 -0.46 0.00
 -6 1 9 -0.50 0.00
 -6 1 10 0.25 0.00
 -6 1 11 0.30 0.00
 -6 1 12 0.13 0.00
 -6 1 13 -0.16 0.00
 -6 2 7 0.55 0.00
 -6 2 8 0.93 0.00
 -6 2 9 0.13 0.00
 -6 2 10 -0.28 0.00
 -6 2 11 -0.27 0.00
 -6 2 12 -0.17 0.00
 -6 2 13 -0.10 0.00
 6 -3 7 0.04 0.00
 -6 3 7 -2.17 0.00
 -6 3 8 -0.75 0.00
 -6 3 9 -0.36 0.00
 -6 3 10 0.33 0.00
 -6 3 11 0.61 0.00
 -6 3 12 -0.07 0.00
 -6 3 13 0.05 0.00
 6 -4 7 -0.54 0.00
 6 -4 1 -0.64 0.00
 -6 4 6 0.54 0.00
 -6 4 7 0.96 0.00
 -6 4 8 0.73 0.00
 -6 4 9 -0.06 0.00
 -6 4 10 -0.14 0.00
 -6 4 11 -0.28 0.00
 -6 4 12 -0.17 0.00
 -6 4 13 0.24 0.00
 6 -5 7 -0.04 0.00
 6 -5 2 1.13 0.00
 6 -5 1 0.85 0.00
 -6 5 0 -0.58 0.00
 -6 5 1 -2.41 0.00
 -6 5 4 0.92 0.00
 -6 5 5 0.49 0.00
 -6 5 6 -0.16 0.00
 -6 5 7 -0.30 0.00
 -6 5 8 0.09 0.00
 -6 5 9 -0.10 0.00
 -6 5 10 0.53 0.00
 -6 5 11 -0.07 0.00
 -6 5 12 -0.40 0.00
 6 -6 7 0.19 0.00
 6 -6 6 0.49 0.00
 6 -6 3 -0.53 0.00
 6 -6 2 -0.74 0.00
 6 -6 1 -0.07 0.00
 -6 6 0 1.12 0.00
 -6 6 1 1.17 0.00
 -6 6 2 0.13 0.00
 -6 6 3 -0.84 0.00
 -6 6 4 -0.32 0.00
 -6 6 5 -0.27 0.00
 -6 6 6 0.77 0.00
 -6 6 7 -0.06 0.00
 -6 6 8 0.02 0.00
 -6 6 9 0.16 0.00
 -6 6 10 -0.36 0.00
 -6 6 11 0.17 0.00
 -6 6 12 -0.10 0.00
 6 -7 7 -0.35 0.00
 6 -7 6 -0.25 0.00
 6 -7 5 -0.16 0.00
 6 -7 4 0.48 0.00
 6 -7 3 0.28 0.00
 6 -7 2 0.27 0.00
 6 -7 1 -0.62 0.00
 -6 7 0 -0.89 0.00
 -6 7 1 -0.26 0.00
 -6 7 2 0.30 0.00
 -6 7 3 0.55 0.00
 -6 7 4 0.44 0.00
 -6 7 5 -0.33 0.00
 -6 7 6 0.31 0.00
 -6 7 7 -0.41 0.00
 -6 7 8 0.01 0.00
 -6 7 9 0.65 0.00
 -6 7 10 0.21 0.00
 -6 7 11 0.29 0.00
 -6 7 12 -0.75 0.00
 6 -8 6 0.24 0.00
 6 -8 5 -0.36 0.00
 6 -8 4 -0.33 0.00
 6 -8 3 -0.44 0.00
 6 -8 2 0.15 0.00
 6 -8 1 0.39 0.00
 -6 8 0 0.46 0.00
 -6 8 1 0.02 0.00
 -6 8 2 -0.34 0.00
 -6 8 3 -0.60 0.00
 -6 8 4 -0.03 0.00
 -6 8 5 -0.02 0.00
 -6 8 6 0.38 0.00
 -6 8 7 -0.44 0.00
 -6 8 8 -0.07 0.00
 -6 8 9 -0.41 0.00
 -6 8 10 -0.12 0.00
 -6 8 11 0.00 0.00
 6 -9 6 -0.30 0.00
 6 -9 5 0.07 0.00
 6 -9 4 0.31 0.00
 6 -9 3 0.26 0.00
 6 -9 2 0.08 0.00
 6 -9 1 -0.33 0.00
 -6 9 0 0.10 0.00
 -6 9 1 -0.02 0.00
 -6 9 2 0.81 0.00
 -6 9 3 0.19 0.00
 -6 9 4 -0.06 0.00
 -6 9 5 0.01 0.00
 -6 9 6 0.31 0.00
 -6 9 7 0.12 0.00
 -6 9 8 -0.16 0.00
 -6 9 9 -0.05 0.00
 -6 9 10 0.16 0.00
 6 -10 4 -0.32 0.00
 6 -10 3 0.06 0.00
 6 -10 2 0.46 0.00
 6 -10 1 -0.02 0.00
 -6 10 0 0.18 0.00
 -6 10 1 -0.10 0.00
 -6 10 2 -0.69 0.00
 -6 10 3 -0.34 0.00
 -6 10 4 0.22 0.00
 -6 10 5 0.11 0.00
 -6 10 6 0.98 0.00
 -6 10 7 0.06 0.00
 -6 10 8 -0.38 0.00
 -6 10 9 -0.46 0.00
 6 -11 3 -0.39 0.00
 6 -11 2 0.04 0.00
 6 -11 1 0.10 0.00
 -6 11 0 -0.03 0.00
 -6 11 1 0.26 0.00
 -6 11 2 0.22 0.00
 -6 11 3 0.04 0.00
 -6 11 4 -0.23 0.00
 -6 11 5 0.01 0.00
 -6 11 6 0.83 0.00
 -6 11 7 0.18 0.00
 6 -12 1 -0.03 0.00
 -6 12 0 -0.14 0.00
 -6 12 1 0.42 0.00
 -6 12 2 -0.23 0.00
 -6 12 3 0.30 0.00
 -6 12 4 0.61 0.00
 -6 12 5 -0.71 0.00
 -6 13 2 -0.37 0.00
 -5 -10 8 0.25 0.00
 -5 -9 7 -0.30 0.00
 -5 -9 8 -0.02 0.00
 -5 -9 9 0.11 0.00
 -5 -9 10 0.19 0.00
 -5 -8 8 0.03 0.00
 -5 -8 9 -0.11 0.00
 -5 -8 10 -0.08 0.00
 -5 -8 11 -0.01 0.00
 -5 -7 9 0.28 0.00
 -5 -7 10 0.11 0.00
 -5 -7 11 -0.05 0.00
 -5 -7 12 -0.25 0.00
 -5 -6 7 0.11 0.00
 -5 -6 8 -0.83 0.00
 -5 -6 9 -0.71 0.00
 -5 -6 10 -0.04 0.00
 -5 -6 11 0.11 0.00
 -5 -6 12 0.00 0.00
 -5 -5 5 -0.94 0.00
 -5 -5 6 -1.24 0.00
 -5 -5 7 -0.18 0.00
 -5 -5 8 0.56 0.00
 -5 -5 9 0.54 0.00
 -5 -5 10 0.00 0.00
 -5 -5 11 -0.28 0.00
 -5 -5 12 -0.39 0.00
 -5 -4 6 0.20 0.00
 -5 -4 7 -0.20 0.00
 -5 -4 8 -0.57 0.00
 -5 -4 9 -0.09 0.00
 -5 -4 10 0.03 0.00
 -5 -4 11 0.32 0.00
 -5 -4 12 -0.20 0.00
 -5 -4 13 0.18 0.00
 -5 -3 7 1.19 0.00
 -5 -3 8 0.69 0.00
 -5 -3 9 0.21 0.00
 -5 -3 10 -0.41 0.00
 -5 -3 11 -0.22 0.00
 -5 -3 12 0.14 0.00
 -5 -3 13 0.24 0.00
 -5 -2 8 -0.92 0.00
 -5 -2 9 0.07 0.00
 -5 -2 10 0.60 0.00
 -5 -2 11 0.24 0.00
 -5 -2 12 -0.14 0.00
 -5 -2 13 -0.13 0.00
 5 1 6 0.90 0.00
 5 1 5 0.85 0.00
 5 1 4 0.27 0.00
 -5 -1 8 -0.05 0.00
 -5 -1 9 -0.44 0.00
 -5 -1 10 -0.24 0.00
 -5 -1 11 -0.14 0.00
 -5 -1 12 0.46 0.00
 -5 -1 13 -0.03 0.00
 -5 -1 14 0.28 0.00
 5 0 6 -0.66 0.00
 5 0 5 -0.84 0.00
 5 0 4 0.58 0.00
 -5 0 8 -0.21 0.00
 -5 0 9 0.66 0.00
 -5 0 10 0.24 0.00
 -5 0 11 -0.17 0.00
 -5 0 12 -0.37 0.00
 -5 0 13 -0.61 0.00
 -5 0 14 -0.03 0.00
 5 -1 6 0.58 0.00
 5 -1 5 -0.10 0.00
 5 -1 4 -1.46 0.00
 -5 1 7 0.56 0.00
 -5 1 8 -0.36 0.00
 -5 1 9 -0.54 0.00
 -5 1 10 -0.12 0.00
 -5 1 11 0.16 0.00
 -5 1 12 0.36 0.00
 -5 1 13 -0.13 0.00
 -5 1 14 -0.95 0.00
 5 -2 6 -0.60 0.00
 5 -2 5 0.82 0.00
 5 -2 4 1.65 0.00
 -5 2 7 -0.13 0.00
 -5 2 8 0.84 0.00
 -5 2 9 0.70 0.00
 -5 2 10 -0.14 0.00
 -5 2 11 -0.39 0.00
 -5 2 12 -0.21 0.00
 -5 2 13 -0.22 0.00
 5 -3 5 -0.84 0.00
 5 -3 4 -2.33 0.00
 -5 3 8 -1.16 0.00
 -5 3 9 -0.48 0.00
 -5 3 10 -0.06 0.00
 -5 3 11 0.57 0.00
 -5 3 12 0.26 0.00
 -5 3 13 -0.21 0.00
 5 -4 9 0.36 0.00
 5 -4 4 1.74 0.00
 5 -4 3 -0.17 0.00
 -5 4 7 0.89 0.00
 -5 4 8 0.64 0.00
 -5 4 9 0.43 0.00
 -5 4 10 -0.06 0.00
 -5 4 11 -0.37 0.00
 -5 4 12 -0.34 0.00
 -5 4 13 -0.05 0.00
 5 -5 4 -0.83 0.00
 5 -5 3 -0.01 0.00
 5 -5 2 1.48 0.00
 -5 5 6 0.01 0.00
 -5 5 7 0.28 0.00
 -5 5 8 -0.55 0.00
 -5 5 9 0.02 0.00
 -5 5 10 0.29 0.00
 -5 5 11 -0.04 0.00
 -5 5 12 0.05 0.00
 5 -6 8 -0.43 0.00
 5 -6 5 0.34 0.00
 5 -6 4 0.27 0.00
 5 -6 3 -0.39 0.00
 5 -6 2 -1.10 0.00
 5 -6 1 -0.99 0.00
 -5 6 4 -0.73 0.00
 -5 6 5 -0.42 0.00
 -5 6 6 0.08 0.00
 -5 6 7 0.31 0.00
 -5 6 8 -0.15 0.00
 -5 6 9 0.58 0.00
 -5 6 10 -0.45 0.00
 -5 6 11 0.00 0.00
 -5 6 12 0.12 0.00
 5 -7 8 0.06 0.00
 5 -7 5 -0.40 0.00
 5 -7 4 0.41 0.00
 5 -7 3 0.36 0.00
 5 -7 2 0.66 0.00
 5 -7 1 0.02 0.00
 -5 7 0 -1.08 0.00
 -5 7 1 -0.71 0.00
 -5 7 2 -0.59 0.00
 -5 7 3 0.52 0.00
 -5 7 4 0.62 0.00
 -5 7 5 0.34 0.00
 -5 7 6 -0.17 0.00
 -5 7 7 -0.29 0.00
 -5 7 8 -0.43 0.00
 -5 7 9 0.58 0.00
 -5 7 10 0.30 0.00
 -5 7 11 0.32 0.00
 -5 7 12 -0.68 0.00
 5 -8 7 0.25 0.00
 5 -8 6 0.13 0.00
 5 -8 5 0.10 0.00
 5 -8 4 -0.33 0.00
 5 -8 3 -0.62 0.00
 5 -8 2 -0.14 0.00
 5 -8 1 0.32 0.00
 -5 8 0 0.39 0.00
 -5 8 1 0.55 0.00
 -5 8 2 -0.01 0.00
 -5 8 3 -0.70 0.00
 -5 8 4 -0.47 0.00
 -5 8 5 0.04 0.00
 -5 8 6 0.17 0.00
 -5 8 7 -0.05 0.00
 -5 8 8 -0.39 0.00
 -5 8 9 -0.17 0.00
 -5 8 10 -0.06 0.00
 -5 8 11 0.12 0.00
 5 -9 7 0.02 0.00
 5 -9 6 -0.49 0.00
 5 -9 5 0.06 0.00
 5 -9 4 0.18 0.00
 5 -9 3 0.27 0.00
 5 -9 2 0.19 0.00
 5 -9 1 -0.26 0.00
 -5 9 0 -0.03 0.00
 -5 9 1 -0.16 0.00
 -5 9 2 0.81 0.00
 -5 9 3 0.45 0.00
 -5 9 4 0.11 0.00
 -5 9 5 0.16 0.00
 -5 9 6 -0.27 0.00
 -5 9 7 -0.01 0.00
 -5 9 8 -0.25 0.00
 -5 9 9 0.21 0.00
 -5 9 10 -0.22 0.00
 5 -10 6 0.31 0.00
 5 -10 5 -0.18 0.00
 5 -10 4 -0.20 0.00
 5 -10 3 -0.21 0.00
 5 -10 2 0.34 0.00
 5 -10 1 0.10 0.00
 -5 10 0 0.40 0.00
 -5 10 1 -0.08 0.00
 -5 10 2 -0.56 0.00
 -5 10 3 -0.45 0.00
 -5 10 4 0.04 0.00
 -5 10 5 0.28 0.00
 -5 10 6 0.58 0.00
 -5 10 7 0.54 0.00
 -5 10 8 -0.04 0.00
 -5 10 9 -0.06 0.00
 5 -11 4 0.47 0.00
 5 -11 3 -0.46 0.00
 5 -11 2 -0.05 0.00
 5 -11 1 -0.07 0.00
 -5 11 0 -0.22 0.00
 -5 11 1 -0.12 0.00
 -5 11 2 0.28 0.00
 -5 11 3 -0.13 0.00
 -5 11 4 -0.31 0.00
 -5 11 5 -0.02 0.00
 -5 11 6 0.39 0.00
 -5 11 7 0.55 0.00
 -5 11 8 0.03 0.00
 5 -12 2 0.13 0.00
 5 -12 1 0.12 0.00
 -5 12 0 0.06 0.00
 -5 12 1 0.59 0.00
 -5 12 2 -0.07 0.00
 -5 12 3 0.30 0.00
 -5 12 4 0.41 0.00
 -5 12 5 -0.41 0.00
 -5 13 0 0.37 0.00
 -5 13 1 0.73 0.00
 -5 13 2 0.00 0.00
 -5 13 3 0.46 0.00
 -4 -10 7 0.51 0.00
 -4 -10 8 0.17 0.00
 -4 -10 9 0.24 0.00
 -4 -9 6 -0.11 0.00
 -4 -9 7 -0.12 0.00
 -4 -9 8 -0.24 0.00
 -4 -9 9 -0.02 0.00
 -4 -9 10 0.25 0.00
 -4 -8 7 0.45 0.00
 -4 -8 8 0.24 0.00
 -4 -8 9 0.26 0.00
 -4 -8 10 -0.19 0.00
 -4 -8 11 -0.23 0.00
 -4 -7 8 -0.26 0.00
 -4 -7 9 0.19 0.00
 -4 -7 10 0.21 0.00
 -4 -7 11 -0.06 0.00
 -4 -7 12 -0.19 0.00
 -4 -6 8 -0.27 0.00
 -4 -6 9 -0.44 0.00
 -4 -6 10 -0.33 0.00
 -4 -6 11 -0.06 0.00
 -4 -6 12 0.03 0.00
 -4 -5 7 -0.97 0.00
 -4 -5 8 0.72 0.00
 -4 -5 9 0.63 0.00
 -4 -5 10 0.25 0.00
 -4 -5 11 -0.18 0.00
 -4 -5 12 -0.45 0.00
 -4 -4 7 0.12 0.00
 -4 -4 8 -0.44 0.00
 -4 -4 9 -0.34 0.00
 -4 -4 10 -0.33 0.00
 -4 -4 11 0.27 0.00
 -4 -4 12 0.05 0.00
 -4 -4 13 0.10 0.00
 -4 -3 8 0.96 0.00
 -4 -3 9 0.46 0.00
 -4 -3 10 -0.19 0.00
 -4 -3 11 -0.33 0.00
 -4 -3 12 0.21 0.00
 -4 -3 13 0.15 0.00
 4 2 8 0.28 0.00
 4 2 7 0.24 0.00
 4 2 6 -0.10 0.00
 -4 -2 8 -0.99 0.00
 -4 -2 9 -0.43 0.00
 -4 -2 10 0.56 0.00
 -4 -2 11 0.34 0.00
 -4 -2 12 0.09 0.00
 -4 -2 13 -0.18 0.00
 4 1 8 -0.59 0.00
 4 1 7 -0.11 0.00
 4 1 6 0.91 0.00
 4 1 5 1.57 0.00
 -4 -1 5 -2.33 0.00
 -4 -1 6 1.18 0.00
 -4 -1 7 1.19 0.00
 -4 -1 8 0.71 0.00
 -4 -1 9 0.08 0.00
 -4 -1 10 -0.25 0.00
 -4 -1 11 -0.25 0.00
 -4 -1 12 0.27 0.00
 -4 -1 13 -0.19 0.00
 4 0 9 0.31 0.00
 4 0 8 0.79 0.00
 4 0 7 -0.03 0.00
 4 0 6 -0.77 0.00
 4 0 5 -1.57 0.00
 -4 0 5 1.77 0.00
 -4 0 6 -2.52 0.00
 -4 0 7 -1.60 0.00
 -4 0 8 -0.87 0.00
 -4 0 9 0.23 0.00
 -4 0 10 0.49 0.00
 -4 0 11 0.12 0.00
 -4 0 12 -0.47 0.00
 -4 0 13 -0.60 0.00
 4 -1 9 -0.38 0.00
 4 -1 8 -0.59 0.00
 4 -1 7 0.48 0.00
 4 -1 6 1.05 0.00
 4 -1 5 1.16 0.00
 -4 1 5 -0.97 0.00
 -4 1 6 1.40 0.00
 -4 1 7 1.54 0.00
 -4 1 8 0.36 0.00
 -4 1 9 -0.56 0.00
 -4 1 10 -0.34 0.00
 -4 1 11 0.00 0.00
 -4 1 12 0.21 0.00
 -4 1 13 0.12 0.00
 4 -2 8 0.05 0.00
 4 -2 7 -0.80 0.00
 4 -2 6 -1.02 0.00
 4 -2 5 -0.48 0.00
 -4 2 5 -0.84 0.00
 -4 2 6 -1.26 0.00
 -4 2 7 -1.08 0.00
 -4 2 8 0.82 0.00
 -4 2 9 0.64 0.00
 -4 2 10 0.17 0.00
 -4 2 11 -0.08 0.00
 -4 2 12 -0.54 0.00
 -4 2 13 0.09 0.00
 4 -3 8 0.34 0.00
 4 -3 7 0.80 0.00
 4 -3 6 1.43 0.00
 4 -3 5 -0.01 0.00
 -4 3 5 1.98 0.00
 -4 3 6 1.37 0.00
 -4 3 7 -0.40 0.00
 -4 3 8 -0.52 0.00
 -4 3 9 -1.00 0.00
 -4 3 10 -0.32 0.00
 -4 3 11 0.54 0.00
 -4 3 12 -0.08 0.00
 -4 3 13 0.17 0.00
 4 -4 7 -1.30 0.00
 4 -4 6 -0.39 0.00
 4 -4 5 0.26 0.00
 4 -4 4 2.54 0.00
 -4 4 6 -0.81 0.00
 -4 4 7 -0.12 0.00
 -4 4 8 1.10 0.00
 -4 4 9 0.28 0.00
 -4 4 10 0.31 0.00
 -4 4 11 -0.15 0.00
 -4 4 12 -0.83 0.00
 -4 4 13 0.28 0.00
 4 -5 6 0.03 0.00
 4 -5 5 -0.82 0.00
 4 -5 4 -1.20 0.00
 -4 5 7 0.06 0.00
 -4 5 8 -0.10 0.00
 -4 5 9 -0.50 0.00
 -4 5 10 0.10 0.00
 -4 5 11 0.14 0.00
 -4 5 12 -0.03 0.00
 -4 5 13 -0.78 0.00
 4 -6 6 0.52 0.00
 4 -6 5 0.28 0.00
 4 -6 4 0.98 0.00
 4 -6 3 0.00 0.00
 -4 6 6 0.12 0.00
 -4 6 7 -0.23 0.00
 -4 6 8 0.52 0.00
 -4 6 9 0.27 0.00
 -4 6 10 -0.11 0.00
 -4 6 11 -0.06 0.00
 -4 6 12 -0.13 0.00
 4 -7 9 -0.24 0.00
 4 -7 6 -0.44 0.00
 4 -7 5 -0.92 0.00
 4 -7 4 0.29 0.00
 4 -7 3 0.18 0.00
 4 -7 2 1.19 0.00
 4 -7 1 0.81 0.00
 -4 7 4 1.03 0.00
 -4 7 5 0.31 0.00
 -4 7 6 0.24 0.00
 -4 7 7 -0.73 0.00
 -4 7 8 -0.20 0.00
 -4 7 9 0.10 0.00
 -4 7 10 0.37 0.00
 -4 7 11 0.28 0.00
 4 -8 8 -0.14 0.00
 4 -8 6 0.18 0.00
 4 -8 5 0.39 0.00
 4 -8 4 -0.21 0.00
 4 -8 3 -0.63 0.00
 4 -8 2 -0.57 0.00
 4 -8 1 -0.10 0.00
 -4 8 0 0.17 0.00
 -4 8 1 0.89 0.00
 -4 8 2 0.81 0.00
 -4 8 3 -0.69 0.00
 -4 8 4 -0.65 0.00
 -4 8 5 -0.41 0.00
 -4 8 6 0.31 0.00
 -4 8 7 -0.10 0.00
 -4 8 8 -0.25 0.00
 -4 8 9 -0.19 0.00
 -4 8 10 0.08 0.00
 -4 8 11 0.17 0.00
 4 -9 7 0.00 0.00
 4 -9 6 -0.46 0.00
 4 -9 5 -0.03 0.00
 4 -9 4 0.01 0.00
 4 -9 3 0.33 0.00
 4 -9 2 0.39 0.00
 4 -9 1 0.06 0.00
 -4 9 0 -0.16 0.00
 -4 9 1 -0.24 0.00
 -4 9 2 0.37 0.00
 -4 9 3 0.54 0.00
 -4 9 4 0.37 0.00
 -4 9 5 0.12 0.00
 -4 9 6 -0.37 0.00
 -4 9 7 -0.34 0.00
 -4 9 8 0.00 0.00
 -4 9 9 0.34 0.00
 -4 9 10 -0.33 0.00
 4 -10 6 0.27 0.00
 4 -10 5 -0.02 0.00
 4 -10 4 -0.21 0.00
 4 -10 3 -0.31 0.00
 4 -10 2 -0.01 0.00
 4 -10 1 0.14 0.00
 -4 10 0 0.40 0.00
 -4 10 1 0.07 0.00
 -4 10 2 -0.38 0.00
 -4 10 3 -0.58 0.00
 -4 10 4 -0.18 0.00
 -4 10 5 0.08 0.00
 -4 10 6 0.15 0.00
 -4 10 7 0.79 0.00
 -4 10 8 0.44 0.00
 -4 10 9 0.09 0.00
 4 -11 5 -0.23 0.00
 4 -11 4 0.36 0.00
 4 -11 3 -0.19 0.00
 4 -11 2 -0.10 0.00
 4 -11 1 -0.24 0.00
 -4 11 0 -0.45 0.00
 -4 11 1 -0.42 0.00
 -4 11 2 0.11 0.00
 -4 11 3 -0.13 0.00
 -4 11 4 0.02 0.00
 -4 11 5 -0.40 0.00
 -4 11 6 0.12 0.00
 -4 11 7 0.43 0.00
 -4 11 8 0.00 0.00
 4 -12 4 -0.04 0.00
 4 -12 3 -0.03 0.00
 4 -12 2 0.16 0.00
 4 -12 1 0.13 0.00
 -4 12 0 0.30 0.00
 -4 12 1 0.59 0.00
 -4 12 2 -0.06 0.00
 -4 12 3 0.03 0.00
 -4 12 4 0.32 0.00
 -4 12 5 -0.26 0.00
 -4 12 6 0.26 0.00
 4 -13 2 -0.33 0.00
 4 -13 1 -0.05 0.00
 -4 13 0 0.37 0.00
 -4 13 1 0.68 0.00
 -4 13 2 0.28 0.00
 -4 13 3 -0.07 0.00
 -3 -10 8 0.19 0.00
 -3 -10 9 0.34 0.00
 -3 -9 6 0.05 0.00
 -3 -9 7 0.03 0.00
 -3 -9 8 -0.31 0.00
 -3 -9 9 -0.03 0.00
 -3 -9 10 0.02 0.00
 -3 -8 7 0.61 0.00
 -3 -8 8 0.30 0.00
 -3 -8 9 0.63 0.00
 -3 -8 10 -0.32 0.00
 -3 -8 11 -0.17 0.00
 -3 -7 7 -0.09 0.00
 -3 -7 8 -0.62 0.00
 -3 -7 9 0.08 0.00
 -3 -7 10 0.16 0.00
 -3 -7 11 0.10 0.00
 -3 -7 12 -0.06 0.00
 -3 -6 8 -0.03 0.00
 -3 -6 9 0.01 0.00
 -3 -6 10 -0.52 0.00
 -3 -6 11 -0.26 0.00
 -3 -6 12 -0.02 0.00
 -3 -5 7 -1.11 0.00
 -3 -5 8 0.22 0.00
 -3 -5 9 0.65 0.00
 -3 -5 10 0.41 0.00
 -3 -5 11 -0.15 0.00
 -3 -5 12 -0.28 0.00
 -3 -4 8 -0.55 0.00
 -3 -4 9 -0.30 0.00
 -3 -4 10 -0.64 0.00
 -3 -4 11 0.13 0.00
 -3 -4 12 0.24 0.00
 -3 -4 13 0.10 0.00
 -3 -3 8 0.55 0.00
 -3 -3 9 0.84 0.00
 -3 -3 10 0.00 0.00
 -3 -3 11 -0.08 0.00
 -3 -3 12 0.11 0.00
 3 2 10 0.21 0.00
 3 2 9 0.06 0.00
 3 2 8 0.04 0.00
 3 2 7 0.50 0.00
 3 2 6 0.89 0.00
 -3 -2 4 -1.82 0.00
 -3 -2 5 3.18 0.00
 -3 -2 6 1.40 0.00
 -3 -2 7 0.02 0.00
 -3 -2 8 -1.19 0.00
 -3 -2 9 -0.64 0.00
 -3 -2 10 0.05 0.00
 -3 -2 11 0.44 0.00
 -3 -2 12 -0.03 0.00
 -3 -2 13 0.17 0.00
 3 1 10 -0.23 0.00
 3 1 9 -0.23 0.00
 3 1 8 -0.48 0.00
 3 1 7 -0.58 0.00
 -3 -1 4 -1.02 0.00
 -3 -1 5 -4.05 0.00
 -3 -1 6 0.24 0.00
 -3 -1 7 1.02 0.00
 -3 -1 8 1.16 0.00
 -3 -1 9 0.95 0.00
 -3 -1 10 -0.29 0.00
 -3 -1 11 -0.11 0.00
 -3 -1 13 0.01 0.00
 3 0 10 -0.49 0.00
 3 0 9 0.52 0.00
 3 0 8 0.91 0.00
 3 0 7 0.56 0.00
 3 0 6 -0.56 0.00
 -3 0 3 1.74 0.00
 -3 0 4 3.34 0.00
 -3 0 5 3.08 0.00
 -3 0 6 -0.92 0.00
 -3 0 7 -1.75 0.00
 -3 0 8 -1.67 0.00
 -3 0 9 0.01 0.00
 -3 0 10 0.43 0.00
 -3 0 11 0.29 0.00
 -3 0 12 -0.35 0.00
 -3 0 13 -0.37 0.00
 3 -1 10 0.55 0.00
 3 -1 9 -0.53 0.00
 3 -1 8 -0.98 0.00
 3 -1 7 0.13 0.00
 3 -1 6 1.19 0.00
 -3 1 3 -11.49 0.00
 -3 1 4 -4.51 0.00
 -3 1 5 -3.32 0.00
 -3 1 6 1.06 0.00
 -3 1 7 1.85 0.00
 -3 1 8 0.81 0.00
 -3 1 9 0.04 0.00
 -3 1 10 -0.53 0.00
 -3 1 11 -0.24 0.00
 -3 1 12 0.27 0.00
 -3 1 13 0.14 0.00
 3 -2 10 0.22 0.00
 3 -2 9 0.38 0.00
 3 -2 8 0.32 0.00
 3 -2 7 -0.11 0.00
 3 -2 6 -1.57 0.00
 -3 2 3 6.33 0.00
 -3 2 4 3.91 0.00
 -3 2 5 -0.39 0.00
 -3 2 6 -0.25 0.00
 -3 2 7 -1.61 0.00
 -3 2 8 0.16 0.00
 -3 2 9 0.66 0.00
 -3 2 10 0.26 0.00
 -3 2 11 0.02 0.00
 -3 2 12 -0.19 0.00
 -3 2 13 -0.04 0.00
 3 -3 10 -0.22 0.00
 3 -3 9 -0.68 0.00
 3 -3 8 0.06 0.00
 3 -3 7 0.71 0.00
 3 -3 6 1.68 0.00
 -3 3 4 -1.76 0.00
 -3 3 5 0.59 0.00
 -3 3 6 1.43 0.00
 -3 3 7 1.02 0.00
 -3 3 8 -0.41 0.00
 -3 3 9 -0.59 0.00
 -3 3 10 -0.54 0.00
 -3 3 11 -0.07 0.00
 -3 3 12 0.18 0.00
 -3 3 13 -0.09 0.00
 3 -4 9 0.65 0.00
 3 -4 8 -0.03 0.00
 3 -4 7 -1.04 0.00
 3 -4 6 -0.89 0.00
 3 -4 5 -0.58 0.00
 -3 4 4 0.44 0.00
 -3 4 5 -1.30 0.00
 -3 4 6 -1.45 0.00
 -3 4 7 -0.19 0.00
 -3 4 8 0.11 0.00
 -3 4 9 0.77 0.00
 -3 4 10 0.37 0.00
 -3 4 11 -0.28 0.00
 -3 4 12 -0.21 0.00
 -3 4 13 -0.02 0.00
 3 -5 8 0.27 0.00
 3 -5 7 0.39 0.00
 3 -5 6 0.64 0.00
 3 -5 5 -0.39 0.00
 -3 5 5 1.46 0.00
 -3 5 6 0.82 0.00
 -3 5 7 1.03 0.00
 -3 5 8 -0.56 0.00
 -3 5 9 -0.11 0.00
 -3 5 10 -0.30 0.00
 -3 5 11 -0.11 0.00
 -3 5 12 0.54 0.00
 3 -6 6 -0.02 0.00
 3 -6 5 0.33 0.00
 3 -6 4 1.84 0.00
 -3 6 6 -0.83 0.00
 -3 6 7 0.41 0.00
 -3 6 8 0.04 0.00
 -3 6 9 0.55 0.00
 -3 6 10 0.03 0.00
 -3 6 11 -0.43 0.00
 -3 6 12 0.27 0.00
 3 -7 7 0.50 0.00
 3 -7 6 -0.37 0.00
 3 -7 5 -0.96 0.00
 3 -7 4 -0.18 0.00
 3 -7 3 -0.26 0.00
 3 -7 2 1.46 0.00
 -3 7 5 0.70 0.00
 -3 7 6 0.01 0.00
 -3 7 7 -0.17 0.00
 -3 7 8 -0.63 0.00
 -3 7 9 0.22 0.00
 -3 7 10 0.12 0.00
 -3 7 11 0.03 0.00
 3 -8 9 0.31 0.00
 3 -8 7 -0.04 0.00
 3 -8 6 -0.01 0.00
 3 -8 5 0.66 0.00
 3 -8 4 0.00 0.00
 3 -8 3 -0.22 0.00
 3 -8 2 -0.93 0.00
 3 -8 1 -0.71 0.00
 -3 8 0 -0.46 0.00
 -3 8 1 0.98 0.00
 -3 8 2 1.42 0.00
 -3 8 3 -0.11 0.00
 -3 8 4 -0.98 0.00
 -3 8 5 -0.38 0.00
 -3 8 6 -0.13 0.00
 -3 8 7 0.32 0.00
 -3 8 8 -0.37 0.00
 -3 8 9 0.14 0.00
 -3 8 10 -0.05 0.00
 -3 8 11 -0.06 0.00
 3 -9 8 -0.61 0.00
 3 -9 7 0.04 0.00
 3 -9 6 -0.36 0.00
 3 -9 5 -0.25 0.00
 3 -9 4 -0.06 0.00
 3 -9 3 0.10 0.00
 3 -9 2 0.76 0.00
 3 -9 1 0.43 0.00
 -3 9 0 0.06 0.00
 -3 9 1 -0.22 0.00
 -3 9 2 -0.28 0.00
 -3 9 3 0.39 0.00
 -3 9 4 0.29 0.00
 -3 9 5 0.28 0.00
 -3 9 6 -0.50 0.00
 -3 9 7 -0.24 0.00
 -3 9 8 0.16 0.00
 -3 9 9 0.52 0.00
 -3 9 10 -0.30 0.00
 3 -10 7 0.28 0.00
 3 -10 6 0.37 0.00
 3 -10 5 0.05 0.00
 3 -10 4 0.09 0.00
 3 -10 3 -0.40 0.00
 3 -10 2 -0.22 0.00
 3 -10 1 -0.21 0.00
 -3 10 0 0.31 0.00
 -3 10 1 0.00 0.00
 -3 10 2 -0.06 0.00
 -3 10 3 -0.58 0.00
 -3 10 4 -0.43 0.00
 -3 10 5 -0.17 0.00
 -3 10 6 -0.38 0.00
 -3 10 7 1.00 0.00
 -3 10 8 0.44 0.00
 -3 10 9 0.20 0.00
 3 -11 6 0.18 0.00
 3 -11 5 -0.49 0.00
 3 -11 4 0.39 0.00
 3 -11 3 -0.04 0.00
 3 -11 2 0.16 0.00
 3 -11 1 -0.34 0.00
 -3 11 0 -0.38 0.00
 -3 11 1 -0.62 0.00
 -3 11 2 -0.12 0.00
 -3 11 3 0.05 0.00
 -3 11 4 0.29 0.00
 -3 11 5 -0.44 0.00
 -3 11 6 -0.22 0.00
 -3 11 7 -0.12 0.00
 -3 11 8 -0.09 0.00
 3 -12 5 -0.14 0.00
 3 -12 4 0.04 0.00
 3 -12 3 -0.28 0.00
 3 -12 2 0.09 0.00
 3 -12 1 0.04 0.00
 -3 12 0 0.41 0.00
 -3 12 1 0.39 0.00
 -3 12 2 -0.03 0.00
 -3 12 3 -0.27 0.00
 -3 12 4 -0.14 0.00
 -3 12 5 0.03 0.00
 -3 12 6 -0.90 0.00
 3 -13 3 -0.24 0.00
 3 -13 2 -0.22 0.00
 3 -13 1 0.12 0.00
 -3 13 0 0.19 0.00
 -3 13 1 0.47 0.00
 -3 13 2 0.25 0.00
 -3 13 3 -0.28 0.00
 -2 -10 8 0.30 0.00
 -2 -10 9 0.06 0.00
 -2 -9 6 0.39 0.00
 -2 -9 7 -0.07 0.00
 -2 -9 8 -0.01 0.00
 -2 -9 9 -0.26 0.00
 -2 -9 10 0.07 0.00
 -2 -8 5 -1.00 0.00
 -2 -8 6 0.11 0.00
 -2 -8 7 0.04 0.00
 -2 -8 8 0.60 0.00
 -2 -8 9 0.49 0.00
 -2 -8 10 -0.07 0.00
 -2 -8 11 -0.11 0.00
 -2 -7 6 0.32 0.00
 -2 -7 7 -0.47 0.00
 -2 -7 8 -0.39 0.00
 -2 -7 9 -0.36 0.00
 -2 -7 10 0.15 0.00
 -2 -7 11 0.28 0.00
 -2 -7 12 0.07 0.00
 -2 -6 7 0.37 0.00
 -2 -6 8 0.57 0.00
 -2 -6 9 0.11 0.00
 -2 -6 10 -0.44 0.00
 -2 -6 11 -0.24 0.00
 -2 -6 12 -0.26 0.00
 -2 -5 7 -1.94 0.00
 -2 -5 8 0.07 0.00
 -2 -5 9 0.18 0.00
 -2 -5 10 0.46 0.00
 -2 -5 11 -0.15 0.00
 -2 -5 12 -0.12 0.00
 -2 -4 8 0.22 0.00
 -2 -4 9 -0.43 0.00
 -2 -4 10 -0.55 0.00
 -2 -4 11 0.03 0.00
 -2 -4 12 0.35 0.00
 2 3 10 0.06 0.00
 2 3 9 0.44 0.00
 -2 -3 3 11.78 0.00
 -2 -3 4 2.80 0.00
 -2 -3 5 -2.05 0.00
 -2 -3 6 -1.72 0.00
 -2 -3 8 0.41 0.00
 -2 -3 9 0.53 0.00
 -2 -3 10 0.47 0.00
 -2 -3 11 0.10 0.00
 -2 -3 12 0.17 0.00
 2 2 11 -0.83 0.00
 2 2 10 0.16 0.00
 2 2 9 -0.07 0.00
 -2 -2 3 -8.85 0.00
 -2 -2 4 -5.98 0.00
 -2 -2 5 2.50 0.00
 -2 -2 6 2.41 0.00
 -2 -2 7 0.67 0.00
 -2 -2 8 -0.63 0.00
 -2 -2 9 -1.13 0.00
 -2 -2 10 -0.07 0.00
 -2 -2 11 0.19 0.00
 -2 -2 12 0.11 0.00
 2 1 11 -0.03 0.00
 2 1 10 -0.01 0.00
 2 1 9 -0.26 0.00
 -2 -1 2 8.05 0.00
 -2 -1 3 -2.62 0.00
 -2 -1 4 2.06 0.00
 -2 -1 5 -3.82 0.00
 -2 -1 6 -1.02 0.00
 -2 -1 7 0.52 0.00
 -2 -1 8 1.44 0.00
 -2 -1 9 1.17 0.00
 -2 -1 10 0.13 0.00
 -2 -1 11 -0.26 0.00
 -2 -1 12 0.05 0.00
 -2 -1 13 -0.11 0.00
 2 0 11 -0.54 0.00
 2 0 10 -0.36 0.00
 2 0 9 0.48 0.00
 -2 0 2 -9.41 0.00
 -2 0 3 -0.53 0.00
 -2 0 4 0.94 0.00
 -2 0 5 4.14 0.00
 -2 0 6 0.25 0.00
 -2 0 7 -1.21 0.00
 -2 0 8 -1.78 0.00
 -2 0 9 -0.35 0.00
 -2 0 10 0.38 0.00
 -2 0 11 0.32 0.00
 -2 0 12 -0.06 0.00
 -2 0 13 -0.50 0.00
 2 -1 11 -1.17 0.00
 2 -1 10 0.79 0.00
 2 -1 9 -0.54 0.00
 -2 1 2 5.13 0.00
 -2 1 3 -9.67 0.00
 -2 1 4 -3.43 0.00
 -2 1 5 -4.04 0.00
 -2 1 6 -0.34 0.00
 -2 1 7 1.48 0.00
 -2 1 8 1.17 0.00
 -2 1 9 0.29 0.00
 -2 1 10 -0.41 0.00
 -2 1 11 -0.08 0.00
 -2 1 12 0.13 0.00
 -2 1 13 0.14 0.00
 2 -2 11 -1.07 0.00
 2 -2 10 0.18 0.00
 2 -2 9 0.19 0.00
 2 -2 8 0.67 0.00
 -2 2 2 -12.19 0.00
 -2 2 3 3.69 0.00
 -2 2 4 3.57 0.00
 -2 2 5 1.12 0.00
 -2 2 6 0.84 0.00
 -2 2 7 -1.66 0.00
 -2 2 8 0.02 0.00
 -2 2 9 0.04 0.00
 -2 2 10 0.23 0.00
 -2 2 11 0.36 0.00
 -2 2 12 -0.20 0.00
 -2 2 13 0.03 0.00
 2 -3 11 0.40 0.00
 2 -3 10 0.01 0.00
 2 -3 9 -0.55 0.00
 2 -3 8 -0.24 0.00
 2 -3 7 -0.01 0.00
 -2 3 2 7.50 0.00
 -2 3 3 -2.47 0.00
 -2 3 4 -3.18 0.00
 -2 3 5 -0.69 0.00
 -2 3 6 0.86 0.00
 -2 3 7 1.40 0.00
 -2 3 8 0.38 0.00
 -2 3 9 -0.46 0.00
 -2 3 10 -0.56 0.00
 -2 3 11 -0.11 0.00
 -2 3 12 -0.14 0.00
 -2 3 13 -0.01 0.00
 2 -4 10 -0.23 0.00
 2 -4 9 0.76 0.00
 2 -4 8 0.32 0.00
 2 -4 7 -0.39 0.00
 2 -4 6 -1.19 0.00
 2 -4 1 3.06 0.00
 -2 4 0 -8.21 0.00
 -2 4 1 -8.40 0.00
 -2 4 2 -3.74 0.00
 -2 4 3 3.41 0.00
 -2 4 4 1.57 0.00
 -2 4 5 -0.32 0.00
 -2 4 6 -0.95 0.00
 -2 4 7 -1.03 0.00
 -2 4 8 -0.01 0.00
 -2 4 9 0.43 0.00
 -2 4 10 0.24 0.00
 -2 4 11 0.18 0.00
 -2 4 12 -0.07 0.00
 2 -5 9 -0.20 0.00
 2 -5 8 -0.11 0.00
 2 -5 7 0.14 0.00
 2 -5 6 1.27 0.00
 2 -5 2 -1.03 0.00
 2 -5 1 0.55 0.00
 -2 5 0 5.75 0.00
 -2 5 1 1.31 0.00
 -2 5 2 -1.53 0.00
 -2 5 3 -2.85 0.00
 -2 5 4 -1.33 0.00
 -2 5 5 0.44 0.00
 -2 5 6 1.26 0.00
 -2 5 7 0.66 0.00
 -2 5 8 0.23 0.00
 -2 5 9 -0.34 0.00
 -2 5 10 -0.58 0.00
 -2 5 11 0.21 0.00
 -2 5 12 0.33 0.00
 2 -6 8 -0.84 0.00
 2 -6 7 -1.30 0.00
 2 -6 6 -0.49 0.00
 2 -6 5 -0.15 0.00
 2 -6 2 0.60 0.00
 2 -6 1 -2.51 0.00
 -2 6 0 -3.07 0.00
 -2 6 1 -0.68 0.00
 -2 6 2 1.72 0.00
 -2 6 3 1.50 0.00
 -2 6 4 1.54 0.00
 -2 6 5 -0.99 0.00
 -2 6 6 -0.58 0.00
 -2 6 7 -0.08 0.00
 -2 6 8 0.47 0.00
 -2 6 9 0.26 0.00
 -2 6 10 -0.05 0.00
 -2 6 11 -0.10 0.00
 -2 6 12 0.05 0.00
 2 -7 7 0.50 0.00
 2 -7 6 0.22 0.00
 2 -7 5 -0.77 0.00
 2 -7 4 -0.45 0.00
 2 -7 3 -1.10 0.00
 2 -7 2 1.17 0.00
 2 -7 1 1.74 0.00
 -2 7 0 1.09 0.00
 -2 7 1 0.00 0.00
 -2 7 4 -0.05 0.00
 -2 7 5 0.11 0.00
 -2 7 6 0.62 0.00
 -2 7 7 -0.38 0.00
 -2 7 8 -0.22 0.00
 -2 7 9 0.00 0.00
 -2 7 10 -0.29 0.00
 -2 7 11 0.42 0.00
 2 -8 7 -0.38 0.00
 2 -8 6 -0.04 0.00
 2 -8 5 0.41 0.00
 2 -8 4 0.46 0.00
 2 -8 3 0.53 0.00
 2 -8 2 -0.92 0.00
 2 -8 1 -1.04 0.00
 -2 8 0 -1.23 0.00
 -2 8 1 0.55 0.00
 -2 8 2 1.56 0.00
 -2 8 3 0.29 0.00
 -2 8 4 -0.56 0.00
 -2 8 5 -0.56 0.00
 -2 8 6 0.02 0.00
 -2 8 7 0.19 0.00
 -2 8 8 0.03 0.00
 -2 8 9 0.30 0.00
 -2 8 10 -0.36 0.00
 2 -9 7 0.11 0.00
 2 -9 6 -0.22 0.00
 2 -9 5 -0.44 0.00
 2 -9 4 -0.22 0.00
 2 -9 3 -0.35 0.00
 2 -9 2 0.80 0.00
 2 -9 1 0.83 0.00
 -2 9 0 0.49 0.00
 -2 9 1 -0.05 0.00
 -2 9 2 -0.71 0.00
 -2 9 3 -0.11 0.00
 -2 9 4 0.10 0.00
 -2 9 5 0.06 0.00
 -2 9 6 -0.27 0.00
 -2 9 7 -0.18 0.00
 -2 9 8 0.57 0.00
 -2 9 9 0.33 0.00
 -2 9 10 -0.04 0.00
 2 -10 7 0.27 0.00
 2 -10 6 0.20 0.00
 2 -10 5 0.37 0.00
 2 -10 4 0.26 0.00
 2 -10 3 -0.01 0.00
 2 -10 2 -0.51 0.00
 2 -10 1 -0.45 0.00
 -2 10 0 -0.03 0.00
 -2 10 1 -0.09 0.00
 -2 10 2 0.20 0.00
 -2 10 3 -0.31 0.00
 -2 10 4 -0.34 0.00
 -2 10 5 -0.42 0.00
 -2 10 6 -0.48 0.00
 -2 10 7 0.53 0.00
 -2 10 8 0.19 0.00
 -2 10 9 0.19 0.00
 2 -11 7 -0.13 0.00
 2 -11 6 -0.19 0.00
 2 -11 5 -0.46 0.00
 2 -11 4 0.03 0.00
 2 -11 3 0.09 0.00
 2 -11 2 0.33 0.00
 2 -11 1 -0.19 0.00
 -2 11 0 -0.08 0.00
 -2 11 1 -0.52 0.00
 -2 11 2 -0.14 0.00
 -2 11 3 0.07 0.00
 -2 11 4 0.46 0.00
 -2 11 5 0.03 0.00
 -2 11 6 -0.15 0.00
 -2 11 7 -1.55 0.00
 -2 11 8 -0.06 0.00
 2 -12 6 -0.19 0.00
 2 -12 5 0.09 0.00
 2 -12 4 0.05 0.00
 2 -12 3 -0.32 0.00
 2 -12 2 0.02 0.00
 2 -12 1 -0.20 0.00
 -2 12 0 0.50 0.00
 -2 12 1 -0.03 0.00
 -2 12 2 0.35 0.00
 -2 12 3 -0.83 0.00
 -2 12 4 -0.36 0.00
 -2 12 5 -0.28 0.00
 -2 12 6 -2.06 0.00
 2 -13 4 0.14 0.00
 2 -13 3 -0.13 0.00
 2 -13 2 0.18 0.00
 2 -13 1 -0.01 0.00
 -2 13 0 0.27 0.00
 -2 13 1 -0.07 0.00
 -2 13 2 0.33 0.00
 -2 13 3 -0.32 0.00
 -1 -9 6 0.19 0.00
 -1 -9 7 0.21 0.00
 -1 -9 8 -0.02 0.00
 -1 -9 9 -0.19 0.00
 -1 -9 10 0.09 0.00
 -1 -8 5 -0.60 0.00
 -1 -8 6 -0.51 0.00
 -1 -8 7 0.00 0.00
 -1 -8 8 0.22 0.00
 -1 -8 9 0.49 0.00
 -1 -8 10 0.17 0.00
 -1 -8 11 -0.02 0.00
 -1 -7 5 1.54 0.00
 -1 -7 6 0.29 0.00
 -1 -7 7 0.14 0.00
 -1 -7 8 -0.69 0.00
 -1 -7 9 -0.41 0.00
 -1 -7 10 0.13 0.00
 -1 -7 11 0.21 0.00
 -1 -6 6 -0.36 0.00
 -1 -6 7 0.49 0.00
 -1 -6 8 0.17 0.00
 -1 -6 9 0.43 0.00
 -1 -6 10 -0.14 0.00
 -1 -6 11 -0.36 0.00
 -1 -6 12 -0.19 0.00
 -1 -5 7 -1.51 0.00
 -1 -5 8 -0.72 0.00
 -1 -5 9 0.03 0.00
 -1 -5 10 0.38 0.00
 -1 -5 11 -0.48 0.00
 -1 -5 12 0.05 0.00
 1 4 0 2.64 0.00
 -1 -4 8 0.47 0.00
 -1 -4 9 0.01 0.00
 -1 -4 10 -0.33 0.00
 -1 -4 11 -0.04 0.00
 -1 -4 12 0.38 0.00
 1 3 11 -0.07 0.00
 1 3 0 -7.05 0.00
 -1 -3 2 -5.91 0.00
 -1 -3 3 12.18 0.00
 -1 -3 4 3.24 0.00
 -1 -3 5 0.39 0.00
 -1 -3 6 -1.23 0.00
 -1 -3 7 -1.70 0.00
 -1 -3 8 -0.31 0.00
 -1 -3 9 0.41 0.00
 -1 -3 10 0.56 0.00
 -1 -3 11 0.28 0.00
 -1 -3 12 -0.09 0.00
 1 2 11 -0.44 0.00
 -1 -2 2 -1.11 0.00
 -1 -2 3 -8.40 0.00
 -1 -2 4 -9.47 0.00
 -1 -2 5 0.95 0.00
 -1 -2 6 1.94 0.00
 -1 -2 7 1.46 0.00
 -1 -2 8 -0.17 0.00
 -1 -2 9 -0.90 0.00
 -1 -2 10 -0.21 0.00
 -1 -2 11 0.14 0.00
 -1 -2 12 0.02 0.00
 1 1 12 -0.49 0.00
 1 1 11 0.24 0.00
 -1 -1 1 17.77 0.00
 -1 -1 2 1.49 0.00
 -1 -1 3 -0.81 0.00
 -1 -1 4 4.67 0.00
 -1 -1 5 -2.26 0.00
 -1 -1 6 -1.21 0.00
 -1 -1 7 -0.22 0.00
 -1 -1 8 0.87 0.00
 -1 -1 9 1.20 0.00
 -1 -1 10 0.29 0.00
 -1 -1 11 -0.39 0.00
 -1 -1 12 -0.17 0.00
 1 0 12 0.17 0.00
 1 0 11 0.01 0.00
 -1 0 1 3.65 0.00
 -1 0 2 -11.01 0.00
 -1 0 3 -0.35 0.00
 -1 0 4 -2.96 0.00
 -1 0 5 3.50 0.00
 -1 0 6 1.36 0.00
 -1 0 7 -0.59 0.00
 -1 0 8 -1.39 0.00
 -1 0 9 -0.15 0.00
 -1 0 10 0.08 0.00
 -1 0 11 0.41 0.00
 -1 0 12 0.03 0.00
 1 -1 12 -0.37 0.00
 1 -1 11 -0.97 0.00
 -1 1 1 4.55 0.00
 -1 1 2 5.30 0.00
 -1 1 3 -5.36 0.00
 -1 1 4 -1.04 0.00
 -1 1 5 -3.99 0.00
 -1 1 6 -1.19 0.00
 -1 1 7 0.52 0.00
 -1 1 8 0.86 0.00
 -1 1 9 0.43 0.00
 -1 1 10 -0.19 0.00
 -1 1 11 0.13 0.00
 -1 1 12 -0.10 0.00
 1 -2 12 0.42 0.00
 1 -2 11 -0.47 0.00
 1 -2 10 -0.05 0.00
 1 -2 2 11.74 0.00
 1 -2 1 7.65 0.00
 -1 2 1 -2.90 0.00
 -1 2 2 -16.50 0.00
 -1 2 3 1.41 0.00
 -1 2 4 1.66 0.00
 -1 2 5 2.00 0.00
 -1 2 6 2.10 0.00
 -1 2 7 -1.00 0.00
 -1 2 8 -0.46 0.00
 -1 2 9 -0.23 0.00
 -1 2 10 0.19 0.00
 -1 2 11 0.21 0.00
 -1 2 12 -0.03 0.00
 1 -3 12 -0.51 0.00
 1 -3 11 0.43 0.00
 1 -3 10 0.22 0.00
 1 -3 9 -0.22 0.00
 1 -3 3 3.12 0.00
 1 -3 2 -9.34 0.00
 1 -3 1 0.52 0.00
 -1 3 0 0.53 0.00
 -1 3 1 10.37 0.00
 -1 3 2 10.44 0.00
 -1 3 3 1.78 0.00
 -1 3 4 -3.56 0.00
 -1 3 5 -1.57 0.00
 -1 3 6 -0.25 0.00
 -1 3 7 1.66 0.00
 -1 3 8 0.17 0.00
 -1 3 9 0.13 0.00
 -1 3 10 -0.41 0.00
 -1 3 11 -0.31 0.00
 -1 3 12 -0.07 0.00
 1 -4 11 0.06 0.00
 1 -4 10 -0.19 0.00
 1 -4 9 0.64 0.00
 1 -4 8 0.67 0.00
 1 -4 3 1.55 0.00
 1 -4 2 6.48 0.00
 1 -4 1 7.16 0.00
 -1 4 0 -6.09 0.00
 -1 4 1 -8.68 0.00
 -1 4 2 -7.87 0.00
 -1 4 3 2.51 0.00
 -1 4 4 1.44 0.00
 -1 4 5 0.95 0.00
 -1 4 6 -0.72 0.00
 -1 4 7 -0.57 0.00
 -1 4 8 -0.96 0.00
 -1 4 9 0.43 0.00
 -1 4 10 0.17 0.00
 -1 4 11 0.22 0.00
 -1 4 12 0.38 0.00
 1 -5 10 -0.05 0.00
 1 -5 9 -0.21 0.00
 1 -5 8 -0.51 0.00
 1 -5 7 -0.38 0.00
 1 -5 3 -3.34 0.00
 1 -5 2 -2.52 0.00
 1 -5 1 -2.43 0.00
 -1 5 0 4.68 0.00
 -1 5 1 3.65 0.00
 -1 5 2 0.01 0.00
 -1 5 3 -1.27 0.00
 -1 5 4 -2.31 0.00
 -1 5 5 0.15 0.00
 -1 5 6 0.42 0.00
 -1 5 7 1.22 0.00
 -1 5 8 -0.03 0.00
 -1 5 9 -0.16 0.00
 -1 5 10 -0.48 0.00
 -1 5 11 0.09 0.00
 -1 5 12 0.32 0.00
 1 -6 6 -1.06 0.00
 1 -6 5 -0.66 0.00
 1 -6 4 2.20 0.00
 1 -6 3 2.01 0.00
 1 -6 2 2.27 0.00
 1 -6 1 -0.73 0.00
 -1 6 0 -3.30 0.00
 -1 6 1 -1.75 0.00
 -1 6 2 -0.30 0.00
 -1 6 3 1.58 0.00
 -1 6 4 1.77 0.00
 -1 6 5 -0.11 0.00
 -1 6 6 -1.05 0.00
 -1 6 7 0.46 0.00
 -1 6 8 0.03 0.00
 -1 6 9 0.31 0.00
 -1 6 10 0.13 0.00
 -1 6 11 -0.01 0.00
 1 -7 7 0.51 0.00
 1 -7 6 0.52 0.00
 1 -7 5 0.23 0.00
 1 -7 4 -0.71 0.00
 1 -7 3 -1.57 0.00
 1 -7 2 0.08 0.00
 1 -7 1 0.95 0.00
 -1 7 0 1.66 0.00
 -1 7 1 1.23 0.00
 -1 7 2 -1.19 0.00
 -1 7 3 -1.69 0.00
 -1 7 4 -1.05 0.00
 -1 7 5 0.02 0.00
 -1 7 6 0.38 0.00
 -1 7 7 0.18 0.00
 -1 7 8 -0.29 0.00
 -1 7 9 -0.09 0.00
 -1 7 10 -0.24 0.00
 -1 7 11 0.40 0.00
 1 -8 7 -0.53 0.00
 1 -8 6 -0.33 0.00
 1 -8 5 0.09 0.00
 1 -8 4 0.54 0.00
 1 -8 3 1.30 0.00
 1 -8 2 -0.38 0.00
 1 -8 1 -0.81 0.00
 -1 8 0 -1.66 0.00
 -1 8 1 0.01 0.00
 -1 8 2 0.77 0.00
 -1 8 3 0.69 0.00
 -1 8 4 -0.08 0.00
 -1 8 5 -0.22 0.00
 -1 8 6 -0.06 0.00
 -1 8 7 0.26 0.00
 -1 8 8 0.03 0.00
 -1 8 9 0.36 0.00
 -1 8 10 -0.19 0.00
 1 -9 8 -0.15 0.00
 1 -9 7 0.15 0.00
 1 -9 6 -0.02 0.00
 1 -9 5 -0.35 0.00
 1 -9 4 -0.39 0.00
 1 -9 3 -0.89 0.00
 1 -9 2 0.56 0.00
 1 -9 1 0.74 0.00
 -1 9 0 0.99 0.00
 -1 9 1 -0.28 0.00
 -1 9 2 -0.65 0.00
 -1 9 3 -0.50 0.00
 -1 9 4 -0.19 0.00
 -1 9 5 -0.23 0.00
 -1 9 6 -0.01 0.00
 -1 9 7 0.14 0.00
 -1 9 8 0.91 0.00
 -1 9 9 -0.02 0.00
 1 -10 8 0.10 0.00
 1 -10 7 -0.11 0.00
 1 -10 6 0.22 0.00
 1 -10 5 0.34 0.00
 1 -10 4 0.45 0.00
 1 -10 3 0.37 0.00
 1 -10 2 -0.54 0.00
 1 -10 1 -0.51 0.00
 -1 10 0 -0.21 0.00
 -1 10 1 -0.03 0.00
 -1 10 2 0.32 0.00
 -1 10 3 0.22 0.00
 -1 10 4 0.14 0.00
 -1 10 5 -0.06 0.00
 -1 10 6 -0.30 0.00
 -1 10 7 -0.76 0.00
 -1 10 8 -0.28 0.00
 1 -11 7 -0.27 0.00
 1 -11 6 -0.06 0.00
 1 -11 5 -0.55 0.00
 1 -11 4 -0.14 0.00
 1 -11 3 -0.06 0.00
 1 -11 2 0.27 0.00
 1 -11 1 0.03 0.00
 -1 11 0 0.11 0.00
 -1 11 1 -0.03 0.00
 -1 11 2 -0.03 0.00
 -1 11 3 -0.01 0.00
 -1 11 4 0.32 0.00
 -1 11 5 1.34 0.00
 -1 11 6 0.04 0.00
 -1 11 7 -3.13 0.00
 1 -12 6 -0.12 0.00
 1 -12 5 -0.02 0.00
 1 -12 4 0.22 0.00
 1 -12 3 -0.09 0.00
 1 -12 2 -0.17 0.00
 1 -12 1 -0.12 0.00
 -1 12 0 0.23 0.00
 -1 12 1 0.01 0.00
 -1 12 2 0.43 0.00
 -1 12 3 -1.01 0.00
 -1 12 4 -0.43 0.00
 -1 12 5 -0.81 0.00
 -1 12 6 -3.10 0.00
 1 -13 5 -0.40 0.00
 1 -13 4 0.02 0.00
 1 -13 3 0.05 0.00
 1 -13 2 0.09 0.00
 1 -13 1 0.13 0.00
 -1 13 0 0.01 0.00
 -1 13 1 -0.18 0.00
 -1 13 2 0.00 0.00
 -1 13 3 0.31 0.00
 0 -9 7 0.12 0.00
 0 -9 8 0.02 0.00
 0 -9 9 0.02 0.00
 0 -9 10 0.09 0.00
 0 -8 6 -0.18 0.00
 0 -8 7 -0.63 0.00
 0 -8 8 0.15 0.00
 0 -8 9 0.41 0.00
 0 -8 10 0.12 0.00
 0 -7 5 0.70 0.00
 0 -7 6 1.04 0.00
 0 -7 7 0.03 0.00
 0 -7 8 -0.35 0.00
 0 -7 9 -0.36 0.00
 0 -7 10 -0.05 0.00
 0 -7 11 0.32 0.00
 0 -6 6 -0.57 0.00
 0 -6 7 -0.53 0.00
 0 -6 8 -0.02 0.00
 0 -6 9 0.59 0.00
 0 -6 10 -0.13 0.00
 0 -6 11 -0.17 0.00
 0 -6 12 -0.15 0.00
 0 5 1 2.17 0.00
 0 5 0 3.46 0.00
 0 -5 1 -6.04 0.00
 0 -5 2 -2.36 0.00
 0 -5 7 -1.30 0.00
 0 -5 8 -0.72 0.00
 0 -5 9 -0.06 0.00
 0 -5 10 -0.01 0.00
 0 -5 11 -0.45 0.00
 0 -5 12 -0.11 0.00
 0 4 11 0.23 0.00
 0 4 0 0.49 0.00
 0 -4 1 8.13 0.00
 0 -4 2 7.99 0.00
 0 -4 3 -1.08 0.00
 0 -4 4 -0.26 0.00
 0 -4 5 -1.86 0.00
 0 -4 6 0.08 0.00
 0 -4 7 1.30 0.00
 0 -4 8 0.83 0.00
 0 -4 9 0.43 0.00
 0 -4 10 -0.28 0.00
 0 -4 11 0.10 0.00
 0 -4 12 0.38 0.00
 0 3 12 -0.05 0.00
 0 3 0 -0.76 0.00
 0 -3 1 -2.54 0.00
 0 -3 2 -7.29 0.00
 0 -3 3 7.45 0.00
 0 -3 4 3.04 0.00
 0 -3 5 2.21 0.00
 0 -3 6 -0.30 0.00
 0 -3 7 -1.82 0.00
 0 -3 8 -0.55 0.00
 0 -3 9 0.09 0.00
 0 -3 10 0.45 0.00
 0 -3 11 0.31 0.00
 0 -3 12 -0.23 0.00
 0 2 12 0.13 0.00
 0 2 0 8.63 0.00
 0 -2 1 5.66 0.00
 0 -2 2 8.52 0.00
 0 -2 3 -7.70 0.00
 0 -2 4 -9.35 0.00
 0 -2 5 -0.91 0.00
 0 -2 6 0.13 0.00
 0 -2 7 1.86 0.00
 0 -2 8 0.43 0.00
 0 -2 9 -0.58 0.00
 0 -2 10 -0.05 0.00
 0 -2 11 -0.20 0.00
 0 -2 12 0.43 0.00
 0 1 12 -0.22 0.00
 0 1 0 0.27 0.00
 0 -1 1 0.79 0.00
 0 -1 2 -1.56 0.00
 0 -1 3 -1.56 0.00
 0 -1 4 6.71 0.00
 0 -1 5 0.24 0.00
 0 -1 6 -1.07 0.00
 0 -1 7 -0.53 0.00
 0 -1 8 -0.01 0.00
 0 -1 9 0.59 0.00
 0 -1 10 0.61 0.00
 0 -1 11 -0.91 0.00
 0 0 12 0.36 0.00
 0 0 1 1.30 0.00
 0 0 2 -1.97 0.00
 0 0 3 -2.32 0.00
 0 0 4 -5.50 0.00
 0 0 5 2.53 0.00
 0 0 6 0.81 0.00
 0 0 7 0.39 0.00
 0 0 8 -0.60 0.00
 0 0 9 0.05 0.00
 0 0 10 -0.01 0.00
 0 0 11 0.15 0.00
 0 -1 12 -0.08 0.00
 0 1 1 -10.28 0.00
 0 1 2 7.69 0.00
 0 1 3 -4.55 0.00
 0 1 4 2.37 0.00
 0 1 5 -2.20 0.00
 0 1 6 -2.22 0.00
 0 1 7 -0.04 0.00
 0 1 8 0.37 0.00
 0 1 9 0.10 0.00
 0 1 10 0.15 0.00
 0 1 11 0.12 0.00
 0 2 1 -0.84 0.00
 0 2 2 -11.66 0.00
 0 2 3 -2.09 0.00
 0 2 4 -0.63 0.00
 0 2 5 2.58 0.00
 0 2 6 2.37 0.00
 0 2 7 -0.18 0.00
 0 2 8 -0.64 0.00
 0 2 9 -0.46 0.00
 0 2 10 0.27 0.00
 0 2 11 -0.19 0.00
 0 3 1 2.79 0.00
 0 3 2 13.47 0.00
 0 3 3 4.07 0.00
 0 3 4 -2.43 0.00
 0 3 5 -1.40 0.00
 0 3 6 -1.18 0.00
 0 3 7 1.00 0.00
 0 3 8 0.29 0.00
 0 3 9 0.36 0.00
 0 3 10 -0.15 0.00
 0 3 11 -0.31 0.00
 0 4 1 -8.83 0.00
 0 4 2 -7.92 0.00
 0 4 3 -0.14 0.00
 0 4 4 0.87 0.00
 0 4 5 1.46 0.00
 0 4 6 0.13 0.00
 0 4 7 -0.63 0.00
 0 4 8 -0.92 0.00
 0 4 9 -0.03 0.00
 0 4 10 0.20 0.00
 0 4 12 0.52 0.00
 0 -5 6 1.32 0.00
 0 -5 5 2.29 0.00
 0 -5 4 1.11 0.00
 0 -5 3 -2.44 0.00
 0 5 2 2.82 0.00
 0 5 3 0.14 0.00
 0 5 4 -1.87 0.00
 0 5 5 -0.41 0.00
 0 5 6 0.32 0.00
 0 5 7 0.48 0.00
 0 5 8 0.39 0.00
 0 5 9 -0.28 0.00
 0 5 10 -0.15 0.00
 0 5 11 0.06 0.00
 0 -6 5 -1.72 0.00
 0 -6 4 1.17 0.00
 0 -6 3 1.58 0.00
 0 -6 2 3.67 0.00
 0 -6 1 1.01 0.00
 0 6 0 -1.23 0.00
 0 6 1 -2.91 0.00
 0 6 2 -1.43 0.00
 0 6 3 0.33 0.00
 0 6 4 1.73 0.00
 0 6 5 0.10 0.00
 0 6 6 -0.32 0.00
 0 6 7 -0.05 0.00
 0 6 8 0.25 0.00
 0 6 9 0.23 0.00
 0 6 10 0.25 0.00
 0 6 11 0.30 0.00
 0 -7 4 -0.10 0.00
 0 -7 3 -1.60 0.00
 0 -7 2 -0.93 0.00
 0 -7 1 -0.53 0.00
 0 7 0 1.82 0.00
 0 7 1 1.40 0.00
 0 7 2 0.19 0.00
 0 7 3 -1.03 0.00
 0 7 4 -1.23 0.00
 0 7 5 -0.51 0.00
 0 7 6 0.69 0.00
 0 7 7 -0.11 0.00
 0 7 8 0.08 0.00
 0 7 9 0.01 0.00
 0 7 10 -0.24 0.00
 0 -8 5 -0.72 0.00
 0 -8 4 0.54 0.00
 0 -8 3 1.31 0.00
 0 -8 2 0.40 0.00
 0 -8 1 -0.15 0.00
 0 8 0 -1.43 0.00
 0 8 1 -0.41 0.00
 0 8 2 -0.26 0.00
 0 8 3 0.73 0.00
 0 8 4 0.51 0.00
 0 8 5 -0.02 0.00
 0 8 6 0.34 0.00
 0 8 7 -0.36 0.00
 0 8 8 0.06 0.00
 0 8 9 0.38 0.00
 0 -9 6 0.30 0.00
 0 -9 5 -0.15 0.00
 0 -9 4 -0.28 0.00
 0 -9 3 -1.19 0.00
 0 -9 2 0.09 0.00
 0 -9 1 0.37 0.00
 0 9 0 0.99 0.00
 0 9 1 -1.26 0.00
 0 9 2 -0.25 0.00
 0 9 3 -0.26 0.00
 0 9 4 -0.31 0.00
 0 9 5 -0.38 0.00
 0 9 6 0.49 0.00
 0 9 7 0.14 0.00
 0 9 8 1.61 0.00
 0 -10 8 0.12 0.00
 0 -10 7 -0.16 0.00
 0 -10 6 0.06 0.00
 0 -10 5 0.12 0.00
 0 -10 4 0.36 0.00
 0 -10 3 0.57 0.00
 0 -10 2 -0.40 0.00
 0 -10 1 -0.22 0.00
 0 10 0 -0.25 0.00
 0 10 1 0.56 0.00
 0 10 2 -0.01 0.00
 0 10 3 1.07 0.00
 0 10 4 0.58 0.00
 0 10 5 1.30 0.00
 0 10 6 0.04 0.00
 0 10 7 -3.03 0.00
 0 10 8 -0.21 0.00
 0 -11 7 0.07 0.00
 0 -11 6 -0.06 0.00
 0 -11 5 -0.18 0.00
 0 -11 4 -0.25 0.00
 0 -11 3 -0.23 0.00
 0 -11 2 0.02 0.00
 0 -11 1 0.07 0.00
 0 11 0 0.15 0.00
 0 11 1 0.52 0.00
 0 11 2 -0.11 0.00
 0 11 3 0.03 0.00
 0 11 4 -0.04 0.00
 0 11 5 2.81 0.00
 0 11 6 0.36 0.00
 0 11 7 -4.51 0.00
 0 -12 6 -0.31 0.00
 0 -12 5 0.02 0.00
 0 -12 4 0.23 0.00
 0 -12 3 0.15 0.00
 0 -12 2 -0.10 0.00
 0 -12 1 -0.18 0.00
 0 12 0 0.11 0.00
 0 12 1 0.18 0.00
 0 12 2 0.19 0.00
 0 12 3 -0.58 0.00
 0 -13 5 -0.26 0.00
 0 -13 4 -0.09 0.00
 0 -13 3 -0.06 0.00
 0 -13 2 0.12 0.00
 0 -13 1 -0.10 0.00
 0 13 0 0.17 0.00
 0 13 1 -0.43 0.00
 0 13 2 -0.28 0.00
 1 -9 9 0.18 0.00
 1 -8 8 0.02 0.00
 1 -8 9 0.30 0.00
 1 -8 10 -0.02 0.00
 1 -7 8 -0.13 0.00
 1 -7 9 -0.31 0.00
 1 -7 10 0.03 0.00
 1 -7 11 0.28 0.00
 1 -6 7 -0.93 0.00
 1 -6 8 -0.53 0.00
 1 -6 9 0.45 0.00
 1 -6 10 0.08 0.00
 1 -6 11 -0.31 0.00
 1 -5 4 -0.23 0.00
 1 -5 5 1.76 0.00
 1 -5 6 1.40 0.00
 1 -5 11 -0.42 0.00
 1 -4 4 1.56 0.00
 1 -4 5 -1.88 0.00
 1 -4 6 -0.97 0.00
 1 -4 7 0.56 0.00
 1 -4 12 0.25 0.00
 1 -3 4 1.24 0.00
 1 -3 5 2.76 0.00
 1 -3 6 0.68 0.00
 1 -3 7 -1.03 0.00
 1 -3 8 -0.56 0.00
 -1 2 13 0.05 0.00
 -1 2 0 -2.32 0.00
 1 -2 3 -2.93 0.00
 1 -2 4 -7.26 0.00
 1 -2 5 -2.54 0.00
 1 -2 6 -1.25 0.00
 1 -2 7 1.59 0.00
 1 -2 8 0.63 0.00
 1 -2 9 -0.04 0.00
 -1 1 13 0.31 0.00
 -1 1 0 6.53 0.00
 1 -1 1 -5.47 0.00
 1 -1 2 -8.55 0.00
 1 -1 3 -0.43 0.00
 1 -1 4 6.30 0.00
 1 -1 5 1.68 0.00
 1 -1 6 0.07 0.00
 1 -1 7 -0.63 0.00
 1 -1 8 -0.89 0.00
 1 -1 9 0.10 0.00
 1 -1 10 0.58 0.00
 -1 0 13 -0.35 0.00
 1 0 0 145.57 0.00
 1 0 1 5.58 0.00
 1 0 2 4.20 0.00
 1 0 3 -1.41 0.00
 1 0 4 -6.06 0.00
 1 0 5 0.47 0.00
 1 0 6 0.46 0.00
 1 0 7 0.87 0.00
 1 0 8 0.05 0.00
 1 0 9 0.54 0.00
 1 0 10 -0.41 0.00
 -1 -1 13 0.29 0.00
 1 1 0 -11.81 0.00
 1 1 1 -14.68 0.00
 1 1 2 2.91 0.00
 1 1 3 -3.71 0.00
 1 1 4 5.08 0.00
 1 1 5 -0.93 0.00
 1 1 6 -1.69 0.00
 1 1 7 -0.50 0.00
 1 1 8 -0.24 0.00
 1 1 9 0.10 0.00
 1 1 10 -0.03 0.00
 -1 -2 13 0.23 0.00
 -1 -2 1 6.53 0.00
 1 2 0 8.35 0.00
 1 2 1 7.65 0.00
 1 2 2 -6.74 0.00
 1 2 3 -2.62 0.00
 1 2 4 -2.08 0.00
 1 2 5 1.33 0.00
 1 2 6 2.50 0.00
 1 2 7 0.41 0.00
 1 2 8 -0.91 0.00
 1 2 9 -0.03 0.00
 1 2 10 0.00 0.00
 -1 -3 1 1.79 0.00
 1 3 1 -1.38 0.00
 1 3 2 10.49 0.00
 1 3 3 5.02 0.00
 1 3 4 -0.26 0.00
 1 3 5 -1.08 0.00
 1 3 6 -1.44 0.00
 1 3 7 0.37 0.00
 1 3 8 -0.02 0.00
 1 3 9 0.84 0.00
 1 3 10 -0.22 0.00
 -1 -4 7 1.88 0.00
 -1 -4 6 1.10 0.00
 -1 -4 5 -0.99 0.00
 -1 -4 4 -1.81 0.00
 -1 -4 3 -2.78 0.00
 -1 -4 2 4.96 0.00
 -1 -4 1 9.85 0.00
 1 4 1 -3.85 0.00
 1 4 2 -6.83 0.00
 1 4 3 -2.03 0.00
 1 4 4 0.29 0.00
 1 4 5 1.11 0.00
 1 4 6 0.57 0.00
 1 4 7 -0.09 0.00
 1 4 8 -1.01 0.00
 1 4 9 -0.03 0.00
 1 4 10 -0.03 0.00
 1 4 11 0.18 0.00
 -1 -5 6 0.19 0.00
 -1 -5 5 2.28 0.00
 -1 -5 4 1.68 0.00
 -1 -5 3 0.28 0.00
 -1 -5 2 -2.22 0.00
 -1 -5 1 -5.79 0.00
 1 5 0 -0.37 0.00
 1 5 1 0.76 0.00
 1 5 2 3.62 0.00
 1 5 3 1.30 0.00
 1 5 4 -0.81 0.00
 1 5 5 -0.43 0.00
 1 5 6 -0.28 0.00
 1 5 7 0.13 0.00
 1 5 8 0.27 0.00
 1 5 9 -0.01 0.00
 1 5 10 0.14 0.00
 1 5 11 0.13 0.00
 -1 -6 5 -1.65 0.00
 -1 -6 4 -0.72 0.00
 -1 -6 3 1.00 0.00
 -1 -6 2 2.93 0.00
 -1 -6 1 3.06 0.00
 1 6 0 0.22 0.00
 1 6 1 -2.18 0.00
 1 6 2 -1.96 0.00
 1 6 3 -0.95 0.00
 1 6 4 1.11 0.00
 1 6 5 0.54 0.00
 1 6 6 -0.13 0.00
 1 6 7 0.07 0.00
 1 6 8 0.18 0.00
 1 6 9 0.26 0.00
 1 6 10 0.31 0.00
 -1 -7 4 0.09 0.00
 -1 -7 3 -0.42 0.00
 -1 -7 2 -1.71 0.00
 -1 -7 1 -1.25 0.00
 1 7 0 0.97 0.00
 1 7 1 0.99 0.00
 1 7 2 1.10 0.00
 1 7 3 -0.52 0.00
 1 7 4 -0.94 0.00
 1 7 5 -0.45 0.00
 1 7 6 0.18 0.00
 1 7 7 -0.10 0.00
 1 7 8 0.34 0.00
 1 7 9 0.08 0.00
 -1 -8 4 -0.31 0.00
 -1 -8 3 1.09 0.00
 -1 -8 2 0.70 0.00
 -1 -8 1 0.50 0.00
 1 8 0 -0.66 0.00
 1 8 1 -0.76 0.00
 1 8 2 -0.56 0.00
 1 8 3 0.18 0.00
 1 8 4 0.83 0.00
 1 8 5 0.43 0.00
 1 8 6 0.16 0.00
 1 8 7 -0.64 0.00
 1 8 8 0.27 0.00
 -1 -9 5 0.49 0.00
 -1 -9 4 -0.34 0.00
 -1 -9 3 -0.85 0.00
 -1 -9 2 -0.40 0.00
 -1 -9 1 -0.20 0.00
 1 9 0 0.87 0.00
 1 9 1 -3.43 0.00
 1 9 2 1.05 0.00
 1 9 3 -0.03 0.00
 1 9 4 0.43 0.00
 1 9 5 -0.04 0.00
 1 9 6 0.32 0.00
 1 9 7 0.24 0.00
 1 9 8 2.60 0.00
 -1 -10 8 0.27 0.00
 -1 -10 7 -0.08 0.00
 -1 -10 6 -0.05 0.00
 -1 -10 5 -0.08 0.00
 -1 -10 4 0.07 0.00
 -1 -10 3 0.57 0.00
 -1 -10 2 0.00 0.00
 -1 -10 1 -0.05 0.00
 1 10 0 0.18 0.00
 1 10 1 0.67 0.00
 1 10 2 0.18 0.00
 1 10 3 1.02 0.00
 1 10 4 1.04 0.00
 1 10 5 3.36 0.00
 1 10 6 -0.39 0.00
 1 10 7 -4.47 0.00
 -1 -11 8 -0.52 0.00
 -1 -11 7 0.21 0.00
 -1 -11 6 0.19 0.00
 -1 -11 5 0.12 0.00
 -1 -11 4 -0.13 0.00
 -1 -11 3 -0.24 0.00
 -1 -11 2 -0.30 0.00
 -1 -11 1 -0.08 0.00
 1 11 0 0.36 0.00
 1 11 1 0.32 0.00
 1 11 2 0.14 0.00
 1 11 3 -0.14 0.00
 1 11 4 -0.17 0.00
 1 11 5 3.96 0.00
 -1 -12 7 -0.20 0.00
 -1 -12 6 -0.18 0.00
 -1 -12 5 -0.13 0.00
 -1 -12 4 0.23 0.00
 -1 -12 3 0.33 0.00
 -1 -12 2 -0.06 0.00
 -1 -12 1 -0.10 0.00
 1 12 0 0.00 0.00
 1 12 1 0.13 0.00
 1 12 2 -0.02 0.00
 1 12 3 0.27 0.00
 -1 -13 5 -0.14 0.00
 -1 -13 4 -0.18 0.00
 -1 -13 3 -0.01 0.00
 -1 -13 2 -0.16 0.00
 -1 -13 1 0.16 0.00
 1 13 0 0.19 0.00
 1 13 1 -0.58 0.00
 2 -9 8 -0.48 0.00
 2 -8 8 0.01 0.00
 2 -8 9 0.31 0.00
 -2 7 3 -2.06 0.00
 -2 7 2 -1.88 0.00
 2 -7 8 0.16 0.00
 2 -7 9 -0.23 0.00
 2 -7 10 -0.08 0.00
 2 -6 3 1.40 0.00
 2 -6 4 2.61 0.00
 2 -6 9 0.24 0.00
 2 -6 10 0.12 0.00
 2 -6 11 -0.25 0.00
 2 -5 3 -3.14 0.00
 2 -5 4 -0.96 0.00
 2 -5 5 0.45 0.00
 2 -5 10 -0.23 0.00
 2 -5 11 -0.10 0.00
 2 -4 2 4.10 0.00
 2 -4 3 2.35 0.00
 2 -4 4 2.98 0.00
 2 -4 5 -1.42 0.00
 2 -4 11 0.02 0.00
 -2 3 1 9.97 0.00
 -2 3 0 4.30 0.00
 2 -3 1 2.19 0.00
 2 -3 2 -6.74 0.00
 2 -3 3 -0.98 0.00
 2 -3 4 -0.66 0.00
 2 -3 5 2.22 0.00
 2 -3 6 1.38 0.00
 -2 2 1 -7.68 0.00
 -2 2 0 -7.86 0.00
 2 -2 1 2.57 0.00
 2 -2 2 13.36 0.00
 2 -2 3 0.84 0.00
 2 -2 4 -4.14 0.00
 2 -2 5 -2.79 0.00
 2 -2 6 -1.85 0.00
 2 -2 7 0.78 0.00
 -2 1 1 10.50 0.00
 -2 1 0 17.51 0.00
 2 -1 1 -10.08 0.00
 2 -1 2 -9.56 0.00
 2 -1 3 -1.34 0.00
 2 -1 4 4.36 0.00
 2 -1 5 2.44 0.00
 2 -1 6 0.83 0.00
 2 -1 7 -0.39 0.00
 2 -1 8 -1.04 0.00
 -2 0 1 -1.11 0.00
 2 0 0 114.75 0.00
 2 0 1 3.03 0.00
 2 0 2 11.21 0.00
 2 0 3 -1.02 0.00
 2 0 4 -4.72 0.00
 2 0 5 -0.86 0.00
 2 0 6 -0.20 0.00
 2 0 7 0.89 0.00
 2 0 8 0.79 0.00
 -2 -1 1 25.36 0.00
 2 1 0 -12.26 0.00
 2 1 1 -17.33 0.00
 2 1 2 -0.27 0.00
 2 1 3 -4.54 0.00
 2 1 4 5.51 0.00
 2 1 5 0.71 0.00
 2 1 6 -0.81 0.00
 2 1 7 -0.76 0.00
 2 1 8 -0.28 0.00
 -2 -2 13 -0.01 0.00
 -2 -2 2 -5.03 0.00
 -2 -2 1 -0.29 0.00
 2 2 0 8.11 0.00
 2 2 1 10.47 0.00
 2 2 2 -0.02 0.00
 2 2 3 -1.70 0.00
 2 2 4 -2.98 0.00
 2 2 5 0.16 0.00
 2 2 6 1.81 0.00
 2 2 7 0.51 0.00
 2 2 8 -0.34 0.00
 -2 -3 13 0.26 0.00
 -2 -3 7 -1.00 0.00
 -2 -3 2 -0.28 0.00
 -2 -3 1 3.49 0.00
 2 3 0 -7.49 0.00
 2 3 1 -5.56 0.00
 2 3 2 6.11 0.00
 2 3 3 4.23 0.00
 2 3 4 0.99 0.00
 2 3 5 -0.03 0.00
 2 3 6 -1.25 0.00
 2 3 7 -0.45 0.00
 2 3 8 0.28 0.00
 -2 -4 7 1.36 0.00
 -2 -4 6 2.14 0.00
 -2 -4 5 -0.26 0.00
 -2 -4 4 -0.92 0.00
 -2 -4 3 -4.91 0.00
 -2 -4 2 3.00 0.00
 -2 -4 1 6.40 0.00
 2 4 0 4.40 0.00
 2 4 1 0.30 0.00
 2 4 2 -4.12 0.00
 2 4 3 -2.28 0.00
 2 4 4 -0.61 0.00
 2 4 5 0.47 0.00
 2 4 6 0.89 0.00
 2 4 7 -0.07 0.00
 2 4 8 -0.17 0.00
 2 4 9 -0.44 0.00
 2 4 10 0.08 0.00
 -2 -5 6 -0.28 0.00
 -2 -5 5 0.63 0.00
 -2 -5 4 2.36 0.00
 -2 -5 3 1.69 0.00
 -2 -5 2 0.09 0.00
 -2 -5 1 -4.91 0.00
 2 5 0 -2.19 0.00
 2 5 1 -1.11 0.00
 2 5 2 2.73 0.00
 2 5 3 2.01 0.00
 2 5 4 -0.09 0.00
 2 5 5 -0.33 0.00
 2 5 6 -0.37 0.00
 2 5 7 -0.60 0.00
 2 5 8 0.59 0.00
 2 5 9 -0.22 0.00
 2 5 10 0.59 0.00
 -2 -6 6 0.88 0.00
 -2 -6 5 -1.95 0.00
 -2 -6 4 -1.05 0.00
 -2 -6 3 -0.69 0.00
 -2 -6 2 1.82 0.00
 -2 -6 1 3.12 0.00
 2 6 0 1.33 0.00
 2 6 1 -0.61 0.00
 2 6 2 -1.93 0.00
 2 6 3 -1.31 0.00
 2 6 4 0.41 0.00
 2 6 5 0.46 0.00
 2 6 6 0.19 0.00
 2 6 7 0.06 0.00
 2 6 8 0.34 0.00
 2 6 9 0.12 0.00
 -2 -7 5 0.98 0.00
 -2 -7 4 1.05 0.00
 -2 -7 3 0.32 0.00
 -2 -7 2 -1.22 0.00
 -2 -7 1 -1.37 0.00
 2 7 0 -0.18 0.00
 2 7 1 0.65 0.00
 2 7 2 0.55 0.00
 2 7 3 -0.13 0.00
 2 7 4 -0.46 0.00
 2 7 5 -0.37 0.00
 2 7 6 -0.30 0.00
 2 7 7 -0.04 0.00
 2 7 8 0.34 0.00
 -2 -8 4 -0.46 0.00
 -2 -8 3 0.20 0.00
 -2 -8 2 0.70 0.00
 -2 -8 1 0.96 0.00
 2 8 0 -0.32 0.00
 2 8 1 -0.25 0.00
 2 8 2 -0.78 0.00
 2 8 3 -0.07 0.00
 2 8 4 0.60 0.00
 2 8 5 0.60 0.00
 2 8 6 -0.26 0.00
 2 8 7 -0.12 0.00
 2 8 8 0.23 0.00
 -2 -9 5 0.48 0.00
 -2 -9 4 0.11 0.00
 -2 -9 3 -0.53 0.00
 -2 -9 2 -0.73 0.00
 -2 -9 1 -0.25 0.00
 2 9 0 -0.09 0.00
 2 9 1 -4.48 0.00
 2 9 2 1.54 0.00
 2 9 3 0.72 0.00
 2 9 4 1.65 0.00
 2 9 5 0.36 0.00
 2 9 6 -0.33 0.00
 2 9 7 0.76 0.00
 -2 -10 7 0.09 0.00
 -2 -10 6 0.00 0.00
 -2 -10 5 -0.29 0.00
 -2 -10 4 -0.01 0.00
 -2 -10 3 0.40 0.00
 -2 -10 2 0.39 0.00
 -2 -10 1 0.32 0.00
 2 10 0 -0.18 0.00
 2 10 1 1.22 0.00
 2 10 2 -0.30 0.00
 2 10 3 0.80 0.00
 2 10 4 1.08 0.00
 2 10 5 4.54 0.00
 2 10 6 -1.05 0.00
 -2 -11 8 -0.53 0.00
 -2 -11 7 0.39 0.00
 -2 -11 6 0.23 0.00
 -2 -11 5 0.36 0.00
 -2 -11 4 0.01 0.00
 -2 -11 3 -0.10 0.00
 -2 -11 2 -0.55 0.00
 -2 -11 1 0.02 0.00
 2 11 0 0.11 0.00
 2 11 1 0.37 0.00
 2 11 2 -0.12 0.00
 2 11 3 0.06 0.00
 2 11 4 0.24 0.00
 2 11 5 3.54 0.00
 -2 -12 7 -0.20 0.00
 -2 -12 6 -0.26 0.00
 -2 -12 5 -0.07 0.00
 -2 -12 4 0.18 0.00
 -2 -12 3 0.27 0.00
 -2 -12 2 0.23 0.00
 -2 -12 1 0.01 0.00
 2 12 0 -0.29 0.00
 2 12 1 0.21 0.00
 2 12 2 -0.27 0.00
 -2 -13 4 -0.20 0.00
 -2 -13 3 -0.06 0.00
 -2 -13 2 -0.05 0.00
 -2 -13 1 0.30 0.00
 2 13 0 0.22 0.00
 3 -8 8 -0.09 0.00
 -3 7 4 0.44 0.00
 -3 7 3 -1.15 0.00
 -3 7 2 -2.16 0.00
 -3 7 1 -0.88 0.00
 -3 7 0 0.02 0.00
 3 -7 1 1.68 0.00
 3 -7 8 0.25 0.00
 3 -7 9 -0.23 0.00
 -3 6 5 -0.86 0.00
 -3 6 4 0.20 0.00
 -3 6 3 1.20 0.00
 -3 6 2 2.13 0.00
 -3 6 1 1.10 0.00
 -3 6 0 -1.87 0.00
 3 -6 1 -2.71 0.00
 3 -6 2 -0.86 0.00
 3 -6 3 0.71 0.00
 3 -6 7 -1.05 0.00
 3 -6 8 -0.97 0.00
 3 -6 9 -0.18 0.00
 3 -6 10 0.38 0.00
 -3 5 4 -0.37 0.00
 -3 5 3 -2.35 0.00
 -3 5 2 -3.00 0.00
 -3 5 1 -0.96 0.00
 -3 5 0 4.07 0.00
 3 -5 1 3.02 0.00
 3 -5 2 0.10 0.00
 3 -5 3 -1.80 0.00
 3 -5 4 -1.33 0.00
 3 -5 9 -0.24 0.00
 3 -5 10 -0.16 0.00
 -3 4 3 3.73 0.00
 -3 4 2 -1.05 0.00
 -3 4 1 -4.52 0.00
 -3 4 0 -8.75 0.00
 3 -4 1 0.88 0.00
 3 -4 2 0.22 0.00
 3 -4 3 2.21 0.00
 3 -4 4 3.10 0.00
 3 -4 10 -0.11 0.00
 -3 3 3 -4.34 0.00
 -3 3 2 1.89 0.00
 -3 3 1 8.14 0.00
 -3 3 0 3.20 0.00
 3 -3 1 5.76 0.00
 3 -3 2 -4.37 0.00
 3 -3 3 -2.13 0.00
 3 -3 4 -2.23 0.00
 3 -3 5 1.09 0.00
 -3 2 2 -7.27 0.00
 -3 2 1 -5.68 0.00
 -3 2 0 -13.14 0.00
 3 -2 1 0.09 0.00
 3 -2 2 8.98 0.00
 3 -2 3 4.21 0.00
 3 -2 4 -1.68 0.00
 3 -2 5 -1.93 0.00
 -3 1 2 0.44 0.00
 -3 1 1 14.74 0.00
 -3 1 0 19.10 0.00
 3 -1 1 -5.25 0.00
 3 -1 2 -10.31 0.00
 3 -1 3 -1.35 0.00
 3 -1 4 1.56 0.00
 3 -1 5 2.15 0.00
 -3 0 2 -6.81 0.00
 -3 0 1 -0.39 0.00
 3 0 0 73.03 0.00
 3 0 1 3.10 0.00
 3 0 2 10.94 0.00
 3 0 3 1.05 0.00
 3 0 4 -2.78 0.00
 3 0 5 -1.69 0.00
 -3 -1 3 -1.79 0.00
 -3 -1 2 7.77 0.00
 -3 -1 1 30.01 0.00
 3 1 0 -11.90 0.00
 3 1 1 -11.35 0.00
 3 1 2 -4.39 0.00
 3 1 3 -4.33 0.00
 3 1 4 4.08 0.00
 3 1 5 1.43 0.00
 3 1 6 0.35 0.00
 -3 -2 3 -5.42 0.00
 -3 -2 2 -8.20 0.00
 -3 -2 1 -3.67 0.00
 3 2 0 2.26 0.00
 3 2 1 12.12 0.00
 3 2 2 2.83 0.00
 3 2 3 0.23 0.00
 3 2 4 -2.50 0.00
 3 2 5 -1.18 0.00
 -3 -3 7 0.35 0.00
 -3 -3 6 -2.06 0.00
 -3 -3 5 -3.23 0.00
 -3 -3 4 0.53 0.00
 -3 -3 3 9.67 0.00
 -3 -3 2 2.29 0.00
 -3 -3 1 6.68 0.00
 3 3 0 -6.80 0.00
 3 3 1 -5.38 0.00
 3 3 2 1.30 0.00
 3 3 3 2.38 0.00
 3 3 4 1.75 0.00
 3 3 5 0.53 0.00
 3 3 6 -0.73 0.00
 3 3 7 -0.57 0.00
 3 3 8 0.13 0.00
 3 3 9 0.17 0.00
 3 3 10 0.07 0.00
 -3 -4 7 1.14 0.00
 -3 -4 6 1.67 0.00
 -3 -4 5 1.22 0.00
 -3 -4 4 0.27 0.00
 -3 -4 3 -4.35 0.00
 -3 -4 2 0.10 0.00
 -3 -4 1 2.75 0.00
 3 4 0 3.27 0.00
 3 4 1 3.02 0.00
 3 4 2 -1.34 0.00
 3 4 3 -1.80 0.00
 3 4 4 -0.78 0.00
 3 4 5 -0.39 0.00
 3 4 6 0.78 0.00
 3 4 7 0.21 0.00
 3 4 8 0.16 0.00
 3 4 9 -0.35 0.00
 -3 -5 6 -1.43 0.00
 -3 -5 5 -0.17 0.00
 -3 -5 4 1.36 0.00
 -3 -5 3 2.72 0.00
 -3 -5 2 1.54 0.00
 -3 -5 1 -2.56 0.00
 3 5 0 -2.29 0.00
 3 5 1 -2.41 0.00
 3 5 2 1.66 0.00
 3 5 3 1.41 0.00
 3 5 4 0.48 0.00
 3 5 5 -0.24 0.00
 3 5 6 -0.45 0.00
 3 5 7 -0.50 0.00
 3 5 8 0.31 0.00
 3 5 9 -0.21 0.00
 -3 -6 7 0.84 0.00
 -3 -6 6 0.68 0.00
 -3 -6 5 -0.80 0.00
 -3 -6 4 -1.25 0.00
 -3 -6 3 -1.47 0.00
 -3 -6 2 0.16 0.00
 -3 -6 1 2.01 0.00
 3 6 0 1.91 0.00
 3 6 1 0.20 0.00
 3 6 2 -0.73 0.00
 3 6 3 -1.51 0.00
 3 6 4 0.27 0.00
 3 6 5 0.02 0.00
 3 6 6 0.13 0.00
 3 6 7 0.37 0.00
 3 6 8 0.06 0.00
 3 6 9 0.23 0.00
 -3 -7 6 -0.55 0.00
 -3 -7 5 1.22 0.00
 -3 -7 4 0.95 0.00
 -3 -7 3 1.10 0.00
 -3 -7 2 -0.35 0.00
 -3 -7 1 -1.24 0.00
 3 7 0 -0.33 0.00
 3 7 1 -0.47 0.00
 3 7 2 0.17 0.00
 3 7 3 -0.73 0.00
 3 7 4 0.19 0.00
 3 7 5 -0.35 0.00
 3 7 6 -0.51 0.00
 3 7 7 0.17 0.00
 3 7 8 0.07 0.00
 -3 -8 6 -0.07 0.00
 -3 -8 5 -0.47 0.00
 -3 -8 4 -0.92 0.00
 -3 -8 3 -0.30 0.00
 -3 -8 2 0.55 0.00
 -3 -8 1 0.66 0.00
 3 8 0 0.53 0.00
 3 8 1 -0.57 0.00
 3 8 2 0.30 0.00
 3 8 3 -0.81 0.00
 3 8 4 0.59 0.00
 3 8 5 0.04 0.00
 3 8 6 -0.23 0.00
 3 8 7 0.36 0.00
 -3 -9 5 0.65 0.00
 -3 -9 4 0.29 0.00
 -3 -9 3 -0.20 0.00
 -3 -9 2 -0.53 0.00
 -3 -9 1 -0.68 0.00
 3 9 0 -0.04 0.00
 3 9 1 -5.12 0.00
 3 9 2 2.34 0.00
 3 9 3 0.45 0.00
 3 9 4 3.31 0.00
 3 9 5 -0.07 0.00
 3 9 6 -0.23 0.00
 -3 -10 7 0.34 0.00
 -3 -10 6 0.04 0.00
 -3 -10 5 -0.23 0.00
 -3 -10 4 -0.03 0.00
 -3 -10 3 0.13 0.00
 -3 -10 2 0.86 0.00
 -3 -10 1 -0.09 0.00
 3 10 0 0.15 0.00
 3 10 1 0.34 0.00
 3 10 2 0.16 0.00
 3 10 3 -0.18 0.00
 3 10 4 1.22 0.00
 3 10 5 3.55 0.00
 -3 -11 8 -0.49 0.00
 -3 -11 7 0.19 0.00
 -3 -11 6 0.30 0.00
 -3 -11 5 0.24 0.00
 -3 -11 4 0.18 0.00
 -3 -11 3 -0.03 0.00
 -3 -11 2 -0.30 0.00
 -3 -11 1 -0.34 0.00
 3 11 0 0.56 0.00
 3 11 1 -0.41 0.00
 3 11 2 0.35 0.00
 3 11 3 -0.15 0.00
 3 11 4 1.10 0.00
 -3 -12 6 -0.14 0.00
 -3 -12 5 -0.23 0.00
 -3 -12 4 0.23 0.00
 -3 -12 3 0.09 0.00
 -3 -12 2 0.67 0.00
 -3 -12 1 -0.19 0.00
 3 12 0 -0.03 0.00
 3 12 1 -0.21 0.00
 -3 -13 3 0.07 0.00
 -3 -13 2 0.01 0.00
 4 -8 7 0.05 0.00
 -4 7 3 -0.35 0.00
 -4 7 2 -1.35 0.00
 -4 7 1 -1.29 0.00
 -4 7 0 -0.64 0.00
 4 -7 7 0.06 0.00
 4 -7 8 0.35 0.00
 -4 6 5 -1.17 0.00
 -4 6 4 -0.28 0.00
 -4 6 3 0.02 0.00
 -4 6 2 1.85 0.00
 -4 6 1 1.80 0.00
 -4 6 0 0.09 0.00
 4 -6 1 -2.21 0.00
 4 -6 2 -1.20 0.00
 4 -6 7 -0.71 0.00
 4 -6 8 -0.71 0.00
 4 -6 9 -0.57 0.00
 -4 5 6 0.98 0.00
 -4 5 5 1.43 0.00
 -4 5 4 0.86 0.00
 -4 5 3 -1.34 0.00
 -4 5 2 -2.60 0.00
 -4 5 1 -3.16 0.00
 -4 5 0 2.40 0.00
 4 -5 1 2.88 0.00
 4 -5 2 1.25 0.00
 4 -5 3 -0.73 0.00
 4 -5 7 0.19 0.00
 4 -5 8 0.53 0.00
 4 -5 9 -0.10 0.00
 4 -5 10 -0.10 0.00
 -4 4 5 -2.05 0.00
 -4 4 4 -0.82 0.00
 -4 4 3 2.50 0.00
 -4 4 2 0.71 0.00
 -4 4 1 -1.67 0.00
 -4 4 0 -5.38 0.00
 4 -4 1 -1.27 0.00
 4 -4 2 -1.72 0.00
 4 -4 3 0.91 0.00
 4 -4 8 -0.16 0.00
 4 -4 9 0.44 0.00
 4 -4 10 0.03 0.00
 -4 3 4 -0.12 0.00
 -4 3 3 -4.35 0.00
 -4 3 2 -1.19 0.00
 -4 3 1 2.99 0.00
 -4 3 0 2.87 0.00
 4 -3 1 5.25 0.00
 4 -3 2 -0.72 0.00
 4 -3 3 -2.20 0.00
 4 -3 4 -2.70 0.00
 4 -3 9 -0.67 0.00
 4 -3 10 -0.21 0.00
 -4 2 4 2.34 0.00
 -4 2 3 6.59 0.00
 -4 2 2 -1.00 0.00
 -4 2 1 -4.19 0.00
 -4 2 0 -10.47 0.00
 4 -2 1 -4.00 0.00
 4 -2 2 5.35 0.00
 4 -2 3 4.24 0.00
 4 -2 4 0.40 0.00
 4 -2 9 0.14 0.00
 4 -2 10 0.40 0.00
 -4 1 4 -4.41 0.00
 -4 1 3 -11.69 0.00
 -4 1 2 -1.73 0.00
 -4 1 1 10.46 0.00
 -4 1 0 19.07 0.00
 4 -1 1 -2.12 0.00
 4 -1 2 -6.70 0.00
 4 -1 3 -2.48 0.00
 4 -1 4 -0.33 0.00
 4 -1 10 0.45 0.00
 -4 0 4 3.66 0.00
 -4 0 3 2.97 0.00
 -4 0 2 -0.65 0.00
 -4 0 1 -1.53 0.00
 4 0 0 41.15 0.00
 4 0 1 -0.75 0.00
 4 0 2 9.31 0.00
 4 0 3 1.84 0.00
 4 0 4 -0.72 0.00
 4 0 10 -0.36 0.00
 -4 -1 4 -2.73 0.00
 -4 -1 3 -1.78 0.00
 -4 -1 2 6.55 0.00
 -4 -1 1 24.63 0.00
 4 1 0 -6.05 0.00
 4 1 1 -6.50 0.00
 4 1 2 -4.35 0.00
 4 1 3 -4.28 0.00
 4 1 4 1.94 0.00
 4 1 9 -0.20 0.00
 4 1 10 -0.21 0.00
 -4 -2 7 -0.62 0.00
 -4 -2 6 -0.26 0.00
 -4 -2 5 2.90 0.00
 -4 -2 4 1.97 0.00
 -4 -2 3 -2.40 0.00
 -4 -2 2 -6.10 0.00
 -4 -2 1 -7.24 0.00
 4 2 0 -0.62 0.00
 4 2 1 8.87 0.00
 4 2 2 3.83 0.00
 4 2 3 1.49 0.00
 4 2 4 -1.54 0.00
 4 2 5 -1.48 0.00
 4 2 9 0.06 0.00
 -4 -3 7 0.79 0.00
 -4 -3 6 -1.42 0.00
 -4 -3 5 -3.34 0.00
 -4 -3 4 -1.36 0.00
 -4 -3 3 5.22 0.00
 -4 -3 2 3.86 0.00
 -4 -3 1 6.68 0.00
 4 3 0 -3.09 0.00
 4 3 1 -4.17 0.00
 4 3 2 -1.45 0.00
 4 3 3 0.76 0.00
 4 3 4 1.27 0.00
 4 3 5 1.00 0.00
 4 3 6 -0.25 0.00
 4 3 7 -0.44 0.00
 4 3 8 0.04 0.00
 4 3 9 -0.01 0.00
 -4 -4 6 1.31 0.00
 -4 -4 5 1.74 0.00
 -4 -4 4 1.95 0.00
 -4 -4 3 -3.12 0.00
 -4 -4 2 -1.04 0.00
 -4 -4 1 -0.92 0.00
 4 4 0 1.62 0.00
 4 4 1 3.45 0.00
 4 4 2 0.21 0.00
 4 4 3 -0.43 0.00
 4 4 4 -1.05 0.00
 4 4 5 -0.64 0.00
 4 4 6 0.55 0.00
 4 4 7 0.15 0.00
 4 4 8 0.32 0.00
 4 4 9 -0.25 0.00
 -4 -5 6 -1.23 0.00
 -4 -5 5 -1.18 0.00
 -4 -5 4 0.46 0.00
 -4 -5 3 2.10 0.00
 -4 -5 2 2.31 0.00
 -4 -5 1 -0.19 0.00
 4 5 0 -1.56 0.00
 4 5 1 -2.11 0.00
 4 5 2 0.15 0.00
 4 5 3 1.01 0.00
 4 5 4 0.23 0.00
 4 5 5 -0.08 0.00
 4 5 6 -0.28 0.00
 4 5 7 -0.32 0.00
 4 5 8 0.19 0.00
 -4 -6 7 0.27 0.00
 -4 -6 6 1.02 0.00
 -4 -6 5 -0.33 0.00
 -4 -6 4 -0.28 0.00
 -4 -6 3 -1.87 0.00
 -4 -6 2 -0.95 0.00
 -4 -6 1 0.97 0.00
 4 6 0 1.10 0.00
 4 6 1 1.23 0.00
 4 6 2 -0.45 0.00
 4 6 3 -0.75 0.00
 4 6 4 -0.05 0.00
 4 6 5 -0.27 0.00
 4 6 6 0.07 0.00
 4 6 7 0.28 0.00
 4 6 8 -0.13 0.00
 -4 -7 7 -0.39 0.00
 -4 -7 6 -0.37 0.00
 -4 -7 5 0.74 0.00
 -4 -7 4 0.98 0.00
 -4 -7 3 1.02 0.00
 -4 -7 2 0.26 0.00
 -4 -7 1 -0.38 0.00
 4 7 0 -0.94 0.00
 4 7 1 -0.20 0.00
 4 7 2 -1.02 0.00
 4 7 3 -0.52 0.00
 4 7 4 -0.07 0.00
 4 7 5 0.06 0.00
 4 7 6 -0.56 0.00
 4 7 7 0.23 0.00
 -4 -8 6 0.26 0.00
 -4 -8 5 -0.36 0.00
 -4 -8 4 -0.70 0.00
 -4 -8 3 -0.63 0.00
 -4 -8 2 0.17 0.00
 -4 -8 1 0.91 0.00
 4 8 0 0.00 0.00
 4 8 1 0.32 0.00
 4 8 2 0.04 0.00
 4 8 3 -0.26 0.00
 4 8 4 -0.13 0.00
 4 8 5 -0.03 0.00
 4 8 6 -0.23 0.00
 -4 -9 5 0.41 0.00
 -4 -9 4 0.48 0.00
 -4 -9 3 0.03 0.00
 -4 -9 2 -0.45 0.00
 -4 -9 1 -0.26 0.00
 4 9 0 -0.74 0.00
 4 9 1 -2.98 0.00
 4 9 2 1.16 0.00
 4 9 3 0.92 0.00
 4 9 4 2.97 0.00
 4 9 5 -0.05 0.00
 4 9 6 -0.10 0.00
 -4 -10 6 0.10 0.00
 -4 -10 5 -0.04 0.00
 -4 -10 4 -0.12 0.00
 -4 -10 3 0.00 0.00
 -4 -10 2 0.33 0.00
 -4 -10 1 0.25 0.00
 4 10 0 -0.56 0.00
 4 10 1 0.41 0.00
 4 10 2 -0.56 0.00
 4 10 3 0.32 0.00
 4 10 4 0.19 0.00
 -4 -11 7 -0.08 0.00
 -4 -11 6 0.04 0.00
 -4 -11 5 0.23 0.00
 -4 -11 4 0.11 0.00
 -4 -11 3 0.19 0.00
 -4 -11 2 -0.23 0.00
 -4 -11 1 0.09 0.00
 4 11 0 -0.03 0.00
 4 11 1 0.09 0.00
 4 11 2 -0.15 0.00
 4 11 3 0.42 0.00
 -4 -12 6 -0.28 0.00
 -4 -12 5 -0.15 0.00
 -4 -12 4 0.14 0.00
 -4 -12 3 0.08 0.00
 -4 -12 2 0.69 0.00
 -4 -12 1 0.05 0.00
 5 -7 6 -0.60 0.00
 5 -7 7 -0.09 0.00
 -5 6 3 -0.47 0.00
 -5 6 2 0.69 0.00
 -5 6 1 2.04 0.00
 -5 6 0 0.87 0.00
 5 -6 6 0.47 0.00
 5 -6 7 -0.01 0.00
 -5 5 5 1.41 0.00
 -5 5 4 1.03 0.00
 -5 5 3 -0.01 0.00
 -5 5 2 -1.83 0.00
 -5 5 1 -3.09 0.00
 -5 5 0 0.28 0.00
 5 -5 1 2.09 0.00
 5 -5 5 -0.89 0.00
 5 -5 6 -0.67 0.00
 5 -5 7 0.12 0.00
 5 -5 8 0.37 0.00
 5 -5 9 0.13 0.00
 -5 4 6 -0.38 0.00
 -5 4 5 -1.97 0.00
 -5 4 4 -1.57 0.00
 -5 4 3 0.88 0.00
 -5 4 2 0.48 0.00
 -5 4 1 0.94 0.00
 -5 4 0 -2.69 0.00
 5 -4 1 -1.17 0.00
 5 -4 2 -2.62 0.00
 5 -4 5 0.76 0.00
 5 -4 6 -0.07 0.00
 5 -4 7 -0.93 0.00
 5 -4 8 -0.23 0.00
 -5 3 7 -1.28 0.00
 -5 3 6 0.74 0.00
 -5 3 5 2.31 0.00
 -5 3 4 1.52 0.00
 -5 3 3 -2.96 0.00
 -5 3 2 -2.61 0.00
 -5 3 1 0.12 0.00
 -5 3 0 0.58 0.00
 5 -3 1 4.37 0.00
 5 -3 2 0.95 0.00
 5 -3 3 -1.03 0.00
 5 -3 6 0.72 0.00
 5 -3 7 0.59 0.00
 5 -3 8 0.19 0.00
 5 -3 9 -0.35 0.00
 -5 2 6 -1.02 0.00
 -5 2 5 -1.62 0.00
 -5 2 4 0.70 0.00
 -5 2 3 5.03 0.00
 -5 2 2 2.05 0.00
 -5 2 1 -0.75 0.00
 -5 2 0 -7.17 0.00
 5 -2 1 -4.07 0.00
 5 -2 2 1.27 0.00
 5 -2 3 3.04 0.00
 5 -2 7 -0.77 0.00
 5 -2 8 -0.34 0.00
 5 -2 9 0.06 0.00
 -5 1 6 1.91 0.00
 -5 1 5 0.33 0.00
 -5 1 4 -2.55 0.00
 -5 1 3 -9.55 0.00
 -5 1 2 -3.51 0.00
 -5 1 1 6.08 0.00
 -5 1 0 13.22 0.00
 5 -1 1 1.81 0.00
 5 -1 2 -4.02 0.00
 5 -1 3 -2.23 0.00
 5 -1 7 0.71 0.00
 5 -1 8 -0.52 0.00
 5 -1 9 0.10 0.00
 -5 0 6 -2.70 0.00
 -5 0 5 -0.59 0.00
 -5 0 4 2.96 0.00
 -5 0 3 3.70 0.00
 -5 0 2 2.75 0.00
 -5 0 1 0.40 0.00
 5 0 0 18.16 0.00
 5 0 1 -1.89 0.00
 5 0 2 4.93 0.00
 5 0 3 2.67 0.00
 5 0 7 -0.36 0.00
 5 0 8 0.32 0.00
 5 0 9 0.22 0.00
 -5 -1 7 1.07 0.00
 -5 -1 6 1.90 0.00
 -5 -1 5 -0.39 0.00
 -5 -1 4 -2.72 0.00
 -5 -1 3 -1.54 0.00
 -5 -1 2 2.91 0.00
 -5 -1 1 17.32 0.00
 5 1 0 -2.81 0.00
 5 1 1 -1.16 0.00
 5 1 2 -3.54 0.00
 5 1 3 -3.34 0.00
 5 1 7 0.36 0.00
 5 1 8 -0.63 0.00
 5 1 9 -0.13 0.00
 -5 -2 7 -0.68 0.00
 -5 -2 6 -1.44 0.00
 -5 -2 5 1.85 0.00
 -5 -2 4 3.63 0.00
 -5 -2 3 0.43 0.00
 -5 -2 2 -3.08 0.00
 -5 -2 1 -7.02 0.00
 5 2 0 -2.61 0.00
 5 2 1 5.38 0.00
 5 2 2 2.56 0.00
 5 2 3 1.93 0.00
 5 2 4 -0.27 0.00
 5 2 5 -1.32 0.00
 5 2 6 -0.44 0.00
 5 2 7 -0.18 0.00
 5 2 8 0.36 0.00
 5 2 9 -0.04 0.00
 -5 -3 6 -0.70 0.00
 -5 -3 5 -2.16 0.00
 -5 -3 4 -2.69 0.00
 -5 -3 3 1.51 0.00
 -5 -3 2 3.05 0.00
 -5 -3 1 5.51 0.00
 5 3 0 -0.02 0.00
 5 3 1 -2.41 0.00
 5 3 2 -2.15 0.00
 5 3 3 -0.56 0.00
 5 3 4 0.80 0.00
 5 3 5 0.84 0.00
 5 3 6 0.12 0.00
 5 3 7 -0.24 0.00
 5 3 8 0.01 0.00
 -5 -4 5 2.05 0.00
 -5 -4 4 2.36 0.00
 -5 -4 3 -1.24 0.00
 -5 -4 2 -1.03 0.00
 -5 -4 1 -2.90 0.00
 5 4 0 0.41 0.00
 5 4 1 2.12 0.00
 5 4 2 1.13 0.00
 5 4 3 0.25 0.00
 5 4 4 -0.70 0.00
 5 4 5 -0.66 0.00
 5 4 6 0.16 0.00
 5 4 7 0.21 0.00
 5 4 8 0.17 0.00
 -5 -5 4 -0.86 0.00
 -5 -5 3 1.06 0.00
 -5 -5 2 2.26 0.00
 -5 -5 1 0.93 0.00
 5 5 0 -0.08 0.00
 5 5 1 -1.86 0.00
 5 5 2 -0.25 0.00
 5 5 3 0.22 0.00
 5 5 4 0.16 0.00
 5 5 5 0.05 0.00
 5 5 6 -0.41 0.00
 5 5 7 0.16 0.00
 5 5 8 0.01 0.00
 -5 -6 6 0.51 0.00
 -5 -6 5 0.61 0.00
 -5 -6 4 0.09 0.00
 -5 -6 3 -1.24 0.00
 -5 -6 2 -1.03 0.00
 -5 -6 1 -0.33 0.00
 5 6 0 0.90 0.00
 5 6 1 0.80 0.00
 5 6 2 0.20 0.00
 5 6 3 -0.54 0.00
 5 6 4 -0.11 0.00
 5 6 5 -0.20 0.00
 5 6 6 -0.28 0.00
 5 6 7 0.38 0.00
 -5 -7 8 -0.06 0.00
 -5 -7 7 -0.24 0.00
 -5 -7 6 -0.52 0.00
 -5 -7 5 0.84 0.00
 -5 -7 4 0.13 0.00
 -5 -7 3 0.80 0.00
 -5 -7 2 0.63 0.00
 -5 -7 1 -0.24 0.00
 5 7 0 -0.41 0.00
 5 7 1 -0.54 0.00
 5 7 2 -0.78 0.00
 5 7 3 -0.51 0.00
 5 7 4 -0.20 0.00
 5 7 5 0.53 0.00
 5 7 6 -0.88 0.00
 -5 -8 7 0.27 0.00
 -5 -8 6 0.23 0.00
 -5 -8 5 0.25 0.00
 -5 -8 4 -0.73 0.00
 -5 -8 3 -0.39 0.00
 -5 -8 2 0.12 0.00
 -5 -8 1 0.37 0.00
 5 8 0 0.28 0.00
 5 8 1 0.09 0.00
 5 8 2 0.13 0.00
 5 8 3 -0.21 0.00
 5 8 4 -0.24 0.00
 5 8 5 0.15 0.00
 5 8 6 -0.27 0.00
 -5 -9 6 -0.26 0.00
 -5 -9 5 0.27 0.00
 -5 -9 4 0.20 0.00
 -5 -9 3 0.30 0.00
 -5 -9 2 -0.05 0.00
 -5 -9 1 -0.49 0.00
 5 9 0 -0.10 0.00
 5 9 1 -1.46 0.00
 5 9 2 0.78 0.00
 5 9 3 0.50 0.00
 5 9 4 1.95 0.00
 5 9 5 -0.11 0.00
 -5 -10 7 0.31 0.00
 -5 -10 6 0.32 0.00
 -5 -10 5 0.06 0.00
 -5 -10 4 -0.29 0.00
 -5 -10 3 -0.19 0.00
 -5 -10 2 -0.24 0.00
 -5 -10 1 0.00 0.00
 5 10 0 -0.01 0.00
 5 10 1 -0.65 0.00
 5 10 2 -0.21 0.00
 5 10 3 0.29 0.00
 -5 -11 7 -0.66 0.00
 -5 -11 6 0.08 0.00
 -5 -11 5 0.05 0.00
 -5 -11 4 0.04 0.00
 -5 -11 3 0.08 0.00
 -5 -11 2 0.28 0.00
 -5 -11 1 -0.11 0.00
 5 11 0 0.16 0.00
 5 11 1 -0.18 0.00
 6 -6 4 -0.07 0.00
 6 -6 5 0.16 0.00
 -6 5 3 0.59 0.00
 -6 5 2 -0.60 0.00
 6 -5 3 0.45 0.00
 6 -5 4 -0.40 0.00
 6 -5 5 -0.95 0.00
 6 -5 6 -0.84 0.00
 6 -5 8 0.20 0.00
 -6 4 5 -1.47 0.00
 -6 4 4 -1.70 0.00
 -6 4 3 -0.41 0.00
 -6 4 2 -0.03 0.00
 -6 4 1 1.51 0.00
 -6 4 0 -0.44 0.00
 6 -4 2 -2.34 0.00
 6 -4 3 -0.60 0.00
 6 -4 4 0.77 0.00
 6 -4 5 0.81 0.00
 6 -4 6 0.21 0.00
 6 -4 8 0.00 0.00
 -6 3 6 0.05 0.00
 -6 3 5 2.09 0.00
 -6 3 4 1.86 0.00
 -6 3 3 -0.90 0.00
 -6 3 2 -2.22 0.00
 -6 3 1 -1.56 0.00
 -6 3 0 -0.43 0.00
 6 -3 1 2.33 0.00
 6 -3 2 1.63 0.00
 6 -3 3 0.34 0.00
 6 -3 4 -1.59 0.00
 6 -3 5 -1.09 0.00
 6 -3 6 0.08 0.00
 6 -3 8 0.06 0.00
 -6 2 6 -0.40 0.00
 -6 2 5 -1.44 0.00
 -6 2 4 -1.42 0.00
 -6 2 3 3.21 0.00
 -6 2 2 2.74 0.00
 -6 2 1 0.86 0.00
 -6 2 0 -2.74 0.00
 6 -2 1 -3.44 0.00
 6 -2 2 -0.70 0.00
 6 -2 3 1.05 0.00
 6 -2 4 1.97 0.00
 6 -2 5 1.48 0.00
 6 -2 6 -0.14 0.00
 6 -2 7 -0.56 0.00
 6 -2 8 -0.28 0.00
 -6 1 6 1.49 0.00
 -6 1 5 1.58 0.00
 -6 1 4 -1.06 0.00
 -6 1 3 -5.84 0.00
 -6 1 2 -3.57 0.00
 -6 1 1 1.44 0.00
 -6 1 0 8.08 0.00
 6 -1 1 2.32 0.00
 6 -1 2 -1.19 0.00
 6 -1 3 -1.45 0.00
 6 -1 4 -1.73 0.00
 6 -1 5 -1.05 0.00
 6 -1 6 0.24 0.00
 6 -1 7 0.47 0.00
 6 -1 8 -0.39 0.00
 -6 0 6 -2.38 0.00
 -6 0 5 -1.82 0.00
 -6 0 4 1.02 0.00
 -6 0 3 3.66 0.00
 -6 0 2 4.09 0.00
 -6 0 1 1.28 0.00
 6 0 0 7.01 0.00
 6 0 1 -3.04 0.00
 6 0 2 1.93 0.00
 6 0 3 2.54 0.00
 6 0 4 1.10 0.00
 6 0 5 0.06 0.00
 6 0 6 -0.27 0.00
 6 0 7 -0.39 0.00
 6 0 8 -0.06 0.00
 -6 -1 6 1.89 0.00
 -6 -1 5 1.46 0.00
 -6 -1 4 -1.99 0.00
 -6 -1 3 -1.24 0.00
 -6 -1 2 0.12 0.00
 -6 -1 1 9.20 0.00
 6 1 0 -0.22 0.00
 6 1 1 0.86 0.00
 6 1 2 -1.62 0.00
 6 1 3 -2.36 0.00
 6 1 4 -0.65 0.00
 6 1 5 0.05 0.00
 6 1 6 0.41 0.00
 6 1 7 0.63 0.00
 6 1 8 -0.60 0.00
 -6 -2 5 0.40 0.00
 -6 -2 4 3.04 0.00
 -6 -2 3 2.18 0.00
 -6 -2 2 -0.21 0.00
 -6 -2 1 -5.43 0.00
 6 2 0 -2.09 0.00
 6 2 1 1.84 0.00
 6 2 2 1.17 0.00
 6 2 3 1.81 0.00
 6 2 4 0.38 0.00
 6 2 5 -0.68 0.00
 6 2 6 -0.41 0.00
 6 2 7 -0.33 0.00
 6 2 8 0.14 0.00
 -6 -3 5 -1.08 0.00
 -6 -3 4 -2.64 0.00
 -6 -3 3 -0.57 0.00
 -6 -3 2 1.17 0.00
 -6 -3 1 3.63 0.00
 6 3 0 1.75 0.00
 6 3 1 -1.27 0.00
 6 3 2 -1.61 0.00
 6 3 3 -1.01 0.00
 6 3 4 0.23 0.00
 6 3 5 0.55 0.00
 6 3 6 0.18 0.00
 6 3 7 0.06 0.00
 -6 -4 3 0.31 0.00
 -6 -4 2 -0.59 0.00
 -6 -4 1 -2.74 0.00
 6 4 0 -0.47 0.00
 6 4 1 0.82 0.00
 6 4 2 1.08 0.00
 6 4 3 0.75 0.00
 6 4 4 -0.31 0.00
 6 4 5 -0.66 0.00
 6 4 6 -0.14 0.00
 6 4 7 0.39 0.00
 -6 -5 3 0.06 0.00
 -6 -5 2 1.30 0.00
 -6 -5 1 1.51 0.00
 6 5 0 0.42 0.00
 6 5 1 -1.18 0.00
 6 5 2 -0.58 0.00
 6 5 3 -0.08 0.00
 6 5 4 0.29 0.00
 6 5 5 -0.14 0.00
 6 5 6 -0.30 0.00
 6 5 7 0.42 0.00
 -6 -6 5 0.42 0.00
 -6 -6 4 0.64 0.00
 -6 -6 3 -0.36 0.00
 -6 -6 2 -0.78 0.00
 -6 -6 1 -0.56 0.00
 6 6 0 0.28 0.00
 6 6 1 0.57 0.00
 6 6 2 0.41 0.00
 6 6 3 -0.41 0.00
 6 6 4 0.08 0.00
 6 6 5 -0.39 0.00
 6 6 6 -0.21 0.00
 -6 -7 8 0.08 0.00
 -6 -7 7 -0.17 0.00
 -6 -7 6 -0.09 0.00
 -6 -7 5 0.19 0.00
 -6 -7 4 -0.10 0.00
 -6 -7 3 0.32 0.00
 -6 -7 2 0.50 0.00
 -6 -7 1 0.17 0.00
 6 7 0 -0.48 0.00
 6 7 1 -0.31 0.00
 6 7 2 -0.37 0.00
 6 7 3 -0.14 0.00
 6 7 4 0.08 0.00
 6 7 5 0.41 0.00
 -6 -8 7 -0.05 0.00
 -6 -8 6 0.46 0.00
 -6 -8 5 0.24 0.00
 -6 -8 4 -0.21 0.00
 -6 -8 3 -0.19 0.00
 -6 -8 2 -0.05 0.00
 -6 -8 1 0.18 0.00
 6 8 0 -0.02 0.00
 6 8 1 0.36 0.00
 6 8 2 -0.46 0.00
 6 8 3 -0.04 0.00
 6 8 4 -0.02 0.00
 -6 -9 6 -0.14 0.00
 -6 -9 5 -0.19 0.00
 -6 -9 4 0.24 0.00
 -6 -9 3 0.41 0.00
 -6 -9 2 0.01 0.00
 -6 -9 1 -0.09 0.00
 6 9 0 -0.13 0.00
 6 9 1 0.12 0.00
 6 9 2 0.12 0.00
 6 9 3 0.45 0.00
 -6 -10 7 0.21 0.00
 -6 -10 6 0.35 0.00
 -6 -10 5 -0.10 0.00
 -6 -10 4 -0.29 0.00
 -6 -10 3 -0.34 0.00
 -6 -10 2 -0.95 0.00
 -6 -10 1 0.39 0.00
 6 10 0 -0.02 0.00
 6 10 1 -0.67 0.00
 -6 -11 5 -0.05 0.00
 -6 -11 4 -0.04 0.00
 -6 -11 3 -0.08 0.00
 7 -4 7 -0.10 0.00
 7 -3 5 -0.80 0.00
 7 -3 6 -0.42 0.00
 7 -3 7 -0.18 0.00
 -7 2 4 -1.80 0.00
 -7 2 3 1.01 0.00
 -7 2 2 1.99 0.00
 -7 2 1 1.52 0.00
 -7 2 0 -0.15 0.00
 7 -2 1 -2.05 0.00
 7 -2 2 -1.34 0.00
 7 -2 3 -0.64 0.00
 7 -2 4 1.46 0.00
 7 -2 5 1.57 0.00
 7 -2 6 0.01 0.00
 7 -2 7 -0.12 0.00
 -7 1 4 0.91 0.00
 -7 1 3 -2.95 0.00
 -7 1 2 -2.71 0.00
 -7 1 1 -0.82 0.00
 -7 1 0 3.72 0.00
 7 -1 1 1.88 0.00
 7 -1 2 0.38 0.00
 7 -1 3 -0.28 0.00
 7 -1 4 -1.59 0.00
 7 -1 5 -1.16 0.00
 7 -1 6 -0.09 0.00
 7 -1 7 0.28 0.00
 -7 0 4 -0.04 0.00
 -7 0 3 2.26 0.00
 -7 0 2 3.61 0.00
 -7 0 1 2.06 0.00
 7 0 0 2.05 0.00
 7 0 1 -2.59 0.00
 7 0 2 -0.05 0.00
 7 0 3 2.07 0.00
 7 0 4 0.83 0.00
 7 0 5 0.74 0.00
 7 0 6 0.04 0.00
 7 0 7 -0.12 0.00
 -7 -1 4 -0.40 0.00
 -7 -1 3 -1.19 0.00
 -7 -1 2 -1.37 0.00
 -7 -1 1 3.89 0.00
 7 1 0 0.19 0.00
 7 1 1 1.52 0.00
 7 1 2 -0.38 0.00
 7 1 3 -1.34 0.00
 7 1 4 -1.02 0.00
 7 1 5 -0.38 0.00
 7 1 6 -0.02 0.00
 7 1 7 0.41 0.00
 -7 -2 4 1.61 0.00
 -7 -2 3 2.28 0.00
 -7 -2 2 1.40 0.00
 -7 -2 1 -3.03 0.00
 7 2 0 -1.27 0.00
 7 2 1 -0.01 0.00
 7 2 2 0.07 0.00
 7 2 3 1.46 0.00
 7 2 4 0.47 0.00
 7 2 5 -0.15 0.00
 7 2 6 0.02 0.00
 7 2 7 -0.53 0.00
 -7 -3 4 -1.42 0.00
 -7 -3 3 -1.41 0.00
 -7 -3 2 -0.34 0.00
 -7 -3 1 2.00 0.00
 7 3 0 1.95 0.00
 7 3 1 -0.57 0.00
 7 3 2 -0.68 0.00
 7 3 3 -0.96 0.00
 7 3 4 -0.22 0.00
 7 3 5 0.13 0.00
 7 3 6 0.32 0.00
 -7 -4 3 0.76 0.00
 -7 -4 2 0.19 0.00
 -7 -4 1 -1.75 0.00
 7 4 0 -0.84 0.00
 7 4 1 -0.12 0.00
 7 4 2 0.73 0.00
 7 4 3 1.02 0.00
 7 4 4 -0.12 0.00
 7 4 5 -0.63 0.00
 7 4 6 -0.13 0.00
 -7 -5 3 -0.61 0.00
 -7 -5 2 0.51 0.00
 -7 -5 1 1.18 0.00
 7 5 0 0.59 0.00
 7 5 1 -0.74 0.00
 7 5 2 -0.68 0.00
 7 5 3 0.01 0.00
 7 5 4 0.20 0.00
 7 5 5 -0.20 0.00
 -7 -6 4 0.72 0.00
 -7 -6 3 0.39 0.00
 -7 -6 2 -0.22 0.00
 -7 -6 1 -0.53 0.00
 7 6 0 -0.06 0.00
 7 6 1 0.28 0.00
 7 6 2 0.64 0.00
 7 6 3 -0.13 0.00
 7 6 4 0.03 0.00
 -7 -7 8 0.25 0.00
 -7 -7 7 0.12 0.00
 -7 -7 6 -0.08 0.00
 -7 -7 5 0.00 0.00
 -7 -7 4 -0.32 0.00
 -7 -7 3 0.15 0.00
 -7 -7 2 0.36 0.00
 -7 -7 1 0.31 0.00
 7 7 0 -0.47 0.00
 7 7 1 -0.34 0.00
 7 7 2 0.07 0.00
 7 7 3 0.28 0.00
 7 7 4 0.27 0.00
 -7 -8 7 -0.22 0.00
 -7 -8 6 0.27 0.00
 -7 -8 5 0.46 0.00
 -7 -8 4 -0.10 0.00
 -7 -8 3 0.14 0.00
 -7 -8 2 -0.20 0.00
 -7 -8 1 -0.19 0.00
 7 8 0 0.00 0.00
 7 8 1 0.32 0.00
 7 8 2 -0.56 0.00
 -7 -9 6 -0.16 0.00
 -7 -9 5 -0.18 0.00
 -7 -9 4 0.14 0.00
 -7 -9 3 0.60 0.00
 -7 -9 2 0.05 0.00
 -7 -9 1 0.14 0.00
 7 9 0 0.01 0.00
 7 9 1 0.35 0.00
 -7 -10 6 0.08 0.00
 -7 -10 5 -0.11 0.00
 -7 -10 4 -0.34 0.00
 -7 -10 3 -0.37 0.00
 -7 -10 2 -0.98 0.00
 8 -4 5 0.23 0.00
 8 -3 2 1.09 0.00
 8 -3 3 1.24 0.00
 8 -3 4 -0.10 0.00
 8 -3 5 -0.36 0.00
 8 -3 6 -0.46 0.00
 8 -2 1 -0.85 0.00
 8 -2 2 -1.25 0.00
 8 -2 3 -1.54 0.00
 8 -2 4 0.71 0.00
 8 -2 5 1.09 0.00
 8 -2 6 0.15 0.00
 -8 1 1 -1.28 0.00
 -8 1 0 1.28 0.00
 8 -1 1 1.03 0.00
 8 -1 2 1.15 0.00
 8 -1 3 0.34 0.00
 8 -1 4 -0.96 0.00
 8 -1 5 -0.88 0.00
 8 -1 6 -0.13 0.00
 -8 0 3 1.01 0.00
 -8 0 2 2.30 0.00
 -8 0 1 2.21 0.00
 8 0 0 0.70 0.00
 8 0 1 -1.91 0.00
 8 0 2 -0.56 0.00
 8 0 3 0.99 0.00
 8 0 4 0.55 0.00
 8 0 5 0.75 0.00
 8 0 6 0.19 0.00
 -8 -1 4 0.48 0.00
 -8 -1 3 -0.71 0.00
 -8 -1 2 -1.67 0.00
 -8 -1 1 1.17 0.00
 8 1 0 -0.05 0.00
 8 1 1 1.11 0.00
 8 1 2 0.55 0.00
 8 1 3 -0.88 0.00
 8 1 4 -0.77 0.00
 8 1 5 -0.39 0.00
 -8 -2 4 -0.12 0.00
 -8 -2 3 1.71 0.00
 -8 -2 2 1.72 0.00
 -8 -2 1 -1.11 0.00
 8 2 0 -0.54 0.00
 8 2 1 -0.64 0.00
 8 2 2 -0.26 0.00
 8 2 3 0.74 0.00
 8 2 4 0.39 0.00
 8 2 5 0.23 0.00
 -8 -3 4 -0.21 0.00
 -8 -3 3 -1.07 0.00
 -8 -3 2 -1.22 0.00
 -8 -3 1 0.95 0.00
 8 3 0 1.33 0.00
 8 3 1 -0.18 0.00
 8 3 2 0.24 0.00
 8 3 3 -0.77 0.00
 8 3 4 -0.52 0.00
 8 3 5 -0.01 0.00
 -8 -4 3 0.71 0.00
 -8 -4 2 0.57 0.00
 -8 -4 1 -0.65 0.00
 8 4 0 -1.03 0.00
 8 4 1 -0.58 0.00
 8 4 2 0.34 0.00
 8 4 3 0.99 0.00
 8 4 4 -0.12 0.00
 -8 -5 2 -0.06 0.00
 -8 -5 1 0.65 0.00
 8 5 0 0.51 0.00
 8 5 1 -0.28 0.00
 8 5 2 -0.53 0.00
 8 5 3 0.05 0.00
 -8 -6 2 0.23 0.00
 -8 -6 1 -0.37 0.00
 8 6 0 -0.38 0.00
 8 6 1 0.15 0.00
 8 6 2 0.80 0.00
 -8 -7 8 0.14 0.00
 -8 -7 7 0.31 0.00
 -8 -7 6 -0.08 0.00
 -8 -7 5 -0.17 0.00
 -8 -7 4 -0.19 0.00
 -8 -7 3 0.06 0.00
 -8 -7 2 0.37 0.00
 -8 -7 1 0.28 0.00
 8 7 0 -0.46 0.00
 -8 -8 7 -0.26 0.00
 -8 -8 6 0.06 0.00
 -8 -8 5 0.44 0.00
 -8 -8 4 0.04 0.00
 -8 -8 3 0.16 0.00
 -8 -8 2 -0.17 0.00
 -8 -8 1 -0.44 0.00
 -8 -9 6 -0.18 0.00
 -8 -9 5 -0.08 0.00
 -8 -9 4 0.25 0.00
 -8 -9 3 0.50 0.00
 9 -4 3 -0.33 0.00
 9 -3 1 -0.31 0.00
 9 -3 2 0.75 0.00
 9 -3 3 0.80 0.00
 9 -3 4 0.19 0.00
 -9 2 0 1.10 0.00
 9 -2 1 -0.29 0.00
 9 -2 2 -0.83 0.00
 9 -2 3 -1.60 0.00
 9 -2 4 0.09 0.00
 -9 1 1 -1.15 0.00
 -9 1 0 0.45 0.00
 9 -1 1 0.37 0.00
 9 -1 2 1.15 0.00
 9 -1 3 0.56 0.00
 9 -1 4 -0.39 0.00
 -9 0 4 -1.09 0.00
 -9 0 3 -0.15 0.00
 -9 0 2 1.38 0.00
 -9 0 1 1.79 0.00
 9 0 0 0.63 0.00
 9 0 1 -1.07 0.00
 9 0 2 -0.65 0.00
 9 0 3 0.21 0.00
 9 0 4 0.22 0.00
 -9 -1 4 0.81 0.00
 -9 -1 3 -0.34 0.00
 -9 -1 2 -1.02 0.00
 -9 -1 1 0.15 0.00
 9 1 0 -0.51 0.00
 9 1 1 0.83 0.00
 9 1 2 0.60 0.00
 9 1 3 -0.39 0.00
 9 1 4 -0.39 0.00
 -9 -2 4 -1.08 0.00
 -9 -2 3 0.85 0.00
 -9 -2 2 1.50 0.00
 -9 -2 1 -0.14 0.00
 9 2 0 -0.17 0.00
 9 2 1 -0.27 0.00
 9 2 2 -0.45 0.00
 9 2 3 0.17 0.00
 9 2 4 0.23 0.00
 -9 -3 3 -0.46 0.00
 -9 -3 2 -1.32 0.00
 -9 -3 1 0.21 0.00
 9 3 0 0.60 0.00
 9 3 1 0.09 0.00
 9 3 2 0.60 0.00
 9 3 3 -0.43 0.00
 -9 -4 2 0.65 0.00
 -9 -4 1 0.00 0.00
 9 4 0 -0.91 0.00
 9 4 1 -0.64 0.00
 9 4 2 -0.07 0.00
 9 5 0 0.42 0.00
 9 5 1 0.21 0.00
 -9 -6 3 0.86 0.00
 -9 -6 2 0.28 0.00
 -9 -6 1 -0.13 0.00
 9 6 0 -0.55 0.00
 -9 -7 7 0.06 0.00
 -9 -7 6 0.11 0.00
 -9 -7 5 -0.25 0.00
 -9 -7 4 -0.15 0.00
 -9 -7 3 0.30 0.00
 -9 -7 2 0.12 0.00
 -9 -7 1 0.31 0.00
 -9 -8 6 0.08 0.00
 -9 -8 5 0.34 0.00
 -9 -8 4 -0.05 0.00
 -9 -8 3 0.33 0.00
 -10 1 3 0.59 0.00
 -10 1 2 -0.15 0.00
 -10 1 1 -0.41 0.00
 -10 1 0 0.14 0.00
 10 -1 1 0.03 0.00
 10 -1 2 0.78 0.00
 10 -1 3 0.38 0.00
 -10 0 3 -0.56 0.00
 -10 0 2 0.57 0.00
 -10 0 1 1.37 0.00
 10 0 0 0.67 0.00
 10 0 1 -0.49 0.00
 10 0 2 -0.35 0.00
 10 0 3 -0.29 0.00
 -10 -1 3 0.14 0.00
 -10 -1 2 -0.29 0.00
 -10 -1 1 0.05 0.00
 10 1 0 -0.66 0.00
 10 1 1 0.49 0.00
 10 1 2 0.40 0.00
 -10 -2 3 0.27 0.00
 -10 -2 2 0.89 0.00
 -10 -2 1 0.15 0.00
 10 2 0 0.09 0.00
 10 2 1 0.07 0.00
 10 2 2 -0.22 0.00
 -10 -3 2 -1.08 0.00
 -10 -3 1 -0.20 0.00
 10 3 0 0.15 0.00
 10 3 1 -0.04 0.00
 -10 -5 1 -0.15 0.00
 -10 -6 6 -0.38 0.00
 -10 -6 5 -0.16 0.00
 -10 -6 4 0.68 0.00
 -10 -6 3 0.46 0.00
 -10 -6 2 0.34 0.00
 -11 2 1 -0.43 0.00
 -11 1 1 0.01 0.00
 -11 1 0 0.29 0.00
 -11 0 1 0.65 0.00
 11 0 0 0.61 0.00
 -11 -3 1 -0.30 0.00
 -11 2 0 0.76 0.00
 11 2 0 0.10 0.00
 11 3 0 -0.07 0.00
 10 5 0 0.40 0.00
 -11 6 0 0.16 0.00
 10 6 0 -0.30 0.00
 -11 7 0 0.01 0.00
 9 7 0 -0.36 0.00
 8 8 0 -0.04 0.00
 9 8 0 -0.06 0.00
 -10 9 0 -0.09 0.00
 8 9 0 -0.10 0.00
 -9 10 0 -0.42 0.00
 7 10 0 0.28 0.00
 -9 11 0 -0.12 0.00
 -8 11 0 -0.04 0.00
 6 11 0 -0.27 0.00
 -8 12 0 -0.26 0.00
 -7 12 0 -0.32 0.00
 4 12 0 -0.31 0.00
 5 12 0 0.09 0.00
 -6 13 0 0.32 0.00
 3 13 0 0.35 0.00
 4 13 0 0.06 0.00
 -5 14 0 -0.15 0.00
 -4 14 0 -0.09 0.00
 -3 14 0 -0.06 0.00
 -2 14 0 0.24 0.00
 -1 14 0 0.13 0.00
 0 14 0 0.32 0.00
 1 14 0 0.11 0.00
 2 14 0 0.00 0.00
 -2 -14 1 0.17 0.00
 -1 -14 1 0.38 0.00
 0 -14 1 0.13 0.00
 1 -14 1 0.17 0.00
 2 -14 1 -0.17 0.00
 3 -14 1 -0.04 0.00
 4 -14 1 -0.12 0.00
 -4 -13 1 0.28 0.00
 -3 -13 1 0.25 0.00
 5 -13 1 0.02 0.00
 6 -13 1 -0.01 0.00
 -5 -12 1 -0.22 0.00
 7 -12 1 -0.11 0.00
 -6 -11 1 0.10 0.00
 8 -11 1 0.09 0.00
 -7 -10 1 0.35 0.00
 9 -10 1 -0.04 0.00
 -8 -9 1 0.29 0.00
 -9 -8 1 -0.26 0.00
 10 -8 1 -0.01 0.00
 -10 -6 1 -0.10 0.00
 11 -6 1 0.34 0.00
 11 -5 1 -0.14 0.00
 -11 -4 1 0.27 0.00
 11 -4 1 -0.09 0.00
 11 -3 1 -0.51 0.00
 11 -2 1 -0.12 0.00
 -12 -1 1 0.37 0.00
 11 -1 1 -0.22 0.00
 -12 0 1 0.30 0.00
 11 0 1 -0.18 0.00
 -12 1 1 0.53 0.00
 11 1 1 0.34 0.00
 -12 2 1 -0.33 0.00
 11 2 1 0.29 0.00
 -12 3 1 0.66 0.00
 -12 4 1 -0.73 0.00
 10 4 1 -0.55 0.00
 -12 5 1 0.33 0.00
 10 5 1 0.34 0.00
 9 6 1 0.12 0.00
 -11 7 1 -0.08 0.00
 8 7 1 -0.28 0.00
 9 7 1 -0.10 0.00
 -11 8 1 -0.12 0.00
 8 8 1 0.37 0.00
 -10 9 1 0.13 0.00
 8 9 1 0.29 0.00
 -10 10 1 -0.19 0.00
 7 10 1 -0.68 0.00
 -9 11 1 0.14 0.00
 -8 11 1 0.31 0.00
 6 11 1 0.14 0.00
 -8 12 1 -0.08 0.00
 4 12 1 0.29 0.00
 5 12 1 0.19 0.00
 -7 13 1 0.33 0.00
 -6 13 1 0.57 0.00
 2 13 1 -0.55 0.00
 3 13 1 -0.58 0.00
 -5 14 1 -0.02 0.00
 -4 14 1 -0.06 0.00
 -3 14 1 -0.06 0.00
 -2 14 1 -0.31 0.00
 -1 14 1 -0.16 0.00
 0 14 1 -0.16 0.00
 1 14 1 0.01 0.00
 -2 -14 2 0.04 0.00
 -1 -14 2 -0.07 0.00
 0 -14 2 0.19 0.00
 1 -14 2 0.00 0.00
 2 -14 2 0.09 0.00
 3 -14 2 -0.13 0.00
 4 -14 2 -0.03 0.00
 -4 -13 2 -0.08 0.00
 5 -13 2 -0.33 0.00
 -6 -12 2 0.44 0.00
 -5 -12 2 0.75 0.00
 6 -12 2 0.08 0.00
 7 -12 2 0.10 0.00
 -7 -11 2 0.46 0.00
 -6 -11 2 0.39 0.00
 7 -11 2 0.20 0.00
 8 -11 2 0.11 0.00
 -8 -10 2 -0.57 0.00
 -8 -9 2 0.13 0.00
 9 -9 2 0.03 0.00
 -9 -8 2 -0.29 0.00
 -10 -7 2 0.15 0.00
 10 -7 2 -0.22 0.00
 -11 -5 2 -0.25 0.00
 -11 -4 2 0.27 0.00
 11 -4 2 -0.20 0.00
 11 -3 2 0.38 0.00
 -12 -2 2 -0.18 0.00
 11 -2 2 -0.17 0.00
 -12 -1 2 0.38 0.00
 11 -1 2 0.46 0.00
 -12 0 2 0.02 0.00
 11 0 2 -0.13 0.00
 -12 1 2 -0.05 0.00
 -12 2 2 -0.47 0.00
 -12 3 2 0.24 0.00
 10 3 2 0.63 0.00
 -12 4 2 -0.42 0.00
 10 4 2 -0.18 0.00
 -12 5 2 -0.20 0.00
 9 5 2 -0.27 0.00
 -12 6 2 -0.04 0.00
 9 6 2 0.58 0.00
 8 7 2 0.23 0.00
 -11 8 2 0.12 0.00
 8 8 2 -0.32 0.00
 7 9 2 0.08 0.00
 -10 10 2 0.44 0.00
 6 10 2 -0.37 0.00
 -9 11 2 0.30 0.00
 5 11 2 0.25 0.00
 -8 12 2 -0.34 0.00
 3 12 2 0.23 0.00
 4 12 2 0.09 0.00
 -7 13 2 -0.43 0.00
 1 13 2 -0.45 0.00
 2 13 2 -0.33 0.00
 3 13 2 0.08 0.00
 -5 14 2 0.27 0.00
 -4 14 2 0.27 0.00
 -3 14 2 0.03 0.00
 -2 14 2 -0.02 0.00
 -1 14 2 -0.23 0.00
 0 14 2 -0.17 0.00
 -2 -14 3 -0.03 0.00
 -1 -14 3 0.17 0.00
 0 -14 3 0.10 0.00
 1 -14 3 0.16 0.00
 2 -14 3 -0.06 0.00
 3 -14 3 0.01 0.00
 -4 -13 3 0.19 0.00
 4 -13 3 -0.39 0.00
 5 -13 3 -0.30 0.00
 -6 -12 3 0.10 0.00
 -5 -12 3 0.01 0.00
 5 -12 3 0.12 0.00
 6 -12 3 0.23 0.00
 -7 -11 3 -0.22 0.00
 7 -11 3 -0.42 0.00
 -8 -10 3 -0.32 0.00
 8 -10 3 0.10 0.00
 -9 -9 3 0.47 0.00
 9 -9 3 0.05 0.00
 9 -8 3 0.12 0.00
 -10 -7 3 0.18 0.00
 10 -6 3 0.17 0.00
 -11 -5 3 0.06 0.00
 10 -5 3 0.04 0.00
 10 -4 3 0.02 0.00
 -12 -3 3 0.22 0.00
 10 -3 3 0.50 0.00
 -12 -2 3 -0.02 0.00
 10 -2 3 -0.91 0.00
 -12 -1 3 0.73 0.00
 -12 1 3 0.29 0.00
 10 1 3 -0.20 0.00
 -12 2 3 -0.09 0.00
 10 2 3 -0.29 0.00
 -12 3 3 0.34 0.00
 10 3 3 -0.24 0.00
 -12 4 3 0.17 0.00
 9 4 3 0.69 0.00
 -12 5 3 -0.27 0.00
 9 5 3 0.04 0.00
 -12 6 3 0.22 0.00
 8 6 3 0.06 0.00
 8 7 3 0.36 0.00
 -11 8 3 -0.32 0.00
 7 8 3 -0.01 0.00
 -11 9 3 -0.08 0.00
 7 9 3 0.29 0.00
 -10 10 3 0.02 0.00
 6 10 3 0.37 0.00
 -9 11 3 0.01 0.00
 5 11 3 0.18 0.00
 -8 12 3 -0.19 0.00
 2 12 3 0.98 0.00
 3 12 3 0.87 0.00
 4 12 3 0.81 0.00
 -7 13 3 0.48 0.00
 -6 13 3 0.72 0.00
 0 13 3 0.92 0.00
 1 13 3 1.27 0.00
 2 13 3 0.80 0.00
 -5 14 3 -0.11 0.00
 -4 14 3 -0.16 0.00
 -3 14 3 0.00 0.00
 -2 14 3 -0.12 0.00
 -1 14 3 -0.14 0.00
 0 14 3 -0.24 0.00
 -1 -14 4 0.08 0.00
 0 -14 4 0.04 0.00
 1 -14 4 -0.11 0.00
 -4 -13 4 -0.08 0.00
 -3 -13 4 -0.14 0.00
 3 -13 4 0.13 0.00
 4 -13 4 0.00 0.00
 -6 -12 4 0.10 0.00
 -5 -12 4 0.16 0.00
 5 -12 4 0.13 0.00
 -7 -11 4 -0.11 0.00
 6 -11 4 0.26 0.00
 -8 -10 4 -0.24 0.00
 7 -10 4 -0.19 0.00
 -9 -9 4 0.15 0.00
 8 -9 4 0.24 0.00
 -10 -7 4 0.09 0.00
 9 -7 4 -0.10 0.00
 -11 -6 4 0.35 0.00
 9 -6 4 -0.23 0.00
 -11 -5 4 0.02 0.00
 9 -5 4 0.40 0.00
 9 -4 4 -0.32 0.00
 10 -4 4 -0.29 0.00
 -12 -3 4 0.30 0.00
 10 -3 4 -0.02 0.00
 -12 -2 4 -0.32 0.00
 10 -2 4 -0.25 0.00
 10 -1 4 0.01 0.00
 10 0 4 0.22 0.00
 -12 2 4 -0.23 0.00
 -12 3 4 -0.13 0.00
 9 3 4 -0.51 0.00
 -12 4 4 0.12 0.00
 9 4 4 -0.13 0.00
 -12 5 4 -0.16 0.00
 8 5 4 0.00 0.00
 -12 6 4 0.32 0.00
 8 6 4 0.03 0.00
 -12 7 4 -0.56 0.00
 -11 8 4 0.51 0.00
 7 8 4 0.13 0.00
 -11 9 4 0.20 0.00
 6 9 4 0.60 0.00
 -10 10 4 0.04 0.00
 5 10 4 -0.28 0.00
 -9 11 4 0.11 0.00
 4 11 4 0.79 0.00
 -8 12 4 0.56 0.00
 0 12 4 0.02 0.00
 1 12 4 0.37 0.00
 2 12 4 0.80 0.00
 3 12 4 0.84 0.00
 -7 13 4 0.42 0.00
 -6 13 4 0.28 0.00
 -5 13 4 -0.08 0.00
 -4 13 4 -0.25 0.00
 -3 13 4 -0.49 0.00
 -2 13 4 -0.12 0.00
 -1 13 4 0.25 0.00
 0 13 4 0.57 0.00
 1 13 4 0.05 0.00
 -4 14 4 0.00 0.00
 -3 14 4 0.08 0.00
 -2 14 4 0.28 0.00
 -4 -13 5 0.12 0.00
 -3 -13 5 0.07 0.00
 -2 -13 5 0.08 0.00
 2 -13 5 -0.26 0.00
 3 -13 5 -0.18 0.00
 -6 -12 5 -0.16 0.00
 -5 -12 5 -0.22 0.00
 4 -12 5 -0.05 0.00
 5 -12 5 -0.16 0.00
 -7 -11 5 -0.11 0.00
 5 -11 5 -0.34 0.00
 6 -11 5 -0.17 0.00
 -8 -10 5 -0.05 0.00
 6 -10 5 -0.08 0.00
 7 -10 5 -0.08 0.00
 -9 -9 5 0.07 0.00
 7 -9 5 0.09 0.00
 8 -8 5 -0.42 0.00
 -10 -7 5 -0.23 0.00
 8 -7 5 0.16 0.00
 -11 -6 5 -0.02 0.00
 8 -6 5 0.06 0.00
 -11 -5 5 0.10 0.00
 9 -5 5 -0.46 0.00
 9 -4 5 -0.12 0.00
 -12 -3 5 -0.04 0.00
 9 -3 5 -0.08 0.00
 -12 -2 5 -0.10 0.00
 9 -2 5 0.47 0.00
 9 -1 5 -0.36 0.00
 9 0 5 0.44 0.00
 9 1 5 -0.15 0.00
 -12 2 5 0.05 0.00
 9 2 5 0.25 0.00
 -12 3 5 -0.21 0.00
 -12 4 5 0.16 0.00
 8 4 5 -0.29 0.00
 -12 5 5 -0.06 0.00
 8 5 5 -0.08 0.00
 -12 6 5 0.15 0.00
 7 6 5 -0.42 0.00
 -12 7 5 0.05 0.00
 7 7 5 0.19 0.00
 -11 8 5 0.17 0.00
 6 8 5 0.20 0.00
 -11 9 5 -0.06 0.00
 -10 10 5 0.16 0.00
 -8 10 5 0.24 0.00
 4 10 5 2.21 0.00
 -9 11 5 0.36 0.00
 3 11 5 1.84 0.00
 -8 12 5 -0.12 0.00
 0 12 5 -1.46 0.00
 1 12 5 -0.92 0.00
 2 12 5 -0.47 0.00
 -6 13 5 0.06 0.00
 -5 13 5 0.57 0.00
 -4 13 5 0.57 0.00
 -3 13 5 0.45 0.00
 -2 13 5 -0.25 0.00
 -1 13 5 -0.67 0.00
 0 13 5 -0.99 0.00
 -3 -13 6 0.12 0.00
 -2 -13 6 -0.15 0.00
 -1 -13 6 -0.21 0.00
 0 -13 6 -0.33 0.00
 1 -13 6 -0.19 0.00
 2 -13 6 -0.19 0.00
 -5 -12 6 -0.05 0.00
 3 -12 6 0.08 0.00
 4 -12 6 0.02 0.00
 -7 -11 6 0.04 0.00
 -6 -11 6 0.03 0.00
 4 -11 6 0.17 0.00
 5 -11 6 0.29 0.00
 -8 -10 6 -0.26 0.00
 6 -10 6 0.19 0.00
 -9 -9 6 -0.03 0.00
 7 -8 6 0.07 0.00
 -10 -7 6 0.04 0.00
 -11 -6 6 -0.30 0.00
 8 -6 6 0.08 0.00
 -11 -5 6 -0.14 0.00
 8 -5 6 -0.50 0.00
 8 -4 6 0.12 0.00
 -12 -3 6 -0.13 0.00
 -12 -2 6 -0.05 0.00
 8 1 6 -0.28 0.00
 -12 2 6 -0.11 0.00
 8 2 6 0.12 0.00
 8 3 6 0.11 0.00
 -12 5 6 0.01 0.00
 7 5 6 -0.03 0.00
 -12 6 6 -0.17 0.00
 -12 7 6 0.04 0.00
 6 7 6 -0.89 0.00
 -11 8 6 -0.11 0.00
 -11 9 6 0.35 0.00
 -10 9 6 0.24 0.00
 -10 10 6 -0.73 0.00
 3 10 6 -0.74 0.00
 4 10 6 -0.37 0.00
 -9 11 6 0.25 0.00
 1 11 6 -0.38 0.00
 2 11 6 -1.07 0.00
 -8 12 6 0.28 0.00
 -7 12 6 0.75 0.00
 -6 12 6 1.16 0.00
 -5 12 6 0.76 0.00
 0 12 6 -2.93 0.00
 1 12 6 -2.68 0.00
 -6 13 6 0.48 0.00
 -5 13 6 0.21 0.00
 -4 13 6 -0.01 0.00
 -3 13 6 -0.65 0.00
 -2 13 6 -0.96 0.00
 -1 13 6 -0.95 0.00
 -5 -12 7 -0.19 0.00
 -4 -12 7 -0.13 0.00
 -3 -12 7 -0.33 0.00
 0 -12 7 0.00 0.00
 1 -12 7 -0.06 0.00
 2 -12 7 0.16 0.00
 -6 -11 7 -0.63 0.00
 3 -11 7 -0.22 0.00
 4 -11 7 0.00 0.00
 -7 -10 7 0.06 0.00
 4 -10 7 0.27 0.00
 5 -10 7 0.06 0.00
 -8 -9 7 -0.13 0.00
 6 -9 7 -0.04 0.00
 -9 -8 7 -0.46 0.00
 6 -8 7 0.15 0.00
 -10 -7 7 0.13 0.00
 7 -7 7 -0.20 0.00
 -11 -6 7 0.19 0.00
 -10 -6 7 0.13 0.00
 7 -6 7 0.26 0.00
 -11 -5 7 0.06 0.00
 7 -5 7 0.06 0.00
 -12 -3 7 -0.86 0.00
 8 -3 7 -0.21 0.00
 -12 -2 7 0.53 0.00
 8 -2 7 0.07 0.00
 8 -1 7 0.10 0.00
 -5 0 7 -1.12 0.00
 8 0 7 0.18 0.00
 -12 2 7 -0.12 0.00
 7 3 7 -0.04 0.00
 7 4 7 0.22 0.00
 -12 5 7 0.40 0.00
 -12 6 7 0.01 0.00
 6 6 7 0.39 0.00
 5 7 7 0.28 0.00
 -11 8 7 -0.16 0.00
 4 8 7 0.58 0.00
 -10 9 7 0.58 0.00
 3 9 7 0.66 0.00
 4 9 7 0.42 0.00
 -10 10 7 0.22 0.00
 -9 10 7 0.13 0.00
 2 10 7 -3.90 0.00
 3 10 7 -2.50 0.00
 -9 11 7 0.11 0.00
 -8 11 7 0.20 0.00
 1 11 7 -3.96 0.00
 -7 12 7 0.27 0.00
 -6 12 7 0.12 0.00
 -5 12 7 0.37 0.00
 -4 12 7 0.13 0.00
 -3 12 7 -0.09 0.00
 -2 12 7 -0.30 0.00
 -1 12 7 -0.08 0.00
 0 12 7 -0.44 0.00
 -3 -12 8 -0.03 0.00
 -2 -12 8 -0.13 0.00
 -1 -12 8 -0.10 0.00
 0 -12 8 -0.18 0.00
 1 -12 8 0.01 0.00
 -6 -11 8 -0.22 0.00
 -5 -11 8 -0.25 0.00
 -4 -11 8 -0.49 0.00
 0 -11 8 -0.62 0.00
 1 -11 8 -0.40 0.00
 2 -11 8 -0.42 0.00
 3 -11 8 -0.12 0.00
 -7 -10 8 -0.06 0.00
 -6 -10 8 0.00 0.00
 2 -10 8 -0.10 0.00
 3 -10 8 -0.04 0.00
 4 -10 8 -0.09 0.00
 -8 -9 8 -0.17 0.00
 4 -9 8 -0.52 0.00
 5 -9 8 -0.38 0.00
 -9 -8 8 0.16 0.00
 5 -8 8 -0.30 0.00
 -10 -7 8 -0.18 0.00
 -9 -7 8 0.18 0.00
 6 -7 8 -0.07 0.00
 -10 -6 8 -0.05 0.00
 6 -6 8 0.04 0.00
 -11 -5 8 -0.19 0.00
 7 -4 8 0.12 0.00
 -12 -3 8 0.10 0.00
 7 -3 8 -0.13 0.00
 -12 -2 8 -0.21 0.00
 7 -2 8 -0.18 0.00
 -12 -1 8 0.13 0.00
 7 -1 8 -0.30 0.00
 -12 0 8 -0.10 0.00
 7 0 8 -0.19 0.00
 -12 1 8 0.17 0.00
 7 1 8 -0.19 0.00
 -12 2 8 0.04 0.00
 -12 3 8 0.02 0.00
 6 3 8 -0.23 0.00
 -12 4 8 0.39 0.00
 6 4 8 -0.17 0.00
 -12 5 8 -0.08 0.00
 -12 6 8 -0.06 0.00
 5 6 8 -0.29 0.00
 -11 7 8 0.47 0.00
 4 7 8 -0.11 0.00
 -11 8 8 0.62 0.00
 -10 8 8 0.52 0.00
 3 8 8 0.31 0.00
 -10 9 8 -0.25 0.00
 -9 9 8 -0.29 0.00
 2 9 8 2.59 0.00
 3 9 8 2.09 0.00
 -9 10 8 -0.63 0.00
 -8 10 8 -0.83 0.00
 1 10 8 0.28 0.00
 -8 11 8 -0.04 0.00
 -7 11 8 -0.13 0.00
 -6 11 8 0.23 0.00
 -1 11 8 -0.31 0.00
 0 11 8 -0.05 0.00
 -6 12 8 0.45 0.00
 -5 12 8 0.46 0.00
 -4 12 8 0.49 0.00
 -3 12 8 0.29 0.00
 -2 12 8 0.15 0.00
 -5 -11 9 -0.19 0.00
 -4 -11 9 -0.17 0.00
 -3 -11 9 -0.06 0.00
 -2 -11 9 -0.03 0.00
 -1 -11 9 0.01 0.00
 0 -11 9 0.11 0.00
 1 -11 9 0.01 0.00
 -6 -10 9 0.00 0.00
 -5 -10 9 0.05 0.00
 -1 -10 9 -0.24 0.00
 0 -10 9 -0.42 0.00
 1 -10 9 -0.53 0.00
 2 -10 9 -0.26 0.00
 -8 -9 9 0.17 0.00
 -7 -9 9 0.26 0.00
 2 -9 9 0.28 0.00
 3 -9 9 0.18 0.00
 -9 -8 9 -0.01 0.00
 4 -8 9 0.18 0.00
 5 -7 9 -0.08 0.00
 -10 -6 9 0.28 0.00
 5 -6 9 -0.62 0.00
 -11 -5 9 -0.02 0.00
 -11 -4 9 0.12 0.00
 6 -4 9 0.26 0.00
 6 -3 9 -0.23 0.00
 -12 -2 9 -0.31 0.00
 6 -2 9 -0.07 0.00
 -12 -1 9 0.41 0.00
 6 -1 9 0.26 0.00
 -12 0 9 -0.82 0.00
 6 0 9 0.16 0.00
 -12 1 9 0.13 0.00
 6 1 9 0.02 0.00
 -12 2 9 -0.09 0.00
 -12 3 9 -0.02 0.00
 5 3 9 -0.08 0.00
 -12 4 9 0.04 0.00
 5 4 9 -0.23 0.00
 -12 5 9 0.41 0.00
 4 5 9 -0.24 0.00
 -11 6 9 -0.21 0.00
 4 6 9 0.27 0.00
 -11 7 9 -0.35 0.00
 2 7 9 0.14 0.00
 3 7 9 0.05 0.00
 -10 8 9 -0.23 0.00
 -9 8 9 -0.43 0.00
 1 8 9 -0.19 0.00
 2 8 9 -0.41 0.00
 -9 9 9 0.09 0.00
 -8 9 9 -0.05 0.00
 0 9 9 -0.08 0.00
 1 9 9 -0.34 0.00
 -8 10 9 -0.61 0.00
 -7 10 9 -0.41 0.00
 -1 10 9 0.43 0.00
 0 10 9 0.62 0.00
 -7 11 9 0.29 0.00
 -6 11 9 -0.08 0.00
 -5 11 9 -0.30 0.00
 -4 11 9 -0.53 0.00
 -3 11 9 -0.24 0.00
 -2 11 9 0.09 0.00
 -5 -10 10 -0.12 0.00
 -4 -10 10 -0.02 0.00
 -3 -10 10 -0.09 0.00
 -2 -10 10 0.14 0.00
 -1 -10 10 0.25 0.00
 0 -10 10 0.21 0.00
 1 -10 10 0.11 0.00
 -7 -9 10 0.00 0.00
 -6 -9 10 0.06 0.00
 1 -9 10 0.13 0.00
 2 -9 10 0.07 0.00
 -8 -8 10 0.25 0.00
 2 -8 10 -0.19 0.00
 3 -8 10 -0.16 0.00
 -9 -7 10 -0.08 0.00
 3 -7 10 -0.16 0.00
 4 -7 10 -0.16 0.00
 -10 -6 10 0.10 0.00
 4 -6 10 0.48 0.00
 -10 -5 10 -0.39 0.00
 -11 -4 10 -0.46 0.00
 5 -4 10 0.06 0.00
 -11 -3 10 0.44 0.00
 5 -3 10 -0.19 0.00
 5 -2 10 0.24 0.00
 -12 -1 10 -0.03 0.00
 5 -1 10 0.16 0.00
 -12 0 10 0.11 0.00
 5 0 10 -0.31 0.00
 -12 1 10 -0.35 0.00
 5 1 10 -0.08 0.00
 -12 2 10 -0.04 0.00
 -11 2 10 0.23 0.00
 4 2 10 0.26 0.00
 -12 3 10 0.12 0.00
 4 3 10 -0.02 0.00
 3 4 10 0.04 0.00
 4 4 10 0.02 0.00
 -11 5 10 -0.16 0.00
 3 5 10 0.56 0.00
 -11 6 10 0.20 0.00
 2 6 10 0.36 0.00
 3 6 10 0.27 0.00
 -10 7 10 -0.39 0.00
 1 7 10 0.07 0.00
 2 7 10 0.26 0.00
 -10 8 10 -0.27 0.00
 -9 8 10 -0.44 0.00
 0 8 10 -0.18 0.00
 1 8 10 0.11 0.00
 -9 9 10 0.23 0.00
 -8 9 10 0.54 0.00
 -1 9 10 0.45 0.00
 0 9 10 0.43 0.00
 -7 10 10 -0.26 0.00
 -6 10 10 -0.35 0.00
 -5 10 10 -0.58 0.00
 -4 10 10 -0.45 0.00
 -3 10 10 -0.27 0.00
 -2 10 10 0.03 0.00
 -6 -9 11 0.02 0.00
 -5 -9 11 0.05 0.00
 -4 -9 11 -0.10 0.00
 -3 -9 11 0.10 0.00
 -2 -9 11 0.05 0.00
 -1 -9 11 0.00 0.00
 0 -9 11 -0.09 0.00
 -7 -8 11 0.08 0.00
 -6 -8 11 0.12 0.00
 0 -8 11 0.13 0.00
 1 -8 11 0.11 0.00
 -8 -7 11 0.13 0.00
 2 -7 11 0.32 0.00
 -9 -6 11 0.01 0.00
 3 -6 11 -0.23 0.00
 -10 -5 11 0.19 0.00
 -9 -5 11 0.28 0.00
 3 -5 11 -0.03 0.00
 -10 -4 11 0.04 0.00
 3 -4 11 0.02 0.00
 -11 -3 11 -0.10 0.00
 3 -3 11 0.42 0.00
 4 -3 11 0.22 0.00
 -11 -2 11 -0.79 0.00
 3 -2 11 -1.06 0.00
 4 -2 11 -0.88 0.00
 -11 -1 11 0.29 0.00
 3 -1 11 -0.81 0.00
 4 -1 11 -0.58 0.00
 -11 0 11 -0.39 0.00
 3 0 11 -0.48 0.00
 4 0 11 -0.35 0.00
 -11 1 11 0.17 0.00
 3 1 11 0.00 0.00
 -11 2 11 0.11 0.00
 3 2 11 -0.74 0.00
 -11 3 11 -0.06 0.00
 2 3 11 -0.07 0.00
 3 3 11 0.01 0.00
 -11 4 11 -0.02 0.00
 2 4 11 -0.15 0.00
 3 4 11 -0.22 0.00
 -11 5 11 -0.28 0.00
 -10 5 11 -0.52 0.00
 2 5 11 0.06 0.00
 -10 6 11 0.04 0.00
 1 6 11 0.33 0.00
 -10 7 11 0.07 0.00
 -9 7 11 0.24 0.00
 0 7 11 0.43 0.00
 -9 8 11 0.12 0.00
 -8 8 11 -0.08 0.00
 -2 8 11 -0.05 0.00
 -1 8 11 -0.32 0.00
 -7 9 11 0.22 0.00
 -6 9 11 0.14 0.00
 -5 9 11 0.04 0.00
 -4 9 11 -0.26 0.00
 -3 9 11 -0.42 0.00
 -2 9 11 -0.15 0.00
 -5 -8 12 0.01 0.00
 -4 -8 12 0.13 0.00
 -3 -8 12 -0.01 0.00
 -2 -8 12 -0.07 0.00
 -1 -8 12 -0.06 0.00
 -7 -7 12 0.00 0.00
 -6 -7 12 -0.17 0.00
 -1 -7 12 0.18 0.00
 0 -7 12 0.02 0.00
 -8 -6 12 -0.07 0.00
 -7 -6 12 0.02 0.00
 1 -6 12 0.03 0.00
 -9 -5 12 0.23 0.00
 -8 -5 12 0.17 0.00
 1 -5 12 -0.18 0.00
 2 -5 12 -0.17 0.00
 -9 -4 12 -0.01 0.00
 2 -4 12 0.12 0.00
 -10 -3 12 -0.23 0.00
 2 -3 12 -0.29 0.00
 -10 -2 12 0.01 0.00
 2 -2 12 0.61 0.00
 -10 -1 12 -0.29 0.00
 -3 -1 12 -0.04 0.00
 2 -1 12 -0.01 0.00
 -11 0 12 -0.13 0.00
 2 0 12 0.30 0.00
 -11 1 12 0.03 0.00
 2 1 12 -0.14 0.00
 -11 2 12 0.01 0.00
 1 2 12 0.02 0.00
 2 2 12 0.11 0.00
 -10 3 12 -0.16 0.00
 1 3 12 -0.14 0.00
 2 3 12 0.05 0.00
 -10 4 12 0.44 0.00
 1 4 12 0.36 0.00
 -10 5 12 0.46 0.00
 -9 5 12 0.20 0.00
 0 5 12 0.08 0.00
 -9 6 12 -0.39 0.00
 -1 6 12 0.10 0.00
 0 6 12 0.02 0.00
 -8 7 12 -0.28 0.00
 -7 7 12 -0.56 0.00
 -4 7 12 -0.71 0.00
 -3 7 12 -0.17 0.00
 -2 7 12 -0.10 0.00
 -1 7 12 0.10 0.00
 -7 8 12 -0.02 0.00
 -6 8 12 -0.13 0.00
 -5 8 12 -0.25 0.00
 -4 8 12 -0.34 0.00
 -3 8 12 -0.02 0.00
 -4 -7 13 -0.06 0.00
 -3 -7 13 -0.01 0.00
 -6 -6 13 0.11 0.00
 -5 -6 13 0.17 0.00
 -4 -6 13 0.15 0.00
 -3 -6 13 0.04 0.00
 -2 -6 13 -0.08 0.00
 -1 -6 13 -0.19 0.00
 -7 -5 13 -0.05 0.00
 -6 -5 13 0.11 0.00
 -5 -5 13 0.13 0.00
 -4 -5 13 0.10 0.00
 -3 -5 13 0.15 0.00
 -2 -5 13 0.22 0.00
 -1 -5 13 0.20 0.00
 0 -5 13 0.06 0.00
 -8 -4 13 0.19 0.00
 -7 -4 13 0.12 0.00
 -2 -4 13 -0.16 0.00
 -1 -4 13 -0.18 0.00
 0 -4 13 -0.19 0.00
 -9 -3 13 -0.13 0.00
 -8 -3 13 -0.06 0.00
 -3 -3 13 0.36 0.00
 -1 -3 13 0.50 0.00
 0 -3 13 0.21 0.00
 -9 -2 13 0.06 0.00
 0 -2 13 0.02 0.00
 1 -2 13 0.34 0.00
 -9 -1 13 -0.07 0.00
 0 -1 13 0.10 0.00
 1 -1 13 0.31 0.00
 -10 0 13 0.15 0.00
 -9 0 13 0.35 0.00
 0 0 13 -0.46 0.00
 1 0 13 0.01 0.00
 -10 1 13 0.20 0.00
 -9 1 13 0.27 0.00
 0 1 13 0.20 0.00
 1 1 13 0.32 0.00
 -10 2 13 -0.21 0.00
 -9 2 13 -0.22 0.00
 0 2 13 -0.01 0.00
 -9 3 13 0.18 0.00
 -1 3 13 -0.10 0.00
 0 3 13 -0.22 0.00
 -9 4 13 0.03 0.00
 -8 4 13 0.00 0.00
 -2 4 13 0.13 0.00
 -1 4 13 0.04 0.00
 -8 5 13 -0.15 0.00
 -7 5 13 -0.33 0.00
 -6 5 13 -0.60 0.00
 -5 5 13 -1.12 0.00
 -3 5 13 -0.84 0.00
 -2 5 13 -0.36 0.00
 -7 6 13 -0.16 0.00
 -6 6 13 -0.13 0.00
 -5 6 13 -0.28 0.00
 -4 6 13 0.15 0.00
 -3 6 13 0.03 0.00
 -6 -4 14 0.01 0.00
 -5 -4 14 -0.03 0.00
 -4 -4 14 0.12 0.00
 -3 -4 14 0.02 0.00
 -7 -3 14 0.02 0.00
 -6 -3 14 0.06 0.00
 -5 -3 14 -0.08 0.00
 -4 -3 14 0.04 0.00
 -3 -3 14 -0.23 0.00
 -2 -3 14 0.01 0.00
 -8 -2 14 0.02 0.00
 -7 -2 14 -0.04 0.00
 -6 -2 14 0.01 0.00
 -5 -2 14 -0.13 0.00
 -4 -2 14 0.16 0.00
 -3 -2 14 0.04 0.00
 -2 -2 14 0.35 0.00
 -8 -1 14 -0.05 0.00
 -7 -1 14 -0.11 0.00
 -6 -1 14 0.17 0.00
 -4 -1 14 0.52 0.00
 -3 -1 14 0.08 0.00
 -2 -1 14 0.07 0.00
 -1 -1 14 -0.28 0.00
 -8 0 14 0.23 0.00
 -7 0 14 0.21 0.00
 -4 0 14 -0.24 0.00
 -3 0 14 -0.58 0.00
 -2 0 14 -0.35 0.00
 -1 0 14 -0.39 0.00
 -8 1 14 -0.50 0.00
 -7 1 14 -0.92 0.00
 -6 1 14 -0.99 0.00
 -4 1 14 -0.85 0.00
 -3 1 14 -0.73 0.00
 -2 1 14 -0.36 0.00
 -8 2 14 0.14 0.00
 -7 2 14 0.06 0.00
 -6 2 14 0.06 0.00
 -5 2 14 0.08 0.00
 -4 2 14 -0.14 0.00
 -3 2 14 -0.11 0.00
 -2 2 14 -0.01 0.00
 -8 3 14 0.13 0.00
 -7 3 14 0.00 0.00
 -6 3 14 -0.05 0.00
 -5 3 14 0.14 0.00
 -4 3 14 -0.07 0.00
 -3 3 14 -0.02 0.00
 -7 4 14 -0.16 0.00
 -6 4 14 -0.21 0.00
 -5 4 14 0.02 0.00
 -4 4 14 -0.20 0.00
 0 0 0 0.00 0.00
# SQUEEZE RESULTS (Version = 141217)
# Note: Data are Listed for all Voids in the P1 Unit Cell
# i.e. Centre of Gravity, Solvent Accessible Volume,
# Recovered number of Electrons in the Void and
# Details about the Squeezed Material
;
_platon_squeeze_void_probe_radius 1.20
_olex2_submission_special_instructions 'No special instructions were received'
_oxdiff_exptl_absorpt_empirical_details
;
Empirical correction (ABSPACK) includes:
- Absorption correction using spherical harmonics
- Frame scaling
;
_oxdiff_exptl_absorpt_empirical_full_max 1.685
_oxdiff_exptl_absorpt_empirical_full_min 0.642
loop_
_space_group_symop_operation_xyz
'x, y, z'
'-x, -y, -z'
loop_
_atom_site_label
_atom_site_type_symbol
_atom_site_fract_x
_atom_site_fract_y
_atom_site_fract_z
_atom_site_U_iso_or_equiv
_atom_site_adp_type
_atom_site_occupancy
_atom_site_site_symmetry_order
_atom_site_calc_flag
_atom_site_refinement_flags_posn
_atom_site_refinement_flags_adp
_atom_site_refinement_flags_occupancy
C1 C 0.6307(6) 0.2875(4) 0.1214(5) 0.0851(12) Uani 1 1 d . . .
H1 H 0.717793 0.338432 0.138817 0.102 Uiso 1 1 calc R . .
C2 C 0.6398(7) 0.1748(5) 0.1658(6) 0.0963(14) Uani 1 1 d . . .
H2 H 0.731727 0.150765 0.211076 0.116 Uiso 1 1 calc R . .
C3 C 0.5122(7) 0.0950(4) 0.1440(5) 0.0895(13) Uani 1 1 d . . .
C4 C 0.3812(7) 0.1394(4) 0.0716(5) 0.0926(14) Uani 1 1 d . . .
H4 H 0.291899 0.090697 0.050902 0.111 Uiso 1 1 calc R . .
C5 C 0.3576(5) 0.5590(4) 0.1739(5) 0.0836(11) Uani 1 1 d . . .
H5 H 0.272857 0.535879 0.100685 0.100 Uiso 1 1 calc R . .
C6 C 0.3420(6) 0.5983(5) 0.2809(6) 0.0911(13) Uani 1 1 d . . .
H6 H 0.248325 0.600796 0.279497 0.109 Uiso 1 1 calc R . .
C7 C 0.4665(7) 0.6352(4) 0.3937(5) 0.0883(13) Uani 1 1 d . . .
C8 C 0.5996(6) 0.6241(5) 0.3845(5) 0.0908(13) Uani 1 1 d . . .
H8 H 0.686816 0.643934 0.456354 0.109 Uiso 1 1 calc R . .
C9 C 0.6058(6) 0.5841(4) 0.2703(5) 0.0857(12) Uani 1 1 d . . .
H9 H 0.697163 0.580255 0.267063 0.103 Uiso 1 1 calc R . .
C10 C 0.6537(10) -0.0568(7) 0.2684(9) 0.165(4) Uani 1 1 d D . .
H10A H 0.723785 -0.038117 0.229994 0.248 Uiso 1 1 calc GR . .
H10B H 0.636699 -0.142258 0.273442 0.248 Uiso 1 1 calc GR . .
H10C H 0.691450 -0.018812 0.353239 0.248 Uiso 1 1 calc GR . .
C11 C 0.3851(11) -0.0925(6) 0.1714(10) 0.173(4) Uani 1 1 d D . .
H11A H 0.345551 -0.069685 0.231986 0.260 Uiso 1 1 calc GR . .
H11B H 0.406897 -0.173668 0.183634 0.260 Uiso 1 1 calc GR . .
H11C H 0.314203 -0.086832 0.085556 0.260 Uiso 1 1 calc GR . .
C12 C 0.3161(12) 0.6927(9) 0.5047(9) 0.162(4) Uani 1 1 d . . .
H12A H 0.281976 0.763116 0.460906 0.244 Uiso 1 1 calc GR . .
H12B H 0.328306 0.702159 0.592865 0.244 Uiso 1 1 calc GR . .
H12C H 0.245373 0.623768 0.463966 0.244 Uiso 1 1 calc GR . .
C13 C 0.5853(12) 0.7186(8) 0.6123(7) 0.154(3) Uani 1 1 d . . .
H13A H 0.661370 0.669770 0.621455 0.232 Uiso 1 1 calc GR . .
H13B H 0.561532 0.713517 0.686759 0.232 Uiso 1 1 calc GR . .
H13C H 0.619040 0.800550 0.603851 0.232 Uiso 1 1 calc GR . .
C22 C 0.3823(5) 0.2548(4) 0.0303(5) 0.0837(11) Uani 1 1 d . . .
H22 H 0.292790 0.281871 -0.016756 0.100 Uiso 1 1 calc R . .
N1 N 0.5047(4) 0.3283(3) 0.0547(3) 0.0714(8) Uani 1 1 d . . .
N2 N 0.5173(7) -0.0139(4) 0.1910(6) 0.1243(19) Uani 1 1 d D . .
N3 N 0.4866(4) 0.5517(3) 0.1676(4) 0.0761(8) Uani 1 1 d . . .
N4 N 0.4560(8) 0.6764(5) 0.4993(5) 0.1195(17) Uani 1 1 d . . .
Pd1 Pd 0.500000 0.500000 0.000000 0.0759(2) Uani 1 2 d S T P
loop_
_atom_site_aniso_label
_atom_site_aniso_U_11
_atom_site_aniso_U_22
_atom_site_aniso_U_33
_atom_site_aniso_U_23
_atom_site_aniso_U_13
_atom_site_aniso_U_12
C1 0.086(3) 0.076(2) 0.100(3) 0.016(2) 0.044(3) 0.008(2)
C2 0.108(4) 0.085(3) 0.105(4) 0.029(3) 0.044(3) 0.036(3)
C3 0.136(4) 0.063(2) 0.077(3) 0.0063(19) 0.049(3) 0.018(2)
C4 0.112(4) 0.064(2) 0.096(3) 0.008(2) 0.040(3) -0.007(2)
C5 0.083(3) 0.082(3) 0.086(3) 0.008(2) 0.034(2) 0.009(2)
C6 0.094(3) 0.093(3) 0.101(4) 0.011(3) 0.053(3) 0.015(2)
C7 0.120(4) 0.073(2) 0.087(3) 0.024(2) 0.056(3) 0.021(2)
C8 0.107(3) 0.085(3) 0.070(3) 0.006(2) 0.025(2) 0.007(2)
C9 0.083(3) 0.086(3) 0.091(3) 0.005(2) 0.037(2) 0.012(2)
C10 0.237(11) 0.096(4) 0.176(8) 0.061(5) 0.082(8) 0.067(6)
C11 0.259(12) 0.075(4) 0.182(9) 0.027(4) 0.092(9) -0.015(5)
C12 0.210(10) 0.188(9) 0.145(7) 0.009(6) 0.120(8) 0.062(7)
C13 0.235(10) 0.156(7) 0.081(4) -0.001(4) 0.068(5) 0.039(7)
C22 0.085(3) 0.077(2) 0.077(3) 0.011(2) 0.020(2) 0.008(2)
N1 0.0765(19) 0.0659(17) 0.0715(19) 0.0096(14) 0.0285(16) 0.0093(14)
N2 0.190(6) 0.064(2) 0.127(4) 0.022(2) 0.070(4) 0.020(3)
N3 0.080(2) 0.0691(18) 0.075(2) 0.0158(15) 0.0260(17) 0.0096(15)
N4 0.167(5) 0.126(4) 0.087(3) 0.014(3) 0.069(3) 0.031(4)
Pd1 0.0885(3) 0.0651(3) 0.0764(3) 0.01229(18) 0.0345(2) 0.01051(19)
loop_
_atom_type_symbol
_atom_type_description
_atom_type_scat_dispersion_real
_atom_type_scat_dispersion_imag
_atom_type_scat_source
C C 0.0181 0.0091 'International Tables Vol C Tables 4.2.6.8 and 6.1.1.4'
H H 0.0000 0.0000 'International Tables Vol C Tables 4.2.6.8 and 6.1.1.4'
N N 0.0311 0.0180 'International Tables Vol C Tables 4.2.6.8 and 6.1.1.4'
Pd Pd 0.1215 3.9337 'International Tables Vol C Tables 4.2.6.8 and 6.1.1.4'
loop_
_geom_angle_atom_site_label_1
_geom_angle_atom_site_label_2
_geom_angle_atom_site_label_3
_geom_angle
_geom_angle_site_symmetry_1
_geom_angle_site_symmetry_3
C2 C1 H1 118.2 . .
N1 C1 H1 118.2 . .
N1 C1 C2 123.6(5) . .
C1 C2 H2 119.7 . .
C1 C2 C3 120.6(5) . .
C3 C2 H2 119.7 . .
C4 C3 C2 114.6(4) . .
N2 C3 C2 122.0(6) . .
N2 C3 C4 123.4(5) . .
C3 C4 H4 119.6 . .
C22 C4 C3 120.9(5) . .
C22 C4 H4 119.6 . .
C6 C5 H5 118.1 . .
N3 C5 H5 118.1 . .
N3 C5 C6 123.8(5) . .
C5 C6 H6 119.8 . .
C5 C6 C7 120.5(5) . .
C7 C6 H6 119.8 . .
C8 C7 C6 114.2(5) . .
N4 C7 C6 122.3(5) . .
N4 C7 C8 123.5(6) . .
C7 C8 H8 119.2 . .
C7 C8 C9 121.6(5) . .
C9 C8 H8 119.2 . .
C8 C9 H9 119.1 . .
N3 C9 C8 121.7(5) . .
N3 C9 H9 119.1 . .
H10A C10 H10B 109.5 . .
H10A C10 H10C 109.5 . .
H10B C10 H10C 109.5 . .
N2 C10 H10A 109.5 . .
N2 C10 H10B 109.5 . .
N2 C10 H10C 109.5 . .
H11A C11 H11B 109.5 . .
H11A C11 H11C 109.5 . .
H11B C11 H11C 109.5 . .
N2 C11 H11A 109.5 . .
N2 C11 H11B 109.5 . .
N2 C11 H11C 109.5 . .
H12A C12 H12B 109.5 . .
H12A C12 H12C 109.5 . .
H12B C12 H12C 109.5 . .
N4 C12 H12A 109.5 . .
N4 C12 H12B 109.5 . .
N4 C12 H12C 109.5 . .
H13A C13 H13B 109.5 . .
H13A C13 H13C 109.5 . .
H13B C13 H13C 109.5 . .
N4 C13 H13A 109.5 . .
N4 C13 H13B 109.5 . .
N4 C13 H13C 109.5 . .
C4 C22 H22 118.6 . .
N1 C22 C4 122.9(5) . .
N1 C22 H22 118.6 . .
C1 N1 Pd1 121.2(3) . .
C22 N1 C1 117.4(4) . .
C22 N1 Pd1 121.3(3) . .
C3 N2 C10 122.5(6) . .
C3 N2 C11 121.1(6) . .
C11 N2 C10 116.3(6) . .
C5 N3 Pd1 121.1(3) . .
C9 N3 C5 118.2(4) . .
C9 N3 Pd1 120.6(3) . .
C7 N4 C12 122.5(7) . .
C7 N4 C13 121.4(7) . .
C13 N4 C12 115.9(6) . .
N1 Pd1 N1 180.0 . 2_665
N1 Pd1 N3 90.40(14) . 2_665
N1 Pd1 N3 89.60(14) . .
N1 Pd1 N3 90.40(14) 2_665 .
N1 Pd1 N3 89.60(14) 2_665 2_665
N3 Pd1 N3 180.0 . 2_665
loop_
_geom_bond_atom_site_label_1
_geom_bond_atom_site_label_2
_geom_bond_distance
C1 H1 0.9300
C1 C2 1.364(7)
C1 N1 1.324(6)
C2 H2 0.9300
C2 C3 1.400(8)
C3 C4 1.394(8)
C3 N2 1.334(6)
C4 H4 0.9300
C4 C22 1.379(6)
C5 H5 0.9300
C5 C6 1.357(7)
C5 N3 1.324(6)
C6 H6 0.9300
C6 C7 1.405(8)
C7 C8 1.388(8)
C7 N4 1.325(7)
C8 H8 0.9300
C8 C9 1.392(7)
C9 H9 0.9300
C9 N3 1.306(6)
C10 H10A 0.9600
C10 H10B 0.9600
C10 H10C 0.9600
C10 N2 1.439(8)
C11 H11A 0.9600
C11 H11B 0.9600
C11 H11C 0.9600
C11 N2 1.433(8)
C12 H12A 0.9600
C12 H12B 0.9600
C12 H12C 0.9600
C12 N4 1.449(11)
C13 H13A 0.9600
C13 H13B 0.9600
C13 H13C 0.9600
C13 N4 1.441(11)
C22 H22 0.9300
C22 N1 1.317(6)
N1 Pd1 2.028(3)
N3 Pd1 2.038(4)
loop_
_platon_squeeze_void_nr
_platon_squeeze_void_average_x
_platon_squeeze_void_average_y
_platon_squeeze_void_average_z
_platon_squeeze_void_volume
_platon_squeeze_void_count_electrons
_platon_squeeze_void_content
1 -0.007 -0.001 -0.017 534 149 ' '
loop_
_refln_index_h
_refln_index_k
_refln_index_l
_refln_F_squared_meas
_refln_F_squared_sigma
-12 -1 4 0.6 0.43
-12 -1 5 1.39 0.48
-12 -1 6 0.29 0.45
-12 -1 7 0.44 0.44
-12 0 3 0.22 0.41
-12 0 4 0.41 0.45
-12 0 5 1.56 0.51
-12 0 6 1.02 0.49
-12 0 7 0.67 0.47
-12 1 4 1.41 0.49
-12 1 5 1.4 0.51
-12 1 6 1.3 0.52
-12 1 7 0.96 0.48
-12 3 6 0.44 0.43
-12 3 7 0.21 0.41
-12 4 6 0.12 0.41
-12 4 7 -0.14 0.4
-11 -4 3 0.76 0.43
-11 -4 4 1.51 0.5
-11 -4 5 2.18 0.57
-11 -4 6 1.92 0.54
-11 -4 7 0.07 0.46
-11 -4 8 0.36 0.44
-11 -3 2 0.27 0.47
-11 -3 3 0.31 0.52
-11 -3 4 1.6 0.59
-11 -3 5 2.99 0.66
-11 -3 6 2.01 0.63
-11 -3 7 0.11 0.58
-11 -3 8 0.86 0.54
-11 -3 9 1.37 0.5
-11 -2 1 1.07 0.51
-11 -2 2 0.82 0.56
-11 -2 3 0.34 0.58
-11 -2 4 1.54 0.66
-11 -2 5 2.6 0.71
-11 -2 6 1.33 0.66
-11 -2 7 -1.34 0.7
-11 -2 8 1.53 0.62
-11 -2 9 2.03 0.58
-11 -2 10 0.75 0.45
-11 -1 0 0.28 0.43
-11 -1 1 2.13 0.58
-11 -1 2 1.39 0.62
-11 -1 3 1.59 0.67
-11 -1 4 2.54 0.73
-11 -1 5 2.44 0.74
-11 -1 6 -0.11 0.64
-11 -1 7 -0.5 0.66
-11 -1 8 0.92 0.63
-11 -1 9 1.48 0.59
-11 -1 10 0.59 0.46
-11 0 2 0.44 0.62
-11 0 3 2.01 0.71
-11 0 4 3.48 0.78
-11 0 5 1.33 0.71
-11 0 6 -0.37 0.69
-11 0 7 0.65 0.67
-11 0 8 1.72 0.61
-11 0 8 1.04 0.64
-11 0 9 2.54 0.64
-11 0 10 0.11 0.47
-11 1 2 1.17 0.65
-11 1 3 2.98 0.75
-11 1 4 4.84 0.84
-11 1 5 3.47 0.79
-11 1 6 1.16 0.71
-11 1 6 1.29 0.62
-11 1 7 1.7 0.64
-11 1 7 1.87 0.71
-11 1 8 1.32 0.65
-11 1 8 0.7 0.62
-11 1 9 0.2 0.54
-11 1 9 0.14 0.58
-11 1 10 -0.83 0.63
-11 1 10 0 0.46
-11 2 2 0.71 0.6
-11 2 3 1.32 0.67
-11 2 3 2.92 0.7
-11 2 4 3.53 0.66
-11 2 4 3.18 0.74
-11 2 5 1.33 0.69
-11 2 5 1.84 0.64
-11 2 6 3.15 0.73
-11 2 6 2.99 0.73
-11 2 7 5.13 0.79
-11 2 7 5.73 0.83
-11 2 8 3.08 0.74
-11 2 8 2.84 0.68
-11 2 9 1.16 0.62
-11 3 0 0.86 0.47
-11 3 1 0.72 0.55
-11 3 2 1.49 0.62
-11 3 2 0.63 0.54
-11 3 3 2.21 0.63
-11 3 3 1.7 0.57
-11 3 3 2.24 0.69
-11 3 4 1.06 0.59
-11 3 5 -0.16 0.62
-11 3 6 0.94 0.65
-11 3 7 3.95 0.78
-11 3 8 2.48 0.69
-11 3 9 1.37 0.61
-11 3 10 3.3 0.57
-11 4 0 1.01 0.47
-11 4 1 1.38 0.56
-11 4 2 1.75 0.63
-11 4 2 1.02 0.5
-11 4 3 2.24 0.62
-11 4 3 1.87 0.69
-11 4 4 0.85 0.61
-11 4 5 -0.08 0.62
-11 4 6 0.52 0.62
-11 4 7 0.99 0.64
-11 4 8 -1.23 0.63
-11 4 9 0 0.53
-11 4 10 2.51 0.5
-11 5 0 1.2 0.44
-11 5 1 0.77 0.41
-11 5 1 0.84 0.52
-11 5 2 1.3 0.51
-11 5 2 1.88 0.63
-11 5 3 1.28 0.66
-11 5 3 1.28 0.56
-11 5 4 0.32 0.59
-11 5 5 0.36 0.6
-11 5 6 1.78 0.66
-11 5 7 2.33 0.65
-11 5 8 -0.76 0.58
-11 5 9 0.22 0.46
-11 6 1 1.2 0.48
-11 6 2 1.2 0.48
-11 6 2 1.65 0.57
-11 6 3 1.5 0.54
-11 6 4 0.31 0.54
-11 6 5 1.46 0.6
-11 6 6 2.5 0.63
-11 6 7 0.79 0.54
-11 6 8 -0.73 0.48
-11 7 2 0.59 0.39
-11 7 3 0.62 0.44
-11 7 4 0.2 0.46
-11 7 5 1.27 0.5
-11 7 6 2.3 0.52
-11 7 7 0.32 0.43
-10 -5 2 1.67 0.52
-10 -5 3 1.26 0.56
-10 -5 4 1.54 0.61
-10 -5 5 1.52 0.63
-10 -5 6 2.23 0.66
-10 -5 7 1.2 0.61
-10 -5 8 0.76 0.54
-10 -5 9 0.52 0.48
-10 -4 0 0.33 0.44
-10 -4 1 0.62 0.54
-10 -4 2 2.15 0.67
-10 -4 3 2.06 0.7
-10 -4 4 2.03 0.74
-10 -4 5 3.33 0.79
-10 -4 6 5.19 0.86
-10 -4 7 1.93 0.73
-10 -4 8 0.82 0.66
-10 -4 9 1.15 0.62
-10 -4 10 0.1 0.42
-10 -4 10 0.22 0.5
-10 -3 3 0.73 0.73
-10 -3 4 0.93 0.77
-10 -3 5 3.43 0.87
-10 -3 6 5.44 0.92
-10 -3 7 3.05 0.83
-10 -3 8 2.18 0.77
-10 -3 9 1.41 0.7
-10 -3 10 -0.51 0.52
-10 -3 10 1.73 0.63
-10 -3 11 1.09 0.49
-10 -2 4 1.23 0.8
-10 -2 5 3.83 0.91
-10 -2 6 4.57 0.91
-10 -2 7 2.8 0.84
-10 -2 8 1.66 0.79
-10 -2 9 1.07 0.72
-10 -2 10 1.87 0.66
-10 -2 11 0.18 0.52
-10 -1 4 1.14 0.79
-10 -1 5 3.65 0.9
-10 -1 6 1.75 0.84
-10 -1 7 2.18 0.8
-10 -1 8 2.28 0.76
-10 -1 8 1.06 0.78
-10 -1 9 0.72 0.72
-10 -1 10 0.83 0.65
-10 -1 11 0.25 0.54
-10 0 4 4.09 0.97
-10 0 5 3.52 0.91
-10 0 6 2.09 0.75
-10 0 6 0.71 0.82
-10 0 7 2.13 0.83
-10 0 7 3.48 0.84
-10 0 8 1.19 0.77
-10 0 8 1.49 0.79
-10 0 9 1.34 0.73
-10 0 9 0.72 0.72
-10 0 10 0.85 0.63
-10 0 11 0.38 0.55
-10 0 12 0.48 0.56
-10 1 4 13.67 1.07
-10 1 4 14.32 1.25
-10 1 5 10.85 1.16
-10 1 5 9.65 1.03
-10 1 6 2.75 0.91
-10 1 6 4.05 0.91
-10 1 7 3.49 0.91
-10 1 7 1.93 0.85
-10 1 8 0.78 0.76
-10 1 8 0.64 0.83
-10 1 9 0.3 0.69
-10 1 9 0.12 0.8
-10 1 10 0.53 0.72
-10 1 10 0.61 0.62
-10 1 11 0.73 0.55
-10 1 12 0.61 0.56
-10 2 -2 0.16 0.48
-10 2 -1 0.8 0.6
-10 2 0 2.39 0.72
-10 2 1 1.21 0.73
-10 2 2 -0.28 0.74
-10 2 3 0.43 0.7
-10 2 3 1.92 0.83
-10 2 4 5.12 0.88
-10 2 4 5.62 0.97
-10 2 4 6.97 1.02
-10 2 5 5.65 0.97
-10 2 5 6.31 0.96
-10 2 6 8.09 1.07
-10 2 6 7.39 1
-10 2 7 10.13 1.14
-10 2 7 9.66 1.05
-10 2 8 3.67 0.95
-10 2 8 3.54 0.84
-10 2 9 1.09 0.69
-10 2 9 0.71 0.83
-10 2 10 1.93 0.78
-10 2 10 0.8 0.62
-10 2 11 1.42 0.77
-10 2 12 1.03 0.56
-10 3 -2 0.64 0.51
-10 3 -1 0.94 0.63
-10 3 0 0.8 0.7
-10 3 1 1.08 0.75
-10 3 1 0.57 0.58
-10 3 2 1.1 0.77
-10 3 2 1.08 0.64
-10 3 3 1.59 0.77
-10 3 3 1.39 0.83
-10 3 3 0.74 0.73
-10 3 4 2.26 0.8
-10 3 4 2.91 0.88
-10 3 4 1.57 0.79
-10 3 5 1.67 0.85
-10 3 5 0.92 0.75
-10 3 5 0.15 0.82
-10 3 6 0.99 0.83
-10 3 7 4.69 0.95
-10 3 8 5.38 0.96
-10 3 9 2.95 0.86
-10 3 10 2.86 0.75
-10 3 10 1.83 0.86
-10 3 11 1.03 0.72
-10 4 -2 0.49 0.51
-10 4 -1 1.95 0.68
-10 4 0 1.56 0.58
-10 4 0 1.36 0.73
-10 4 1 0.7 0.6
-10 4 1 0.57 0.73
-10 4 2 1.3 0.82
-10 4 2 2.11 0.73
-10 4 3 3.9 0.96
-10 4 3 5.02 0.88
-10 4 4 2.77 0.86
-10 4 4 3.06 0.89
-10 4 5 1.43 0.85
-10 4 5 0.09 0.81
-10 4 6 1.22 0.83
-10 4 7 0.77 0.81
-10 4 8 1.28 0.8
-10 4 9 0.23 0.77
-10 4 9 -0.44 0.74
-10 4 10 1.1 0.76
-10 4 10 2.39 0.68
-10 4 11 1.39 0.65
-10 5 -2 1.52 0.5
-10 5 -1 1.79 0.5
-10 5 -1 1.32 0.6
-10 5 0 1.14 0.69
-10 5 0 1.79 0.61
-10 5 1 1.4 0.75
-10 5 1 1.82 0.69
-10 5 2 2.66 0.86
-10 5 2 3.85 0.79
-10 5 3 5.93 0.92
-10 5 3 4.08 0.94
-10 5 4 1.64 0.84
-10 5 4 1.97 0.82
-10 5 5 1.11 0.8
-10 5 6 2.74 0.86
-10 5 7 1.13 0.76
-10 5 8 0.05 0.7
-10 5 9 -0.02 0.64
-10 5 10 2.07 0.57
-10 5 10 1.17 0.66
-10 6 -2 0.93 0.43
-10 6 -1 0.98 0.44
-10 6 -1 0.95 0.54
-10 6 0 0.55 0.52
-10 6 0 0.21 0.61
-10 6 1 0.38 0.62
-10 6 1 0.31 0.66
-10 6 2 2.62 0.83
-10 6 2 4.28 0.79
-10 6 3 4.49 0.92
-10 6 3 5.06 0.87
-10 6 4 2.39 0.83
-10 6 4 2.18 0.8
-10 6 5 1.7 0.77
-10 6 5 4.74 0.86
-10 6 6 2.58 0.79
-10 6 7 1.24 0.71
-10 6 8 0.3 0.61
-10 6 9 0.06 0.54
-10 6 10 1.02 0.44
-10 7 -1 0.6 0.37
-10 7 -1 0.84 0.44
-10 7 0 0.31 0.51
-10 7 0 0.23 0.46
-10 7 1 0.27 0.55
-10 7 1 0.56 0.59
-10 7 2 2.06 0.69
-10 7 2 2.25 0.67
-10 7 3 1.84 0.73
-10 7 3 1.64 0.67
-10 7 4 3.88 0.74
-10 7 4 1.06 0.68
-10 7 5 4.14 0.82
-10 7 5 1.57 0.7
-10 7 6 4.84 0.8
-10 7 6 2.57 0.72
-10 7 7 1.42 0.61
-10 7 8 0.28 0.51
-10 7 9 1.18 0.45
-10 8 0 0.51 0.38
-10 8 0 0.72 0.42
-10 8 1 0.88 0.48
-10 8 1 1.36 0.53
-10 8 2 1.21 0.53
-10 8 2 1.76 0.6
-10 8 3 -0.4 0.57
-10 8 4 1.83 0.59
-10 8 4 -0.28 0.56
-10 8 5 2.6 0.65
-10 8 5 0.93 0.55
-10 8 6 1.37 0.54
-10 8 7 1.34 0.48
-10 9 2 0.93 0.4
-10 9 3 0.52 0.42
-10 9 4 -0.39 0.43
-10 9 5 0.39 0.39
-9 -7 9 0.52 0.42
-9 -6 4 1.07 0.64
-9 -6 5 1.82 0.71
-9 -6 6 3.13 0.76
-9 -6 7 4.48 0.76
-9 -6 8 1.57 0.65
-9 -6 9 1.87 0.58
-9 -6 10 0.1 0.43
-9 -5 1 7.19 0.82
-9 -5 2 2.46 0.74
-9 -5 3 1.67 0.75
-9 -5 4 2.24 0.83
-9 -5 5 3.12 0.88
-9 -5 6 4.82 0.92
-9 -5 7 4.3 0.89
-9 -5 8 1.62 0.76
-9 -5 9 1.24 0.67
-9 -5 10 -0.13 0.58
-9 -5 10 -0.22 0.53
-9 -4 3 2.07 0.86
-9 -4 4 7.41 1.08
-9 -4 5 9.05 1.15
-9 -4 6 12.43 1.24
-9 -4 7 4.86 0.99
-9 -4 8 1.87 0.85
-9 -4 9 1.07 0.76
-9 -4 10 2.06 0.73
-9 -4 11 2.77 0.66
-9 -4 11 3.55 0.54
-9 -3 4 6.08 1.07
-9 -3 5 8.51 1.16
-9 -3 6 13.25 1.28
-9 -3 7 6.76 1.08
-9 -3 8 4.22 0.97
-9 -3 9 0.23 0.8
-9 -3 10 3.44 0.83
-9 -3 11 1.65 0.7
-9 -3 11 2.78 0.58
-9 -3 12 1.94 0.55
-9 -2 5 13.16 1.31
-9 -2 6 8.53 1.16
-9 -2 7 2.68 0.95
-9 -2 8 1.66 0.9
-9 -2 8 4.03 0.9
-9 -2 9 0.02 0.81
-9 -2 10 5.82 0.94
-9 -2 11 2.63 0.74
-9 -2 12 1.27 0.57
-9 -1 5 13.4 1.3
-9 -1 6 4.97 0.91
-9 -1 6 5.37 1.04
-9 -1 7 2.51 0.88
-9 -1 7 4.21 0.96
-9 -1 8 1.55 0.86
-9 -1 8 -0.18 0.88
-9 -1 9 2.42 0.94
-9 -1 9 1.34 0.85
-9 -1 10 4.87 0.91
-9 -1 11 1.75 0.73
-9 -1 12 0.91 0.57
-9 0 5 10.71 1.09
-9 0 5 11.79 1.24
-9 0 6 2.66 0.87
-9 0 6 2.92 0.95
-9 0 7 6.2 1.05
-9 0 7 4.65 0.99
-9 0 8 0 0.86
-9 0 8 1.24 0.91
-9 0 9 4.2 1.05
-9 0 9 3.58 0.93
-9 0 10 2.8 0.84
-9 0 10 3.21 0.94
-9 0 11 1.68 0.71
-9 0 12 0.74 0.57
-9 1 2 8.55 1.11
-9 1 3 21.1 1.46
-9 1 3 22.02 1.34
-9 1 4 34.38 1.61
-9 1 4 33.93 1.7
-9 1 5 15.74 1.35
-9 1 5 20.43 1.46
-9 1 5 18.57 1.37
-9 1 6 5.17 1.02
-9 1 6 5.26 1.04
-9 1 7 2.37 0.91
-9 1 7 4 1
-9 1 8 2.59 0.97
-9 1 8 -0.36 0.91
-9 1 9 7.26 1.16
-9 1 9 6.6 1.02
-9 1 10 6.15 1.09
-9 1 10 5.72 0.91
-9 1 11 2.69 0.72
-9 1 12 0.32 0.53
-9 1 12 1.07 0.77
-9 2 1 0.59 0.64
-9 2 2 4.56 0.85
-9 2 2 2.17 0.94
-9 2 3 7.25 0.99
-9 2 3 4.39 1.01
-9 2 4 20.08 1.38
-9 2 4 17.78 1.42
-9 2 5 12.5 1.24
-9 2 5 12.05 1.26
-9 2 5 14.34 1.28
-9 2 6 11.13 1.23
-9 2 6 11.14 1.22
-9 2 7 4.35 0.93
-9 2 7 5.12 1.06
-9 2 8 3.06 0.91
-9 2 8 6.16 1.07
-9 2 9 4.56 0.92
-9 2 9 5.25 1.07
-9 2 10 4.43 0.84
-9 2 10 4.97 1.02
-9 2 11 1.79 0.67
-9 2 12 2.05 0.8
-9 3 0 1.14 0.67
-9 3 1 2.39 0.79
-9 3 2 4.62 0.9
-9 3 2 3.66 0.99
-9 3 3 8.36 1.07
-9 3 3 6.34 1.09
-9 3 4 6.47 1.1
-9 3 4 8.08 1.03
-9 3 4 8.01 1.08
-9 3 5 2.15 0.89
-9 3 5 2.7 0.87
-9 3 5 2.57 0.95
-9 3 6 2.99 0.91
-9 3 7 2.76 0.95
-9 3 8 10.11 1.18
-9 3 9 4.5 1.03
-9 3 10 3.66 0.9
-9 3 11 1.28 0.92
-9 3 12 0.19 0.67
-9 4 -2 7.17 0.76
-9 4 -1 3.83 0.76
-9 4 0 2.02 0.75
-9 4 1 4.14 0.89
-9 4 2 6.78 1.01
-9 4 2 4.99 1.07
-9 4 3 13.87 1.11
-9 4 3 12.3 1.3
-9 4 3 12.75 1.24
-9 4 4 7.04 1.07
-9 4 4 7.09 1.04
-9 4 4 5.28 1.07
-9 4 5 3.97 1.03
-9 4 5 1.94 0.96
-9 4 5 2.98 0.91
-9 4 6 2.75 1
-9 4 6 2.09 0.9
-9 4 7 1.6 0.89
-9 4 8 5.98 1.05
-9 4 9 2.75 1.08
-9 4 9 3.9 0.96
-9 4 10 2.88 0.81
-9 4 10 2.1 0.99
-9 4 11 1.87 0.85
-9 4 12 -0.4 0.6
-9 5 -3 1.61 0.47
-9 5 -2 3.04 0.64
-9 5 -1 2.37 0.72
-9 5 0 3.59 0.87
-9 5 1 6.55 1.03
-9 5 1 4.4 1.03
-9 5 2 6.12 1.11
-9 5 2 7.71 1.06
-9 5 3 10.08 1.25
-9 5 3 11.65 1.2
-9 5 3 10.47 1.07
-9 5 4 3.95 0.97
-9 5 4 3.74 0.98
-9 5 4 3.86 0.96
-9 5 5 2.28 0.87
-9 5 5 2.48 0.94
-9 5 5 1.7 0.89
-9 5 6 1.32 0.97
-9 5 6 0.31 0.82
-9 5 7 2.29 0.88
-9 5 7 3.54 1.04
-9 5 8 1.8 0.99
-9 5 8 4.23 0.92
-9 5 9 2.26 0.96
-9 5 9 3.67 0.86
-9 5 10 1.94 0.68
-9 5 10 0.82 0.84
-9 5 11 0.29 0.71
-9 6 -3 1.81 0.47
-9 6 -2 1.53 0.59
-9 6 -1 -0.16 0.65
-9 6 0 1.72 0.79
-9 6 0 0.66 0.77
-9 6 1 3.21 0.92
-9 6 1 3.94 0.93
-9 6 2 8.01 1.16
-9 6 2 8.69 1.11
-9 6 3 8.39 1.18
-9 6 3 9.81 1.12
-9 6 3 8.82 1.03
-9 6 4 3.67 1
-9 6 4 4.13 0.97
-9 6 4 4.58 1
-9 6 5 2.17 0.92
-9 6 5 3.38 1
-9 6 5 3.11 0.89
-9 6 6 1.38 0.94
-9 6 6 0.23 0.81
-9 6 7 3.88 0.99
-9 6 7 1.49 0.81
-9 6 8 1.82 0.75
-9 6 9 0.39 0.63
-9 6 9 0.99 0.82
-9 6 10 0.2 0.72
-9 6 10 0.8 0.54
-9 6 11 -0.53 0.59
-9 7 -3 1.41 0.39
-9 7 -3 1 0.44
-9 7 -2 1.32 0.53
-9 7 -2 0.99 0.57
-9 7 -1 0.16 0.63
-9 7 -1 -0.41 0.63
-9 7 0 0.09 0.71
-9 7 0 0.43 0.69
-9 7 1 0.3 0.77
-9 7 1 1.25 0.78
-9 7 2 4.02 0.91
-9 7 2 4.75 0.94
-9 7 3 5.5 0.97
-9 7 3 5.13 0.99
-9 7 3 3.76 0.86
-9 7 4 3.64 0.92
-9 7 4 4.62 0.96
-9 7 4 4.76 0.93
-9 7 5 2.67 0.9
-9 7 5 2.13 0.83
-9 7 6 1.9 0.77
-9 7 6 1.94 0.9
-9 7 7 2.73 0.75
-9 7 7 4.91 0.94
-9 7 8 5.21 0.88
-9 7 8 2.99 0.67
-9 7 9 0.87 0.53
-9 7 10 -1.37 0.62
-9 8 -2 0.66 0.42
-9 8 -2 0.63 0.44
-9 8 -1 0.9 0.54
-9 8 -1 0.64 0.52
-9 8 0 1.59 0.66
-9 8 0 1.38 0.65
-9 8 1 1.97 0.71
-9 8 1 2.5 0.74
-9 8 2 2.96 0.71
-9 8 2 2.9 0.76
-9 8 2 3.23 0.82
-9 8 3 1.48 0.71
-9 8 3 1.13 0.73
-9 8 3 1.05 0.74
-9 8 4 1.51 0.7
-9 8 4 1.11 0.79
-9 8 5 1.25 0.82
-9 8 5 0.46 0.65
-9 8 6 2.37 0.81
-9 8 6 1.3 0.65
-9 8 7 4.05 0.82
-9 8 7 3.38 0.64
-9 8 8 1.8 0.53
-9 9 -1 0.79 0.4
-9 9 0 0.85 0.49
-9 9 0 0.75 0.49
-9 9 1 2.83 0.63
-9 9 1 2.95 0.62
-9 9 2 3.18 0.65
-9 9 2 2.92 0.66
-9 9 2 2.22 0.6
-9 9 3 0.76 0.58
-9 9 3 0.73 0.62
-9 9 4 -0.18 0.68
-9 9 4 -0.13 0.58
-9 9 5 -0.09 0.67
-9 9 5 0.07 0.5
-9 9 6 1.38 0.49
-9 9 6 1.99 0.7
-9 9 7 4.2 0.68
-9 10 1 1.27 0.4
-9 10 2 0.83 0.41
-9 10 3 0.88 0.43
-9 10 3 1.42 0.52
-9 10 4 -0.24 0.39
-9 10 4 0.14 0.52
-9 10 5 -0.59 0.54
-9 10 6 1.1 0.51
-8 -8 8 1.55 0.58
-8 -8 9 1.92 0.51
-8 -7 9 2.2 0.65
-8 -7 10 1.06 0.49
-8 -6 3 1.46 0.76
-8 -6 4 3.57 0.87
-8 -6 5 4.14 0.9
-8 -6 6 5.17 0.92
-8 -6 7 4.2 0.9
-8 -6 8 2.85 0.85
-8 -6 9 3.02 0.77
-8 -6 10 0.27 0.59
-8 -6 10 -0.71 0.6
-8 -6 11 1.04 0.47
-8 -5 3 7.8 1.09
-8 -5 4 9.72 1.16
-8 -5 5 6.78 1.08
-8 -5 6 8.27 1.12
-8 -5 7 8.24 1.13
-8 -5 8 7.34 1.08
-8 -5 9 4.15 0.91
-8 -5 10 -0.62 0.65
-8 -5 10 -0.57 0.72
-8 -5 11 1.04 0.63
-8 -5 11 0.76 0.54
-8 -4 4 16.43 1.42
-8 -4 5 13.14 1.34
-8 -4 6 13.67 1.36
-8 -4 7 11.09 1.29
-8 -4 8 10.44 1.26
-8 -4 9 4.9 1.02
-8 -4 10 3.22 0.89
-8 -4 11 5.55 0.75
-8 -4 11 7.36 0.92
-8 -4 12 1.08 0.59
-8 -3 5 8.67 1.18
-8 -3 6 15.16 1.38
-8 -3 7 14.76 1.38
-8 -3 8 14.83 1.37
-8 -3 9 1.12 0.87
-8 -3 10 4.98 0.98
-8 -3 11 5.48 0.78
-8 -3 11 5.5 0.94
-8 -3 12 3.67 0.75
-8 -2 5 9.07 1.19
-8 -2 6 11.64 1.28
-8 -2 7 10.24 1.16
-8 -2 7 11.55 1.31
-8 -2 8 11.68 1.24
-8 -2 8 10.54 1.25
-8 -2 9 -0.11 0.9
-8 -2 10 8.51 1.1
-8 -2 11 2.32 0.84
-8 -2 12 1.97 0.72
-8 -2 13 1.4 0.52
-8 -1 5 12.16 1.24
-8 -1 5 12.84 1.14
-8 -1 6 10.93 1.24
-8 -1 6 12.07 1.2
-8 -1 7 12.35 1.28
-8 -1 7 15.27 1.37
-8 -1 8 1.36 0.93
-8 -1 8 3.04 1.04
-8 -1 9 1.14 0.89
-8 -1 9 1.31 0.99
-8 -1 10 9.86 1.15
-8 -1 11 1.39 0.83
-8 -1 12 1.71 0.71
-8 -1 13 0.98 0.62
-8 -1 13 1.38 0.53
-8 0 4 7.76 0.97
-8 0 5 15.02 1.23
-8 0 5 13.31 1.27
-8 0 6 16.27 1.34
-8 0 6 15.37 1.35
-8 0 7 30.49 1.75
-8 0 7 31.37 1.73
-8 0 8 0.52 0.85
-8 0 8 1.24 0.98
-8 0 9 4.45 1.13
-8 0 9 4.2 1.01
-8 0 10 4.54 0.97
-8 0 10 4 1.12
-8 0 11 1.1 0.8
-8 0 12 1.63 0.69
-8 0 13 1.84 0.58
-8 0 13 0.83 0.51
-8 0 13 1.31 0.65
-8 1 2 33.18 1.52
-8 1 3 43.29 1.87
-8 1 3 44.01 1.75
-8 1 4 30.46 1.55
-8 1 4 29.11 1.58
-8 1 5 23.48 1.45
-8 1 5 22.45 1.48
-8 1 5 24.05 1.5
-8 1 6 17.33 1.37
-8 1 6 17.75 1.4
-8 1 7 17.48 1.45
-8 1 7 17.69 1.37
-8 1 8 -0.44 0.93
-8 1 8 1.25 0.97
-8 1 9 13.78 1.28
-8 1 9 14.56 1.43
-8 1 10 8.56 1.08
-8 1 10 8.63 1.25
-8 1 11 3.87 0.88
-8 1 12 1.98 0.68
-8 1 13 -0.13 0.61
-8 1 13 0.09 0.52
-8 2 0 2.63 0.79
-8 2 1 4.15 0.87
-8 2 2 9.8 1.1
-8 2 3 6.94 0.97
-8 2 3 8.76 1
-8 2 4 19.19 1.32
-8 2 4 17.84 1.36
-8 2 4 20.88 1.36
-8 2 5 22.53 1.42
-8 2 5 23.46 1.53
-8 2 5 25.14 1.51
-8 2 5 21.76 1.44
-8 2 6 33.65 1.67
-8 2 6 31.71 1.7
-8 2 7 6.98 1.13
-8 2 7 6.79 1.05
-8 2 8 0.35 0.86
-8 2 8 2.7 0.99
-8 2 9 8.96 1.23
-8 2 9 8.95 1.09
-8 2 10 8.36 1.2
-8 2 10 8.52 1.04
-8 2 11 5.02 0.86
-8 2 12 2.39 0.75
-8 2 12 1.34 0.91
-8 2 12 3 0.68
-8 2 13 0.52 0.6
-8 3 -1 10.45 1.05
-8 3 0 6.74 0.95
-8 3 0 6.36 0.96
-8 3 1 8.7 1.06
-8 3 2 11.62 1.14
-8 3 3 6.59 1.01
-8 3 3 4.36 0.98
-8 3 3 7.02 0.98
-8 3 4 12.55 1.2
-8 3 4 13.2 1.29
-8 3 4 15.14 1.26
-8 3 5 13.11 1.3
-8 3 5 14.74 1.26
-8 3 5 13.96 1.3
-8 3 6 25.86 1.57
-8 3 6 25.26 1.6
-8 3 7 1.01 0.88
-8 3 7 3.69 1.11
-8 3 8 9.96 1.2
-8 3 9 5.35 1.1
-8 3 10 5.71 1.07
-8 3 11 2.81 1.04
-8 3 12 0.83 0.83
-8 3 13 0.43 0.57
-8 4 -4 1.76 0.65
-8 4 -3 4.91 0.85
-8 4 -2 18.78 1.28
-8 4 -1 9.19 1.07
-8 4 0 4.59 0.94
-8 4 1 11.42 1.13
-8 4 1 11.75 1.17
-8 4 2 7.95 1.08
-8 4 3 7.12 1.03
-8 4 3 8.04 1.08
-8 4 3 6.34 1.1
-8 4 4 8.96 1.17
-8 4 4 8.74 1.21
-8 4 4 10.62 1.15
-8 4 5 15.66 1.29
-8 4 5 14.35 1.38
-8 4 5 14.96 1.35
-8 4 6 16.16 1.31
-8 4 6 13.13 1.33
-8 4 7 2.71 1.04
-8 4 7 0.15 0.83
-8 4 8 12.53 1.24
-8 4 8 14.75 1.36
-8 4 9 7.66 1.1
-8 4 10 4.3 0.93
-8 4 10 4.09 1.16
-8 4 11 1.84 0.98
-8 4 12 1.14 0.77
-8 5 -5 1.45 0.48
-8 5 -4 0.6 0.59
-8 5 -3 4.96 0.83
-8 5 -2 11.53 1.1
-8 5 -1 7.04 1.04
-8 5 0 8.76 1.13
-8 5 1 13.99 1.26
-8 5 2 5.87 0.95
-8 5 2 7 1.08
-8 5 3 9.87 1.13
-8 5 3 12.21 1.23
-8 5 3 12.26 1.31
-8 5 4 6.8 1.13
-8 5 4 7.56 1.16
-8 5 4 9.1 1.09
-8 5 5 10.48 1.26
-8 5 5 11.54 1.17
-8 5 5 10.15 1.24
-8 5 6 1.33 0.96
-8 5 6 1.7 0.9
-8 5 7 1.29 1.07
-8 5 7 1.2 0.96
-8 5 7 0.12 0.79
-8 5 8 7.44 1.14
-8 5 8 6.93 1.01
-8 5 8 7.34 1.28
-8 5 9 6.67 1.01
-8 5 9 6.83 1.29
-8 5 10 2.61 0.75
-8 5 10 1.09 0.98
-8 5 11 1.38 0.86
-8 5 12 -0.67 0.64
-8 6 -4 0.34 0.55
-8 6 -3 4.82 0.8
-8 6 -2 3.84 0.88
-8 6 -1 2.38 0.87
-8 6 0 6.71 1.04
-8 6 1 8.51 1.16
-8 6 2 10.6 1.18
-8 6 2 7.56 1.2
-8 6 2 9.14 1.05
-8 6 3 13.12 1.25
-8 6 3 13.76 1.25
-8 6 3 11.48 1.29
-8 6 4 11.66 1.19
-8 6 4 10.49 1.24
-8 6 4 10.19 1.25
-8 6 5 14.01 1.23
-8 6 5 13 1.33
-8 6 5 14.49 1.36
-8 6 6 -0.65 0.81
-8 6 6 0.45 0.93
-8 6 7 1.79 0.96
-8 6 7 2.92 1.08
-8 6 7 1.35 0.77
-8 6 8 2.31 0.92
-8 6 8 0.81 1.01
-8 6 8 2.5 0.8
-8 6 9 0.89 0.98
-8 6 9 1.57 0.72
-8 6 10 0.46 0.87
-8 6 10 0.94 0.59
-8 6 11 0.38 0.73
-8 6 12 -0.13 0.52
-8 7 -4 1.49 0.53
-8 7 -4 1.76 0.51
-8 7 -3 6.43 0.79
-8 7 -2 3.21 0.8
-8 7 -1 1.73 0.78
-8 7 0 2.56 0.88
-8 7 1 2.17 0.92
-8 7 1 2.28 0.93
-8 7 2 8.09 1.13
-8 7 2 6.27 1.1
-8 7 3 9.49 1.15
-8 7 3 8.19 1.16
-8 7 3 11.47 1.19
-8 7 4 12.22 1.2
-8 7 4 15.02 1.31
-8 7 4 11.53 1.26
-8 7 5 8.44 1.15
-8 7 5 8.43 1.04
-8 7 6 0 0.96
-8 7 6 -0.36 0.75
-8 7 7 4.14 0.84
-8 7 7 4.41 1
-8 7 8 5.49 0.99
-8 7 8 4.82 1.02
-8 7 8 5.83 0.82
-8 7 9 1.59 0.88
-8 7 9 0.65 0.58
-8 7 10 0.03 0.77
-8 7 11 -0.06 0.57
-8 8 -4 0.98 0.39
-8 8 -3 2.32 0.58
-8 8 -3 4.23 0.64
-8 8 -2 2.63 0.7
-8 8 -2 2 0.68
-8 8 -1 1.7 0.72
-8 8 0 1.35 0.78
-8 8 0 3.12 0.89
-8 8 1 1.79 0.86
-8 8 1 1.99 0.73
-8 8 1 1.35 0.81
-8 8 2 6.6 0.93
-8 8 2 5.47 0.95
-8 8 2 4.4 0.96
-8 8 3 4.67 0.91
-8 8 3 7.63 1.03
-8 8 3 5.4 1
-8 8 4 11.4 1.2
-8 8 4 8.34 0.98
-8 8 5 2.22 0.97
-8 8 5 2.78 0.79
-8 8 6 1.63 0.7
-8 8 6 0.05 0.89
-8 8 7 4.64 0.74
-8 8 7 2.61 0.9
-8 8 8 4.96 0.83
-8 8 9 0.75 0.71
-8 8 10 0.63 0.62
-8 9 -3 0.79 0.4
-8 9 -2 0.37 0.5
-8 9 -2 0.3 0.46
-8 9 -1 1.89 0.64
-8 9 -1 0.9 0.57
-8 9 0 2.03 0.71
-8 9 0 2.52 0.69
-8 9 1 2.46 0.72
-8 9 1 1.85 0.73
-8 9 1 2.87 0.73
-8 9 2 2.06 0.73
-8 9 2 2.87 0.78
-8 9 2 2.18 0.74
-8 9 3 2.88 0.84
-8 9 3 1.96 0.72
-8 9 4 3.39 0.73
-8 9 4 3.92 0.9
-8 9 5 -0.52 0.89
-8 9 5 0.27 0.57
-8 9 6 0.52 0.78
-8 9 7 2.41 0.77
-8 9 8 4.74 0.68
-8 10 -2 0.3 0.35
-8 10 -1 0.19 0.41
-8 10 0 0.29 0.48
-8 10 1 2.65 0.58
-8 10 1 0.78 0.54
-8 10 2 3.01 0.69
-8 10 2 2.42 0.6
-8 10 3 2.21 0.74
-8 10 3 1.33 0.54
-8 10 4 -0.27 0.48
-8 10 4 -0.98 0.75
-8 10 6 -0.88 0.65
-8 10 7 2.5 0.6
-8 11 2 0.8 0.49
-8 11 3 2.91 0.6
-8 11 4 0.87 0.56
-8 11 5 -0.19 0.51
-8 11 6 -0.19 0.45
-7 -9 7 1.59 0.61
-7 -9 8 3.84 0.6
-7 -8 8 4.52 0.81
-7 -8 9 5.02 0.74
-7 -8 10 2.47 0.54
-7 -7 9 6.38 0.89
-7 -7 10 1.93 0.65
-7 -7 11 1.01 0.47
-7 -6 5 6.52 1.05
-7 -6 6 10.57 1.18
-7 -6 7 5.92 1.03
-7 -6 8 8.54 1.15
-7 -6 9 4.07 0.88
-7 -6 10 -0.85 0.69
-7 -6 10 -0.89 0.72
-7 -6 11 1.04 0.57
-7 -6 11 0.8 0.6
-7 -5 4 9.99 1.19
-7 -5 5 12.01 1.29
-7 -5 6 24.87 1.61
-7 -5 7 24.83 1.65
-7 -5 8 21.4 1.56
-7 -5 9 8.22 1.14
-7 -5 10 0.56 0.8
-7 -5 10 -0.9 0.76
-7 -5 11 1.27 0.74
-7 -5 11 0.79 0.63
-7 -5 12 0.94 0.58
-7 -5 12 1.11 0.5
-7 -4 4 10.4 1.21
-7 -4 5 21.74 1.52
-7 -4 6 27.63 1.71
-7 -4 7 25.23 1.67
-7 -4 8 20.91 1.59
-7 -4 9 10.73 1.29
-7 -4 10 3.09 0.97
-7 -4 11 10.04 1.1
-7 -4 11 9.46 0.93
-7 -4 12 0.95 0.71
-7 -4 12 1.14 0.56
-7 -3 5 19.89 1.44
-7 -3 6 26.29 1.65
-7 -3 7 29.04 1.62
-7 -3 7 30.14 1.76
-7 -3 8 23.94 1.67
-7 -3 9 0.94 0.94
-7 -3 10 5.25 1.06
-7 -3 11 11.57 1.17
-7 -3 11 9.75 0.95
-7 -3 12 4.79 0.88
-7 -3 12 4.09 0.67
-7 -3 13 3.06 0.64
-7 -2 5 18.26 1.35
-7 -2 6 29.49 1.57
-7 -2 6 29.08 1.63
-7 -2 7 25.39 1.64
-7 -2 7 24.2 1.58
-7 -2 8 22.08 1.61
-7 -2 8 21.46 1.57
-7 -2 9 -1.01 0.97
-7 -2 10 10.46 1.24
-7 -2 11 7.1 0.87
-7 -2 11 7.58 1.08
-7 -2 12 5.37 0.9
-7 -2 13 2.06 0.64
-7 -1 5 39.81 1.76
-7 -1 5 40.74 1.68
-7 -1 6 33.63 1.67
-7 -1 6 30.22 1.61
-7 -1 7 18.24 1.45
-7 -1 7 19.29 1.45
-7 -1 8 4.73 1.13
-7 -1 8 4.93 1.07
-7 -1 9 0.71 0.99
-7 -1 9 0.11 0.89
-7 -1 10 15.46 1.38
-7 -1 11 4.91 0.99
-7 -1 12 6 0.94
-7 -1 13 2.21 0.66
-7 -1 13 2 0.73
-7 0 5 60.5 2.04
-7 0 6 62.06 2.14
-7 0 6 66.56 2.2
-7 0 7 64.35 2.3
-7 0 7 63.26 2.23
-7 0 8 0.95 1
-7 0 8 1.11 0.91
-7 0 9 2.2 0.97
-7 0 9 2.99 1.09
-7 0 10 6.49 1.21
-7 0 10 6.85 1.12
-7 0 11 5 0.99
-7 0 12 3.77 0.85
-7 0 13 -0.06 0.68
-7 0 13 1.31 0.61
-7 1 5 50.45 1.84
-7 1 6 31.29 1.59
-7 1 6 30.1 1.6
-7 1 7 41.18 1.89
-7 1 7 39.48 1.79
-7 1 8 -0.89 0.95
-7 1 8 0.65 0.94
-7 1 9 26.09 1.61
-7 1 9 26.24 1.74
-7 1 10 13.31 1.37
-7 1 10 14.12 1.3
-7 1 11 9.11 1.1
-7 1 12 1.75 0.74
-7 1 13 0.7 0.56
-7 1 13 -0.07 0.62
-7 1 13 -0.39 0.69
-7 2 5 46.55 1.82
-7 2 5 46.35 1.77
-7 2 5 51.66 1.94
-7 2 6 35.39 1.71
-7 2 6 32.69 1.63
-7 2 6 35.39 1.65
-7 2 7 6.68 1.09
-7 2 7 10.26 1.31
-7 2 7 7.59 1.05
-7 2 8 0.22 0.87
-7 2 8 0.23 0.82
-7 2 9 18.16 1.48
-7 2 9 18.58 1.36
-7 2 10 13.15 1.22
-7 2 10 11.05 1.33
-7 2 11 9.56 1.07
-7 2 12 2.55 0.85
-7 2 12 2.15 0.98
-7 2 12 3.04 0.75
-7 2 13 1.5 0.7
-7 2 13 1.34 0.62
-7 3 -4 2.92 0.82
-7 3 -3 2.77 0.88
-7 3 -2 44.66 1.79
-7 3 -1 30.34 1.53
-7 3 0 10.48 1.05
-7 3 1 5.97 0.9
-7 3 2 14.46 1.11
-7 3 2 12.12 1.08
-7 3 3 27.69 1.41
-7 3 3 28.83 1.52
-7 3 4 53.02 1.83
-7 3 4 56.78 1.94
-7 3 4 58.11 2.03
-7 3 5 36.99 1.67
-7 3 5 40.11 1.7
-7 3 5 39.92 1.82
-7 3 6 52.04 1.99
-7 3 6 52.16 2.03
-7 3 7 1.12 1.02
-7 3 7 -0.13 0.86
-7 3 8 6.59 1.09
-7 3 8 10.98 1.3
-7 3 9 11.52 1.29
-7 3 10 10.56 1.24
-7 3 11 8.17 1.1
-7 3 11 4.21 1.18
-7 3 12 1.13 0.78
-7 3 12 1.45 0.95
-7 3 13 1.8 0.69
-7 3 13 0.9 0.55
-7 4 -6 1.16 0.54
-7 4 -5 1.46 0.68
-7 4 -4 3.18 0.86
-7 4 -3 10.01 1.13
-7 4 -2 52.1 1.98
-7 4 -1 13.99 1.26
-7 4 0 9.62 1.07
-7 4 1 7.93 1
-7 4 2 11.63 1.11
-7 4 2 9.73 0.98
-7 4 3 11.04 1.19
-7 4 3 13.81 1.13
-7 4 3 12.51 1.13
-7 4 4 29.92 1.5
-7 4 4 28.51 1.51
-7 4 4 30.17 1.6
-7 4 5 26.93 1.59
-7 4 5 30.9 1.66
-7 4 5 30.87 1.57
-7 4 6 37.82 1.8
-7 4 6 41.05 1.75
-7 4 7 1.11 0.99
-7 4 7 -0.43 0.82
-7 4 8 20.47 1.43
-7 4 8 20.56 1.47
-7 4 9 7.83 1.12
-7 4 10 8.27 1.44
-7 4 10 9.54 1.12
-7 4 11 4.37 0.89
-7 4 11 4.6 1.11
-7 4 12 4.44 0.97
-7 4 12 3.75 0.77
-7 4 13 1.46 0.59
-7 5 -6 0.35 0.5
-7 5 -5 0.56 0.63
-7 5 -4 0.97 0.79
-7 5 -3 13.66 1.22
-7 5 -2 29.85 1.65
-7 5 -1 13.94 1.32
-7 5 0 12.83 1.25
-7 5 1 10.16 1.14
-7 5 2 15.73 1.27
-7 5 2 16.89 1.22
-7 5 3 23.62 1.43
-7 5 3 25.74 1.59
-7 5 3 25.29 1.42
-7 5 4 15.3 1.33
-7 5 4 17.37 1.26
-7 5 4 17.01 1.33
-7 5 5 15.69 1.24
-7 5 5 17.17 1.38
-7 5 5 15.88 1.4
-7 5 6 2.08 0.84
-7 5 6 1.13 0.99
-7 5 7 1.35 0.98
-7 5 7 0.91 1.17
-7 5 7 0.32 0.76
-7 5 8 13.2 1.19
-7 5 8 15.59 1.33
-7 5 8 11.48 1.54
-7 5 9 11.48 1.49
-7 5 9 8.54 1.07
-7 5 10 4.18 1.19
-7 5 10 4.28 0.85
-7 5 11 1.01 0.93
-7 5 12 -0.12 0.72
-7 6 -6 0.87 0.5
-7 6 -5 1.16 0.63
-7 6 -4 0.36 0.72
-7 6 -3 13.69 1.2
-7 6 -2 10.54 1.19
-7 6 -1 6.43 1.1
-7 6 0 9.51 1.17
-7 6 1 14.11 1.16
-7 6 1 14.19 1.28
-7 6 2 17.16 1.28
-7 6 2 17.65 1.44
-7 6 3 25.21 1.49
-7 6 3 26.31 1.52
-7 6 3 23.92 1.56
-7 6 4 18.2 1.45
-7 6 4 20.07 1.36
-7 6 4 19.57 1.43
-7 6 5 32.69 1.71
-7 6 5 30.25 1.58
-7 6 5 30.18 1.73
-7 6 6 -0.29 1.02
-7 6 6 -0.99 0.82
-7 6 6 -0.63 0.97
-7 6 7 1.52 1.11
-7 6 7 1.35 0.77
-7 6 7 0.95 0.92
-7 6 8 2.32 0.93
-7 6 8 3.54 0.83
-7 6 8 2.41 1.15
-7 6 9 4.13 1.19
-7 6 9 3.87 0.82
-7 6 10 1.37 0.98
-7 6 11 1.33 0.85
-7 6 12 -0.6 0.63
-7 7 -6 1.09 0.42
-7 7 -5 1.71 0.6
-7 7 -4 3.2 0.78
-7 7 -3 12.37 1.12
-7 7 -2 3.66 0.93
-7 7 -1 2.75 0.93
-7 7 0 6.55 1.08
-7 7 1 9.61 1.16
-7 7 1 10.29 1.08
-7 7 2 17.68 1.38
-7 7 2 15.95 1.33
-7 7 3 21.49 1.42
-7 7 3 19.99 1.5
-7 7 3 20.88 1.48
-7 7 4 17.63 1.43
-7 7 4 17.14 1.42
-7 7 4 19.35 1.33
-7 7 5 13.19 1.16
-7 7 5 15.22 1.37
-7 7 6 -0.3 0.94
-7 7 6 0.52 0.76
-7 7 7 7.82 1.11
-7 7 7 8.72 1.27
-7 7 7 8.55 0.94
-7 7 8 5.99 1.2
-7 7 8 5.34 0.99
-7 7 9 7.08 0.87
-7 7 9 5.31 1.1
-7 7 10 -0.04 0.86
-7 7 11 0.47 0.69
-7 8 -5 0.54 0.46
-7 8 -4 4.07 0.71
-7 8 -3 8.1 0.94
-7 8 -2 2.51 0.84
-7 8 -1 1.96 0.85
-7 8 0 0.12 0.84
-7 8 0 1.51 0.74
-7 8 0 2.16 0.93
-7 8 1 2.21 0.86
-7 8 1 5.48 0.93
-7 8 2 12.58 1.24
-7 8 2 13.55 1.22
-7 8 2 11.58 1.2
-7 8 3 14.32 1.32
-7 8 3 15.19 1.24
-7 8 3 13.13 1.26
-7 8 4 17.96 1.39
-7 8 4 18.09 1.43
-7 8 4 20.84 1.3
-7 8 5 6.47 0.9
-7 8 5 6.5 1.11
-7 8 6 0.92 0.69
-7 8 6 2.95 0.95
-7 8 7 4.27 1.06
-7 8 7 4.14 0.95
-7 8 8 5.62 1.07
-7 8 8 6.84 0.91
-7 8 9 2.54 0.91
-7 8 10 1.42 0.77
-7 8 11 0.87 0.54
-7 9 -4 2.8 0.54
-7 9 -3 2.04 0.58
-7 9 -3 3.03 0.66
-7 9 -2 1.37 0.63
-7 9 -2 1.52 0.7
-7 9 -1 2.81 0.74
-7 9 -1 3.27 0.83
-7 9 0 2.39 0.73
-7 9 0 2.39 0.77
-7 9 1 2.43 0.77
-7 9 1 0.58 0.73
-7 9 1 1.82 0.79
-7 9 2 0.9 0.72
-7 9 2 0.83 0.85
-7 9 2 1.78 0.79
-7 9 3 2.91 0.78
-7 9 3 2.36 0.92
-7 9 4 11.65 1.21
-7 9 4 11.04 0.97
-7 9 5 2.21 0.91
-7 9 6 3.52 0.9
-7 9 7 2.69 0.83
-7 9 8 4.35 0.72
-7 9 8 2.85 0.84
-7 9 9 1.26 0.71
-7 9 10 2.19 0.58
-7 10 -3 1.32 0.47
-7 10 -2 0.02 0.5
-7 10 -1 1.4 0.62
-7 10 0 2.08 0.66
-7 10 0 2.2 0.65
-7 10 1 5.24 0.84
-7 10 1 5.4 0.77
-7 10 2 5.68 0.92
-7 10 2 4.21 0.71
-7 10 3 2.08 0.86
-7 10 4 0 0.77
-7 10 5 -0.73 0.78
-7 10 6 -2.45 0.85
-7 10 7 1.81 0.64
-7 10 8 4.47 0.56
-7 11 -1 1.33 0.42
-7 11 0 1.9 0.53
-7 11 0 0.98 0.43
-7 11 1 3.16 0.64
-7 11 2 4.49 0.75
-7 11 3 8.05 0.88
-7 11 4 2.21 0.73
-7 11 5 -0.78 0.65
-7 11 6 -1.03 0.58
-7 11 7 0.68 0.43
-7 12 1 2 0.45
-7 12 2 4.38 0.55
-7 12 3 4.27 0.58
-7 12 4 -0.13 0.49
-7 12 5 0.65 0.43
-6 -9 7 5.74 0.82
-6 -9 8 4.82 0.75
-6 -9 9 3.17 0.62
-6 -8 8 9.05 1.04
-6 -8 9 7 0.9
-6 -8 10 4.56 0.7
-6 -7 9 8.11 1.02
-6 -7 10 4.33 0.81
-6 -7 11 1.44 0.58
-6 -6 6 20.54 1.46
-6 -6 7 2.66 0.96
-6 -6 8 1.39 0.93
-6 -6 9 1.46 0.87
-6 -6 10 0.97 0.82
-6 -6 10 0.16 0.73
-6 -6 11 2.8 0.73
-6 -6 11 2.92 0.7
-6 -6 12 2.59 0.53
-6 -5 4 32.55 1.69
-6 -5 5 22.22 1.53
-6 -5 6 49.2 2.07
-6 -5 7 42.8 2.01
-6 -5 8 29.88 1.8
-6 -5 9 11.16 1.3
-6 -5 10 -0.22 0.76
-6 -5 10 1.16 0.86
-6 -5 11 1.88 0.73
-6 -5 11 1.83 0.82
-6 -5 12 1.71 0.69
-6 -5 12 1.1 0.57
-6 -4 4 26.89 1.51
-6 -4 5 41.16 1.83
-6 -4 6 39.17 1.86
-6 -4 7 31.16 1.78
-6 -4 8 27.33 1.74
-6 -4 9 20.76 1.61
-6 -4 10 6.49 1.01
-6 -4 10 5.49 1.09
-6 -4 11 9.43 0.99
-6 -4 11 11.14 1.18
-6 -4 12 0.38 0.61
-6 -4 12 0.64 0.75
-6 -4 13 2.48 0.62
-6 -3 6 26.51 1.55
-6 -3 7 36.36 1.79
-6 -3 7 36.23 1.83
-6 -3 8 32.26 1.79
-6 -3 9 8.04 1.22
-6 -3 10 6.25 1.15
-6 -3 10 5.81 0.97
-6 -3 11 8.86 1
-6 -3 11 9.07 1.17
-6 -3 12 1.6 0.84
-6 -3 12 2.51 0.69
-6 -3 13 3.38 0.73
-6 -2 6 27.41 1.51
-6 -2 7 33.16 1.73
-6 -2 7 32.7 1.72
-6 -2 8 39.77 2.01
-6 -2 8 33.32 1.85
-6 -2 9 2.48 1.01
-6 -2 10 14.59 1.19
-6 -2 10 13.67 1.39
-6 -2 11 8.52 0.95
-6 -2 11 8.16 1.14
-6 -2 12 4.69 0.94
-6 -2 13 2.83 0.74
-6 -1 7 15.49 1.33
-6 -1 7 15.85 1.29
-6 -1 8 18.09 1.46
-6 -1 8 19.55 1.46
-6 -1 9 1.32 0.95
-6 -1 9 2.18 1.06
-6 -1 10 15.43 1.43
-6 -1 11 5.62 1.06
-6 -1 12 10.05 1.11
-6 -1 13 3.73 0.76
-6 0 7 89.64 2.58
-6 0 7 91.17 2.53
-6 0 8 9.78 1.26
-6 0 8 11.02 1.24
-6 0 9 5.15 1.09
-6 0 9 5.13 1.15
-6 0 10 10.06 1.22
-6 0 11 3.07 0.98
-6 0 12 7.37 1.03
-6 0 13 -0.85 0.71
-6 0 13 1.42 0.67
-6 0 13 -0.02 0.7
-6 0 14 2.36 0.51
-6 1 7 81.97 2.34
-6 1 7 80.47 2.34
-6 1 8 6.67 1.11
-6 1 8 5.77 1.06
-6 1 9 31.63 1.8
-6 1 9 31.21 1.73
-6 1 10 11.51 1.26
-6 1 10 9.49 1.24
-6 1 11 7.89 1.13
-6 1 12 2.8 1.02
-6 1 12 4 0.88
-6 1 13 0.7 0.72
-6 1 13 1.83 0.65
-6 1 13 0.25 0.72
-6 2 7 40.45 1.73
-6 2 7 39.96 1.78
-6 2 8 3.69 0.99
-6 2 8 2.53 0.92
-6 2 9 22.95 1.56
-6 2 9 23.9 1.53
-6 2 10 4.41 1.08
-6 2 10 7.86 1.15
-6 2 11 13 1.23
-6 2 12 1.44 0.99
-6 2 12 2.3 0.78
-6 2 12 3.03 0.91
-6 2 13 2.39 0.74
-6 2 13 2.11 0.79
-6 3 -7 4.37 0.7
-6 3 7 8.42 1.02
-6 3 7 10.34 1.22
-6 3 8 17.08 1.34
-6 3 8 19.03 1.39
-6 3 9 24.79 1.56
-6 3 10 11.21 1.21
-6 3 11 9.4 1.4
-6 3 11 8.26 1.21
-6 3 12 3.16 0.89
-6 3 12 1.59 0.95
-6 3 13 2.24 0.72
-6 3 13 2.22 0.65
-6 4 -7 1.59 0.61
-6 4 -1 20 1.31
-6 4 6 80.56 2.21
-6 4 6 80.69 2.31
-6 4 7 2.13 0.99
-6 4 7 1.77 0.8
-6 4 8 20.5 1.41
-6 4 8 20.48 1.37
-6 4 9 5.25 0.98
-6 4 10 16.18 1.6
-6 4 10 13.88 1.31
-6 4 10 12.69 1.17
-6 4 11 9.16 1.12
-6 4 11 8.62 1.28
-6 4 12 9.77 0.99
-6 4 12 8.77 1.1
-6 4 13 3.91 0.6
-6 4 13 2.77 0.68
-6 5 -7 1.33 0.58
-6 5 -2 37.19 1.77
-6 5 -1 26.97 1.54
-6 5 -1 24.76 1.52
-6 5 0 52.52 1.9
-6 5 0 48.5 1.89
-6 5 1 22.23 1.33
-6 5 4 17.91 1.27
-6 5 4 20.46 1.36
-6 5 5 14.74 1.12
-6 5 5 15.18 1.25
-6 5 5 16.84 1.33
-6 5 6 13.85 1.24
-6 5 6 13.21 1.11
-6 5 7 0.07 0.95
-6 5 7 1.61 0.77
-6 5 7 0.27 1.21
-6 5 8 18.27 1.34
-6 5 8 17.41 1.27
-6 5 8 16.07 1.68
-6 5 9 5.51 1.32
-6 5 9 8.44 1.02
-6 5 9 4.94 0.89
-6 5 10 6.29 1.07
-6 5 10 4.44 1.3
-6 5 11 0.65 0.95
-6 5 11 0.3 0.75
-6 5 12 2.43 0.88
-6 5 12 2.3 0.68
-6 6 -7 1.44 0.54
-6 6 -6 2.2 0.71
-6 6 -3 20.25 1.42
-6 6 -2 20.19 1.46
-6 6 -2 19.55 1.47
-6 6 -1 20.44 1.48
-6 6 -1 21.78 1.49
-6 6 0 37.45 1.79
-6 6 0 38.61 1.79
-6 6 1 22.34 1.4
-6 6 1 23.22 1.33
-6 6 1 21.38 1.42
-6 6 2 26.22 1.45
-6 6 2 27.48 1.48
-6 6 2 26.52 1.44
-6 6 3 24.12 1.35
-6 6 3 23.32 1.42
-6 6 3 23.46 1.45
-6 6 4 28.77 1.53
-6 6 4 28.77 1.44
-6 6 4 27.53 1.55
-6 6 5 53.68 2.07
-6 6 5 54.01 2
-6 6 5 51.35 1.82
-6 6 6 3.17 0.78
-6 6 6 2.62 0.94
-6 6 6 3.86 1.2
-6 6 7 1.63 0.93
-6 6 7 4.32 0.85
-6 6 7 4.09 1.26
-6 6 8 4.2 1.26
-6 6 8 3.31 0.95
-6 6 9 6.43 0.9
-6 6 9 2.92 1.22
-6 6 10 3.49 1.13
-6 6 11 1.56 0.92
-6 6 12 0.06 0.65
-6 7 -7 1.56 0.46
-6 7 -6 1.92 0.64
-6 7 -5 3.38 0.8
-6 7 -4 1.7 0.83
-6 7 -3 11.65 1.21
-6 7 -3 11.33 1.19
-6 7 -2 5.09 1.03
-6 7 -2 6.54 1.08
-6 7 -1 23.27 1.54
-6 7 -1 24.22 1.55
-6 7 0 25.8 1.44
-6 7 0 25.91 1.59
-6 7 0 24.06 1.53
-6 7 1 18.42 1.39
-6 7 1 18.97 1.37
-6 7 1 20.18 1.42
-6 7 2 23.33 1.44
-6 7 2 24.18 1.53
-6 7 2 22.83 1.52
-6 7 3 26.49 1.61
-6 7 3 27.62 1.47
-6 7 3 25.55 1.56
-6 7 4 22.83 1.55
-6 7 4 21.13 1.31
-6 7 4 21.46 1.47
-6 7 5 33.85 1.7
-6 7 5 30.75 1.47
-6 7 6 1.36 0.71
-6 7 6 2.67 1.11
-6 7 6 1.34 0.89
-6 7 7 13.12 1.23
-6 7 7 13.4 1.49
-6 7 8 4.47 0.89
-6 7 8 5.37 1.22
-6 7 9 5.45 1.19
-6 7 10 0.28 0.89
-6 7 11 1.45 0.79
-6 7 12 0.64 0.52
-6 8 -6 0.63 0.49
-6 8 -5 0.36 0.62
-6 8 -4 3.88 0.83
-6 8 -3 10.17 1.1
-6 8 -3 9.14 1.1
-6 8 -2 3.23 0.93
-6 8 -2 1.96 0.89
-6 8 -1 3.41 0.96
-6 8 -1 3.03 0.96
-6 8 0 2.22 0.94
-6 8 0 1.62 0.89
-6 8 0 0.11 0.85
-6 8 1 9.31 1.12
-6 8 1 9.98 1.16
-6 8 1 12.04 1.24
-6 8 2 20.39 1.46
-6 8 2 22.41 1.41
-6 8 2 19.39 1.35
-6 8 2 20.17 1.41
-6 8 3 17.74 1.41
-6 8 3 19.81 1.38
-6 8 3 17.31 1.23
-6 8 4 26.25 1.36
-6 8 4 25.94 1.62
-6 8 5 12.84 1.27
-6 8 6 3.99 0.98
-6 8 6 0.61 1.04
-6 8 7 5.25 1.19
-6 8 7 7.19 1.03
-6 8 8 5.23 1.16
-6 8 8 5.63 0.87
-6 8 9 4.9 1.1
-6 8 10 1.72 0.83
-6 8 11 1.85 0.65
-6 9 -6 0.8 0.38
-6 9 -5 0.2 0.5
-6 9 -4 3.85 0.73
-6 9 -3 5.31 0.87
-6 9 -3 4.04 0.86
-6 9 -2 5.52 0.94
-6 9 -2 5.59 0.98
-6 9 -1 8.93 1.08
-6 9 -1 8.37 1.09
-6 9 -1 8.83 0.97
-6 9 0 0.36 0.8
-6 9 0 1 0.82
-6 9 0 1.03 0.85
-6 9 1 -0.53 0.84
-6 9 1 -1.49 0.97
-6 9 2 -0.54 0.75
-6 9 2 -1.67 1.11
-6 9 3 1.93 1
-6 9 3 5.39 0.84
-6 9 4 21.97 1.5
-6 9 5 3.86 0.96
-6 9 6 6.68 1
-6 9 6 3.57 1.02
-6 9 7 0.42 0.79
-6 9 7 2.23 0.98
-6 9 8 2.85 0.67
-6 9 8 2.33 0.92
-6 9 9 1.39 0.83
-6 9 10 2.69 0.69
-6 10 -4 4.47 0.61
-6 10 -3 2.55 0.64
-6 10 -2 4.74 0.78
-6 10 -2 3.67 0.81
-6 10 -1 4.92 0.81
-6 10 -1 4.72 0.88
-6 10 0 6.01 0.92
-6 10 0 5.09 0.93
-6 10 0 7.31 0.89
-6 10 1 7.87 1.05
-6 10 1 9.5 1.04
-6 10 1 8.85 0.9
-6 10 2 3.91 0.98
-6 10 3 0.62 0.9
-6 10 4 1.14 0.89
-6 10 5 -0.79 0.82
-6 10 6 5.12 0.82
-6 10 7 0.22 0.63
-6 10 7 1.21 0.8
-6 10 8 2.57 0.76
-6 10 9 -0.84 0.59
-6 11 -3 4.35 0.5
-6 11 -2 2.6 0.52
-6 11 -1 2.37 0.69
-6 11 -1 1.52 0.52
-6 11 -1 1.52 0.59
-6 11 0 2.88 0.7
-6 11 0 3.9 0.75
-6 11 1 4.46 0.85
-6 11 2 6.15 0.95
-6 11 3 12.87 1.12
-6 11 4 5.13 0.87
-6 11 5 0.94 0.67
-6 11 6 -1.69 0.67
-6 11 7 0.11 0.44
-6 12 -1 1.39 0.44
-6 12 0 1.37 0.52
-6 12 1 2.56 0.62
-6 12 2 2.83 0.67
-6 12 3 6.81 0.77
-6 12 4 0.81 0.57
-6 12 5 -0.38 0.52
-6 13 2 3.78 0.45
-5 -10 8 6.2 0.66
-5 -9 7 7.57 0.97
-5 -9 8 6.4 0.9
-5 -9 9 4.81 0.75
-5 -9 10 3.33 0.59
-5 -8 8 11.25 1.15
-5 -8 9 7.6 0.97
-5 -8 10 5.02 0.78
-5 -8 11 1.98 0.56
-5 -7 9 8.6 1.08
-5 -7 10 4.16 0.85
-5 -7 11 1.53 0.63
-5 -7 12 1.32 0.47
-5 -6 7 5.22 1.07
-5 -6 8 2.73 0.97
-5 -6 9 4.6 0.99
-5 -6 9 4.51 0.96
-5 -6 10 4.15 0.9
-5 -6 10 3.45 0.93
-5 -6 11 3.88 0.78
-5 -6 11 4.67 0.85
-5 -6 12 1.83 0.57
-5 -5 5 16.72 1.31
-5 -5 6 59.14 2.14
-5 -5 7 62.91 2.3
-5 -5 8 35.18 1.88
-5 -5 9 16.61 1.43
-5 -5 10 1.71 0.86
-5 -5 10 2.72 0.98
-5 -5 11 3.21 0.81
-5 -5 11 3.37 0.9
-5 -5 12 0.71 0.61
-5 -5 12 1.35 0.72
-5 -4 6 59.2 2.06
-5 -4 7 50.75 2.05
-5 -4 8 28.12 1.7
-5 -4 9 23 1.62
-5 -4 10 9.43 1.11
-5 -4 10 8.04 1.19
-5 -4 11 6.55 1.09
-5 -4 11 5.81 0.93
-5 -4 12 1.53 0.66
-5 -4 12 -0.33 0.8
-5 -4 13 3.12 0.56
-5 -3 7 62.71 2.15
-5 -3 7 66.07 2.19
-5 -3 8 45.83 2.02
-5 -3 9 16.91 1.49
-5 -3 10 6.95 1.03
-5 -3 10 7.05 1.19
-5 -3 11 6.15 1.1
-5 -3 11 6.17 0.95
-5 -3 12 -0.91 0.84
-5 -3 12 1.39 0.68
-5 -3 13 5.1 0.83
-5 -2 8 45.77 2.02
-5 -2 8 47.09 1.99
-5 -2 9 14.88 1.41
-5 -2 10 15.6 1.48
-5 -2 10 16.85 1.28
-5 -2 11 9.36 1
-5 -2 11 8.12 1.21
-5 -2 12 4.95 1.01
-5 -2 13 4.2 0.83
-5 -1 -6 7.75 1.07
-5 -1 -5 10.8 1.2
-5 -1 -4 22.16 1.39
-5 -1 8 27.92 1.65
-5 -1 8 32.84 1.69
-5 -1 9 8.11 1.16
-5 -1 10 13.27 1.42
-5 -1 11 5.88 1.12
-5 -1 12 17.82 1.38
-5 -1 13 4.46 0.83
-5 -1 14 2.41 0.53
-5 0 -6 9.37 1.16
-5 0 -5 4.95 1.04
-5 0 -4 10.73 1.15
-5 0 8 20.64 1.42
-5 0 8 19.55 2.61
-5 0 8 21.56 1.44
-5 0 9 8.75 1.23
-5 0 9 5.54 2.27
-5 0 9 8.69 1.21
-5 0 10 11.87 1.3
-5 0 11 3.43 1.03
-5 0 12 13.82 1.27
-5 0 12 11.35 1.23
-5 0 13 1.43 0.77
-5 0 14 2.42 0.54
-5 1 -6 10.48 1.23
-5 1 -5 7.95 1.16
-5 1 -4 6.04 1.04
-5 1 7 74.63 4.25
-5 1 8 19.4 1.4
-5 1 8 16.24 2.61
-5 1 8 18.9 1.38
-5 1 9 20.35 1.48
-5 1 9 17.49 1.41
-5 1 9 18.61 2.95
-5 1 10 8.49 1.19
-5 1 11 6.53 1.14
-5 1 12 10.17 1.13
-5 1 12 6.52 1.09
-5 1 13 1.01 0.74
-5 1 14 -0.2 0.46
-5 2 -6 7.92 1.17
-5 2 -5 10 1.24
-5 2 -4 5.45 1.03
-5 2 7 74.2 4.38
-5 2 8 13.85 2.58
-5 2 8 15.42 1.29
-5 2 8 13.87 1.22
-5 2 9 17.05 3.01
-5 2 9 18.98 1.43
-5 2 9 18.38 1.41
-5 2 10 4.19 1.03
-5 2 11 17.28 1.39
-5 2 11 14.05 1.51
-5 2 12 3.74 0.84
-5 2 12 3.01 0.97
-5 2 12 2.08 0.96
-5 2 13 3.9 0.8
-5 3 -5 10.06 1.21
-5 3 -4 6.67 1.09
-5 3 8 30.93 3.41
-5 3 8 28.78 1.54
-5 3 8 37.1 1.68
-5 3 9 41.49 1.84
-5 3 10 15.31 1.63
-5 3 11 21.35 1.72
-5 3 11 24.05 1.62
-5 3 12 3.9 0.92
-5 3 12 2.96 0.95
-5 3 13 2.64 0.71
-5 3 13 2.21 0.73
-5 4 -9 0.1 0.4
-5 4 -4 16.14 1.2
-5 4 -3 23.34 1.38
-5 4 7 5.94 0.92
-5 4 7 7.42 1.02
-5 4 8 5.78 0.94
-5 4 8 9.09 1.11
-5 4 9 3.69 0.88
-5 4 9 3.92 1.26
-5 4 10 17.75 1.45
-5 4 10 14.89 1.57
-5 4 11 22.47 1.64
-5 4 11 19.36 1.45
-5 4 12 13.8 1.2
-5 4 12 13.07 1.1
-5 4 13 2.52 0.69
-5 4 13 5.46 0.67
-5 5 -4 14.13 1.25
-5 5 -3 26.11 1.51
-5 5 -2 69.08 2.16
-5 5 6 21.26 1.63
-5 5 6 23.44 1.34
-5 5 7 8.72 0.98
-5 5 7 6.55 1.06
-5 5 7 5.77 1.3
-5 5 8 15.17 1.41
-5 5 8 15.4 1.67
-5 5 8 16.51 1.24
-5 5 9 2.17 1.19
-5 5 9 2.9 1.03
-5 5 10 9.81 1.21
-5 5 10 9.67 1.43
-5 5 11 -0.21 0.94
-5 5 11 0.41 0.81
-5 5 12 4.83 0.8
-5 5 12 2.25 0.85
-5 6 -8 2.33 0.57
-5 6 -5 4.48 0.92
-5 6 -4 10.51 1.17
-5 6 -3 44.34 1.89
-5 6 -2 46.12 1.91
-5 6 -1 53.3 1.95
-5 6 4 48.87 1.63
-5 6 5 55.66 1.92
-5 6 5 54.79 2.21
-5 6 6 10.82 1.15
-5 6 6 11.13 1.41
-5 6 7 8.88 1.05
-5 6 7 11.6 1.44
-5 6 8 7.71 1.4
-5 6 9 2.8 1.21
-5 6 9 2.96 0.96
-5 6 10 10.81 1.13
-5 6 10 11.16 1.36
-5 6 11 1.4 0.75
-5 6 11 -0.13 0.87
-5 6 12 0.68 0.68
-5 6 12 0.76 0.54
-5 7 -8 1.12 0.45
-5 7 -5 3.16 0.87
-5 7 -4 1.02 0.87
-5 7 -3 9.08 1.16
-5 7 -2 22.42 1.52
-5 7 -1 67.76 2.25
-5 7 -1 65.21 2.24
-5 7 0 36.07 1.67
-5 7 0 35.96 1.73
-5 7 1 17.75 1.29
-5 7 1 19.39 1.2
-5 7 1 19.92 1.35
-5 7 2 36.47 1.62
-5 7 2 35.42 1.49
-5 7 2 39.37 1.72
-5 7 3 45.16 1.63
-5 7 3 44.19 1.65
-5 7 3 47.64 1.81
-5 7 4 30.99 1.47
-5 7 4 32.4 1.65
-5 7 4 34.26 1.62
-5 7 5 41.84 2.03
-5 7 5 42.6 1.8
-5 7 6 9.44 1.12
-5 7 6 10.23 1.45
-5 7 7 16.17 1.2
-5 7 7 14.2 1.57
-5 7 8 4.02 1.21
-5 7 9 9.5 1.35
-5 7 10 3.25 0.81
-5 7 10 2.91 1.03
-5 7 11 1.88 0.85
-5 7 11 4.14 0.7
-5 7 12 0.03 0.51
-5 8 -7 0.74 0.51
-5 8 -6 1.28 0.65
-5 8 -5 2.04 0.76
-5 8 -5 3.01 0.83
-5 8 -4 7.82 1.05
-5 8 -4 7.97 1.07
-5 8 -3 10.18 1.15
-5 8 -3 8.86 1.15
-5 8 -2 0.38 0.82
-5 8 -2 1.37 0.91
-5 8 -1 2.65 0.97
-5 8 -1 2.19 0.92
-5 8 0 2.12 0.92
-5 8 0 2.08 0.83
-5 8 0 2.27 0.95
-5 8 1 24.82 1.47
-5 8 1 22.25 1.45
-5 8 1 22.54 1.3
-5 8 2 33.94 1.51
-5 8 3 29.98 1.52
-5 8 4 25.34 1.45
-5 8 4 24.86 1.56
-5 8 5 16.05 1.32
-5 8 5 13.95 1.48
-5 8 6 5.28 0.96
-5 8 6 3.62 1.21
-5 8 7 10.56 1.41
-5 8 7 14.39 1.11
-5 8 8 4.7 1.19
-5 8 9 10.86 1.27
-5 8 10 2.72 0.89
-5 8 11 2.41 0.68
-5 9 -7 1.32 0.4
-5 9 -6 0.58 0.53
-5 9 -5 1.77 0.68
-5 9 -5 2.03 0.72
-5 9 -4 8.13 0.96
-5 9 -4 8.2 0.99
-5 9 -3 9.74 1.07
-5 9 -3 10.9 1.15
-5 9 -2 17.14 1.28
-5 9 -2 17.87 1.37
-5 9 -1 14.98 1.25
-5 9 -1 15.84 1.34
-5 9 0 -0.51 0.83
-5 9 0 0.4 0.75
-5 9 0 -0.03 0.83
-5 9 1 0.21 0.82
-5 9 1 0.21 0.75
-5 9 2 3.66 0.91
-5 9 3 10.94 1.15
-5 9 4 22.54 1.52
-5 9 4 25.3 1.43
-5 9 5 5.13 1.15
-5 9 5 5.42 1.01
-5 9 6 2.66 1.07
-5 9 6 4.55 0.89
-5 9 7 1.71 0.73
-5 9 7 2.11 1.04
-5 9 8 0.44 0.93
-5 9 9 3.67 0.94
-5 9 10 2.48 0.73
-5 10 -6 1.59 0.41
-5 10 -5 2.8 0.61
-5 10 -4 5.94 0.76
-5 10 -4 6.24 0.83
-5 10 -3 6.98 0.88
-5 10 -3 6.9 0.94
-5 10 -2 11.77 1.04
-5 10 -2 11.15 1.13
-5 10 -1 10.01 1
-5 10 -1 8.04 1.08
-5 10 0 9.36 1.12
-5 10 0 10.24 0.95
-5 10 1 16.23 1.14
-5 10 1 14.85 1.22
-5 10 2 10.63 1.05
-5 10 3 1.37 0.94
-5 10 3 4.58 0.94
-5 10 4 4.09 0.99
-5 10 5 0.16 0.76
-5 10 6 3.04 1
-5 10 6 5.21 0.81
-5 10 7 -0.98 0.64
-5 10 7 0.61 0.86
-5 10 8 1.56 0.8
-5 10 9 -0.14 0.63
-5 11 -4 6 0.68
-5 11 -3 2.58 0.7
-5 11 -2 4.54 0.69
-5 11 -2 5.72 0.83
-5 11 -1 4.1 0.84
-5 11 0 5.27 0.87
-5 11 1 5.93 0.86
-5 11 2 7.28 1.07
-5 11 3 11.73 1.16
-5 11 4 6.48 0.93
-5 11 5 3.05 0.75
-5 11 6 2.16 0.6
-5 11 6 0.48 0.74
-5 11 7 -0.61 0.66
-5 11 8 1.43 0.6
-5 12 -2 2.95 0.52
-5 12 -2 4.18 0.64
-5 12 -1 0.26 0.55
-5 12 -1 1.57 0.59
-5 12 0 1.24 0.64
-5 12 0 2.73 0.63
-5 12 1 2.87 0.75
-5 12 2 3.32 0.79
-5 12 3 4.7 0.8
-5 12 4 0.48 0.59
-5 12 5 1.62 0.53
-5 13 0 1.67 0.46
-5 13 1 1.91 0.51
-5 13 2 2.84 0.54
-5 13 3 4.66 0.54
-4 -10 7 5.73 0.78
-4 -10 8 8.95 0.79
-4 -10 9 4.51 0.63
-4 -9 6 9.61 1.09
-4 -9 7 12.2 1.14
-4 -9 8 12.58 1.1
-4 -9 9 5.96 0.84
-4 -9 10 2.4 0.64
-4 -8 7 15.87 1.3
-4 -8 8 11.96 1.19
-4 -8 9 4.25 0.9
-4 -8 10 3.32 0.79
-4 -8 11 3.02 0.63
-4 -7 8 22.88 1.5
-4 -7 9 4.96 0.98
-4 -7 10 2.11 0.8
-4 -7 11 1.88 0.67
-4 -7 12 1.25 0.5
-4 -6 8 6.42 1.05
-4 -6 9 6.53 1.06
-4 -6 9 4.04 0.97
-4 -6 10 8.25 1.1
-4 -6 10 7.73 1.05
-4 -6 11 6.14 0.87
-4 -6 11 5.76 0.94
-4 -6 12 1.05 0.59
-4 -5 7 77.02 2.39
-4 -5 8 18.01 1.42
-4 -5 9 9.91 1.18
-4 -5 9 11.16 1.28
-4 -5 10 8.4 1.2
-4 -5 10 7.69 1.09
-4 -5 11 6.77 1.05
-4 -5 11 7.21 0.95
-4 -5 12 2.69 0.7
-4 -4 7 64.93 2.18
-4 -4 8 12.38 1.28
-4 -4 9 14.66 1.33
-4 -4 9 15.39 1.44
-4 -4 10 9.59 1.15
-4 -4 10 9.87 1.29
-4 -4 11 6.55 0.97
-4 -4 11 5.99 1.1
-4 -4 12 1.11 0.79
-4 -4 12 0.3 0.65
-4 -4 13 3.56 0.58
-4 -4 13 3.65 0.67
-4 -3 8 33.36 1.74
-4 -3 9 22.44 1.67
-4 -3 9 21.25 1.47
-4 -3 10 14.32 1.29
-4 -3 10 13.1 1.41
-4 -3 11 6.32 0.96
-4 -3 11 6.86 1.15
-4 -3 12 -0.15 0.68
-4 -3 12 0.29 0.81
-4 -3 13 5.25 0.79
-4 -2 -8 1.26 0.76
-4 -2 -7 4.9 0.95
-4 -2 -6 15.52 1.3
-4 -2 8 33.29 1.72
-4 -2 9 37.48 1.74
-4 -2 9 39.9 1.96
-4 -2 10 30.93 1.58
-4 -2 10 27.68 1.8
-4 -2 11 10.14 1.3
-4 -2 11 12.91 1.11
-4 -2 12 4.73 0.82
-4 -2 12 4.8 1.02
-4 -2 13 4.24 0.8
-4 -1 -8 0.35 0.79
-4 -1 -7 3.37 0.96
-4 -1 -6 10.49 1.24
-4 -1 -5 14.07 1.31
-4 -1 5 115.36 3.69
-4 -1 6 63.76 3.15
-4 -1 7 15.12 2
-4 -1 8 25.75 1.51
-4 -1 8 24.11 1.45
-4 -1 8 21.04 2.55
-4 -1 9 21.39 1.35
-4 -1 9 24.51 1.63
-4 -1 10 12.75 1.4
-4 -1 11 6.65 1.17
-4 -1 12 13.85 1.31
-4 -1 13 4.93 0.86
-4 0 -9 0.52 0.68
-4 0 -8 1.29 0.85
-4 0 -7 3.41 1.05
-4 0 -6 14.05 1.39
-4 0 -5 15.74 1.32
-4 0 5 164.77 4.62
-4 0 6 98.84 4.05
-4 0 7 24.8 2.56
-4 0 8 18.82 2.58
-4 0 9 23.31 3.06
-4 0 9 27 1.67
-4 0 10 13 1.39
-4 0 11 2.85 1.01
-4 0 12 9.83 1.2
-4 0 13 0.43 0.75
-4 1 -9 0.95 0.73
-4 1 -8 1.4 0.89
-4 1 -7 5.32 1.13
-4 1 -6 10.18 1.25
-4 1 -5 10.82 1.21
-4 1 5 164.77 4.88
-4 1 6 30.93 2.58
-4 1 7 27.94 2.75
-4 1 8 32.08 3.2
-4 1 9 18.34 2.98
-4 1 9 17.7 1.5
-4 1 10 7.88 1.19
-4 1 11 3.89 1.13
-4 1 11 5.35 1.09
-4 1 12 6.18 1.04
-4 1 12 8.07 1.15
-4 1 13 0.84 0.75
-4 2 -8 3.01 0.95
-4 2 -7 8.7 1.2
-4 2 -6 5.63 1.15
-4 2 -5 13.2 1.27
-4 2 5 223.63 5.9
-4 2 6 135.29 5.08
-4 2 7 95.06 4.77
-4 2 8 62.45 4.44
-4 2 8 66.42 2.08
-4 2 9 16.93 3.03
-4 2 9 16.36 1.41
-4 2 9 19.69 1.39
-4 2 10 3.35 1
-4 2 11 10.48 1.27
-4 2 11 13.72 1.42
-4 2 12 2.48 0.94
-4 2 13 3.17 0.76
-4 3 -8 3.18 0.93
-4 3 -7 12.63 1.29
-4 3 -6 9.51 1.24
-4 3 -5 10.98 1.22
-4 3 5 40.29 2.82
-4 3 6 16.09 2.22
-4 3 7 47.48 3.66
-4 3 8 104.75 2.5
-4 3 8 98.92 5.56
-4 3 9 71.8 2.19
-4 3 10 18.75 1.65
-4 3 11 21.81 1.62
-4 3 11 21.17 1.61
-4 3 12 3.68 0.93
-4 3 12 3.78 0.94
-4 3 13 1.97 0.69
-4 4 -7 6.62 1.08
-4 4 -6 9.04 1.2
-4 4 -5 13.8 1.13
-4 4 -5 13.6 1.29
-4 4 -4 64.58 1.97
-4 4 -4 65.09 2.1
-4 4 6 36.26 3.13
-4 4 7 16.82 2.63
-4 4 8 6.35 2.22
-4 4 8 6.52 1.32
-4 4 9 5.68 1.16
-4 4 9 7 1.36
-4 4 10 15.44 1.56
-4 4 10 16.61 1.47
-4 4 11 19.12 1.49
-4 4 11 23.83 1.63
-4 4 12 8.25 1.04
-4 4 12 10.68 1.07
-4 4 13 4.41 0.66
-4 5 -6 15.53 1.15
-4 5 -5 19.94 1.35
-4 5 -4 47.32 1.82
-4 5 7 31.78 3.4
-4 5 7 28.14 1.89
-4 5 7 34.39 1.74
-4 5 8 16.23 2.95
-4 5 8 16.48 1.43
-4 5 8 16.56 1.66
-4 5 9 1.79 1.16
-4 5 9 3.11 1.02
-4 5 10 5.62 1.32
-4 5 10 8.81 1.22
-4 5 11 0.87 0.84
-4 5 11 -0.68 0.97
-4 5 12 2.6 0.82
-4 5 12 2.94 0.76
-4 5 13 1.85 0.47
-4 6 -6 2.45 0.8
-4 6 -5 14.35 1.24
-4 6 -4 52.43 2.01
-4 6 -3 67.52 2.17
-4 6 6 25.27 1.34
-4 6 6 22.65 1.76
-4 6 7 24.65 1.82
-4 6 8 13.25 1.31
-4 6 8 14.47 1.57
-4 6 9 3.41 1.02
-4 6 9 2.06 1.19
-4 6 10 11.62 1.38
-4 6 10 7.54 1.14
-4 6 11 1.43 0.9
-4 6 11 1.12 0.76
-4 6 12 0.18 0.64
-4 6 12 0.89 0.56
-4 7 -9 1.19 0.42
-4 7 -6 2.7 0.82
-4 7 -5 3.57 0.92
-4 7 -4 -0.64 0.96
-4 7 -3 6.88 1.09
-4 7 -2 43.33 1.84
-4 7 -1 111.18 2.61
-4 7 -1 111.09 2.65
-4 7 4 33.13 1.43
-4 7 4 35.16 1.87
-4 7 5 42.74 1.68
-4 7 5 42.94 2.06
-4 7 5 42.6 1.6
-4 7 6 30.98 1.94
-4 7 6 30.74 1.5
-4 7 7 21.25 1.78
-4 7 8 4.85 1.04
-4 7 8 6.45 1.33
-4 7 9 7.47 1.09
-4 7 9 6.31 1.3
-4 7 10 3.53 0.86
-4 7 10 2.73 1.02
-4 7 11 1.27 0.83
-4 7 11 2.32 0.67
-4 8 -8 1.69 0.51
-4 8 -6 4.24 0.87
-4 8 -5 12.11 1.17
-4 8 -4 12.78 1.24
-4 8 -3 2.3 0.93
-4 8 -2 0.72 0.87
-4 8 -2 0.09 0.88
-4 8 -1 6.2 0.98
-4 8 -1 8.61 1.12
-4 8 0 9.09 1.03
-4 8 0 9.77 1.13
-4 8 0 11.32 1.05
-4 8 1 43.46 1.67
-4 8 1 43.56 1.6
-4 8 1 43.32 1.76
-4 8 2 50.52 1.73
-4 8 3 24.5 1.36
-4 8 4 11.27 1.12
-4 8 4 9.78 1.4
-4 8 5 8.81 1.08
-4 8 5 8.74 1.39
-4 8 5 12.17 1.13
-4 8 6 16.53 1.2
-4 8 6 15.22 1.56
-4 8 7 15.8 1.61
-4 8 8 2.3 1.18
-4 8 9 11.48 1.28
-4 8 9 11.49 1.04
-4 8 10 2.76 0.9
-4 8 10 3.73 0.71
-4 8 11 2.36 0.68
-4 9 -7 1.42 0.54
-4 9 -6 3.96 0.73
-4 9 -6 5.45 0.81
-4 9 -5 8.89 0.98
-4 9 -5 9.01 1.03
-4 9 -4 12.3 1.13
-4 9 -4 12.13 1.19
-4 9 -3 12.86 1.16
-4 9 -3 13.66 1.26
-4 9 -2 27.64 1.51
-4 9 -2 28.7 1.6
-4 9 -1 24.46 1.39
-4 9 -1 23.69 1.22
-4 9 -1 25.92 1.56
-4 9 0 0.05 0.79
-4 9 0 0.41 0.77
-4 9 0 0.52 0.83
-4 9 1 2.42 0.9
-4 9 1 3.17 0.88
-4 9 2 13.02 1.17
-4 9 3 13.54 1.19
-4 9 4 14.68 1.45
-4 9 4 15 1.23
-4 9 5 8.01 1.3
-4 9 5 6.95 1.01
-4 9 5 8.79 1.06
-4 9 6 4.82 1.21
-4 9 6 5.48 0.88
-4 9 7 1.53 1.09
-4 9 8 -0.47 0.98
-4 9 9 4.2 0.96
-4 9 10 3.13 0.77
-4 10 -6 3.16 0.57
-4 10 -6 3.92 0.66
-4 10 -5 4.11 0.69
-4 10 -5 3.75 0.75
-4 10 -4 7.31 0.85
-4 10 -4 6.48 0.92
-4 10 -3 10.24 0.98
-4 10 -3 10.83 1.12
-4 10 -2 16.15 1.13
-4 10 -2 17.13 1.31
-4 10 -1 12.61 1.2
-4 10 -1 11.89 0.99
-4 10 0 15.39 1.13
-4 10 0 16.8 1.3
-4 10 1 19.48 1.27
-4 10 1 20.23 1.34
-4 10 2 13.19 1.18
-4 10 3 4.96 0.96
-4 10 4 7.55 1.02
-4 10 4 5.92 1.2
-4 10 4 7.2 1.05
-4 10 5 6.08 0.93
-4 10 5 4.55 1.12
-4 10 6 7.14 0.85
-4 10 6 6.48 1.15
-4 10 7 1.46 0.95
-4 10 8 0.74 0.82
-4 10 9 0.45 0.66
-4 11 -5 4.24 0.64
-4 11 -4 3.05 0.72
-4 11 -3 3.67 0.81
-4 11 -2 11.84 1.07
-4 11 -1 6.88 0.82
-4 11 -1 7.78 1
-4 11 0 6.12 0.87
-4 11 0 7.21 0.94
-4 11 1 7.08 0.93
-4 11 2 6.96 0.95
-4 11 3 7.94 0.97
-4 11 4 4.44 0.86
-4 11 4 6.97 0.9
-4 11 5 4.07 0.94
-4 11 5 4.19 0.75
-4 11 6 1.5 0.85
-4 11 7 -1.14 0.75
-4 11 8 1.59 0.64
-4 12 -4 1.59 0.5
-4 12 -3 4.36 0.67
-4 12 -3 3.86 0.57
-4 12 -2 5.7 0.76
-4 12 -1 1.56 0.68
-4 12 0 4.75 0.76
-4 12 0 6.69 0.75
-4 12 1 11.77 0.9
-4 12 2 4.78 0.89
-4 12 2 5.69 0.81
-4 12 3 2.74 0.73
-4 12 4 0.99 0.6
-4 12 5 2.21 0.51
-4 12 6 0.58 0.53
-4 13 -2 1.96 0.45
-4 13 -2 0.18 0.4
-4 13 -1 0.2 0.47
-4 13 -1 1.74 0.49
-4 13 0 0.73 0.55
-4 13 1 0.55 0.58
-4 13 2 2.32 0.59
-4 13 3 4.79 0.59
-3 -10 8 6.45 0.78
-3 -10 9 3.9 0.64
-3 -9 6 9.38 1.07
-3 -9 7 12.88 1.19
-3 -9 8 18.15 1.22
-3 -9 9 8.86 0.91
-3 -9 10 2.77 0.65
-3 -8 7 9.67 1.13
-3 -8 8 8.41 1.09
-3 -8 9 0.81 0.79
-3 -8 10 3.86 0.8
-3 -8 11 4.11 0.68
-3 -7 7 23.18 1.49
-3 -7 8 24.68 1.57
-3 -7 9 3.79 0.92
-3 -7 10 1.55 0.77
-3 -7 11 1.74 0.66
-3 -7 12 1.21 0.5
-3 -6 8 20.8 1.47
-3 -6 9 8.3 1.11
-3 -6 9 7.71 1.1
-3 -6 10 10.52 1.17
-3 -6 10 11.04 1.12
-3 -6 11 6.11 0.87
-3 -6 12 1.98 0.62
-3 -5 7 66.38 2.19
-3 -5 8 12.64 1.24
-3 -5 8 11.85 1.22
-3 -5 9 11.59 1.3
-3 -5 9 12.42 1.23
-3 -5 10 11.3 1.26
-3 -5 10 13.04 1.23
-3 -5 11 5.4 0.99
-3 -5 11 6.64 0.94
-3 -5 12 2.51 0.69
-3 -4 8 7.55 1.04
-3 -4 8 8.14 1.1
-3 -4 9 11.27 1.33
-3 -4 9 11.64 1.24
-3 -4 10 10.4 1.28
-3 -4 10 10.7 1.19
-3 -4 11 6.3 1.1
-3 -4 11 5.52 0.96
-3 -4 12 1.23 0.69
-3 -4 13 1.97 0.53
-3 -3 8 38.46 1.67
-3 -3 8 40.94 1.84
-3 -3 9 28.98 1.79
-3 -3 9 26.86 1.6
-3 -3 10 11.62 1.4
-3 -3 10 12.78 1.23
-3 -3 11 7.29 1.17
-3 -3 11 7.04 0.99
-3 -3 12 1.39 0.72
-3 -2 -10 -0.17 0.56
-3 -2 -9 2.22 0.8
-3 -2 -8 1.9 0.94
-3 -2 -7 9.66 1.23
-3 -2 -6 20.31 1.47
-3 -2 4 43.13 1.8
-3 -2 5 59.62 2.5
-3 -2 6 159.79 4.56
-3 -2 7 15.37 2
-3 -2 8 47 1.93
-3 -2 9 59.92 2.3
-3 -2 9 51.81 1.95
-3 -2 10 25.72 1.77
-3 -2 10 29.76 1.56
-3 -2 11 11.3 1.1
-3 -2 11 10.52 1.31
-3 -2 12 4.5 0.82
-3 -2 13 3 0.75
-3 -1 -10 -0.29 0.65
-3 -1 -9 1.76 0.87
-3 -1 -8 2.93 1
-3 -1 -7 12.29 1.36
-3 -1 4 113.35 3.07
-3 -1 5 60.01 2.65
-3 -1 6 166.35 4.88
-3 -1 7 25.65 2.44
-3 -1 8 27.41 2.82
-3 -1 9 24.61 3.08
-3 -1 9 26.99 1.71
-3 -1 9 25.18 1.43
-3 -1 10 14.56 1.47
-3 -1 10 13.97 1.2
-3 -1 11 6.32 1.18
-3 -1 13 2.68 0.73
-3 0 -10 0.57 0.67
-3 0 -9 0.81 0.85
-3 0 -8 2.75 1.03
-3 0 -7 11.65 1.36
-3 0 -6 44.9 1.91
-3 0 3 41.23 1.89
-3 0 4 59.72 2.52
-3 0 5 203.25 4.93
-3 0 6 79.21 3.57
-3 0 7 19.13 2.24
-3 0 8 26.63 2.92
-3 0 9 24.93 3.22
-3 0 9 27.86 1.73
-3 0 10 12.2 1.4
-3 0 11 1.88 0.98
-3 0 12 7.57 1.13
-3 0 13 0.93 0.72
-3 1 -10 1.53 0.7
-3 1 -9 0.75 0.87
-3 1 -8 2.55 1.06
-3 1 -7 10.64 1.32
-3 1 -6 20.71 1.48
-3 1 3 228.9 4.48
-3 1 4 360.94 6.11
-3 1 5 340.42 6.59
-3 1 6 19.35 2.1
-3 1 7 25.19 2.61
-3 1 8 40.64 3.54
-3 1 9 18.45 2.97
-3 1 9 16.09 1.48
-3 1 10 8.35 1.23
-3 1 10 7.1 1.24
-3 1 11 4.2 1.07
-3 1 12 4.35 1.02
-3 1 13 1.73 0.71
-3 2 -10 1.46 0.73
-3 2 -9 1.98 0.87
-3 2 -8 4.76 1.12
-3 2 -7 15.41 1.43
-3 2 -6 24.02 1.6
-3 2 3 15.52 1.5
-3 2 4 179.87 4.64
-3 2 5 620.95 6.57
-3 2 5 595.76 9.16
-3 2 6 278.86 6.99
-3 2 7 136.65 5.56
-3 2 8 72.15 4.62
-3 2 9 13.53 1.38
-3 2 9 15.31 2.86
-3 2 10 3.51 1.2
-3 2 10 3.52 1.06
-3 2 11 11.99 1.38
-3 2 12 4.02 1
-3 2 13 2.32 0.7
-3 3 -10 0.46 0.66
-3 3 -9 1.74 0.83
-3 3 -8 6.75 1.14
-3 3 -7 19.66 1.5
-3 3 -6 29.49 1.65
-3 3 4 142.2 4.37
-3 3 5 15.62 1.91
-3 3 5 15.22 1.46
-3 3 6 11.4 1.97
-3 3 7 69.17 4.28
-3 3 8 119.38 6.02
-3 3 9 67.36 5.16
-3 3 9 59.67 2.49
-3 3 10 12.61 1.45
-3 3 10 13.17 1.46
-3 3 11 16.5 1.4
-3 3 11 15.16 1.42
-3 3 12 5.02 0.96
-3 3 13 1.28 0.62
-3 4 -9 2.3 0.8
-3 4 -8 9.17 1.14
-3 4 -7 15.32 1.34
-3 4 -6 24.61 1.57
-3 4 -5 17.83 1.35
-3 4 4 157.34 4.85
-3 4 5 42.16 2.57
-3 4 5 43.58 2.99
-3 4 6 26.08 2.67
-3 4 7 19.38 2.69
-3 4 8 4.44 2.1
-3 4 8 4.33 1.27
-3 4 8 4.88 1.14
-3 4 9 3.97 1.14
-3 4 9 5.91 1.32
-3 4 10 14.29 1.47
-3 4 10 14.25 1.43
-3 4 11 12.88 1.3
-3 4 11 14.31 1.34
-3 4 12 9.93 1
-3 4 13 1.49 0.52
-3 5 -8 5.73 0.96
-3 5 -7 17.86 1.36
-3 5 -6 28.27 1.59
-3 5 -5 21.64 1.34
-3 5 -5 21.61 1.43
-3 5 5 34.71 2.86
-3 5 5 34.47 2.65
-3 5 6 21.41 2.57
-3 5 7 66.93 2.34
-3 5 7 65.82 2.55
-3 5 7 66.27 4.62
-3 5 8 14.46 2.86
-3 5 8 15.55 1.46
-3 5 8 15.72 1.63
-3 5 9 3.4 1.05
-3 5 9 2.55 1.14
-3 5 10 6.31 1.28
-3 5 10 5.35 1.17
-3 5 11 1.35 0.87
-3 5 11 1.01 0.9
-3 5 12 2.6 0.72
-3 6 -6 0.89 0.8
-3 6 -5 30.19 1.57
-3 6 -4 95.71 2.46
-3 6 6 31.17 3.17
-3 6 6 32.34 1.69
-3 6 6 33.55 1.94
-3 6 6 35.47 1.41
-3 6 7 27.73 3.31
-3 6 7 25.75 1.61
-3 6 7 28.3 1.9
-3 6 8 12.31 1.36
-3 6 8 12.52 1.54
-3 6 9 1.44 1.18
-3 6 9 2.44 1.02
-3 6 10 6.88 1.11
-3 6 10 5.33 1.19
-3 6 11 3.93 0.84
-3 6 11 3.3 0.89
-3 6 12 0.08 0.52
-3 7 -7 6.32 0.9
-3 7 -6 1.63 0.81
-3 7 -5 -0.1 0.86
-3 7 -4 1.1 0.92
-3 7 -3 16.22 1.28
-3 7 -2 96.1 2.43
-3 7 5 48.71 1.7
-3 7 5 47.61 2.17
-3 7 5 50.48 1.63
-3 7 6 42.96 2.19
-3 7 6 46.5 1.6
-3 7 7 17.19 1.41
-3 7 7 14.82 1.64
-3 7 8 4.27 1.04
-3 7 8 3.25 1.24
-3 7 9 5.55 1.24
-3 7 9 5.51 1.06
-3 7 10 2.17 0.83
-3 7 10 2.66 0.98
-3 7 11 1.7 0.75
-3 7 11 1.46 0.65
-3 8 -9 2.18 0.49
-3 8 -7 4.86 0.84
-3 8 -6 6.65 0.98
-3 8 -5 21.93 1.43
-3 8 -4 22.59 1.47
-3 8 -3 4.98 1
-3 8 -2 0.83 0.84
-3 8 -1 22.99 1.31
-3 8 -1 22.57 1.4
-3 8 -1 24.1 1.22
-3 8 0 22.01 1.22
-3 8 0 22.61 1.38
-3 8 1 30.73 1.38
-3 8 2 42.26 1.59
-3 8 3 28.7 1.41
-3 8 3 31.71 1.79
-3 8 4 6.88 1.33
-3 8 4 8.96 1.01
-3 8 5 6.66 0.99
-3 8 5 8.38 1.38
-3 8 5 9.7 1.05
-3 8 6 21.33 1.25
-3 8 6 18.86 1.67
-3 8 7 15.23 1.6
-3 8 7 16.13 1.31
-3 8 8 3.32 1.18
-3 8 8 4.61 0.99
-3 8 9 8.6 1.23
-3 8 9 9.04 1.01
-3 8 10 4.14 0.9
-3 8 10 3.84 0.74
-3 8 11 1.94 0.49
-3 8 11 -0.48 0.59
-3 9 -8 2.12 0.51
-3 9 -7 2.7 0.69
-3 9 -6 9.08 0.99
-3 9 -5 16.89 1.29
-3 9 -4 15.27 1.28
-3 9 -3 23.06 1.37
-3 9 -3 24.83 1.53
-3 9 -2 38.28 1.62
-3 9 -2 39.78 1.81
-3 9 -1 27.06 1.34
-3 9 -1 32.18 1.66
-3 9 0 4.69 0.91
-3 9 0 4.58 0.98
-3 9 1 9.87 1.08
-3 9 1 9.67 1.09
-3 9 2 40 1.67
-3 9 3 23.54 1.68
-3 9 3 22.06 1.38
-3 9 4 14.09 1.49
-3 9 4 10.38 1.1
-3 9 5 7.77 0.97
-3 9 5 8.34 1.34
-3 9 5 10.18 1.05
-3 9 6 5.64 1.29
-3 9 7 1.44 1.1
-3 9 8 0.67 0.74
-3 9 8 0.39 0.95
-3 9 9 4.08 0.72
-3 9 9 4.51 0.95
-3 9 10 1.79 0.69
-3 10 -7 1.71 0.51
-3 10 -7 2.65 0.58
-3 10 -6 3.53 0.64
-3 10 -6 3.66 0.73
-3 10 -5 6.72 0.8
-3 10 -5 8.74 0.97
-3 10 -4 12.52 1.03
-3 10 -4 13.97 1.19
-3 10 -3 14.45 1.27
-3 10 -2 14.39 1.26
-3 10 -2 13.29 1
-3 10 -1 10.01 0.99
-3 10 -1 11.54 1.21
-3 10 0 14.94 1.14
-3 10 0 12.52 1.21
-3 10 1 15.64 1.23
-3 10 1 17.31 1.26
-3 10 2 24.94 1.44
-3 10 3 11.86 1.16
-3 10 3 9.74 1.31
-3 10 4 7.76 1.27
-3 10 4 9.56 1.06
-3 10 5 9.28 1
-3 10 5 8.83 1.3
-3 10 5 8.43 0.94
-3 10 6 6.32 1.19
-3 10 7 0.35 0.92
-3 10 8 0.5 0.81
-3 10 9 0.48 0.64
-3 11 -6 4.81 0.63
-3 11 -5 4.41 0.75
-3 11 -4 4.9 0.82
-3 11 -3 6.22 0.93
-3 11 -2 17.21 1.03
-3 11 -2 16.92 1.25
-3 11 -1 3.98 0.83
-3 11 -1 8.58 1.06
-3 11 0 2.04 0.8
-3 11 0 4.25 0.87
-3 11 1 5.87 0.94
-3 11 2 8.99 1.02
-3 11 3 4.22 1
-3 11 3 4.73 0.91
-3 11 4 4.24 1.03
-3 11 4 3.86 0.8
-3 11 4 5.49 0.88
-3 11 5 4.48 1.02
-3 11 6 1.93 0.89
-3 11 7 -0.08 0.73
-3 11 8 0.83 0.57
-3 12 -5 1.04 0.47
-3 12 -4 2.85 0.63
-3 12 -3 5.32 0.79
-3 12 -2 5.64 0.83
-3 12 -1 3.15 0.68
-3 12 -1 4.43 0.81
-3 12 0 8.11 0.92
-3 12 0 7.33 0.86
-3 12 1 14.04 1.04
-3 12 2 4.03 0.81
-3 12 3 0.91 0.66
-3 12 3 0.77 0.67
-3 12 4 1.74 0.65
-3 12 4 1.39 0.67
-3 12 4 0.88 0.56
-3 12 5 1.9 0.68
-3 12 6 0.71 0.56
-3 13 -3 0.1 0.39
-3 13 -3 1.22 0.46
-3 13 -2 2.04 0.54
-3 13 -1 2.08 0.51
-3 13 -1 1.67 0.54
-3 13 0 1.34 0.57
-3 13 1 3.14 0.67
-3 13 1 4.88 0.65
-3 13 2 3.87 0.64
-3 13 2 5.59 0.67
-3 13 3 4.5 0.57
-2 -10 8 6.34 0.78
-2 -10 9 4.64 0.66
-2 -9 6 4.82 0.92
-2 -9 7 13.38 1.16
-2 -9 8 29.05 1.4
-2 -9 9 11.87 1
-2 -9 10 3.22 0.67
-2 -8 5 23.33 1.41
-2 -8 6 17.73 1.33
-2 -8 7 7.89 1.06
-2 -8 8 9.15 1.09
-2 -8 9 2.71 0.84
-2 -8 10 4.05 0.8
-2 -8 11 2.66 0.63
-2 -7 6 33.02 1.62
-2 -7 7 28.56 1.57
-2 -7 8 32.5 1.67
-2 -7 9 4.66 0.94
-2 -7 10 1.61 0.76
-2 -7 11 0.57 0.63
-2 -7 12 1.7 0.5
-2 -6 7 62.38 2.15
-2 -6 8 31.39 1.68
-2 -6 9 7.9 1.12
-2 -6 9 9.38 1.13
-2 -6 10 7.6 1.01
-2 -6 11 2.18 0.74
-2 -6 12 3.84 0.63
-2 -5 7 82.66 2.37
-2 -5 7 81.19 2.28
-2 -5 8 13.18 1.28
-2 -5 8 12.73 1.25
-2 -5 9 12.3 1.27
-2 -5 9 12.6 1.22
-2 -5 10 4.38 1.04
-2 -5 10 5.76 1.01
-2 -5 11 2.03 0.8
-2 -5 12 4.31 0.75
-2 -4 8 7.68 1.04
-2 -4 8 8.43 1.12
-2 -4 9 12.07 1.35
-2 -4 9 14.16 1.3
-2 -4 10 4.29 0.99
-2 -4 10 4.04 1.09
-2 -4 11 7.31 1
-2 -4 12 3.96 0.77
-2 -3 -10 0.84 0.64
-2 -3 -9 4.16 0.92
-2 -3 3 28.99 0.92
-2 -3 4 27.63 1.42
-2 -3 5 172.19 3.99
-2 -3 6 331.47 6.47
-2 -3 8 32.37 1.59
-2 -3 8 35.54 1.77
-2 -3 9 22.89 1.65
-2 -3 9 21.66 1.49
-2 -3 10 3.03 1.09
-2 -3 10 5.21 1.06
-2 -3 11 11.04 1.29
-2 -3 11 12.9 1.17
-2 -3 12 5.96 0.84
-2 -2 -11 -0.46 0.52
-2 -2 -10 1.4 0.76
-2 -2 -9 3.72 0.99
-2 -2 3 8.46 0.8
-2 -2 4 164.48 3.45
-2 -2 5 100.95 3.28
-2 -2 6 243.88 5.87
-2 -2 7 27.04 2.53
-2 -2 8 38.56 3.22
-2 -2 8 40.75 1.8
-2 -2 9 31.83 1.84
-2 -2 9 30.81 1.63
-2 -2 10 11.03 1.41
-2 -2 10 16.86 1.34
-2 -2 11 12.88 1.35
-2 -2 11 14.62 1.22
-2 -2 12 5.72 0.83
-2 -2 12 4.86 0.91
-2 -1 -11 -0.47 0.62
-2 -1 -10 1.77 0.86
-2 -1 -9 3.42 1.03
-2 -1 2 120.6 2.18
-2 -1 3 24.78 1.5
-2 -1 4 81.38 2.59
-2 -1 5 90.62 3.21
-2 -1 6 259.77 6.11
-2 -1 7 24.2 2.45
-2 -1 8 22.97 2.74
-2 -1 9 8.1 2.35
-2 -1 9 6.27 1.01
-2 -1 9 6 1.14
-2 -1 10 14.02 1.48
-2 -1 10 18.98 1.31
-2 -1 11 9.68 1.04
-2 -1 11 8.75 1.24
-2 -1 12 7.3 1.03
-2 -1 13 0.39 0.6
-2 0 -11 -0.26 0.63
-2 0 -10 1.33 0.85
-2 0 -9 0.28 0.98
-2 0 2 159.55 2.8
-2 0 3 10.82 1.08
-2 0 4 39.1 2.01
-2 0 5 337.58 6.25
-2 0 6 77.32 3.57
-2 0 7 11.44 1.98
-2 0 8 22.03 2.79
-2 0 9 8.54 2.32
-2 0 9 4.47 1.09
-2 0 10 20.07 1.6
-2 0 11 3.02 1.07
-2 0 12 3.72 0.97
-2 0 13 0.39 0.63
-2 1 -11 0.38 0.64
-2 1 -10 1.22 0.85
-2 1 -9 2.27 1.02
-2 1 2 655.81 6.13
-2 1 3 2700.53 13.88
-2 1 3 2686.16 9.6
-2 1 4 651.29 7.78
-2 1 5 689.63 9.19
-2 1 6 14.36 1.9
-2 1 7 19.08 2.37
-2 1 8 31.49 3.22
-2 1 9 11.99 1.34
-2 1 9 14.98 2.77
-2 1 10 17.05 1.47
-2 1 11 5.57 1.16
-2 1 12 1.7 0.87
-2 1 13 1.07 0.63
-2 2 -11 0.83 0.64
-2 2 -10 1.31 0.84
-2 2 -9 4.31 1.07
-2 2 -8 14.05 1.42
-2 2 2 87.03 2.59
-2 2 3 31.46 1.79
-2 2 3 34.26 1.54
-2 2 4 377.23 6.32
-2 2 5 1033.73 11.68
-2 2 6 295.31 7.14
-2 2 7 102.42 5
-2 2 8 33.68 3.43
-2 2 9 23.59 1.67
-2 2 9 26.27 3.41
-2 2 10 8.43 1.35
-2 2 11 13.42 1.39
-2 2 12 3.44 0.9
-2 2 13 1.69 0.62
-2 3 -11 1.14 0.6
-2 3 -10 1.3 0.79
-2 3 -9 7.95 1.13
-2 3 -8 16.66 1.45
-2 3 -7 24.84 1.62
-2 3 2 36.87 1.87
-2 3 2 43.46 2.02
-2 3 3 65.55 2.65
-2 3 3 69.96 2.59
-2 3 4 232.72 5.23
-2 3 4 231.2 4.87
-2 3 5 9.88 1.6
-2 3 5 9.62 1.37
-2 3 6 4.78 1.6
-2 3 7 53.25 3.92
-2 3 8 63.98 4.59
-2 3 8 54.46 2.25
-2 3 9 52.39 2.22
-2 3 9 53.11 2.26
-2 3 10 13.37 1.41
-2 3 11 8.55 1.21
-2 3 12 5.16 0.91
-2 3 13 0.1 0.51
-2 4 -10 0.39 0.73
-2 4 -9 13.42 1.19
-2 4 -8 20.34 1.47
-2 4 -7 17.78 1.42
-2 4 -6 35.52 1.71
-2 4 -1 340.17 5.29
-2 4 0 48.57 2.18
-2 4 1 33.36 1.04
-2 4 1 36.02 1.95
-2 4 2 181.39 4.59
-2 4 3 55.43 2.78
-2 4 3 53.93 2.63
-2 4 4 272.68 6.04
-2 4 4 271.04 6.06
-2 4 5 35.97 2.72
-2 4 5 32.33 2.46
-2 4 6 18.55 2.32
-2 4 6 17.66 2.06
-2 4 7 14.53 2.48
-2 4 8 7.05 2.26
-2 4 8 7.72 1.36
-2 4 8 6.81 1.24
-2 4 9 10.89 1.39
-2 4 9 10.61 1.38
-2 4 10 14.29 1.4
-2 4 10 15.62 1.46
-2 4 11 4.04 1
-2 4 12 4.85 0.83
-2 5 -9 1.23 0.79
-2 5 -8 10.64 1.15
-2 5 -7 31.64 1.63
-2 5 -6 38.59 1.72
-2 5 -2 239.67 4.97
-2 5 -1 158.2 4.19
-2 5 0 185.05 3.76
-2 5 0 173.56 4.43
-2 5 1 66.34 2.94
-2 5 2 86.72 3.39
-2 5 3 191.19 5.5
-2 5 4 198.05 5.52
-2 5 4 200.55 5.87
-2 5 5 24.69 2.43
-2 5 5 23.41 2.39
-2 5 6 17.2 2.4
-2 5 6 16.33 2.18
-2 5 7 34.05 3.57
-2 5 7 34.76 1.84
-2 5 7 36.57 2.04
-2 5 8 21.06 1.7
-2 5 8 20.86 1.61
-2 5 9 6.81 1.26
-2 5 9 6.03 1.18
-2 5 10 8.06 1.22
-2 5 10 6.75 1.2
-2 5 11 1.96 0.86
-2 5 12 1.14 0.63
-2 6 -8 -0.4 0.81
-2 6 -7 -0.61 0.89
-2 6 -6 -0.65 0.93
-2 6 -6 1.96 0.85
-2 6 -5 45.72 1.77
-2 6 -2 121.48 4.11
-2 6 -1 40.4 2.34
-2 6 -1 37.22 2.48
-2 6 0 78.64 3.5
-2 6 1 176.92 5.18
-2 6 2 196.92 5.55
-2 6 3 293.94 7.6
-2 6 4 74.01 4.07
-2 6 5 18.61 2.34
-2 6 5 18.64 2.41
-2 6 6 25.08 2.85
-2 6 6 25.32 2.98
-2 6 6 23.75 1.58
-2 6 6 21.94 1.69
-2 6 7 12.74 2.6
-2 6 7 10.64 1.28
-2 6 7 11.16 1.48
-2 6 8 10.25 1.45
-2 6 8 11.94 1.35
-2 6 9 6.15 1.17
-2 6 9 3.43 1.16
-2 6 10 4.28 1.05
-2 6 10 3.98 0.99
-2 6 11 3.89 0.82
-2 6 11 2.48 0.81
-2 6 12 0.31 0.47
-2 7 -7 9.46 1.04
-2 7 -6 1.01 0.82
-2 7 -5 1.83 1.6
-2 7 -5 1.36 0.83
-2 7 -4 8.89 1.04
-2 7 -4 9.24 2.01
-2 7 -3 51.41 3.61
-2 7 -3 61.54 1.98
-2 7 -2 95.1 4.08
-2 7 -1 49.85 3.12
-2 7 0 20.56 2.25
-2 7 1 25.94 2.52
-2 7 4 62.87 4.23
-2 7 5 42.2 2.09
-2 7 5 40.09 1.77
-2 7 5 35.98 3.44
-2 7 5 41.71 1.46
-2 7 6 24.81 3.05
-2 7 6 26.55 1.65
-2 7 6 23.73 1.81
-2 7 7 13.79 1.53
-2 7 7 14.76 1.4
-2 7 8 7.03 1.14
-2 7 8 7.4 1.33
-2 7 9 3.25 1.15
-2 7 9 4.52 1.04
-2 7 10 0.75 0.77
-2 7 10 1.23 0.9
-2 7 11 1.37 0.6
-2 7 11 -0.16 0.62
-2 8 -7 6.82 0.95
-2 8 -6 8 1.05
-2 8 -5 38.73 1.76
-2 8 -4 29.55 1.58
-2 8 -3 25.81 1.47
-2 8 -2 7.82 1.91
-2 8 -2 11.45 0.95
-2 8 -2 9.52 1.05
-2 8 -1 31.09 1.29
-2 8 -1 31.94 1.52
-2 8 0 20.95 2.53
-2 8 1 32.02 1.36
-2 8 1 30.29 3
-2 8 2 50.25 1.68
-2 8 3 38.37 1.94
-2 8 3 35.56 1.48
-2 8 4 5.96 0.93
-2 8 4 4.97 1.35
-2 8 5 8.28 1.16
-2 8 5 8.31 1.39
-2 8 5 8.62 0.96
-2 8 6 10.33 1.53
-2 8 6 11.97 1.27
-2 8 7 14.57 1.52
-2 8 7 14.37 1.3
-2 8 8 4.45 1.22
-2 8 8 4.52 1.02
-2 8 9 6.84 1.11
-2 8 9 6.53 0.95
-2 8 10 3.13 0.7
-2 8 10 0.61 0.76
-2 9 -7 3.56 0.78
-2 9 -6 13.21 1.17
-2 9 -5 16.89 1.29
-2 9 -4 15.33 1.32
-2 9 -3 41.51 1.82
-2 9 -2 25.35 1.5
-2 9 -2 21.31 1.23
-2 9 -1 22.1 1.26
-2 9 -1 21.32 1.41
-2 9 0 22.24 1.39
-2 9 0 20.42 1.25
-2 9 1 24.23 1.36
-2 9 2 61.11 2.3
-2 9 2 60.28 2.08
-2 9 2 62.48 1.98
-2 9 3 28.03 1.82
-2 9 3 24.54 1.41
-2 9 4 10.19 1.47
-2 9 4 11.43 1.1
-2 9 5 10.21 1.41
-2 9 5 9.18 0.98
-2 9 6 4.49 0.81
-2 9 6 4.57 1.26
-2 9 6 4.49 0.96
-2 9 7 5.12 1.19
-2 9 7 2.67 0.89
-2 9 8 1.66 0.96
-2 9 8 1.96 0.8
-2 9 9 1.79 0.66
-2 9 9 1.17 0.82
-2 9 10 1.26 0.58
-2 10 -7 2.81 0.71
-2 10 -6 6.54 0.89
-2 10 -5 13.34 1.17
-2 10 -4 21.6 1.4
-2 10 -3 13.91 1.23
-2 10 -2 5.23 0.87
-2 10 -2 5.73 1.01
-2 10 -1 6.98 0.96
-2 10 -1 7.47 1.05
-2 10 0 14.7 1.23
-2 10 0 14.07 1.17
-2 10 1 13.16 1.19
-2 10 2 31.08 1.78
-2 10 2 32.82 1.55
-2 10 3 11.48 1.14
-2 10 3 12.7 1.5
-2 10 4 7.33 0.97
-2 10 4 6.08 1.27
-2 10 5 2.27 1.18
-2 10 5 6.21 0.88
-2 10 6 1.24 1.08
-2 10 7 1.55 0.94
-2 10 8 2.03 0.83
-2 10 9 0.85 0.57
-2 11 -7 1.19 0.49
-2 11 -6 6.6 0.77
-2 11 -5 6.71 0.84
-2 11 -4 9.11 1
-2 11 -3 13.35 1.18
-2 11 -2 16.58 1.12
-2 11 -2 19.71 1.35
-2 11 -1 9.88 1.08
-2 11 -1 7.55 0.94
-2 11 0 2.63 0.83
-2 11 0 3.72 0.86
-2 11 1 7.65 0.98
-2 11 2 10.04 1.06
-2 11 2 9.31 1.12
-2 11 3 4.21 0.87
-2 11 3 3.37 1.03
-2 11 4 3.93 0.82
-2 11 4 3.31 0.72
-2 11 4 3.68 1.07
-2 11 5 2.29 0.68
-2 11 5 1.1 0.96
-2 11 6 0.83 0.82
-2 11 7 -0.25 0.68
-2 11 8 0.5 0.5
-2 12 -6 1.11 0.43
-2 12 -5 1.8 0.57
-2 12 -4 5.55 0.78
-2 12 -3 3.65 0.77
-2 12 -2 5.76 0.72
-2 12 -2 4.77 0.82
-2 12 -1 9.26 0.89
-2 12 -1 6.73 0.91
-2 12 0 12.32 1.04
-2 12 0 14.87 1.04
-2 12 1 17.57 1.13
-2 12 2 4.76 0.84
-2 12 3 0.82 0.67
-2 12 3 0.57 0.6
-2 12 4 0.8 0.6
-2 12 4 2.73 0.76
-2 12 5 1.78 0.69
-2 12 6 1.89 0.58
-2 13 -4 1.27 0.45
-2 13 -3 1.76 0.52
-2 13 -2 3.68 0.54
-2 13 -2 3.15 0.61
-2 13 -1 2.12 0.57
-2 13 -1 1.49 0.56
-2 13 0 0.85 0.56
-2 13 1 5.84 0.7
-2 13 2 4.24 0.67
-2 13 2 3.76 0.61
-2 13 3 5.07 0.61
-1 -9 6 5.2 0.91
-1 -9 7 15.77 1.17
-1 -9 8 24.46 1.32
-1 -9 9 8.58 0.9
-1 -9 10 4.36 0.66
-1 -8 5 24.86 1.45
-1 -8 6 18.11 1.3
-1 -8 7 7.35 1.04
-1 -8 8 8.59 1.04
-1 -8 9 4.03 0.86
-1 -8 10 5.31 0.8
-1 -8 11 2.01 0.55
-1 -7 5 66.7 2.06
-1 -7 6 40.6 1.73
-1 -7 7 26.4 1.55
-1 -7 8 24.41 1.48
-1 -7 9 5.5 0.97
-1 -7 10 4.92 0.86
-1 -7 11 0.91 0.61
-1 -6 6 43.04 1.69
-1 -6 7 44.98 1.85
-1 -6 8 18.29 1.36
-1 -6 9 7.36 1.06
-1 -6 10 8.75 1.04
-1 -6 11 1.13 0.67
-1 -6 12 4.77 0.61
-1 -5 7 50.9 1.95
-1 -5 7 54.12 1.89
-1 -5 8 21.7 1.51
-1 -5 8 19.36 1.39
-1 -5 9 11.87 1.29
-1 -5 9 16.85 1.37
-1 -5 10 2.62 0.88
-1 -5 11 -0.71 0.73
-1 -5 12 4.05 0.66
-1 -4 0 61.14 1.24
-1 -4 8 16.62 1.39
-1 -4 8 17.57 1.31
-1 -4 9 28.88 1.76
-1 -4 9 28.82 1.66
-1 -4 10 5.33 1
-1 -4 11 7.97 1
-1 -4 12 2.73 0.7
-1 -3 -11 1.47 0.63
-1 -3 0 1.87 0.36
-1 -3 2 2.09 0.36
-1 -3 3 168.65 2.99
-1 -3 4 36.55 1.96
-1 -3 5 179.69 4.61
-1 -3 6 216.8 5.72
-1 -3 7 119.4 4.9
-1 -3 8 36.92 1.82
-1 -3 8 36.84 1.69
-1 -3 8 37.1 3.29
-1 -3 9 29.76 1.82
-1 -3 9 31.05 1.67
-1 -3 10 1.93 0.89
-1 -3 11 17.13 1.25
-1 -3 12 8.97 0.88
-1 -2 -11 2.71 0.77
-1 -2 2 103.09 1.76
-1 -2 3 137.78 2.87
-1 -2 4 474.62 6.47
-1 -2 5 80.63 3.26
-1 -2 6 131.82 4.65
-1 -2 7 36.14 2.97
-1 -2 8 46.5 2.01
-1 -2 8 45.64 3.67
-1 -2 8 46.99 1.83
-1 -2 9 26.16 1.71
-1 -2 9 22.98 3.13
-1 -2 9 28.11 1.56
-1 -2 10 4.46 1.13
-1 -2 10 4.9 1.03
-1 -2 11 14.02 1.17
-1 -2 11 11.35 1.14
-1 -2 12 5.81 0.78
-1 -1 -12 0.76 0.53
-1 -1 -11 1.94 0.81
-1 -1 1 98.45 1.12
-1 -1 2 141.48 2.25
-1 -1 3 97.3 2.69
-1 -1 4 128.36 3.49
-1 -1 5 39.75 2.46
-1 -1 6 159.39 5.15
-1 -1 7 32.83 2.93
-1 -1 8 48.27 2.03
-1 -1 8 47.69 3.78
-1 -1 9 4.35 2.13
-1 -1 9 5.24 1.07
-1 -1 9 5.01 1.15
-1 -1 10 13.84 1.24
-1 -1 11 8.92 1
-1 -1 11 6.66 1.1
-1 -1 12 4.07 0.83
-1 0 -12 0.75 0.55
-1 0 -11 1.36 0.8
-1 0 1 796.35 4.28
-1 0 2 382.46 3.94
-1 0 3 5.71 1
-1 0 3 5.17 0.35
-1 0 4 80.86 2.92
-1 0 4 75.39 1.5
-1 0 5 153.26 4.52
-1 0 6 107.36 4.36
-1 0 7 36.01 3.06
-1 0 8 47.18 3.84
-1 0 8 48.6 2.05
-1 0 9 -0.67 0.94
-1 0 9 0.71 1.83
-1 0 10 15.28 1.44
-1 0 11 3.11 1.01
-1 0 12 2.35 0.81
-1 1 -12 0.85 0.55
-1 1 -11 2.37 0.84
-1 1 1 65.61 1.54
-1 1 1 63.88 1.34
-1 1 2 1572.06 8.54
-1 1 3 2729.98 13.66
-1 1 4 509 7.03
-1 1 4 507.13 4.42
-1 1 5 270.69 6.11
-1 1 6 37.64 2.81
-1 1 7 53.33 3.74
-1 1 8 45.03 2
-1 1 8 38.03 3.68
-1 1 9 9.4 1.28
-1 1 9 10.82 2.61
-1 1 10 18.3 1.54
-1 1 11 7.11 1.15
-1 1 12 1.07 0.78
-1 2 -12 0.68 0.54
-1 2 -11 3.95 0.86
-1 2 -10 1.4 0.95
-1 2 -2 13.23 0.77
-1 2 -1 900.44 5.46
-1 2 1 172.06 2.81
-1 2 2 37.13 1.58
-1 2 3 13.87 1.31
-1 2 4 247.19 5.13
-1 2 5 591.16 9.07
-1 2 6 170.49 5.66
-1 2 7 115.78 5.35
-1 2 8 6.56 1.11
-1 2 8 5.62 2.12
-1 2 9 24.57 1.69
-1 2 10 11.89 1.37
-1 2 11 10.39 1.24
-1 2 12 3.36 0.81
-1 3 -12 1.16 0.5
-1 3 -11 3.89 0.82
-1 3 -10 0.6 0.87
-1 3 -9 11.35 1.3
-1 3 -3 182.83 2.97
-1 3 -2 23.05 1.25
-1 3 -1 1885.52 10.17
-1 3 0 2.97 0.83
-1 3 1 25.88 0.71
-1 3 2 176.22 3.51
-1 3 2 177.08 3.86
-1 3 2 177.37 3.48
-1 3 3 78.34 2.8
-1 3 4 98.18 3.47
-1 3 5 26.37 2.29
-1 3 6 22.94 2.5
-1 3 7 74.4 4.57
-1 3 8 8.42 2.4
-1 3 8 7.32 1.2
-1 3 9 28.6 1.82
-1 3 10 9.07 1.3
-1 3 11 3.56 1
-1 3 12 3.29 0.77
-1 4 -11 0.88 0.65
-1 4 -10 2.18 0.84
-1 4 -9 21.09 1.44
-1 4 -8 23.32 1.56
-1 4 -3 135.18 3.17
-1 4 -2 242.14 4.3
-1 4 -1 303.84 4.93
-1 4 0 87.86 2.3
-1 4 0 86.91 2.75
-1 4 1 203.38 4.7
-1 4 1 193.29 4.04
-1 4 2 435.46 5.95
-1 4 2 438.17 7.05
-1 4 2 423.01 6.17
-1 4 3 19.41 1.78
-1 4 3 19.57 2.06
-1 4 3 21.8 1.82
-1 4 4 169.19 4.74
-1 4 5 58.05 3.32
-1 4 6 57.3 3.71
-1 4 7 19.17 2.79
-1 4 7 19.66 1.58
-1 4 7 20.46 1.52
-1 4 8 6.18 2.3
-1 4 8 4.17 1.23
-1 4 8 6.02 1.24
-1 4 9 12.41 1.37
-1 4 9 12.66 1.51
-1 4 10 9.61 1.29
-1 4 11 1.11 0.85
-1 4 12 2.15 0.67
-1 5 -10 -0.91 0.74
-1 5 -9 3.29 0.92
-1 5 -8 18.39 1.35
-1 5 -7 45.68 1.84
-1 5 -3 41.8 2.2
-1 5 -2 601.27 7.79
-1 5 -1 428.7 6.73
-1 5 -1 433.11 6.8
-1 5 0 403.49 5.38
-1 5 0 404.87 6.57
-1 5 1 90.08 3.75
-1 5 1 77.08 3.08
-1 5 2 94.34 3.9
-1 5 2 82.17 3.29
-1 5 3 121.29 3.84
-1 5 3 122.75 4.58
-1 5 3 123.7 3.98
-1 5 4 123.81 4.34
-1 5 4 115.48 4.71
-1 5 5 25.21 2.68
-1 5 5 22.17 2.42
-1 5 6 38.38 3.26
-1 5 6 34.33 3.15
-1 5 7 13.07 2.54
-1 5 7 9.37 2.12
-1 5 7 9.75 1.42
-1 5 7 11.96 1.35
-1 5 8 20.95 1.64
-1 5 8 18.64 1.6
-1 5 9 9.3 1.31
-1 5 9 9.14 1.32
-1 5 10 5.26 1.09
-1 5 11 2.16 0.82
-1 5 12 0.96 0.52
-1 6 -6 9.6 2.29
-1 6 -6 11.45 1.08
-1 6 -5 45.84 3.79
-1 6 -4 57.1 3.81
-1 6 -3 31.77 2.71
-1 6 -3 31.98 2.29
-1 6 -2 226.82 5.97
-1 6 -2 228.08 5.55
-1 6 -1 17.75 1.88
-1 6 -1 18.24 1.63
-1 6 0 88.83 3.62
-1 6 1 275.08 6.32
-1 6 2 201.58 6.21
-1 6 2 190.87 5.45
-1 6 3 180.3 6.1
-1 6 3 185.39 5.51
-1 6 4 64.38 3.4
-1 6 4 60.95 3.92
-1 6 5 34.57 2.91
-1 6 5 36.33 3.29
-1 6 6 29.15 3.11
-1 6 6 25.88 1.77
-1 6 6 27.03 3.15
-1 6 6 27.71 1.68
-1 6 7 0.87 1.93
-1 6 7 0.15 1.17
-1 6 7 0.02 1.62
-1 6 7 -0.61 1.14
-1 6 8 7.14 1.28
-1 6 8 5.39 1.17
-1 6 9 3.85 1.11
-1 6 9 5.9 1.14
-1 6 10 2.87 0.9
-1 6 10 2.96 0.89
-1 6 11 2.76 0.72
-1 7 -7 20.1 1.32
-1 7 -6 4.44 0.94
-1 7 -5 7.65 2
-1 7 -5 11.43 1.1
-1 7 -4 13.63 2.24
-1 7 -4 17.05 1.21
-1 7 -3 77.89 3.68
-1 7 -3 74.16 4.14
-1 7 -2 134.54 4.88
-1 7 -2 133.72 4.77
-1 7 -1 30.6 2.58
-1 7 0 20.87 2.22
-1 7 1 33.66 2.75
-1 7 2 18.96 2.45
-1 7 2 18.65 2.24
-1 7 3 96.06 5.01
-1 7 3 106.53 4.68
-1 7 4 46.83 3.8
-1 7 4 49.17 2.1
-1 7 5 39.11 2.03
-1 7 5 41.16 3.8
-1 7 5 41.83 1.87
-1 7 6 15.58 1.62
-1 7 6 15.37 2.76
-1 7 6 15.83 1.47
-1 7 7 7.75 1.37
-1 7 7 8.27 1.24
-1 7 8 6.2 1.13
-1 7 8 7.23 1.26
-1 7 9 3.49 0.96
-1 7 9 3.13 1.03
-1 7 10 -1.23 0.79
-1 7 10 0.38 0.71
-1 7 11 0.96 0.51
-1 8 -7 9.02 1.05
-1 8 -6 9.57 1.12
-1 8 -5 35.46 1.68
-1 8 -4 17.6 1.34
-1 8 -3 83.01 4.21
-1 8 -3 73.38 2.24
-1 8 -2 62.95 2.03
-1 8 -2 59.71 3.72
-1 8 -1 49.35 3.52
-1 8 0 36.05 3.07
-1 8 1 30.36 3
-1 8 2 36.65 1.45
-1 8 2 38.5 1.91
-1 8 2 40.42 3.44
-1 8 3 33.6 3.52
-1 8 3 32.47 1.54
-1 8 3 37.07 1.93
-1 8 3 35.09 1.44
-1 8 4 12.91 1.06
-1 8 4 11.62 1.5
-1 8 4 11.27 1.26
-1 8 4 12.22 2.43
-1 8 4 11.17 1.11
-1 8 5 19.63 1.7
-1 8 5 22.39 1.53
-1 8 6 5.62 1.34
-1 8 6 4.58 1.09
-1 8 7 8.96 1.34
-1 8 7 7.51 1.15
-1 8 8 3.8 1.15
-1 8 8 4.35 1.01
-1 8 9 2.43 0.91
-1 8 9 3.95 0.85
-1 8 10 1.64 0.64
-1 8 10 2.34 0.61
-1 9 -8 6.45 0.81
-1 9 -7 6.34 0.91
-1 9 -6 9.05 1.07
-1 9 -5 6.19 0.99
-1 9 -4 10.55 1.15
-1 9 -3 53.14 2.05
-1 9 -2 22.7 2.87
-1 9 -2 19.26 1.39
-1 9 -1 27.16 3
-1 9 -1 24.63 1.46
-1 9 0 43.07 1.88
-1 9 0 44.52 3.71
-1 9 0 41.13 1.75
-1 9 1 24.49 1.35
-1 9 1 22.89 1.6
-1 9 1 24.71 1.51
-1 9 1 25.87 3.06
-1 9 2 39.36 1.63
-1 9 2 40.36 1.8
-1 9 2 38.24 2.02
-1 9 2 41.33 3.77
-1 9 3 22.88 1.49
-1 9 3 25.79 1.78
-1 9 3 24.99 1.37
-1 9 4 16.81 1.2
-1 9 4 16.18 1.27
-1 9 4 16.58 1.62
-1 9 4 15.83 1.34
-1 9 5 14.31 1.55
-1 9 5 12.86 1.31
-1 9 5 15.5 1.07
-1 9 6 1.96 1.16
-1 9 6 2.52 0.96
-1 9 7 4.35 1.15
-1 9 7 4.01 0.94
-1 9 8 1.96 0.95
-1 9 8 3.84 0.83
-1 9 9 2.12 0.63
-1 9 9 0.43 0.68
-1 10 -8 4.98 0.68
-1 10 -7 2.65 0.73
-1 10 -6 9.17 0.98
-1 10 -5 13.51 1.21
-1 10 -4 22.68 1.45
-1 10 -3 15.1 1.04
-1 10 -3 13.85 1.26
-1 10 -2 3.86 0.85
-1 10 -2 4.89 0.96
-1 10 -1 8.65 1
-1 10 -1 8.91 1.11
-1 10 0 14.27 1.17
-1 10 0 15.99 1.23
-1 10 1 12.84 1.25
-1 10 1 12.53 1.31
-1 10 1 15.55 1.22
-1 10 2 22.96 1.47
-1 10 2 20.66 1.61
-1 10 2 23.5 1.4
-1 10 3 6.13 0.96
-1 10 3 6.09 1
-1 10 3 5.34 1.31
-1 10 4 5.17 1
-1 10 4 2.75 1.21
-1 10 4 5.5 0.89
-1 10 5 3.16 0.73
-1 10 5 1.2 1.11
-1 10 6 0.4 0.96
-1 10 7 3.03 0.94
-1 10 8 1.99 0.73
-1 11 -7 1.41 0.59
-1 11 -6 5.16 0.78
-1 11 -5 3.12 0.77
-1 11 -4 19.7 1.31
-1 11 -3 28.49 1.53
-1 11 -3 24.58 1.22
-1 11 -2 20.75 1.19
-1 11 -2 21.81 1.41
-1 11 -1 8.28 0.97
-1 11 -1 9.87 1.08
-1 11 0 2.17 0.82
-1 11 0 4.07 0.85
-1 11 1 5.9 0.94
-1 11 1 7.41 1.04
-1 11 2 8.39 1.14
-1 11 2 10.37 1.06
-1 11 3 5.59 0.91
-1 11 3 7.57 0.97
-1 11 3 6.69 1.17
-1 11 4 5.6 0.81
-1 11 4 6.84 1.14
-1 11 5 0.38 0.87
-1 11 5 -1.18 0.63
-1 11 6 -0.57 0.76
-1 11 7 -0.27 0.59
-1 12 -6 1.57 0.51
-1 12 -5 3.79 0.68
-1 12 -4 9.84 0.95
-1 12 -3 3.42 0.65
-1 12 -3 2.72 0.76
-1 12 -2 3.91 0.74
-1 12 -2 4.24 0.83
-1 12 -1 10.07 0.99
-1 12 -1 12.93 0.99
-1 12 0 13.23 1.03
-1 12 0 12.19 1.03
-1 12 1 17.51 1.12
-1 12 2 6.21 0.84
-1 12 3 2.29 0.68
-1 12 3 10.99 0.94
-1 12 4 1.38 0.58
-1 12 4 5.13 0.78
-1 12 5 3.77 0.68
-1 12 6 21.05 0.82
-1 13 -5 2.08 0.43
-1 13 -4 2.35 0.53
-1 13 -3 3.46 0.51
-1 13 -3 3.08 0.61
-1 13 -2 5.22 0.61
-1 13 -2 4.07 0.65
-1 13 -1 2.56 0.59
-1 13 -1 2.16 0.59
-1 13 0 1.6 0.59
-1 13 1 4.38 0.69
-1 13 2 3.45 0.61
-1 13 2 2.79 0.5
-1 13 3 4.29 0.55
0 -9 7 11.23 1.06
0 -9 8 15.32 1.11
0 -9 9 6.75 0.81
0 -9 10 3.91 0.59
0 -8 6 12.63 1.16
0 -8 7 8.13 1.04
0 -8 8 12.04 1.13
0 -8 9 9.1 0.97
0 -8 10 6.37 0.78
0 -7 5 34.1 1.53
0 -7 6 12.53 1.15
0 -7 7 26.01 1.46
0 -7 8 22.91 1.42
0 -7 9 9.95 1.09
0 -7 10 8.75 0.93
0 -7 11 0.96 0.54
0 -6 6 27.51 1.42
0 -6 7 18.78 1.36
0 -6 8 7.34 1.07
0 -6 9 8.32 1.06
0 -6 10 6.51 0.94
0 -6 11 0.53 0.6
0 -6 12 2.77 0.49
0 -5 -1 61.82 2.39
0 -5 0 266.47 4.4
0 -5 1 883.16 8.62
0 -5 2 1128.89 10.4
0 -5 7 72.02 2.3
0 -5 7 74.39 2.22
0 -5 8 33.38 1.72
0 -5 9 11.11 1.21
0 -5 10 0.55 0.78
0 -5 11 -0.66 0.68
0 -5 12 2.38 0.54
0 -4 -11 1.98 0.69
0 -4 0 40.76 1.58
0 -4 1 894.36 7.95
0 -4 2 466.97 6.49
0 -4 3 223.48 4.94
0 -4 3 204.91 4.46
0 -4 4 236.23 5.31
0 -4 5 103.2 4.03
0 -4 6 79.92 4.04
0 -4 7 55.95 2.05
0 -4 7 59.75 1.96
0 -4 8 38.16 1.86
0 -4 8 39.97 1.81
0 -4 9 41.06 1.85
0 -4 10 5.5 1
0 -4 11 5.35 0.89
0 -4 12 2.24 0.6
0 -3 -12 1.57 0.56
0 -3 0 9.42 0.8
0 -3 1 4192.62 15.35
0 -3 2 81.88 2.77
0 -3 3 25.32 1.87
0 -3 4 20.35 1.93
0 -3 5 101.8 4.05
0 -3 6 121.67 4.9
0 -3 7 97.95 4.86
0 -3 8 45.29 2.03
0 -3 8 47.67 3.93
0 -3 8 45.88 1.9
0 -3 9 26.94 1.63
0 -3 10 0.32 0.84
0 -3 11 14.09 1.13
0 -3 12 6.29 0.74
0 -2 -12 2.76 0.69
0 -2 0 464.02 3.39
0 -2 1 1782.51 9.19
0 -2 2 62.88 2.3
0 -2 3 51.99 2.38
0 -2 4 27.61 2.12
0 -2 5 94.89 3.93
0 -2 6 87.55 4.3
0 -2 7 78.4 4.42
0 -2 8 41.77 1.98
0 -2 8 43.13 1.79
0 -2 8 38.81 3.67
0 -2 9 13.15 1.27
0 -2 10 2.21 0.91
0 -2 11 11.03 1.04
0 -2 12 3.69 0.66
0 -1 -12 1.17 0.69
0 -1 0 1128.97 3.66
0 -1 1 47.66 1.44
0 -1 2 117.79 2.83
0 -1 3 22.61 2.09
0 -1 4 27.82 2.13
0 -1 5 83.29 3.71
0 -1 6 63.54 3.71
0 -1 7 38.53 3.38
0 -1 8 48.43 2.07
0 -1 8 45.19 3.84
0 -1 8 44.47 1.77
0 -1 9 1.16 0.94
0 -1 10 7.13 1.03
0 -1 10 6.68 1.1
0 -1 11 9.25 1.01
0 0 -12 1.59 0.73
0 0 1 830.4 4.82
0 0 2 183.85 3.3
0 0 3 6.37 1.23
0 0 4 60.68 2.9
0 0 5 201.76 5.63
0 0 6 174.17 5.9
0 0 7 63.21 4.15
0 0 8 38.92 1.94
0 0 8 38.44 3.78
0 0 8 41.52 1.74
0 0 9 1.85 0.86
0 0 9 1.98 1.06
0 0 10 9.52 1.21
0 0 11 3.83 0.92
0 1 -12 1.82 0.73
0 1 0 1027.5 4
0 1 0 1028.9 3.31
0 1 1 100.87 1.75
0 1 2 1155.45 6.69
0 1 2 1145.09 5.45
0 1 3 1329.38 10.66
0 1 3 1325.16 8.73
0 1 4 354.44 6.5
0 1 4 357.24 5.22
0 1 5 143.63 4.85
0 1 5 140.07 3.71
0 1 6 118.46 4.95
0 1 7 81.34 4.67
0 1 8 39.74 3.76
0 1 8 30.82 1.71
0 1 9 5.03 1.16
0 1 10 15.01 1.35
0 1 11 5.19 0.96
0 2 -12 2.15 0.7
0 2 -11 6.3 1.03
0 2 0 420.5 3.65
0 2 1 94.09 1.88
0 2 1 89.21 1.63
0 2 2 130.7 2.82
0 2 2 130.37 2.79
0 2 2 128.91 2.51
0 2 3 28.1 1.77
0 2 3 28.48 1.6
0 2 3 27.57 1.36
0 2 4 222.97 5.23
0 2 4 221.68 4.48
0 2 5 263.04 6.47
0 2 5 262.41 5.3
0 2 6 129.19 5.22
0 2 7 82.93 4.83
0 2 8 1.54 1.91
0 2 8 0.19 1.06
0 2 9 11.02 1.35
0 2 10 12.97 1.35
0 2 11 7.23 1.03
0 2 12 2.79 0.65
0 3 -12 3.9 0.69
0 3 -11 7.25 1.01
0 3 -1 4375.57 17.1
0 3 0 9.5 0.82
0 3 1 6.25 0.67
0 3 1 6.25 0.75
0 3 2 6.72 0.95
0 3 2 7.64 1.06
0 3 2 5.85 0.95
0 3 3 95.38 3.09
0 3 3 95.83 3.12
0 3 3 102.23 2.78
0 3 4 123.11 4
0 3 4 121.07 3.74
0 3 5 102.23 4.25
0 3 5 103.36 3.74
0 3 6 56.84 3.75
0 3 7 53.12 4.05
0 3 7 48.86 2.04
0 3 8 -0.88 1.98
0 3 8 0.04 1.05
0 3 9 11.58 1.4
0 3 10 6.8 1.15
0 3 11 2.83 0.86
0 3 12 2.08 0.59
0 4 -12 0.54 0.53
0 4 -11 2.51 0.78
0 4 -10 3.32 0.95
0 4 -8 26.24 3.37
0 4 -2 533.01 7.59
0 4 -1 936 9.12
0 4 0 35.06 2.13
0 4 0 36.49 1.61
0 4 1 43.04 2.09
0 4 1 45.74 1.67
0 4 1 42.2 1.54
0 4 1 45.44 2.42
0 4 2 39.89 1.85
0 4 2 38.62 2.04
0 4 3 55.38 2.55
0 4 3 63.84 2.62
0 4 4 96.74 3.71
0 4 5 108.98 4.5
0 4 6 81.37 4.49
0 4 7 14.24 2.62
0 4 7 13.18 1.42
0 4 7 16.85 1.5
0 4 8 0.2 1.08
0 4 9 12.96 1.39
0 4 10 6.79 1.13
0 4 11 2.56 0.8
0 4 12 2.14 0.52
0 5 -11 -0.63 0.63
0 5 -10 0.08 0.74
0 5 -9 8.92 1.1
0 5 -7 50.34 4.32
0 5 -6 35.32 3.44
0 5 -5 13.56 2.21
0 5 -4 47.41 3.33
0 5 -3 23.83 2.24
0 5 -2 1248.89 12.81
0 5 -1 883.92 9.6
0 5 0 227.88 5.64
0 5 0 227.03 4.38
0 5 1 51.11 2.63
0 5 1 57.8 3.11
0 5 1 50.34 1.9
0 5 2 76.73 2.67
0 5 2 78.64 3.68
0 5 2 75.6 3.14
0 5 3 100.47 3.48
0 5 3 99.99 4.33
0 5 3 103.91 3.68
0 5 4 70.4 3.36
0 5 4 70.97 3.14
0 5 5 18.7 2.28
0 5 6 39.6 3.39
0 5 6 37.86 1.91
0 5 6 42.55 1.92
0 5 7 -2.26 2.03
0 5 7 -0.45 1.07
0 5 7 2.24 1.01
0 5 8 10 1.31
0 5 8 11.36 1.39
0 5 9 11.33 1.31
0 5 10 4.5 0.97
0 5 11 1.65 0.68
0 6 -7 12.73 2.64
0 6 -6 22.78 3
0 6 -6 22.46 1.33
0 6 -5 20.47 2.7
0 6 -4 34.64 2.37
0 6 -4 31.33 2.91
0 6 -3 17.67 1.91
0 6 -3 20.58 2.23
0 6 -2 461.94 8.01
0 6 -2 477.2 8.56
0 6 -1 20.79 2.06
0 6 -1 22.49 1.83
0 6 0 78.78 2.84
0 6 0 78.74 3.51
0 6 0 80.36 3.92
0 6 1 149.02 5.3
0 6 1 142.78 4.65
0 6 2 111.37 4.89
0 6 2 112.08 4.27
0 6 3 96.23 4.81
0 6 3 101.01 4.09
0 6 4 82.9 4.74
0 6 4 90.16 3.95
0 6 5 39.84 1.93
0 6 5 38.05 3.6
0 6 5 38.47 1.81
0 6 6 18.3 1.35
0 6 6 21.95 1.65
0 6 6 18.77 2.87
0 6 6 18.96 1.52
0 6 7 0.33 1.11
0 6 7 0 1.07
0 6 8 4.59 1.11
0 6 8 4.33 1.11
0 6 9 3.83 1.02
0 6 10 1.76 0.79
0 6 11 2.03 0.57
0 7 -7 22.09 1.33
0 7 -6 12.82 2.53
0 7 -6 9.37 1.08
0 7 -5 35.47 3.54
0 7 -5 33.47 1.57
0 7 -4 23.63 2.75
0 7 -4 27 2.41
0 7 -3 101.6 4.81
0 7 -3 106.86 4.37
0 7 -2 198.16 5.95
0 7 -2 200.72 5.95
0 7 -1 29.07 2.55
0 7 0 17.38 2.15
0 7 1 26.93 2.79
0 7 1 24.11 2.44
0 7 2 44.71 3.55
0 7 2 44.97 3.19
0 7 3 79.66 4.8
0 7 3 78.85 4.12
0 7 4 44.12 1.79
0 7 4 41.48 2
0 7 4 43 3.85
0 7 4 44.37 1.88
0 7 5 38.86 1.77
0 7 5 39.61 2.02
0 7 5 35.59 3.74
0 7 5 39.23 1.9
0 7 6 7.16 1.08
0 7 6 9.17 1.43
0 7 6 8.82 1.26
0 7 7 4.12 1.21
0 7 7 2.66 1.05
0 7 8 4.92 1.15
0 7 8 5.42 1.09
0 7 9 1.87 0.88
0 7 9 1.83 0.84
0 7 10 0.37 0.62
0 8 -7 5.71 0.95
0 8 -6 10.32 1.1
0 8 -5 19.83 2.91
0 8 -5 22.19 1.4
0 8 -4 11.39 1.12
0 8 -4 10.71 2.14
0 8 -3 167.58 3.15
0 8 -3 157.29 5.82
0 8 -2 95.75 2.64
0 8 -2 96.37 2.38
0 8 -2 93.82 4.7
0 8 -1 37.92 3.16
0 8 0 27.3 2.81
0 8 1 35.63 1.62
0 8 1 36.98 3.27
0 8 2 39.99 1.97
0 8 2 47.09 4
0 8 2 51.57 1.89
0 8 2 48.2 3.67
0 8 2 49.84 1.88
0 8 3 39.56 1.5
0 8 3 36.08 1.7
0 8 3 40.5 3.84
0 8 3 39.58 2
0 8 3 38.7 1.79
0 8 3 41.4 3.56
0 8 4 19.36 1.38
0 8 4 22.93 3.18
0 8 4 20.68 1.72
0 8 4 21.11 1.51
0 8 4 21.37 1.2
0 8 5 28.77 1.6
0 8 5 30.37 1.92
0 8 5 30.74 1.72
0 8 6 2.83 0.9
0 8 6 3.08 1.2
0 8 6 1.84 1.06
0 8 7 2.27 1.12
0 8 7 3.69 1.02
0 8 8 4.28 1.06
0 8 8 5.33 0.97
0 8 9 2.1 0.73
0 8 9 3.41 0.77
0 9 -8 10.15 0.96
0 9 -7 9.07 1.03
0 9 -6 4.97 0.95
0 9 -5 2.82 0.85
0 9 -4 8.12 1.11
0 9 -3 88.03 2.49
0 9 -3 88.73 4.87
0 9 -2 21.87 1.42
0 9 -2 22.15 2.83
0 9 -1 21.94 1.42
0 9 -1 23.27 1.53
0 9 -1 19.36 1.34
0 9 -1 20.84 2.86
0 9 0 18.92 1.42
0 9 0 15.15 1.34
0 9 0 16.26 2.59
0 9 0 14.09 1.19
0 9 1 8.76 2.16
0 9 1 8.59 1.13
0 9 1 9.1 1.33
0 9 2 22 1.31
0 9 2 19.99 1.63
0 9 2 23.32 1.52
0 9 2 21.85 3
0 9 3 26.26 1.57
0 9 3 25.63 1.33
0 9 3 22.91 1.79
0 9 4 24.72 1.52
0 9 4 20.57 1.77
0 9 4 23.45 1.54
0 9 4 23.42 1.25
0 9 5 16.19 1.28
0 9 5 15.02 1.55
0 9 5 16.91 1.38
0 9 6 1.65 0.77
0 9 6 0.94 1.11
0 9 6 -0.29 0.91
0 9 7 2.43 1
0 9 7 3.23 0.9
0 9 8 1.65 0.79
0 10 -8 4.71 0.7
0 10 -7 3.84 0.8
0 10 -6 15.64 1.19
0 10 -5 16.03 1.26
0 10 -4 23.45 1.47
0 10 -3 23.63 1.49
0 10 -2 3.94 0.91
0 10 -1 9.14 1.08
0 10 0 17.75 1.39
0 10 0 16.63 1.24
0 10 1 16.74 1.4
0 10 1 15.21 1.18
0 10 1 13.94 1.37
0 10 2 13.2 1.14
0 10 2 13.68 1.46
0 10 2 14.58 1.31
0 10 3 1.39 0.76
0 10 3 1.99 0.89
0 10 3 2.23 1.15
0 10 4 4.36 0.78
0 10 4 2.87 1.14
0 10 4 2.28 0.86
0 10 5 0.36 0.73
0 10 5 0.55 0.97
0 10 6 -0.18 0.85
0 10 7 1.79 0.8
0 10 8 1.46 0.55
0 11 -7 2.63 0.63
0 11 -6 4.16 0.77
0 11 -5 1.85 0.75
0 11 -4 31.53 1.26
0 11 -4 32.25 1.58
0 11 -3 37.83 1.43
0 11 -3 35.58 1.68
0 11 -2 19.84 1.21
0 11 -2 17.91 1.29
0 11 -1 8.07 1.04
0 11 -1 9.87 1
0 11 0 2.98 0.83
0 11 0 3.47 0.82
0 11 1 7.23 1.07
0 11 1 6.98 0.95
0 11 2 11.91 1.23
0 11 2 12.16 1.18
0 11 2 11.39 1.04
0 11 3 10.12 1.17
0 11 3 10.99 0.97
0 11 3 10.59 1.1
0 11 4 7.73 0.79
0 11 4 9.86 0.97
0 11 4 7.76 1.1
0 11 5 0.17 0.59
0 11 5 0.75 0.76
0 11 6 -0.62 0.65
0 11 7 22.98 0.82
0 12 -6 1.42 0.55
0 12 -5 5.68 0.78
0 12 -4 14.45 1.06
0 12 -4 17.15 0.87
0 12 -3 4.59 0.71
0 12 -3 3.74 0.8
0 12 -2 3.01 0.72
0 12 -2 4.17 0.8
0 12 -1 7.08 0.87
0 12 -1 7.44 0.89
0 12 0 8.12 0.91
0 12 1 12.52 0.98
0 12 2 6.5 0.8
0 12 3 5.05 0.7
0 13 -5 2.78 0.47
0 13 -4 4.7 0.6
0 13 -3 4.63 0.56
0 13 -3 2.99 0.6
0 13 -2 4.14 0.6
0 13 -2 2.89 0.61
0 13 -1 2.91 0.6
0 13 -1 2.83 0.58
0 13 0 2.23 0.59
0 13 1 4.13 0.61
0 13 2 2.68 0.53
1 -9 7 9.11 1
1 -9 8 9.31 0.89
1 -9 9 5.2 0.71
1 -8 6 11.83 1.11
1 -8 7 11.82 1.12
1 -8 8 13.56 1.12
1 -8 9 8.19 0.9
1 -8 10 4.57 0.65
1 -7 5 12.5 1.1
1 -7 6 5.13 0.96
1 -7 7 25.31 1.47
1 -7 8 13.91 1.19
1 -7 9 8.83 0.99
1 -7 10 8.3 0.85
1 -7 11 1.44 0.47
1 -6 -3 204.41 5.76
1 -6 -2 226.59 5.65
1 -6 -1 338.48 6.54
1 -6 0 111.46 3.97
1 -6 1 20.17 2.2
1 -6 2 232.43 6.44
1 -6 3 34.2 2.82
1 -6 6 14.95 1.18
1 -6 7 5.65 0.99
1 -6 8 2.3 0.88
1 -6 9 4.01 0.9
1 -6 10 5.51 0.83
1 -6 11 0.71 0.54
1 -5 -2 95.75 3.47
1 -5 -1 93.88 3.26
1 -5 0 482.45 7.15
1 -5 1 456.63 7.69
1 -5 2 593.1 9.53
1 -5 3 43.4 3.01
1 -5 4 94.66 4.25
1 -5 5 30.8 2.89
1 -5 6 74.35 2.12
1 -5 7 63.4 2.13
1 -5 8 27.99 1.62
1 -5 9 5.85 1.04
1 -5 10 -0.06 0.74
1 -5 11 0.13 0.57
1 -4 -12 1.44 0.57
1 -4 -1 206.76 4.11
1 -4 0 94.7 2.92
1 -4 1 321.8 5.83
1 -4 2 239.92 5.8
1 -4 3 139.18 4.76
1 -4 4 130.2 4.83
1 -4 5 61.85 3.76
1 -4 6 84.18 4.61
1 -4 7 31.32 3.45
1 -4 7 33.7 1.63
1 -4 8 37.11 1.82
1 -4 9 33.99 1.74
1 -4 10 5.33 0.96
1 -4 11 2.65 0.73
1 -4 12 0.65 0.44
1 -3 -1 30.31 1.57
1 -3 0 2.91 0.91
1 -3 1 2019.54 13.2
1 -3 2 22.54 2.14
1 -3 3 201.72 5.4
1 -3 4 81.27 3.83
1 -3 5 70.28 3.93
1 -3 6 70.54 4.26
1 -3 7 41.62 3.73
1 -3 7 46.19 1.82
1 -3 8 24.92 3.37
1 -3 8 31.44 1.66
1 -3 9 20.8 1.48
1 -3 10 1.82 0.87
1 -3 11 7.95 0.91
1 -3 12 2.08 0.51
1 -2 -13 0.84 0.5
1 -2 0 165.4 2.89
1 -2 1 956.49 8.51
1 -2 2 14.64 1.86
1 -2 3 127.9 4.21
1 -2 4 26.57 2.45
1 -2 5 107.08 4.64
1 -2 6 63.6 4.06
1 -2 7 44.65 3.8
1 -2 7 48.26 1.82
1 -2 8 22.46 3.17
1 -2 8 25.11 1.55
1 -2 9 11.37 1.24
1 -2 10 2.72 0.93
1 -2 11 4.67 0.83
1 -1 -13 0.8 0.55
1 -1 -1 62.1 0.83
1 -1 0 710.19 5.17
1 -1 1 168.84 3.56
1 -1 2 95.66 3.31
1 -1 3 382.8 7.02
1 -1 4 90.14 3.88
1 -1 5 112.45 4.73
1 -1 6 15.03 2.45
1 -1 7 24.13 3.08
1 -1 8 25 3.34
1 -1 8 28.7 1.63
1 -1 9 2.11 0.96
1 -1 10 6.03 0.98
1 -1 11 3.52 0.76
1 0 -13 1.5 0.57
1 0 -1 764.75 4.34
1 0 0 1727.31 7.06
1 0 0 1727.88 7.14
1 0 1 528.45 5.77
1 0 2 198.42 4.23
1 0 2 182.52 4.24
1 0 3 126.71 4.05
1 0 4 169.9 5.12
1 0 5 171.76 5.7
1 0 6 157.66 6.11
1 0 7 53.04 4.13
1 0 8 27.96 3.49
1 0 8 27.91 1.57
1 0 9 1.37 0.92
1 0 10 5.3 0.9
1 1 -13 1.14 0.55
1 1 -9 1.46 1.56
1 1 -2 143.68 2.92
1 1 -1 96.22 1.6
1 1 -1 96.62 1.42
1 1 0 847.46 4.36
1 1 0 844.05 5.74
1 1 1 30.7 1.55
1 1 1 30.03 1.32
1 1 2 753.72 7.98
1 1 3 72.8 3.07
1 1 4 309.6 6.74
1 1 5 52.59 3.49
1 1 5 51.64 2.83
1 1 6 86.21 4.72
1 1 7 68.19 4.67
1 1 8 33.02 3.7
1 1 8 24.73 1.57
1 1 9 3.4 1.04
1 1 10 8.22 1.07
1 1 10 7.84 0.97
1 2 -13 0.99 0.52
1 2 -12 2.24 0.8
1 2 -9 15.59 2.76
1 2 -8 30.71 3.26
1 2 -2 103.04 2.88
1 2 -1 903.09 7.15
1 2 -1 912.97 6.45
1 2 0 348.14 4.25
1 2 0 345.92 2.47
1 2 1 81.67 2.13
1 2 1 91.51 2.35
1 2 2 186.73 3.88
1 2 2 189.2 4.07
1 2 3 47.54 2.5
1 2 3 45.7 2.29
1 2 3 41.16 1.56
1 2 4 195.74 5.48
1 2 4 193.19 4.94
1 2 5 60.02 3.58
1 2 5 59.45 3.11
1 2 6 38.02 3.32
1 2 7 60.8 4.39
1 2 7 48.6 2
1 2 8 2.98 1.11
1 2 9 6.04 0.99
1 2 9 4.63 1.1
1 2 10 6.75 1.03
1 2 10 6.26 0.88
1 2 11 3.03 0.75
1 3 -12 4.28 0.79
1 3 -8 27.11 3.26
1 3 -7 90.4 5.01
1 3 -3 165.64 4.42
1 3 -2 2.66 0.99
1 3 -1 2428.71 13.47
1 3 -1 2449.19 13.5
1 3 0 1.99 0.36
1 3 0 1.9 0.74
1 3 1 144.94 2.59
1 3 1 148.45 3.64
1 3 1 150.58 3.21
1 3 2 250.75 4.35
1 3 2 249.68 5.1
1 3 3 209.98 4.85
1 3 3 209.7 5.06
1 3 3 213.42 3.9
1 3 4 101.85 4
1 3 4 96.32 3.77
1 3 5 103.65 4.57
1 3 5 103.5 4.25
1 3 6 40.95 3.49
1 3 7 40.89 3.83
1 3 7 37.84 1.87
1 3 8 0.43 0.78
1 3 8 -0.79 1.05
1 3 9 10.38 1.24
1 3 9 8.85 1.05
1 3 10 2.1 0.92
1 3 11 1.66 0.68
1 4 -12 1.6 0.62
1 4 -11 4.87 0.9
1 4 -8 10.68 2.31
1 4 -7 47.65 3.92
1 4 -6 59.95 4.02
1 4 -5 205.09 6.55
1 4 -4 311.05 7.24
1 4 -3 271.09 6.32
1 4 -2 161.65 4.36
1 4 -1 522.96 7.5
1 4 -1 523.95 7.13
1 4 0 70.43 2.53
1 4 0 68.95 2.94
1 4 1 140.64 2.69
1 4 1 136.02 3.34
1 4 2 18.75 1.57
1 4 2 17.91 1.4
1 4 2 19.29 1.81
1 4 3 88.26 3.26
1 4 3 92.12 3.86
1 4 3 92.27 3.11
1 4 4 54.73 3.03
1 4 4 54.52 3.23
1 4 5 80.83 4.12
1 4 5 80.54 4.15
1 4 6 66.05 4.25
1 4 6 61.43 2.09
1 4 6 61.6 2.17
1 4 7 14.74 2.71
1 4 7 13.85 1.27
1 4 7 15.49 1.46
1 4 8 2.76 0.86
1 4 8 2.68 1.08
1 4 9 6.96 0.96
1 4 9 8.95 1.21
1 4 10 3.72 0.9
1 4 11 2.73 0.66
1 5 -7 38.51 3.74
1 5 -6 24.19 2.92
1 5 -5 42.78 3.39
1 5 -4 47.73 3.33
1 5 -3 15.23 1.94
1 5 -2 797.9 10.56
1 5 -1 351.7 6.96
1 5 -1 347.01 6.44
1 5 0 181.19 4.38
1 5 0 178.46 5.21
1 5 1 136.7 4.75
1 5 1 125.03 3.51
1 5 2 93.96 2.94
1 5 2 90.34 3.45
1 5 3 75.5 3.11
1 5 3 69.7 3.08
1 5 4 15.85 1.94
1 5 5 10.55 1.97
1 5 5 11.18 1.24
1 5 6 31.89 3.24
1 5 6 31.39 1.76
1 5 6 29.63 1.61
1 5 6 29.29 1.75
1 5 7 2.43 0.87
1 5 7 0.46 1.05
1 5 8 4.2 0.92
1 5 8 6.84 1.2
1 5 9 6.15 0.89
1 5 9 3.81 1.02
1 5 10 1.14 0.76
1 5 11 1.6 0.54
1 6 -7 36.77 3.92
1 6 -6 36.79 3.69
1 6 -6 38.82 1.58
1 6 -5 32.09 3.2
1 6 -4 28.74 2.81
1 6 -3 5.8 1.58
1 6 -2 315.61 7.21
1 6 -1 46.81 2.69
1 6 0 144.94 5.29
1 6 0 145.57 4.23
1 6 1 88.95 3.88
1 6 1 86.49 4.31
1 6 2 62.01 3.97
1 6 2 63.51 3.36
1 6 3 50.94 3.78
1 6 3 54.68 3.15
1 6 4 49.57 1.94
1 6 4 48.71 4
1 6 5 25.94 1.55
1 6 5 27.86 1.71
1 6 5 27.87 1.68
1 6 5 29 3.39
1 6 6 12.1 1.23
1 6 6 16.98 1.53
1 6 6 14.19 1.44
1 6 7 -1.5 0.96
1 6 7 -0.34 1.05
1 6 7 -0.69 1.01
1 6 8 2 0.78
1 6 8 1.84 0.97
1 6 9 0.89 0.82
1 6 10 0.51 0.63
1 7 -7 20.59 1.33
1 7 -6 26.17 3.3
1 7 -6 29.29 1.49
1 7 -5 63.29 4.6
1 7 -5 65.91 2.03
1 7 -4 23.09 2.74
1 7 -3 68.32 4.08
1 7 -2 187.88 6.06
1 7 -1 48.27 2.9
1 7 0 69.16 3.85
1 7 0 62.14 3.99
1 7 1 36.77 3.28
1 7 1 35.98 2.93
1 7 2 66.37 4.41
1 7 2 67.79 3.84
1 7 3 39.63 1.77
1 7 3 35.44 1.82
1 7 3 37.1 3.63
1 7 3 38.63 1.74
1 7 3 37.44 3.05
1 7 4 20.62 1.64
1 7 4 21.4 3.07
1 7 4 22.45 1.56
1 7 4 21.96 1.47
1 7 5 25.47 1.59
1 7 5 28.95 1.82
1 7 5 26.6 1.71
1 7 6 5.41 1.03
1 7 6 5.82 1.27
1 7 6 8.9 1.27
1 7 7 1.84 0.81
1 7 7 0.28 1.01
1 7 7 1.68 0.99
1 7 8 3.35 0.77
1 7 8 3.93 0.97
1 7 8 3.53 0.94
1 7 9 1.04 0.73
1 8 -8 7.12 0.93
1 8 -7 6.79 0.97
1 8 -6 15.94 1.26
1 8 -5 23.91 3.11
1 8 -5 23.15 1.41
1 8 -4 7.21 1.93
1 8 -4 8.07 2.05
1 8 -4 8.5 1.05
1 8 -3 103.94 4.98
1 8 -3 101.67 2.51
1 8 -2 51.03 3.63
1 8 -2 48.73 1.95
1 8 -2 47.35 1.77
1 8 -1 26.47 1.5
1 8 -1 26.12 1.37
1 8 -1 29.28 2.95
1 8 0 52.06 1.99
1 8 0 55.85 3.88
1 8 1 46.4 1.9
1 8 1 44.01 3.88
1 8 1 38.52 1.9
1 8 1 47.34 3.65
1 8 2 47.54 1.93
1 8 2 43.88 3.99
1 8 2 39.41 1.95
1 8 2 45.04 3.64
1 8 3 27.79 1.29
1 8 3 28.49 1.62
1 8 3 22.18 1.71
1 8 3 26.43 3.35
1 8 3 27.23 1.62
1 8 3 27.5 2.99
1 8 4 18.62 1.43
1 8 4 15.11 1.62
1 8 4 19.17 1.53
1 8 5 24.75 1.57
1 8 5 25.53 1.79
1 8 5 27.43 1.69
1 8 6 1.67 0.84
1 8 6 0.16 1.12
1 8 6 1.83 1.02
1 8 7 2.31 0.76
1 8 7 0.65 0.94
1 8 7 1.59 0.92
1 8 8 3.69 0.85
1 8 8 2.61 0.78
1 9 -8 14.88 1.06
1 9 -7 11.99 1.11
1 9 -6 4.41 0.98
1 9 -5 2.99 0.87
1 9 -4 4.73 0.97
1 9 -3 76.42 2.36
1 9 -2 34.05 1.82
1 9 -2 33.24 1.63
1 9 -2 33.14 3.3
1 9 -1 24.63 1.57
1 9 -1 22.45 1.42
1 9 -1 22.65 2.97
1 9 0 4.29 0.92
1 9 0 4.59 1.9
1 9 0 4.28 1.02
1 9 0 3.79 1.1
1 9 1 1.46 0.91
1 9 1 0.34 1.13
1 9 2 8.89 1.17
1 9 2 6.18 1.3
1 9 3 14.47 1.05
1 9 3 15.72 1.36
1 9 3 14.13 1.5
1 9 4 16.64 1.59
1 9 4 19.09 1.42
1 9 5 13.86 1.21
1 9 5 12.84 1.4
1 9 6 0.34 0.69
1 9 6 -0.7 0.96
1 9 7 3.13 0.68
1 9 7 0.78 0.79
1 9 8 13.45 0.74
1 10 -8 3.27 0.73
1 10 -7 6.98 0.9
1 10 -6 20.18 1.31
1 10 -5 15.47 1.28
1 10 -4 17.24 1.37
1 10 -3 22.82 1.45
1 10 -2 8.21 1.05
1 10 -1 18.73 1.47
1 10 -1 20.79 1.35
1 10 0 22.83 1.57
1 10 0 21.63 1.36
1 10 1 20.57 1.53
1 10 1 16.1 1.39
1 10 2 4.54 0.87
1 10 2 5.67 1.07
1 10 2 4.87 1.14
1 10 3 -1.52 0.88
1 10 3 -0.81 0.68
1 10 3 -0.48 0.99
1 10 4 1.36 0.81
1 10 4 1.05 0.99
1 10 5 -0.69 0.73
1 10 5 0.65 0.85
1 10 6 0.19 0.58
1 10 6 -2.02 0.78
1 10 7 20.92 0.88
1 11 -8 2.42 0.54
1 11 -7 4.67 0.72
1 11 -6 3.74 0.77
1 11 -5 1.55 0.61
1 11 -5 0.9 0.7
1 11 -4 25.34 1.43
1 11 -3 26.58 1.5
1 11 -2 16.74 1.27
1 11 -1 12.37 1.12
1 11 0 5.17 0.88
1 11 0 5.41 1.03
1 11 0 6.06 0.91
1 11 1 9.11 1.14
1 11 1 6.97 0.91
1 11 2 8.52 0.9
1 11 2 11.49 1.18
1 11 3 9.58 0.84
1 11 3 11.33 1.1
1 11 4 8.11 0.93
1 11 4 12.89 1.05
1 11 5 19.09 1.04
1 11 5 0.32 0.55
1 12 -7 1.81 0.46
1 12 -6 2.49 0.59
1 12 -5 6.49 0.61
1 12 -5 3.95 0.72
1 12 -4 16.01 0.89
1 12 -4 12.72 1.01
1 12 -3 7 0.76
1 12 -3 5.09 0.83
1 12 -2 5.63 0.77
1 12 -2 5.6 0.84
1 12 -1 3.58 0.74
1 12 -1 3.98 0.74
1 12 0 3.4 0.73
1 12 1 6.01 0.77
1 12 2 4.43 0.68
1 12 3 3.83 0.56
1 13 -5 1.78 0.45
1 13 -4 5.31 0.5
1 13 -4 4.73 0.59
1 13 -3 2.72 0.52
1 13 -3 1.98 0.54
1 13 -2 3.18 0.57
1 13 -2 2.49 0.55
1 13 -1 2.52 0.56
1 13 0 2 0.53
1 13 1 1.55 0.48
2 -9 7 5.98 0.86
2 -9 8 5.84 0.75
2 -8 6 10.53 1.1
2 -8 7 8.77 1.03
2 -8 8 12.68 1.02
2 -8 9 6.59 0.77
2 -7 -4 69.49 4.15
2 -7 -3 166.53 5.93
2 -7 -2 31.66 2.84
2 -7 -1 36.61 3.13
2 -7 0 27.7 2.91
2 -7 5 3.17 0.88
2 -7 6 1.07 0.8
2 -7 7 12.45 1.17
2 -7 8 9.01 1.03
2 -7 9 7.39 0.89
2 -7 10 4.27 0.65
2 -6 -4 80.12 4.13
2 -6 -3 319.02 7.39
2 -6 -2 236.61 6.23
2 -6 -1 204.43 5.86
2 -6 0 94.13 4.24
2 -6 1 45.2 3.43
2 -6 2 137.7 5.9
2 -6 3 94.34 5.13
2 -6 4 168.71 6.64
2 -6 5 50.82 1.85
2 -6 6 2.03 0.86
2 -6 7 -0.08 0.87
2 -6 8 0.44 0.83
2 -6 9 3.82 0.85
2 -6 10 3.41 0.7
2 -6 11 0.23 0.4
2 -5 -3 185.73 5.27
2 -5 -2 99.4 3.71
2 -5 -1 77.27 3.34
2 -5 0 215.68 5.62
2 -5 1 180.94 5.72
2 -5 2 247.7 7.25
2 -5 3 165.19 6.23
2 -5 4 127.65 5.7
2 -5 4 119.15 5.47
2 -5 5 23.38 3.1
2 -5 6 56.76 4.44
2 -5 6 53.15 1.95
2 -5 7 52.07 2.01
2 -5 8 19.51 1.42
2 -5 9 3.28 0.88
2 -5 10 0.46 0.66
2 -5 11 0.23 0.48
2 -4 -2 166.74 4.26
2 -4 -1 39.03 2.18
2 -4 0 65.58 2.95
2 -4 1 353.02 7.13
2 -4 2 215.59 6.36
2 -4 3 124.68 5.24
2 -4 4 141.68 5.74
2 -4 4 135.48 5.65
2 -4 5 16.1 2.78
2 -4 6 48.08 4.09
2 -4 6 49.65 1.87
2 -4 7 27.68 3.57
2 -4 7 26.26 1.56
2 -4 8 30.03 1.72
2 -4 9 21.05 1.42
2 -4 10 3 0.81
2 -4 11 1.71 0.59
2 -3 -13 1.52 0.55
2 -3 -1 7.29 1.16
2 -3 0 31.98 1.99
2 -3 1 156.59 4.56
2 -3 2 167.87 5.37
2 -3 3 235.08 6.69
2 -3 4 87.25 4.46
2 -3 4 77.72 4.3
2 -3 5 7.32 2.25
2 -3 6 35.72 3.61
2 -3 6 35.76 1.59
2 -3 7 38.07 3.96
2 -3 7 39.71 1.82
2 -3 8 22.47 1.58
2 -3 9 12.55 1.26
2 -3 10 1.91 0.8
2 -3 11 2.07 0.65
2 -2 -5 873.98 8.09
2 -2 -4 341.71 3.96
2 -2 -3 28.27 0.88
2 -2 -1 135.59 3.11
2 -2 0 145.93 3.5
2 -2 1 503.38 7.5
2 -2 2 344.96 7.24
2 -2 3 76.05 3.82
2 -2 4 8.99 2.12
2 -2 5 27.38 3.04
2 -2 6 32.21 3.43
2 -2 7 35.81 3.84
2 -2 7 40.56 1.82
2 -2 8 22.3 1.52
2 -2 9 9.18 1.16
2 -2 10 2.04 0.82
2 -2 11 -0.32 0.64
2 -1 -7 13.96 1.84
2 -1 -6 11.95 1.52
2 -1 -5 558.2 7.39
2 -1 -4 594.37 6.39
2 -1 -3 2499.84 10.64
2 -1 -2 660 4.88
2 -1 -1 43.7 1.71
2 -1 -1 51.59 1.55
2 -1 0 132.03 3.14
2 -1 1 454.92 6.87
2 -1 2 552.01 8.7
2 -1 3 485.87 8.86
2 -1 4 7.44 2.08
2 -1 5 39.39 3.36
2 -1 6 11.82 2.6
2 -1 7 21.51 3.22
2 -1 7 21.67 1.49
2 -1 8 21.3 1.48
2 -1 9 2.17 0.92
2 -1 10 1.54 0.77
2 -1 11 6.68 0.68
2 -1 11 1.4 0.57
2 0 -8 14.26 2.22
2 0 -7 7.68 1.55
2 0 -6 60.35 3.13
2 0 -5 284.83 5.69
2 0 -4 34.25 1.9
2 0 -3 9.63 1
2 0 -2 147.23 2.78
2 0 -1 606.81 5.06
2 0 -1 584.64 5.45
2 0 0 9999 24.75
2 0 0 9960.97 25.62
2 0 1 461.84 6.88
2 0 2 572.58 8.31
2 0 3 109.13 4.35
2 0 4 30.53 2.91
2 0 5 131.1 5.51
2 0 6 116.32 5.75
2 0 6 107.05 4.73
2 0 7 42.31 1.85
2 0 7 39.09 3.97
2 0 8 16.04 1.33
2 0 9 0.67 0.8
2 0 10 0.48 0.7
2 0 11 0.45 0.51
2 1 -13 1.46 0.66
2 1 -9 4.8 1.92
2 1 -8 16.01 2.41
2 1 -7 17.67 2.22
2 1 -6 219.42 6.03
2 1 -5 76.96 3.35
2 1 -4 73.51 2.87
2 1 -3 9.48 1.37
2 1 -2 118.61 2.07
2 1 -2 115.47 2.87
2 1 -1 7.47 0.95
2 1 -1 8.34 0.71
2 1 -1 8.15 0.88
2 1 0 830.76 7.06
2 1 0 844.14 7.5
2 1 1 653.37 7.38
2 1 1 670.28 7.29
2 1 2 302.81 6.11
2 1 3 10.86 1.8
2 1 4 50.42 3.26
2 1 5 43.5 3.45
2 1 5 41.38 2.92
2 1 6 68.12 4.58
2 1 6 65.41 3.82
2 1 7 44.07 1.85
2 1 7 47.51 4.26
2 1 8 16.37 1.29
2 1 10 2 0.72
2 1 11 0.76 0.48
2 2 -13 1.27 0.61
2 2 -9 21.35 3.1
2 2 -8 25.76 2.98
2 2 -7 24.13 2.63
2 2 -6 203.45 6.35
2 2 -5 90.65 3.85
2 2 -4 160.82 4.55
2 2 -3 8.33 1.24
2 2 -2 2.3 0.89
2 2 -2 4.05 0.79
2 2 -2 3.97 0.64
2 2 -1 584.47 6.16
2 2 -1 583.94 6.84
2 2 0 579.2 6.75
2 2 1 524.3 6.48
2 2 1 535.32 7.16
2 2 1 529.37 6.95
2 2 2 379.51 6.45
2 2 2 370.38 6.65
2 2 3 7.48 1.53
2 2 3 7.08 1.39
2 2 4 66.12 3.62
2 2 4 64.34 3.35
2 2 5 44.12 3.43
2 2 5 42.2 3.02
2 2 6 45.84 3.88
2 2 6 42.93 3.31
2 2 7 33.48 3.65
2 2 7 28.05 1.61
2 2 8 2.09 0.95
2 2 9 3.81 0.89
2 2 9 2.9 0.92
2 2 10 1.65 0.67
2 3 -13 2.35 0.55
2 3 -12 4.27 0.85
2 3 -9 15.4 2.71
2 3 -8 24.54 3.05
2 3 -7 150.16 6.27
2 3 -6 272.23 7.66
2 3 -5 153 5.39
2 3 -4 26.18 2.26
2 3 -3 33.04 2.27
2 3 -2 31.95 1.64
2 3 -2 29.6 1.96
2 3 -1 237.8 4.62
2 3 -1 233.65 4.87
2 3 0 182.66 2.48
2 3 0 186.77 4.31
2 3 0 187.69 4.24
2 3 1 433 5.35
2 3 1 416.59 6.93
2 3 1 415.03 6.42
2 3 2 106.71 3.36
2 3 2 99.95 3.79
2 3 3 61.94 3.07
2 3 3 57.12 3.18
2 3 3 59.54 2.21
2 3 4 77.17 3.86
2 3 4 72.25 3.78
2 3 5 74.08 4.23
2 3 5 73 4.1
2 3 6 46.26 3.86
2 3 6 41.54 1.91
2 3 7 22.02 1.55
2 3 7 22.12 1.56
2 3 8 3.12 0.93
2 3 8 2.42 0.99
2 3 9 5.56 0.91
2 3 9 5.38 1
2 3 10 1.36 0.63
2 3 10 0.94 0.69
2 4 -11 6.61 0.98
2 4 -8 6.24 2.07
2 4 -7 79.22 4.88
2 4 -6 82.41 4.67
2 4 -5 182.31 6.23
2 4 -4 182.29 5.67
2 4 -3 127.64 4.48
2 4 -2 204.99 4.61
2 4 -2 204.18 5.16
2 4 -1 563.75 8.19
2 4 -1 541.59 7.84
2 4 0 164.08 4.62
2 4 0 170.54 4.37
2 4 1 88.57 2.35
2 4 1 85.45 3.21
2 4 1 84.73 3.57
2 4 2 22.61 1.67
2 4 2 21.53 2.1
2 4 3 31.33 2.27
2 4 3 32.63 2.72
2 4 3 36.07 2.15
2 4 4 42 2.91
2 4 4 38.34 3.07
2 4 5 61.09 3.86
2 4 5 56.98 2.06
2 4 5 58.53 3.99
2 4 5 54.48 2
2 4 6 41.29 3.73
2 4 6 42.08 1.89
2 4 6 39.48 1.91
2 4 7 7.45 1.22
2 4 7 7.21 1.08
2 4 8 2.47 0.86
2 4 8 2.92 1.02
2 4 9 3.06 0.8
2 4 9 2.09 0.91
2 4 10 2.46 0.58
2 4 10 1.57 0.67
2 5 -8 12.12 2.54
2 5 -7 60.09 4.59
2 5 -6 25.77 3.03
2 5 -5 34.59 3.14
2 5 -4 42.83 3.19
2 5 -3 56.5 3.34
2 5 -2 338.3 7.31
2 5 -1 197.18 5.32
2 5 -1 201.41 5.49
2 5 0 150.1 4.49
2 5 0 149.47 5.01
2 5 1 171.88 4.77
2 5 2 16.03 1.79
2 5 2 15.64 2.05
2 5 3 22.62 2.52
2 5 3 22.98 2.03
2 5 4 10.26 2.12
2 5 5 11.22 1.2
2 5 5 11.64 1.37
2 5 5 11.23 1.27
2 5 6 18.42 1.45
2 5 6 18.74 1.53
2 5 7 2.03 0.86
2 5 7 1.81 1.02
2 5 8 1.19 0.78
2 5 8 1.81 0.94
2 5 9 1.67 0.66
2 5 9 -0.59 0.81
2 5 10 -0.81 0.61
2 6 -7 43.59 4.14
2 6 -6 37.1 3.67
2 6 -6 40.76 1.59
2 6 -5 24.36 2.86
2 6 -4 50.43 3.63
2 6 -3 23.19 2.45
2 6 -2 220.15 6.48
2 6 -1 139.95 4.85
2 6 -1 144.32 5.25
2 6 0 189.59 6.28
2 6 0 190.22 5.37
2 6 1 38.6 2.55
2 6 1 39.01 3.21
2 6 2 15.91 2.45
2 6 2 13.9 1.98
2 6 3 24.55 1.46
2 6 3 28.96 2.46
2 6 4 41.62 1.89
2 6 4 35.67 1.86
2 6 4 39.01 1.86
2 6 5 19.18 1.46
2 6 5 20.25 1.6
2 6 5 22.26 1.57
2 6 6 6.48 1.07
2 6 6 7.29 1.19
2 6 7 -1.02 0.84
2 6 7 -1.33 1.02
2 6 8 1.72 0.73
2 6 8 0.29 0.85
2 6 9 0.55 0.54
2 6 9 0.45 0.67
2 7 -7 22 1.38
2 7 -6 24.18 3.22
2 7 -6 28.16 1.48
2 7 -5 31.2 3.49
2 7 -5 27.7 1.48
2 7 -4 15.27 2.35
2 7 -4 14.75 1.11
2 7 -3 59.03 3.91
2 7 -2 178.49 6.2
2 7 -1 98.74 4.36
2 7 -1 100.91 4.97
2 7 0 89.03 4.87
2 7 1 22.6 2.53
2 7 1 19.35 2.75
2 7 2 42.02 1.86
2 7 2 33.87 1.76
2 7 2 41.09 3.8
2 7 2 39.96 1.73
2 7 2 43.41 3.28
2 7 3 26.56 1.6
2 7 3 23.83 1.65
2 7 3 25.77 3.3
2 7 3 26.82 1.61
2 7 4 20.08 1.51
2 7 4 19.81 1.61
2 7 4 21.57 1.55
2 7 5 18.16 1.46
2 7 5 20.27 1.56
2 7 5 22.51 1.57
2 7 6 3.37 0.94
2 7 6 3.88 1.06
2 7 6 5.67 1.14
2 7 7 2.09 0.79
2 7 7 0.8 0.88
2 7 8 1.39 0.64
2 7 8 1.06 0.76
2 8 -8 7.73 0.98
2 8 -7 6.86 0.99
2 8 -6 17.55 1.29
2 8 -5 21.96 2.92
2 8 -5 19.13 2.87
2 8 -5 25.52 1.47
2 8 -4 9.12 2.18
2 8 -4 9.97 1.13
2 8 -3 32.3 3.15
2 8 -3 36.15 1.86
2 8 -3 31.95 1.57
2 8 -2 9.11 1.13
2 8 -2 8.89 1.02
2 8 -1 25.68 2.94
2 8 -1 23.84 1.51
2 8 -1 24.25 1.53
2 8 -1 22.33 1.34
2 8 0 53.75 3.93
2 8 0 51.49 2.08
2 8 0 49.37 1.79
2 8 1 26.33 1.58
2 8 1 24.62 3.22
2 8 1 20.24 1.53
2 8 1 25.63 2.99
2 8 2 32.97 1.76
2 8 2 26.01 1.73
2 8 2 27.01 3.39
2 8 2 33.36 3.21
2 8 3 20.03 1.53
2 8 3 16.94 1.57
2 8 4 15.89 1.41
2 8 4 14.66 1.5
2 8 4 18.5 1.5
2 8 5 14.62 1.41
2 8 5 15.67 1.34
2 8 5 18.54 1.45
2 8 6 2.7 0.84
2 8 6 1.66 0.91
2 8 6 1.38 0.92
2 8 7 1.48 0.67
2 8 7 1.45 0.74
2 8 8 1.96 0.53
2 9 -8 18.41 1.15
2 9 -7 11.95 1.14
2 9 -6 5.79 1
2 9 -5 4.92 0.94
2 9 -4 8.53 1.08
2 9 -3 70.32 2.48
2 9 -3 71.46 2.26
2 9 -2 42.64 1.97
2 9 -2 43.97 1.83
2 9 -1 19.43 1.48
2 9 -1 20.19 1.35
2 9 0 -0.52 0.8
2 9 0 0.18 0.88
2 9 1 0.75 0.92
2 9 1 0.25 1.01
2 9 2 2.48 1
2 9 2 1.28 1.09
2 9 3 10.47 1.23
2 9 3 8.11 1.28
2 9 4 12.75 1.24
2 9 4 6.84 1.25
2 9 5 7.22 0.99
2 9 5 7.42 1.07
2 9 6 0.05 0.66
2 9 6 -0.02 0.7
2 9 7 0.91 0.53
2 10 -8 4.25 0.73
2 10 -7 7.35 0.9
2 10 -6 16.53 1.22
2 10 -5 12.73 1.2
2 10 -4 19.15 1.35
2 10 -3 24.71 1.47
2 10 -2 14.37 1.4
2 10 -2 17.12 1.27
2 10 -1 26.75 1.68
2 10 -1 29.45 1.53
2 10 0 16.38 1.44
2 10 0 17.2 1.19
2 10 1 10.82 1.28
2 10 1 46.35 1.91
2 10 2 2.64 0.74
2 10 2 2.24 0.92
2 10 3 -0.13 0.84
2 10 3 1.62 0.9
2 10 4 5.34 0.92
2 10 4 0.59 0.74
2 10 5 -0.77 0.7
2 10 5 28.67 1.23
2 10 6 -0.08 0.5
2 11 -8 4.21 0.57
2 11 -7 4.55 0.72
2 11 -6 3.05 0.57
2 11 -6 4.44 0.77
2 11 -5 2.09 0.73
2 11 -4 13.85 1.14
2 11 -3 14.83 1.2
2 11 -2 18.9 1.28
2 11 -1 15.92 1.35
2 11 -1 15.07 1.15
2 11 0 4.78 0.8
2 11 0 4.51 0.82
2 11 0 5.27 1.02
2 11 1 5.66 0.8
2 11 1 6.73 1.04
2 11 2 6.59 0.76
2 11 2 7.61 1.02
2 11 3 7.36 0.93
2 11 4 4.94 0.78
2 11 5 0.19 0.46
2 12 -7 1.38 0.44
2 12 -6 1.62 0.53
2 12 -5 3.08 0.55
2 12 -5 2.86 0.67
2 12 -4 12.38 0.8
2 12 -4 11.49 0.92
2 12 -3 9.63 0.8
2 12 -3 7.07 0.84
2 12 -2 7.14 0.76
2 12 -2 5.92 0.78
2 12 -1 2.85 0.66
2 12 -1 1.94 0.63
2 12 0 2 0.63
2 12 1 3.68 0.62
2 12 2 3.94 0.54
2 12 2 2.52 0.69
2 13 -4 4.24 0.48
2 13 -4 2.19 0.48
2 13 -3 1.23 0.44
2 13 -3 1.19 0.46
2 13 -2 2.31 0.48
2 13 -2 2.99 0.49
2 13 -1 1.07 0.46
2 13 0 0.86 0.42
3 -8 6 10.57 1.08
3 -8 7 8.24 0.96
3 -8 8 6.3 0.78
3 -8 9 2.37 0.56
3 -7 -6 37.23 3.81
3 -7 -5 44.22 3.82
3 -7 -4 58.35 4.06
3 -7 -3 93.89 4.88
3 -7 -2 29.03 3.19
3 -7 -1 29.78 3.23
3 -7 0 58.71 4.4
3 -7 1 131.93 6.66
3 -7 2 95.4 6.05
3 -7 3 23.93 3.76
3 -7 5 0.67 0.81
3 -7 6 0.49 0.81
3 -7 7 10.42 1.07
3 -7 8 6.48 0.9
3 -7 9 2.59 0.66
3 -6 -6 23.59 3.07
3 -6 -5 25.14 2.83
3 -6 -4 60.01 3.75
3 -6 -3 174.84 5.88
3 -6 -2 102.5 4.57
3 -6 -1 67.7 3.98
3 -6 0 191.39 6.66
3 -6 1 123.29 5.92
3 -6 2 68.06 5.07
3 -6 3 82.23 5.39
3 -6 4 112.04 6.2
3 -6 4 110.27 2.56
3 -6 4 107.48 6.1
3 -6 5 36.13 1.68
3 -6 6 1.44 0.87
3 -6 7 2.89 0.89
3 -6 8 4 0.88
3 -6 9 1.55 0.69
3 -6 10 0.64 0.5
3 -5 -4 119.77 4.77
3 -5 -3 107.07 4.25
3 -5 -2 69.23 3.48
3 -5 -1 69.14 3.6
3 -5 0 249.54 6.88
3 -5 1 117.22 5.37
3 -5 2 96.41 5.32
3 -5 3 98.75 5.66
3 -5 4 73.95 5.05
3 -5 5 28.43 3.69
3 -5 5 27.24 1.51
3 -5 6 38.67 4.23
3 -5 6 43.47 1.91
3 -5 7 31.09 1.67
3 -5 8 10.93 1.16
3 -5 9 1.1 0.72
3 -5 10 0.83 0.56
3 -4 -3 30.51 2.34
3 -4 -2 36.38 2.37
3 -4 -1 126.1 4.25
3 -4 0 351.21 7.45
3 -4 1 191.23 6.21
3 -4 2 56.3 3.99
3 -4 3 68.15 4.6
3 -4 4 67.43 4.63
3 -4 5 21.09 3.36
3 -4 5 23.46 1.42
3 -4 6 35.14 3.96
3 -4 6 34.26 1.73
3 -4 7 26.7 1.6
3 -4 8 16.53 1.38
3 -4 9 4.29 0.9
3 -4 10 2.3 0.66
3 -3 -3 86.2 3.29
3 -3 -2 82.3 3.1
3 -3 -1 370.94 6.52
3 -3 0 59.59 3.06
3 -3 1 22.74 2.48
3 -3 2 37.13 3.28
3 -3 3 135.55 5.84
3 -3 4 38.7 3.6
3 -3 5 11.59 2.82
3 -3 6 45.01 4.33
3 -3 6 40.52 1.82
3 -3 7 32.89 1.75
3 -3 8 12.11 1.27
3 -3 9 3.46 0.91
3 -3 10 1.47 0.69
3 -2 -4 179.31 3.02
3 -2 -3 15.13 0.92
3 -2 -2 121.51 3.44
3 -2 -2 105.46 2.32
3 -2 -1 532.32 7.19
3 -2 0 741.67 9.31
3 -2 1 181.82 5.48
3 -2 2 46.05 3.39
3 -2 3 23.36 2.81
3 -2 4 1.67 1.94
3 -2 5 29.92 3.5
3 -2 6 34.56 3.86
3 -2 6 36.85 1.74
3 -2 7 22.58 1.55
3 -2 8 8.89 1.2
3 -2 9 4.43 0.94
3 -2 10 0.65 0.69
3 -1 -6 15.94 1.62
3 -1 -5 298.77 5.28
3 -1 -4 325.52 4.89
3 -1 -3 225.26 3.8
3 -1 -2 383.1 5.45
3 -1 -2 376.49 4.91
3 -1 -1 605.5 7.12
3 -1 -1 581.61 6.69
3 -1 0 750.44 8.95
3 -1 1 116.84 4.35
3 -1 2 204.17 6.15
3 -1 3 333.35 8.23
3 -1 4 20.86 2.89
3 -1 5 34.66 3.64
3 -1 6 21.13 1.45
3 -1 6 20.19 3.3
3 -1 7 14.28 1.36
3 -1 8 4.77 1.02
3 -1 9 1.1 0.82
3 -1 10 3.35 0.71
3 0 -7 14.46 1.86
3 0 -6 69.63 3.29
3 0 -5 177.76 4.54
3 0 -4 50.88 2.26
3 0 -3 42.46 1.25
3 0 -3 38.67 1.87
3 0 -2 546.52 6.06
3 0 -2 544.41 6.4
3 0 -1 280.37 4.63
3 0 -1 281.55 4.83
3 0 0 701.32 8.6
3 0 0 744.29 8.27
3 0 1 142.15 4.63
3 0 2 130.56 4.71
3 0 3 81.25 4.3
3 0 4 53.29 3.84
3 0 5 84.03 4.98
3 0 6 58.66 4.63
3 0 6 54.99 2.04
3 0 6 55.68 4.01
3 0 7 14.72 1.37
3 0 8 4.47 0.97
3 0 9 1.44 0.78
3 0 10 0.93 0.63
3 0 10 1.66 0.61
3 1 -8 19.59 2.51
3 1 -7 19.68 2.27
3 1 -6 145.62 4.99
3 1 -5 50.63 2.78
3 1 -4 98.96 3.39
3 1 -3 222.07 3.19
3 1 -3 224.75 4.73
3 1 -2 513.56 6.81
3 1 -2 521.1 5.8
3 1 -2 504.96 5.33
3 1 -1 1054.2 8.37
3 1 -1 1056.82 9.71
3 1 0 46.2 2.45
3 1 0 51.85 2.55
3 1 1 96.21 3.51
3 1 2 143 4.88
3 1 3 1.56 1.63
3 1 4 67.47 4.12
3 1 5 43.7 3.76
3 1 5 42.95 3.36
3 1 6 32.81 3.7
3 1 6 30.57 1.64
3 1 6 28.64 3.14
3 1 7 13.32 1.28
3 1 8 3.01 0.88
3 1 9 2 0.81
3 1 10 0.52 0.58
3 2 -13 3.03 0.74
3 2 -9 33.94 3.57
3 2 -8 30.72 3.11
3 2 -7 16.15 2.3
3 2 -6 135.02 5.16
3 2 -5 54.28 3.1
3 2 -4 42.33 2.53
3 2 -3 114.4 2.43
3 2 -3 113.8 3.75
3 2 -2 398.39 6.63
3 2 -2 390.06 3.94
3 2 -2 394.27 5.61
3 2 -1 493.3 7.25
3 2 -1 482.72 6.82
3 2 0 251.7 4.27
3 2 0 245.11 5.25
3 2 1 135.23 4.14
3 2 1 140.96 4.2
3 2 1 130.31 4.31
3 2 2 244.6 6.02
3 2 2 225.83 6.11
3 2 3 12.87 1.99
3 2 3 12 1.83
3 2 4 68.62 4.07
3 2 4 61.65 3.73
3 2 5 54.52 4.11
3 2 5 53.87 3.83
3 2 6 24.09 3.33
3 2 6 22.78 1.47
3 2 6 23.2 2.99
3 2 8 2.89 0.9
3 2 9 2.82 0.8
3 2 10 0.25 0.52
3 3 -9 19.91 3.05
3 3 -8 26.82 3.11
3 3 -7 105.48 5.35
3 3 -6 155.74 5.88
3 3 -5 71.39 3.79
3 3 -4 63.15 3.37
3 3 -3 339.47 6.92
3 3 -2 67.22 3.1
3 3 -2 59.96 2.59
3 3 -2 63.19 2.36
3 3 -1 18.11 1.78
3 3 -1 17.38 1.64
3 3 0 18.88 1.8
3 3 0 21.83 1.39
3 3 0 20.38 1.88
3 3 1 192.04 4.36
3 3 1 175.94 5.24
3 3 1 182.31 5.03
3 3 2 152.97 4.51
3 3 2 138.11 5.04
3 3 3 66.77 3.52
3 3 3 60.94 3.64
3 3 4 52.82 3.58
3 3 4 51.41 3.64
3 3 5 38.36 3.47
3 3 5 37.85 3.44
3 3 5 32.53 1.6
3 3 6 18.03 2.91
3 3 6 17.17 1.47
3 3 6 17.74 1.42
3 3 7 11.3 1.25
3 3 7 9.36 1.15
3 3 8 8.15 1.07
3 3 8 7.14 1.03
3 3 9 4.86 0.82
3 3 10 1.06 0.5
3 4 -8 6.55 2.01
3 4 -7 62.13 4.4
3 4 -6 64.24 4.16
3 4 -5 106.41 4.89
3 4 -4 73.89 3.88
3 4 -3 191.18 5.75
3 4 -2 155.17 4.96
3 4 -2 155.59 4.17
3 4 -1 138.37 4.62
3 4 -1 133.87 4.44
3 4 0 57.46 3.16
3 4 0 57.85 3.06
3 4 1 37.44 2.77
3 4 1 40.93 2.65
3 4 2 1.28 1.18
3 4 3 31.77 3.09
3 4 4 31.38 1.63
3 4 4 33.1 3.18
3 4 5 26.57 1.62
3 4 5 26.1 3.2
3 4 5 23.53 1.53
3 4 6 10.61 1.24
3 4 6 9.81 1.23
3 4 7 1.64 0.86
3 4 7 1.55 0.91
3 4 8 1.9 0.81
3 4 8 1.29 0.84
3 4 9 1.95 0.67
3 4 9 1.02 0.68
3 5 -8 8.64 2.37
3 5 -7 45.24 4.08
3 5 -6 33.48 3.33
3 5 -5 32.95 3.11
3 5 -4 101.58 4.85
3 5 -3 183.37 6.11
3 5 -2 143.8 5.21
3 5 -2 139.89 4.61
3 5 -1 39.76 2.79
3 5 -1 37.98 2.7
3 5 0 76.82 3.71
3 5 0 81.63 4.1
3 5 1 104.22 4.85
3 5 1 100.04 4.19
3 5 2 19.33 2.49
3 5 3 22.48 1.44
3 5 3 22.8 2.78
3 5 4 11.56 1.24
3 5 4 9.8 1.19
3 5 5 8.25 1.17
3 5 5 7.41 1.18
3 5 6 5.61 1.05
3 5 6 6.06 1.11
3 5 7 1.33 0.82
3 5 7 -0.06 0.92
3 5 8 2.42 0.76
3 5 8 1.67 0.79
3 5 9 -0.02 0.51
3 6 -7 27.6 3.38
3 6 -7 31.37 1.47
3 6 -6 30.57 3.45
3 6 -6 28.92 1.43
3 6 -5 54.27 4.16
3 6 -4 119.67 5.62
3 6 -3 80.8 4.46
3 6 -2 84.72 4.38
3 6 -2 81.02 4
3 6 -1 73.98 4.01
3 6 -1 74.99 3.92
3 6 0 117.66 4.76
3 6 0 118.68 5.3
3 6 1 36.77 2.75
3 6 1 37.23 3.39
3 6 2 18.19 1.39
3 6 2 17.27 1.37
3 6 2 18.15 1.35
3 6 2 21.24 2.36
3 6 3 26.21 1.62
3 6 3 20.83 1.5
3 6 3 23.77 1.51
3 6 4 20.87 1.56
3 6 4 17.35 1.45
3 6 4 18.61 1.48
3 6 5 8.5 1.2
3 6 5 10.12 1.27
3 6 6 2.62 0.92
3 6 6 3.54 1.02
3 6 7 0.66 0.75
3 6 7 -0.11 0.85
3 6 8 0.57 0.63
3 6 9 0.14 0.42
3 7 -7 20.21 1.33
3 7 -6 8.58 2.31
3 7 -6 10.02 1.07
3 7 -5 6.86 0.99
3 7 -5 7.28 2.14
3 7 -4 18.06 1.32
3 7 -4 19.09 1.27
3 7 -4 16.87 2.64
3 7 -3 62.03 2.15
3 7 -3 61.13 4.22
3 7 -3 64.45 1.98
3 7 -2 101.95 2.61
3 7 -2 95.32 4.87
3 7 -2 99.34 2.4
3 7 -1 75 2.31
3 7 -1 67.02 4.27
3 7 -1 83.45 2.41
3 7 -1 70.02 4.05
3 7 -1 76.72 2.1
3 7 0 80.46 2.42
3 7 0 77.12 4.79
3 7 1 22.39 2.71
3 7 1 19.77 1.46
3 7 1 16.77 1.35
3 7 1 17.17 2.73
3 7 2 29.44 1.72
3 7 2 24.27 1.55
3 7 2 28.49 3.44
3 7 3 23.92 1.62
3 7 3 16.69 1.49
3 7 4 15.03 1.4
3 7 4 10.83 1.24
3 7 4 14.12 1.41
3 7 5 8.86 1.19
3 7 5 6.71 1.04
3 7 5 9.17 1.22
3 7 6 2.13 0.85
3 7 7 1.9 0.71
3 7 8 1.07 0.52
3 8 -8 7.27 0.95
3 8 -7 9.2 1.06
3 8 -6 16.73 1.3
3 8 -5 35.67 1.69
3 8 -4 18.06 2.72
3 8 -4 20.22 1.36
3 8 -3 3.68 0.93
3 8 -3 2.59 1.6
3 8 -3 4.17 1.04
3 8 -2 0.37 0.78
3 8 -2 0.61 0.84
3 8 -1 10.84 1.25
3 8 -1 9.67 1.06
3 8 0 45.61 3.69
3 8 0 42.04 1.95
3 8 0 33.46 3.61
3 8 0 37.26 1.86
3 8 0 40.02 1.66
3 8 1 17.28 1.43
3 8 1 14.11 1.37
3 8 2 21.05 1.53
3 8 2 14.69 1.35
3 8 3 14.9 1.39
3 8 3 10.59 1.29
3 8 4 7.88 1.15
3 8 4 6 1.06
3 8 5 5.45 0.98
3 8 5 5.83 0.94
3 8 6 2.53 0.77
3 8 7 1.75 0.6
3 9 -8 15.59 1.08
3 9 -7 10.1 1.06
3 9 -6 9.37 1.11
3 9 -5 15.77 1.27
3 9 -4 17.04 1.31
3 9 -3 39.86 1.94
3 9 -3 38.5 1.74
3 9 -2 24.27 1.65
3 9 -2 25.38 1.5
3 9 -1 12.54 1.33
3 9 -1 13.91 1.18
3 9 0 0.03 0.77
3 9 0 -0.64 0.96
3 9 1 -1.48 1
3 9 1 46.21 2.01
3 9 2 1.78 0.92
3 9 2 17.27 1.41
3 9 3 5.49 1.05
3 9 3 17 1.29
3 9 4 3.66 0.9
3 9 4 47.24 1.66
3 9 5 1.35 0.7
3 9 6 -0.07 0.55
3 10 -8 5.5 0.75
3 10 -7 4.58 0.82
3 10 -6 9.36 1.05
3 10 -5 14.31 1.2
3 10 -4 19.91 1.35
3 10 -3 16.98 1.28
3 10 -2 15.78 1.39
3 10 -2 14.56 1.23
3 10 -1 26.2 1.65
3 10 -1 24.38 1.38
3 10 0 11.58 1.27
3 10 0 12.55 1.05
3 10 1 7.51 1.13
3 10 2 2.87 0.91
3 10 3 0.58 0.77
3 10 4 0.44 0.67
3 10 5 -0.59 0.56
3 11 -8 2.38 0.54
3 11 -7 4.4 0.68
3 11 -6 6.41 0.81
3 11 -5 4.73 0.82
3 11 -4 5.83 0.88
3 11 -3 6.39 0.93
3 11 -2 12.37 1.07
3 11 -1 12.61 1.2
3 11 -1 11.9 0.99
3 11 0 4.03 0.72
3 11 0 4.34 0.92
3 11 1 3.25 0.65
3 11 1 4.4 0.89
3 11 2 4.25 0.85
3 11 3 4 0.73
3 11 4 3.38 0.59
3 12 -6 1.5 0.49
3 12 -5 1.59 0.5
3 12 -5 0.51 0.54
3 12 -4 4.47 0.71
3 12 -4 5.95 0.64
3 12 -3 6.13 0.67
3 12 -3 4.83 0.73
3 12 -2 4.5 0.68
3 12 -2 6.04 0.69
3 12 -1 3.25 0.61
3 12 -1 2.98 0.59
3 12 0 1.86 0.52
3 12 1 2.07 0.46
3 13 -3 0.82 0.36
3 13 -2 1.66 0.38
4 -8 -4 9.98 2.71
4 -8 -3 36.94 3.97
4 -8 -2 52.71 4.78
4 -8 -1 46 4.79
4 -8 0 5.43 3.15
4 -8 6 5.9 0.89
4 -8 7 3.15 0.71
4 -8 8 1.06 0.54
4 -7 -6 24.89 3.3
4 -7 -5 40.11 3.8
4 -7 -4 35.67 3.55
4 -7 -3 64.76 4.56
4 -7 -2 60.62 4.63
4 -7 -1 32.87 3.75
4 -7 0 68.71 5.37
4 -7 1 117.08 7.02
4 -7 2 38.18 4.79
4 -7 3 7.9 3.24
4 -7 5 3.9 0.95
4 -7 6 3.76 0.9
4 -7 7 4.04 0.83
4 -7 8 2.16 0.66
4 -7 9 1.52 0.47
4 -6 -7 14.38 2.86
4 -6 -6 17.5 2.78
4 -6 -5 27.89 3.05
4 -6 -4 58.28 3.93
4 -6 -3 76.75 4.41
4 -6 -2 85.2 4.76
4 -6 -1 38.51 3.66
4 -6 0 156.59 6.91
4 -6 1 68.36 5.23
4 -6 2 41.98 4.69
4 -6 3 68.91 5.62
4 -6 4 63.42 5.3
4 -6 4 57.43 5.22
4 -6 4 60.32 2.13
4 -6 5 16.27 1.33
4 -6 6 3.49 0.92
4 -6 7 2.17 0.83
4 -6 8 2.86 0.77
4 -6 9 0.2 0.54
4 -5 -7 21.07 3.26
4 -5 -6 16.55 2.6
4 -5 -5 15.44 2.3
4 -5 -4 59.01 3.62
4 -5 -3 83.73 4.23
4 -5 -2 118.5 4.99
4 -5 -1 53.31 3.75
4 -5 0 125.71 5.69
4 -5 1 62.4 4.73
4 -5 2 61.11 5.04
4 -5 3 66.93 5.25
4 -5 4 57.08 4.97
4 -5 4 55.27 1.99
4 -5 4 55.77 5.06
4 -5 5 22.31 3.81
4 -5 5 27.51 1.6
4 -5 6 18.48 1.43
4 -5 7 9.04 1.1
4 -5 8 4.84 0.87
4 -5 9 1.33 0.63
4 -5 10 1.02 0.4
4 -4 -5 36.15 2.99
4 -4 -4 73.92 3.72
4 -4 -3 54.99 3.21
4 -4 -2 1.36 1.3
4 -4 -1 42.43 3.09
4 -4 0 132.49 5.41
4 -4 1 89.16 5.05
4 -4 2 31.81 3.69
4 -4 3 63.2 4.91
4 -4 4 79.48 5.62
4 -4 4 78.31 5.57
4 -4 4 81.79 2.35
4 -4 5 18.9 3.54
4 -4 5 20.59 1.41
4 -4 6 15.75 1.39
4 -4 7 10.8 1.23
4 -4 8 4.85 0.91
4 -4 9 1.67 0.67
4 -4 10 1.35 0.48
4 -3 -4 97.59 3.96
4 -3 -3 276.37 6.21
4 -3 -2 36.57 2.54
4 -3 -1 199.57 5.69
4 -3 0 10.75 2.03
4 -3 1 2.35 1.97
4 -3 2 48.92 4.14
4 -3 3 81.88 5.25
4 -3 4 41.01 4.11
4 -3 4 42.3 4.24
4 -3 5 13.79 3.22
4 -3 5 17.81 1.37
4 -3 6 14.86 1.37
4 -3 7 16.84 1.41
4 -3 8 4.34 0.98
4 -3 9 1.71 0.72
4 -3 10 1.07 0.5
4 -2 -4 138.23 4.4
4 -2 -4 143.63 3.25
4 -2 -3 178.15 4.73
4 -2 -3 183 3.73
4 -2 -2 68.33 3.1
4 -2 -1 420.54 7.69
4 -2 0 188.34 5.73
4 -2 1 80.18 4.38
4 -2 2 69.75 4.52
4 -2 3 54.25 4.17
4 -2 4 7.6 2.67
4 -2 5 14.07 3.18
4 -2 5 16.48 1.31
4 -2 6 10.4 1.23
4 -2 7 12.01 1.31
4 -2 8 4.61 0.98
4 -2 9 3.11 0.78
4 -2 10 2.23 0.56
4 -2 10 1.88 0.54
4 -1 -6 27.09 1.98
4 -1 -5 154.4 4.05
4 -1 -4 294.97 5.27
4 -1 -3 81.96 3.11
4 -1 -3 86.12 2.85
4 -1 -2 178.06 4.5
4 -1 -2 189.35 4.28
4 -1 -1 157.53 4.65
4 -1 -1 162.27 4.2
4 -1 0 36.82 2.82
4 -1 1 136.45 5.4
4 -1 2 285.53 8.21
4 -1 3 191.43 7.01
4 -1 4 13.72 2.88
4 -1 5 12.89 2.95
4 -1 5 11.65 1.18
4 -1 6 13.33 1.33
4 -1 7 7.42 1.15
4 -1 8 1.42 0.87
4 -1 9 2.69 0.74
4 -1 10 1.38 0.53
4 -1 10 0.46 0.47
4 0 -7 16.42 1.96
4 0 -6 81.66 3.56
4 0 -5 149.08 4.35
4 0 -4 226.45 4.95
4 0 -4 231.88 5.11
4 0 -3 36.2 2.04
4 0 -3 38.11 2.13
4 0 -2 347.35 5.85
4 0 -2 347.43 6.03
4 0 -1 122.89 3.91
4 0 -1 125.47 3.93
4 0 0 529.8 9.11
4 0 1 93.84 4.39
4 0 2 208.32 6.51
4 0 3 64.03 4.37
4 0 4 25.6 3.34
4 0 5 15.53 3
4 0 5 16.23 1.35
4 0 6 17.82 1.41
4 0 6 15.92 2.9
4 0 7 5.57 1.05
4 0 8 3.01 0.86
4 0 9 1.49 0.73
4 0 9 2.09 0.68
4 0 10 0.45 0.47
4 1 -8 16.42 2.32
4 1 -7 10.22 1.82
4 1 -6 53.16 3.15
4 1 -5 107.2 4.05
4 1 -4 184.33 4.23
4 1 -4 184.13 4.94
4 1 -3 168.79 3.94
4 1 -3 174.12 4.77
4 1 -3 176.1 3.75
4 1 -2 300.11 5.28
4 1 -2 308.77 5.65
4 1 -2 310.02 6.1
4 1 -1 30.89 2.23
4 1 -1 31.94 2.21
4 1 0 146.97 4.66
4 1 0 152.7 4.65
4 1 1 172.64 5.28
4 1 2 191.28 6.36
4 1 3 56.68 3.95
4 1 4 24.7 3.15
4 1 4 24.3 2.78
4 1 5 15.87 2.97
4 1 5 14.02 1.28
4 1 5 16.76 2.66
4 1 6 13.39 1.31
4 1 7 3.42 0.92
4 1 8 0.47 0.79
4 1 8 1.11 0.74
4 1 9 0.68 0.67
4 1 10 0.28 0.43
4 2 -9 27.59 3.3
4 2 -8 20.5 2.66
4 2 -7 20.17 2.46
4 2 -6 84.02 4.17
4 2 -5 95.77 4.13
4 2 -4 1.61 0.78
4 2 -4 1.2 1.12
4 2 -3 34.95 2.44
4 2 -3 35.88 1.7
4 2 -3 36.08 1.94
4 2 -2 187.86 3.83
4 2 -2 191.29 5.22
4 2 -2 190.09 4.72
4 2 -1 168.24 4.06
4 2 -1 169.85 4.84
4 2 -1 179.98 5.09
4 2 0 178.96 4.37
4 2 0 183.76 5.36
4 2 1 253.83 6.34
4 2 1 242.35 6.63
4 2 2 141.36 5.23
4 2 2 136.28 5.44
4 2 3 26.34 2.88
4 2 3 26.19 2.75
4 2 4 29.98 3.26
4 2 4 28.05 3.11
4 2 5 42.51 3.99
4 2 5 37.35 1.75
4 2 5 39.05 3.72
4 2 6 22.85 1.46
4 2 7 7.3 1.12
4 2 7 7.23 1.02
4 2 8 3.35 0.88
4 2 9 1.52 0.65
4 2 9 1.3 0.57
4 3 -9 15.2 2.68
4 3 -8 21.16 2.9
4 3 -7 60.97 4.18
4 3 -6 88.98 4.59
4 3 -5 115 4.92
4 3 -4 45.74 3.07
4 3 -3 110.7 4.4
4 3 -3 111.19 3.66
4 3 -2 23.16 2.2
4 3 -2 21.21 1.88
4 3 -1 4.31 1.34
4 3 -1 4.73 1.24
4 3 0 44.58 2.97
4 3 0 47.39 3
4 3 1 156.25 5.64
4 3 2 77.97 3.79
4 3 2 69.51 4.11
4 3 3 22.19 2.56
4 3 3 19.03 2.6
4 3 4 8.46 2.2
4 3 4 9.79 1.2
4 3 4 8.93 2.16
4 3 4 7.22 1.03
4 3 4 7.08 1.07
4 3 5 12.89 1.33
4 3 5 11.71 2.48
4 3 5 10.63 1.2
4 3 6 10.61 1.29
4 3 7 8.16 1.09
4 3 8 7.31 0.96
4 3 9 2.66 0.64
4 4 -8 7.62 2.1
4 4 -7 47.13 3.95
4 4 -6 87.55 4.92
4 4 -5 78.07 4.48
4 4 -4 40.97 3.19
4 4 -3 86.24 4.23
4 4 -2 104.22 4.52
4 4 -2 99.61 4.1
4 4 -2 98.95 3.63
4 4 -1 56.81 3.35
4 4 -1 56.71 3.38
4 4 0 52 3.38
4 4 0 58.43 3.45
4 4 1 56.59 3.75
4 4 2 3.29 1.55
4 4 3 12.68 1.32
4 4 3 14.39 2.46
4 4 3 15.11 1.24
4 4 4 11.38 1.27
4 4 4 12.92 2.55
4 4 4 8.56 1.15
4 4 4 11.17 1.13
4 4 5 8.68 1.18
4 4 5 7.62 1.11
4 4 6 2.58 0.95
4 4 6 2.67 0.93
4 4 7 0.66 0.79
4 4 7 0.33 0.78
4 4 8 1.39 0.7
4 4 9 0.38 0.48
4 5 -7 59.96 4.61
4 5 -6 67.56 4.67
4 5 -6 65.79 1.91
4 5 -5 29.95 3.16
4 5 -4 78.85 4.59
4 5 -3 131.03 5.55
4 5 -2 64.1 3.87
4 5 -1 44.37 3.04
4 5 -1 48.2 3.31
4 5 0 72.94 4.3
4 5 0 71.23 4.03
4 5 1 75.51 4.59
4 5 2 12.53 1.24
4 5 2 11.54 2.34
4 5 2 7.87 1.08
4 5 2 9.14 1.09
4 5 3 8.26 1.13
4 5 3 8.77 2.22
4 5 3 6.83 1.11
4 5 4 9.14 1.21
4 5 4 8.78 1.18
4 5 5 4.8 1.05
4 5 5 5.41 1.04
4 5 6 1.64 0.84
4 5 6 1.46 0.85
4 5 7 1.94 0.76
4 5 8 0.72 0.58
4 6 -7 13.63 1.14
4 6 -6 35.84 1.58
4 6 -6 32.01 3.57
4 6 -5 46.34 1.74
4 6 -5 45.07 3.95
4 6 -4 114.53 5.77
4 6 -3 74.06 4.6
4 6 -2 44.85 3.49
4 6 -1 62.78 3.97
4 6 -1 59.43 3.84
4 6 0 84.74 4.87
4 6 0 84.4 4.55
4 6 0 89.18 2.55
4 6 1 40.4 1.89
4 6 1 31.64 1.6
4 6 1 36.41 3.55
4 6 2 11.81 1.29
4 6 2 9.74 1.11
4 6 3 7.18 1.17
4 6 3 5.68 0.99
4 6 4 10.92 1.27
4 6 5 3.75 0.99
4 6 6 1.69 0.81
4 6 7 1.68 0.7
4 6 8 0.38 0.48
4 7 -8 19.14 1.22
4 7 -7 17.49 1.26
4 7 -6 2.4 0.88
4 7 -5 0.98 0.8
4 7 -5 0.61 1.51
4 7 -4 8.08 1.1
4 7 -4 9.09 1.06
4 7 -4 9.88 2.23
4 7 -3 34.77 1.75
4 7 -3 35.17 3.44
4 7 -3 37.51 1.64
4 7 -2 55.58 2.08
4 7 -2 54.33 3.96
4 7 -1 52.79 3.89
4 7 -1 60.16 2.21
4 7 0 55.7 2.17
4 7 0 48.24 4.09
4 7 1 16.35 2.62
4 7 1 16.78 1.46
4 7 2 12.22 1.32
4 7 2 34.28 1.63
4 7 3 12.43 1.34
4 7 3 33.21 1.56
4 7 4 9.4 1.21
4 7 5 3.96 0.93
4 7 6 1.68 0.74
4 7 7 1.13 0.57
4 8 -8 9.7 0.99
4 8 -7 14.49 1.16
4 8 -6 13.54 1.2
4 8 -5 24.51 1.47
4 8 -4 14.74 1.33
4 8 -4 13.99 1.27
4 8 -3 0.39 0.83
4 8 -3 0.98 0.88
4 8 -2 -0.59 0.86
4 8 -2 -0.04 0.92
4 8 -1 9.71 1.21
4 8 -1 8.4 1.04
4 8 0 21.18 1.53
4 8 0 23.28 1.35
4 8 1 9.41 1.23
4 8 2 5.6 1.08
4 8 3 4.91 1.04
4 8 4 2.56 0.87
4 8 5 2.1 0.76
4 8 6 1.07 0.59
4 9 -8 9.03 0.92
4 9 -7 11.45 1.09
4 9 -6 9.48 1.09
4 9 -5 16.05 1.28
4 9 -4 17.98 1.35
4 9 -3 21.24 1.5
4 9 -3 20.07 1.4
4 9 -2 14.93 1.36
4 9 -2 17.09 1.26
4 9 -1 11.91 1.27
4 9 -1 12.21 1.12
4 9 0 2.72 0.82
4 9 0 1.06 0.9
4 9 1 -0.49 0.92
4 9 2 1.11 0.84
4 9 3 3.25 0.88
4 9 4 0.44 0.68
4 9 5 0.12 0.56
4 9 6 0.08 0.41
4 10 -8 4.66 0.68
4 10 -7 3.26 0.75
4 10 -6 5.12 0.85
4 10 -5 11.94 1.08
4 10 -4 14.06 1.18
4 10 -3 12.28 1.13
4 10 -2 13.56 1.28
4 10 -2 12.29 1.1
4 10 -1 15.85 1.33
4 10 -1 15.2 1.12
4 10 0 6.31 1.04
4 10 0 7.02 0.83
4 10 1 1.62 0.59
4 10 1 3.37 0.89
4 10 2 1.91 0.8
4 10 3 1.73 0.7
4 10 4 0.85 0.56
4 11 -7 1.03 0.54
4 11 -6 5.02 0.74
4 11 -5 4.56 0.78
4 11 -4 3.06 0.75
4 11 -3 3.35 0.77
4 11 -2 7.55 0.85
4 11 -1 6.3 0.91
4 11 -1 6.54 0.77
4 11 0 1.1 0.53
4 11 0 1.85 0.76
4 11 1 0.81 0.65
4 11 2 1.31 0.6
4 11 3 1.16 0.5
4 12 -6 0.76 0.4
4 12 -5 1.09 0.42
4 12 -5 -0.16 0.48
4 12 -4 1.88 0.54
4 12 -4 3.03 0.5
4 12 -3 2.85 0.57
4 12 -3 3.5 0.53
4 12 -2 9.52 0.62
4 12 -2 4.17 0.57
4 12 -1 2.95 0.49
5 -8 -3 40.94 4.43
5 -8 -2 32.75 4.43
5 -8 -1 28.56 4.55
5 -8 0 -1.04 3.19
5 -7 -5 37.21 3.95
5 -7 -4 28.48 3.6
5 -7 -3 50.25 4.51
5 -7 -2 38.17 4.2
5 -7 -1 19.68 3.68
5 -7 0 39.18 4.86
5 -7 1 62.95 5.93
5 -7 2 26.34 4.46
5 -7 5 3.4 0.89
5 -7 6 1.86 0.75
5 -7 7 2.07 0.67
5 -7 8 1.27 0.47
5 -6 -6 13.07 2.54
5 -6 -5 49.4 4.12
5 -6 -4 52.94 4.18
5 -6 -3 38.03 3.67
5 -6 -2 40.25 3.92
5 -6 -1 12.51 2.99
5 -6 0 79.17 5.85
5 -6 1 53.71 5.32
5 -6 2 48.9 5.39
5 -6 3 47.89 5.21
5 -6 4 12.47 1.23
5 -6 5 5.17 0.99
5 -6 6 2.58 0.84
5 -6 7 2.47 0.75
5 -6 8 4.17 0.65
5 -5 -7 4.75 2.08
5 -5 -6 18.66 2.73
5 -5 -5 20.71 2.72
5 -5 -4 40.68 3.41
5 -5 -3 36.31 3.31
5 -5 -2 56.05 4.06
5 -5 -1 6.6 2.29
5 -5 0 102.22 6.07
5 -5 1 73.12 5.65
5 -5 2 62.26 5.79
5 -5 3 31.32 4.36
5 -5 3 29.89 1.61
5 -5 4 14.22 1.31
5 -5 5 7.9 1.15
5 -5 6 5.49 0.99
5 -5 7 3.71 0.83
5 -5 8 4.12 0.72
5 -5 9 0.97 0.43
5 -4 -8 6.02 2.29
5 -4 -7 3.79 1.91
5 -4 -6 73.63 4.52
5 -4 -5 62.67 3.92
5 -4 -4 64.33 3.84
5 -4 -3 11.79 2.08
5 -4 -2 2.69 1.7
5 -4 -1 20.34 2.76
5 -4 0 127.57 6.2
5 -4 1 51.39 4.66
5 -4 2 69.14 5.56
5 -4 3 29.56 4.1
5 -4 3 27.08 1.53
5 -4 4 20.37 3.64
5 -4 4 21.52 3.88
5 -4 4 20.1 1.45
5 -4 5 8.56 1.14
5 -4 6 8.49 1.16
5 -4 7 9.03 1.02
5 -4 8 2.4 0.72
5 -4 9 0.23 0.46
5 -3 -7 15.92 2.53
5 -3 -6 50.21 3.64
5 -3 -5 103.05 4.6
5 -3 -4 88.09 4.11
5 -3 -3 132.21 4.97
5 -3 -2 11.14 2.12
5 -3 -1 96.84 4.77
5 -3 0 25.53 3.21
5 -3 1 50.54 4.43
5 -3 2 47.52 4.6
5 -3 3 17.67 3.36
5 -3 3 16 1.26
5 -3 4 9.96 3.18
5 -3 4 9.02 1.12
5 -3 5 14.68 1.35
5 -3 6 13.46 1.29
5 -3 7 12.4 1.18
5 -3 8 2.86 0.77
5 -3 9 0.18 0.5
5 -2 -6 62.42 3.75
5 -2 -5 104.58 4.41
5 -2 -4 51.4 3.09
5 -2 -3 70.59 2.81
5 -2 -3 67.53 3.47
5 -2 -2 28.73 2.62
5 -2 -1 332.38 8.12
5 -2 0 209.82 7.16
5 -2 1 115.14 5.97
5 -2 2 16.21 3.07
5 -2 3 11.97 2.99
5 -2 4 10.67 3.12
5 -2 4 7.09 1.06
5 -2 5 12.08 1.29
5 -2 6 8.39 1.17
5 -2 7 10.43 1.17
5 -2 8 3.14 0.78
5 -2 9 1.98 0.59
5 -2 9 1.38 0.57
5 -1 -6 61.2 3.59
5 -1 -5 70.32 3.49
5 -1 -5 72.7 3.08
5 -1 -4 58.79 3.1
5 -1 -4 58.36 2.75
5 -1 -3 3.94 1.36
5 -1 -3 4.28 1.11
5 -1 -2 54.45 3.18
5 -1 -2 43.9 2.52
5 -1 -1 241.38 6.74
5 -1 0 225.03 7.19
5 -1 1 123.38 5.93
5 -1 2 32.56 3.59
5 -1 3 23.32 3.42
5 -1 3 20.14 3.47
5 -1 4 8.49 2.88
5 -1 4 8.02 1.08
5 -1 5 10.6 1.22
5 -1 6 13.28 1.32
5 -1 7 5.58 0.99
5 -1 8 -0.39 0.71
5 -1 9 1.46 0.57
5 0 -6 167.02 5.33
5 0 -6 160.15 5.27
5 0 -5 86.2 3.67
5 0 -5 92.22 3.75
5 0 -4 120.91 4.08
5 0 -4 118.04 4.06
5 0 -3 2.11 1.19
5 0 -3 2.91 1.11
5 0 -2 154.03 4.85
5 0 -2 145.83 4.59
5 0 -1 114.42 4.68
5 0 -1 115.9 4.28
5 0 0 16.29 2.54
5 0 1 100.88 5.13
5 0 2 18.58 2.8
5 0 3 11.27 2.79
5 0 4 18.36 3.27
5 0 4 13.23 1.23
5 0 5 8 1.15
5 0 6 10.6 1.22
5 0 7 2.62 0.86
5 0 8 0.14 0.67
5 0 8 -0.53 0.67
5 0 9 0.28 0.51
5 0 9 0.46 0.46
5 1 -8 23.04 2.7
5 1 -7 19.6 2.35
5 1 -6 47.06 2.93
5 1 -6 45.57 3.15
5 1 -5 57.09 2.89
5 1 -5 58.11 3.28
5 1 -4 106.25 3.65
5 1 -4 104.17 4.1
5 1 -3 67.51 3.06
5 1 -3 59.6 2.77
5 1 -3 62.35 3.29
5 1 -2 313.81 6.93
5 1 -2 321.14 6.64
5 1 -2 305.41 6.68
5 1 -1 281.35 6.84
5 1 -1 301.45 7.09
5 1 0 71.07 3.85
5 1 1 68.19 3.91
5 1 2 65.93 4.4
5 1 3 22.01 3.14
5 1 3 21.19 1.39
5 1 3 26.42 3.08
5 1 4 28.55 3.59
5 1 4 27.58 1.6
5 1 4 31.59 3.47
5 1 5 14.93 1.37
5 1 6 10.48 1.18
5 1 7 0.92 0.81
5 1 7 0.78 0.74
5 1 8 -0.23 0.69
5 1 9 -0.16 0.49
5 1 9 0.37 0.41
5 2 -8 30.37 3.15
5 2 -7 40.26 3.37
5 2 -6 50.17 3.48
5 2 -5 26.11 2.48
5 2 -4 7.24 1.54
5 2 -3 21.03 1.85
5 2 -3 20.37 2.14
5 2 -2 170.69 5.21
5 2 -2 173.99 5.5
5 2 -1 196.52 6
5 2 -1 210.91 6.26
5 2 0 138.43 5.23
5 2 0 124.85 5.14
5 2 1 20.77 2.56
5 2 1 16.58 2.32
5 2 2 18.53 2.68
5 2 2 18.3 2.54
5 2 3 14.32 2.59
5 2 3 12.68 1.18
5 2 3 14.23 2.51
5 2 4 33.35 3.73
5 2 4 29.26 1.61
5 2 4 32.45 3.59
5 2 5 40.04 1.8
5 2 5 40.56 2.01
5 2 6 14.52 1.36
5 2 7 4.02 0.91
5 2 8 1.55 0.69
5 2 8 0.93 0.58
5 2 9 0.61 0.44
5 3 -8 27.21 3.23
5 3 -7 46.93 3.8
5 3 -6 33.54 3.11
5 3 -5 48.09 3.44
5 3 -4 4.84 1.57
5 3 -3 92.18 3.82
5 3 -3 93.28 4.42
5 3 -2 47.45 3.04
5 3 -2 51.8 3.38
5 3 -1 44.36 3.23
5 3 -1 41.07 3.06
5 3 0 29.31 2.7
5 3 0 28.68 2.8
5 3 1 21.67 2.64
5 3 2 13.55 1.22
5 3 2 13.24 2.42
5 3 2 13.55 1.16
5 3 3 9.31 1.16
5 3 3 10.99 2.43
5 3 3 7.64 1.03
5 3 4 4.45 1.04
5 3 4 4.6 0.95
5 3 5 12.24 1.33
5 3 5 10.09 1.15
5 3 6 5.52 1.05
5 3 6 4.91 0.89
5 3 7 3.55 0.83
5 3 7 3.41 0.71
5 3 8 3.86 0.72
5 4 -8 19.37 2.86
5 4 -7 37.15 3.67
5 4 -6 47.86 3.96
5 4 -5 31.32 3.1
5 4 -4 12.74 2.23
5 4 -3 91.88 4.73
5 4 -2 63.39 3.74
5 4 -2 66.14 3.97
5 4 -1 64.7 3.99
5 4 -1 61.69 3.89
5 4 0 25.52 2.69
5 4 0 27.09 2.87
5 4 1 13.81 1.2
5 4 1 12.76 2.34
5 4 2 5.47 1.01
5 4 2 6.69 2.06
5 4 2 8.4 1.04
5 4 3 9.77 1.25
5 4 3 10.23 2.48
5 4 3 10.87 1.15
5 4 4 8.35 1.19
5 4 4 7.78 1.01
5 4 5 3.15 0.99
5 4 5 5.49 0.89
5 4 6 -0.37 0.78
5 4 6 -0.1 0.61
5 4 7 0.31 0.67
5 4 8 0.71 0.51
5 5 -7 48.82 1.78
5 5 -7 46.12 4.18
5 5 -6 49.01 4.18
5 5 -6 49.96 1.79
5 5 -5 12.58 2.44
5 5 -5 12.74 1.17
5 5 -4 45.67 3.82
5 5 -4 41.36 1.65
5 5 -3 102.33 5.25
5 5 -2 81.65 4.7
5 5 -1 56.26 3.96
5 5 -1 50.52 3.91
5 5 0 25.19 2.77
5 5 0 26.12 1.54
5 5 0 27.96 3.2
5 5 0 26.53 1.41
5 5 1 11.41 1.21
5 5 1 13.93 2.59
5 5 1 14.97 1.17
5 5 2 9.7 1.2
5 5 2 8.78 2.28
5 5 2 10.57 1.07
5 5 3 8.68 1.18
5 5 4 7.87 1.17
5 5 5 2.07 0.9
5 5 6 -0.58 0.76
5 5 7 0.79 0.61
5 5 8 0.17 0.41
5 6 -7 3.52 0.86
5 6 -6 21.82 1.37
5 6 -5 25.38 3.23
5 6 -4 80.26 5.09
5 6 -4 71.69 2.19
5 6 -3 71.44 4.71
5 6 -3 70.03 2.16
5 6 -2 42.15 3.65
5 6 -2 44.83 1.86
5 6 -2 47.72 1.78
5 6 -1 31.85 1.69
5 6 -1 31.91 3.22
5 6 -1 35.42 1.54
5 6 0 28.41 1.64
5 6 0 23.7 2.79
5 6 1 15.59 1.39
5 6 2 10.78 1.26
5 6 3 9 1.2
5 6 4 7.78 1.13
5 6 5 2.67 0.85
5 6 6 0.85 0.66
5 6 7 0.53 0.5
5 7 -8 11.19 1.06
5 7 -7 8.69 1.03
5 7 -6 0.42 0.8
5 7 -5 -0.59 0.88
5 7 -4 9.21 1.08
5 7 -3 25.83 1.55
5 7 -3 24.74 1.38
5 7 -2 34 1.73
5 7 -1 24.02 1.56
5 7 0 14.48 1.32
5 7 1 5.62 1.11
5 7 2 8.12 1.19
5 7 3 9.9 1.21
5 7 4 6 0.99
5 7 5 3.04 0.77
5 7 6 0 0.55
5 8 -8 8.39 0.95
5 8 -7 11.18 1.09
5 8 -6 7.43 1.02
5 8 -5 12.33 1.17
5 8 -4 13.73 1.24
5 8 -4 13.02 1.22
5 8 -3 4.63 0.97
5 8 -3 3.65 0.94
5 8 -2 2.36 0.88
5 8 -2 2.54 0.94
5 8 -1 3.2 0.85
5 8 -1 3.68 0.99
5 8 0 5.1 1.01
5 8 0 6.1 0.9
5 8 1 2.67 0.92
5 8 2 2.09 0.87
5 8 3 3.5 0.9
5 8 4 1.09 0.7
5 8 5 0.28 0.55
5 8 6 1.05 0.41
5 9 -8 5.19 0.78
5 9 -7 9.08 0.99
5 9 -6 5.64 0.94
5 9 -5 14.04 1.21
5 9 -4 15.21 1.22
5 9 -3 12.25 1.19
5 9 -3 12.63 1.17
5 9 -2 10.07 1.16
5 9 -2 8.39 1.04
5 9 -1 4.82 0.87
5 9 -1 6.1 1.05
5 9 0 3.7 0.76
5 9 0 2.02 0.87
5 9 1 1.92 0.84
5 9 2 2.16 0.78
5 9 3 2.95 0.75
5 9 4 0.75 0.55
5 9 5 -0.11 0.39
5 10 -8 2.98 0.57
5 10 -7 2.6 0.68
5 10 -6 2.07 0.71
5 10 -5 7.69 0.89
5 10 -4 7.89 0.94
5 10 -3 6.56 0.9
5 10 -2 3.97 0.82
5 10 -2 6.26 0.95
5 10 -1 3.51 0.74
5 10 -1 4.89 0.9
5 10 0 1.93 0.77
5 10 1 2.43 0.73
5 10 2 2.74 0.68
5 10 3 1.82 0.55
5 11 -7 -0.45 0.45
5 11 -6 2.88 0.59
5 11 -5 5.07 0.7
5 11 -4 4.57 0.7
5 11 -3 4.13 0.69
5 11 -2 4.16 0.64
5 11 -1 1.98 0.52
5 11 -1 1.63 0.47
5 11 0 0.44 0.55
5 11 1 0.15 0.48
6 -7 -4 23.19 3.61
6 -7 -3 30.88 4.06
6 -7 -2 19.99 3.78
6 -7 -1 20.79 4.04
6 -7 5 4.14 0.81
6 -7 6 3.28 0.65
6 -6 -6 -0.62 2.1
6 -6 -5 49.51 4.38
6 -6 -4 23.25 3.35
6 -6 -3 26.89 3.71
6 -6 -2 28.94 3.9
6 -6 -1 23.32 4.01
6 -6 0 38.5 4.97
6 -6 1 19.66 4.26
6 -6 3 21.41 1.43
6 -6 4 1.64 0.86
6 -6 5 2.98 0.81
6 -6 6 4.32 0.76
6 -6 7 2.37 0.58
6 -5 -7 3.03 2.13
6 -5 -6 10.71 2.51
6 -5 -5 13.29 2.64
6 -5 -4 15.89 2.73
6 -5 -3 23.66 3.25
6 -5 -2 40.18 4.21
6 -5 -1 26.14 3.78
6 -5 0 50.89 5.17
6 -5 1 26.93 4.49
6 -5 2 42.41 5.08
6 -5 2 37.09 1.78
6 -5 3 14.56 1.32
6 -5 4 5.38 1.05
6 -5 5 4.79 0.94
6 -5 6 3.36 0.8
6 -5 7 1.66 0.65
6 -5 8 1.03 0.45
6 -4 -7 0.93 1.73
6 -4 -6 68.13 4.54
6 -4 -5 32.73 3.3
6 -4 -4 30.63 3.13
6 -4 -3 6.18 2.13
6 -4 -2 7.19 2.42
6 -4 -1 18.4 3.27
6 -4 0 37.65 4.44
6 -4 1 19.85 4.07
6 -4 2 46.42 5.14
6 -4 2 40.27 1.8
6 -4 3 9.82 1.19
6 -4 4 14.56 1.33
6 -4 5 8.93 1.13
6 -4 6 4.55 0.89
6 -4 7 1.52 0.67
6 -4 8 1.04 0.48
6 -3 -8 10.94 2.59
6 -3 -7 6.09 2
6 -3 -6 65.67 4.29
6 -3 -5 49.84 3.72
6 -3 -4 55.72 3.81
6 -3 -3 80.03 4.56
6 -3 -2 29.23 3.3
6 -3 -1 33.04 3.7
6 -3 0 20.88 3.63
6 -3 1 18.91 3.77
6 -3 2 33.06 4.39
6 -3 2 33.85 1.65
6 -3 3 3.79 2.82
6 -3 3 3.14 0.98
6 -3 4 12.36 1.28
6 -3 5 13.26 1.25
6 -3 6 7.59 1.02
6 -3 7 4.79 0.81
6 -3 8 1.58 0.55
6 -2 -8 -0.02 1.71
6 -2 -7 28.86 3.14
6 -2 -6 32.76 3.04
6 -2 -5 44.82 3.37
6 -2 -4 32.26 2.92
6 -2 -3 82.78 4.42
6 -2 -2 31.95 3.28
6 -2 -1 113.45 5.87
6 -2 0 25.82 3.67
6 -2 1 35.94 4.32
6 -2 2 19.26 3.44
6 -2 2 18.32 1.32
6 -2 3 9.75 3.01
6 -2 3 10.7 3.3
6 -2 3 11.7 1.24
6 -2 4 11.32 1.24
6 -2 5 11.01 1.2
6 -2 6 5.29 0.97
6 -2 7 3.02 0.79
6 -2 8 1.21 0.56
6 -2 8 1.32 0.53
6 -1 -8 2.19 1.78
6 -1 -7 57.97 3.99
6 -1 -6 29.87 2.84
6 -1 -5 44.7 2.76
6 -1 -5 43.68 3.18
6 -1 -4 36.38 2.96
6 -1 -4 39.32 2.64
6 -1 -3 62.5 3.84
6 -1 -3 55.85 3.08
6 -1 -2 59.11 4.03
6 -1 -1 64.49 4.53
6 -1 0 6.63 2.67
6 -1 1 62 4.94
6 -1 2 12.91 3.22
6 -1 2 11.83 1.19
6 -1 3 12.99 3.37
6 -1 3 11.19 1.22
6 -1 4 9.69 1.21
6 -1 5 6.03 1.06
6 -1 6 3.36 0.9
6 -1 7 0.66 0.68
6 -1 8 0.59 0.55
6 -1 8 0.23 0.51
6 0 -7 71.21 4.17
6 0 -6 79.38 4.08
6 0 -6 81.2 4.01
6 0 -5 58.41 3.45
6 0 -5 55.01 3.26
6 0 -4 73.7 3.65
6 0 -4 74.54 3.8
6 0 -3 28.9 2.74
6 0 -3 28.12 2.44
6 0 -3 30.06 2.39
6 0 -2 104.97 4.44
6 0 -2 108.52 5.05
6 0 -1 102.15 5.27
6 0 0 192.11 7.53
6 0 1 61.57 4.53
6 0 2 17.25 3.38
6 0 2 16.64 1.31
6 0 3 12.65 3.19
6 0 3 13.53 1.29
6 0 3 15.72 2.83
6 0 4 6.98 1.12
6 0 5 2.45 0.93
6 0 6 2.52 0.85
6 0 7 0.44 0.68
6 0 8 -0.24 0.53
6 0 8 0.05 0.46
6 1 -7 10.25 1.96
6 1 -6 23.32 2.48
6 1 -5 31.2 2.67
6 1 -4 88.88 4.19
6 1 -3 51.37 3.34
6 1 -3 50.14 3
6 1 -2 93.02 4.35
6 1 -2 94.27 4.4
6 1 -1 4.19 1.62
6 1 0 83.6 4.79
6 1 1 65.15 4.51
6 1 1 57.42 2.02
6 1 2 56.57 4.64
6 1 2 52.31 2
6 1 2 61.32 4.59
6 1 3 40.74 4.28
6 1 3 42.54 1.91
6 1 3 47.26 4.28
6 1 4 17.54 1.4
6 1 5 9.1 1.12
6 1 5 6.9 1.13
6 1 6 2.27 0.87
6 1 6 3.14 0.87
6 1 7 0.34 0.67
6 1 7 -0.03 0.61
6 1 8 0.13 0.47
6 1 8 0.98 0.44
6 2 -8 26.67 3.15
6 2 -7 24.24 2.83
6 2 -6 23.32 2.63
6 2 -5 18.71 2.34
6 2 -4 5.92 1.64
6 2 -3 18.91 2.23
6 2 -3 23.44 2.24
6 2 -2 53.18 3.51
6 2 -2 54.94 3.63
6 2 -1 19.95 2.42
6 2 -1 17.94 2.38
6 2 0 51.24 3.89
6 2 1 9.69 1.11
6 2 1 10.05 2.25
6 2 1 11.29 1.2
6 2 2 9.58 1.15
6 2 2 9.33 2.34
6 2 2 9.1 1.11
6 2 3 22.41 1.53
6 2 3 19.25 1.45
6 2 4 21.37 1.54
6 2 4 18.74 1.45
6 2 5 15.47 1.36
6 2 5 15.57 1.28
6 2 6 6.53 0.98
6 2 6 5.68 0.87
6 2 7 1.79 0.69
6 2 7 1.03 0.56
6 2 8 1.39 0.48
6 3 -8 22 2.97
6 3 -7 25.85 3.08
6 3 -6 19.01 2.6
6 3 -6 20.42 1.34
6 3 -5 41.15 3.43
6 3 -5 41.42 1.68
6 3 -4 13.8 2.24
6 3 -3 35.32 2.88
6 3 -3 38.15 3.2
6 3 -2 20.74 2.55
6 3 -2 18.56 2.36
6 3 -1 16.44 2.43
6 3 -1 16.09 2.3
6 3 0 25.03 3.06
6 3 0 27.27 1.46
6 3 1 8.24 1.05
6 3 1 8.41 2.18
6 3 1 9.75 1.07
6 3 2 6.87 1.05
6 3 2 6.75 2.14
6 3 2 7.46 1.02
6 3 3 3.55 0.96
6 3 3 3.81 0.92
6 3 4 1.35 0.89
6 3 4 1.4 0.82
6 3 5 2.84 0.92
6 3 5 4.92 0.88
6 3 6 2.83 0.83
6 3 6 2.57 0.67
6 3 7 2.12 0.65
6 3 7 1.22 0.46
6 4 -7 22.6 3.03
6 4 -6 29.34 3.35
6 4 -6 31.93 1.65
6 4 -5 35.34 3.44
6 4 -5 36.93 1.67
6 4 -4 24.73 2.89
6 4 -4 23.86 1.38
6 4 -3 42.55 3.57
6 4 -3 42.6 1.71
6 4 -2 23.03 2.78
6 4 -2 19.39 2.6
6 4 -2 21.16 1.32
6 4 -1 34.41 3.44
6 4 -1 33.6 1.58
6 4 -1 32.18 3.18
6 4 0 18.98 1.35
6 4 0 21.46 3.01
6 4 0 21.15 1.35
6 4 1 11.79 1.19
6 4 1 10.48 2.38
6 4 1 13.34 1.2
6 4 2 6.83 1.07
6 4 2 9.17 1.06
6 4 3 5.66 1.06
6 4 3 6.32 0.99
6 4 4 1.48 0.87
6 4 4 2.99 0.79
6 4 5 0.03 0.81
6 4 5 0.95 0.62
6 4 6 0.06 0.65
6 4 7 0.83 0.52
6 5 -7 35.54 1.6
6 5 -5 19.24 2.82
6 5 -5 18.7 1.35
6 5 -4 28.57 3.27
6 5 -4 28.06 1.51
6 5 -3 37.28 3.62
6 5 -3 38.98 1.72
6 5 -2 31.19 3.36
6 5 -2 30.46 1.55
6 5 -1 35.72 3.42
6 5 -1 38.49 1.74
6 5 -1 39.24 3.8
6 5 -1 40.86 1.75
6 5 0 12.31 1.23
6 5 0 12.08 1.13
6 5 1 10.38 1.21
6 5 1 10.15 1.09
6 5 2 9.52 1.21
6 5 2 8.35 0.98
6 5 3 4.71 1.02
6 5 3 4.57 0.81
6 5 4 3.4 0.92
6 5 4 3.09 0.7
6 5 5 0.93 0.73
6 5 6 0.23 0.57
6 5 7 -0.11 0.39
6 6 -8 -0.17 0.78
6 6 -7 2.06 0.85
6 6 -6 17.55 1.3
6 6 -5 13.75 1.21
6 6 -4 33.07 1.64
6 6 -3 23.02 1.44
6 6 -2 20.79 1.35
6 6 -1 21.04 1.42
6 6 -1 21.87 1.35
6 6 0 12.11 1.22
6 6 0 11.9 1.09
6 6 1 12.71 1.28
6 6 1 11.99 1.06
6 6 2 10.67 1.21
6 6 3 4.86 0.97
6 6 4 3.85 0.87
6 6 5 0.96 0.65
6 6 6 0.4 0.46
6 7 -8 5.89 0.86
6 7 -7 5.17 0.91
6 7 -6 1.19 0.83
6 7 -5 -0.16 0.84
6 7 -4 5.94 0.95
6 7 -3 7.44 0.95
6 7 -2 14.36 1.24
6 7 -2 16.38 1.19
6 7 -1 9.5 1.1
6 7 0 3.25 0.9
6 7 1 2.79 0.9
6 7 2 3.41 0.91
6 7 3 3.44 0.83
6 7 4 2.4 0.71
6 7 5 1.09 0.53
6 8 -8 5.74 0.82
6 8 -7 9.07 0.98
6 8 -6 5.97 0.95
6 8 -5 5.29 0.96
6 8 -4 5.38 0.99
6 8 -3 5.13 0.96
6 8 -3 5.13 0.93
6 8 -2 9.5 1.08
6 8 -2 8.86 1.02
6 8 -1 2.86 0.81
6 8 -1 3.52 0.88
6 8 0 2.26 0.7
6 8 0 1.38 0.81
6 8 1 1.39 0.78
6 8 2 0.41 0.68
6 8 3 1.18 0.65
6 8 4 0.98 0.52
6 9 -8 3.21 0.66
6 9 -7 5.43 0.79
6 9 -6 3.14 0.79
6 9 -5 5.46 0.89
6 9 -4 5.13 0.9
6 9 -3 5.43 0.91
6 9 -3 6.59 0.91
6 9 -2 7.28 0.93
6 9 -2 6.31 0.88
6 9 -1 3.45 0.73
6 9 -1 4.83 0.89
6 9 0 3.78 0.65
6 9 0 2.97 0.78
6 9 1 2.22 0.72
6 9 2 1.42 0.62
6 9 3 1.1 0.5
6 10 -7 3.12 0.6
6 10 -6 2.7 0.64
6 10 -5 4.6 0.73
6 10 -4 1.93 0.67
6 10 -3 1.74 0.66
6 10 -2 0.15 0.59
6 10 -1 0.64 0.51
6 10 -1 1.88 0.65
6 10 0 0.66 0.56
6 10 1 0.28 0.49
6 11 -5 3.75 0.53
6 11 -4 4.49 0.56
6 11 -3 4.59 0.56
7 -6 -3 17.68 3.66
7 -6 3 13.98 1.15
7 -6 4 0.81 0.72
7 -6 5 0.86 0.61
7 -5 -5 17.17 3.06
7 -5 -4 19.92 3.43
7 -5 -3 22.15 3.68
7 -5 -2 13.83 3.46
7 -5 -1 10.07 3.57
7 -5 0 18.57 4.25
7 -5 2 30.22 1.63
7 -5 3 13.57 1.23
7 -5 4 1.94 0.83
7 -5 5 0.33 0.66
7 -5 6 -0.93 0.6
7 -5 6 0.21 0.48
7 -4 -6 31.78 3.68
7 -4 -5 25.79 3.39
7 -4 -4 24.1 3.4
7 -4 -3 12.7 3.07
7 -4 -2 8.61 2.94
7 -4 -1 5.77 3.12
7 -4 0 12.8 3.8
7 -4 1 10.89 1.21
7 -4 2 50.87 2.04
7 -4 3 10.65 1.21
7 -4 4 5.32 0.98
7 -4 5 2.04 0.76
7 -4 6 0.77 0.61
7 -4 6 1.5 0.59
7 -4 7 0.99 0.46
7 -4 7 0.92 0.42
7 -3 -7 -0.92 2.11
7 -3 -6 44.6 3.97
7 -3 -5 36.31 3.7
7 -3 -4 50.09 4.25
7 -3 -3 30.05 3.72
7 -3 -2 11.31 3.07
7 -3 -1 6.14 2.98
7 -3 0 9.81 3.63
7 -3 0 8.35 1.05
7 -3 0 9.5 1.08
7 -3 1 26.48 4.41
7 -3 1 26.45 1.54
7 -3 2 42.47 1.9
7 -3 3 3.21 1
7 -3 4 3.76 0.94
7 -3 5 3.35 0.84
7 -3 6 2.77 0.72
7 -3 6 3.3 0.69
7 -3 7 1.78 0.52
7 -3 7 1.49 0.47
7 -2 -7 3.64 2.02
7 -2 -6 25.31 3.08
7 -2 -5 42.47 3.79
7 -2 -4 44.66 3.94
7 -2 -3 19.05 3.09
7 -2 -2 8.27 2.86
7 -2 -1 10.2 3.18
7 -2 0 8.64 3.29
7 -2 0 8.54 1.05
7 -2 0 8.94 1.06
7 -2 1 49.8 5.13
7 -2 1 46.69 1.96
7 -2 1 44.16 1.92
7 -2 2 23.2 1.53
7 -2 3 2.57 0.93
7 -2 4 0.33 0.85
7 -2 5 0.12 0.81
7 -2 6 3.28 0.71
7 -2 7 1.56 0.54
7 -2 7 2.15 0.53
7 -1 -7 29.69 3.28
7 -1 -6 26.38 3.05
7 -1 -5 49.72 3.84
7 -1 -4 44.97 3.82
7 -1 -4 36.67 2.81
7 -1 -3 30.23 3.49
7 -1 -2 17.62 3.22
7 -1 -1 20.14 3.71
7 -1 -1 18.21 1.26
7 -1 0 28.28 4.09
7 -1 0 27.93 1.55
7 -1 1 53.73 5
7 -1 1 53.26 2.05
7 -1 1 50.85 2.05
7 -1 2 3.62 1.02
7 -1 3 1.1 0.9
7 -1 4 -0.42 0.89
7 -1 5 -0.09 0.81
7 -1 6 1.62 0.69
7 -1 6 1.22 0.65
7 -1 7 0.59 0.51
7 -1 7 0.51 0.48
7 0 -6 53.77 1.91
7 0 -5 53.13 3.5
7 0 -4 26.84 2.62
7 0 -3 12.71 1.94
7 0 -2 18.74 2.5
7 0 -1 39.85 1.71
7 0 0 63.05 2.2
7 0 1 102.86 6.14
7 0 1 91.6 2.66
7 0 2 2.12 0.91
7 0 3 -1.03 0.98
7 0 4 1.36 0.85
7 0 4 0.5 0.78
7 0 5 0.77 0.75
7 0 5 0.86 0.72
7 0 6 1.35 0.68
7 0 6 1.19 0.64
7 0 7 0.03 0.48
7 0 7 0.44 0.44
7 1 -7 14.9 1.25
7 1 -6 26.43 1.49
7 1 -6 23.14 2.6
7 1 -5 30.24 2.92
7 1 -5 36.56 1.61
7 1 -4 25.35 2.67
7 1 -4 26.6 1.39
7 1 -3 11.63 1.05
7 1 -3 11.26 1.97
7 1 -2 13.37 2.21
7 1 -2 12.1 1.06
7 1 -1 21.49 2.91
7 1 -1 22.35 1.38
7 1 0 65.9 4.67
7 1 0 60.23 2.14
7 1 1 63.5 4.85
7 1 1 56.67 2.19
7 1 2 16.21 1.32
7 1 2 16.07 1.38
7 1 3 9.93 1.16
7 1 3 9.31 1.15
7 1 4 5.77 1.02
7 1 4 4.5 0.94
7 1 5 5.04 0.9
7 1 5 3.7 0.82
7 1 6 1.7 0.67
7 1 6 2.41 0.65
7 1 7 0.97 0.47
7 1 7 1.04 0.42
7 2 -7 17.59 2.58
7 2 -7 20.89 1.42
7 2 -6 23.83 2.81
7 2 -6 24.96 1.49
7 2 -5 18.63 1.26
7 2 -5 17.09 2.4
7 2 -4 9.19 1
7 2 -4 7.42 1.86
7 2 -3 5.51 1.73
7 2 -3 4.69 0.83
7 2 -2 9.69 2.08
7 2 -2 10.07 1.05
7 2 -2 8.83 1.9
7 2 -1 20.99 2.95
7 2 -1 19.75 1.34
7 2 0 41.62 4.01
7 2 0 45.05 1.9
7 2 1 0.88 0.84
7 2 2 1.37 0.83
7 2 2 1.43 0.83
7 2 3 4.21 0.94
7 2 3 3.2 0.89
7 2 4 7.22 1.03
7 2 4 6.99 0.98
7 2 5 7.1 0.96
7 2 5 6.6 0.86
7 2 6 2.66 0.66
7 2 6 2.63 0.58
7 2 7 1.71 0.45
7 3 -6 22.71 2.88
7 3 -6 23.84 1.49
7 3 -5 17.76 1.29
7 3 -5 18.04 2.61
7 3 -4 7.32 1.97
7 3 -4 7.38 0.98
7 3 -3 11.59 2.24
7 3 -3 12.23 1.11
7 3 -2 11.81 2.2
7 3 -2 11.22 2.39
7 3 -2 11.18 1.09
7 3 -1 29.89 3.4
7 3 -1 36.05 1.7
7 3 0 41.25 1.84
7 3 1 0.93 0.78
7 3 1 0.06 0.77
7 3 2 0.05 0.8
7 3 2 0.1 0.77
7 3 3 -0.12 0.8
7 3 3 -0.19 0.72
7 3 4 0.87 0.75
7 3 4 0.78 0.67
7 3 5 2.19 0.73
7 3 5 2.42 0.64
7 3 6 1.78 0.59
7 3 6 1.55 0.46
7 4 -6 22.35 1.46
7 4 -5 18.6 1.35
7 4 -4 11.08 2.26
7 4 -4 10.25 1.1
7 4 -3 16.5 2.62
7 4 -3 15.25 1.21
7 4 -2 7.49 2.39
7 4 -2 8.17 1.07
7 4 -2 6.6 2.01
7 4 -1 43.97 1.84
7 4 0 19.86 1.42
7 4 1 1.58 0.8
7 4 1 2.63 0.84
7 4 2 1.35 0.82
7 4 2 1.56 0.75
7 4 3 0.7 0.77
7 4 3 0.75 0.66
7 4 4 2.21 0.76
7 4 4 0.55 0.58
7 4 5 1.16 0.62
7 4 5 1.1 0.49
7 4 6 0.71 0.46
7 5 -7 23.76 1.35
7 5 -6 19.58 1.42
7 5 -5 9.2 1.12
7 5 -4 8.83 1.05
7 5 -3 12.14 1.17
7 5 -2 19.25 1.37
7 5 -1 43.92 1.83
7 5 0 10.83 1.15
7 5 0 11.11 1.12
7 5 1 2.76 0.88
7 5 1 1.59 0.75
7 5 2 1.32 0.8
7 5 2 2.08 0.71
7 5 3 1.12 0.76
7 5 3 1.5 0.61
7 5 4 1.52 0.69
7 5 5 0.32 0.51
7 6 -8 2 0.74
7 6 -7 3.79 0.86
7 6 -6 7.81 1.02
7 6 -5 4.61 0.92
7 6 -4 6.48 0.97
7 6 -3 4.86 0.9
7 6 -2 11.9 1.12
7 6 -1 20.5 1.3
7 6 0 5 0.92
7 6 0 4.79 0.84
7 6 1 3.93 0.86
7 6 1 4.49 0.76
7 6 2 2.56 0.79
7 6 3 2.61 0.72
7 6 4 1.33 0.58
7 7 -8 4.56 0.81
7 7 -7 3.93 0.83
7 7 -6 2.03 0.82
7 7 -5 1.4 0.8
7 7 -4 2.61 0.78
7 7 -3 2.96 0.77
7 7 -2 11.09 1
7 7 -1 5.07 0.87
7 7 -1 5.98 0.82
7 7 0 -0.99 0.76
7 7 1 0.69 0.66
7 7 2 1.64 0.66
7 7 3 2.09 0.61
7 7 4 1.29 0.45
7 8 -8 4.05 0.68
7 8 -7 5.16 0.82
7 8 -6 2.79 0.79
7 8 -5 1.98 0.77
7 8 -4 3.39 0.82
7 8 -3 4.91 0.88
7 8 -2 11.71 1.01
7 8 -1 3.39 0.73
7 8 -1 3.24 0.76
7 8 0 1.03 0.56
7 8 0 0.64 0.64
7 8 1 0.5 0.57
7 8 2 0.54 0.52
7 9 -8 2.1 0.5
7 9 -7 2.54 0.61
7 9 -6 0.95 0.64
7 9 -5 0.6 0.64
7 9 -4 0.84 0.64
7 9 -3 4.74 0.8
7 9 -2 4.94 0.72
7 9 -1 1.82 0.57
7 9 -1 2.07 0.59
7 9 0 1.32 0.54
7 9 1 0.97 0.48
7 10 -6 2.65 0.51
7 10 -5 2.65 0.54
7 10 -4 1 0.49
7 10 -3 1.99 0.51
7 10 -2 0.85 0.42
8 -4 2 17.16 1.26
8 -4 3 3.94 0.81
8 -4 4 1.36 0.63
8 -4 5 0.99 0.49
8 -3 -5 12 3.11
8 -3 -4 11.53 3.05
8 -3 -3 3.53 2.92
8 -3 -2 11.77 3.69
8 -3 0 6.02 1
8 -3 1 8.75 1.06
8 -3 2 12.98 1.2
8 -3 3 0.77 0.73
8 -3 4 3.14 0.72
8 -3 5 2.15 0.57
8 -3 5 1.78 0.57
8 -3 6 1.85 0.43
8 -2 -6 25.05 3.72
8 -2 -5 25.2 3.73
8 -2 -4 16.26 3.38
8 -2 -3 4.83 3.09
8 -2 -2 11.13 3.67
8 -2 -2 11.7 1.17
8 -2 -1 5.08 3.34
8 -2 -1 5.26 0.96
8 -2 0 2.47 0.86
8 -2 1 11.05 1.17
8 -2 2 5.95 0.98
8 -2 3 -0.67 0.74
8 -2 4 1.38 0.65
8 -2 4 0.81 0.65
8 -2 5 0.91 0.55
8 -2 5 0.65 0.55
8 -2 6 1.08 0.43
8 -1 -5 21.89 1.38
8 -1 -4 27.12 1.5
8 -1 -3 41.74 1.81
8 -1 -2 31.25 1.62
8 -1 -1 8.08 1.1
8 -1 0 1.87 0.92
8 -1 1 14.54 1.31
8 -1 2 1.12 0.8
8 -1 3 -0.05 0.75
8 -1 4 0.82 0.64
8 -1 4 0.51 0.65
8 -1 5 0.14 0.54
8 -1 5 0.54 0.55
8 -1 6 0.83 0.41
8 0 -7 22.74 1.47
8 0 -6 12.21 1.19
8 0 -5 11.99 1.16
8 0 -4 6.09 0.97
8 0 -3 22.92 1.44
8 0 -2 36.31 1.71
8 0 -1 34.92 3.82
8 0 -1 39.21 1.79
8 0 0 50.1 2.05
8 0 1 27.96 1.65
8 0 2 2.5 0.86
8 0 3 2.04 0.76
8 0 3 2.56 0.8
8 0 4 1.35 0.68
8 0 4 1.65 0.69
8 0 5 1.37 0.57
8 0 5 1.38 0.58
8 0 6 0.83 0.4
8 1 -7 10.67 1.17
8 1 -6 9.26 1.1
8 1 -5 7.98 1.98
8 1 -5 10.87 1.11
8 1 -4 7.24 1
8 1 -4 5.35 1.71
8 1 -3 11.58 1.13
8 1 -2 4.5 0.9
8 1 -1 0.09 0.91
8 1 0 33.36 1.71
8 1 1 22.24 1.5
8 1 2 6.01 0.98
8 1 3 6.94 0.92
8 1 3 5.93 0.92
8 1 4 2.63 0.7
8 1 4 2.25 0.69
8 1 5 2.1 0.59
8 1 5 2.13 0.57
8 2 -7 9.82 1.15
8 2 -6 9.81 1.12
8 2 -5 10.38 1.12
8 2 -4 10.55 1.13
8 2 -3 13.03 1.18
8 2 -2 4.96 0.94
8 2 -1 0.86 0.79
8 2 0 13.72 1.23
8 2 1 1.58 0.83
8 2 2 1.08 0.73
8 2 2 0.71 0.72
8 2 3 4.17 0.79
8 2 3 2.33 0.74
8 2 4 2.86 0.68
8 2 4 2.43 0.65
8 2 5 1.54 0.53
8 2 5 1.74 0.5
8 3 -6 12.2 1.21
8 3 -5 8.53 1.09
8 3 -4 11.13 1.15
8 3 -3 10.43 1.12
8 3 -2 5.22 0.97
8 3 -1 6.4 1
8 3 0 10 1.1
8 3 1 0.52 0.71
8 3 2 0.45 0.67
8 3 2 0.1 0.72
8 3 3 1.99 0.7
8 3 3 -0.03 0.63
8 3 4 1.55 0.62
8 3 4 1.17 0.53
8 3 5 0.69 0.45
8 3 5 0.71 0.38
8 4 -6 10.53 1.16
8 4 -5 11 1.17
8 4 -4 14.95 1.26
8 4 -3 10.11 1.14
8 4 -2 5.01 0.94
8 4 -1 13.1 1.19
8 4 0 6.29 0.94
8 4 1 0.02 0.7
8 4 2 1.44 0.66
8 4 2 0.67 0.61
8 4 3 1.15 0.61
8 4 3 2.51 0.6
8 4 4 0.72 0.52
8 4 4 0.7 0.42
8 5 -7 7.49 0.94
8 5 -5 5.67 0.95
8 5 -4 8.76 1.05
8 5 -3 6.28 0.97
8 5 -2 7.67 1
8 5 -1 17.83 1.25
8 5 0 5.41 0.84
8 5 1 3.1 0.73
8 5 1 2.1 0.66
8 5 2 1.34 0.61
8 5 2 1.23 0.55
8 5 3 0.44 0.53
8 5 3 0.25 0.43
8 6 -8 1.84 0.69
8 6 -7 2.95 0.77
8 6 -6 2.43 0.79
8 6 -5 3.56 0.82
8 6 -4 2.41 0.78
8 6 -3 1.01 0.71
8 6 -2 4.87 0.82
8 6 -1 8.9 0.9
8 6 0 1.78 0.63
8 6 1 1.45 0.6
8 6 1 2.4 0.56
8 6 2 1.58 0.54
8 7 -8 2.79 0.66
8 7 -7 3.58 0.74
8 7 -6 3.29 0.78
8 7 -5 4.3 0.84
8 7 -4 2.45 0.76
8 7 -3 1.02 0.62
8 7 -2 4.2 0.69
8 7 -1 2.65 0.67
8 7 -1 2.71 0.59
8 7 0 0.37 0.5
8 8 -8 1.16 0.47
8 8 -7 1.34 0.57
8 8 -6 1.38 0.62
8 8 -5 2.83 0.69
8 8 -4 1.87 0.65
8 8 -3 3.14 0.69
8 8 -2 5.85 0.71
8 8 -1 1.97 0.53
8 9 -6 0.66 0.46
8 9 -5 0.23 0.46
8 9 -4 -0.16 0.48
8 9 -3 0.85 0.47
9 -4 2 6.47 0.79
9 -4 3 3.28 0.6
9 -3 0 -0.08 0.77
9 -3 1 2.52 0.75
9 -3 2 6.13 0.83
9 -3 3 2.44 0.61
9 -3 4 1.14 0.45
9 -2 -3 4.87 0.94
9 -2 -2 0.76 0.83
9 -2 -1 0.6 0.74
9 -2 0 0.47 0.71
9 -2 1 5.06 0.89
9 -2 2 4.11 0.77
9 -2 3 1.68 0.62
9 -2 4 0.38 0.45
9 -1 -5 16.01 1.31
9 -1 -4 32.73 1.66
9 -1 -3 19.36 1.39
9 -1 -2 8.91 1.11
9 -1 -1 1.55 0.79
9 -1 0 4.58 0.91
9 -1 1 8.43 0.99
9 -1 2 4.53 0.81
9 -1 3 1.46 0.61
9 -1 4 0.08 0.44
9 0 -6 2.69 0.84
9 0 -5 7.02 1.03
9 0 -4 8.32 1.07
9 0 -3 11.09 1.16
9 0 -2 8.97 1.1
9 0 -1 5.5 0.97
9 0 0 9.88 1.08
9 0 1 15.88 1.2
9 0 2 4.6 0.81
9 0 3 2.54 0.65
9 0 4 0.2 0.45
9 1 -7 3.02 0.87
9 1 -6 4.71 0.95
9 1 -5 11.32 1.17
9 1 -4 4.3 0.94
9 1 -3 2.77 0.85
9 1 -2 0.14 0.76
9 1 -1 2.9 0.85
9 1 0 9.59 1.05
9 1 1 11.04 1.05
9 1 2 3.93 0.77
9 1 3 0.95 0.55
9 1 4 0.07 0.41
9 2 -6 7.25 1.03
9 2 -5 12.36 1.19
9 2 -4 6.32 0.97
9 2 -3 2.66 0.84
9 2 -2 -0.03 0.74
9 2 -1 2.03 0.78
9 2 0 6.71 0.93
9 2 1 3.12 0.75
9 2 2 2.08 0.65
9 2 3 0.46 0.49
9 2 4 0.08 0.35
9 3 -6 9.23 1.07
9 3 -5 7.42 1.03
9 3 -4 7.77 1
9 3 -3 2.43 0.81
9 3 -2 0.05 0.74
9 3 -1 2.81 0.8
9 3 0 5.92 0.86
9 3 1 0.99 0.62
9 3 2 1.46 0.56
9 3 3 0.25 0.42
9 4 -6 10.03 1.06
9 4 -5 7.67 0.99
9 4 -4 6.39 0.96
9 4 -3 3.48 0.83
9 4 -2 1.49 0.72
9 4 -1 5.44 0.83
9 4 0 4.87 0.76
9 4 1 0.71 0.56
9 4 2 0.27 0.44
9 5 -7 2.37 0.71
9 5 -5 2.59 0.76
9 5 -4 2.89 0.75
9 5 -3 1.92 0.69
9 5 -2 2.59 0.7
9 5 -1 7.51 0.82
9 5 0 4.23 0.66
9 5 1 1.83 0.51
9 6 -7 3.31 0.68
9 6 -6 3.5 0.73
9 6 -5 1.84 0.7
9 6 -4 -0.19 0.6
9 6 -3 -0.03 0.59
9 6 -2 1.66 0.58
9 6 -1 3.57 0.6
9 6 0 1.83 0.49
9 6 0 1.28 0.46
9 7 -7 3.36 0.58
9 7 -6 2.75 0.62
9 7 -5 2.27 0.62
9 7 -4 1.27 0.59
9 7 -3 1.03 0.56
9 7 -2 2.16 0.55
9 7 -1 2.22 0.47
9 8 -6 0.5 0.43
9 8 -5 0.66 0.44
9 8 -4 0.74 0.44
9 8 -3 0.71 0.42
10 -3 0 1.84 0.63
10 -3 1 1.54 0.54
10 -3 2 0.12 0.42
10 -2 -2 0.85 0.7
10 -2 -1 1.33 0.66
10 -2 0 2.21 0.65
10 -2 1 1.15 0.56
10 -2 2 0.25 0.46
10 -1 -5 8.28 1.01
10 -1 -4 12.22 1.12
10 -1 -3 6.8 0.97
10 -1 -2 3.38 0.81
10 -1 -1 2.93 0.77
10 -1 0 2.28 0.69
10 -1 1 1.93 0.61
10 -1 2 0.83 0.49
10 -1 3 1.25 0.38
10 0 -6 0.27 0.74
10 0 -5 2.51 0.81
10 0 -4 3.37 0.84
10 0 -3 4.01 0.85
10 0 -2 5.39 0.87
10 0 -1 7.41 0.88
10 0 0 5.01 0.76
10 0 1 1.35 0.59
10 0 2 1.05 0.49
10 0 3 1.26 0.37
10 1 -6 1.77 0.74
10 1 -5 3.4 0.81
10 1 -4 1.19 0.73
10 1 -3 0.54 0.68
10 1 -2 1.62 0.71
10 1 -1 3.37 0.75
10 1 0 3.72 0.71
10 1 1 0.64 0.53
10 1 2 1.01 0.45
10 2 -6 3.53 0.8
10 2 -5 3.2 0.8
10 2 -4 0.87 0.68
10 2 -3 0.9 0.68
10 2 -2 1.75 0.68
10 2 -1 1.85 0.66
10 2 0 1.99 0.61
10 2 1 1.27 0.51
10 2 2 1.1 0.4
10 3 -6 4.33 0.81
10 3 -5 3.49 0.76
10 3 -4 1.71 0.71
10 3 -3 1.23 0.65
10 3 -2 2.04 0.65
10 3 -1 1.56 0.59
10 3 0 0.93 0.51
10 3 1 1.01 0.45
10 4 -7 1.1 0.58
10 4 -5 2.6 0.7
10 4 -4 2.66 0.68
10 4 -3 1.42 0.61
10 4 -2 1.73 0.59
10 4 -1 1.94 0.55
10 4 0 0.25 0.42
10 5 -7 0.38 0.5
10 5 -6 1.31 0.58
10 5 -4 1.39 0.57
10 5 -3 1.25 0.53
10 5 -2 2 0.52
10 5 -1 1.58 0.45
10 6 -6 1.11 0.48
10 6 -5 0.65 0.48
10 6 -4 1.21 0.49
10 6 -3 1 0.46
10 6 -2 1.68 0.43
11 -2 -1 1.32 0.5
11 -1 -4 4.45 0.74
11 -1 -3 2.8 0.66
11 -1 -2 0.57 0.54
11 -1 -1 1.49 0.53
11 -1 0 1.65 0.47
11 0 -5 0.59 0.61
11 0 -4 3.22 0.69
11 0 -3 2.42 0.64
11 0 -2 0.73 0.54
11 0 -1 1.23 0.5
11 0 0 0.62 0.42
11 1 -5 1.5 0.61
11 1 -4 1.72 0.62
11 1 -3 1.52 0.59
11 1 -2 1.59 0.53
11 1 -1 1.49 0.5
11 1 0 0.4 0.39
11 2 -5 1.87 0.61
11 2 -4 1.47 0.58
11 2 -3 -0.15 0.51
11 2 -2 0.52 0.47
11 2 -1 1.34 0.46
11 3 -5 2.05 0.56
11 3 -4 1.1 0.51
11 3 -3 0.21 0.44
11 3 -2 0.1 0.4
11 3 -1 0.33 0.34
11 4 -6 1.17 0.47
11 4 -3 0.55 0.4
