#------------------------------------------------------------------------------
#$Date: 2019-11-04 10:16:56 +0200 (Mon, 04 Nov 2019) $
#$Revision: 222456 $
#$URL: file:///home/coder/svn-repositories/cod/cif/4/03/38/4033883.cif $
#------------------------------------------------------------------------------
#
# This file is available in the Crystallography Open Database (COD),
# http://www.crystallography.net/
#
# All data on this site have been placed in the public domain by the
# contributors.
#
data_4033883
loop_
_publ_author_name
'Galenko, Ekaterina E.'
'Linnik, Stanislav A.'
'Khoroshilova, Olesya V.'
'Novikov, Mikhail S.'
'Khlebnikov, Alexander F.'
_publ_section_title
;
 Isoxazole Strategy for the Synthesis of \a-Aminopyrrole Derivatives.
;
_journal_issue                   17
_journal_name_full               'The Journal of organic chemistry'
_journal_page_first              11275
_journal_page_last               11285
_journal_paper_doi               10.1021/acs.joc.9b01634
_journal_volume                  84
_journal_year                    2019
_chemical_formula_moiety         'C18 H13 Cl N2 O2'
_chemical_formula_sum            'C18 H13 Cl N2 O2'
_chemical_formula_weight         324.75
_space_group_crystal_system      triclinic
_space_group_IT_number           2
_space_group_name_Hall           '-P 1'
_space_group_name_H-M_alt        'P -1'
_atom_sites_solution_hydrogens   geom
_atom_sites_solution_primary     dual
_audit_creation_date             2019-05-17
_audit_creation_method
;
Olex2 1.2
(compiled 2018.05.29 svn.r3508 for OlexSys, GUI svn.r5506)
;
_cell_angle_alpha                109.196(2)
_cell_angle_beta                 95.169(2)
_cell_angle_gamma                96.0440(10)
_cell_formula_units_Z            2
_cell_length_a                   9.2140(2)
_cell_length_b                   9.26000(10)
_cell_length_c                   9.6732(2)
_cell_measurement_reflns_used    6112
_cell_measurement_temperature    100(2)
_cell_measurement_theta_max      73.4750
_cell_measurement_theta_min      4.8480
_cell_volume                     768.25(3)
_computing_cell_refinement       'CrysAlisPro 1.171.39.46e (Rigaku OD, 2018)'
_computing_data_collection       'CrysAlisPro 1.171.39.46e (Rigaku OD, 2018)'
_computing_data_reduction        'CrysAlisPro 1.171.39.46e (Rigaku OD, 2018)'
_computing_molecular_graphics    'Olex2 (Dolomanov et al., 2009)'
_computing_publication_material  'Olex2 (Dolomanov et al., 2009)'
_computing_structure_refinement  'ShelXL (Sheldrick, 2015)'
_computing_structure_solution    'ShelXT (Sheldrick, 2015)'
_diffrn_ambient_environment      N~2~
_diffrn_ambient_temperature      100(2)
_diffrn_detector                 'CCD plate'
_diffrn_detector_type            HyPix3000
_diffrn_measured_fraction_theta_full 1.000
_diffrn_measured_fraction_theta_max 0.990
_diffrn_measurement_details
;
List of Runs (angles in degrees, time in seconds):

  # Type    Start    End  Width  t~exp~   \w     \q     \k     \f   Frames
--------------------------------------------------------------------------
  1  \w    -26.00   0.00   0.50    0.20    --  -38.82 106.00 121.00   52
  2  \w     -2.00  78.00   0.50    0.20    --   38.82-106.00  21.00  160
  3  \w     79.00 105.00   0.50    0.20    --  107.00-106.00  21.00   52
  4  \w    104.00 130.00   0.50    0.20    --  107.00 106.00 121.00   52
  5  \w   -111.00 -64.00   0.50    0.20    --  -38.82 -21.00 -60.00   94
  6  \w   -104.00 -20.00   0.50    0.20    --  -38.82 -77.00  90.00  168
  7  \w   -101.00 -74.00   0.50    0.20    --  -38.82 -77.00 120.00   54
  8  \w    -64.00  18.00   0.50    0.20    --  -38.82  77.00-120.00  164
  9  \w    -49.00 -19.00   0.50    0.20    --  -38.82  77.00  30.00   60
 10  \w    -46.00 -21.00   0.50    0.20    --  -38.82 -21.00 -60.00   50
 11  \w    -63.00 -14.00   0.50    0.20    --  -38.82 -77.00 120.00   98
 12  \w   -107.00 -82.00   0.50    0.20    --  -38.82 -32.00   0.00   50
 13  \w    -16.00  28.00   0.50    0.20    --  -38.82  77.00  30.00   88
 14  \w    -80.00 -55.00   0.50    0.20    --  -38.82 -32.00   0.00   50
 15  \w     80.00 105.00   0.50    0.20    --   38.82  43.00 -30.00   50
 16  \w     30.00  99.00   0.50    0.20    --   38.82  54.00  90.00  138
 17  \w     66.00  99.00   0.50    0.20    --   38.82  54.00-120.00   66
 18  \w     28.00  74.00   0.50    0.20    --   38.82  32.00-150.00   92
 19  \w     20.00  61.00   0.50    0.20    --   38.82  54.00-120.00   82
 20  \w     80.00 108.00   0.50    0.20    --   38.82  32.00-150.00   56
 21  \w     26.00  52.00   0.50    0.20    --   38.82  43.00 -30.00   52
 22  \w     12.00  48.00   0.50    0.20    --   38.82-138.00   0.00   72
 23  \w     78.00 103.00   0.50    0.20    --   38.82  32.00 -60.00   50
 24  \w     -2.00  23.00   0.50    0.20    --   38.82 -65.00-120.00   50
 25  \w     54.00  86.00   0.50    0.20    --   38.82-138.00   0.00   64
 26  \w     36.00  62.00   0.50    0.20    --   38.82 -65.00-120.00   52
 27  \w     63.00  95.00   0.50    0.20    --   38.82-138.00 -90.00   64
 28  \w     90.00 156.00   0.50    0.20    --  107.00  45.00 120.00  132
 29  \w    102.00 148.00   0.50    0.20    --  107.00  45.00 -90.00   92
 30  \w     44.00 108.00   0.50    0.20    --  107.00-133.00   0.00  128
 31  \w     84.00 110.00   0.50    0.20    --  107.00-111.00-180.00   52
 32  \w     91.00 117.00   0.50    0.20    --  107.00 -22.00 -60.00   52
 33  \w     92.00 117.00   0.50    0.20    --  107.00  37.00  60.00   50
 34  \w     47.00 111.00   0.50    0.20    --  107.00-111.00   0.00  128
 35  \w     35.00  69.00   0.50    0.20    --  107.00 -22.00 -60.00   68
 36  \w     44.00 127.00   0.50    0.20    --  107.00 -53.00 -30.00  166
 37  \w    103.00 157.00   0.50    0.20    --  107.00  93.00 -90.00  108
 38  \w     59.00 115.00   0.50    0.20    --  107.00 -37.00-180.00  112
 39  \w     87.00 119.00   0.50    0.20    --  107.00-133.00-180.00   64
 40  \w     89.00 131.00   0.50    0.20    --  107.00  93.00 -60.00   84
 41  \w     48.00  83.00   0.50    0.20    --  107.00-133.00-180.00   70
 42  \w     90.00 131.00   0.50    0.20    --  107.00  45.00  90.00   82
 43  \w     45.00  75.00   0.50    0.20    --  107.00 -93.00 120.00   60
 44  \w     83.00 137.00   0.50    0.20    --  107.00 -86.00 150.00  108
 45  \w     96.00 132.00   0.50    0.20    --  107.00 -69.00 -30.00   72
 46  \w     42.00  89.00   0.50    0.20    --  107.00 -69.00 -30.00   94
 47  \w     44.00  80.00   0.50    0.20    --  107.00 -86.00 150.00   72
 48  \w     99.00 144.00   0.50    0.20    --  107.00  30.00-180.00   90
 49  \w     37.00 103.00   0.50    0.20    --  107.00 -93.00  60.00  132
 50  \w     72.00 122.00   0.50    0.20    --  107.00-133.00 -30.00  100
 51  \w     55.00 116.00   0.50    0.20    --  107.00 -45.00-120.00  122
 52  \w    132.00 157.00   0.50    0.20    --  107.00  37.00  60.00   50
 53  \w     53.00 120.00   0.50    0.20    --  107.00 -37.00  90.00  134
 54  \w    107.00 144.00   0.50    0.20    --  107.00  61.00-150.00   74
 55  \w    118.00 153.00   0.50    0.20    --  107.00  61.00-180.00   70
 56  \w     42.00 108.00   0.50    0.20    --  107.00 -61.00 150.00  132
 57  \w     88.00 119.00   0.50    0.20    --  107.00  53.00-120.00   62
 58  \w     94.00 119.00   0.50    0.20    --  107.00 106.00 121.00   50
 59  \w    -41.00 -11.00   0.50    0.20    --    4.00 116.00 113.80   60
 60  \w    -21.00   4.00   0.50    0.20    --   24.00 116.00-170.72   50
 61  \w     -8.00  17.00   0.50    0.20    --   28.00 100.00 -62.00   50
 62  \w      1.00  26.00   0.50    0.20    --   32.00  88.00 -60.16   50
 63  \w     -1.00  24.00   0.50    0.20    --   32.00  94.00  10.28   50
 64  \w      0.00  25.00   0.50    0.20    --   32.00  91.00  63.29   50
 65  \w      7.00  32.00   0.50    0.20    --   36.00  84.00-134.88   50
 66  \w      4.00  29.00   0.50    0.20    --   36.00  90.00 119.26   50
 67  \w      5.00  30.00   0.50    0.20    --   36.00  88.00 -23.89   50
 68  \w    -60.00   4.00   0.50    0.20    --  -38.82  77.00 120.00  128
 69  \w     10.00  35.00   0.50    0.20    --   38.82  83.00-163.45   50
 70  \w     30.00  56.00   0.50    0.20    --   38.82 -54.00  90.00   52
 71  \w      0.00  34.00   0.50    0.20    --   38.82 -32.00  30.00   68
 72  \w     12.00  37.00   0.50    0.20    --   40.00  82.00-112.27   50
 73  \w     13.00  38.00   0.50    0.20    --   40.00  79.00 -58.16   50
 74  \w     11.00  36.00   0.50    0.20    --   40.00  84.00  27.13   50
 75  \w     16.00  41.00   0.50    0.20    --   44.00  81.00 157.46   50
 76  \w     16.00  41.00   0.50    0.20    --   44.00  82.00   7.61   50
 77  \w     16.00  41.00   0.50    0.20    --   44.00  81.00 -36.18   50
 78  \w     16.00  41.00   0.50    0.20    --   44.00  81.00  94.40   50
 79  \w     21.00  46.00   0.50    0.20    --   48.00  77.00-102.07   50
 80  \w     28.00  46.00   0.50    0.20    --   52.00  72.00   2.02   36
;
_diffrn_measurement_device       'four-circle diffractometer'
_diffrn_measurement_device_type
'SuperNova, Single source at offset/far, HyPix3000'
_diffrn_measurement_method       '\w scans'
_diffrn_orient_matrix_type
'CrysAlisPro convention (1999,Acta A55,543-557)'
_diffrn_orient_matrix_UB_11      0.0520394000
_diffrn_orient_matrix_UB_12      0.0216073000
_diffrn_orient_matrix_UB_13      0.1623372000
_diffrn_orient_matrix_UB_21      0.1559416000
_diffrn_orient_matrix_UB_22      0.0646719000
_diffrn_orient_matrix_UB_23      -0.0166806000
_diffrn_orient_matrix_UB_31      -0.0418337000
_diffrn_orient_matrix_UB_32      0.1644237000
_diffrn_orient_matrix_UB_33      0.0481408000
_diffrn_radiation_monochromator  mirror
_diffrn_radiation_probe          x-ray
_diffrn_radiation_type           CuK\a
_diffrn_radiation_wavelength     1.54184
_diffrn_reflns_av_R_equivalents  0.0273
_diffrn_reflns_av_unetI/netI     0.0272
_diffrn_reflns_Laue_measured_fraction_full 1.000
_diffrn_reflns_Laue_measured_fraction_max 0.990
_diffrn_reflns_limit_h_max       11
_diffrn_reflns_limit_h_min       -11
_diffrn_reflns_limit_k_max       11
_diffrn_reflns_limit_k_min       -9
_diffrn_reflns_limit_l_max       12
_diffrn_reflns_limit_l_min       -11
_diffrn_reflns_number            7503
_diffrn_reflns_point_group_measured_fraction_full 1.000
_diffrn_reflns_point_group_measured_fraction_max 0.990
_diffrn_reflns_theta_full        67.684
_diffrn_reflns_theta_max         73.787
_diffrn_reflns_theta_min         4.870
_diffrn_source                   'micro-focus sealed X-ray tube'
_diffrn_source_type              'SuperNova (Cu) X-ray Source'
_exptl_absorpt_coefficient_mu    2.296
_exptl_absorpt_correction_T_max  1.00000
_exptl_absorpt_correction_T_min  0.74094
_exptl_absorpt_correction_type   multi-scan
_exptl_absorpt_process_details
;
CrysAlisPro 1.171.39.46e (Rigaku Oxford Diffraction, 2018)
Empirical absorption correction using spherical harmonics,
 implemented in SCALE3 ABSPACK scaling algorithm.
;
_exptl_crystal_colour            colourless
_exptl_crystal_colour_primary    colourless
_exptl_crystal_density_diffrn    1.404
_exptl_crystal_description       prism
_exptl_crystal_F_000             336
_exptl_crystal_size_max          0.39
_exptl_crystal_size_mid          0.37
_exptl_crystal_size_min          0.21
_refine_diff_density_max         0.281
_refine_diff_density_min         -0.433
_refine_diff_density_rms         0.091
_refine_ls_extinction_method     none
_refine_ls_goodness_of_fit_ref   1.041
_refine_ls_hydrogen_treatment    constr
_refine_ls_matrix_type           full
_refine_ls_number_parameters     209
_refine_ls_number_reflns         3086
_refine_ls_number_restraints     0
_refine_ls_restrained_S_all      1.041
_refine_ls_R_factor_all          0.0395
_refine_ls_R_factor_gt           0.0389
_refine_ls_shift/su_max          0.000
_refine_ls_shift/su_mean         0.000
_refine_ls_structure_factor_coef Fsqd
_refine_ls_weighting_details
'w=1/[\s^2^(Fo^2^)+(0.0645P)^2^+0.3152P] where P=(Fo^2^+2Fc^2^)/3'
_refine_ls_weighting_scheme      calc
_refine_ls_wR_factor_gt          0.1044
_refine_ls_wR_factor_ref         0.1051
_reflns_Friedel_coverage         0.000
_reflns_number_gt                2983
_reflns_number_total             3086
_reflns_threshold_expression     'I > 2\s(I)'
_cod_data_source_file            jo9b01634_si_002.cif
_cod_data_source_block           10681-12188_cat8-147
_cod_database_code               4033883
_shelx_shelxl_version_number     2014/7
_chemical_oxdiff_formula         'C18 Cl N2 O2'
_shelx_space_group_comment
;
The symmetry employed for this shelxl refinement is uniquely defined
by the following loop, which should always be used as a source of
symmetry information in preference to the above space-group names.
They are only intended as comments.
;
_shelx_estimated_absorpt_t_max   0.644
_shelx_estimated_absorpt_t_min   0.468
_reflns_odcompleteness_completeness 99.74
_reflns_odcompleteness_iscentric 1
_reflns_odcompleteness_theta     72.42
_olex2_refinement_description
;
1. Fixed Uiso
 At 1.2 times of:
  All C(H) groups
 At 1.5 times of:
  All C(H,H,H) groups
2.a Ternary CH refined with riding coordinates:
 C5(H5)
2.b Aromatic/amide H refined with riding coordinates:
 C8(H8), C11(H11), C7(H7), C10(H10), C18(H18), C17(H17), C14(H14), C16(H16),
 C15(H15)
2.c Idealised Me refined as rotating group:
 C4(H4A,H4B,H4C)
;
_shelx_res_file
;
    10681-12188_cat8-147.res created by SHELXL-2014/7

TITL 10681-12188_cat8-147_a.res in P-1
REM Old TITL 10681-12188_CAT8-147 in P-1
REM SHELXT solution in P-1
REM R1 0.095, Rweak 0.006, Alpha 0.029, Orientation as input
REM Formula found by SHELXT: C2 N2 O2 Cl
CELL 1.54184 9.214 9.26 9.6732 109.196 95.169 96.044
ZERR 2 0.0002 0.0001 0.0002 0.002 0.002 0.001
LATT 1
SFAC C H Cl N O
UNIT 36 26 2 4 4

L.S. 4
PLAN  5
SIZE 0.21 0.37 0.39
TEMP -173(2)
BOND $H
LIST 6
fmap 2
acta
REM <olex2.extras>
REM <HklSrc "%.\\10681-12188_CAT8-147.hkl">
REM </olex2.extras>

WGHT    0.064500    0.315200
FVAR       0.97188
CL1   3    0.311460    1.043572    0.179167    11.00000    0.01904    0.02104 =
         0.02018    0.00758   -0.00025    0.00721
O1    5    0.664545    0.357158    0.326146    11.00000    0.02524    0.01244 =
         0.01448    0.00533   -0.00086    0.00030
O2    5    0.634113    0.492523    0.167525    11.00000    0.02998    0.01258 =
         0.01283    0.00277   -0.00356   -0.00002
N1    4    0.728016    0.385184    0.474977    11.00000    0.02388    0.01751 =
         0.01274    0.00684   -0.00068    0.00197
N2    4    1.049549    0.835537    0.355601    11.00000    0.01667    0.03340 =
         0.02674    0.01605    0.00262    0.00340
C8    1    0.414728    0.866133    0.329689    11.00000    0.01419    0.01429 =
         0.01474    0.00141    0.00241    0.00005
AFIX  43
H8    2    0.316023    0.844355    0.346280    11.00000   -1.20000
AFIX   0
C5    1    0.792953    0.775849    0.437924    11.00000    0.01482    0.01231 =
         0.01203    0.00460    0.00143    0.00027
AFIX  13
H5    2    0.802269    0.835219    0.546091    11.00000   -1.20000
AFIX   0
C3    1    0.781149    0.533132    0.526062    11.00000    0.01579    0.01574 =
         0.01485    0.00600    0.00302    0.00383
C6    1    0.672324    0.836587    0.362649    11.00000    0.01524    0.01024 =
         0.01150    0.00194    0.00071    0.00102
C12   1    0.937187    0.807923    0.390198    11.00000    0.01831    0.01547 =
         0.01514    0.00700   -0.00076    0.00203
C2    1    0.757561    0.607287    0.419942    11.00000    0.01558    0.01332 =
         0.01284    0.00501    0.00175    0.00208
C11   1    0.703654    0.927931    0.277249    11.00000    0.01497    0.01453 =
         0.01755    0.00651    0.00238    0.00012
AFIX  43
H11   2    0.801897    0.948359    0.258768    11.00000   -1.20000
AFIX   0
C13   1    0.853732    0.602697    0.680321    11.00000    0.01821    0.01597 =
         0.01375    0.00653    0.00153    0.00484
C7    1    0.527181    0.805215    0.387166    11.00000    0.01673    0.01177 =
         0.01376    0.00382    0.00259    0.00026
AFIX  43
H7    2    0.505096    0.741289    0.443975    11.00000   -1.20000
AFIX   0
C9    1    0.449729    0.959562    0.247448    11.00000    0.01715    0.01202 =
         0.01381    0.00091   -0.00140    0.00310
C10   1    0.592061    0.989675    0.218625    11.00000    0.01993    0.01400 =
         0.01740    0.00717    0.00268    0.00177
AFIX  43
H10   2    0.613284    1.051554    0.159716    11.00000   -1.20000
AFIX   0
C1    1    0.685677    0.490210    0.299288    11.00000    0.01861    0.01318 =
         0.01409    0.00545    0.00184    0.00226
C18   1    0.978453    0.714042    0.716060    11.00000    0.01676    0.02244 =
         0.01653    0.00955    0.00150    0.00275
AFIX  43
H18   2    1.018659    0.743495    0.640618    11.00000   -1.20000
AFIX   0
C17   1    1.043928    0.781903    0.861831    11.00000    0.01946    0.02766 =
         0.01949    0.00996   -0.00186   -0.00113
AFIX  43
H17   2    1.128073    0.858583    0.885775    11.00000   -1.20000
AFIX   0
C4    1    0.572932    0.344711    0.056457    11.00000    0.03266    0.01411 =
         0.01675    0.00040   -0.00670    0.00156
AFIX 137
H4A   2    0.536561    0.360698   -0.035021    11.00000   -1.50000
H4B   2    0.491454    0.296247    0.092015    11.00000   -1.50000
H4C   2    0.649472    0.277391    0.037389    11.00000   -1.50000
AFIX   0
C14   1    0.796845    0.558435    0.791926    11.00000    0.02726    0.02231 =
         0.01951    0.01019    0.00153   -0.00265
AFIX  43
H14   2    0.712111    0.482564    0.768564    11.00000   -1.20000
AFIX   0
C16   1    0.987082    0.738295    0.972794    11.00000    0.02914    0.03279 =
         0.01521    0.00840   -0.00231   -0.00130
AFIX  43
H16   2    1.031783    0.785231    1.072413    11.00000   -1.20000
AFIX   0
C15   1    0.864372    0.625530    0.936997    11.00000    0.03497    0.03487 =
         0.01715    0.01363    0.00310   -0.00321
AFIX  43
H15   2    0.826365    0.594078    1.012328    11.00000   -1.20000
AFIX   0
HKLF 4

REM  10681-12188_cat8-147_a.res in P-1
REM R1 =  0.0389 for    2983 Fo > 4sig(Fo)  and  0.0395 for all    3086 data
REM    209 parameters refined using      0 restraints

END

WGHT      0.0645      0.3152

REM Highest difference peak  0.281,  deepest hole -0.433,  1-sigma level  0.091
Q1    1   0.4107  0.8659  0.5755  11.00000  0.05    0.28
Q2    1   1.0419  1.0226  0.9794  11.00000  0.05    0.27
Q3    1   0.3407  1.2725  0.3099  11.00000  0.05    0.24
Q4    1   0.8348  0.8865  0.5802  11.00000  0.05    0.24
Q5    1   0.7537  0.7255  1.0966  11.00000  0.05    0.24
;
_shelx_res_checksum              50074
_shelx_hkl_file
;
   0   0  -1  855.65   18.63
   0   0   1  882.37   18.74
   0   0   1  855.03   18.75
   0   0  -1  883.92   18.69
   0   0  -1  839.63   18.85
   0   0  -1  914.06   18.93
   0   0  -1  801.99   18.70
   0   0   1  894.41   18.51
   0   0  -2 1390.90   31.21
   0   0  -2 1399.27   31.39
   0   0  -2 1495.34   31.33
   0   0   2 1476.83   31.38
   0   0   2 1458.52   31.35
   0   0  -2 1413.44   31.38
   0   0  -2 1475.92   31.64
   0   0   2 1442.16   30.85
   0   0  -2 1500.22   31.78
   0   0  -3   66.91    2.37
   0   0  -3   75.69    2.60
   0   0   3   68.04    2.44
   0   0  -3   73.84    2.87
   0   0  -3   71.84    2.90
   0   0   3   73.33    2.49
   0   0  -3   68.61    2.32
   0   0  -4   51.39    2.35
   0   0   4   52.47    2.25
   0   0  -4   52.00    2.70
   0   0  -4   52.40    2.75
   0   0  -5  121.37    4.51
   0   0  -5  118.99    5.08
   0   0   6  575.65   16.26
   0   0  -6  565.87   16.45
   0   0  -7   21.95    2.55
   0   0   7   23.25    2.58
   0   0   7   20.64    2.46
   0   0   7   20.10    2.14
   0   0   7   26.47    2.69
   0   0   7   26.33    2.35
   0   0   8  366.41   12.74
   0   0   8  338.07   12.57
   0   0   8  374.24   11.72
   0   0   9  128.01    6.51
   0   0   9  133.12    5.89
   0   0  10    2.36    0.72
   0   0  10    2.51    0.70
   0   0  10    2.58    0.92
   0   0  11    4.02    0.69
   0  -1  11  230.89    7.27
   0  -1  10    5.12    1.25
   0  -1   9   21.48    2.53
   0  -1   9   21.77    2.62
   0  -1   8  128.87    6.70
   0  -1   8  132.76    6.01
   0  -1   8  131.59    6.03
   0  -1   7  415.31   12.61
   0  -1   7  424.72   13.64
   0  -1   7  447.30   12.95
   0   1  -6  223.25    8.31
   0  -1   5 1256.49   28.91
   0   1  -5 1222.43   29.98
   0   1  -5 1308.53   29.24
   0   1  -4   57.75    2.80
   0  -1   4   55.11    2.41
   0   1  -4   52.85    2.38
   0   1  -3  475.36   11.88
   0   1  -3  516.56   11.89
   0   1  -3  511.58   12.30
   0  -1   3  517.63   11.96
   0   1  -2  388.44    8.81
   0  -1   2  355.11    8.79
   0   1  -2  397.97    9.05
   0   1  -2  361.92    8.71
   0  -1   2  365.23    8.28
   0  -1   2  393.91    8.66
   0   1  -1  232.92    5.55
   0   1  -1  232.64    5.51
   0  -1   1  242.69    5.49
   0  -1   1  242.66    5.73
   0   1  -1  245.28    5.45
   0   1   0   30.59    1.04
   0   1   0   35.90    1.24
   0   1   0   31.52    1.09
   0   1   0   35.12    0.99
   0   1   0   33.81    1.11
   0   1   0   29.10    0.99
   0  -1   0   29.42    1.14
   0   1   0   34.50    1.22
   0   1   1   10.20    0.65
   0  -1  -1    9.73    0.55
   0  -1  -1    9.08    0.52
   0   1   1   11.36    0.55
   0   1   1   10.91    0.63
   0  -1  -1    9.88    0.39
   0  -1  -1   11.16    0.52
   0  -1  -1    9.86    0.50
   0  -1  -1    9.81    0.59
   0  -1  -1    9.44    0.56
   0   1   1    9.37    0.68
   0  -1  -1   10.39    0.62
   0  -1  -2 7079.64  154.56
   0   1   2 7304.72  154.30
   0  -1  -2 7402.96  154.32
   0   1   2 7144.63  154.43
   0  -1  -2 7248.43  154.57
   0   1   2 7033.86  155.02
   0   1   2 7353.25  154.68
   0  -1  -2 7420.06  154.57
   0  -1  -2 7260.69  154.74
   0  -1  -2 6935.31  154.93
   0  -1  -2 7536.82  154.64
   0  -1  -3   50.59    2.41
   0   1   3   46.55    2.13
   0  -1  -3   47.20    2.26
   0   1   3   48.51    2.45
   0  -1  -3   51.86    2.10
   0  -1  -3   47.45    1.98
   0  -1  -3   47.03    2.04
   0  -1  -3   46.89    2.09
   0  -1  -4  785.60   19.14
   0   1   4  796.53   19.44
   0  -1  -4  744.63   19.28
   0  -1  -4  746.19   18.25
   0   1   4  788.64   18.75
   0  -1  -4  788.88   18.26
   0  -1  -5  238.91    8.56
   0  -1  -5  238.56    8.32
   0   1   6   42.45    3.24
   0   1   7  628.38   19.06
   0   1   7  633.87   18.58
   0   1   7  589.75   17.21
   0   1   8   45.52    3.82
   0   1   8   39.91    3.07
   0   1   9    4.28    1.00
   0   1   9    4.55    1.02
   0   1   9    4.47    1.20
   0   1  10    4.11    0.85
   0   1  10    3.71    0.82
   0  -2  11   19.19    1.91
   0  -2  11   19.19    1.70
   0  -2  10   60.72    3.74
   0  -2  10   73.56    4.47
   0  -2  10   75.42    4.62
   0  -2   9  205.47    8.12
   0  -2   9  210.10    8.89
   0  -2   8    0.38    0.53
   0   2  -8    0.57    0.50
   0   2  -7  149.24    6.83
   0  -2   6  160.03    5.77
   0   2  -5   25.40    1.80
   0  -2   5   30.23    1.93
   0   2  -4  369.58    9.35
   0  -2   4  381.62    9.45
   0  -2   3 3765.44   85.70
   0  -2   3 4223.17   85.66
   0  -2   3 4054.23   85.82
   0   2  -3 3907.18   85.58
   0  -2   2    5.35    0.58
   0   2  -2    4.80    0.47
   0   2  -2    4.44    0.56
   0   2  -2    5.35    0.47
   0  -2   2    4.75    0.42
   0  -2   1 2037.84   46.96
   0  -2   1 2025.09   47.45
   0   2  -1 2262.80   47.54
   0   2  -1 2220.55   46.46
   0   2  -1 1954.57   47.38
   0   2  -1 2040.23   47.49
   0  -2   1 2215.55   47.09
   0   2  -1 2001.09   47.44
   0   2  -1 2309.03   46.70
   0  -2   1 2159.56   47.29
   0  -2   0  436.00   11.02
   0   2   0  438.52   10.55
   0   2   0  453.87   10.80
   0  -2   0  449.44   10.58
   0   2   0  448.16   10.61
   0   2   0  459.49   11.07
   0  -2  -1 4618.35   96.93
   0  -2  -1 4664.98   97.03
   0  -2  -1 4501.22   97.13
   0  -2  -1 4559.23   97.22
   0  -2  -1 4566.12   97.04
   0  -2  -1 4563.91   97.34
   0  -2  -1 4498.68   96.99
   0   2   1 4378.07   97.32
   0   2   1 4551.23   97.86
   0   2   1 4572.95   97.42
   0   2   1 4508.30   97.77
   0   2   2 7007.70  153.38
   0  -2  -2 7115.50  153.22
   0  -2  -2 6915.32  153.22
   0  -2  -2 7369.21  153.12
   0  -2  -2 7636.86  153.34
   0   2   2 6779.92  153.60
   0  -2  -2 7336.71  153.23
   0  -2  -3 1536.51   33.89
   0  -2  -3 1536.14   34.27
   0  -2  -3 1526.49   33.85
   0  -2  -3 1460.97   33.75
   0   2   3 1457.73   34.45
   0  -2  -3 1515.69   34.08
   0  -2  -4 3229.23   69.14
   0  -2  -4 3037.27   70.09
   0   2   4 3081.67   69.84
   0  -2  -4 3099.53   69.23
   0  -2  -5   83.58    4.57
   0   2   5   91.13    4.73
   0   2   5   81.87    4.25
   0  -2  -5   96.70    4.11
   0   2   6  304.25   11.13
   0   2   6  316.39   10.06
   0   2   6  285.23   10.66
   0   2   7    4.97    1.53
   0   2   7    9.98    1.52
   0   2   8  571.04   15.98
   0   2   8  530.73   15.65
   0   2   9    4.02    0.92
   0   2   9    3.51    0.86
   0   2  10   10.87    1.19
   0   2  10   12.36    1.16
   0  -3  11    2.42    0.74
   0  -3  11    2.26    0.76
   0  -3  11    2.52    0.70
   0  -3  10  115.37    5.99
   0   3 -10  117.68    5.29
   0  -3  10  123.14    5.61
   0  -3   9  151.67    6.77
   0  -3   9  147.97    7.23
   0   3  -9  155.35    6.44
   0   3  -8  802.40   21.08
   0   3  -7  462.76   13.06
   0  -3   7  436.66   12.95
   0  -3   6    1.32    0.50
   0  -3   5  238.43    7.71
   0   3  -5  277.39    8.03
   0  -3   4   82.69    3.45
   0  -3   4   89.25    3.51
   0  -3   4   83.15    3.21
   0   3  -4   76.39    3.37
   0   3  -3   34.95    2.12
   0  -3   3   37.76    2.00
   0  -3   3   40.08    2.06
   0  -3   2    2.75    0.53
   0  -3   2    5.15    0.62
   0   3  -2    4.93    0.63
   0  -3   2    2.93    0.51
   0   3  -2    2.66    0.53
   0   3  -2    3.51    0.60
   0   3  -2    2.55    0.54
   0   3  -1 2360.78   52.14
   0   3  -1 2388.77   52.26
   0   3  -1 2360.85   51.63
   0   3  -1 2361.13   51.72
   0  -3   1 2346.26   52.17
   0  -3   1 2346.72   51.48
   0  -3   1 2410.58   51.91
   0  -3   1 2365.42   51.82
   0  -3   1 2462.74   51.63
   0   3   0    3.37    0.53
   0  -3   0    3.28    0.48
   0  -3   0    3.06    0.44
   0   3   0    3.01    0.55
   0  -3   0    3.07    0.50
   0  -3   0    3.04    0.41
   0   3   0    3.47    0.64
   0  -3  -1  384.81    9.58
   0  -3  -1  400.56    9.78
   0   3   1  397.60   10.42
   0  -3  -1  369.36    9.41
   0   3   1  395.82    9.65
   0  -3  -1  380.87    9.68
   0   3   1  385.22   10.65
   0   3   2   74.44    3.26
   0  -3  -2   73.56    2.97
   0   3   2   68.51    3.44
   0  -3  -2   71.18    2.83
   0  -3  -2   73.82    3.02
   0  -3  -2   71.26    3.01
   0  -3  -3  290.01    8.61
   0  -3  -3  289.95    8.42
   0  -3  -3  293.12    8.43
   0   3   3  311.49    9.65
   0  -3  -4 1945.69   42.24
   0   3   4 1876.46   42.67
   0   3   5   25.11    2.18
   0   3   5   25.54    2.69
   0   3   5   24.55    2.35
   0   3   6   84.13    4.45
   0   3   7  344.54   10.88
   0   3   7  309.80   11.16
   0   3   8   15.20    1.75
   0   3   8   20.35    2.16
   0   3   9   49.75    2.95
   0  -4  11   27.70    2.35
   0  -4  11   23.85    1.99
   0  -4  11   27.25    2.30
   0  -4  10   36.20    3.13
   0   4 -10   32.42    2.59
   0  -4  10   35.25    2.87
   0   4  -9  247.64    8.94
   0   4  -8  139.37    6.12
   0   4  -7  597.08   16.13
   0   4  -7  549.28   17.48
   0  -4   7  576.22   16.19
   0  -4   6  570.97   15.33
   0   4  -6  546.35   15.18
   0   4  -6  534.74   16.19
   0   4  -5    0.26    0.34
   0  -4   5    0.84    0.43
   0  -4   5    1.00    0.46
   0   4  -5    0.39    0.31
   0  -4   4  118.71    4.68
   0   4  -4  116.41    5.06
   0  -4   4  122.66    4.67
   0   4  -4  121.74    4.78
   0  -4   4  126.20    4.81
   0  -4   3  147.77    5.17
   0  -4   3  132.34    4.93
   0   4  -3  140.14    5.40
   0   4  -3  146.29    5.35
   0  -4   2 1400.97   33.85
   0   4  -2 1393.89   34.26
   0  -4   2 1470.52   34.00
   0  -4   2 1454.41   34.26
   0  -4   1 1867.76   41.09
   0  -4   1 1837.47   40.97
   0   4  -1 1895.75   40.99
   0   4  -1 1794.81   41.57
   0  -4   1 1783.39   41.30
   0   4  -1 1856.74   41.67
   0   4   0   64.87    3.25
   0   4   0   55.45    2.93
   0  -4   0   59.68    3.07
   0  -4   0   59.80    2.78
   0  -4   0   63.94    2.55
   0  -4  -1    4.62    0.69
   0  -4  -1    2.88    0.65
   0   4   1    3.04    0.71
   0  -4  -1    2.73    0.70
   0   4   1    3.51    0.67
   0   4   2   13.79    1.44
   0  -4  -2   13.53    1.46
   0  -4  -2   12.46    1.28
   0  -4  -2   14.37    1.29
   0  -4  -2   13.30    1.32
   0   4   2   12.64    1.64
   0  -4  -3 2646.09   58.28
   0  -4  -3 2681.81   58.64
   0  -4  -3 2642.75   59.35
   0   4   3 2478.56   60.32
   0   4   3 2590.23   59.28
   0   4   4  155.07    6.75
   0   4   4  143.83    6.26
   0  -4  -4  152.46    5.98
   0   4   5  785.82   22.99
   0   4   5  943.66   25.03
   0   4   6  237.77    9.36
   0   4   7   22.69    2.10
   0   4   7   19.77    2.27
   0   4   8   30.07    2.33
   0   4   8   27.87    2.32
   0   4   9    0.04    0.23
   0  -5  11    1.64    0.66
   0  -5  11    0.98    0.53
   0   5 -10  102.86    5.05
   0  -5  10  116.52    5.44
   0   5  -9   41.65    3.29
   0   5  -9   36.53    3.00
   0   5  -8   69.97    4.23
   0   5  -7    6.30    1.23
   0   5  -7    5.48    1.39
   0  -5   7    8.05    1.42
   0  -5   6   77.56    4.16
   0   5  -6   68.91    4.57
   0  -5   5  152.80    6.24
   0   5  -5  179.60    6.68
   0   5  -5  157.09    6.93
   0   5  -5  161.18    6.85
   0  -5   5  159.28    6.27
   0  -5   4 1482.18   34.07
   0  -5   4 1436.98   33.81
   0   5  -4 1507.20   34.72
   0   5  -4 1447.80   34.13
   0   5  -4 1395.02   34.80
   0  -5   4 1390.19   33.99
   0  -5   3    1.37    0.52
   0  -5   3    1.70    0.56
   0   5  -3    1.42    0.57
   0  -5   2  376.28   11.32
   0  -5   2  386.48   10.88
   0   5  -2  387.72   11.27
   0  -5   2  372.98   10.79
   0  -5   1    2.01    0.54
   0   5  -1    1.80    0.59
   0  -5   1    2.24    0.68
   0  -5   1    1.94    0.60
   0   5  -1    3.50    0.82
   0   5   0  593.16   16.58
   0   5   0  622.29   16.45
   0  -5   0  602.04   15.77
   0  -5  -1 1093.58   26.74
   0  -5  -1 1061.91   25.85
   0  -5  -2    7.57    1.24
   0  -5  -2    9.41    1.24
   0   5   2    9.01    1.30
   0   5   2    8.62    1.60
   0   5   3    7.96    1.62
   0  -5  -3    7.59    1.22
   0  -5  -3    7.42    1.32
   0   5   3    6.59    1.35
   0   5   3    4.85    1.09
   0   5   4   44.21    3.59
   0   5   4   39.41    3.41
   0   5   5 1010.25   26.24
   0   5   5  940.95   26.14
   0   5   6  194.11    8.02
   0   5   6  200.13    8.18
   0   5   7  292.39    9.48
   0   5   7  277.05    9.39
   0   5   8    0.69    0.36
   0   5   8    0.71    0.38
   0  -6  11   78.92    4.04
   0  -6  11   98.01    4.10
   0   6 -10   60.37    3.78
   0  -6  10   66.92    3.83
   0   6  -9   63.24    4.14
   0   6  -9   81.43    4.64
   0   6  -8   29.23    2.71
   0   6  -7  155.29    6.72
   0   6  -7  149.85    6.63
   0   6  -6  106.70    5.44
   0  -6   6  105.33    5.36
   0   6  -6   95.57    5.00
   0  -6   6  111.37    5.39
   0   6  -6  104.17    6.11
   0   6  -6   90.11    4.85
   0  -6   5  538.43   15.50
   0  -6   5  546.56   15.84
   0  -6   5  512.83   15.53
   0   6  -5  574.77   15.93
   0  -6   4   97.76    5.00
   0   6  -4  108.11    5.12
   0   6  -4  104.87    5.39
   0  -6   4  102.79    5.03
   0  -6   3   96.67    4.88
   0   6  -3   94.85    4.62
   0  -6   3   93.87    4.65
   0   6  -3  102.19    5.08
   0   6  -2   68.57    4.02
   0  -6   2   66.34    3.67
   0  -6   2   67.56    3.71
   0  -6   2   68.47    4.09
   0   6  -1    1.08    0.55
   0  -6   1    0.98    0.48
   0  -6   1    1.67    0.57
   0  -6   1    1.93    0.73
   0   6   0  203.09    8.47
   0  -6   0  216.71    7.89
   0  -6   0  207.75    8.04
   0   6   1   55.24    3.81
   0   6   1   53.10    3.71
   0   6   1   44.34    3.78
   0   6   1   49.97    3.85
   0  -6  -1   54.22    3.55
   0   6   2  523.02   16.21
   0   6   2  494.73   15.21
   0   6   3   37.21    3.34
   0   6   4  189.08    8.28
   0   6   5  377.97   12.14
   0   6   5  346.16   12.06
   0   6   6   14.78    1.74
   0   6   6   11.70    1.59
   0   6   7  646.57   16.06
   0   6   7  631.19   16.09
   0   7 -11   20.08    1.60
   0  -7  11   22.34    1.62
   0  -7  11   19.05    1.70
   0   7 -10    4.26    0.98
   0  -7  10    3.14    0.79
   0   7  -9   11.75    1.67
   0   7  -8  250.46    9.18
   0   7  -7   28.07    2.67
   0   7  -6   95.36    5.17
   0  -7   5    2.26    0.87
   0  -7   5    2.05    0.82
   0   7  -5    3.65    1.01
   0  -7   5    1.52    0.69
   0   7  -5    3.29    0.95
   0   7  -5    3.35    0.96
   0  -7   5    1.62    0.72
   0   7  -5    1.28    0.69
   0  -7   4  228.47    8.87
   0   7  -4  238.65    8.76
   0   7  -4  223.13    8.60
   0   7  -4  214.44    8.40
   0  -7   4  201.40    8.18
   0  -7   4  221.77    8.62
   0   7  -4  212.43    8.21
   0   7  -4  229.74    9.25
   0   7  -3   19.56    2.17
   0  -7   3   18.18    2.07
   0   7  -3   15.41    1.99
   0   7  -3   18.21    2.34
   0  -7   3   18.61    2.24
   0   7  -3   20.01    2.48
   0   7  -3   17.57    2.21
   0  -7   3   17.89    2.06
   0   7  -2  284.75   10.73
   0  -7   2  264.96    9.56
   0  -7   2  270.63   10.28
   0   7  -2  276.24    9.78
   0   7  -2  284.42   10.31
   0   7  -2  263.23    9.78
   0   7  -2  285.02   10.32
   0   7  -2  301.55    9.99
   0   7  -2  298.08   10.90
   0   7  -1    0.56    0.50
   0  -7   1    0.48    0.56
   0   7  -1    1.04    0.60
   0   7  -1    1.26    0.70
   0   7  -1    0.33    0.59
   0   7  -1    1.62    0.70
   0   7  -1    0.13    0.49
   0   7   0  365.17   13.13
   0   7   0  361.42   12.99
   0   7   0  377.14   11.91
   0  -7   0  345.42   12.57
   0   7   0  373.41   12.47
   0  -7   0  355.61   12.10
   0   7   1   15.16    1.90
   0   7   1   19.96    2.39
   0   7   1   17.70    2.25
   0   7   1   21.28    2.71
   0  -7  -1   21.88    2.46
   0   7   2  275.72   10.59
   0   7   2  286.22   11.32
   0   7   3   71.82    4.67
   0   7   4  340.57   11.55
   0   7   5   11.18    1.51
   0   7   6    6.55    0.94
   0   8 -10  194.86    6.78
   0   8  -9    1.43    0.62
   0   8  -9    0.68    0.52
   0   8  -8    1.30    0.60
   0   8  -7   84.49    4.85
   0   8  -6    6.17    1.33
   0   8  -6    7.95    1.51
   0   8  -5  137.07    6.97
   0   8  -5  130.60    6.33
   0   8  -5  127.00    6.28
   0   8  -4   25.28    2.52
   0   8  -4   21.23    2.46
   0   8  -4   22.15    2.44
   0   8  -4   22.89    2.75
   0  -8   4   18.82    2.39
   0  -8   3    1.25    0.70
   0   8  -3   -0.14    0.45
   0   8  -3    0.97    0.71
   0   8  -3    1.71    0.81
   0   8  -3    0.65    0.58
   0   8  -2  204.92    9.24
   0   8  -2  212.92    8.89
   0  -8   2  200.87    8.75
   0   8  -2  204.04    8.49
   0   8  -2  225.80    8.63
   0   8  -2  209.59    9.26
   0   8  -1    3.31    1.18
   0   8  -1    3.53    1.09
   0   8  -1    4.49    1.31
   0   8  -1    5.88    1.36
   0   8   0   11.39    2.03
   0   8   0   12.63    1.89
   0   8   0    9.77    1.87
   0   8   1    8.06    1.52
   0   8   1    6.37    1.52
   0   8   1    8.58    1.77
   0   8   2    1.27    0.75
   0   8   2    0.37    0.64
   0   8   2    0.21    0.53
   0   8   3   59.30    3.80
   0   8   3   56.55    3.93
   0   8   4  120.32    5.35
   0   8   4  119.35    5.09
   0   8   5   67.15    2.97
   0   9 -10  206.10    6.32
   0   9  -9  148.04    5.47
   0   9  -9  149.94    5.63
   0   9  -8  174.04    6.80
   0   9  -8  197.14    7.06
   0   9  -7   33.25    2.73
   0   9  -6   56.66    3.77
   0   9  -6   54.13    3.72
   0   9  -6   58.33    3.84
   0   9  -5    6.63    1.38
   0   9  -5    9.03    1.49
   0   9  -5    8.21    1.63
   0   9  -5    6.98    1.40
   0   9  -4    5.11    1.24
   0   9  -4    5.56    1.38
   0   9  -4    4.74    1.21
   0   9  -3   51.89    4.20
   0   9  -3   56.01    3.89
   0   9  -3   52.93    3.90
   0   9  -2   87.82    5.04
   0   9  -2   90.81    5.67
   0   9  -2   91.36    5.68
   0   9  -1  181.55    7.78
   0   9  -1  172.97    7.15
   0   9  -1  174.80    8.12
   0   9  -1  166.97    8.08
   0   9   0  373.61   13.00
   0   9   0  372.93   13.15
   0   9   0  391.69   12.48
   0   9   1   34.30    2.74
   0   9   1   36.20    3.19
   0   9   1   35.12    3.08
   0   9   2   49.54    3.37
   0   9   2   50.59    3.42
   0   9   3   59.68    3.17
   0  10  -9    5.04    0.72
   0  10  -8  146.06    5.28
   0  10  -7    2.08    0.68
   0  10  -7    0.84    0.51
   0  10  -6    0.73    0.52
   0  10  -6    1.04    0.53
   0  10  -6    1.09    0.55
   0  10  -5  189.63    7.27
   0  10  -5  181.54    7.74
   0  10  -5  186.72    7.37
   0  10  -4   36.81    2.96
   0  10  -4   43.24    3.42
   0  10  -3   10.97    1.76
   0  10  -3    7.98    1.38
   0  10  -2   48.26    3.15
   0  10  -2   47.58    3.62
   0  10  -1   69.08    4.29
   0  10   0   22.97    2.25
   0  10   1   45.08    2.81
   0  11  -6  321.13    9.01
   0  11  -5   57.85    2.95
   0  11  -4   49.27    2.72
   0  11  -3   54.22    2.78
   0  11  -3   54.68    3.21
   0  11  -2   51.37    2.98
   0  11  -1    0.11    0.26
  -1  11  -1  142.47    5.18
  -1  11  -2    2.99    0.64
  -1  11  -2    2.02    0.65
  -1  11  -3   38.56    2.68
  -1  11  -3   34.28    2.23
  -1  11  -4   14.49    1.45
  -1  11  -5   14.15    1.40
  -1  11  -6   58.11    2.74
  -1  10   2  107.31    4.16
  -1  10   1  126.95    5.34
  -1  10   0   60.69    3.70
  -1  10   0   57.83    3.70
  -1  10  -1  220.41    8.47
  -1  10  -1  207.51    7.46
  -1  10  -2    1.00    0.60
  -1  10  -2    1.20    0.67
  -1  10  -3   69.17    4.52
  -1  10  -3   72.06    4.17
  -1  10  -3   67.64    4.00
  -1  10  -4  469.89   14.08
  -1  10  -4  470.65   14.81
  -1  10  -5   22.52    2.25
  -1  10  -6   95.17    4.55
  -1  10  -7   48.20    2.92
  -1  10  -8  142.15    5.15
  -1   9   3  354.07   10.74
  -1   9   2   29.11    2.38
  -1   9   2   26.82    2.57
  -1   9   1   38.94    3.07
  -1   9   1   31.80    3.06
  -1   9   1   38.62    3.23
  -1   9   0    5.13    1.11
  -1   9   0    6.53    1.46
  -1   9   0    3.66    1.12
  -1   9   0    3.59    1.04
  -1   9  -1   30.42    2.76
  -1   9  -1   27.45    2.98
  -1   9  -1   29.79    2.92
  -1   9  -1   27.46    3.03
  -1   9  -2   66.37    4.25
  -1   9  -2   62.43    4.37
  -1   9  -2   60.15    4.53
  -1   9  -2   61.33    4.57
  -1   9  -3  814.60   22.02
  -1   9  -3  750.48   21.38
  -1   9  -3  787.70   22.69
  -1   9  -4    4.71    1.23
  -1   9  -4    4.77    1.34
  -1   9  -4    7.32    1.41
  -1   9  -5  208.22    9.03
  -1   9  -5  226.48    8.41
  -1   9  -5  192.72    7.97
  -1   9  -5  203.16    8.35
  -1   9  -6  186.13    7.63
  -1   9  -6  201.94    7.88
  -1   9  -7   11.94    1.67
  -1   9  -8   17.03    1.78
  -1   9  -9   45.04    2.56
  -1   9  -9   45.61    2.74
  -1   9 -10   22.60    1.49
  -1   9 -10   28.54    1.76
  -1   8   5    5.11    0.90
  -1   8   5    5.01    0.79
  -1   8   4    7.18    1.32
  -1   8   4    6.96    1.17
  -1   8   3   38.93    2.99
  -1   8   2   52.76    4.16
  -1   8   2   49.84    3.71
  -1   8   1   37.56    3.01
  -1   8   1   30.66    3.03
  -1   8   1   34.66    3.37
  -1   8   1   35.75    3.49
  -1   8   0   87.40    5.60
  -1   8   0   93.01    5.82
  -1   8   0   93.99    5.51
  -1   8   0   94.89    5.15
  -1   8   0  101.48    5.34
  -1   8  -1  832.86   22.98
  -1   8  -1  844.11   24.29
  -1   8  -1  857.18   23.81
  -1   8  -1  892.49   24.66
  -1   8  -2   38.95    3.44
  -1   8  -2   44.30    3.88
  -1   8  -2   47.59    3.96
  -1   8  -2   37.44    3.18
   1  -8   2   38.75    3.43
  -1   8  -2   51.98    3.70
  -1   8  -2   41.33    3.36
  -1   8  -3   42.77    3.41
  -1   8  -3   43.56    3.89
   1  -8   3   41.28    3.53
  -1   8  -3   41.73    3.33
  -1   8  -3   37.65    3.29
  -1   8  -3   43.15    3.58
  -1   8  -3   53.06    4.15
  -1   8  -4  173.18    7.80
   1  -8   4  190.39    8.21
  -1   8  -4  192.85    8.63
  -1   8  -4  199.59    7.85
  -1   8  -4  177.20    7.63
  -1   8  -5  246.44   10.26
  -1   8  -5  254.84    9.63
  -1   8  -5  254.90    9.41
  -1   8  -6   50.83    3.73
  -1   8  -7  224.95    8.85
  -1   8  -7  261.17    9.29
  -1   8  -8  134.45    5.86
  -1   8  -8  123.82    5.91
  -1   8  -9  276.33    9.34
  -1   8 -10   31.89    2.26
  -1   7   6   49.19    2.75
  -1   7   5    2.16    0.76
  -1   7   4  125.11    6.17
  -1   7   3   56.51    4.08
  -1   7   3   58.29    4.19
  -1   7   2  118.71    6.30
  -1   7   1  341.71   11.13
   1  -7  -1  330.77   11.59
  -1   7   1  352.44   12.08
  -1   7   0  345.63   12.56
  -1   7   0  517.47   15.12
  -1   7   0  445.77   13.54
  -1   7   0  459.65   14.18
   1  -7   0  405.38   13.90
  -1   7  -1  461.75   13.71
  -1   7  -1  455.37   13.68
   1  -7   1  415.54   14.02
  -1   7  -1  443.08   14.50
  -1   7  -1  431.87   14.48
  -1   7  -1  488.00   14.53
  -1   7  -1  399.12   13.47
  -1   7  -2    2.93    0.91
   1  -7   2    2.29    0.81
  -1   7  -2    2.16    0.86
  -1   7  -2    5.03    1.21
   1  -7   2    2.51    0.86
  -1   7  -2    2.65    0.86
  -1   7  -2    2.38    0.88
  -1   7  -2    3.45    0.96
  -1   7  -3  378.59   11.79
   1  -7   3  369.87   12.05
  -1   7  -3  374.52   12.83
  -1   7  -3  372.61   12.70
  -1   7  -3  354.21   11.65
  -1   7  -3  355.39   12.10
   1  -7   3  366.15   12.13
  -1   7  -3  364.05   12.00
  -1   7  -4   24.98    2.50
  -1   7  -4   21.65    2.28
   1  -7   4   26.67    2.65
  -1   7  -4   27.70    2.87
   1  -7   4   28.55    2.74
   1  -7   4   27.42    2.65
  -1   7  -4   29.68    2.63
  -1   7  -5  238.52    9.80
  -1   7  -5  252.33    9.22
   1  -7   5  242.63    9.29
   1  -7   5  226.33    9.21
  -1   7  -5  239.27    9.18
  -1   7  -6  856.58   22.93
  -1   7  -7  720.31   19.95
  -1   7  -8  136.78    6.47
  -1   7  -9   81.19    4.57
  -1   7 -10    7.81    1.27
  -1   7 -11  316.15    8.81
   1  -7  11  302.21    8.81
  -1   6   7  114.47    4.64
  -1   6   6   61.95    3.84
  -1   6   5  284.12   10.50
  -1   6   4  205.87    8.79
  -1   6   3    2.02    0.85
  -1   6   3    2.63    0.97
  -1   6   2  175.76    8.30
  -1   6   2  193.27    8.16
  -1   6   1   61.90    4.33
  -1   6   1   71.77    4.45
   1  -6  -1   66.70    3.95
  -1   6   0   15.71    1.82
   1  -6   0   13.16    1.60
  -1   6   0   15.20    1.98
   1  -6   1   69.62    4.16
  -1   6  -1   71.68    3.78
  -1   6  -2    9.49    1.27
   1  -6   2    8.03    1.25
   1  -6   2    8.90    1.43
   1  -6   2   11.55    1.57
   1  -6   3  174.73    6.82
  -1   6  -3  164.14    6.35
   1  -6   3  158.37    6.52
  -1   6  -4   68.53    3.89
   1  -6   4   62.02    3.85
   1  -6   4   62.79    3.81
   1  -6   4   64.35    3.82
  -1   6  -5   26.20    2.41
   1  -6   5   23.89    2.29
  -1   6  -5   20.55    2.09
   1  -6   5   23.23    2.36
  -1   6  -6   25.83    2.41
  -1   6  -6   27.98    2.60
  -1   6  -6   22.93    2.79
  -1   6  -6   25.54    2.43
  -1   6  -7    6.23    1.27
  -1   6  -8  123.01    6.08
  -1   6  -8  148.47    6.76
   1  -6   9   76.32    4.39
  -1   6  -9   77.21    4.58
  -1   6 -10   50.12    3.32
   1  -6  10   51.42    3.26
   1  -6  11  113.63    4.39
   1  -6  11  100.87    4.43
  -1   5   8   89.33    3.83
  -1   5   8   84.08    3.69
  -1   5   7   85.41    4.45
  -1   5   7   88.63    4.65
  -1   5   6  247.10    9.31
  -1   5   6  246.65    9.58
  -1   5   5  270.11   10.42
  -1   5   4    5.33    1.46
   1  -5  -4    3.71    0.94
  -1   5   4    3.97    1.18
  -1   5   3  585.87   18.06
   1  -5  -3  603.57   15.90
  -1   5   3  613.57   17.49
  -1   5   3  545.85   16.13
  -1   5   3  580.54   17.36
   1  -5  -3  581.38   16.16
   1  -5  -3  609.87   16.99
   1  -5  -2   87.38    4.48
  -1   5   2   88.23    4.18
   1  -5  -2   82.31    4.01
  -1   5   2   99.62    5.49
   1  -5  -2   87.56    4.21
   1  -5  -1    1.30    0.47
  -1   5   1    1.04    0.61
   1  -5  -1    1.62    0.51
   1  -5  -1    1.26    0.53
   1  -5   0 1815.29   43.20
  -1   5   0 1927.28   44.38
  -1   5   0 1862.75   43.51
   1  -5   1    0.92    0.43
  -1   5  -1    0.98    0.43
  -1   5  -1    1.96    0.64
   1  -5   1    0.35    0.30
  -1   5  -1    0.49    0.37
   1  -5   2 1083.17   27.11
  -1   5  -2 1173.60   26.55
  -1   5  -2 1105.81   26.51
  -1   5  -3    1.34    0.49
   1  -5   3    2.55    0.64
   1  -5   3    1.05    0.44
   1  -5   3    1.74    0.55
  -1   5  -3    1.70    0.56
   1  -5   4  115.27    5.07
   1  -5   4  120.22    5.05
  -1   5  -4  120.53    5.56
  -1   5  -4  112.67    4.94
   1  -5   4  119.84    5.00
   1  -5   5  433.08   12.89
   1  -5   5  448.47   12.63
  -1   5  -5  417.10   13.58
  -1   5  -5  443.04   12.87
   1  -5   5  441.56   12.53
   1  -5   6  580.62   16.52
  -1   5  -6  566.36   17.80
   1  -5   7  126.64    5.90
  -1   5  -7  124.04    6.81
  -1   5  -7  143.84    6.17
  -1   5  -8  952.49   24.65
  -1   5  -8  929.29   25.00
   1  -5   9  221.54    8.55
  -1   5  -9  221.84    8.67
  -1   5  -9  218.05    8.29
  -1   5 -10  113.96    5.09
   1  -5  10  107.28    5.17
   1  -5  10  103.51    5.33
   1  -5  11   72.94    3.72
   1  -5  11   69.76    3.57
   1  -5  11   73.23    3.53
  -1   4   9   24.88    1.73
  -1   4   9   23.61    1.68
  -1   4   8   46.08    3.12
  -1   4   8   49.61    3.22
  -1   4   8   53.83    2.98
  -1   4   7  269.31    9.12
  -1   4   7  285.24   10.23
  -1   4   6  211.42    8.81
  -1   4   5  111.83    6.68
   1  -4  -5  147.32    6.12
   1  -4  -4  109.26    4.77
  -1   4   4   96.95    4.84
  -1   4   4  107.73    5.92
   1  -4  -4  106.80    4.87
   1  -4  -3  143.94    5.21
   1  -4  -3  146.05    5.37
   1  -4  -3  140.02    5.46
   1  -4  -3  136.95    5.37
  -1   4   3  134.38    5.50
  -1   4   2    2.25    0.58
   1  -4  -2    3.46    0.64
  -1   4   2    3.02    0.87
   1  -4  -2    2.43    0.61
  -1   4   2    3.04    0.68
   1  -4  -2    3.43    0.67
   1  -4  -2    4.07    0.71
  -1   4   1  251.23    7.38
   1  -4  -1  256.74    7.51
  -1   4   0    6.40    0.89
  -1   4   0    6.56    0.85
   1  -4   0    6.27    0.97
  -1   4   0    4.50    0.66
  -1   4  -1  318.24    8.99
  -1   4  -1  318.19    8.44
   1  -4   1  321.63    8.54
  -1   4  -1  289.19    9.00
   1  -4   1  310.26    9.25
  -1   4  -1  324.04    8.89
   1  -4   2  157.52    5.61
  -1   4  -2  170.81    5.51
  -1   4  -2  175.32    5.69
  -1   4  -2  173.21    5.86
   1  -4   2  165.86    5.62
   1  -4   3  169.72    5.40
   1  -4   3  156.50    5.30
  -1   4  -3  172.22    5.95
   1  -4   3  164.28    5.57
  -1   4  -3  160.29    5.91
  -1   4  -3  169.95    5.62
  -1   4  -4  378.23   11.18
   1  -4   4  383.11   10.68
   1  -4   4  391.75   10.72
  -1   4  -4  379.95   11.41
  -1   4  -4  413.66   11.11
  -1   4  -5    1.66    0.54
   1  -4   5    1.96    0.57
   1  -4   5    1.83    0.55
  -1   4  -5    1.88    0.69
   1  -4   6  110.51    4.93
  -1   4  -6  115.52    5.75
  -1   4  -7    2.45    0.89
   1  -4   7    2.54    0.78
  -1   4  -8    9.13    1.46
  -1   4  -8    8.28    1.49
  -1   4  -9   87.44    4.70
   1  -4   9  102.38    5.28
   1  -4  10   57.85    3.90
  -1   4 -10   62.30    3.56
   1  -4  10   62.23    3.81
   1  -4  11   10.83    1.38
   1  -4  11   14.36    1.49
   1  -4  11   11.20    1.42
  -1   3   9  155.39    5.93
  -1   3   9  159.63    5.75
  -1   3   8  120.21    5.46
  -1   3   8  141.37    6.30
  -1   3   7  161.34    6.64
  -1   3   6  141.46    6.04
   1  -3  -5  183.71    6.87
   1  -3  -5  201.84    6.97
  -1   3   5  186.83    8.08
  -1   3   5  190.83    8.25
  -1   3   5  174.16    6.94
   1  -3  -4  255.80    8.04
   1  -3  -4  280.10    8.29
  -1   3   4  251.73    9.21
  -1   3   4  243.57    8.29
   1  -3  -4  252.60    8.00
   1  -3  -4  257.62    8.15
   1  -3  -3    1.39    0.46
   1  -3  -3    1.58    0.46
   1  -3  -3    1.99    0.49
   1  -3  -3    2.42    0.57
   1  -3  -2   89.61    3.41
   1  -3  -2   83.90    3.27
  -1   3   2   89.63    3.59
   1  -3  -2   82.09    3.22
  -1   3   2   86.37    3.94
   1  -3  -2   89.52    3.52
   1  -3  -1  772.84   18.30
   1  -3  -1  788.41   18.19
  -1   3   1  640.88   18.39
  -1   3   1  820.63   18.25
  -1   3   1  785.43   18.37
   1  -3  -1  785.86   18.21
  -1   3   1  860.52   19.29
  -1   3   1  946.80   19.37
  -1   3   0   57.06    2.44
  -1   3   0   48.48    2.04
  -1   3   0   60.89    2.77
  -1   3   0   51.19    2.04
  -1   3   0   61.07    2.49
  -1   3   0   51.10    2.28
  -1   3   0   58.31    2.44
  -1   3  -1   32.57    1.77
  -1   3  -1   30.88    1.56
  -1   3  -1   34.21    1.72
   1  -3   1   33.86    1.87
  -1   3  -1   29.14    1.73
  -1   3  -2 2403.56   53.44
   1  -3   2 2412.60   53.11
  -1   3  -2 2501.97   53.79
  -1   3  -2 2422.66   53.83
  -1   3  -2 2521.31   53.74
   1  -3   2 2362.06   53.41
   1  -3   2 2506.30   53.39
   1  -3   2 2471.85   53.30
  -1   3  -2 2407.77   53.42
   1  -3   3   67.31    2.61
   1  -3   3   63.82    2.79
  -1   3  -3   75.57    3.19
   1  -3   3   68.06    2.81
  -1   3  -3   65.41    3.08
   1  -3   3   69.40    2.90
  -1   3  -3   80.74    3.10
  -1   3  -4  269.28    7.84
  -1   3  -4  252.83    7.81
   1  -3   4  258.84    7.59
   1  -3   4  272.29    7.58
  -1   3  -5 1001.83   23.55
   1  -3   5  946.77   23.26
   1  -3   6    1.59    0.54
   1  -3   7    1.02    0.50
  -1   3  -7    1.06    0.51
  -1   3  -8 1387.14   33.57
   1  -3   8 1390.13   34.31
   1  -3   9   71.27    4.63
   1  -3   9   77.84    4.55
   1  -3  10  497.43   15.21
   1  -3  10  507.54   15.09
   1  -3  10  516.64   14.74
   1  -3  11   19.85    1.87
   1  -3  11   20.58    1.75
   1  -3  11   17.01    1.77
  -1   2  10   41.63    2.36
  -1   2   9   44.37    3.08
  -1   2   9   44.63    2.99
  -1   2   8    4.61    1.09
  -1   2   7    3.34    1.18
  -1   2   7    1.79    0.73
  -1   2   6  224.55    9.14
  -1   2   6  227.78    9.47
  -1   2   6  255.10    8.51
  -1   2   5   75.96    3.87
   1  -2  -5   84.92    3.81
  -1   2   5   73.85    4.33
   1  -2  -5   76.95    3.67
  -1   2   4  723.45   18.45
   1  -2  -4  734.18   18.15
   1  -2  -4  756.85   18.21
   1  -2  -4  723.26   18.14
  -1   2   4  709.92   19.05
   1  -2  -3  205.15    6.12
   1  -2  -3  209.24    6.13
   1  -2  -3  203.50    6.01
  -1   2   3  202.11    6.65
   1  -2  -3  203.79    6.16
  -1   2   3  216.53    6.34
   1  -2  -2  634.34   14.54
   1  -2  -2  667.94   15.01
   1  -2  -2  646.91   14.71
   1  -2  -2  656.37   14.80
  -1   2   2  616.71   14.97
  -1   2   1  276.89    6.74
  -1   2   1  299.58    6.88
  -1   2   1  248.15    6.86
  -1   2   1  271.64    6.37
   1  -2  -1  250.55    6.53
   1  -2  -1  248.79    6.57
  -1   2   1  237.61    6.60
  -1   2   1  240.25    6.88
  -1   2   0 1520.41   32.73
  -1   2   0 1471.01   32.78
  -1   2   0 1471.08   32.53
  -1   2   0 1427.30   32.29
  -1   2   0 1489.73   32.49
  -1   2   0 1548.88   32.89
  -1   2   0 1524.22   32.19
   1  -2   0 1447.48   32.80
  -1   2  -1 1213.48   27.56
  -1   2  -1 1243.78   27.19
  -1   2  -1 1288.54   27.56
   1  -2   1 1204.59   27.69
  -1   2  -1 1246.01   27.88
  -1   2  -1 1253.94   27.88
   1  -2   1 1232.57   27.65
  -1   2  -1 1258.99   27.87
   1  -2   1 1229.19   27.33
   1  -2   2  192.75    5.39
   1  -2   2  196.64    5.25
  -1   2  -2  191.76    5.43
  -1   2  -2  197.07    5.63
  -1   2  -2  198.67    5.59
   1  -2   2  198.11    5.34
  -1   2  -3  110.99    3.64
   1  -2   3  107.08    3.59
  -1   2  -3  109.23    3.66
   1  -2   3  107.00    3.55
  -1   2  -3  108.81    3.78
  -1   2  -3  107.04    3.69
  -1   2  -4  859.22   19.84
   1  -2   4  831.35   19.86
  -1   2  -4  842.13   20.35
   1  -2   5   58.81    2.87
  -1   2  -5   53.42    3.20
   1  -2   6   53.67    2.97
  -1   2  -6   49.31    3.48
   1  -2   7  449.71   12.98
   1  -2   7  399.97   12.22
   1  -2   8    8.66    1.49
   1  -2   8   10.54    1.78
   1  -2   9    4.86    1.12
   1  -2   9    5.44    1.37
   1  -2  10   95.10    4.69
   1  -2  10  101.82    5.14
   1  -2  10   99.35    4.79
   1  -2  10  100.36    5.18
   1  -2  11   33.84    2.18
   1  -2  11   33.95    2.17
  -1   1  10   59.50    3.23
  -1   1  10   56.16    3.11
  -1   1   9  319.74   11.39
  -1   1   9  303.78   10.12
  -1   1   8    1.01    0.63
  -1   1   8    0.39    0.65
  -1   1   7  765.38   20.85
  -1   1   7  800.62   22.51
  -1   1   7  790.05   22.28
  -1   1   7  818.01   22.78
  -1   1   6    3.82    0.99
   1  -1  -5   99.75    4.07
   1  -1  -5   94.63    3.89
   1  -1  -4 1386.75   31.82
   1  -1  -4 1447.28   32.02
   1  -1  -4 1322.73   31.66
   1  -1  -4 1441.27   31.74
   1  -1  -4 1366.36   31.84
  -1   1   4 1443.91   32.18
  -1   1   3   80.39    3.01
   1  -1  -3   77.79    3.02
  -1   1   3   80.03    3.33
   1  -1  -3   73.95    2.82
  -1   1   3   86.12    3.01
   1  -1  -3   84.97    2.90
  -1   1   2  799.16   18.53
   1  -1  -2  829.20   18.41
   1  -1  -2  784.27   18.43
  -1   1   2  726.67   18.43
  -1   1   2  887.20   18.91
  -1   1   2  865.54   18.68
   1  -1  -2  846.65   18.41
   1  -1  -2  824.87   18.21
   1  -1  -1   44.59    1.58
  -1   1   1   43.32    1.64
   1  -1  -1   43.66    1.51
  -1   1   1   41.42    1.60
   1  -1  -1   40.61    1.40
   1  -1  -1   46.17    1.60
  -1   1   1   44.56    1.39
   1  -1  -1   40.30    1.41
  -1   1   1   41.64    1.55
   1  -1  -1   44.63    1.55
   1  -1  -1   44.91    1.33
   1  -1  -1   44.66    1.16
   1  -1  -1   43.62    1.35
  -1   1   1   39.78    1.58
   1  -1   0    1.08    0.11
  -1   1   0    1.28    0.21
   1  -1   0    0.98    0.19
   1  -1   0    1.46    0.22
   1  -1   0    1.06    0.17
  -1   1   0    0.77    0.16
  -1   1   0    0.84    0.13
   1  -1   0    0.84    0.10
  -1   1  -1  138.92    3.75
  -1   1  -1  144.65    3.41
  -1   1  -1  146.40    3.72
  -1   1  -1  142.72    3.78
   1  -1   1  138.38    3.60
   1  -1   1  135.35    3.68
   1  -1   2  251.20    6.21
  -1   1  -2  258.54    6.48
   1  -1   2  251.08    6.43
  -1   1  -3  199.74    5.73
   1  -1   3  186.46    5.33
  -1   1  -3  191.39    5.62
   1  -1   4   57.43    2.53
  -1   1  -4   62.86    3.00
  -1   1  -5 1175.43   27.70
   1  -1   5 1108.30   26.36
  -1   1  -5 1121.60   27.53
  -1   1  -6  121.60    5.83
   1  -1   7  105.76    5.50
   1  -1   7  116.76    5.81
  -1   1  -7  110.86    6.13
   1  -1   7  110.45    5.28
   1  -1   8   57.84    4.20
   1  -1   8   60.55    3.89
   1  -1   8   60.63    4.22
   1  -1   9   39.68    3.43
   1  -1   9   48.89    3.37
   1  -1   9   45.63    3.63
   1  -1  10   89.20    4.63
   1  -1  10   80.09    4.05
   1  -1  10   77.79    4.11
   1  -1  11  209.85    6.54
  -1   0  11    1.70    0.48
  -1   0  10   14.29    1.95
  -1   0  10   29.00    2.25
  -1   0   9    7.62    1.59
  -1   0   9    6.25    1.19
  -1   0   9    5.23    1.39
  -1   0   8    3.23    0.92
  -1   0   8    2.27    0.94
  -1   0   8    0.91    0.59
  -1   0   8    1.31    0.78
  -1   0   7  336.16   10.58
  -1   0   7  335.64   11.83
   1   0  -7  310.48   11.46
  -1   0   7  313.19   10.59
  -1   0   7  343.47   11.77
  -1   0   7  353.39   11.83
  -1   0   6  102.43    5.10
   1   0  -6   98.74    4.39
   1   0  -5  256.13    7.53
   1   0  -5  238.82    8.01
   1   0  -4  165.87    5.14
   1   0  -4  162.15    4.96
   1   0  -4  159.41    4.82
   1   0  -4  162.83    5.45
  -1   0   3   20.62    1.10
   1   0  -3   19.42    1.29
  -1   0   3   18.76    1.11
   1   0  -3   21.88    1.08
   1   0  -3   19.64    1.13
   1   0  -3   22.06    1.14
   1   0  -2 4185.32   89.13
  -1   0   2 4319.28   89.15
   1   0  -2 4184.92   89.36
   1   0  -2 4084.44   89.22
  -1   0   2 4122.80   89.32
   1   0  -2 4156.93   89.40
   1   0  -1  108.76    2.80
   1   0  -1  114.01    2.94
  -1   0   1  116.76    2.62
   1   0  -1  104.66    2.86
  -1   0   1  109.32    2.81
  -1   0   1  117.15    2.63
   1   0  -1  116.26    2.94
  -1   0   0  301.86    6.88
  -1   0   0  293.09    6.82
   1   0   0  318.09    6.89
   1   0   0  297.39    6.61
  -1   0   0  298.74    6.86
   1   0   1   96.30    2.48
  -1   0  -1   91.60    2.53
   1   0   1   97.94    2.66
   1   0   1   98.52    2.62
  -1   0  -1   92.28    2.65
  -1   0  -2  119.62    3.21
  -1   0  -2  126.70    3.53
   1   0   2  121.67    3.40
  -1   0  -2  130.69    3.31
  -1   0  -2  127.49    3.79
   1   0   2  125.05    3.56
   1   0   3 1256.29   28.62
  -1   0  -3 1179.80   29.04
  -1   0  -4   18.20    1.60
   1   0   4   15.52    1.23
  -1   0  -5    0.47    0.35
   1   0   5    0.98    0.39
  -1   0  -5    0.32    0.31
  -1   0  -6  455.00   14.22
   1   0   6  461.70   13.67
  -1   0  -6  441.75   13.97
  -1   0  -7    8.47    1.68
   1   0   7    9.91    1.50
   1   0   7    8.62    1.41
   1   0   8  152.95    6.65
   1   0   8  143.58    6.97
   1   0   8  151.83    7.21
   1   0   9   45.98    3.53
   1   0   9   40.98    3.10
   1   0   9   50.34    3.41
   1   0  10   56.46    3.26
   1   0  11    6.23    0.78
  -1  -1  11   59.92    3.06
  -1  -1  11   51.48    3.19
  -1  -1  10   35.88    3.16
  -1  -1  10   36.73    3.13
  -1  -1   9    5.89    1.23
  -1  -1   9    4.63    1.30
  -1  -1   9    4.56    1.26
   1   1  -8  490.72   14.01
  -1  -1   8  506.10   15.84
  -1  -1   8  466.24   14.38
  -1  -1   7  376.88   12.56
   1   1  -7  365.64   12.50
  -1  -1   7  368.05   11.54
   1   1  -7  400.51   11.73
   1   1  -6   75.29    4.14
   1   1  -6   66.80    3.46
   1   1  -5 1836.55   41.25
   1   1  -4  464.73   11.62
  -1  -1   4  457.76   11.44
   1   1  -4  471.90   11.25
  -1  -1   3   66.62    2.28
   1   1  -3   65.81    2.19
   1   1  -3   66.44    2.66
  -1  -1   2 1271.04   28.28
   1   1  -2 1282.91   27.58
  -1  -1   2 1291.99   28.24
   1   1  -2 1246.25   28.48
   1   1  -2 1218.19   28.43
  -1  -1   1 2110.65   47.36
  -1  -1   1 2219.18   46.95
   1   1  -1 2223.37   47.20
  -1  -1   1 2170.55   47.44
   1   1  -1 2235.20   47.52
   1   1  -1 2229.82   47.43
  -1  -1   1 2221.15   47.28
  -1  -1   0 1981.70   42.47
  -1  -1   0 1983.66   42.38
   1   1   0 1984.24   42.48
   1   1   0 1962.81   42.45
  -1  -1   0 1946.41   42.31
  -1  -1   0 1988.94   42.60
   1   1   0 1975.44   42.61
  -1  -1  -1  750.09   17.19
   1   1   1  791.86   17.33
   1   1   1  790.84   17.36
   1   1   1  775.25   17.32
   1   1   1  778.30   16.69
   1   1   1  780.48   17.10
   1   1   1  767.86   17.41
  -1  -1  -1  753.80   16.84
  -1  -1  -1  752.84   17.17
  -1  -1  -2   55.27    2.10
   1   1   2   56.55    2.32
   1   1   2   55.48    2.16
  -1  -1  -2   59.37    2.14
   1   1   2   56.73    2.26
  -1  -1  -2   54.28    2.02
   1   1   3   91.99    3.79
  -1  -1  -3  100.67    3.82
   1   1   3  102.72    3.53
   1   1   3  106.91    3.75
   1   1   4    1.79    0.58
  -1  -1  -4    1.29    0.50
  -1  -1  -4    1.51    0.53
   1   1   4    1.33    0.44
   1   1   5   21.15    2.02
  -1  -1  -5   22.44    2.21
  -1  -1  -5   22.75    2.17
   1   1   6  330.40   10.41
  -1  -1  -6  316.31   11.23
  -1  -1  -6  321.30   11.41
   1   1   7  283.66    9.84
   1   1   8   98.54    5.12
   1   1   8   96.05    5.06
   1   1   9   22.87    2.17
   1   1   9   20.66    2.07
   1   1  10    0.67    0.41
  -1  -2  11  224.67    7.98
   1   2 -10    5.59    1.07
  -1  -2  10    7.41    1.50
  -1  -2  10    5.90    1.33
  -1  -2   9  217.05    8.30
   1   2  -9  208.23    7.91
  -1  -2   9  237.08    9.54
   1   2  -8   64.67    3.81
  -1  -2   8   66.20    4.02
   1   2  -7    1.16    0.61
   1   2  -7    0.95    0.49
   1   2  -6  175.26    6.25
   1   2  -6  170.87    6.74
  -1  -2   6  176.22    6.17
  -1  -2   5   80.06    3.48
   1   2  -5   87.15    3.94
   1   2  -5   84.78    3.51
   1   2  -4  696.74   17.25
   1   2  -4  795.94   17.93
  -1  -2   3 1095.22   24.72
   1   2  -3 1103.40   24.75
  -1  -2   3 1133.07   24.81
   1   2  -3 1055.24   24.48
   1   2  -2 1323.61   28.52
   1   2  -2 1329.38   28.64
  -1  -2   2 1250.39   28.43
   1   2  -2 1225.64   28.38
  -1  -2   2 1310.63   28.58
   1   2  -1   89.46    2.95
  -1  -2   1   88.57    2.90
   1   2  -1   97.65    3.19
   1   2  -1   88.69    2.98
   1   2  -1   85.91    2.86
  -1  -2   1   81.60    2.80
   1   2  -1   91.76    2.70
  -1  -2   1   88.61    3.01
  -1  -2   1   89.18    2.88
  -1  -2   1   91.71    3.07
   1   2  -1   96.05    2.53
  -1  -2   0 4199.46   93.22
  -1  -2   0 4320.84   93.01
  -1  -2   0 4337.53   93.13
  -1  -2   0 4507.45   92.90
   1   2   0 4326.67   92.90
  -1  -2   0 4522.25   93.15
   1   2   0 4138.86   93.31
   1   2   0 4349.85   93.51
   1   2   1  486.69   11.90
  -1  -2  -1  513.89   11.94
   1   2   1  524.39   12.22
  -1  -2  -1  470.81   11.63
  -1  -2  -1  483.02   11.64
   1   2   1  501.66   12.22
   1   2   2  730.85   17.52
  -1  -2  -2  743.83   17.49
  -1  -2  -2  735.80   17.31
   1   2   2  760.23   17.89
   1   2   3   41.17    2.53
  -1  -2  -3   54.13    2.53
  -1  -2  -3   44.85    2.30
  -1  -2  -3   53.36    2.70
   1   2   3   48.12    2.54
   1   2   4   43.52    2.72
   1   2   4   49.43    3.01
  -1  -2  -4   45.33    2.96
  -1  -2  -4   51.63    3.05
   1   2   5   16.78    1.87
  -1  -2  -5   16.32    1.98
   1   2   5   19.41    2.06
  -1  -2  -6  354.00   13.21
   1   2   6  461.07   12.90
   1   2   7  173.90    7.06
   1   2   7  162.17    7.02
   1   2   8   44.23    3.24
   1   2   8   59.42    3.67
   1   2   9   62.65    3.42
   1   2  10    5.22    0.74
   1   2  10    5.47    0.73
  -1  -3  12    1.59    0.46
   1   3 -11  103.73    4.36
  -1  -3  11   99.99    4.92
  -1  -3  11   99.88    4.84
  -1  -3  10  101.84    4.96
  -1  -3  10  109.40    5.21
  -1  -3  10  105.92    5.72
   1   3 -10   97.61    4.81
   1   3  -9   31.68    2.68
  -1  -3   9   36.30    2.92
   1   3  -8  172.91    6.93
   1   3  -7   24.91    2.20
   1   3  -7   24.89    2.47
  -1  -3   7   25.59    2.25
   1   3  -6   52.04    3.28
  -1  -3   6   54.45    3.14
   1   3  -6   57.42    3.13
  -1  -3   5  777.86   19.62
   1   3  -5  800.76   19.67
   1   3  -4   60.51    2.56
  -1  -3   4   60.56    2.82
  -1  -3   4   54.99    2.67
   1   3  -3  240.96    7.30
  -1  -3   3  251.46    7.15
  -1  -3   3  255.88    7.11
   1   3  -3  241.84    6.86
  -1  -3   2  906.50   20.74
   1   3  -2  889.22   21.34
  -1  -3   2  899.65   21.17
   1   3  -2  885.33   21.09
   1   3  -2  877.20   21.01
  -1  -3   2  946.72   20.98
  -1  -3   1  100.13    3.55
  -1  -3   1  102.47    3.70
  -1  -3   1  106.57    3.91
   1   3  -1  105.26    3.66
   1   3  -1  108.43    3.93
   1   3  -1  106.39    3.74
  -1  -3   1   97.28    3.48
  -1  -3   1  102.27    3.50
   1   3   0 1732.55   37.68
   1   3   0 1701.14   37.95
  -1  -3   0 1643.15   37.60
  -1  -3   0 1643.11   37.47
  -1  -3   0 1646.21   36.88
   1   3   0 1728.79   37.11
  -1  -3   0 1777.63   37.60
  -1  -3   0 1643.23   37.08
  -1  -3   0 1628.91   37.19
   1   3   0 1749.58   37.98
  -1  -3  -1  750.60   18.62
  -1  -3  -1  793.03   18.14
  -1  -3  -1  771.53   18.56
   1   3   1  754.90   18.39
   1   3   1  838.94   19.18
  -1  -3  -1  750.60   18.14
   1   3   1  822.07   19.03
  -1  -3  -2   73.10    3.06
  -1  -3  -2   67.70    3.14
   1   3   2   78.91    3.68
   1   3   2   68.76    3.16
  -1  -3  -3  408.25   11.13
   1   3   3  405.74   11.86
   1   3   4    7.00    1.23
   1   3   4    6.55    1.27
   1   3   5   47.57    3.50
   1   3   5   45.70    3.08
   1   3   5   47.92    3.48
   1   3   6   20.40    2.12
   1   3   7   77.23    4.33
   1   3   7   75.82    4.34
   1   3   8    2.56    0.74
   1   3   8    1.97    0.73
   1   3   9   76.25    3.54
  -1  -4  12    1.26    0.43
  -1  -4  11   64.84    3.82
  -1  -4  11   66.45    3.79
   1   4 -11   56.49    3.18
  -1  -4  11   69.89    3.56
  -1  -4  10   91.04    4.79
  -1  -4  10   92.36    5.25
   1   4 -10   83.19    4.44
   1   4  -9  544.19   15.80
   1   4  -8   30.73    2.63
   1   4  -7   52.30    4.04
   1   4  -7   44.85    3.15
  -1  -4   6   98.31    4.70
   1   4  -6  100.18    5.31
  -1  -4   5   28.66    2.13
  -1  -4   5   29.13    2.22
   1   4  -5   29.79    2.50
  -1  -4   4   53.72    2.89
  -1  -4   4   50.83    2.81
   1   4  -4   51.76    3.14
   1   4  -3  760.19   19.30
   1   4  -3  756.20   19.47
  -1  -4   3  770.03   19.04
  -1  -4   3  794.77   19.01
  -1  -4   2  242.50    7.30
   1   4  -2  240.17    7.59
  -1  -4   2  221.41    6.87
  -1  -4   2  232.03    7.40
  -1  -4   2  228.74    6.98
  -1  -4   1  545.45   13.23
  -1  -4   1  542.06   13.65
   1   4  -1  562.58   13.85
  -1  -4   1  514.89   13.11
   1   4  -1  520.03   13.84
  -1  -4   1  480.23   13.01
   1   4  -1  498.41   13.22
  -1  -4   1  510.88   13.81
  -1  -4   0    5.64    0.79
  -1  -4   0    5.80    0.87
  -1  -4   0    6.12    0.86
   1   4   0    5.13    0.91
   1   4   0    5.50    0.91
  -1  -4  -1  283.83    8.20
  -1  -4  -1  261.30    7.55
   1   4   1  278.91    8.64
   1   4   1  262.79    7.83
   1   4   2 1708.04   40.03
  -1  -4  -2 1668.31   38.96
   1   4   3  841.18   23.16
  -1  -4  -3  869.30   22.82
   1   4   4    7.76    1.44
   1   4   4    7.58    1.40
   1   4   5  315.60   11.17
   1   4   6   19.59    2.30
   1   4   7    3.95    1.04
   1   4   7    4.81    1.07
   1   4   8   47.64    2.90
   1   5 -11   88.35    4.12
  -1  -5  11   92.31    4.23
  -1  -5  11   91.19    4.53
   1   5 -10   43.80    3.12
  -1  -5  10   49.22    3.35
   1   5  -9    2.30    0.86
   1   5  -8  299.42   10.30
   1   5  -7   54.63    3.58
  -1  -5   7   58.93    3.88
   1   5  -7   53.59    3.56
   1   5  -7   55.82    4.37
   1   5  -6   60.41    4.26
  -1  -5   6   61.57    3.82
   1   5  -6   60.58    3.81
  -1  -5   5   80.39    4.19
   1   5  -5   79.26    4.69
   1   5  -5   80.20    4.65
  -1  -5   5   86.25    4.37
  -1  -5   4   14.39    1.58
  -1  -5   4   11.77    1.50
   1   5  -4   11.05    1.56
  -1  -5   3   20.84    1.80
  -1  -5   3   20.73    1.84
  -1  -5   2  625.30   16.12
  -1  -5   2  648.70   16.81
  -1  -5   2  596.10   16.04
  -1  -5   2  627.00   16.50
   1   5  -2  629.52   16.86
   1   5  -1  498.50   13.79
  -1  -5   1  478.65   13.36
  -1  -5   1  497.48   13.88
  -1  -5   1  450.87   12.74
  -1  -5   0  574.29   15.49
  -1  -5   0  607.79   15.91
   1   5   0  624.10   16.70
   1   5   0  593.61   16.49
  -1  -5   0  607.75   16.25
  -1  -5  -1   45.62    2.98
  -1  -5  -1   42.90    2.90
   1   5   1   50.83    3.48
   1   5   1   47.06    3.28
  -1  -5  -2    0.71    0.50
  -1  -5  -2    1.37    0.58
   1   5   2    0.43    0.37
   1   5   3  593.57   17.65
   1   5   3  592.22   17.41
   1   5   3  641.34   18.10
   1   5   4  859.39   22.70
   1   5   4  759.09   22.24
   1   5   5   78.77    4.81
   1   5   5   73.92    4.69
   1   5   6   70.73    4.27
   1   5   6   61.45    3.96
   1   5   7    9.81    1.36
   1   5   7   11.29    1.40
   1   5   8    0.62    0.34
  -1  -6  11   28.45    2.09
  -1  -6  11   24.42    2.15
   1   6 -10    0.25    0.40
   1   6 -10    0.24    0.46
   1   6  -9  368.30   11.88
   1   6  -8  490.42   14.64
   1   6  -8  463.41   14.36
   1   6  -7  682.04   19.10
  -1  -6   6  193.25    7.69
   1   6  -6  177.99    8.36
  -1  -6   6  202.40    7.96
   1   6  -6  167.91    7.50
   1   6  -6  187.66    7.54
  -1  -6   5    2.88    0.85
  -1  -6   5    2.44    0.73
   1   6  -5    3.26    0.93
   1   6  -5    3.24    1.06
  -1  -6   5    2.47    0.80
  -1  -6   5    2.34    0.80
   1   6  -5    3.23    0.88
  -1  -6   4    8.76    1.37
  -1  -6   4    9.78    1.40
   1   6  -4    8.89    1.56
  -1  -6   4    9.15    1.46
  -1  -6   3   51.37    3.30
   1   6  -3   55.11    3.75
  -1  -6   3   55.00    3.37
  -1  -6   2  282.38    9.89
  -1  -6   2  266.73    9.04
  -1  -6   2  279.75    9.52
   1   6  -2  288.95    9.94
   1   6  -1 1027.81   26.51
  -1  -6   1 1023.79   25.59
  -1  -6   1 1034.05   26.22
  -1  -6   1 1036.79   26.73
  -1  -6   0 1082.49   27.31
   1   6   0 1079.37   27.85
  -1  -6   0 1049.40   27.67
   1   6   0 1069.31   27.65
  -1  -6  -1    0.82    0.57
   1   6   1    1.35    0.78
   1   6   2  116.28    6.83
   1   6   2  124.01    6.20
  -1  -6  -2  119.12    6.10
   1   6   2  123.60    6.31
   1   6   3    3.57    1.10
   1   6   3    3.91    1.31
   1   6   3    4.43    1.25
   1   6   4  118.20    6.11
   1   6   4  111.10    6.58
   1   6   4  131.13    6.43
   1   6   5  474.35   14.47
   1   6   5  477.41   14.48
   1   6   6    4.69    0.99
   1   6   6    5.34    1.04
   1   6   7   45.65    2.34
   1   6   7   45.29    2.29
  -1  -7  11   12.06    1.34
   1   7 -11   12.41    1.27
  -1  -7  11   14.07    1.32
   1   7 -10   14.40    1.68
   1   7  -9    0.94    0.54
   1   7  -8   60.98    3.97
   1   7  -7   58.80    4.04
   1   7  -6  602.26   17.53
   1   7  -5    2.73    0.94
   1   7  -5    3.56    1.04
  -1  -7   5    3.54    1.05
   1   7  -5    2.72    0.89
  -1  -7   4    3.97    1.01
   1   7  -4    2.92    0.91
  -1  -7   4    4.96    1.14
   1   7  -4    4.20    1.10
  -1  -7   4    7.26    1.44
   1   7  -4    5.84    1.36
   1   7  -3  240.73    9.81
  -1  -7   3  251.53    9.63
   1   7  -3  243.17    9.74
  -1  -7   3  243.69    9.09
   1   7  -3  267.81   10.25
   1   7  -3  255.05    9.32
   1   7  -2  248.56    9.71
   1   7  -2  255.86    9.62
  -1  -7   2  244.87    9.05
  -1  -7   2  241.54    9.69
   1   7  -2  255.08    9.21
   1   7  -2  242.84    9.96
   1   7  -2  253.69    9.96
   1   7  -1  102.96    5.77
  -1  -7   1  104.32    5.87
   1   7  -1  108.35    5.65
   1   7  -1  104.74    6.13
  -1  -7   1  106.68    5.64
  -1  -7   0    3.05    0.97
   1   7   0    6.41    1.53
   1   7   0    3.93    1.10
  -1  -7  -1   18.99    2.35
   1   7   1   18.23    2.63
   1   7   1   20.65    2.46
   1   7   2  103.61    6.41
   1   7   2  109.92    5.97
   1   7   3  485.88   14.81
   1   7   3  495.69   15.13
   1   7   4    2.70    0.88
   1   7   4    1.60    0.78
   1   7   4    3.86    0.98
   1   7   5  122.34    5.09
   1   7   5  121.42    5.15
   1   7   6    0.58    0.33
   1   7   6    0.35    0.25
   1   8 -10    0.38    0.38
  -1  -8  10    0.38    0.32
   1   8  -9   22.78    2.10
   1   8  -8  192.28    7.66
   1   8  -7  117.68    5.79
   1   8  -7  100.27    5.42
   1   8  -6  229.65    8.80
   1   8  -6  202.21    8.55
   1   8  -5   31.59    2.90
   1   8  -5   34.46    3.10
   1   8  -5   31.12    2.96
   1   8  -4 1348.41   35.02
   1   8  -4 1431.19   35.03
   1   8  -3    2.74    1.02
   1   8  -3    2.46    0.91
   1   8  -3    2.84    1.00
   1   8  -2   33.43    3.42
   1   8  -2   40.41    3.69
   1   8  -2   34.93    3.18
   1   8  -2   41.48    3.31
   1   8  -1   69.00    4.53
   1   8  -1   61.67    4.77
   1   8  -1   65.84    4.72
   1   8   0  214.15    9.66
   1   8   1    2.26    0.88
   1   8   1    4.41    1.32
   1   8   2  579.95   17.95
   1   8   2  577.91   16.95
   1   8   3    0.21    0.41
   1   8   3    0.78    0.50
   1   8   4  118.83    4.83
   1   9 -10    7.31    0.91
   1   9 -10    7.00    0.82
   1   9  -9   94.88    4.09
   1   9  -9   88.33    4.03
   1   9  -8    2.69    0.79
   1   9  -7    1.36    0.66
   1   9  -7    0.45    0.52
   1   9  -6    0.29    0.55
   1   9  -6    1.60    0.76
   1   9  -6    0.30    0.45
   1   9  -5   27.15    2.71
   1   9  -5   29.23    2.77
   1   9  -4    4.78    1.29
   1   9  -4    7.86    1.53
   1   9  -4    5.98    1.33
   1   9  -3    5.45    1.41
   1   9  -3    5.16    1.24
   1   9  -3    5.16    1.20
   1   9  -2  258.95   10.45
   1   9  -2  263.44    9.33
   1   9  -2  244.94    9.43
   1   9  -1   73.40    4.98
   1   9   0   23.28    2.70
   1   9   1    0.77    0.57
   1   9   2    1.12    0.62
   1   9   3    1.94    0.54
   1  10  -8   39.72    2.34
   1  10  -8   35.15    2.14
   1  10  -7   54.45    3.05
   1  10  -7   51.41    3.01
   1  10  -6   62.41    3.62
   1  10  -6   57.47    3.44
   1  10  -5  243.56    8.73
   1  10  -5  248.94    8.64
   1  10  -4  223.62    8.80
   1  10  -4  238.62    8.66
   1  10  -4  246.14    8.50
   1  10  -3   77.38    4.68
   1  10  -3   84.73    4.49
   1  10  -2   87.45    4.93
   1  10  -1   56.33    3.73
   1  10   0   11.17    1.52
   1  10   1   34.47    2.33
   1  11  -6    0.92    0.37
   1  11  -5   75.37    3.38
   1  11  -5   86.60    3.66
   1  11  -4   64.24    2.98
   1  11  -3    7.46    1.08
   1  11  -2   95.85    4.04
  -2  11  -1  260.48    7.36
  -2  11  -2    3.85    0.72
  -2  11  -3    1.19    0.48
  -2  11  -4    8.34    1.09
  -2  11  -4    9.42    1.08
  -2  11  -5    3.65    0.71
  -2  11  -5    3.60    0.68
  -2  11  -6    6.03    0.81
  -2  10   2   11.51    1.25
  -2  10   1   75.70    3.70
  -2  10   1   78.05    3.97
  -2  10   0    1.86    0.72
  -2  10   0    1.80    0.69
  -2  10   0    2.10    0.63
  -2  10  -1  258.15    8.76
  -2  10  -1  274.56    9.56
  -2  10  -2  289.00    9.77
  -2  10  -2  320.22   10.88
  -2  10  -3  328.23   10.61
  -2  10  -3  334.17   11.55
  -2  10  -4    0.65    0.58
  -2  10  -4    0.66    0.48
  -2  10  -5  114.01    5.13
  -2  10  -5  121.76    5.22
  -2  10  -6    3.97    0.88
  -2  10  -7   79.30    3.80
  -2  10  -8   33.57    2.07
  -2   9   4   85.60    3.54
  -2   9   3   70.33    3.83
  -2   9   3   73.20    3.59
  -2   9   2  102.90    5.23
  -2   9   2   91.73    4.68
  -2   9   1   45.95    3.10
  -2   9   1   51.33    3.31
  -2   9   1   51.18    3.58
  -2   9   1   44.37    3.61
  -2   9   0  193.11    7.69
  -2   9   0  200.79    7.86
  -2   9   0  209.52    8.43
  -2   9   0  197.02    8.57
  -2   9  -1   65.68    4.12
  -2   9  -1   63.41    4.54
  -2   9  -1   60.59    4.20
  -2   9  -1   68.14    4.26
  -2   9  -1   68.20    4.63
  -2   9  -2  153.60    6.87
  -2   9  -2  164.76    7.74
  -2   9  -2  168.77    7.15
  -2   9  -2  167.38    7.77
  -2   9  -2  151.22    6.87
  -2   9  -3  250.03    9.25
  -2   9  -3  240.18   10.01
  -2   9  -3  247.16    9.47
  -2   9  -4  105.69    6.14
  -2   9  -4  114.32    5.54
  -2   9  -4  107.09    5.66
  -2   9  -5  197.32    7.92
  -2   9  -5  211.96    8.35
  -2   9  -6   40.91    3.10
  -2   9  -7   42.25    3.00
  -2   9  -8    2.73    0.74
  -2   9  -8    2.64    0.71
  -2   9  -9    0.75    0.40
  -2   9  -9    0.72    0.38
  -2   8   5   34.65    2.36
  -2   8   4    4.64    0.96
  -2   8   4    5.71    1.24
  -2   8   3   10.95    1.67
  -2   8   2  136.76    6.67
  -2   8   2  140.77    7.14
  -2   8   1  676.54   20.03
  -2   8   1  690.63   19.20
  -2   8   1  684.77   20.69
  -2   8   1  712.79   19.39
  -2   8   1  669.92   19.33
  -2   8   0  200.28    9.26
  -2   8   0  212.67    8.56
  -2   8   0  230.63    8.96
  -2   8   0  226.06    8.67
  -2   8   0  212.27    8.99
  -2   8  -1   41.97    3.35
  -2   8  -1   44.53    3.65
  -2   8  -1   45.64    3.52
  -2   8  -1   45.25    3.81
  -2   8  -1   46.00    3.93
  -2   8  -2  623.79   18.10
  -2   8  -2  604.24   17.61
  -2   8  -2  575.31   18.26
  -2   8  -2  609.69   18.56
  -2   8  -2  596.55   17.61
  -2   8  -3   13.06    1.93
  -2   8  -3    9.66    1.84
  -2   8  -3    9.92    1.61
  -2   8  -3   12.64    2.05
  -2   8  -3   12.60    1.86
  -2   8  -3   11.82    1.76
  -2   8  -4  552.32   17.71
  -2   8  -4  555.25   16.57
  -2   8  -4  561.84   17.05
  -2   8  -4  609.44   16.86
  -2   8  -5    3.51    1.01
  -2   8  -5    1.75    0.94
  -2   8  -6   45.28    3.41
  -2   8  -7   94.42    4.95
  -2   8  -8    1.76    0.66
  -2   8  -8    1.78    0.76
  -2   8  -9  102.78    4.83
  -2   8 -10   43.86    2.60
  -2   8 -10   44.72    2.43
  -2   7   6   19.93    1.70
  -2   7   5   52.88    3.40
  -2   7   5   48.91    3.25
  -2   7   4  143.84    6.70
  -2   7   3   18.23    2.33
  -2   7   2    1.52    0.80
  -2   7   1   81.33    4.69
  -2   7   1   86.63    4.92
  -2   7   1   75.58    4.93
  -2   7   1   70.10    4.38
  -2   7   0    0.39    0.55
  -2   7   0    0.30    0.48
  -2   7   0    0.11    0.42
  -2   7   0    0.35    0.57
  -2   7  -1  432.07   13.94
  -2   7  -1  433.31   13.58
  -2   7  -1  441.13   14.31
  -2   7  -1  418.50   13.68
  -2   7  -1  476.89   14.77
  -2   7  -1  431.23   13.44
  -2   7  -2   34.76    3.15
  -2   7  -2   26.69    2.57
   2  -7   2   30.94    2.82
  -2   7  -2   32.12    3.02
  -2   7  -2   26.93    2.67
  -2   7  -2   28.66    2.72
  -2   7  -2   30.34    2.73
  -2   7  -2   26.88    2.50
  -2   7  -2   27.33    2.51
   2  -7   3    9.43    1.59
  -2   7  -3   16.62    1.91
   2  -7   3   10.96    1.72
  -2   7  -3   11.27    1.84
  -2   7  -3   11.77    1.87
  -2   7  -3   11.76    1.71
  -2   7  -3   11.83    1.65
   2  -7   4 2124.44   49.90
  -2   7  -4 2183.23   50.87
  -2   7  -4 2199.86   49.37
   2  -7   4 2014.14   49.51
  -2   7  -4 2010.73   49.39
   2  -7   4 2093.21   50.01
  -2   7  -5  183.32    7.59
   2  -7   5  189.94    7.97
  -2   7  -5  198.40    8.71
  -2   7  -6  458.90   14.15
  -2   7  -7  336.70   11.28
  -2   7  -7  298.62   10.45
  -2   7  -8   21.41    2.41
  -2   7  -9    3.11    0.92
  -2   7 -10    2.18    0.68
  -2   7 -11   14.83    1.33
  -2   6   7    5.16    0.92
  -2   6   6   18.71    2.07
  -2   6   5  103.63    5.64
  -2   6   5  101.36    5.59
  -2   6   4   20.26    2.51
  -2   6   4   21.44    2.54
  -2   6   3   94.96    5.68
  -2   6   2  219.32    8.26
  -2   6   2  200.44    8.94
   2  -6  -2  214.52    7.85
  -2   6   2  197.47    8.15
  -2   6   2  234.47    9.26
  -2   6   1  134.18    6.04
  -2   6   1  135.58    6.62
   2  -6  -1  130.46    6.00
  -2   6   1  141.71    6.17
  -2   6   1  146.57    6.45
   2  -6   0    9.58    1.58
  -2   6   0   10.78    1.64
   2  -6   1 1656.28   41.31
  -2   6  -1 1797.77   40.57
   2  -6   2   57.43    3.69
  -2   6  -2   54.47    3.37
   2  -6   3  405.47   12.26
   2  -6   3  396.51   12.02
   2  -6   3  412.72   12.36
  -2   6  -3  373.99   11.97
   2  -6   4   10.71    1.51
   2  -6   4   10.66    1.53
  -2   6  -4   11.52    1.52
   2  -6   4   10.60    1.56
   2  -6   5   75.47    4.31
   2  -6   5   74.40    4.11
   2  -6   6 1242.34   30.96
  -2   6  -7  326.95   11.40
  -2   6  -8    1.00    0.68
  -2   6  -9   10.72    1.68
  -2   6 -10  112.65    5.13
   2  -6  10  106.42    4.75
   2  -6  11   49.84    2.51
  -2   5   8   46.95    2.72
  -2   5   7    2.93    0.90
  -2   5   6    8.51    1.63
  -2   5   6   11.02    1.83
  -2   5   5    4.66    1.31
  -2   5   5    4.74    1.27
   2  -5  -4   57.96    3.62
   2  -5  -4   55.82    3.70
  -2   5   4   66.83    4.92
  -2   5   4   56.40    4.36
  -2   5   4   64.40    4.38
  -2   5   3    7.13    1.49
  -2   5   3    7.01    1.55
   2  -5  -3    7.40    1.27
   2  -5  -3    5.82    1.13
  -2   5   2   19.45    1.86
   2  -5  -2   21.80    1.95
   2  -5  -2   27.84    2.27
  -2   5   2   25.66    2.68
   2  -5  -2   29.23    2.19
   2  -5  -1   10.22    1.31
  -2   5   1    9.05    1.44
  -2   5   1    9.78    1.25
   2  -5   0  331.02   10.61
  -2   5   0  339.51   10.66
  -2   5   0  360.60   10.28
   2  -5   1   74.01    3.84
  -2   5  -1   63.59    3.45
  -2   5  -1   65.91    3.41
  -2   5  -2  193.40    7.03
   2  -5   2  190.10    6.88
  -2   5  -2  181.24    6.96
   2  -5   3  185.11    6.54
   2  -5   3  181.56    6.48
  -2   5  -3  182.73    6.45
   2  -5   3  203.07    6.88
  -2   5  -3  180.56    7.04
  -2   5  -4   15.23    1.63
   2  -5   4   14.25    1.57
  -2   5  -4   16.39    1.88
  -2   5  -5    6.62    1.31
   2  -5   5    7.41    1.21
  -2   5  -5    6.44    1.29
   2  -5   5    6.86    1.22
   2  -5   6  843.51   21.48
   2  -5   6  862.16   21.63
  -2   5  -7   33.88    2.83
  -2   5  -7   34.76    3.02
   2  -5   7   28.80    2.61
   2  -5   7   27.11    2.50
  -2   5  -8 2239.47   50.36
  -2   5  -8 2070.45   50.67
   2  -5   8 2098.88   50.24
   2  -5   9   74.30    4.38
  -2   5  -9   76.32    4.58
   2  -5  10    0.94    0.56
   2  -5  11    1.94    0.56
  -2   4   9    1.94    0.47
  -2   4   9    1.35    0.47
  -2   4   9    1.94    0.53
  -2   4   8  318.52    9.55
  -2   4   8  318.53   10.46
  -2   4   7    3.55    0.89
  -2   4   7    0.44    0.59
  -2   4   6  159.63    7.53
  -2   4   5  259.67   10.70
   2  -4  -5  264.45    9.25
  -2   4   5  253.69   10.15
   2  -4  -5  264.15    9.04
   2  -4  -4  440.90   12.36
   2  -4  -4  415.54   12.06
   2  -4  -4  405.56   12.11
   2  -4  -4  405.47   11.83
  -2   4   4  396.96   13.22
  -2   4   3   93.00    4.38
   2  -4  -3   91.65    4.12
  -2   4   3   99.30    5.18
   2  -4  -3   88.20    4.05
   2  -4  -3   96.18    4.30
   2  -4  -3   99.96    4.47
  -2   4   2 1143.72   28.78
   2  -4  -2 1239.27   28.59
  -2   4   2 1196.90   28.24
   2  -4  -2 1177.12   28.10
   2  -4  -2 1185.65   28.22
  -2   4   1  137.86    5.30
  -2   4   1  146.10    5.14
   2  -4  -1  136.55    4.90
  -2   4   1  143.41    5.70
   2  -4  -1  134.42    4.81
   2  -4   0    2.58    0.64
   2  -4   0    1.66    0.53
  -2   4   0    0.96    0.38
  -2   4   0    1.46    0.49
  -2   4   0    2.26    0.62
  -2   4   0    1.85    0.51
  -2   4  -1   24.09    1.77
   2  -4   1   22.56    1.75
  -2   4  -1   22.76    1.74
  -2   4  -1   25.43    1.90
  -2   4  -1   19.65    1.41
  -2   4  -2  212.10    6.25
   2  -4   2  191.29    6.17
  -2   4  -2  195.61    6.68
   2  -4   2  200.25    6.39
   2  -4   2  203.97    6.43
   2  -4   3 1916.09   43.99
   2  -4   3 1973.87   43.96
  -2   4  -3 2066.02   44.23
  -2   4  -3 1919.91   44.75
  -2   4  -3 1989.62   44.66
   2  -4   3 1922.40   44.08
   2  -4   4  862.31   20.54
   2  -4   4  864.29   20.73
   2  -4   4  861.32   20.93
  -2   4  -4  858.90   21.62
  -2   4  -4  814.56   21.52
   2  -4   5    8.67    1.18
  -2   4  -5    9.73    1.44
   2  -4   6   96.85    4.47
   2  -4   6   98.22    4.62
  -2   4  -7   17.72    1.96
  -2   4  -7   19.79    2.25
   2  -4   7   14.61    1.80
   2  -4   7   22.12    2.22
  -2   4  -8  248.08    9.16
   2  -4   8  268.20    9.80
   2  -4   9  108.22    5.44
   2  -4  10  216.73    7.83
   2  -4  11   14.42    1.42
  -2   3   9   89.36    4.03
  -2   3   9  100.42    4.56
  -2   3   8   61.30    3.58
  -2   3   7  102.50    5.04
   2  -3  -6  137.70    5.80
  -2   3   6  122.30    5.64
  -2   3   5   63.88    3.57
   2  -3  -5   64.79    3.61
   2  -3  -5   62.03    3.49
   2  -3  -5   61.43    3.56
   2  -3  -4 1105.16   24.91
   2  -3  -4  989.82   24.75
  -2   3   4  955.38   24.84
  -2   3   4 1075.07   26.13
   2  -3  -4  993.98   24.64
   2  -3  -3  203.72    6.33
  -2   3   3  193.44    7.02
   2  -3  -3  186.88    6.23
  -2   3   3  201.17    6.52
   2  -3  -3  198.41    6.54
  -2   3   2   50.65    2.77
  -2   3   2   53.08    2.89
  -2   3   2   49.23    2.49
   2  -3  -2   47.76    2.42
   2  -3  -2   48.31    2.44
   2  -3  -2   51.68    2.52
   2  -3  -2   48.53    2.41
   2  -3  -2   47.67    2.35
  -2   3   2   48.03    2.44
  -2   3   1  596.40   14.47
   2  -3  -1  594.06   13.98
  -2   3   1  406.39   13.80
   2  -3  -1  580.43   13.95
  -2   3   1  760.81   14.54
  -2   3   1  540.88   13.78
  -2   3   0   19.02    1.44
  -2   3   0   19.76    1.38
   2  -3   0   17.30    1.38
   2  -3   0   19.08    1.41
  -2   3   0   24.25    1.60
  -2   3   0   25.16    1.68
  -2   3  -1  205.06    6.02
  -2   3  -1  201.30    5.39
   2  -3   1  196.60    5.67
   2  -3   1  192.09    5.49
   2  -3   1  195.78    5.78
  -2   3  -2   28.89    1.66
   2  -3   2   28.46    1.60
   2  -3   2   27.14    1.62
   2  -3   2   28.09    1.67
  -2   3  -2   28.35    1.86
  -2   3  -2   31.35    1.88
  -2   3  -2   28.13    1.78
  -2   3  -3  191.45    6.08
   2  -3   3  196.22    5.69
  -2   3  -3  180.90    6.17
   2  -3   3  178.14    5.54
   2  -3   3  184.35    5.77
   2  -3   4   66.90    2.86
   2  -3   4   70.81    3.10
  -2   3  -4   63.44    3.29
  -2   3  -4   63.68    3.29
   2  -3   5 1506.80   34.97
   2  -3   5 1546.02   35.32
   2  -3   6   18.67    1.80
   2  -3   7  546.93   15.83
   2  -3   8  189.04    7.76
   2  -3   9  110.53    5.51
   2  -3  10  302.71    9.85
   2  -3  11  199.03    6.46
  -2   2  10    1.34    0.46
  -2   2  10    1.48    0.53
  -2   2   9  102.01    4.70
  -2   2   8  404.32   12.49
  -2   2   7    5.84    1.18
  -2   2   7    4.01    1.26
   2  -2  -6  303.34   10.04
  -2   2   6  348.37   12.10
  -2   2   6  322.23   11.55
  -2   2   6  358.23   11.20
  -2   2   6  370.62   10.97
  -2   2   5    7.34    1.29
   2  -2  -5    7.09    1.06
   2  -2  -5    7.45    1.09
   2  -2  -5    7.15    1.07
   2  -2  -4   10.75    1.18
   2  -2  -4   10.52    1.16
  -2   2   4    9.60    1.15
   2  -2  -4    9.59    1.13
   2  -2  -3    8.00    0.92
   2  -2  -3    8.16    0.94
   2  -2  -3    7.82    0.91
  -2   2   3    8.53    1.02
  -2   2   3    8.32    0.95
  -2   2   3    8.67    1.07
  -2   2   3    7.82    0.94
   2  -2  -2  135.57    4.24
   2  -2  -2  130.46    4.21
   2  -2  -2  127.96    4.08
   2  -2  -2  133.82    4.23
  -2   2   2  127.79    4.12
   2  -2  -2  142.76    4.39
  -2   2   2  136.40    4.29
  -2   2   2  138.32    4.56
   2  -2  -2  135.17    4.26
   2  -2  -1   36.46    1.70
   2  -2  -1   30.73    1.52
   2  -2  -1   31.62    1.53
  -2   2   1   33.98    1.56
   2  -2  -1   30.87    1.42
   2  -2  -1   33.97    1.67
  -2   2   1   38.99    1.80
  -2   2   1   34.56    1.74
   2  -2  -1   32.40    1.65
   2  -2   0 9999.00  214.03
   2  -2   0 9475.67  214.17
  -2   2   0 9700.98  214.48
  -2   2   0 9883.04  214.56
   2  -2   0 9928.53  214.28
   2  -2   0 9666.22  214.48
  -2   2   0 9654.85  214.36
   2  -2   1 1168.56   25.11
   2  -2   1 1130.69   24.89
  -2   2  -1 1200.21   25.14
   2  -2   1 1133.09   24.56
  -2   2  -1 1148.19   25.36
   2  -2   1 1090.78   24.94
   2  -2   1 1170.01   24.69
   2  -2   1 1132.60   25.00
   2  -2   2  275.72    7.32
   2  -2   2  293.51    7.37
  -2   2  -2  278.96    7.71
  -2   2  -2  283.00    7.43
   2  -2   2  286.05    7.47
  -2   2  -2  284.46    7.48
   2  -2   2  284.61    7.27
  -2   2  -3  259.00    7.50
   2  -2   3  270.02    7.24
   2  -2   3  258.93    7.16
  -2   2  -3  276.95    7.49
   2  -2   3  260.16    7.02
   2  -2   4  408.46   10.86
   2  -2   4  430.70   11.16
  -2   2  -4  439.94   11.72
   2  -2   5   24.81    1.85
  -2   2  -5   25.53    2.20
  -2   2  -6  940.36   24.82
   2  -2   7  129.55    5.62
  -2   2  -7  126.95    6.70
   2  -2   7  131.31    5.96
   2  -2   8   21.23    2.31
   2  -2   9  717.32   19.65
   2  -2  10  110.30    4.96
   2  -2  11   11.88    1.19
  -2   1  10    0.31    0.38
  -2   1  10    0.06    0.32
  -2   1   9  338.27   12.55
  -2   1   9  421.83   12.09
  -2   1   8  308.13   12.00
  -2   1   8  364.70   11.34
  -2   1   7  741.71   20.32
  -2   1   7  736.94   20.81
  -2   1   7  688.21   20.21
  -2   1   7  710.57   19.22
   2  -1  -6   25.94    2.47
  -2   1   6   22.40    2.37
   2  -1  -5  321.83    9.31
   2  -1  -5  319.29    9.35
  -2   1   5  325.50   10.25
   2  -1  -5  324.51   10.11
   2  -1  -5  307.60    9.06
   2  -1  -4  135.23    4.71
  -2   1   4  129.51    4.88
  -2   1   4  145.33    4.85
   2  -1  -3  441.57   11.00
   2  -1  -3  404.55   11.16
  -2   1   3  411.09   11.21
   2  -1  -3  441.55   10.93
  -2   1   3  433.17   11.44
  -2   1   2  248.31    6.89
   2  -1  -2  245.93    6.74
  -2   1   2  237.41    6.72
   2  -1  -2  242.11    6.55
   2  -1  -2  249.23    6.68
  -2   1   2  259.54    6.83
   2  -1  -2  260.54    6.69
   2  -1  -1 5168.91  110.84
   2  -1  -1 5120.59  111.09
  -2   1   1 5059.54  111.09
   2  -1  -1 5303.73  110.74
   2  -1  -1 5170.83  111.05
   2  -1  -1 5058.78  111.04
   2  -1  -1 5240.27  111.09
   2  -1  -1 5244.48  110.67
  -2   1   1 5250.29  110.92
  -2   1   1 5359.15  110.83
   2  -1  -1 5123.73  111.02
  -2   1   1 5170.09  111.21
   2  -1   0 3347.64   73.80
   2  -1   0 3422.86   73.86
   2  -1   0 3377.44   73.47
  -2   1   0 3393.43   73.93
   2  -1   0 3368.97   73.74
  -2   1   0 3460.06   73.41
   2  -1   0 3422.03   73.54
   2  -1   1   29.04    1.28
   2  -1   1   31.40    1.37
  -2   1  -1   31.20    1.49
   2  -1   1   29.08    1.36
  -2   1  -1   28.88    1.07
  -2   1  -1   30.72    1.20
  -2   1  -1   29.20    1.23
  -2   1  -1   30.20    1.18
   2  -1   1   30.65    1.41
  -2   1  -1   33.36    1.22
  -2   1  -2 2355.31   51.77
   2  -1   2 2266.22   51.52
   2  -1   2 2379.22   51.36
  -2   1  -3  611.34   14.61
   2  -1   3  593.63   14.13
   2  -1   3  585.23   14.00
  -2   1  -4  431.77   11.82
  -2   1  -5  215.87    7.76
  -2   1  -5  217.44    7.82
   2  -1   6  247.39    8.18
  -2   1  -6  257.62    9.52
  -2   1  -6  261.95    9.59
   2  -1   7  252.03    9.06
  -2   1  -7  242.18   10.04
   2  -1   8  163.85    7.00
   2  -1   9   30.29    2.63
   2  -1   9   24.88    2.39
   2  -1  10    2.14    0.69
   2  -1  10    1.08    0.54
   2  -1  11  626.38   15.10
  -2   0  11   26.33    1.80
  -2   0  10   21.71    2.34
  -2   0  10   24.33    2.06
   2   0  -9    1.75    0.68
  -2   0   9    3.43    1.21
  -2   0   9    3.29    1.18
  -2   0   9    1.31    0.66
  -2   0   8  196.15    8.42
  -2   0   8  194.80    7.44
  -2   0   8  183.79    7.56
  -2   0   7   33.56    3.09
  -2   0   7   34.62    2.70
   2   0  -7   31.50    2.98
  -2   0   7   32.63    3.09
  -2   0   7   33.43    3.08
   2   0  -7   33.63    2.67
  -2   0   7   35.25    2.81
   2   0  -6  137.83    6.10
   2   0  -6  125.88    5.28
   2   0  -5   27.80    2.19
   2   0  -5   25.53    1.74
   2   0  -4  259.71    7.96
  -2   0   4  275.84    7.79
   2   0  -3 1674.97   33.23
   2   0  -3 1592.72   33.61
   2   0  -3 1610.54   33.00
   2   0  -2  142.71    3.95
   2   0  -2  139.88    4.22
   2   0  -2  137.47    4.22
  -2   0   2  150.67    4.08
   2   0  -2  149.07    4.11
   2   0  -1 3761.38   82.60
  -2   0   1 3844.98   82.79
   2   0  -1 3805.11   82.75
   2   0  -1 3916.07   82.60
   2   0  -1 3856.78   82.68
  -2   0   1 3915.86   82.74
  -2   0   1 3958.08   82.67
   2   0  -1 3858.47   82.63
  -2   0   1 3864.05   82.52
  -2   0   0  503.99   11.56
   2   0   0  506.74   11.69
   2   0   0  493.79   11.63
   2   0   0  497.85   11.10
  -2   0   0  501.07   11.62
  -2   0   0  511.74   11.64
  -2   0  -1    4.08    0.52
   2   0   1    4.28    0.51
  -2   0  -1    4.52    0.48
   2   0   1    3.75    0.48
   2   0   2  257.66    6.92
  -2   0  -2  247.78    6.73
  -2   0  -2  239.17    6.97
   2   0   3 1445.77   31.67
   2   0   3 1420.93   31.80
  -2   0  -3 1408.89   32.21
   2   0   3 1391.76   31.82
   2   0   4 1653.86   38.04
  -2   0  -4 1681.61   38.76
   2   0   4 1643.19   38.10
  -2   0  -5    4.90    1.03
   2   0   5    3.94    0.79
  -2   0  -5    4.84    1.03
  -2   0  -6  241.54    9.49
  -2   0  -6  251.37    9.58
   2   0   7  125.01    6.00
   2   0   7  134.81    6.09
   2   0   8  624.86   17.31
   2   0   8  607.50   17.06
   2   0   9    5.43    1.14
   2   0   9    4.62    1.04
   2   0  10   20.09    1.76
  -2  -1  11    2.51    0.75
   2   1 -10  179.66    6.63
  -2  -1  10  177.83    7.72
  -2  -1  10  181.56    7.62
  -2  -1   9  277.05   10.64
   2   1  -9  281.44    9.53
  -2  -1   9  298.92   11.12
  -2  -1   9  280.47   10.06
  -2  -1   8  695.13   20.85
  -2  -1   8  756.18   20.11
  -2  -1   7 1136.07   28.64
   2   1  -7 1114.28   27.44
  -2  -1   7 1119.23   27.51
   2   1  -6   74.40    3.74
   2   1  -6   85.64    4.47
   2   1  -5  819.61   20.51
   2   1  -4   34.66    2.13
   2   1  -3  130.59    4.33
   2   1  -3  136.41    4.44
   2   1  -2    1.14    0.31
   2   1  -2    0.75    0.20
   2   1  -2    0.55    0.24
   2   1  -2    0.49    0.23
   2   1  -2    1.37    0.33
  -2  -1   2    0.52    0.18
  -2  -1   2    1.22    0.32
   2   1  -1 5828.37  124.53
  -2  -1   1 5755.03  124.50
  -2  -1   1 5881.97  124.24
   2   1   0   16.57    0.99
  -2  -1   0   16.56    0.99
   2   1   0   17.86    1.09
  -2  -1   0   16.51    1.07
  -2  -1   0   17.18    0.99
  -2  -1   0   17.66    1.04
   2   1   1  416.03    9.78
   2   1   1  408.00    9.84
  -2  -1  -1  410.72    9.99
  -2  -1  -1  395.92    9.51
  -2  -1  -1  376.55    9.74
   2   1   2    2.03    0.41
   2   1   2    2.02    0.46
   2   1   3  181.62    5.92
  -2  -1  -3  187.83    6.16
   2   1   3  187.84    5.91
   2   1   4  123.55    4.67
  -2  -1  -4  107.27    4.80
   2   1   4  116.86    4.70
  -2  -1  -5  426.28   12.95
  -2  -1  -5  395.34   12.53
   2   1   6   11.27    1.62
   2   1   6   10.54    1.60
  -2  -1  -6   12.40    1.95
  -2  -1  -6   10.83    1.80
   2   1   7  368.30   11.75
   2   1   7  359.24   11.59
   2   1   8  126.33    5.96
   2   1   8  132.12    6.06
   2   1   9    4.02    0.95
   2   1  10   88.35    3.61
   2   2 -11   24.51    1.87
  -2  -2  11   21.26    2.08
   2   2 -10    9.47    1.40
  -2  -2  10   11.78    1.79
  -2  -2  10   12.96    1.92
  -2  -2  10   12.73    1.70
   2   2  -9  221.52    8.33
  -2  -2   9  246.74    9.76
  -2  -2   9  233.09    8.74
   2   2  -8  262.71    9.37
  -2  -2   8  281.84    9.79
   2   2  -7   42.51    2.98
  -2  -2   7   41.44    2.96
   2   2  -7   46.37    3.48
   2   2  -6  811.77   21.88
   2   2  -6  889.10   21.41
   2   2  -5    5.00    0.90
  -2  -2   5    4.82    0.79
   2   2  -5    3.78    0.71
  -2  -2   4   31.12    1.78
   2   2  -4   28.56    1.91
  -2  -2   3    1.73    0.40
  -2  -2   3    3.43    0.59
   2   2  -3    2.10    0.47
   2   2  -3    2.14    0.48
  -2  -2   3    2.64    0.43
   2   2  -2   31.50    1.67
   2   2  -2   30.70    1.68
  -2  -2   2   28.50    1.64
   2   2  -2   30.07    1.57
  -2  -2   2   31.55    1.65
  -2  -2   2   29.47    1.52
   2   2  -1   10.45    0.94
  -2  -2   1   10.37    0.86
  -2  -2   1   10.24    0.93
  -2  -2   1   10.17    0.92
   2   2  -1   11.14    0.99
  -2  -2   1   13.28    1.00
  -2  -2   1    9.35    0.82
  -2  -2   0   79.77    2.91
   2   2   0   74.78    2.92
  -2  -2   0   74.32    2.95
  -2  -2   0   70.02    2.74
   2   2   1    4.40    0.68
   2   2   1    4.67    0.63
   2   2   1    4.91    0.67
  -2  -2  -1    4.66    0.62
   2   2   2    2.28    0.54
  -2  -2  -3  387.79   10.60
   2   2   3  338.02   10.18
  -2  -2  -4    2.73    0.81
  -2  -2  -4    2.76    0.77
   2   2   4    1.81    0.60
   2   2   5  115.60    5.36
   2   2   5  103.34    5.02
  -2  -2  -5  106.72    5.59
  -2  -2  -5  108.86    5.53
   2   2   5  116.98    5.39
   2   2   6  260.00    9.75
   2   2   6  319.09   10.26
   2   2   7  144.96    6.59
   2   2   7  162.72    6.85
   2   2   8   11.70    1.63
   2   2   8   12.63    1.64
   2   2   9    8.28    1.13
   2   3 -11   35.38    2.37
  -2  -3  11   37.98    2.80
  -2  -3  11   34.15    2.63
  -2  -3  10  260.29    9.59
  -2  -3  10  241.24    8.57
   2   3  -9   92.17    4.86
  -2  -3   9  104.10    5.81
  -2  -3   9   95.12    5.06
   2   3  -8    1.70    0.69
  -2  -3   8    1.77    0.71
   2   3  -7  274.35    9.08
   2   3  -7  252.78    9.45
   2   3  -7  259.43    9.01
  -2  -3   7  282.75    9.33
   2   3  -6  232.43    7.53
  -2  -3   6  219.63    7.62
   2   3  -5  321.60    9.56
   2   3  -5  302.88    8.88
   2   3  -4 3647.39   81.65
  -2  -3   4 3836.51   81.55
   2   3  -4 3729.24   81.96
  -2  -3   3    0.66    0.31
  -2  -3   3    1.13    0.35
   2   3  -3    1.03    0.39
  -2  -3   3    0.85    0.35
   2   3  -3    0.67    0.31
  -2  -3   3    0.95    0.35
  -2  -3   2  631.09   15.53
   2   3  -2  624.90   15.93
   2   3  -2  632.14   15.21
   2   3  -2  655.43   15.87
  -2  -3   2  678.02   15.83
  -2  -3   2  623.54   15.37
  -2  -3   2  628.39   15.69
  -2  -3   1  381.27    9.92
   2   3  -1  398.85   10.58
   2   3  -1  380.76   10.44
  -2  -3   1  397.09   10.41
  -2  -3   1  396.36   10.42
  -2  -3   1  380.93   10.28
  -2  -3   1  378.79   10.07
  -2  -3   0  432.01   11.55
   2   3   0  449.60   11.79
  -2  -3   0  463.20   11.61
   2   3   0  431.40   11.16
  -2  -3   0  432.02   11.27
   2   3   1 1415.12   33.39
   2   3   1 1472.89   33.82
  -2  -3  -1 1539.61   33.75
  -2  -3  -1 1444.52   33.07
   2   3   2  444.57   12.18
  -2  -3  -3  397.80   11.44
   2   3   3  361.91   11.14
  -2  -3  -4   67.72    4.22
  -2  -3  -4   71.18    4.11
   2   3   4   69.04    4.05
   2   3   5   52.35    3.85
   2   3   5   53.34    3.61
   2   3   5   47.44    3.36
   2   3   6   95.58    4.97
   2   3   6   72.10    4.35
   2   3   7  455.20   13.91
   2   3   7  450.85   13.57
   2   3   8    4.59    0.96
   2   3   8    4.57    0.93
   2   3   9    4.38    0.71
   2   4 -11  307.17    9.16
  -2  -4  11  284.81    9.47
  -2  -4  11  283.96    9.57
  -2  -4  11  302.71    9.14
  -2  -4  10   41.25    3.36
  -2  -4  10   42.53    3.07
  -2  -4  10   41.13    2.94
   2   4 -10   37.85    2.86
   2   4  -9    2.62    0.85
  -2  -4   9    2.52    0.82
   2   4  -8    0.55    0.53
  -2  -4   8    0.09    0.37
   2   4  -7    9.36    1.45
   2   4  -7    9.13    1.68
  -2  -4   7    9.18    1.49
  -2  -4   7    8.99    1.41
  -2  -4   6    1.69    0.64
   2   4  -6    1.13    0.59
  -2  -4   5  256.92    8.24
   2   4  -5  252.36    8.87
  -2  -4   4  244.36    7.77
   2   4  -4  250.42    8.21
  -2  -4   4  233.52    7.31
  -2  -4   3  473.93   12.52
  -2  -4   3  444.02   12.15
   2   4  -3  477.14   13.16
  -2  -4   2  195.76    6.35
  -2  -4   2  200.33    6.75
   2   4  -2  196.02    6.77
  -2  -4   2  202.10    6.59
  -2  -4   2  203.60    6.46
   2   4  -2  193.60    6.88
  -2  -4   1   39.79    2.24
  -2  -4   1   42.98    2.59
  -2  -4   1   38.90    2.33
   2   4  -1   38.49    2.48
   2   4  -1   44.39    2.71
  -2  -4   1   43.69    2.67
  -2  -4   1   40.45    2.45
   2   4   0  510.55   13.80
  -2  -4   0  514.91   13.52
   2   4   0  494.88   13.62
  -2  -4   0  469.58   12.97
  -2  -4   0  504.99   13.48
   2   4   1    6.35    1.10
  -2  -4  -1    4.32    0.88
  -2  -4  -1    5.01    0.94
   2   4   1    5.48    0.91
  -2  -4  -2   34.24    2.64
   2   4   2   33.07    2.47
  -2  -4  -3   26.05    2.45
   2   4   3   21.97    2.20
   2   4   4    1.13    0.65
   2   4   4    2.45    0.90
  -2  -4  -4    2.55    0.90
   2   4   4    2.62    0.90
   2   4   5    0.88    0.64
   2   4   6   10.60    1.66
   2   4   7  133.06    5.79
   2   4   8    7.99    1.04
   2   5 -11   12.66    1.44
  -2  -5  11   15.69    1.73
  -2  -5  11   16.66    1.75
  -2  -5  11   16.19    1.61
   2   5 -10  350.04   10.99
   2   5  -9    6.17    1.27
   2   5  -8  364.01   11.52
   2   5  -8  323.18   11.19
  -2  -5   7   87.36    4.94
   2   5  -7   80.44    4.60
   2   5  -6   37.23    3.39
  -2  -5   6   35.74    2.93
   2   5  -6   34.21    2.80
  -2  -5   5    1.66    0.59
   2   5  -5    1.21    0.61
  -2  -5   4  489.42   13.64
   2   5  -4  473.05   14.45
  -2  -5   4  483.69   13.27
  -2  -5   4  472.13   13.74
  -2  -5   3  132.33    5.34
   2   5  -3  133.72    5.86
  -2  -5   3  121.24    5.10
  -2  -5   2 1780.34   40.75
  -2  -5   2 1766.44   40.09
  -2  -5   2 1664.09   39.90
   2   5  -2 1742.48   40.87
   2   5  -2 1747.05   40.56
  -2  -5   1   31.39    2.37
  -2  -5   1   32.40    2.52
   2   5  -1   32.38    2.51
  -2  -5   1   33.95    2.63
  -2  -5   1   30.58    2.29
   2   5  -1   32.83    2.60
   2   5   0  129.78    5.81
  -2  -5   0  133.72    5.34
  -2  -5   0  133.90    5.72
  -2  -5   0  132.40    5.63
  -2  -5   0  131.07    5.84
  -2  -5  -1  344.94   11.14
  -2  -5  -1  330.13   10.96
  -2  -5  -2  120.98    5.74
  -2  -5  -2  110.87    5.58
   2   5   2  124.14    6.00
   2   5   2  108.66    5.69
   2   5   3   10.73    1.74
  -2  -5  -3   11.36    1.77
   2   5   3   13.88    1.96
   2   5   4  839.62   22.96
   2   5   4  818.25   22.78
   2   5   5    1.84    0.86
   2   5   5    1.65    0.75
   2   5   6   60.71    3.77
   2   5   6   58.92    3.59
   2   5   7    1.10    0.50
  -2  -6  11    0.26    0.38
  -2  -6  11    0.87    0.46
   2   6 -10  202.22    7.35
   2   6  -9   13.26    1.75
   2   6  -9   12.40    1.66
   2   6  -8   92.60    5.08
   2   6  -7    3.77    1.02
  -2  -6   6    0.69    0.49
   2   6  -6    0.10    0.40
   2   6  -6    0.42    0.47
  -2  -6   6    0.32    0.42
   2   6  -6    0.23    0.34
  -2  -6   5  243.60    8.93
   2   6  -5  256.02   10.10
   2   6  -5  243.82    8.93
  -2  -6   4   22.95    2.23
  -2  -6   4   21.20    2.25
  -2  -6   4   20.67    2.08
   2   6  -4   20.47    2.43
  -2  -6   3   92.99    4.62
   2   6  -3   92.42    5.17
  -2  -6   3   86.67    4.51
   2   6  -2  171.03    7.37
  -2  -6   2  170.60    7.26
  -2  -6   2  171.98    6.84
  -2  -6   1   -0.26    0.31
  -2  -6   1    0.10    0.29
  -2  -6   1    0.10    0.35
   2   6  -1    0.10    0.31
  -2  -6   0  178.32    7.52
  -2  -6   0  181.39    7.76
   2   6   0  185.00    7.69
   2   6   0  178.33    8.34
   2   6   0  188.03    7.84
   2   6   0  178.15    7.70
   2   6   1    0.44    0.53
  -2  -6  -1    1.18    0.64
   2   6   1    1.67    0.81
   2   6   1    3.07    1.00
  -2  -6  -2   93.48    5.33
   2   6   2   88.17    5.24
   2   6   2   98.69    5.54
   2   6   2   89.25    6.02
   2   6   3  513.11   15.92
   2   6   3  484.45   15.69
   2   6   4    2.05    0.87
   2   6   4    1.16    0.86
   2   6   4    2.23    0.84
   2   6   5   86.76    4.58
   2   6   5   73.78    4.81
   2   6   5   84.08    4.44
   2   6   6   32.48    2.30
   2   6   6   33.45    2.22
  -2  -7  11  164.35    5.61
  -2  -7  11  175.53    5.63
   2   7 -10   14.02    1.50
   2   7  -9   55.55    3.54
   2   7  -8  602.54   17.43
   2   7  -7   81.95    4.83
   2   7  -6  150.34    6.89
   2   7  -5    1.95    0.73
   2   7  -4    5.63    1.29
  -2  -7   4    5.55    1.29
  -2  -7   3    3.91    1.01
  -2  -7   3    4.97    1.23
   2   7  -3    4.19    1.15
   2   7  -3    8.14    1.54
   2   7  -3    4.39    1.14
   2   7  -2  103.20    5.68
   2   7  -2  101.32    6.01
  -2  -7   1  558.92   17.16
   2   7  -1  590.50   18.38
  -2  -7   0  457.08   14.73
   2   7   0  448.94   14.48
   2   7   0  457.39   15.79
   2   7   0  450.89   14.70
   2   7   1  163.71    7.43
   2   7   1  158.52    7.44
   2   7   1  149.04    8.02
   2   7   2   97.96    5.48
   2   7   2   94.49    6.22
   2   7   2  100.82    5.62
   2   7   3   19.63    2.23
   2   7   3   16.75    2.40
   2   7   3   18.44    2.20
   2   7   4    1.51    0.65
   2   7   4    1.76    0.78
   2   7   4    2.59    0.78
   2   7   5    9.15    1.18
   2   7   5    9.53    1.17
   2   8 -10   14.86    1.42
   2   8 -10   14.00    1.45
   2   8  -9   56.41    3.37
   2   8  -8   35.37    2.86
   2   8  -8   30.98    2.78
   2   8  -7   22.41    2.39
   2   8  -7   19.08    2.28
   2   8  -6  156.09    7.03
   2   8  -6  156.80    7.08
   2   8  -6  166.08    7.41
   2   8  -5  185.08    8.05
   2   8  -4   16.98    2.20
   2   8  -3   83.72    4.87
   2   8  -2  107.54    6.41
   2   8  -2  116.91    6.13
   2   8  -1  231.71   10.08
   2   8  -1  239.90    9.53
   2   8   0  105.18    6.35
   2   8   1   54.30    4.33
   2   8   2    9.74    1.50
   2   8   2    8.98    1.70
   2   8   3   67.68    3.63
   2   8   3   64.77    4.07
   2   8   4    2.19    0.55
   2   8   4    2.36    0.64
   2   9  -9  121.94    4.75
   2   9  -8    3.45    0.83
   2   9  -8    3.68    0.90
   2   9  -7   71.47    4.00
   2   9  -7   69.16    4.04
   2   9  -6  510.19   14.96
   2   9  -6  480.45   14.75
   2   9  -5  193.31    8.04
   2   9  -5  195.17    7.90
   2   9  -4  143.41    6.85
   2   9  -4  155.35    6.75
   2   9  -3  116.21    6.01
   2   9  -3  122.51    5.73
   2   9  -2   12.14    1.96
   2   9  -2   13.53    1.89
   2   9  -1   66.70    4.63
   2   9  -1   69.96    4.25
   2   9   0    6.46    1.41
   2   9   0    7.52    1.33
   2   9   1  136.44    6.36
   2   9   1  145.71    5.91
   2   9   2   45.11    2.97
   2   9   2   43.84    2.64
   2  10  -8   50.12    2.51
   2  10  -8   50.92    2.55
   2  10  -7   44.78    2.69
   2  10  -6    3.66    0.89
   2  10  -6    2.26    0.70
   2  10  -5   11.46    1.54
   2  10  -5   12.43    1.54
   2  10  -4  190.62    7.33
   2  10  -4  197.67    7.02
   2  10  -3  112.84    5.11
   2  10  -2   16.10    1.90
   2  10  -1   58.48    3.55
   2  10   0   61.10    3.36
   2  10   0   61.06    2.97
   2  11  -5   75.68    3.18
   2  11  -4   35.22    2.02
  -3  11  -2   84.75    3.48
  -3  11  -3  345.52    9.33
  -3  11  -3  321.46    9.06
  -3  11  -4    8.90    1.03
  -3  11  -4   11.58    1.15
  -3  11  -5   16.76    1.37
  -3  11  -6   46.88    2.24
  -3  10   2   12.35    1.16
  -3  10   1    9.43    1.26
  -3  10   1   10.63    1.27
  -3  10   0  174.28    6.21
  -3  10   0  171.86    6.46
  -3  10   0  174.00    6.70
  -3  10  -1   23.06    2.04
  -3  10  -2    0.85    0.54
  -3  10  -2    0.19    0.49
  -3  10  -3    8.61    1.27
  -3  10  -3    8.72    1.32
  -3  10  -4   48.13    3.01
  -3  10  -4   43.18    2.86
  -3  10  -5  120.65    5.11
  -3  10  -6   34.08    2.41
  -3  10  -7   50.64    2.76
  -3  10  -8   46.84    2.27
  -3   9   3   97.25    4.29
  -3   9   3  100.32    4.50
  -3   9   2   37.19    2.54
  -3   9   2   37.03    2.79
  -3   9   2   38.96    2.97
  -3   9   1  156.43    6.34
  -3   9   1  157.52    6.78
  -3   9   1  161.60    6.52
  -3   9   1  155.17    6.95
  -3   9   0  730.46   20.25
  -3   9   0  738.56   21.23
  -3   9   0  763.74   20.96
  -3   9  -1  505.77   15.34
  -3   9  -1  492.99   15.12
  -3   9  -1  524.50   14.91
  -3   9  -1  488.90   15.79
  -3   9  -2   26.32    2.52
  -3   9  -2   24.34    2.52
  -3   9  -2   30.69    2.77
  -3   9  -2   28.16    2.89
  -3   9  -3    1.62    0.68
  -3   9  -3    0.87    0.71
  -3   9  -3    0.81    0.55
  -3   9  -4   80.80    4.53
  -3   9  -5   68.64    4.11
  -3   9  -6  207.76    7.81
  -3   9  -7   69.79    3.94
  -3   9  -7  110.81    4.67
  -3   9  -8   37.89    2.40
  -3   9  -8   43.55    2.61
  -3   9  -9  119.96    4.32
  -3   8   5  170.32    5.99
  -3   8   5  178.42    5.77
  -3   8   4  156.84    6.52
  -3   8   4  162.74    6.32
  -3   8   3  182.14    7.48
  -3   8   3  182.04    7.75
  -3   8   2  130.51    6.47
  -3   8   2  130.12    5.90
  -3   8   2  133.62    6.77
  -3   8   2  132.59    6.18
  -3   8   2  123.00    5.78
  -3   8   1    2.50    0.92
  -3   8   1    3.43    1.03
  -3   8   1    1.78    0.83
  -3   8   1    3.78    1.13
  -3   8   1    2.77    1.03
  -3   8   0   12.86    2.03
  -3   8   0   11.14    1.81
  -3   8   0   10.23    1.57
  -3   8   0   10.65    1.81
  -3   8   0   11.47    1.78
  -3   8   0   11.20    1.84
  -3   8  -1   13.67    1.90
  -3   8  -1   11.40    1.84
  -3   8  -1   12.18    1.91
  -3   8  -1   14.38    2.00
  -3   8  -1   12.91    2.03
  -3   8  -2  836.82   22.85
  -3   8  -2  844.88   24.03
  -3   8  -2  851.09   23.87
  -3   8  -2  906.23   23.59
  -3   8  -3  340.31   12.52
  -3   8  -3  359.98   11.66
  -3   8  -4    1.58    0.83
  -3   8  -4    1.31    0.72
  -3   8  -5    5.83    1.26
  -3   8  -6    6.27    1.27
  -3   8  -7    0.87    0.64
  -3   8  -8   86.24    4.37
  -3   8  -8   89.41    4.62
  -3   8  -9   53.29    2.98
  -3   8  -9   55.68    3.24
  -3   8 -10   92.17    3.33
  -3   8 -10   65.28    3.38
  -3   7   6  183.08    6.14
  -3   7   5    7.93    1.35
  -3   7   4    3.10    1.02
  -3   7   3  758.06   21.58
  -3   7   3  735.46   20.59
  -3   7   2    7.95    1.52
  -3   7   2   10.34    1.85
  -3   7   2    9.66    1.62
  -3   7   2    8.95    1.63
  -3   7   1  223.48    8.77
  -3   7   1  224.08    9.41
  -3   7   1  235.52    8.73
  -3   7   1  234.50    9.32
  -3   7   0  373.37   12.14
  -3   7   0  350.59   12.59
  -3   7   0  381.98   12.74
  -3   7   0  383.02   12.69
  -3   7   0  368.24   12.39
  -3   7  -1    0.95    0.62
  -3   7  -1    1.26    0.72
  -3   7  -1    0.11    0.51
  -3   7  -1    0.10    0.36
  -3   7  -1    0.74    0.55
   3  -7   2  716.34   20.08
  -3   7  -2  698.41   21.00
  -3   7  -2  770.05   20.20
  -3   7  -2  730.58   20.45
  -3   7  -2  733.85   20.52
   3  -7   3    0.89    0.55
   3  -7   3    0.43    0.48
   3  -7   3    0.99    0.59
  -3   7  -3    3.62    1.09
  -3   7  -3    3.42    0.92
  -3   7  -3    2.63    0.87
  -3   7  -3    2.50    0.90
   3  -7   4  255.11    9.69
  -3   7  -4  263.35   10.34
  -3   7  -4  242.11    9.14
  -3   7  -4  280.79    9.81
  -3   7  -5  179.06    7.41
  -3   7  -6  738.07   20.18
  -3   7  -7   61.22    4.11
  -3   7  -8  162.57    7.08
  -3   7  -9  125.28    5.66
  -3   7 -10    3.58    0.81
  -3   7 -10    4.27    0.75
  -3   6   7  275.14    8.32
  -3   6   7  282.98    8.47
  -3   6   6   38.46    2.96
  -3   6   6   36.45    2.87
  -3   6   5   26.86    2.83
  -3   6   4  215.91    9.43
  -3   6   3    9.83    1.59
   3  -6  -3   11.35    1.65
  -3   6   3   10.75    1.74
  -3   6   3   11.91    2.03
  -3   6   2   65.98    4.13
   3  -6  -2   61.20    3.78
  -3   6   2   64.05    4.53
  -3   6   2   74.66    4.37
  -3   6   2   65.07    4.33
  -3   6   2   69.28    4.72
  -3   6   1 1606.92   38.36
  -3   6   1 1628.78   39.28
   3  -6  -1 1546.28   38.16
  -3   6   1 1511.55   39.08
  -3   6   1 1701.46   38.34
  -3   6   1 1558.08   38.60
  -3   6   1 1600.55   39.01
   3  -6   0  169.14    6.53
  -3   6   0  167.58    6.85
  -3   6  -1   21.01    2.24
   3  -6   2   11.83    1.54
   3  -6   2   15.00    1.76
   3  -6   2   14.14    1.81
  -3   6  -2   13.41    1.84
  -3   6  -2   10.04    1.55
   3  -6   3  298.02   10.06
   3  -6   3  284.17    9.72
  -3   6  -3  271.17   10.42
   3  -6   4 1794.20   41.36
  -3   6  -4 1621.10   42.51
   3  -6   4 1741.12   41.70
   3  -6   4 1714.83   41.03
  -3   6  -4 1884.84   43.20
  -3   6  -4 1615.35   41.01
  -3   6  -4 1911.61   41.96
   3  -6   5   16.88    1.96
  -3   6  -5   15.93    2.26
  -3   6  -5   19.45    2.07
   3  -6   5   18.18    2.01
  -3   6  -6  421.20   13.46
  -3   6  -7   40.22    3.36
  -3   6  -8    7.99    1.53
  -3   6  -9   39.78    3.11
  -3   6 -10    7.73    1.26
  -3   5   8   20.41    1.71
  -3   5   7   84.87    4.73
  -3   5   7   97.78    4.85
  -3   5   6  104.24    5.78
  -3   5   6   97.03    5.47
  -3   5   5  108.49    6.17
  -3   5   5   99.56    5.69
   3  -5  -4   30.38    2.57
   3  -5  -4   28.30    2.57
  -3   5   4   22.34    2.79
  -3   5   3  168.43    7.34
  -3   5   3  187.03    7.61
   3  -5  -3  195.96    7.39
  -3   5   3  192.72    8.51
   3  -5  -3  191.24    7.21
   3  -5  -3  186.81    7.16
  -3   5   3  184.66    7.91
  -3   5   2    0.63    0.46
   3  -5  -2    0.83    0.44
   3  -5  -2    1.43    0.60
   3  -5  -2    0.69    0.43
  -3   5   2    1.09    0.65
   3  -5  -1  444.89   12.93
  -3   5   1  591.68   14.78
  -3   5   1  506.22   13.48
   3  -5   0  753.26   18.03
   3  -5   0  704.30   16.99
  -3   5   0  573.59   16.84
  -3   5   0  587.09   16.54
   3  -5   1  736.33   18.52
   3  -5   1  675.09   17.61
  -3   5  -1  676.59   18.33
  -3   5  -1  700.58   18.56
   3  -5   2  762.75   19.21
   3  -5   2  749.98   19.36
   3  -5   2  741.40   18.92
  -3   5  -2  732.66   19.79
   3  -5   3   67.41    3.37
  -3   5  -3   58.25    3.76
   3  -5   3   64.77    3.46
   3  -5   3   61.99    3.47
   3  -5   4  346.46   10.68
  -3   5  -4  324.29   11.34
   3  -5   4  349.89   10.52
   3  -5   4  350.32   10.49
  -3   5  -5  201.76    8.43
   3  -5   5  218.04    7.75
   3  -5   6  364.04   11.79
  -3   5  -6  408.01   12.84
  -3   5  -7  216.85    8.80
  -3   5  -8  530.92   16.23
  -3   5  -9   82.35    4.78
   3  -5  10  171.53    6.30
   3  -5  11    3.79    0.65
  -3   4   9    2.65    0.54
  -3   4   9    3.88    0.72
  -3   4   8    0.37    0.39
  -3   4   8   -0.08    0.39
  -3   4   7  113.19    6.10
  -3   4   7  130.45    5.49
  -3   4   6    1.30    0.82
   3  -4  -5  241.60    8.83
   3  -4  -5  246.72    9.00
  -3   4   5  257.04   10.22
   3  -4  -5  247.41    8.82
   3  -4  -4  239.22    8.59
   3  -4  -4  249.01    8.79
   3  -4  -4  233.31    8.49
  -3   4   3   28.05    2.48
   3  -4  -3   26.42    2.20
   3  -4  -3   27.03    2.33
  -3   4   3   31.18    2.76
   3  -4  -3   29.89    2.27
  -3   4   2    5.27    1.04
   3  -4  -2    6.54    1.02
   3  -4  -2    5.44    0.92
   3  -4  -2    6.22    1.01
  -3   4   2    5.90    1.10
   3  -4  -2    5.41    0.92
  -3   4   2    4.79    0.86
  -3   4   1  479.35   13.58
   3  -4  -1  518.45   13.20
   3  -4  -1  513.78   13.45
   3  -4  -1  506.39   13.20
  -3   4   1  489.17   13.23
   3  -4  -1  493.54   12.92
  -3   4   1  531.29   13.11
  -3   4   0  143.08    5.52
   3  -4   0  149.04    5.52
  -3   4   0  151.01    5.51
   3  -4   0  136.61    4.98
  -3   4  -1 5036.55  107.50
   3  -4   1 5015.38  107.35
   3  -4   1 5089.50  107.75
   3  -4   1 4738.42  107.27
  -3   4  -1 4936.91  108.07
   3  -4   2    6.53    0.92
   3  -4   2    6.05    0.84
  -3   4  -2    6.60    1.07
   3  -4   2    6.75    0.93
   3  -4   3  236.18    7.42
   3  -4   3  216.28    7.05
   3  -4   3  230.86    7.23
  -3   4  -3  228.33    8.00
   3  -4   4  386.75   10.79
   3  -4   4  379.54   10.88
  -3   4  -4  368.64   11.69
   3  -4   5  324.93    9.77
   3  -4   5  306.39    9.65
   3  -4   6  492.55   14.73
  -3   4  -6  596.39   16.21
  -3   4  -7 1251.71   31.86
  -3   4  -8  431.58   13.99
   3  -4   8  433.19   13.56
   3  -4   9    6.88    1.28
   3  -4  10   35.28    2.54
   3  -4  11    4.08    0.74
   3  -4  11    4.25    0.71
  -3   3   9  132.63    5.10
  -3   3   9  145.62    5.71
  -3   3   8    2.34    0.74
  -3   3   8    2.07    0.84
  -3   3   7  111.65    5.30
   3  -3  -6   30.96    2.61
   3  -3  -6   27.26    2.42
  -3   3   6   23.75    2.30
  -3   3   5  150.55    6.22
   3  -3  -5  148.29    6.18
   3  -3  -5  153.10    6.25
   3  -3  -5  155.22    6.29
  -3   3   5  171.04    7.47
  -3   3   4  127.44    5.68
   3  -3  -4  103.96    4.71
   3  -3  -4  113.45    4.95
  -3   3   4  129.68    5.77
   3  -3  -4  102.29    4.64
  -3   3   3   12.18    1.51
   3  -3  -3   10.41    1.24
  -3   3   3    8.48    1.28
   3  -3  -3   10.37    1.22
   3  -3  -3   12.44    1.36
  -3   3   3   12.86    1.39
  -3   3   2    2.02    0.64
  -3   3   2    2.58    0.64
   3  -3  -2    1.39    0.46
   3  -3  -2    2.04    0.55
   3  -3  -2    1.17    0.43
  -3   3   2    1.29    0.46
  -3   3   1    4.69    0.82
   3  -3  -1    6.65    0.83
   3  -3  -1    4.88    0.74
   3  -3  -1    4.69    0.74
   3  -3  -1    3.69    0.65
  -3   3   1    4.74    0.78
  -3   3   0  333.68    9.39
  -3   3   0  351.44    9.12
   3  -3   0  323.15    8.93
   3  -3   0  344.66    9.23
  -3   3   0  320.72    9.30
   3  -3   0  344.22    8.98
  -3   3  -1   60.77    2.70
  -3   3  -1   49.22    2.33
   3  -3   1   52.58    2.44
   3  -3   1   57.55    2.55
   3  -3   1   50.48    2.29
  -3   3  -1   50.56    2.72
  -3   3  -2  827.54   20.65
   3  -3   2  861.73   20.08
   3  -3   2  885.44   20.00
   3  -3   2  801.78   19.79
   3  -3   3 1050.56   25.04
   3  -3   3 1127.14   25.03
  -3   3  -3 1074.04   25.86
   3  -3   3 1046.57   25.03
   3  -3   4   20.15    1.64
   3  -3   4   20.75    1.66
   3  -3   4   22.71    1.69
   3  -3   5  646.33   16.74
  -3   3  -6  451.30   13.84
  -3   3  -7  211.58    8.32
   3  -3   7  197.18    7.77
   3  -3   8  220.68    8.52
   3  -3   9   15.19    1.88
   3  -3  10    1.57    0.59
   3  -3  11   72.37    3.07
  -3   2  10  104.13    3.96
  -3   2  10   92.45    4.06
  -3   2   9    4.12    0.94
  -3   2   8  108.28    5.24
  -3   2   7   99.57    5.01
  -3   2   7   82.10    5.29
  -3   2   6  231.47    8.87
   3  -2  -6  213.21    7.53
  -3   2   6  205.84    7.60
  -3   2   5  417.14   12.94
   3  -2  -5  422.59   12.25
   3  -2  -5  441.42   12.35
  -3   2   4  465.90   12.10
   3  -2  -4  430.03   11.37
   3  -2  -4  385.70   11.05
  -3   2   4  349.19   11.35
  -3   2   4  391.68   11.43
  -3   2   3  347.35   11.36
  -3   2   3  385.21   11.62
   3  -2  -3  488.09   11.80
   3  -2  -3  454.75   11.71
  -3   2   3  525.23   12.20
   3  -2  -2 1585.04   31.97
   3  -2  -2 1356.78   31.49
   3  -2  -2 1485.81   31.63
   3  -2  -2 1403.18   31.68
  -3   2   2 1180.44   31.59
  -3   2   2 1363.71   31.77
  -3   2   1    6.07    0.80
   3  -2  -1    6.23    0.78
   3  -2  -1    7.98    0.86
  -3   2   1    7.07    0.79
  -3   2   1    7.22    0.85
   3  -2  -1    6.13    0.77
  -3   2   0  110.04    3.87
   3  -2   0  122.78    3.87
  -3   2   0  122.28    4.18
   3  -2   0  116.91    3.98
   3  -2   0  125.14    3.97
   3  -2   1  316.73    8.17
  -3   2  -1  312.65    8.53
   3  -2   1  326.47    8.28
   3  -2   2 2092.03   43.63
  -3   2  -2 1929.10   44.09
   3  -2   2 1917.92   43.36
   3  -2   2 1900.06   43.67
   3  -2   2 2050.95   43.75
   3  -2   3 1329.61   30.43
  -3   2  -3 1291.77   30.96
   3  -2   3 1370.25   30.07
   3  -2   4 2131.87   47.68
  -3   2  -5  846.18   22.19
   3  -2   5  863.11   21.28
   3  -2   6   25.26    2.20
   3  -2   6   29.36    2.50
  -3   2  -6   28.68    2.77
   3  -2   7  648.37   17.78
   3  -2   7  629.78   17.97
   3  -2   8  331.70   11.18
   3  -2   9  526.22   15.28
   3  -2  10   13.98    1.55
   3  -2  10   15.77    1.70
  -3   1  10   20.31    1.74
  -3   1   9    2.10    0.88
  -3   1   9    3.92    0.95
  -3   1   8  183.49    8.13
  -3   1   8  179.56    7.15
  -3   1   7  324.82   11.54
  -3   1   7  316.78   10.54
  -3   1   7  346.33   11.00
  -3   1   6   83.52    4.73
  -3   1   6   88.71    4.49
   3  -1  -6   84.33    4.15
  -3   1   5  112.99    4.89
  -3   1   5  123.92    5.32
   3  -1  -5  108.54    4.57
   3  -1  -4  458.75   11.76
  -3   1   4  447.49   12.18
  -3   1   4  428.81   11.92
   3  -1  -4  417.97   11.41
  -3   1   4  422.84   11.76
  -3   1   3  334.47    9.77
   3  -1  -3  354.37    9.81
   3  -1  -3  346.61    9.38
  -3   1   3  360.07    9.83
  -3   1   2    7.54    0.87
   3  -1  -2    7.63    0.79
   3  -1  -2    7.98    0.88
   3  -1  -2    5.20    0.72
  -3   1   1   13.14    1.08
  -3   1   1   17.99    1.25
   3  -1  -1   15.33    1.07
   3  -1  -1   17.57    1.27
   3  -1  -1   17.33    1.12
  -3   1   1   17.57    1.20
   3  -1  -1   18.89    1.22
   3  -1  -1   16.83    1.16
  -3   1   0    2.87    0.43
  -3   1   0    3.00    0.51
   3  -1   0    3.18    0.50
   3  -1   0    3.04    0.54
   3  -1   1  260.10    7.16
   3  -1   1  274.32    7.18
   3  -1   1  282.92    7.38
  -3   1  -1  265.27    7.37
   3  -1   1  278.78    7.33
   3  -1   2   42.91    2.10
   3  -1   2   46.04    2.23
  -3   1  -2   44.80    2.26
   3  -1   2   44.17    2.00
  -3   1  -2   49.63    2.17
   3  -1   2   48.53    2.14
   3  -1   3   11.36    1.11
   3  -1   3   15.21    1.28
  -3   1  -3   13.08    1.23
   3  -1   4  268.40    8.13
   3  -1   4  284.79    8.13
  -3   1  -4  266.12    8.53
   3  -1   5  220.56    7.56
  -3   1  -5  245.71    8.57
  -3   1  -5  241.97    8.61
  -3   1  -6    1.38    0.72
   3  -1   6    1.26    0.55
   3  -1   6    2.10    0.79
  -3   1  -6    0.69    0.56
   3  -1   7    3.47    0.99
   3  -1   7    4.67    1.13
   3  -1   8  106.16    5.38
   3  -1   8  102.68    5.34
   3  -1   9  355.24   11.25
   3  -1   9  338.68   10.75
   3  -1  10  166.69    5.83
  -3   0  11   17.84    1.41
   3   0 -10   58.83    3.23
  -3   0  10   62.07    3.87
  -3   0  10   70.79    3.55
  -3   0   9  100.35    5.66
  -3   0   9  116.41    5.32
  -3   0   9  109.06    5.47
  -3   0   8   76.42    4.98
  -3   0   8   84.17    4.55
  -3   0   8   70.14    4.70
  -3   0   8   76.57    4.53
  -3   0   7   37.11    3.03
   3   0  -7   37.79    3.23
  -3   0   7   31.40    2.65
   3   0  -7   33.36    2.75
  -3   0   7   35.82    2.89
   3   0  -6  225.06    8.45
   3   0  -6  217.96    7.89
  -3   0   6  241.73    8.57
  -3   0   5  244.90    8.00
   3   0  -5  238.22    8.13
   3   0  -4  204.50    6.88
  -3   0   4  228.05    7.14
   3   0  -4  212.53    7.07
   3   0  -3    3.43    0.64
   3   0  -3    3.96    0.59
   3   0  -3    4.64    0.72
   3   0  -3    4.23    0.58
   3   0  -3    3.22    0.59
  -3   0   3    5.95    0.77
  -3   0   2 5862.86  120.92
   3   0  -2 5605.87  120.98
   3   0  -2 5602.75  120.51
   3   0  -2 5757.28  120.92
   3   0  -2 5548.05  120.74
  -3   0   2 5446.55  120.75
  -3   0   1   72.42    2.69
   3   0  -1   67.08    2.52
   3   0  -1   70.97    2.51
   3   0  -1   74.35    2.64
   3   0  -1   73.26    2.73
  -3   0   1   68.91    2.67
  -3   0   1   67.73    2.67
  -3   0   1   70.44    2.59
   3   0   0 2666.00   58.43
   3   0   0 2616.81   59.15
  -3   0   0 2753.76   59.00
  -3   0   0 2808.48   58.50
  -3   0   0 2712.84   59.06
  -3   0  -1  137.35    4.42
   3   0   1  130.73    4.35
  -3   0  -1  134.80    4.14
   3   0   1  140.24    4.20
  -3   0  -2   17.72    1.36
   3   0   2   17.39    1.34
  -3   0  -2   15.73    1.19
   3   0   3    2.26    0.55
  -3   0  -3    2.26    0.57
   3   0   3    2.94    0.64
   3   0   4 1329.78   30.62
  -3   0  -4 1273.64   31.09
   3   0   4 1312.21   30.68
   3   0   5   79.40    3.99
  -3   0  -5   77.35    4.47
  -3   0  -5   75.04    4.30
  -3   0  -6 1980.91   49.28
   3   0   6 1986.44   47.78
   3   0   6 2126.14   47.60
   3   0   6 2098.66   48.01
   3   0   6 2073.17   48.15
  -3   0  -6 1945.94   49.02
   3   0   7   54.95    3.78
   3   0   7   57.81    3.88
   3   0   8    7.88    1.41
   3   0   8    7.63    1.48
   3   0   8    7.20    1.33
   3   0   9  165.41    6.46
   3   0  10   23.21    1.70
   3   1 -11   30.76    1.97
   3   1 -10    8.42    1.28
  -3  -1  10    9.44    1.55
   3   1  -9   76.86    4.34
  -3  -1   9   74.06    4.77
  -3  -1   9   93.16    5.34
  -3  -1   9   86.55    4.77
  -3  -1   8   59.74    4.25
  -3  -1   8   52.45    3.91
  -3  -1   8   50.58    3.62
  -3  -1   7    2.67    0.84
   3   1  -7    1.96    0.78
   3   1  -7    2.03    0.70
  -3  -1   7    2.41    0.80
   3   1  -6    0.44    0.42
   3   1  -6    1.82    0.62
   3   1  -5  341.44   10.32
   3   1  -4   70.40    3.24
   3   1  -4   57.92    3.05
   3   1  -3  520.60   13.84
   3   1  -3  577.56   14.06
  -3  -1   3  593.72   13.67
   3   1  -3  523.79   13.82
  -3  -1   2   76.92    2.93
   3   1  -2   73.29    2.92
   3   1  -2   70.10    2.98
  -3  -1   2   68.07    2.94
   3   1  -2   72.36    2.95
  -3  -1   2   73.64    2.67
   3   1  -1  740.02   17.59
   3   1  -1  709.80   17.56
  -3  -1   1  768.91   17.55
  -3  -1   1  709.91   17.30
  -3  -1   1  780.68   17.27
  -3  -1   0 1767.28   38.37
   3   1   0 1684.49   38.50
  -3  -1   0 1683.04   38.17
  -3  -1   0 1778.29   38.28
   3   1   1    1.37    0.38
  -3  -1  -1    1.12    0.36
  -3  -1  -1    1.28    0.33
  -3  -1  -1    1.38    0.39
   3   1   2   65.39    2.93
  -3  -1  -2   65.05    2.97
   3   1   2   68.33    3.03
  -3  -1  -2   66.03    2.94
   3   1   3   23.53    1.86
  -3  -1  -3   21.68    1.84
   3   1   3   23.78    1.89
   3   1   4  121.66    5.14
  -3  -1  -4  125.29    5.45
   3   1   4  119.74    5.20
  -3  -1  -5   85.82    4.95
   3   1   5   86.52    4.52
   3   1   5   77.99    4.34
  -3  -1  -5   75.25    4.53
   3   1   6  242.61    9.10
   3   1   6  246.56    9.05
   3   1   6  264.20    9.86
   3   1   7  115.96    5.76
   3   1   7  127.79    6.37
   3   1   7  112.45    5.66
   3   1   8  342.41   11.08
   3   1   9   27.23    2.12
   3   2 -11  126.48    4.69
  -3  -2  11  107.87    4.83
   3   2 -10    2.66    0.75
  -3  -2  10    2.35    0.84
  -3  -2  10    2.14    0.86
  -3  -2  10    2.32    0.81
   3   2  -9  143.08    6.30
  -3  -2   9  152.95    7.13
  -3  -2   9  152.33    7.00
  -3  -2   9  145.82    6.60
  -3  -2   8   40.31    3.15
  -3  -2   7   67.76    4.14
   3   2  -7   55.57    3.91
   3   2  -7   62.34    3.80
  -3  -2   7   62.93    3.85
   3   2  -6  471.37   13.66
   3   2  -6  446.61   13.02
   3   2  -5    3.46    0.80
   3   2  -4   16.23    1.56
   3   2  -4   15.36    1.48
   3   2  -3  401.32   10.66
   3   2  -3  383.71   10.69
  -3  -2   3  399.10   10.79
   3   2  -2   69.14    3.14
   3   2  -2   69.12    2.97
  -3  -2   2   65.25    3.00
  -3  -2   2   68.09    2.77
   3   2  -1  196.77    6.04
  -3  -2   1  194.05    6.20
  -3  -2   1  195.26    5.92
  -3  -2   0  620.00   14.85
  -3  -2   0  593.47   14.57
  -3  -2   0  628.40   15.10
  -3  -2   0  590.38   14.79
   3   2   1   55.63    2.75
  -3  -2  -1   57.30    2.87
   3   2   1   57.52    2.74
  -3  -2  -1   53.36    2.62
  -3  -2  -2 1281.28   29.21
   3   2   2 1263.60   29.12
  -3  -2  -3  677.88   17.65
   3   2   3  665.09   17.43
  -3  -2  -3  649.36   17.42
  -3  -2  -4   21.45    2.19
   3   2   4   22.55    2.20
   3   2   5   62.44    4.31
   3   2   5   57.09    3.80
  -3  -2  -5   58.25    4.19
   3   2   5   68.79    4.12
   3   2   5   73.32    4.24
  -3  -2  -5   53.14    3.93
   3   2   5   54.82    3.83
   3   2   6  246.81    9.80
   3   2   6  241.67    9.10
   3   2   7  173.36    7.66
   3   2   7  174.95    7.20
   3   2   8  409.88   12.12
   3   2   9    8.51    1.02
   3   3 -11   29.47    2.11
  -3  -3  11   29.17    2.34
  -3  -3  11   32.48    2.40
   3   3 -10    0.24    0.46
  -3  -3  10    0.81    0.60
  -3  -3  10    0.19    0.45
  -3  -3  10    1.29    0.61
   3   3  -9   15.41    1.88
  -3  -3   9   15.82    2.15
  -3  -3   9   15.89    1.97
   3   3  -8   17.13    1.97
  -3  -3   8   16.67    2.02
   3   3  -7    1.65    0.65
   3   3  -7    0.78    0.50
   3   3  -7    0.96    0.51
  -3  -3   7    1.66    0.70
   3   3  -6    1.29    0.58
  -3  -3   6    1.82    0.66
   3   3  -6    1.77    0.60
   3   3  -5   90.77    4.44
   3   3  -4  255.63    8.18
   3   3  -4  256.65    8.22
   3   3  -3   76.97    3.70
  -3  -3   3   77.81    3.63
   3   3  -3   77.44    3.52
  -3  -3   3   76.17    3.29
  -3  -3   2   21.69    1.73
   3   3  -2   20.22    1.67
   3   3  -2   17.87    1.67
  -3  -3   2   21.50    1.58
   3   3  -1  187.19    6.62
  -3  -3   1  194.58    6.44
  -3  -3   1  195.71    6.09
   3   3  -1  182.25    6.23
  -3  -3   0  394.21   11.24
   3   3   0  420.80   11.86
  -3  -3   0  410.15   11.12
   3   3   0  418.36   11.19
   3   3   0  406.19   10.92
  -3  -3   0  383.70   10.85
  -3  -3  -1    3.21    0.70
  -3  -3  -1    3.29    0.76
   3   3   1    3.51    0.75
  -3  -3  -2  392.52   11.51
   3   3   2  375.53   11.40
  -3  -3  -3   46.12    3.19
  -3  -3  -3   43.27    3.09
   3   3   3   42.41    3.05
   3   3   4  716.06   20.81
   3   3   4  754.51   20.23
   3   3   4  800.73   20.17
  -3  -3  -4  756.37   20.29
  -3  -3  -4  674.11   19.88
   3   3   4  681.68   19.83
   3   3   5  269.48   10.13
   3   3   5  290.64   10.98
   3   3   5  307.83   10.38
   3   3   6   27.20    2.62
   3   3   6   32.44    2.79
   3   3   6   31.07    3.01
   3   3   7   18.59    1.99
   3   3   7   14.82    1.75
   3   3   8   81.29    3.69
   3   4 -11    1.41    0.57
  -3  -4  11    1.60    0.55
   3   4 -10   15.14    1.75
  -3  -4  10   11.81    1.72
  -3  -4  10   10.92    1.52
   3   4  -9  800.62   20.89
  -3  -4   9  755.47   20.95
   3   4  -8   69.98    4.14
   3   4  -8   70.89    4.29
  -3  -4   8   72.81    4.39
  -3  -4   7  200.76    7.89
   3   4  -7  165.07    7.23
   3   4  -7  179.93    7.75
  -3  -4   7  204.33    7.81
   3   4  -6  163.43    6.65
   3   4  -6  163.44    6.88
   3   4  -6  149.92    6.77
  -3  -4   6  157.70    6.64
   3   4  -5   34.27    2.66
  -3  -4   4   87.18    4.13
   3   4  -4   85.54    4.53
  -3  -4   4   88.98    4.30
  -3  -4   3  296.50    9.28
   3   4  -3  301.37    9.87
  -3  -4   3  317.57    9.29
   3   4  -2   78.68    4.21
   3   4  -2   80.80    4.11
  -3  -4   2   85.92    3.91
  -3  -4   1 1288.84   30.31
   3   4  -1 1282.56   30.40
   3   4  -1 1233.48   30.76
  -3  -4   1 1305.66   30.41
  -3  -4   1 1257.18   29.86
  -3  -4   0  382.02   10.86
   3   4   0  347.88   11.11
   3   4   0  361.79   10.80
  -3  -4   0  329.41   10.58
  -3  -4   0  353.43   10.37
  -3  -4  -1  594.37   15.67
   3   4   1  587.87   16.46
  -3  -4  -1  572.25   15.84
   3   4   1  573.50   15.47
  -3  -4  -2  216.99    8.13
   3   4   2  202.15    7.70
   3   4   3   34.27    3.19
   3   4   3   36.68    3.07
  -3  -4  -3   35.28    3.04
  -3  -4  -3   31.91    2.80
   3   4   3   34.33    2.94
   3   4   4    6.35    1.52
   3   4   4    7.12    1.44
   3   4   5   51.40    3.57
   3   4   5   51.76    3.97
   3   4   5   52.27    3.76
   3   4   6   23.08    2.31
   3   4   6   21.61    2.13
   3   4   7    2.14    0.67
   3   4   8   52.68    2.44
  -3  -4  -8   60.58    2.72
   3   5 -11   47.37    2.65
  -3  -5  11   47.44    2.68
   3   5 -10  129.54    5.57
  -3  -5  10  144.20    5.80
   3   5  -9    6.50    1.28
  -3  -5   9    6.34    1.27
   3   5  -8  155.62    6.95
  -3  -5   8  166.22    7.04
   3   5  -7  100.56    5.36
  -3  -5   7  104.83    5.39
   3   5  -6   57.63    3.87
   3   5  -6   68.39    4.76
   3   5  -6   69.22    4.39
  -3  -5   6   65.67    4.10
  -3  -5   5   55.19    3.50
   3   5  -5   50.48    3.43
   3   5  -5   59.17    4.16
   3   5  -5   55.85    3.84
   3   5  -5   59.19    3.88
   3   5  -5   50.86    3.64
  -3  -5   4  198.74    7.37
   3   5  -4  201.61    8.07
  -3  -5   4  188.73    7.06
  -3  -5   3  187.30    6.87
   3   5  -3  176.07    7.32
  -3  -5   3  181.90    6.81
   3   5  -2  254.74    9.08
  -3  -5   2  244.69    8.63
  -3  -5   2  245.63    8.35
   3   5  -2  232.17    8.68
   3   5  -1   71.66    4.12
   3   5  -1   68.25    4.19
  -3  -5   1   76.02    4.20
  -3  -5   1   68.59    4.00
  -3  -5   1   70.20    3.82
  -3  -5   0   18.75    2.03
   3   5   0   18.89    2.17
   3   5   0   18.64    2.06
  -3  -5   0   17.38    1.97
  -3  -5   0   16.71    1.79
  -3  -5  -1  138.33    6.15
   3   5   1  137.63    6.41
  -3  -5  -1  128.70    6.15
   3   5   1  127.19    6.18
  -3  -5  -2   49.39    3.72
   3   5   2   54.68    3.94
   3   5   2   58.28    3.99
   3   5   3 1217.38   31.14
   3   5   3 1190.89   30.80
   3   5   4  151.62    7.04
   3   5   4  156.22    6.96
   3   5   5   17.84    2.07
   3   5   6    0.52    0.47
   3   5   6    0.20    0.40
   3   5   7  200.09    6.21
  -3  -6  11    0.15    0.30
   3   6 -10   42.19    2.78
   3   6  -9   23.60    2.31
   3   6  -8  372.57   12.30
   3   6  -7  254.16    9.66
   3   6  -6   60.66    4.06
   3   6  -5  245.02   10.04
   3   6  -5  237.94    9.37
   3   6  -5  244.41    9.46
   3   6  -5  241.11    8.98
  -3  -6   4  618.66   17.61
   3   6  -4  625.98   18.71
   3   6  -4  600.01   18.10
  -3  -6   4  644.66   17.67
   3   6  -4  645.95   18.38
   3   6  -3    3.79    1.06
  -3  -6   3    4.17    1.02
   3   6  -3    3.55    1.03
   3   6  -2  197.24    8.23
   3   6  -2  207.87    8.39
  -3  -6   2  202.35    7.76
   3   6  -2  189.26    8.11
   3   6  -1   87.72    5.03
   3   6  -1   84.12    4.97
  -3  -6   1   83.04    4.58
  -3  -6   0  139.33    6.46
   3   6   0  122.54    6.26
   3   6   0  132.28    6.49
   3   6   0  128.05    6.39
  -3  -6   0  125.49    6.16
  -3  -6  -1   30.83    2.93
   3   6   1   30.06    2.95
   3   6   1   25.83    3.17
   3   6   1   26.52    2.76
   3   6   2  275.38   10.53
   3   6   2  266.58   11.65
   3   6   3    5.05    1.25
   3   6   3    7.49    1.74
   3   6   3    5.60    1.33
   3   6   4   40.43    3.15
   3   6   4   40.67    3.70
   3   6   4   35.12    2.86
   3   6   5  251.95    8.48
   3   6   5  251.08    9.37
   3   6   6    1.25    0.43
   3   6   6    0.75    0.45
  -3  -7  11    0.23    0.26
   3   7 -10  288.56    8.83
   3   7  -9  117.57    5.40
   3   7  -8  286.57   10.08
   3   7  -7   11.42    1.78
   3   7  -6    3.20    1.01
   3   7  -5  509.74   16.00
   3   7  -4   78.75    4.99
   3   7  -4   82.84    4.87
   3   7  -3    1.19    0.68
   3   7  -3    3.01    1.00
   3   7  -2  477.83   15.34
   3   7  -2  488.10   15.56
   3   7  -1  204.05    8.49
   3   7  -1  170.17    8.53
   3   7   0    0.60    0.62
   3   7   0    1.51    0.87
   3   7   1  135.97    6.63
   3   7   1  121.46    7.21
   3   7   2    3.56    1.02
   3   7   2    2.33    1.02
   3   7   2    2.54    0.93
   3   7   3    1.48    0.71
   3   7   3    0.38    0.65
   3   7   3    0.80    0.55
   3   7   4   44.52    2.85
   3   7   4   42.68    3.22
   3   7   5  145.31    4.78
   3   7   5  121.86    4.86
   3   8 -10   39.71    2.29
   3   8 -10   40.89    2.37
   3   8  -9    2.84    0.75
   3   8  -9    2.68    0.75
   3   8  -8  134.43    5.78
   3   8  -8  119.25    5.59
   3   8  -7   39.43    3.05
   3   8  -7   34.11    2.98
   3   8  -6   40.71    3.33
   3   8  -5  134.91    6.75
   3   8  -4  229.00    9.47
   3   8  -4  263.45    9.52
   3   8  -3   70.42    4.68
   3   8  -2    0.72    0.64
   3   8  -1    0.79    0.60
   3   8  -1    1.09    0.73
   3   8  -1    0.93    0.62
   3   8   0    1.28    0.71
   3   8   0    0.14    0.49
   3   8   0    0.22    0.36
   3   8   1   45.18    3.32
   3   8   1   43.02    3.68
   3   8   2  107.34    5.00
   3   8   2  105.62    5.58
   3   8   3    4.60    0.86
   3   8   3    6.55    1.16
   3   8   3    6.01    0.97
   3   9  -9    9.81    1.10
   3   9  -9    8.91    1.03
   3   9  -8  157.45    5.69
   3   9  -8  138.93    5.55
   3   9  -7   62.98    3.71
   3   9  -6   22.87    2.27
   3   9  -6   19.97    2.11
   3   9  -5  284.57   10.33
   3   9  -5  318.49   10.32
   3   9  -4   81.46    4.83
   3   9  -4   94.45    4.73
   3   9  -3    0.10    0.44
   3   9  -3    0.10    0.40
   3   9  -2  117.60    5.71
   3   9  -1    1.81    0.76
   3   9  -1    2.70    0.87
   3   9   0   47.95    3.46
   3   9   0   50.70    3.23
   3   9   1   18.43    1.94
   3   9   1   21.19    1.83
   3   9   2    0.62    0.38
   3   9   2    0.75    0.35
   3  10  -7  123.11    4.57
   3  10  -6  127.89    5.09
   3  10  -6  131.97    4.96
   3  10  -5    4.85    0.95
   3  10  -5    5.01    0.90
   3  10  -4    1.85    0.65
   3  10  -3    2.11    0.63
   3  10  -2   28.04    2.06
   3  10  -1    8.10    1.11
   3  10  -1    8.16    1.03
  -4  11  -3    0.07    0.24
  -4  11  -3    0.16    0.25
  -4  11  -4  176.06    5.45
  -4  11  -5    3.12    0.56
  -4  10   1  131.42    4.75
  -4  10   0   18.12    1.70
  -4  10  -1    4.85    0.93
  -4  10  -1    4.39    0.84
  -4  10  -1    4.26    0.92
  -4  10  -2  191.86    6.70
  -4  10  -2  211.34    7.05
  -4  10  -3   23.52    1.96
  -4  10  -3   20.88    1.90
  -4  10  -4   53.30    3.08
  -4  10  -5  182.08    6.42
  -4  10  -6   92.49    3.97
  -4  10  -7   30.21    1.87
  -4   9   3   32.83    2.17
  -4   9   2   65.66    3.62
  -4   9   2   67.67    3.45
  -4   9   1   58.39    3.50
  -4   9   1   51.21    3.37
  -4   9   0    1.84    0.68
  -4   9   0    1.27    0.62
  -4   9   0    2.17    0.74
  -4   9   0    2.04    0.84
  -4   9  -1  204.18    7.71
  -4   9  -1  208.46    7.87
  -4   9  -1  218.88    8.30
  -4   9  -2    0.97    0.59
  -4   9  -2    0.79    0.54
  -4   9  -2    1.06    0.69
  -4   9  -3   84.55    4.49
  -4   9  -4  419.12   12.78
  -4   9  -5    5.07    1.10
  -4   9  -6  207.24    7.48
  -4   9  -7   11.73    1.37
  -4   9  -7    9.69    1.25
  -4   9  -8   34.38    2.16
  -4   9  -9   12.79    1.06
  -4   8   5  119.59    4.29
  -4   8   4    6.77    1.15
  -4   8   3   75.01    4.25
  -4   8   3   63.24    3.78
  -4   8   2    1.36    0.76
  -4   8   2    1.20    0.67
  -4   8   2    1.20    0.73
  -4   8   1  165.72    6.92
  -4   8   1  139.79    6.39
  -4   8   1  156.78    7.11
  -4   8   1  164.38    7.24
  -4   8   1  169.88    7.27
  -4   8   0   82.27    4.58
  -4   8   0   67.04    4.17
  -4   8   0   71.85    4.62
  -4   8   0   68.36    4.51
  -4   8  -1   26.90    2.58
  -4   8  -1   28.66    2.64
  -4   8  -1   34.24    3.06
  -4   8  -1   30.72    2.95
  -4   8  -2    6.21    1.26
  -4   8  -2    6.49    1.38
  -4   8  -2    5.94    1.24
  -4   8  -3  199.83    7.91
  -4   8  -4   29.79    2.72
  -4   8  -5   28.27    2.53
  -4   8  -5   36.21    2.94
  -4   8  -6   30.52    2.68
  -4   8  -6   63.63    3.71
  -4   8  -7  545.19   15.38
  -4   8  -8    1.23    0.55
  -4   8  -8    1.02    0.59
  -4   8  -9   13.68    1.44
  -4   8  -9   15.94    1.42
  -4   7   6    0.52    0.34
  -4   7   5   28.86    2.45
  -4   7   4   24.89    2.60
  -4   7   4   24.62    2.35
  -4   7   3  237.46    9.49
  -4   7   3  237.01    9.19
  -4   7   2   56.13    3.84
  -4   7   2   69.89    4.63
  -4   7   2   55.08    3.74
  -4   7   2   46.74    3.64
  -4   7   2   61.99    4.30
  -4   7   1  189.82    7.81
  -4   7   1  196.80    8.36
  -4   7   1  190.43    7.78
  -4   7   1  192.60    8.18
  -4   7   1  184.04    8.13
  -4   7   0  311.63   10.39
  -4   7   0  289.84   10.05
  -4   7   0  272.96   10.43
  -4   7   0  279.30   10.59
  -4   7  -1   45.78    3.35
  -4   7  -1   52.92    3.85
  -4   7  -1   48.12    3.68
  -4   7  -1   52.18    3.49
   4  -7   2   36.60    2.95
  -4   7  -2   35.64    2.91
  -4   7  -3    1.71    0.81
  -4   7  -3    2.58    0.87
  -4   7  -4  222.36    8.39
  -4   7  -4  230.43    8.65
  -4   7  -5  132.28    6.07
  -4   7  -5  121.88    5.92
  -4   7  -6  243.91    9.00
  -4   7  -7   54.79    3.62
  -4   7  -7   57.87    3.92
  -4   7  -8  348.99   11.09
  -4   7  -8  380.83   11.89
  -4   7  -9  617.29   15.57
  -4   7  -9  564.30   16.17
  -4   7 -10    0.05    0.27
  -4   6   7   33.41    2.16
  -4   6   6   18.94    2.06
  -4   6   5  227.96    9.12
  -4   6   4   94.63    5.70
  -4   6   4   97.78    5.43
  -4   6   3  137.97    7.10
  -4   6   3  142.88    6.90
  -4   6   2  133.38    6.25
  -4   6   2  124.43    6.55
  -4   6   2  132.99    6.21
  -4   6   2  136.11    6.52
  -4   6   2  128.87    6.53
  -4   6   1  297.32   10.25
   4  -6  -1  318.89   10.21
  -4   6   1  333.44   10.43
  -4   6   1  267.80   10.24
  -4   6   1  309.81   10.88
  -4   6   1  248.54    9.40
  -4   6   0   43.24    3.10
   4  -6   0   35.10    2.80
  -4   6   0   39.62    3.25
  -4   6   0   47.95    3.54
  -4   6   0   41.00    3.19
   4  -6   1   14.66    1.71
  -4   6  -1   16.17    2.03
  -4   6  -1   17.63    1.93
  -4   6  -1   14.14    1.89
   4  -6   2   23.43    2.25
  -4   6  -2   26.67    2.76
   4  -6   2   28.32    2.50
  -4   6  -2   30.99    2.56
  -4   6  -2   25.52    2.70
   4  -6   3  214.57    8.09
  -4   6  -3  172.62    7.23
   4  -6   3  197.48    7.80
  -4   6  -3  234.17    8.12
  -4   6  -3  197.01    8.66
  -4   6  -3  251.08    9.65
   4  -6   4   56.75    3.75
   4  -6   4   53.46    3.54
  -4   6  -4   59.20    3.69
  -4   6  -4   53.45    4.22
   4  -6   4   55.16    3.66
  -4   6  -4   62.75    3.81
   4  -6   5    3.85    1.01
  -4   6  -6   19.56    2.33
  -4   6  -7   34.51    3.13
  -4   6  -8    3.98    0.94
  -4   6  -8    2.15    0.90
  -4   6  -9   75.09    4.24
  -4   6 -10   12.60    1.43
  -4   5   8    4.40    0.78
  -4   5   8    4.69    0.77
  -4   5   7   40.91    3.06
  -4   5   7   46.10    3.04
  -4   5   6   17.64    2.27
  -4   5   5  125.62    6.75
  -4   5   5  119.49    6.10
   4  -5  -4  209.11    7.52
  -4   5   4  197.46    8.15
  -4   5   3  478.27   15.75
   4  -5  -3  510.86   15.03
   4  -5  -3  516.37   15.24
  -4   5   3  509.27   16.46
  -4   5   3  515.39   16.18
  -4   5   2  136.38    6.49
  -4   5   2  135.71    6.13
   4  -5  -2  143.58    6.19
  -4   5   2  137.17    6.62
  -4   5   2  143.65    6.21
  -4   5   2  140.41    6.40
  -4   5   2  150.53    6.92
   4  -5  -2  143.72    6.11
   4  -5  -2  140.86    5.98
  -4   5   1    0.82    0.53
   4  -5  -1    1.19    0.54
   4  -5  -1    0.48    0.44
   4  -5  -1    0.52    0.38
  -4   5   1    0.99    0.52
  -4   5   0  272.62    8.98
   4  -5   0  270.63    8.80
   4  -5   0  277.44    8.96
  -4   5   0  252.57    8.97
   4  -5   1   14.34    1.59
   4  -5   1   14.41    1.57
  -4   5  -1   13.08    1.77
  -4   5  -1   17.53    2.06
  -4   5  -1   13.45    1.44
   4  -5   2   58.37    3.35
   4  -5   2   56.21    3.30
  -4   5  -2   49.97    3.61
   4  -5   2   55.14    3.27
   4  -5   3  121.99    5.29
   4  -5   3  129.10    5.47
   4  -5   3  120.24    5.16
  -4   5  -3  117.49    6.02
   4  -5   4    1.32    0.60
   4  -5   4    1.37    0.58
   4  -5   4    0.87    0.50
  -4   5  -4    0.93    0.58
   4  -5   5  266.50    9.65
  -4   5  -5  317.25   10.48
  -4   5  -6  412.90   13.47
  -4   5  -7   59.30    4.18
  -4   5  -8   13.04    1.91
  -4   5  -9   34.61    2.86
  -4   5 -10   10.09    1.28
  -4   4   9   12.20    1.14
  -4   4   8  358.51   10.88
  -4   4   8  334.07    9.81
  -4   4   8  342.98   10.60
  -4   4   7  128.88    6.65
  -4   4   7  147.73    5.87
  -4   4   6   59.27    4.47
   4  -4  -5   50.03    3.49
   4  -4  -5   47.27    3.45
  -4   4   5   51.72    4.15
  -4   4   5   56.98    4.12
  -4   4   4   10.13    1.72
   4  -4  -4   11.91    1.61
   4  -4  -4   12.16    1.63
  -4   4   4   12.69    1.98
  -4   4   3   13.47    1.83
   4  -4  -3   12.40    1.60
   4  -4  -3   14.25    1.70
  -4   4   3   15.14    1.76
  -4   4   2  152.19    6.34
   4  -4  -2  145.78    5.75
   4  -4  -2  142.00    5.67
   4  -4  -2  141.72    5.70
   4  -4  -2  151.58    5.99
   4  -4  -2  146.69    5.79
  -4   4   1  396.91   11.60
   4  -4  -1  355.51   10.75
   4  -4  -1  374.19   10.98
   4  -4  -1  377.14   11.03
  -4   4   1  370.40   11.07
  -4   4   0 2409.83   48.58
   4  -4   0 2122.67   47.52
   4  -4   0 2261.55   47.47
  -4   4   0 2315.50   48.28
   4  -4   0 2165.29   47.59
   4  -4   1    0.12    0.23
   4  -4   1    0.42    0.32
  -4   4  -1    0.08    0.31
  -4   4  -2  183.38    7.18
   4  -4   2  203.11    6.66
   4  -4   2  184.96    6.34
   4  -4   2  183.42    6.51
   4  -4   3   80.80    3.90
   4  -4   3   88.54    4.07
   4  -4   3   89.96    4.14
  -4   4  -3   90.34    4.76
   4  -4   4  143.91    5.74
  -4   4  -4  131.53    6.26
   4  -4   5   10.43    1.49
  -4   4  -5   13.93    1.86
   4  -4   6   64.18    3.87
   4  -4   6   64.72    3.98
  -4   4  -6   75.17    4.60
  -4   4  -7  174.81    7.81
  -4   4  -8    8.79    1.89
  -4   4  -9   19.39    2.25
   4  -4   9   25.34    2.26
   4  -4  10    8.07    1.11
  -4   3   9  245.28    8.08
  -4   3   9  246.10    7.53
  -4   3   9  252.42    8.13
  -4   3   8  109.86    5.56
  -4   3   8   97.21    4.64
  -4   3   7  422.28   12.90
   4  -3  -6   99.63    5.03
  -4   3   6   86.38    4.72
   4  -3  -5    7.00    1.26
   4  -3  -5    6.46    1.20
  -4   3   5    6.11    1.18
  -4   3   5    5.67    1.34
   4  -3  -4   19.44    1.94
   4  -3  -4   15.99    1.78
  -4   3   4   16.21    1.84
   4  -3  -3  398.48   11.82
   4  -3  -3  390.07   11.70
   4  -3  -3  383.86   11.59
   4  -3  -2   17.82    1.73
   4  -3  -2   13.24    1.43
  -4   3   2   19.08    1.77
  -4   3   1 1755.15   41.61
   4  -3  -1 1743.99   41.31
   4  -3  -1 1864.97   41.44
   4  -3  -1 1737.79   41.31
   4  -3  -1 1699.66   41.14
  -4   3   0   96.37    4.18
  -4   3   0  115.07    4.43
   4  -3   0  108.29    4.26
   4  -3   0  105.79    4.27
  -4   3   0  108.57    4.50
  -4   3  -1  443.04   11.81
   4  -3   1  459.11   12.01
   4  -3   1  441.78   11.89
   4  -3   1  453.21   11.78
  -4   3  -1  427.66   12.36
   4  -3   2 1169.93   27.59
   4  -3   2 1147.07   27.52
  -4   3  -2 1126.70   28.19
   4  -3   3  323.11    9.34
   4  -3   3  331.39    9.59
  -4   3  -3  317.43   10.18
   4  -3   4   42.30    2.62
   4  -3   4   45.11    2.81
   4  -3   5  191.29    6.96
   4  -3   5  183.56    6.93
   4  -3   6    8.88    1.39
  -4   3  -6    3.07    1.00
  -4   3  -7   18.48    2.49
   4  -3   7   20.94    2.30
   4  -3   8  411.03   12.97
   4  -3   9    1.40    0.66
   4  -3  10    6.43    1.06
   4  -3  10    6.40    0.99
  -4   2  10   49.06    2.53
  -4   2  10   52.93    2.71
  -4   2   9   35.44    2.79
  -4   2   9   34.83    2.45
  -4   2   8   12.06    1.62
  -4   2   7   64.92    3.99
   4  -2  -6  294.07    9.97
  -4   2   6  307.72   10.26
  -4   2   6  299.64   10.97
  -4   2   5  388.87   12.60
  -4   2   4  395.68   11.76
   4  -2  -4  363.77   10.79
   4  -2  -4  362.26   10.97
  -4   2   4  367.81   11.16
  -4   2   3   19.18    1.81
   4  -2  -3   16.86    1.66
   4  -2  -3   20.42    1.71
   4  -2  -3   20.43    1.83
   4  -2  -3   20.44    1.76
  -4   2   3   21.98    1.90
  -4   2   2  101.14    4.21
   4  -2  -2   97.26    4.10
   4  -2  -2  103.15    4.20
   4  -2  -2   98.85    3.95
  -4   2   1  664.58   16.56
   4  -2  -1  661.28   16.48
   4  -2  -1  682.46   16.52
   4  -2  -1  658.66   16.32
  -4   2   1  693.81   16.64
  -4   2   1  625.49   16.44
   4  -2  -1  667.79   16.55
  -4   2   0  154.89    5.15
   4  -2   0  152.01    5.30
   4  -2   0  148.46    4.97
  -4   2   0  148.21    5.31
   4  -2   0  153.65    5.20
   4  -2   1  211.21    6.55
   4  -2   1  206.93    6.39
  -4   2  -1  192.40    6.63
   4  -2   1  212.87    6.43
   4  -2   2 1563.55   35.91
   4  -2   2 1614.14   35.96
  -4   2  -2 1535.36   36.30
   4  -2   2 1592.07   35.65
   4  -2   3    6.49    0.93
   4  -2   3    5.89    0.92
  -4   2  -3    7.58    1.14
   4  -2   4 1402.54   33.21
   4  -2   4 1437.94   33.39
   4  -2   5   63.84    3.61
   4  -2   6    0.27    0.35
  -4   2  -6    0.32    0.51
   4  -2   6    0.55    0.58
   4  -2   7   66.28    4.18
   4  -2   8   27.94    2.59
   4  -2   9    1.20    0.63
   4  -2  10  260.46    8.14
   4  -1 -10   29.69    1.96
  -4   1  10   29.38    2.24
  -4   1  10   29.18    2.02
  -4   1   9 1109.55   27.36
  -4   1   8   47.35    3.35
  -4   1   7  449.20   13.96
  -4   1   7  440.41   13.62
  -4   1   6   79.57    4.42
  -4   1   6   90.03    4.79
  -4   1   5  109.01    5.08
  -4   1   5  103.34    4.86
   4  -1  -4  627.67   15.81
  -4   1   4  709.08   16.47
   4  -1  -3  375.22   10.60
   4  -1  -3  378.79   10.37
  -4   1   3  382.32   10.78
   4  -1  -3  384.26   10.19
   4  -1  -3  359.26   10.60
  -4   1   3  356.05   10.53
  -4   1   2  257.18    7.67
   4  -1  -2  252.67    7.58
   4  -1  -2  239.17    7.64
  -4   1   2  260.91    7.42
   4  -1  -2  251.89    7.52
  -4   1   1 3724.65   77.39
  -4   1   1 3507.13   77.07
  -4   1   1 3597.52   77.15
   4  -1  -1 3393.15   76.92
   4  -1  -1 3565.95   76.63
   4  -1  -1 3496.44   77.05
   4  -1  -1 3543.67   76.97
  -4   1   0   15.09    1.31
   4  -1   0   14.25    1.14
   4  -1   0   14.28    1.25
   4  -1   0   16.92    1.36
  -4   1  -1   14.29    1.31
   4  -1   1   16.56    1.33
   4  -1   2  517.84   12.95
   4  -1   2  488.27   12.88
  -4   1  -2  477.54   12.95
   4  -1   3   90.07    3.94
   4  -1   3   89.40    3.91
   4  -1   4  237.66    8.06
   4  -1   4  263.65    8.16
   4  -1   5  288.45    9.48
  -4   1  -5  281.20    9.99
   4  -1   6   34.26    2.84
   4  -1   6   30.55    2.71
  -4   1  -6   33.27    3.16
   4  -1   7  326.58   11.12
   4  -1   8    0.84    0.58
   4  -1   9    3.52    0.93
   4  -1  10    5.31    0.83
   4   0 -11    0.65    0.30
   4   0 -10    8.31    1.17
  -4   0  10   10.52    1.26
  -4   0   9  136.92    5.84
  -4   0   9  131.60    5.98
  -4   0   8  335.67   10.96
  -4   0   8  322.10   11.09
  -4   0   7  223.76    8.87
  -4   0   7  231.65    8.57
  -4   0   7  236.39    8.66
  -4   0   6   40.66    3.09
   4   0  -6   36.43    3.02
  -4   0   6   38.85    3.06
  -4   0   5   22.19    2.10
   4   0  -5   21.87    2.09
   4   0  -4  132.18    4.92
  -4   0   4  136.55    5.39
   4   0  -4  134.27    5.34
   4   0  -4  134.13    5.39
   4   0  -3    0.71    0.32
   4   0  -3    0.71    0.37
   4   0  -3    1.32    0.44
  -4   0   2 1899.92   45.80
   4   0  -2 2186.41   45.99
  -4   0   2 1934.75   45.74
   4   0  -2 2150.06   46.27
   4   0  -2 2024.29   45.86
  -4   0   2 2227.20   46.02
  -4   0   1 1305.24   28.60
  -4   0   1 1206.62   28.62
   4   0  -1 1284.79   28.34
   4   0  -1 1258.22   28.81
  -4   0   1 1258.08   28.72
  -4   0   1 1209.98   28.34
  -4   0   0  184.60    5.71
   4   0   0  186.95    5.88
  -4   0   0  168.43    5.44
  -4   0  -1  132.48    4.83
  -4   0  -1  133.16    4.68
   4   0   1  140.63    4.94
  -4   0  -2   23.60    1.85
   4   0   2   30.79    2.04
   4   0   3  188.16    6.58
   4   0   3  178.05    6.27
  -4   0  -3  182.05    6.46
   4   0   3  184.94    6.41
  -4   0  -4 1064.63   27.51
   4   0   4 1117.92   27.31
  -4   0  -5    4.92    1.21
   4   0   5    5.48    1.13
   4   0   5    4.53    1.05
  -4   0  -5    4.58    1.10
   4   0   6  646.94   18.71
   4   0   6  705.47   19.10
   4   0   7    1.99    0.76
   4   0   7    1.73    0.82
   4   0   7    1.60    0.77
   4   0   8    6.19    1.30
   4   0   8    4.17    1.01
   4   0   9   43.99    2.66
   4   0   9   36.62    2.65
   4   1 -11   67.83    2.98
   4   1 -10  184.01    6.66
  -4  -1  10  182.49    6.89
  -4  -1   9    0.66    0.61
  -4  -1   8   93.36    5.07
  -4  -1   7  933.84   25.61
   4   1  -7 1024.33   25.60
  -4  -1   7  960.24   25.13
  -4  -1   6   73.65    4.21
   4   1  -6   73.85    4.40
  -4  -1   6   74.05    4.32
   4   1  -5  357.07   11.23
  -4  -1   5  357.79   10.98
   4   1  -5  378.89   11.43
   4   1  -4 1347.52   31.55
   4   1  -4 1303.85   31.30
   4   1  -3  110.92    4.63
   4   1  -3  105.98    4.41
   4   1  -3  107.08    4.43
  -4  -1   3  113.48    4.28
   4   1  -2  276.27    8.24
  -4  -1   2  279.00    8.34
  -4  -1   2  296.13    8.27
   4   1  -1  603.53   15.88
   4   1  -1  607.07   15.92
  -4  -1   1  659.33   15.81
  -4  -1   1  637.35   15.71
  -4  -1   1  657.51   15.61
   4   1   0   85.41    3.75
  -4  -1   0   85.29    3.58
  -4  -1   0   87.45    3.49
  -4  -1   0   89.02    3.62
   4   1   1  352.93    9.92
  -4  -1  -1  342.55    9.62
  -4  -1  -1  339.38    9.72
  -4  -1  -2  580.79   15.42
   4   1   2  614.41   15.64
  -4  -1  -3  253.96    8.46
   4   1   3  249.00    8.37
  -4  -1  -4   38.29    2.98
   4   1   4   36.04    2.84
  -4  -1  -5   30.86    3.07
   4   1   5   25.95    2.50
   4   1   5   27.93    2.80
   4   1   5   23.00    2.39
  -4  -1  -5   25.44    2.65
   4   1   6   23.70    2.44
   4   1   6   24.84    2.69
   4   1   6   23.88    2.45
   4   1   7  301.64   10.34
   4   1   7  298.70   10.84
   4   1   8    0.70    0.48
   4   1   8    1.64    0.77
   4   1   9   37.18    2.23
   4   2 -11  189.41    6.13
   4   2 -10    4.13    0.92
  -4  -2  10    2.66    0.81
   4   2  -9   83.58    4.52
  -4  -2   9   85.61    4.77
  -4  -2   8  105.75    5.47
   4   2  -7   30.82    3.00
   4   2  -7   25.68    2.48
  -4  -2   7   27.70    2.60
  -4  -2   7   34.02    2.95
   4   2  -6    1.62    0.69
  -4  -2   6    0.79    0.52
   4   2  -5 1172.00   28.83
   4   2  -5 1156.11   28.65
   4   2  -4    3.00    0.75
   4   2  -4    3.17    0.77
  -4  -2   4    3.91    0.75
   4   2  -3   91.48    4.16
  -4  -2   3   85.54    4.03
  -4  -2   3   90.38    3.87
  -4  -2   2 1775.76   38.72
  -4  -2   2 1668.68   38.14
  -4  -2   2 1719.00   37.95
   4   2  -1   84.30    4.03
  -4  -2   1   83.39    3.81
  -4  -2   1   85.23    3.56
  -4  -2   1   83.43    3.54
  -4  -2   0 2520.29   56.40
  -4  -2   0 2560.28   55.90
  -4  -2   0 2500.34   56.19
   4   2   1   49.05    2.94
  -4  -2  -1   54.27    3.00
   4   2   1   57.11    3.04
  -4  -2  -1   51.60    2.86
  -4  -2  -2   47.28    2.96
   4   2   2   50.39    3.10
  -4  -2  -2   51.40    2.98
  -4  -2  -3   13.00    1.67
   4   2   3   19.04    2.01
   4   2   4   69.80    4.19
   4   2   4   68.75    4.53
  -4  -2  -4   74.30    4.46
   4   2   4   64.99    4.15
   4   2   5  248.81    9.26
   4   2   5  243.71    9.88
   4   2   6  619.91   17.44
   4   2   6  579.32   18.27
   4   2   7  121.37    5.57
   4   2   7  124.14    6.04
   4   2   8   18.90    1.72
   4   2   8   18.61    1.83
  -4  -2  -9  114.30    3.94
   4   3 -11   47.86    2.61
  -4  -3  11   49.52    2.74
   4   3 -10   55.85    3.34
  -4  -3  10   58.97    3.56
   4   3  -9    3.26    0.91
  -4  -3   9    1.17    0.68
   4   3  -8    0.45    0.54
   4   3  -8    0.79    0.57
  -4  -3   8    0.52    0.57
  -4  -3   7  145.50    6.58
   4   3  -6   58.13    3.94
   4   3  -6   53.61    3.80
  -4  -3   6   59.88    3.84
   4   3  -5  100.97    5.06
  -4  -3   5  107.96    4.77
   4   3  -4  364.89   11.40
  -4  -3   4  390.09   11.14
   4   3  -3   11.43    1.50
  -4  -3   3   10.63    1.40
   4   3  -3   12.66    1.48
  -4  -3   3   12.37    1.38
   4   3  -2  381.15   11.71
  -4  -3   2  413.62   11.74
  -4  -3   2  403.59   11.17
  -4  -3   2  385.51   10.99
  -4  -3   1    1.37    0.48
   4   3  -1    0.73    0.45
  -4  -3   1    0.85    0.46
  -4  -3   1    0.79    0.37
   4   3   0  132.08    5.81
  -4  -3   0  117.05    5.12
   4   3   0  127.80    5.04
  -4  -3   0  121.34    4.96
  -4  -3  -1  149.05    6.14
   4   3   1  161.48    6.19
  -4  -3  -1  146.27    5.77
  -4  -3  -2   34.73    2.74
   4   3   2   29.69    2.57
   4   3   3   19.51    2.14
   4   3   3   21.61    2.50
  -4  -3  -3   19.85    2.22
  -4  -3  -3   19.98    2.20
   4   3   3   18.06    2.11
   4   3   4  511.99   15.62
   4   3   4  554.74   16.98
   4   3   5   -0.13    0.65
   4   3   5    0.50    0.50
   4   3   6   14.05    1.79
   4   3   6   14.01    2.02
   4   3   7   40.08    2.93
  -4  -3  -8   36.81    2.24
   4   4 -11  154.40    5.31
  -4  -4  11  151.96    5.41
   4   4 -10    1.42    0.60
  -4  -4  10    1.18    0.64
   4   4  -9    0.74    0.55
  -4  -4   9    1.25    0.70
   4   4  -8   45.55    3.42
  -4  -4   8   42.49    3.34
   4   4  -7    7.83    1.44
   4   4  -7    7.27    1.51
  -4  -4   7    7.76    1.45
   4   4  -6    0.66    0.55
  -4  -4   6    0.31    0.43
   4   4  -5  414.59   13.39
   4   4  -5  420.86   13.34
   4   4  -5  419.28   13.33
   4   4  -4  103.75    5.18
  -4  -4   4  103.21    5.15
   4   4  -3 1473.60   36.34
  -4  -4   3 1463.20   35.97
  -4  -4   3 1546.11   35.19
   4   4  -2   12.80    1.75
  -4  -4   2   14.27    1.71
  -4  -4   2   14.39    1.56
  -4  -4   2   12.76    1.50
   4   4  -1  129.19    6.16
  -4  -4   1  131.62    5.80
  -4  -4   1  134.29    5.52
   4   4   0  591.30   17.66
  -4  -4   0  601.41   16.50
   4   4   1  245.12    9.47
  -4  -4  -1  240.28    8.75
  -4  -4  -1  224.67    8.14
   4   4   2  427.85   13.47
   4   4   2  425.02   14.21
   4   4   2  388.52   13.69
  -4  -4  -2  421.64   13.40
   4   4   2  438.60   13.46
   4   4   3  640.84   19.04
   4   4   3  711.92   20.33
   4   4   4    5.93    1.33
   4   4   4    5.05    1.31
   4   4   5   37.48    3.03
   4   4   5   41.50    3.44
   4   4   6   38.34    2.74
  -4  -4  -7  113.26    4.53
  -4  -5  11   30.15    1.91
   4   5 -10    1.05    0.55
  -4  -5  10    1.07    0.52
   4   5  -9    0.83    0.61
  -4  -5   9    0.18    0.40
   4   5  -8   45.05    3.46
  -4  -5   8   47.00    3.51
   4   5  -7   93.55    5.24
   4   5  -7  102.13    5.73
  -4  -5   7   94.50    5.26
   4   5  -6   19.81    2.27
   4   5  -6   19.47    2.39
  -4  -5   6   21.04    2.37
   4   5  -5   79.77    4.58
   4   5  -5   91.44    5.36
   4   5  -5   87.04    5.19
   4   5  -5   78.59    4.86
   4   5  -5   87.80    5.11
   4   5  -4   56.05    3.93
   4   5  -4   55.05    3.91
   4   5  -4   49.01    3.66
   4   5  -3   59.39    4.03
  -4  -5   3   59.88    3.95
   4   5  -3   65.82    4.14
  -4  -5   3   61.79    3.70
   4   5  -2  428.42   14.47
   4   5  -2  455.14   14.30
  -4  -5   2  478.19   14.28
   4   5  -2  464.41   14.17
  -4  -5   2  467.25   13.68
  -4  -5   1    0.88    0.47
   4   5  -1    1.43    0.71
   4   5  -1    2.00    0.80
  -4  -5   1    0.81    0.50
   4   5   0   10.49    1.80
   4   5   0   13.35    1.89
  -4  -5   0   11.03    1.71
  -4  -5   0   13.73    1.74
   4   5   1  246.56    9.55
   4   5   1  238.72    9.95
  -4  -5  -1  254.98    9.70
   4   5   1  259.97    9.58
   4   5   2  298.40   10.87
   4   5   3   12.98    1.92
   4   5   4   64.67    4.16
   4   5   5   -0.08    0.39
   4   5   6   52.60    2.81
   4   5   6   48.28    3.25
  -4  -6  11   59.86    2.65
   4   6 -10   34.39    2.38
  -4  -6  10   33.22    2.26
   4   6  -9  392.28   12.29
  -4  -6   9  411.91   12.17
   4   6  -8    2.55    0.91
  -4  -6   8    2.01    0.74
   4   6  -7   18.91    2.31
  -4  -6   7   19.88    2.28
   4   6  -6    2.02    0.85
   4   6  -6    0.72    0.59
  -4  -6   6    0.88    0.57
   4   6  -5  362.88   12.85
   4   6  -5  382.67   12.97
   4   6  -4  245.73    9.79
   4   6  -4  240.53    9.60
   4   6  -3  145.11    7.08
   4   6  -3  152.20    7.15
   4   6  -2  765.68   22.24
   4   6  -2  830.65   22.48
   4   6  -1  464.65   14.94
   4   6  -1  459.63   14.78
   4   6   0  403.94   13.54
   4   6   1    1.18    0.68
   4   6   1    2.00    1.05
   4   6   2   30.25    2.93
   4   6   2   29.80    3.38
   4   6   3  411.23   13.05
   4   6   3  412.99   14.60
   4   6   4    0.16    0.40
   4   6   4    0.69    0.62
   4   6   5  157.02    5.44
   4   6   5  127.61    5.75
   4   7 -10   22.20    1.76
   4   7  -9    3.20    0.88
   4   7  -8    5.41    1.17
   4   7  -7   12.57    1.81
  -4  -7   6  101.99    5.38
   4   7  -5   49.49    3.92
   4   7  -5   49.60    3.91
   4   7  -4  154.00    7.38
   4   7  -4  145.47    7.18
   4   7  -3   21.12    2.59
   4   7  -3   20.52    2.52
   4   7  -2   11.81    1.95
   4   7  -2   13.34    2.02
   4   7  -1   84.39    5.22
   4   7  -1   81.35    5.04
   4   7   0  110.93    5.95
   4   7   0  108.89    5.82
   4   7   1    8.69    1.54
   4   7   1    7.06    1.59
   4   7   2   55.33    3.67
   4   7   2   55.40    4.22
   4   7   3  119.13    5.22
   4   7   3  126.31    6.02
   4   7   3  115.31    4.99
   4   7   4    3.16    0.69
   4   7   4    2.59    0.72
   4   8  -9   73.23    3.43
   4   8  -9   63.46    3.26
   4   8  -8  117.43    4.94
   4   8  -8   93.37    4.66
   4   8  -7  117.90    5.32
   4   8  -7  118.70    5.59
   4   8  -6   15.20    1.95
   4   8  -5   52.18    3.80
   4   8  -5   56.24    3.99
   4   8  -5   47.04    3.44
   4   8  -4   21.75    2.48
   4   8  -4   24.65    2.66
   4   8  -3   16.59    2.17
   4   8  -3   13.43    1.97
   4   8  -2  289.61   10.56
   4   8  -2  287.55   10.53
   4   8  -1    1.60    0.73
   4   8  -1    2.42    0.87
   4   8   0  512.17   15.21
   4   8   0  517.31   15.91
   4   8   0  510.77   15.08
   4   8   1    0.58    0.50
   4   8   1    0.40    0.56
   4   8   1    0.32    0.50
   4   8   2  227.71    7.65
   4   8   2  241.80    8.37
   4   8   2  242.18    7.66
   4   8   3   43.28    2.22
   4   8   3   36.75    2.30
   4   8   3   39.47    2.03
   4   9  -8   10.92    1.23
   4   9  -7   16.32    1.65
   4   9  -6    5.54    1.06
   4   9  -6    5.12    1.02
   4   9  -5   22.79    2.26
   4   9  -4    7.33    1.29
   4   9  -4    5.74    1.21
   4   9  -3   34.09    2.73
   4   9  -3   31.66    2.64
   4   9  -2  148.05    6.08
   4   9  -2  147.88    6.18
   4   9  -1    9.76    1.34
   4   9  -1   10.84    1.43
   4   9   0    6.93    1.04
   4   9   0    6.78    1.04
   4   9   1    6.89    0.87
   4   9   1    7.57    1.00
   4   9   1    8.29    0.97
   4  10  -6   59.81    2.84
   4  10  -5    2.74    0.66
   4  10  -4    1.38    0.47
   4  10  -2    2.93    0.58
  -5  10   0    3.10    0.67
  -5  10  -1    0.85    0.42
  -5  10  -1    0.46    0.41
  -5  10  -2  295.35    8.85
  -5  10  -3    8.00    1.11
  -5  10  -3    9.58    1.15
  -5  10  -4   20.84    1.70
  -5  10  -4   20.36    1.72
  -5  10  -5   38.78    2.23
  -5  10  -5   39.71    2.36
  -5  10  -6   47.18    2.39
  -5   9   3   71.07    2.97
  -5   9   2   63.05    3.18
  -5   9   2   66.83    3.25
  -5   9   1   63.49    3.55
  -5   9   0  136.60    5.62
  -5   9   0  137.07    5.93
  -5   9  -1  118.02    5.11
  -5   9  -1  117.76    5.20
  -5   9  -2    3.74    0.92
  -5   9  -2    4.53    0.98
  -5   9  -3   23.15    2.11
  -5   9  -4   87.27    4.22
  -5   9  -4   78.35    4.16
  -5   9  -5    2.39    0.73
  -5   9  -6  148.27    5.69
  -5   9  -6  167.47    5.93
  -5   9  -7   94.32    3.95
  -5   9  -8  130.88    4.41
  -5   8   4  135.36    5.13
  -5   8   4  139.36    5.06
  -5   8   3   35.42    2.64
  -5   8   3   36.42    2.67
  -5   8   2  147.67    6.28
  -5   8   2  139.79    6.26
  -5   8   2  147.76    6.27
  -5   8   1  424.98   13.06
  -5   8   1  454.07   13.72
  -5   8   1  417.41   13.45
  -5   8   0    1.45    0.65
  -5   8   0    2.68    0.86
  -5   8   0    2.27    0.89
  -5   8   0    2.31    0.88
  -5   8  -1    3.13    1.00
  -5   8  -1    3.80    1.08
  -5   8  -1    4.00    1.00
  -5   8  -2   96.31    4.93
  -5   8  -3   16.56    1.96
  -5   8  -4  100.46    5.15
  -5   8  -5  592.09   16.55
  -5   8  -5  589.90   16.54
  -5   8  -6  199.50    7.59
  -5   8  -6  229.66    7.83
  -5   8  -7    4.25    0.93
  -5   8  -8   52.56    2.83
  -5   8  -9    2.54    0.50
  -5   8  -9    2.86    0.60
  -5   7   6  143.08    4.74
  -5   7   5  122.97    5.16
  -5   7   5  128.26    4.96
  -5   7   4    1.84    0.81
  -5   7   4    1.13    0.61
  -5   7   3   11.88    1.79
  -5   7   3   10.09    1.66
  -5   7   3    6.96    1.31
  -5   7   2    7.32    1.34
  -5   7   2    6.63    1.40
  -5   7   2    8.14    1.56
  -5   7   1    6.35    1.27
  -5   7   1    4.87    1.15
  -5   7   1    4.29    1.24
  -5   7   1    7.30    1.51
  -5   7   0  180.47    7.48
  -5   7   0  175.29    7.42
  -5   7   0  191.88    8.23
  -5   7  -1  160.98    6.87
  -5   7  -1  172.29    7.61
   5  -7   2  478.35   14.51
  -5   7  -2  474.16   14.33
   5  -7   3   34.84    3.03
  -5   7  -3   45.35    3.30
  -5   7  -4  123.18    5.90
  -5   7  -4  140.59    6.25
  -5   7  -5   19.90    2.17
  -5   7  -5   14.94    1.91
  -5   7  -6    4.58    1.10
  -5   7  -7   15.98    1.82
  -5   7  -7   19.94    2.19
  -5   7  -8  199.96    6.70
  -5   7  -8  157.06    6.65
  -5   7  -9    0.77    0.37
  -5   7  -9    1.04    0.52
  -5   6   7  209.42    6.37
  -5   6   6   50.49    3.20
  -5   6   5    8.80    1.56
  -5   6   5    8.91    1.44
  -5   6   4  456.00   14.19
  -5   6   4  386.43   13.27
  -5   6   3    4.08    1.20
  -5   6   3    3.35    1.04
  -5   6   3    3.02    1.06
  -5   6   2   10.57    1.69
  -5   6   2   12.93    1.98
  -5   6   1  381.82   12.04
   5  -6  -1  340.42   11.61
  -5   6   1  402.28   12.24
  -5   6   1  357.10   12.50
  -5   6   1  365.71   12.53
  -5   6   0  166.07    6.70
  -5   6   0  164.09    6.71
  -5   6   0  144.76    7.08
  -5   6   0  151.32    6.63
   5  -6   0  146.46    6.45
  -5   6   0  140.90    6.79
   5  -6   1 1138.36   29.22
   5  -6   1 1144.64   29.52
  -5   6  -1 1127.26   30.19
  -5   6  -1 1224.34   29.49
  -5   6  -1 1256.99   30.65
   5  -6   2    4.81    1.09
   5  -6   2    7.51    1.36
   5  -6   2    6.66    1.31
  -5   6  -2    6.24    1.45
  -5   6  -2    5.67    1.17
  -5   6  -2    4.92    1.31
   5  -6   3   44.01    3.38
  -5   6  -3   41.46    3.11
  -5   6  -3   51.60    3.48
  -5   6  -3   49.32    4.24
  -5   6  -4  151.88    6.73
  -5   6  -4  174.65    6.98
  -5   6  -5  257.74    9.33
  -5   6  -6    4.83    1.13
  -5   6  -6    4.88    1.23
  -5   6  -7  849.11   20.80
  -5   6  -7  681.48   21.03
  -5   6  -8   27.73    2.26
  -5   6  -8   31.13    2.81
  -5   6  -9   42.32    2.80
  -5   6 -10   86.84    3.40
  -5   5   8    9.13    0.98
  -5   5   7    4.16    0.98
  -5   5   6   15.05    2.03
  -5   5   6   15.97    1.94
  -5   5   5  108.47    5.96
  -5   5   5   91.68    5.36
   5  -5  -4    2.96    0.88
  -5   5   4    3.44    1.15
  -5   5   4    4.45    1.29
   5  -5  -3    1.20    0.58
  -5   5   3    0.87    0.61
  -5   5   3    1.72    0.91
  -5   5   2  307.39   11.49
  -5   5   2  356.92   11.17
   5  -5  -2  327.15   10.95
   5  -5  -2  321.21   10.85
  -5   5   2  324.03   10.98
  -5   5   2  340.59   11.82
   5  -5  -2  328.45   11.01
  -5   5   1  150.51    6.60
  -5   5   1  158.23    6.35
   5  -5  -1  139.22    6.11
   5  -5  -1  142.80    6.30
  -5   5   1  125.91    5.96
  -5   5   1  129.25    6.39
  -5   5   1  170.72    6.62
  -5   5   0    9.16    1.42
   5  -5   0   11.94    1.60
   5  -5   0   11.00    1.57
   5  -5   0   14.45    1.74
   5  -5   0   13.11    1.66
  -5   5   0   15.12    1.71
   5  -5   1  143.55    6.11
   5  -5   1  141.20    6.20
  -5   5  -1  141.39    6.80
  -5   5  -1  143.64    6.12
   5  -5   2   38.18    2.91
   5  -5   2   36.03    2.78
  -5   5  -2   37.82    2.82
  -5   5  -2   37.59    3.32
  -5   5  -2   38.83    2.83
   5  -5   3  220.75    8.10
   5  -5   3  218.44    7.99
  -5   5  -3  223.58    7.95
  -5   5  -3  195.94    8.76
  -5   5  -3  189.56    7.45
   5  -5   4  226.19    8.29
   5  -5   4  228.89    8.38
  -5   5  -4  209.95    9.11
  -5   5  -5    5.55    1.19
  -5   5  -5    5.61    1.32
  -5   5  -6  473.86   14.48
  -5   5  -6  515.58   15.81
  -5   5  -7    6.74    1.44
  -5   5  -8    0.52    0.62
  -5   5  -9  104.43    4.87
   5  -5  10   15.26    1.36
  -5   4   8   40.60    2.78
  -5   4   8   46.11    2.47
  -5   4   7   44.05    3.40
  -5   4   7   48.25    2.98
  -5   4   6  172.60    7.75
  -5   4   6  159.92    6.48
   5  -4  -5  100.41    5.17
  -5   4   5   97.40    5.80
   5  -4  -4  179.51    7.70
  -5   4   4  194.91    8.72
  -5   4   3  113.68    6.01
   5  -4  -3  119.90    5.67
   5  -4  -3  115.84    5.59
  -5   4   3  128.08    6.43
  -5   4   3  125.14    5.87
  -5   4   2  319.34   10.75
   5  -4  -2  305.46   10.04
   5  -4  -2  314.66   10.23
   5  -4  -2  318.32   10.10
   5  -4  -2  321.75   10.41
   5  -4  -2  315.27   10.09
  -5   4   2  298.19   10.16
  -5   4   1  107.60    5.20
   5  -4  -1   99.46    4.78
   5  -4  -1  105.97    4.95
   5  -4  -1  100.60    4.74
   5  -4   0   30.37    2.41
   5  -4   0   30.79    2.49
   5  -4   0   30.53    2.39
   5  -4   0   28.04    2.24
  -5   4   0   35.37    2.80
   5  -4   1  421.69   12.29
   5  -4   1  441.30   12.68
  -5   4  -1  405.56   13.05
   5  -4   2  107.84    4.91
   5  -4   2  100.82    4.61
   5  -4   2  100.38    4.65
  -5   4  -2   95.05    5.18
   5  -4   3   56.38    3.37
   5  -4   3   62.37    3.60
   5  -4   3   56.49    3.47
  -5   4  -3   48.63    3.70
  -5   4  -4  836.64   20.67
  -5   4  -4  827.02   21.52
   5  -4   5  266.60    9.46
  -5   4  -5  251.18    9.00
  -5   4  -5  266.05   10.07
  -5   4  -6   12.73    1.98
  -5   4  -7  153.03    7.83
  -5   4  -8   25.26    2.64
  -5   4  -9  304.75    9.80
   5  -4  10   17.24    1.48
  -5   3   9    2.63    0.67
  -5   3   9    2.66    0.58
  -5   3   9    2.07    0.57
  -5   3   8  326.14   10.85
  -5   3   8  322.91    9.86
  -5   3   7    0.70    0.56
  -5   3   7    0.63    0.58
   5  -3  -6  155.69    6.72
  -5   3   6  164.28    6.78
   5  -3  -5   46.67    3.33
  -5   3   5   46.73    3.89
   5  -3  -4    9.11    1.40
   5  -3  -4   10.18    1.52
  -5   3   4    7.57    1.52
  -5   3   4   10.00    1.57
   5  -3  -3   90.25    4.54
   5  -3  -3   95.14    4.71
   5  -3  -3   86.77    4.39
   5  -3  -2    2.08    0.67
   5  -3  -2    1.52    0.60
  -5   3   2    2.17    0.70
  -5   3   1    1.99    0.67
   5  -3  -1    1.76    0.63
   5  -3  -1    1.99    0.63
   5  -3  -1    1.88    0.64
   5  -3   0  580.47   16.11
  -5   3   0  587.53   16.63
   5  -3   0  620.20   16.48
   5  -3   0  628.98   16.71
  -5   3  -1   21.04    1.87
   5  -3   1   22.56    1.93
   5  -3   1   26.85    2.18
   5  -3   1   21.79    1.84
  -5   3  -1   24.24    2.20
  -5   3  -2   16.54    1.68
   5  -3   2   16.85    1.73
   5  -3   2   15.45    1.61
  -5   3  -2   15.65    1.85
   5  -3   2   16.75    1.67
   5  -3   3  394.25   11.41
   5  -3   3  406.81   11.73
   5  -3   3  406.40   11.82
  -5   3  -3  365.53   12.21
   5  -3   4   72.18    4.02
   5  -3   5   13.66    1.75
  -5   3  -5   10.74    2.08
  -5   3  -6  294.46   11.50
  -5   3  -7   55.66    4.28
  -5   3  -8   14.58    1.98
   5  -3   8    9.95    1.51
   5  -3   9   33.06    2.59
   5  -3   9   35.76    2.48
   5  -3  10    2.12    0.55
  -5   2   9    1.02    0.59
  -5   2   9    0.43    0.44
  -5   2   8  180.35    7.02
  -5   2   7  139.84    6.41
  -5   2   7  161.28    7.35
   5  -2  -6  122.51    5.74
  -5   2   6  115.87    5.73
  -5   2   6  128.53    6.62
  -5   2   5    2.77    0.99
  -5   2   5    2.09    0.75
   5  -2  -4  141.70    5.72
  -5   2   4  120.63    5.56
  -5   2   3   42.34    3.02
   5  -2  -3   41.85    2.99
   5  -2  -3   39.82    2.68
   5  -2  -3   42.18    2.82
   5  -2  -2 1500.88   36.88
   5  -2  -2 1595.27   37.09
   5  -2  -2 1521.58   36.89
  -5   2   1   71.48    3.71
   5  -2  -1   67.66    3.57
  -5   2   1   77.54    3.70
   5  -2  -1   72.35    3.54
   5  -2  -1   73.31    3.54
  -5   2   1   71.63    3.67
  -5   2   0  650.99   16.96
  -5   2   0  595.65   17.05
   5  -2   0  604.31   16.58
   5  -2   0  628.51   16.89
   5  -2   1  105.58    4.44
  -5   2  -1  100.28    4.62
   5  -2   2    2.99    0.70
   5  -2   2    2.58    0.68
  -5   2  -2    3.33    0.82
   5  -2   3   13.19    1.54
  -5   2  -3   13.04    1.64
   5  -2   4  424.27   12.30
   5  -2   4  389.86   12.09
   5  -2   5    1.48    0.64
  -5   2  -5    0.67    0.62
  -5   2  -6  201.77    9.20
   5  -2   7  315.41   10.81
   5  -2   8   61.04    3.74
   5  -2   9    1.94    0.66
   5  -2  10    8.51    0.97
   5  -1 -10  257.73    7.36
  -5   1  10  241.40    7.82
  -5   1  10  255.61    7.41
  -5   1   9   91.10    4.34
  -5   1   8   73.17    4.20
  -5   1   7   79.51    4.72
  -5   1   7   78.00    4.55
  -5   1   6  364.54   12.75
  -5   1   6  452.51   13.63
  -5   1   5    1.16    0.63
  -5   1   5    0.73    0.53
  -5   1   4  112.39    5.16
   5  -1  -4  118.71    4.96
  -5   1   3  940.82   23.33
   5  -1  -3  891.83   23.23
   5  -1  -3  946.55   22.73
  -5   1   2   11.90    1.40
  -5   1   2   14.40    1.47
   5  -1  -2   14.03    1.45
   5  -1  -2   13.28    1.51
  -5   1   2   12.55    1.35
   5  -1  -1  616.36   16.52
  -5   1   1  650.57   16.76
  -5   1   0  664.71   16.36
   5  -1   0  675.85   16.38
  -5   1  -1  126.07    5.10
   5  -1   1  131.90    5.18
   5  -1   1  130.75    4.99
  -5   1  -2  298.11    9.53
   5  -1   2  320.82    9.64
   5  -1   3  350.90   10.67
   5  -1   3  344.83   10.60
   5  -1   4    5.26    1.08
   5  -1   4    1.92    0.65
   5  -1   5  299.45   10.46
  -5   1  -5  309.86   10.97
   5  -1   5  311.63   10.46
   5  -1   6   95.28    5.14
   5  -1   7   42.64    3.44
   5  -1   7   40.36    3.16
   5  -1   8  279.14    9.80
   5  -1   9  177.89    6.46
   5   0 -10   16.70    1.54
  -5   0   9  608.67   16.55
  -5   0   8   31.32    2.69
  -5   0   7    8.54    1.57
  -5   0   7    7.32    1.36
  -5   0   6  120.22    6.05
  -5   0   6  133.96    6.31
  -5   0   5   53.50    3.63
  -5   0   5   50.24    3.49
   5   0  -4  777.07   20.68
  -5   0   4  786.74   20.40
  -5   0   3  419.70   11.80
   5   0  -3  396.42   11.97
  -5   0   2   25.51    1.92
   5   0  -2   25.64    2.08
  -5   0   1  104.18    4.19
  -5   0   1  111.45    4.37
  -5   0   0   19.67    1.71
  -5   0   0   17.31    1.59
   5   0   0   21.30    1.84
  -5   0  -1    7.87    1.15
  -5   0  -1    7.04    1.03
   5   0   2  433.63   12.48
   5   0   3  363.12   11.19
   5   0   3  375.59   11.29
   5   0   4   11.01    1.58
   5   0   5   38.14    3.28
   5   0   5   38.63    3.13
   5   0   6   43.19    3.31
   5   0   6   44.25    3.60
   5   0   7    4.77    1.11
   5   0   7    6.17    1.32
   5   0   8   54.42    3.22
   5   0   8   56.37    3.57
   5   0   9   24.86    1.87
   5   1 -11   69.96    2.79
   5   1 -10   82.67    3.84
  -5  -1  10   82.41    3.94
  -5  -1   9  624.16   17.26
  -5  -1   8   27.97    2.83
  -5  -1   8   29.76    2.67
  -5  -1   7  591.45   18.23
  -5  -1   7  669.95   18.07
  -5  -1   6   70.04    4.34
  -5  -1   6   57.87    3.92
   5   1  -6   60.05    4.19
   5   1  -5   84.37    4.81
  -5  -1   5   85.29    4.57
   5   1  -5   93.43    5.00
   5   1  -4  391.24   12.52
  -5  -1   4  421.30   12.08
   5   1  -3  479.00   13.54
  -5  -1   3  476.33   13.16
   5   1  -2   56.84    3.19
  -5  -1   2   58.88    3.24
  -5  -1   2   59.10    3.14
  -5  -1   1    1.73    0.52
   5   1  -1    1.87    0.62
  -5  -1   1    1.06    0.44
  -5  -1   1    1.63    0.53
  -5  -1   0  140.18    5.35
   5   1   0  135.84    5.62
  -5  -1   0  133.06    5.20
  -5  -1  -1   10.23    1.31
   5   1   1    9.81    1.36
  -5  -1  -2  325.13   10.27
   5   1   2  333.37   10.46
  -5  -1  -3   78.64    4.34
   5   1   3   90.16    4.66
   5   1   4  255.53    9.18
   5   1   4  255.80    9.69
  -5  -1  -4  243.23    9.24
   5   1   4  246.31    9.36
   5   1   5  936.42   25.09
   5   1   5  984.81   26.15
   5   1   6   61.22    3.97
   5   1   6   59.00    4.21
   5   1   7   27.37    2.42
   5   1   7   30.82    2.81
   5   1   8   12.35    1.53
  -5  -1  -8   13.33    1.48
   5   2 -11    6.31    0.82
   5   2 -10   42.81    2.66
  -5  -2  10   36.86    2.59
   5   2  -9  560.99   15.49
  -5  -2   9  536.55   15.66
  -5  -2   8  329.15   11.53
  -5  -2   8  323.19   11.04
  -5  -2   7  779.96   20.83
  -5  -2   7  684.21   19.86
  -5  -2   6   43.10    3.34
  -5  -2   6   43.22    3.29
   5   2  -6   47.30    3.69
  -5  -2   6   48.67    3.43
   5   2  -5   94.15    5.15
  -5  -2   5   95.19    5.03
   5   2  -4  110.86    5.43
  -5  -2   4  106.92    4.85
   5   2  -3  136.19    5.96
  -5  -2   3  140.46    5.88
  -5  -2   3  136.65    5.54
   5   2  -2  401.85   12.35
  -5  -2   2  431.35   12.39
  -5  -2   2  418.55   11.95
  -5  -2   2  424.00   11.71
   5   2  -1  214.38    8.11
  -5  -2   1  229.22    7.65
  -5  -2   1  230.74    7.66
   5   2   0   17.02    1.96
  -5  -2   0   16.33    1.73
  -5  -2   0   18.76    1.67
  -5  -2   0   15.69    1.65
   5   2   1  201.58    7.57
  -5  -2  -1  188.52    7.15
   5   2   1  209.37    7.39
  -5  -2  -1  194.04    7.13
  -5  -2  -2    1.65    0.64
   5   2   2    1.79    0.67
   5   2   3   51.23    3.53
   5   2   3   46.82    3.77
   5   2   3   53.86    4.00
  -5  -2  -3   52.17    3.59
   5   2   3   48.50    3.60
   5   2   4   91.59    5.03
   5   2   4   95.68    5.63
   5   2   5    4.78    1.18
   5   2   5    6.07    1.42
   5   2   6   50.40    3.43
   5   2   6   42.49    3.49
   5   2   7   23.34    2.27
  -5  -2  -8   58.05    2.87
   5   3 -11    0.46    0.30
  -5  -3  11    0.27    0.28
   5   3 -10  185.35    6.43
  -5  -3  10  180.81    6.73
   5   3  -9    8.69    1.43
  -5  -3   9    8.48    1.42
  -5  -3   8   86.60    4.87
   5   3  -7  764.73   21.98
  -5  -3   7  807.99   21.71
   5   3  -6  521.12   16.44
  -5  -3   6  538.49   16.07
  -5  -3   6  563.31   16.43
   5   3  -5  131.95    6.33
  -5  -3   5  131.94    5.76
   5   3  -5  119.69    6.22
  -5  -3   5  129.30    6.05
  -5  -3   5  134.16    6.26
   5   3  -4   98.16    5.15
  -5  -3   4   95.25    4.65
   5   3  -3  266.28    9.49
   5   3  -3  295.18   10.14
  -5  -3   3  271.80    9.59
  -5  -3   3  294.55    9.31
   5   3  -2  131.20    6.30
  -5  -3   2  152.22    6.31
  -5  -3   2  152.67    5.92
  -5  -3   2  147.78    5.82
   5   3  -1  328.40   11.36
  -5  -3   1  352.64   11.02
  -5  -3   1  335.92   10.36
  -5  -3   1  352.83   10.65
   5   3   0   12.71    1.86
  -5  -3   0   12.10    1.63
  -5  -3   0   12.93    1.59
   5   3   1  280.60   10.55
   5   3   1  268.98   10.38
  -5  -3  -1  283.89    9.76
   5   3   1  282.97    9.68
  -5  -3  -1  268.89    9.30
   5   3   2   66.16    4.49
   5   3   2   67.17    4.67
  -5  -3  -2   68.96    4.25
   5   3   2   70.81    4.39
   5   3   3  565.61   18.02
   5   3   3  636.23   18.66
   5   3   4    5.76    1.42
   5   3   5   79.90    4.98
   5   3   6    5.77    1.24
  -5  -3  -7  184.01    6.41
  -5  -4  11    9.38    1.02
  -5  -4  10    7.08    1.15
   5   4  -9   14.41    1.79
  -5  -4   9   19.47    2.10
   5   4  -8  177.97    7.61
   5   4  -8  196.37    8.22
  -5  -4   8  190.32    7.83
   5   4  -7   15.46    2.06
   5   4  -7   18.09    2.33
  -5  -4   7   13.46    1.94
   5   4  -6  864.03   24.43
  -5  -4   6  869.70   23.89
  -5  -4   6  923.31   24.18
   5   4  -5 1560.67   39.04
  -5  -4   5 1664.91   38.28
   5   4  -5 1609.34   39.32
   5   4  -4  655.93   19.97
  -5  -4   4  784.88   20.73
  -5  -4   4  757.61   19.80
   5   4  -4  715.67   20.54
   5   4  -4  703.20   20.07
  -5  -4   4  752.93   20.40
   5   4  -3  120.38    6.16
   5   4  -3  110.35    5.63
  -5  -4   3  119.86    5.85
   5   4  -3  109.88    5.63
  -5  -4   3  118.25    5.42
   5   4  -3  102.75    5.38
  -5  -4   3  109.60    5.61
   5   4  -2   47.24    3.50
  -5  -4   2   55.83    3.74
   5   4  -2   52.79    3.71
  -5  -4   2   51.41    3.31
   5   4  -2   50.27    3.84
  -5  -4   2   45.46    3.15
   5   4  -1  166.91    7.80
   5   4  -1  186.49    7.56
   5   4  -1  166.91    7.81
   5   4  -1  180.10    7.59
  -5  -4   1  189.36    7.61
  -5  -4   1  176.87    7.04
   5   4   0  146.52    6.70
   5   4   0  135.85    7.12
   5   4   0  152.70    7.38
  -5  -4   0  166.21    7.08
  -5  -4   0  151.84    6.47
   5   4   1   42.10    3.75
   5   4   1   37.39    3.16
   5   4   1   40.35    3.68
  -5  -4  -1   47.59    3.58
  -5  -4  -1   45.46    3.31
   5   4   2  120.87    5.98
   5   4   2  102.94    6.27
  -5  -4  -2  120.00    5.83
   5   4   3  121.26    6.55
  -5  -4  -3  125.74    6.08
  -5  -4  -4   43.00    3.32
  -5  -4  -5  183.12    7.21
  -5  -4  -6   24.11    1.99
   5   4   7    0.28    0.23
   5   5 -10  150.64    5.75
  -5  -5  10  173.19    6.02
   5   5  -9  334.34   11.09
  -5  -5   9  377.30   11.36
   5   5  -8  216.43    8.49
  -5  -5   8  227.45    8.61
   5   5  -7   22.83    2.45
   5   5  -7   22.89    2.62
  -5  -5   7   19.52    2.31
   5   5  -6  130.10    6.24
   5   5  -6  132.46    6.78
  -5  -5   6  127.87    6.40
   5   5  -5  101.34    5.79
   5   5  -5   92.05    5.53
   5   5  -4  574.92   17.43
  -5  -5   4  573.64   17.33
   5   5  -4  562.12   17.12
   5   5  -3  304.41   11.11
  -5  -5   3  326.01   11.37
  -5  -5   3  310.27   10.53
   5   5  -3  300.27   10.87
  -5  -5   3  305.73   10.39
  -5  -5   3  295.57   10.79
   5   5  -2  447.45   14.99
   5   5  -2  410.45   13.90
  -5  -5   2  456.37   14.27
   5   5  -2  419.67   13.70
  -5  -5   2  433.93   13.44
   5   5  -1  182.30    8.63
   5   5  -1  188.16    8.16
  -5  -5   1  198.52    8.32
   5   5  -1  191.10    7.95
   5   5   0   53.52    3.96
   5   5   0   55.84    4.05
   5   5   1  361.87   12.34
   5   5   1  348.61   12.96
   5   5   2   67.03    4.39
   5   5   3    8.68    1.50
   5   5   4  128.48    5.67
   5   5   5   13.51    1.79
   5   5   6   13.13    1.32
   5   6 -10    0.22    0.33
  -5  -6  10    0.74    0.38
   5   6  -9    4.53    0.99
  -5  -6   9    6.34    1.10
   5   6  -8   22.07    2.26
  -5  -6   8   19.92    2.09
   5   6  -7  101.20    5.37
  -5  -6   7   95.21    5.19
   5   6  -6    8.79    1.66
  -5  -6   6    4.55    1.17
   5   6  -5  569.90   17.47
   5   6  -5  537.81   17.03
   5   6  -4  996.89   26.88
   5   6  -4  967.28   26.47
   5   6  -3  278.83   10.76
   5   6  -3  280.35   10.62
   5   6  -2  406.14   13.83
   5   6  -2  402.77   13.52
   5   6  -1  158.97    7.54
   5   6  -1  158.51    7.31
   5   6   0   45.84    3.70
   5   6   0   53.14    3.85
   5   6   1  168.08    7.66
   5   6   1  203.99    8.00
   5   6   2   82.18    4.69
   5   6   2   78.62    5.20
   5   6   3  276.01    9.11
   5   6   3  244.86    9.75
   5   6   4    3.44    0.75
   5   6   4    4.14    0.99
   5   6   5    5.69    0.85
   5   7 -10    1.13    0.39
   5   7 -10    2.14    0.53
   5   7  -9   88.49    4.00
  -5  -7   9   85.82    3.75
   5   7  -8   49.24    3.15
  -5  -7   8   50.85    3.11
   5   7  -7  103.56    4.99
  -5  -7   7   96.51    4.87
  -5  -7   6    1.27    0.70
   5   7  -5  168.22    7.74
   5   7  -4   95.15    5.61
   5   7  -4   95.63    5.52
   5   7  -3  483.02   15.40
   5   7  -3  463.68   15.04
   5   7  -2  900.09   24.81
   5   7  -2  907.35   24.40
   5   7  -1    3.21    1.03
   5   7  -1    7.43    1.44
   5   7   0  173.88    7.54
   5   7   0  178.08    7.37
   5   7   1    8.35    1.44
   5   7   1    7.44    1.25
   5   7   2    9.30    1.36
   5   7   2   10.11    1.56
   5   7   3  104.34    4.24
   5   7   3  102.85    4.60
   5   8  -9    6.98    0.87
   5   8  -9    7.53    0.92
   5   8  -8   26.83    2.07
   5   8  -7  102.51    4.70
  -5  -8   6   75.27    3.90
   5   8  -6   70.79    3.87
   5   8  -5    5.39    1.24
  -5  -8   5    5.03    1.04
   5   8  -4    4.55    1.14
   5   8  -4    3.06    0.98
   5   8  -3   11.84    1.78
   5   8  -3   13.87    1.89
   5   8  -2  368.63   12.06
   5   8  -2  372.72   11.97
   5   8  -1   59.71    3.74
   5   8  -1   58.02    3.63
   5   8   0  339.33   10.65
   5   8   0  345.43   10.51
   5   8   1   14.09    1.50
   5   8   1   16.89    1.55
   5   8   2    1.66    0.46
   5   9  -7   16.58    1.37
   5   9  -6   62.99    3.27
   5   9  -5  335.27   10.19
   5   9  -4    5.52    1.01
   5   9  -4    4.48    0.95
   5   9  -3    1.09    0.50
   5   9  -3    1.99    0.66
   5   9  -3    1.23    0.48
   5   9  -2   12.82    1.42
   5   9  -2   13.77    1.49
   5   9  -1  265.98    8.02
   5   9  -1  271.68    8.06
  -6  10  -1    1.10    0.40
  -6  10  -2    5.55    0.80
  -6  10  -3  194.29    6.04
  -6  10  -3  199.24    6.08
  -6  10  -4    0.59    0.32
  -6  10  -5   91.67    3.41
  -6   9   2  244.69    7.21
  -6   9   1  201.84    6.78
  -6   9   0   87.71    4.20
  -6   9  -1   41.62    2.69
  -6   9  -1   38.20    2.67
  -6   9  -2    5.93    1.04
  -6   9  -2    7.71    1.17
  -6   9  -3    8.80    1.22
  -6   9  -3    7.26    1.17
  -6   9  -4  184.06    6.57
  -6   9  -5   88.47    3.95
  -6   9  -6  424.02   10.83
  -6   9  -6  368.10   10.41
  -6   9  -7   21.29    1.46
  -6   8   4   32.44    1.92
  -6   8   3   61.64    3.33
  -6   8   3   70.67    3.37
  -6   8   2   11.76    1.53
  -6   8   2   12.03    1.55
  -6   8   1   30.46    2.58
  -6   8   1   31.21    2.69
  -6   8   0  127.29    5.66
  -6   8   0  131.24    5.83
  -6   8   0  129.34    6.05
  -6   8  -1  195.85    7.51
  -6   8  -1  209.19    8.09
  -6   8  -1  206.46    7.63
  -6   8  -2   22.35    2.12
  -6   8  -2   20.93    2.16
  -6   8  -3  151.99    6.38
  -6   8  -4    0.16    0.39
  -6   8  -5   35.30    2.62
  -6   8  -6   32.53    2.39
  -6   8  -7  117.13    4.64
  -6   8  -8  259.76    7.32
  -6   7   5   73.24    3.31
  -6   7   5   77.73    3.39
  -6   7   4   82.47    4.16
  -6   7   3  280.85    9.58
  -6   7   3  274.84    9.64
  -6   7   2   22.76    2.45
  -6   7   2   20.62    2.31
  -6   7   1    8.39    1.42
  -6   7   1    6.77    1.48
  -6   7   1    8.12    1.54
  -6   7   0  140.02    6.19
  -6   7   0  143.75    6.21
  -6   7  -1    9.32    1.48
  -6   7  -1   10.67    1.78
  -6   7  -1   12.58    1.77
  -6   7  -2  173.69    7.23
  -6   7  -3    5.85    1.20
  -6   7  -4   47.73    3.40
  -6   7  -5   63.10    3.87
  -6   7  -6  395.74   12.02
  -6   7  -7    6.30    1.07
  -6   7  -7    7.36    1.25
  -6   7  -8  112.83    4.32
  -6   7  -8  111.71    4.66
  -6   6   6  146.74    5.18
  -6   6   6  118.38    4.71
  -6   6   5    0.41    0.53
  -6   6   5    0.16    0.45
  -6   6   4   95.38    5.12
  -6   6   3  157.97    7.07
  -6   6   3  152.34    7.10
  -6   6   2    9.98    1.85
  -6   6   2   12.64    1.95
  -6   6   1  334.71   12.28
  -6   6   1  353.15   13.11
  -6   6   0  206.37    7.92
  -6   6   0  199.25    8.60
  -6   6   0  209.90    8.09
   6  -6   1   33.39    2.95
  -6   6  -1   36.80    2.98
   6  -6   2  399.68   12.99
  -6   6  -2  401.08   12.70
   6  -6   3    0.43    0.45
  -6   6  -3    0.38    0.49
  -6   6  -4  303.15   10.42
  -6   6  -5   55.56    3.69
  -6   6  -6    5.18    1.14
  -6   6  -6    3.52    1.09
  -6   6  -7   48.91    3.09
  -6   6  -7   48.92    3.48
  -6   6  -8  217.98    7.70
  -6   6  -9    2.63    0.61
  -6   5   7  116.56    4.68
  -6   5   6    7.32    1.29
  -6   5   6    5.41    1.11
  -6   5   5  141.76    6.62
  -6   5   5  146.26    6.68
  -6   5   4   15.47    2.19
  -6   5   3  309.24   11.39
   6  -5  -2   31.03    2.83
  -6   5   2   34.63    2.91
  -6   5   2   28.92    2.93
  -6   5   2   30.79    2.71
   6  -5  -1  455.88   14.52
  -6   5   1  486.69   14.42
   6  -5   0   32.83    2.81
   6  -5   0   31.49    2.72
  -6   5   0   30.06    2.65
   6  -5   1   93.18    5.02
   6  -5   1  100.95    5.37
  -6   5  -1   84.67    4.68
  -6   5  -1   93.50    5.67
  -6   5  -1   95.39    4.93
   6  -5   2  257.24    9.30
   6  -5   2  275.97    9.84
  -6   5  -2  234.47    8.82
  -6   5  -2  223.29    9.89
   6  -5   3  167.84    7.32
   6  -5   3  170.93    7.63
  -6   5  -4   10.57    1.60
  -6   5  -5    1.59    0.68
  -6   5  -5    1.40    0.76
  -6   5  -6    0.27    0.39
  -6   5  -6    0.12    0.46
  -6   5  -7   30.26    2.81
  -6   5  -8  210.25    7.80
  -6   5  -9   72.16    3.44
  -6   4   8   15.36    1.47
  -6   4   8   18.63    1.35
  -6   4   7    2.88    0.87
  -6   4   7    2.86    0.72
  -6   4   7    2.14    0.74
  -6   4   6   42.24    3.45
  -6   4   6   45.24    3.05
  -6   4   6   42.78    3.39
  -6   4   5   43.88    3.64
  -6   4   5   41.70    3.60
  -6   4   4  309.69   11.52
   6  -4  -3  208.65    8.18
  -6   4   3  194.89    8.54
  -6   4   2   51.95    3.83
   6  -4  -2   46.61    3.40
   6  -4  -2   47.72    3.49
   6  -4  -2   47.09    3.39
  -6   4   2   47.20    3.32
  -6   4   2   61.51    4.17
  -6   4   2   53.97    3.58
  -6   4   2   57.18    3.95
   6  -4  -1  257.96    9.08
   6  -4  -1  261.98    9.22
  -6   4   1  275.69    9.13
   6  -4   0    4.85    1.08
   6  -4   0    4.35    0.97
   6  -4   0    5.49    1.11
  -6   4   0    5.10    1.08
  -6   4   0    7.05    1.40
  -6   4   0    5.96    1.14
   6  -4   1  494.84   14.72
   6  -4   1  499.17   14.41
  -6   4  -1  506.16   14.53
  -6   4  -1  471.04   15.39
  -6   4  -1  513.56   14.45
   6  -4   2  407.72   12.19
   6  -4   2  422.10   12.56
  -6   4  -2  326.32   11.32
  -6   4  -2  357.25   12.74
   6  -4   3   60.95    3.77
   6  -4   3   57.76    3.77
  -6   4  -3   51.42    3.48
  -6   4  -3   48.54    3.96
  -6   4  -4  773.37   19.79
  -6   4  -4  664.70   20.07
  -6   4  -5  307.13   11.31
  -6   4  -6    1.45    1.00
  -6   4  -7  225.94    9.22
  -6   4  -8   29.11    2.54
   6  -4   9    1.36    0.50
  -6   4  -9    1.20    0.53
  -6   3   9  155.46    5.27
  -6   3   9  176.82    5.08
  -6   3   8   96.68    4.75
  -6   3   8  121.05    4.67
  -6   3   7  120.51    5.91
  -6   3   7  128.62    5.49
  -6   3   6   13.83    1.81
  -6   3   6    7.79    1.66
  -6   3   5   36.83    3.46
   6  -3  -4   19.30    2.18
  -6   3   4   19.21    2.43
  -6   3   3    9.00    1.61
   6  -3  -3    9.79    1.52
  -6   3   3    6.95    1.46
  -6   3   3    6.71    1.25
  -6   3   3    6.53    1.34
  -6   3   2   35.40    2.99
   6  -3  -2   36.08    2.87
   6  -3  -2   35.01    2.88
  -6   3   2   34.21    2.78
  -6   3   2   37.15    2.83
   6  -3  -1  799.22   21.22
   6  -3  -1  802.88   21.43
   6  -3  -1  837.74   21.35
  -6   3   0   16.38    1.91
   6  -3   0   14.02    1.65
  -6   3   0   12.08    1.70
   6  -3   0   15.75    1.84
  -6   3  -1  477.79   13.69
  -6   3  -1  431.15   14.02
   6  -3   1  466.68   13.60
  -6   3  -2    8.91    1.37
   6  -3   2    8.01    1.29
  -6   3  -2    7.57    1.45
  -6   3  -3   60.83    3.68
  -6   3  -3   61.47    4.23
  -6   3  -3   72.37    4.36
  -6   3  -4   68.85    4.53
  -6   3  -5  310.88   11.31
  -6   3  -6  325.31   11.80
  -6   3  -7   34.73    3.11
   6  -3   8    1.23    0.61
  -6   3  -8    1.45    0.70
   6  -3   9   28.81    2.05
  -6   2   9    6.20    1.02
  -6   2   9    5.92    0.87
  -6   2   8  158.70    6.16
  -6   2   8  150.14    6.38
  -6   2   7   23.26    2.30
  -6   2   7   20.82    2.46
  -6   2   6  188.27    8.35
  -6   2   5   22.70    2.47
  -6   2   5   29.92    3.06
  -6   2   4   31.89    3.06
   6  -2  -4   30.09    2.65
  -6   2   4   30.34    2.80
  -6   2   4   31.26    2.69
  -6   2   4   25.92    2.61
  -6   2   3   50.83    3.61
   6  -2  -3   52.10    3.34
  -6   2   3   46.05    3.41
   6  -2  -3   48.74    3.51
  -6   2   3   43.66    3.17
  -6   2   3   44.81    3.16
  -6   2   3   42.85    3.30
   6  -2  -2  684.88   18.34
   6  -2  -2  665.63   18.67
  -6   2   1    2.37    0.76
   6  -2  -1    1.35    0.54
  -6   2   1    0.87    0.52
  -6   2   0  223.95    8.08
  -6   2   0  248.30    8.69
  -6   2  -1  363.55   11.29
   6  -2   1  371.24   11.25
  -6   2  -1  349.74   11.55
   6  -2   1  379.01   11.39
  -6   2  -2  331.33   11.22
   6  -2   2  354.62   11.05
   6  -2   3   92.26    4.87
  -6   2  -3  105.62    5.44
   6  -2   4  450.38   14.11
  -6   2  -4  499.97   15.16
  -6   2  -5   53.17    4.05
  -6   2  -6  265.09   10.17
   6  -2   7  167.00    7.17
  -6   2  -7  171.75    7.31
   6  -2   8   28.80    2.42
   6  -2   9    2.71    0.63
   6  -1 -10    5.15    0.67
  -6   1  10    5.17    0.75
  -6   1   9    1.11    0.52
  -6   1   8    3.77    0.95
  -6   1   8    4.19    1.16
  -6   1   7   66.84    4.34
  -6   1   7   68.89    4.74
  -6   1   6   39.46    3.34
  -6   1   5   58.09    4.05
  -6   1   5   55.03    3.97
  -6   1   5   68.34    4.05
  -6   1   4  375.83   12.40
  -6   1   4  421.58   12.74
  -6   1   4  399.53   13.00
  -6   1   3   76.73    4.18
   6  -1  -3   91.47    4.92
   6  -1  -2  302.46   10.30
  -6   1   2  314.39    9.99
  -6   1   1  590.75   18.53
  -6   1   1  931.08   20.07
  -6   1   0    7.30    1.17
  -6   1   0    7.44    1.23
   6  -1   0    6.76    1.18
  -6   1  -1  283.00    9.44
   6  -1   1  271.37    9.29
  -6   1  -2  497.53   14.95
   6  -1   2  547.68   15.23
   6  -1   3  922.19   24.25
  -6   1  -3  948.44   24.91
  -6   1  -4    1.81    0.81
  -6   1  -5  126.99    6.45
   6  -1   6   29.63    2.85
   6  -1   7  252.35    9.22
   6  -1   8   12.39    1.55
   6  -1   9  130.05    4.57
   6   0 -10    1.53    0.46
  -6   0   9    0.47    0.41
  -6   0   9   -0.08    0.41
  -6   0   8  225.95    8.70
  -6   0   8  213.83    8.09
  -6   0   7    0.57    0.58
  -6   0   7    0.70    0.56
  -6   0   6  104.96    5.74
  -6   0   5   86.61    4.99
  -6   0   5   71.79    4.50
   6   0  -4  154.70    7.03
  -6   0   4  169.82    7.13
  -6   0   4  167.81    6.89
  -6   0   4  152.49    6.76
  -6   0   4  147.12    6.31
  -6   0   3   29.17    2.41
   6   0  -3   23.50    2.36
   6   0  -2 1562.62   37.11
  -6   0   2 1539.27   36.64
  -6   0   1    2.51    0.70
   6   0  -1    2.14    0.71
  -6   0   1    2.04    0.66
  -6   0   0  303.09    9.79
  -6   0   0  296.92    9.68
   6   0   0  316.12   10.24
  -6   0  -1  400.82   12.23
   6   0   1  428.84   12.84
   6   0   2   30.44    2.65
   6   0   3   53.08    3.61
  -6   0  -3   54.07    3.82
  -6   0  -3   53.03    3.54
   6   0   3   46.61    3.39
  -6   0  -4  499.36   15.29
  -6   0  -4  475.98   14.60
   6   0   5   65.51    4.40
   6   0   6  338.56   11.61
   6   0   6  333.97   11.54
   6   0   7   84.41    4.60
   6   0   8    0.45    0.37
   6   1 -10   51.88    2.63
   6   1  -9  338.22   10.24
  -6  -1   8   92.81    5.25
  -6  -1   7   15.47    2.10
  -6  -1   6   28.92    2.85
   6   1  -5    1.56    0.76
  -6  -1   5    1.92    0.79
  -6  -1   5    1.21    0.64
  -6  -1   5    1.77    0.79
   6   1  -4   36.91    3.22
  -6  -1   4   32.73    2.86
  -6  -1   4   36.26    2.82
  -6  -1   4   32.41    2.87
   6   1  -4   39.76    3.29
  -6  -1   4   37.64    3.06
   6   1  -3   91.88    4.87
  -6  -1   2   91.24    4.56
  -6  -1   1  133.19    5.55
  -6  -1   0    5.04    1.02
  -6  -1   0    4.82    0.96
   6   1   0    4.96    1.09
  -6  -1  -1    6.92    1.22
   6   1   1    5.75    1.19
  -6  -1  -2  223.45    8.42
   6   1   2  228.88    8.67
   6   1   2  217.19    8.52
   6   1   2  235.58    9.23
  -6  -1  -2  245.12    8.66
   6   1   2  229.45    8.42
   6   1   3  258.51   10.12
  -6  -1  -3  257.36    9.41
   6   1   4 1020.67   26.33
   6   1   4  979.61   26.48
   6   1   5  235.67    9.21
  -6  -1  -5  220.58    8.55
   6   1   6   86.33    4.95
  -6  -1  -6   95.16    4.89
   6   1   7    8.63    1.35
  -6  -1  -7    9.32    1.32
   6   1   8   28.54    1.91
  -6  -2  10   20.58    1.68
   6   2  -9   50.57    3.23
  -6  -2   9   58.26    3.39
  -6  -2   8  204.85    8.30
  -6  -2   8  209.36    7.92
  -6  -2   7    9.06    1.61
  -6  -2   7    8.03    1.44
  -6  -2   6   20.33    2.33
   6   2  -6   15.50    2.17
   6   2  -5  297.64   10.80
  -6  -2   5  283.77    9.78
  -6  -2   5  261.77    9.86
   6   2  -5  240.46    9.98
  -6  -2   5  264.99    9.95
   6   2  -4  108.17    5.95
  -6  -2   4  120.21    5.45
  -6  -2   4  121.74    5.90
  -6  -2   4  112.55    5.35
   6   2  -4  115.00    6.09
  -6  -2   4  114.42    5.78
   6   2  -3   78.44    4.79
  -6  -2   3   80.23    4.62
  -6  -2   3   82.65    4.34
  -6  -2   3   86.32    4.76
  -6  -2   2   85.30    4.61
  -6  -2   2   81.37    4.26
  -6  -2   1  203.53    7.83
  -6  -2   1  216.30    7.76
  -6  -2   0  270.50    9.35
   6   2   0  288.99   10.35
   6   2   0  264.30    9.87
  -6  -2   0  267.98    9.50
  -6  -2  -1  213.99    8.11
   6   2   1  226.95    9.11
   6   2   1  203.39    8.33
   6   2   1  200.97    8.72
  -6  -2  -1  208.01    8.09
   6   2   1  205.30    8.00
  -6  -2  -2  124.28    5.96
   6   2   2  132.33    6.79
  -6  -2  -2  117.09    5.85
   6   2   2  124.61    6.10
   6   2   3  332.45   12.02
   6   2   3  341.33   12.36
  -6  -2  -3  347.38   11.66
   6   2   4   11.99    1.94
   6   2   4   14.67    2.16
  -6  -2  -4   12.71    1.83
   6   2   5   18.41    2.26
  -6  -2  -5   19.33    2.19
   6   2   6  380.22   12.25
  -6  -2  -6  410.31   12.15
   6   2   7    2.57    0.67
  -6  -2  -7    2.55    0.67
  -6  -3  10   55.89    2.94
   6   3  -9  172.43    6.77
  -6  -3   9  185.68    6.90
   6   3  -8  138.66    6.36
  -6  -3   8  146.15    6.33
   6   3  -7  105.66    5.89
  -6  -3   7  106.01    5.48
   6   3  -6   56.63    4.26
  -6  -3   6   55.57    3.86
  -6  -3   6   53.98    4.02
   6   3  -5  103.51    5.94
  -6  -3   5  100.60    5.36
  -6  -3   5  103.41    5.65
   6   3  -4  137.21    6.77
  -6  -3   4  131.93    6.13
   6   3  -4  128.56    6.68
  -6  -3   4  134.33    6.55
  -6  -3   3   76.71    4.71
   6   3  -3   74.76    4.69
  -6  -3   3   82.36    4.75
  -6  -3   3   87.39    4.68
   6   3  -3   86.30    5.12
  -6  -3   3   82.75    4.84
   6   3  -2   51.67    3.92
  -6  -3   2   51.55    3.69
   6   3  -2   42.96    3.46
  -6  -3   2   50.11    3.38
  -6  -3   2   53.73    3.77
  -6  -3   2   56.06    3.52
   6   3  -1   26.21    2.80
   6   3  -1   26.83    2.76
   6   3  -1   23.37    2.71
  -6  -3   1   24.72    2.52
   6   3  -1   30.51    2.86
  -6  -3   1   29.95    2.59
   6   3   0   66.26    4.69
   6   3   0   70.50    4.56
   6   3   0   67.55    4.75
  -6  -3   0   70.18    4.27
  -6  -3   0   68.29    4.32
   6   3   0   75.41    4.68
  -6  -3   0   75.73    4.36
   6   3   1    3.83    1.15
   6   3   1    3.23    1.12
  -6  -3  -1    3.96    1.05
   6   3   2  140.83    7.04
   6   3   2  137.58    7.28
  -6  -3  -2  159.35    6.90
   6   3   3   18.18    2.37
   6   3   3   16.73    2.37
  -6  -3  -3   20.61    2.31
   6   3   4    1.63    0.81
   6   3   4   -0.12    0.43
  -6  -3  -4    1.00    0.60
   6   3   5   20.78    2.29
  -6  -3  -5   26.03    2.39
  -6  -3  -6  253.89    8.20
  -6  -3  -7   21.84    1.46
   6   4 -10   17.75    1.55
  -6  -4  10   18.91    1.60
   6   4  -9  136.63    5.78
  -6  -4   9  140.64    5.74
   6   4  -8  261.01    9.32
   6   4  -8  250.19    9.51
  -6  -4   8  245.59    8.98
   6   4  -7  171.89    7.39
   6   4  -7  172.15    7.90
  -6  -4   7  178.01    7.46
   6   4  -6   49.88    4.01
  -6  -4   6   53.54    3.84
  -6  -4   6   48.77    3.77
   6   4  -5   95.93    5.76
  -6  -4   5   92.53    5.27
  -6  -4   5  103.82    5.69
   6   4  -4  253.26    9.95
   6   4  -4  269.10   10.53
  -6  -4   4  272.09   10.21
   6   4  -3  407.20   13.76
  -6  -4   3  459.00   14.47
   6   4  -3  430.39   14.13
   6   4  -3  427.21   14.25
  -6  -4   3  450.22   14.18
   6   4  -2    1.87    0.80
  -6  -4   2    1.85    0.79
  -6  -4   2    1.34    0.72
   6   4  -1    1.82    0.86
   6   4  -1    0.83    0.68
   6   4  -1    1.06    0.66
  -6  -4   1    0.91    0.59
   6   4   0  220.83    9.62
   6   4   0  207.40    8.81
   6   4   1    1.13    0.73
  -6  -4  -1    1.33    0.68
   6   4   2   39.15    3.65
  -6  -4  -2   35.40    3.02
   6   4   3  110.41    6.04
  -6  -4  -3  108.52    5.46
  -6  -4  -4    2.89    0.83
  -6  -4  -5   34.62    2.44
  -6  -4  -6   14.35    1.23
   6   4   6   11.30    1.11
   6   4   6   13.20    1.39
   6   5 -10  140.08    4.87
  -6  -5  10  134.12    4.76
   6   5  -9    3.60    0.88
  -6  -5   9    3.35    0.84
   6   5  -8   17.66    2.00
  -6  -5   8   17.14    1.96
   6   5  -7    7.81    1.40
   6   5  -7    9.41    1.67
  -6  -5   7    5.74    1.24
   6   5  -6  875.82   23.17
   6   5  -6  895.29   24.38
  -6  -5   6  832.29   23.35
  -6  -5   6  869.82   23.55
   6   5  -5   20.21    2.51
   6   5  -5   23.41    2.69
  -6  -5   5   22.67    2.54
   6   5  -4  606.81   18.30
   6   5  -4  586.21   17.82
  -6  -5   4  611.74   18.00
   6   5  -3   26.28    2.85
   6   5  -3   27.57    2.77
  -6  -5   3   29.11    2.89
   6   5  -2   99.18    5.58
   6   5  -2   89.86    5.36
  -6  -5   2   85.08    5.15
   6   5  -1   57.38    4.19
   6   5  -1   61.30    4.30
   6   5   0   40.93    3.42
   6   5   0   48.52    3.76
   6   5   1  112.09    5.80
   6   5   1  112.59    5.89
   6   5   2  215.56    8.45
   6   5   3   25.69    2.36
   6   5   4    2.54    0.69
   6   5   4    2.42    0.77
   6   5   5    9.69    1.00
   6   5   5    9.57    1.16
   6   6 -10   51.23    2.37
   6   6  -9  213.01    6.95
  -6  -6   9  202.20    6.72
   6   6  -8   93.39    4.42
  -6  -6   8   81.02    4.17
   6   6  -7   41.87    2.99
  -6  -6   7   38.71    2.99
   6   6  -6  206.30    8.36
  -6  -6   6  180.69    7.65
   6   6  -5   90.87    5.45
   6   6  -4  175.26    7.86
   6   6  -4  168.76    7.56
  -6  -6   4  150.52    7.01
   6   6  -3   10.50    1.82
   6   6  -3    9.36    1.67
  -6  -6   3    8.60    1.54
   6   6  -2  155.04    7.30
   6   6  -2  157.22    7.09
  -6  -6   2  148.61    6.90
   6   6  -1   37.55    3.28
   6   6  -1   39.46    3.24
   6   6   0  107.91    5.63
   6   6   1   24.89    2.44
   6   6   2    8.92    1.35
   6   6   3   75.61    3.54
   6   6   4    5.63    0.83
   6   7  -9   97.79    3.64
  -6  -7   9   96.60    3.54
   6   7  -9   88.64    3.62
   6   7  -8   16.63    1.55
  -6  -7   8   17.33    1.58
  -6  -7   7   97.66    4.51
  -6  -7   6   18.50    1.95
   6   7  -5    5.64    1.30
  -6  -7   5    5.95    1.21
   6   7  -4  478.18   14.88
   6   7  -4  474.28   14.66
   6   7  -3   78.65    4.79
   6   7  -3   80.12    4.66
   6   7  -2  476.30   14.85
   6   7  -2  494.04   14.66
   6   7  -1  124.20    5.80
   6   7  -1  121.52    5.54
  -6  -7   1  107.70    5.17
   6   7   0    5.34    1.10
  -6  -7   0    6.00    1.09
   6   7   1   55.55    3.20
   6   7   2   13.60    1.31
  -6  -7  -2   13.52    1.31
  -6  -8   7   13.73    1.27
  -6  -8   6   26.12    1.94
  -6  -8   5    3.21    0.78
   6   8  -4   74.34    4.08
   6   8  -3   16.40    1.83
   6   8  -3   15.96    1.80
   6   8  -2  106.39    4.84
   6   8  -2  101.46    4.62
   6   8  -1    3.17    0.77
   6   8  -1    2.58    0.67
   6   8   0    0.37    0.33
   6   9  -5    4.79    0.76
  -6  -9   4   57.82    2.52
   6   9  -4   72.30    3.04
  -7   9   1   11.84    1.14
  -7   9   0   72.67    3.27
  -7   9  -1  161.55    5.43
  -7   9  -2  230.87    6.94
  -7   9  -2  216.10    6.96
  -7   9  -3   14.05    1.38
  -7   9  -4  273.71    7.96
  -7   9  -5   55.23    2.57
  -7   9  -5   62.94    2.68
  -7   8   3   88.80    3.48
  -7   8   3   78.86    3.28
  -7   8   2   18.90    1.68
  -7   8   2   20.90    1.82
  -7   8   1   95.46    4.50
  -7   8   0  160.03    6.33
  -7   8   0  152.94    5.84
  -7   8  -1  132.42    5.44
  -7   8  -1  150.27    5.79
  -7   8  -2    7.28    1.20
  -7   8  -3   50.88    3.11
  -7   8  -4    6.16    1.04
  -7   8  -4    6.98    1.09
  -7   8  -5  162.12    5.88
  -7   8  -6   53.14    2.77
  -7   8  -7  104.56    3.72
  -7   7   4   66.61    3.27
  -7   7   3   59.35    3.43
  -7   7   3   63.94    3.55
  -7   7   2  113.01    5.16
  -7   7   2  107.42    5.28
  -7   7   1    9.59    1.63
  -7   7   1   11.78    1.54
  -7   7   0  151.82    6.13
  -7   7   0  133.89    6.36
  -7   7   0  138.57    5.99
  -7   7  -1   59.19    3.71
  -7   7  -2   13.08    1.68
  -7   7  -2   11.55    1.62
  -7   7  -3   49.90    3.33
  -7   7  -3   54.14    3.44
  -7   7  -4  439.76   12.69
  -7   7  -4  392.45   12.09
  -7   7  -5    1.61    0.63
  -7   7  -6  424.48   12.02
  -7   7  -7   28.36    1.91
  -7   6   6    1.51    0.44
  -7   6   5  117.91    4.83
  -7   6   4   17.51    1.86
  -7   6   4   18.66    2.00
  -7   6   3  644.16   16.98
  -7   6   3  508.45   15.98
  -7   6   2  103.50    5.73
  -7   6   2  113.59    5.39
  -7   6   1   30.14    3.02
  -7   6   1   38.94    3.02
  -7   6   0   12.82    1.97
  -7   6   0   15.82    1.92
  -7   6  -1  233.40    8.90
  -7   6  -1  270.04    9.32
  -7   6  -2   24.45    2.45
  -7   6  -2   26.36    2.46
  -7   6  -3   14.25    1.87
  -7   6  -3   18.69    2.04
  -7   6  -4   43.10    3.17
  -7   6  -5   92.81    4.74
  -7   6  -6   14.80    1.67
  -7   6  -6   15.49    1.83
  -7   6  -7   66.46    3.63
  -7   6  -8   90.09    3.81
  -7   5   6  162.75    6.00
  -7   5   5  195.90    7.58
  -7   5   4    3.43    1.03
  -7   5   4    4.37    1.12
  -7   5   3  388.22   12.86
  -7   5   2   34.53    2.91
  -7   5   1  217.11    8.35
  -7   5   0  112.97    5.58
  -7   5   0  103.53    5.36
   7  -5   1   48.53    3.68
  -7   5  -1   52.81    3.62
  -7   5  -1   46.16    3.34
   7  -5   2   34.48    3.07
  -7   5  -2   34.33    2.88
  -7   5  -2   28.37    2.55
  -7   5  -3  209.30    8.13
  -7   5  -4    4.23    1.08
  -7   5  -5   30.84    2.67
  -7   5  -5   44.51    3.38
  -7   5  -6  338.49   11.36
  -7   5  -7    5.19    1.10
  -7   5  -8   52.07    2.92
  -7   4   7    8.43    1.02
  -7   4   7    6.45    1.04
  -7   4   6  117.64    4.99
  -7   4   6  118.82    5.52
  -7   4   5   10.14    1.69
  -7   4   4   54.79    4.04
  -7   4   3  159.38    7.15
  -7   4   3  133.70    6.29
  -7   4   2  489.68   13.79
  -7   4   2  368.12   12.83
  -7   4   1  495.83   14.77
  -7   4   1  472.01   14.41
   7  -4   0    1.38    0.66
  -7   4   0    0.89    0.55
   7  -4   1    2.84    0.93
  -7   4  -1    2.02    0.74
  -7   4  -1    1.69    0.70
   7  -4   2   32.84    2.95
  -7   4  -2   45.68    3.28
  -7   4  -3    1.13    0.59
  -7   4  -4   44.88    3.24
  -7   4  -4   50.64    3.79
  -7   4  -5  175.23    7.71
  -7   4  -6    2.15    0.86
  -7   4  -7  112.47    5.39
  -7   4  -8   12.92    1.44
  -7   3   8    0.83    0.41
  -7   3   8    0.59    0.34
  -7   3   8    1.12    0.46
  -7   3   7   78.79    3.85
  -7   3   7   66.97    3.90
  -7   3   6  171.90    6.90
  -7   3   6  169.94    7.43
  -7   3   5  235.79    9.45
  -7   3   4   90.00    5.39
  -7   3   4  100.68    5.21
  -7   3   3  672.72   19.50
  -7   3   3  752.64   19.91
  -7   3   2  133.51    6.49
   7  -3  -2  154.52    6.75
   7  -3  -2  148.08    6.86
  -7   3   2  145.92    6.48
  -7   3   2  131.13    6.15
  -7   3   2  133.59    6.73
   7  -3  -1  799.97   21.34
   7  -3  -1  777.08   21.56
  -7   3   1  778.78   21.22
  -7   3   1  788.94   21.04
  -7   3   0  851.69   23.13
  -7   3   0  867.93   23.61
  -7   3   0  811.37   22.39
  -7   3   0  869.72   22.22
  -7   3  -1  162.02    7.18
  -7   3  -1  148.51    7.21
  -7   3  -1  154.05    6.61
  -7   3  -2    1.14    0.60
  -7   3  -2    1.62    0.71
   7  -3   2    1.15    0.61
  -7   3  -3  424.65   13.81
  -7   3  -4   40.38    3.42
  -7   3  -5   15.35    2.15
  -7   3  -6  152.07    6.95
  -7   3  -7   17.95    1.99
   7  -3   8  129.12    4.86
  -7   3  -8   97.60    4.53
   7  -2  -9    7.90    0.82
  -7   2   9    6.89    0.81
  -7   2   8   48.67    2.93
  -7   2   8   46.99    2.75
  -7   2   8   40.85    2.75
  -7   2   7   49.57    3.25
  -7   2   7   38.61    3.15
  -7   2   6   13.28    1.82
  -7   2   6   11.50    1.84
  -7   2   5   98.12    5.42
  -7   2   5   86.93    4.87
  -7   2   4  423.10   14.01
  -7   2   4  446.62   14.29
  -7   2   4  448.09   13.70
  -7   2   3   25.19    2.63
   7  -2  -3   22.45    2.55
  -7   2   3   20.15    2.24
  -7   2   3   27.54    2.54
  -7   2   3   27.08    2.82
  -7   2   2    0.86    0.58
   7  -2  -2    0.90    0.60
  -7   2   2    0.77    0.61
  -7   2   2    0.73    0.57
  -7   2   1   51.11    3.69
   7  -2  -1   47.65    3.57
  -7   2   1   55.62    3.87
  -7   2   1   43.07    3.23
  -7   2   1   46.56    3.21
  -7   2   0  462.40   14.11
  -7   2   0  470.38   14.36
  -7   2  -1  658.46   19.21
  -7   2  -1  728.62   20.25
  -7   2  -1  695.05   19.06
   7  -2   1  757.50   19.96
  -7   2  -2  480.57   15.04
  -7   2  -2  481.45   15.44
   7  -2   2  534.36   15.53
  -7   2  -2  517.99   15.59
  -7   2  -3    5.11    1.30
  -7   2  -4   16.89    2.23
  -7   2  -5   93.44    5.39
  -7   2  -6   14.56    1.95
  -7   2  -7   11.39    1.60
   7  -2   8   63.68    3.13
   7  -1  -9   99.77    3.78
  -7   1   9  100.93    4.09
  -7   1   9  109.21    3.99
  -7   1   8   40.21    2.74
  -7   1   8   38.52    2.88
  -7   1   7   49.11    3.45
  -7   1   7   51.00    3.43
  -7   1   6   30.59    2.90
  -7   1   5    2.55    0.95
  -7   1   5    1.98    0.80
  -7   1   4   11.03    1.80
  -7   1   4   12.38    1.74
  -7   1   3 1226.24   31.14
   7  -1  -3 1222.28   31.38
  -7   1   3 1203.18   30.44
  -7   1   3 1262.46   30.90
  -7   1   3 1154.31   30.00
   7  -1  -2    3.66    1.05
  -7   1   2    2.76    0.83
  -7   1   2    2.70    0.87
  -7   1   2    2.67    0.84
   7  -1  -1   41.21    3.24
  -7   1   1   40.60    3.18
  -7   1   1   37.42    2.90
  -7   1   0  365.72   11.94
  -7   1   0  384.00   12.40
   7  -1   0  377.72   12.37
   7  -1   0  382.60   12.42
  -7   1  -1   47.40    3.39
  -7   1  -1   39.53    3.26
   7  -1   1   44.42    3.45
  -7   1  -1   43.51    3.45
   7  -1   2  875.00   23.11
  -7   1  -2  809.58   22.89
  -7   1  -3   72.35    4.71
  -7   1  -4  119.15    6.23
  -7   1  -5  464.74   14.79
   7  -1   6   57.20    3.82
  -7   1  -6   52.91    3.67
   7  -1   7   33.86    2.55
   7  -1   7   36.34    2.65
   7  -1   8    3.69    0.70
   7   0  -9   67.43    3.06
  -7   0   9   65.08    3.08
  -7   0   8   23.09    2.28
  -7   0   8   24.19    2.17
  -7   0   8   18.27    2.08
  -7   0   7   56.80    3.93
  -7   0   7   47.23    3.44
  -7   0   6   75.61    4.83
  -7   0   5   23.27    2.61
   7   0  -4   47.24    3.91
  -7   0   4   55.63    4.01
  -7   0   4   56.04    3.95
  -7   0   4   47.90    3.42
   7   0  -3    0.62    0.52
  -7   0   3    0.33    0.54
   7   0  -3    0.70    0.52
  -7   0   3    0.11    0.35
  -7   0   3    0.53    0.47
   7   0  -2   90.11    5.08
  -7   0   2   92.68    4.81
  -7   0   2   79.46    4.69
   7   0  -1  552.07   16.02
  -7   0   1  536.07   15.61
   7   0  -1  516.57   15.98
  -7   0   0   43.03    3.15
  -7   0   0   41.21    3.17
   7   0   0   39.82    3.35
   7   0   0   41.32    3.37
  -7   0  -1   17.81    2.11
   7   0   1   17.32    2.18
   7   0   1   15.97    2.09
  -7   0  -1   19.47    2.15
   7   0   2  608.56   17.49
   7   0   2  601.28   17.54
   7   0   2  607.59   17.90
  -7   0  -2  559.40   17.32
  -7   0  -2  550.95   16.60
   7   0   3  220.02    8.80
   7   0   3  235.80    9.51
  -7   0  -3  219.80    9.05
  -7   0  -3  226.10    8.62
   7   0   4 1040.58   27.37
  -7   0  -4  989.28   26.85
   7   0   5  173.43    7.63
   7   0   6   35.90    2.83
   7   0   6   33.44    2.81
   7   0   7   59.96    3.33
  -7  -1   9    3.03    0.78
  -7  -1   8    1.02    0.60
  -7  -1   7  133.85    6.43
  -7  -1   6  156.83    7.24
  -7  -1   5   17.04    2.23
  -7  -1   4   15.29    2.05
  -7  -1   4   15.42    2.09
   7   1  -4   18.08    2.37
  -7  -1   4   19.92    2.27
   7   1  -3  126.51    6.67
  -7  -1   3  118.74    6.00
  -7  -1   3  115.57    6.07
  -7  -1   3  129.79    6.15
  -7  -1   2   69.54    4.17
   7   1  -2   61.33    4.28
  -7  -1   2   66.78    4.31
  -7  -1   1  507.89   14.82
   7   1  -1  477.46   15.33
  -7  -1   0   24.85    2.46
  -7  -1   0   25.97    2.51
   7   1   0   32.31    3.02
   7   1   1  140.93    6.91
   7   1   1  152.88    7.18
   7   1   1  155.14    7.39
  -7  -1  -1  149.98    6.69
   7   1   2  301.50   10.76
   7   1   2  277.85   10.91
  -7  -1  -2  288.09   10.28
   7   1   3  228.96    9.57
  -7  -1  -3  226.53    8.81
   7   1   4   37.95    3.35
  -7  -1  -4   35.63    2.99
   7   1   5    1.78    0.73
   7   1   5    1.26    0.66
  -7  -1  -5    0.27    0.46
   7   1   6   14.42    1.69
  -7  -1  -6   14.93    1.64
   7   1   7   46.59    2.56
  -7  -2  10   23.51    1.62
   7   2  -9    9.87    1.30
  -7  -2   8   22.62    2.27
  -7  -2   7    0.61    0.57
  -7  -2   6   85.65    4.99
   7   2  -6   93.50    5.53
   7   2  -5  384.30   13.68
  -7  -2   5  413.91   13.42
  -7  -2   4  779.62   22.10
   7   2  -4  804.64   22.98
  -7  -2   4  811.36   22.26
   7   2  -3    1.04    0.72
  -7  -2   3    0.34    0.53
   7   2  -3    0.77    0.66
  -7  -2   3    0.54    0.54
   7   2  -2   31.13    3.06
   7   2  -2   30.13    2.86
  -7  -2   2   36.86    3.08
   7   2  -1  100.15    5.78
   7   2  -1  106.04    5.63
  -7  -2   1  107.03    5.53
   7   2   0   24.81    2.72
   7   2   0   24.25    2.80
   7   2   0   26.96    2.74
   7   2   1  239.06    9.50
   7   2   1  236.19    9.92
  -7  -2  -1  234.85    9.11
   7   2   1  246.22    9.50
   7   2   2  132.22    6.97
  -7  -2  -2  124.69    6.17
   7   2   3   12.43    2.02
  -7  -2  -3   11.80    1.77
   7   2   4  918.65   24.31
   7   2   4  901.07   24.71
  -7  -2  -4  918.15   24.01
   7   2   5  151.40    6.41
   7   2   5  155.85    6.56
  -7  -2  -5  161.37    6.38
  -7  -2  -6  369.10   10.49
   7   3 -10   76.99    2.95
  -7  -3  10   61.61    2.85
   7   3  -9  106.78    4.59
  -7  -3   9  105.12    4.33
   7   3  -8   48.17    3.24
  -7  -3   8   41.73    2.85
   7   3  -7    4.53    1.18
  -7  -3   7    4.42    1.04
   7   3  -6   74.34    4.98
  -7  -3   5    0.22    0.44
   7   3  -5    0.93    0.71
  -7  -3   4   33.55    3.05
   7   3  -4   28.83    3.08
  -7  -3   4   27.71    2.85
  -7  -3   3   35.82    3.19
   7   3  -3   37.43    3.48
  -7  -3   3   39.77    3.34
   7   3  -2  198.90    8.66
   7   3  -2  227.15    9.28
  -7  -3   2  227.41    8.93
   7   3  -1    9.23    1.77
   7   3  -1    8.50    1.62
  -7  -3   1    9.01    1.60
   7   3   0  331.88   11.95
   7   3   0  322.32   12.31
   7   3   0  335.32   11.89
   7   3   1  223.86    9.86
  -7  -3  -1  238.46    9.13
   7   3   1  246.75    9.61
   7   3   2    1.34    0.84
  -7  -3  -2    0.31    0.46
   7   3   3    1.56    0.80
  -7  -3  -3    1.64    0.80
   7   3   4  101.59    5.26
  -7  -3  -4  109.36    5.13
  -7  -3  -5  100.16    4.41
  -7  -3  -6  117.97    4.16
   7   3   6  126.23    4.27
   7   4  -9   25.82    2.00
  -7  -4   9   24.26    1.85
   7   4  -8  105.95    4.92
   7   4  -8  114.40    5.40
  -7  -4   8  100.84    4.69
   7   4  -7   60.85    3.82
   7   4  -7   58.34    4.10
  -7  -4   7   67.17    3.92
   7   4  -6    1.13    0.62
   7   4  -6    0.99    0.72
  -7  -4   6    0.39    0.54
  -7  -4   6    0.43    0.51
   7   4  -5   15.27    2.28
  -7  -4   5   15.08    1.98
  -7  -4   5   17.18    2.21
   7   4  -4    9.45    1.75
  -7  -4   4    9.10    1.67
   7   4  -3   23.06    2.64
  -7  -4   3    9.82    1.72
   7   4  -2  264.16   10.25
  -7  -4   2  260.64   10.01
   7   4  -1    4.82    1.23
  -7  -4   1    3.93    1.13
   7   4   0  142.85    7.52
   7   4   0  160.13    7.33
   7   4   1   89.06    5.65
  -7  -4  -1   94.79    5.04
   7   4   1   95.78    5.41
   7   4   2  364.80   12.78
  -7  -4  -2  383.69   11.94
   7   4   2  369.67   12.27
   7   4   3  381.70   12.61
  -7  -4  -3  418.19   12.21
   7   4   3  404.28   12.42
  -7  -4  -4   14.05    1.48
   7   4   4   11.79    1.44
   7   4   5   75.78    3.17
   7   5  -9   22.23    1.72
  -7  -5   9   23.33    1.69
   7   5  -8   48.35    2.96
  -7  -5   8   51.45    2.99
   7   5  -7    8.59    1.32
   7   5  -7    7.77    1.46
  -7  -5   7    7.86    1.31
   7   5  -6   25.78    2.69
  -7  -5   6   27.78    2.52
  -7  -5   6   25.97    2.53
   7   5  -5  126.67    6.46
  -7  -5   5  124.99    5.98
  -7  -5   5  127.40    6.18
   7   5  -4    6.07    1.36
  -7  -5   4    6.03    1.35
   7   5  -3  107.54    5.77
  -7  -5   3  109.86    5.78
   7   5  -2   12.62    1.89
   7   5  -2   11.70    1.85
  -7  -5   2   13.58    1.90
   7   5  -1    1.80    0.80
  -7  -5   1    0.85    0.61
   7   5   0   94.24    5.20
   7   5   1    1.34    0.70
   7   5   2   38.11    2.79
   7   5   3    6.28    1.00
   7   5   4   35.44    1.94
  -7  -6   9  143.67    4.56
   7   6  -8   48.17    2.57
  -7  -6   8   43.89    2.52
  -7  -6   7   53.09    3.09
   7   6  -6   99.61    5.03
  -7  -6   6   94.61    4.64
  -7  -6   5    9.67    1.47
  -7  -6   5    8.81    1.42
   7   6  -4   46.99    3.54
  -7  -6   4   45.90    3.31
   7   6  -3  124.12    6.04
   7   6  -3  125.40    5.84
  -7  -6   3  114.95    5.62
   7   6  -2   37.44    3.08
  -7  -6   2   38.40    2.99
   7   6  -1   38.61    3.00
   7   6  -1   36.61    2.90
  -7  -6   1   36.14    2.84
   7   6   0   53.21    3.35
   7   6   0   48.36    3.19
  -7  -6   0   51.26    3.29
   7   6   1    0.27    0.37
  -7  -6  -1    0.69    0.44
  -7  -6  -2   19.75    1.66
  -7  -7   8  119.17    3.98
  -7  -7   7   11.53    1.20
  -7  -7   6   17.55    1.64
  -7  -7   5  257.27    8.33
   7   7  -4   98.21    4.78
  -7  -7   4   87.64    4.27
   7   7  -3   29.02    2.44
  -7  -7   3   23.30    2.03
   7   7  -2    8.46    1.32
  -7  -7   2    7.40    1.15
   7   7  -1    0.41    0.35
  -7  -7   1    0.36    0.36
   7   7   0    7.30    1.02
  -7  -7   0    5.39    0.85
  -7  -7  -1   96.33    3.58
  -7  -8   6  138.86    4.43
  -7  -8   5    6.39    0.83
  -7  -8   4    1.15    0.41
  -7  -8   3   82.80    3.36
   7   8  -2   19.26    1.50
  -8   9  -2   98.59    3.46
  -8   9  -3    0.62    0.29
  -8   8   2   19.10    1.40
  -8   8   1   37.32    2.23
  -8   8   0  290.23    8.53
  -8   8   0  286.31    8.34
  -8   8  -1    0.99    0.45
  -8   8  -2   76.15    3.51
  -8   8  -3  108.18    4.21
  -8   8  -3  103.54    4.17
  -8   8  -4  178.69    5.85
  -8   8  -4  178.79    5.70
  -8   8  -5  134.80    4.59
  -8   7   3   75.53    3.23
  -8   7   3   65.87    3.20
  -8   7   2   24.82    2.08
  -8   7   1   58.87    3.47
  -8   7   1   59.77    3.22
  -8   7   0   18.60    1.94
  -8   7   0   21.72    1.98
  -8   7  -1   22.16    2.01
  -8   7  -2  225.93    7.82
  -8   7  -2  234.21    7.89
  -8   7  -3    0.14    0.37
  -8   7  -3   -0.07    0.35
  -8   7  -4   11.03    1.37
  -8   7  -5    2.63    0.69
  -8   7  -6    0.40    0.31
  -8   6   5  288.79    7.98
  -8   6   4    0.18    0.30
  -8   6   4    0.64    0.42
  -8   6   3   35.60    2.70
  -8   6   3   38.09    2.61
  -8   6   2   15.75    1.94
  -8   6   2   14.82    1.65
  -8   6   1  239.23    9.16
  -8   6   1  275.55    9.02
  -8   6   0   23.17    2.19
  -8   6   0   20.09    2.21
  -8   6   0   24.68    2.27
  -8   6  -1   38.19    2.92
  -8   6  -1   46.77    3.16
  -8   6  -2  213.03    7.98
  -8   6  -2  223.34    7.90
  -8   6  -3   62.14    3.74
  -8   6  -4  152.47    6.15
  -8   6  -5  320.22    9.76
  -8   6  -6    0.67    0.39
  -8   6  -7   88.75    3.56
  -8   5   6    9.80    1.05
  -8   5   5  314.80    9.50
  -8   5   4    6.76    1.21
  -8   5   4    8.18    1.33
  -8   5   3  294.79   10.11
  -8   5   3  269.44    9.22
  -8   5   2   26.53    2.42
  -8   5   1   43.86    3.20
  -8   5   1   45.70    3.28
  -8   5   0    0.10    0.43
  -8   5   0    0.83    0.55
  -8   5  -1  148.31    6.52
  -8   5  -1  140.75    6.19
  -8   5  -2    3.04    0.92
  -8   5  -3   29.81    2.61
  -8   5  -4  212.56    7.82
  -8   5  -5   76.63    3.86
  -8   5  -5   69.26    4.05
  -8   5  -6  167.67    6.44
  -8   5  -7   59.40    3.05
  -8   4   7   12.83    1.14
  -8   4   6   52.23    2.99
  -8   4   5   18.90    1.99
  -8   4   4  208.59    7.79
  -8   4   4  173.15    6.98
  -8   4   3  275.76    9.60
  -8   4   2   37.53    3.02
  -8   4   2   33.58    2.87
  -8   4   1   27.81    2.63
  -8   4   1   31.76    2.75
  -8   4   0  151.99    6.75
  -8   4   0  147.98    6.48
  -8   4  -1   41.73    3.28
  -8   4  -2   78.62    4.56
  -8   4  -3    0.82    0.56
  -8   4  -4  172.47    7.38
  -8   4  -5   17.87    2.14
  -8   4  -6   20.23    2.08
   8  -4   7  174.64    5.78
  -8   4  -7  160.95    5.95
  -8   3   7  146.61    5.08
  -8   3   7  134.39    5.20
  -8   3   6   60.52    3.50
  -8   3   6   68.30    3.86
  -8   3   5   42.86    3.28
  -8   3   4  286.92    9.92
  -8   3   3  338.63   11.65
  -8   3   3  339.36   11.31
  -8   3   2   56.30    3.99
  -8   3   2   62.71    4.03
  -8   3   2   50.28    3.58
  -8   3   1   95.57    5.12
  -8   3   1   91.18    4.89
  -8   3   0   10.27    1.59
  -8   3  -1  144.07    6.50
  -8   3  -2   43.52    3.23
  -8   3  -3  315.67   11.18
  -8   3  -4    0.11    0.44
  -8   3  -5   23.17    2.46
   8  -3   6   45.16    2.94
  -8   3  -6   44.04    3.17
   8  -3   7   63.36    3.31
  -8   2   8  144.30    4.71
  -8   2   8  128.11    4.71
  -8   2   7   62.26    3.39
  -8   2   7   69.85    3.70
  -8   2   6  178.24    7.07
  -8   2   6  177.38    7.21
  -8   2   5  108.14    5.58
  -8   2   5  112.52    5.67
  -8   2   4    5.45    1.31
  -8   2   4    5.36    1.19
  -8   2   3  135.27    6.62
  -8   2   3  130.35    6.12
  -8   2   2 1399.10   36.86
  -8   2   2 1480.54   36.24
  -8   2   1  293.40   10.26
  -8   2   1  289.62    9.92
  -8   2   0  295.36   10.26
   8  -2   1   66.62    4.39
  -8   2  -2   30.43    2.94
  -8   2  -3   54.60    4.02
  -8   2  -4   37.31    3.26
   8  -2   5  103.37    5.07
  -8   2  -5  100.41    5.31
   8  -2   6   47.26    3.23
   8  -2   7   61.39    3.14
  -8   1   8    8.22    1.07
  -8   1   8    7.95    1.13
  -8   1   7   55.70    3.46
  -8   1   7   53.99    3.36
  -8   1   7   63.18    3.71
  -8   1   6   48.47    3.50
  -8   1   6   45.44    3.42
  -8   1   5  306.37   10.76
  -8   1   5  276.18   10.18
  -8   1   4    1.86    0.86
  -8   1   4    2.15    0.82
  -8   1   3  482.00   15.43
  -8   1   3  505.19   15.27
  -8   1   3  485.15   14.64
  -8   1   2   72.69    4.62
  -8   1   2   59.40    3.99
  -8   1   2   67.55    4.04
  -8   1   1    6.61    1.30
   8  -1   0  866.66   23.77
   8  -1   1  249.76    9.77
   8  -1   2   36.60    3.24
   8  -1   3  142.29    6.73
   8  -1   3  149.56    7.08
   8  -1   4  530.07   15.71
   8  -1   4  535.99   16.30
   8  -1   5  147.33    6.61
   8  -1   6   42.28    2.89
   8  -1   7    5.01    0.80
  -8   0   9    7.89    0.92
  -8   0   8   53.92    2.92
  -8   0   8   53.37    3.11
  -8   0   7   68.41    4.01
  -8   0   7   73.76    4.10
  -8   0   6   20.40    2.33
  -8   0   5  323.03   11.43
  -8   0   4  223.01    9.03
  -8   0   3   86.70    5.15
  -8   0   3   93.78    5.27
  -8   0   3   85.22    4.64
  -8   0   2    2.80    0.97
  -8   0   2    4.09    1.15
   8   0  -1   84.15    5.13
  -8   0   1   81.37    4.87
   8   0   0  507.67   16.01
   8   0   1   47.16    3.77
   8   0   2 1031.61   27.05
   8   0   2  995.01   27.30
   8   0   3   17.90    2.16
   8   0   3   17.85    2.31
   8   0   4   27.22    2.51
   8   0   4   32.10    2.95
   8   0   5   19.53    2.12
   8   0   6   77.08    3.81
   8   1  -9  327.44    8.68
  -8  -1   9  310.57    8.88
  -8  -1   8    0.71    0.51
  -8  -1   7    6.93    1.29
  -8  -1   6   17.64    2.13
  -8  -1   5    7.95    1.49
   8   1  -5    7.67    1.58
  -8  -1   4    0.77    0.57
  -8  -1   4    1.94    0.85
   8   1  -4    1.30    0.77
  -8  -1   4    1.45    0.72
  -8  -1   3  209.91    8.62
  -8  -1   3  239.40    9.30
   8   1  -2    2.94    1.03
  -8  -1   2    2.96    1.00
   8   1  -1  119.30    6.40
   8   1   0  227.14    9.33
   8   1   1   35.04    3.24
   8   1   1   36.03    3.39
   8   1   2  652.05   19.03
   8   1   2  663.66   19.63
   8   1   3   13.66    1.86
   8   1   3   18.76    2.34
  -8  -1  -3   14.40    1.88
   8   1   4   33.55    2.95
  -8  -1  -4   35.61    2.72
   8   1   5   29.65    2.43
  -8  -1  -5   29.07    2.18
   8   1   6   75.41    3.33
   8   2  -9   66.16    2.93
  -8  -2   9   61.51    2.93
   8   2  -8   27.45    2.18
  -8  -2   7  110.19    5.19
   8   2  -6   11.93    1.83
   8   2  -5  158.26    7.55
  -8  -2   5  152.18    6.94
  -8  -2   4  193.36    8.38
   8   2  -4  219.70    9.30
  -8  -2   4  214.86    8.57
  -8  -2   3  478.77   15.14
   8   2  -3  477.12   15.73
  -8  -2   3  471.96   14.81
  -8  -2   2    0.34    0.54
  -8  -2   2   -0.11    0.42
   8   2  -1  161.84    7.74
   8   2  -1  163.84    7.35
   8   2   0    1.84    0.89
   8   2   0    1.89    0.83
   8   2   1   18.43    2.32
   8   2   1   17.69    2.39
   8   2   1   17.64    2.19
   8   2   2   89.23    4.96
   8   2   2   85.95    5.30
   8   2   2   87.76    4.96
   8   2   3  145.24    6.72
  -8  -2  -3  135.88    6.03
   8   2   3  137.73    6.22
   8   2   4  560.93   16.04
  -8  -2  -4  566.29   15.45
   8   2   4  573.04   15.69
   8   2   5    3.72    0.79
   8   2   5    6.78    0.98
   8   3  -9   71.96    3.05
  -8  -3   9   62.88    2.91
   8   3  -8   13.76    1.49
   8   3  -7   43.96    2.96
   8   3  -7   46.09    3.31
   8   3  -6  261.25    9.92
   8   3  -5    4.82    1.31
  -8  -3   5    3.64    1.02
  -8  -3   4  250.03    9.55
   8   3  -4  276.81   10.54
  -8  -3   4  244.89    9.50
  -8  -3   3   47.46    3.66
   8   3  -3   54.35    4.17
  -8  -3   3   53.82    3.86
  -8  -3   2  118.26    6.08
   8   3  -2  134.73    6.68
  -8  -3   2  123.51    6.14
   8   3  -1  488.97   15.44
  -8  -3   1  503.20   15.20
   8   3   0    1.67    0.86
   8   3   0    1.11    0.72
  -8  -3   0    1.80    0.76
   8   3   1    1.36    0.76
   8   3   1    1.79    0.75
  -8  -3  -1    2.70    0.83
   8   3   2   62.02    4.26
   8   3   2   65.88    4.05
   8   3   3  168.67    7.13
   8   3   3  200.49    7.21
   8   3   4   93.28    4.23
   8   3   4   90.69    4.05
   8   4  -9   27.85    1.64
   8   4  -8  146.80    5.28
   8   4  -7  180.89    6.48
   8   4  -7  181.63    7.15
   8   4  -6   44.26    3.43
   8   4  -5  246.16    9.61
  -8  -4   5  254.41    9.22
   8   4  -4    0.81    0.57
  -8  -4   4    1.03    0.57
   8   4  -3    5.97    1.35
  -8  -4   3    6.85    1.38
  -8  -4   2   55.27    3.72
  -8  -4   2   50.36    3.65
   8   4  -1   13.04    1.89
  -8  -4   1   10.52    1.63
   8   4   0  414.87   13.29
  -8  -4   0  424.64   13.04
   8   4   1  403.66   12.59
  -8  -4  -1  409.91   12.35
   8   4   2    2.55    0.76
  -8  -4  -2    3.14    0.81
   8   4   3   87.59    3.94
   8   4   4    4.74    0.68
  -8  -5   8   17.77    1.34
   8   5  -7   40.70    2.80
  -8  -5   7   41.63    2.44
   8   5  -6   86.21    4.50
  -8  -5   6   77.30    3.81
   8   5  -5   12.50    1.73
  -8  -5   5   12.04    1.50
  -8  -5   5    9.61    1.45
  -8  -5   4  202.73    7.41
  -8  -5   4  204.04    7.81
  -8  -5   3   26.34    2.46
  -8  -5   2   38.87    3.01
  -8  -5   1  125.28    5.61
   8   5   0   45.61    3.09
  -8  -5   0   41.19    2.88
   8   5   1   20.59    1.90
  -8  -5  -1   20.09    1.82
   8   5   2  253.74    7.73
  -8  -5  -2  261.29    7.72
  -8  -6   7    3.43    0.61
  -8  -6   6   40.07    2.34
  -8  -6   5   37.45    2.42
  -8  -6   5   39.59    2.56
  -8  -6   4   62.81    3.34
  -8  -6   4   68.32    3.57
  -8  -6   3  194.41    6.96
  -8  -6   2   37.22    2.56
  -8  -6   1    3.35    0.76
  -8  -6   0   61.59    3.04
  -8  -6  -1   17.13    1.33
  -8  -7   5   18.28    1.36
  -8  -7   4   67.15    2.92
  -8  -7   3   68.20    2.92
  -8  -7   3   63.01    2.83
  -8  -7   2   93.85    3.47
  -8  -7   2   90.91    3.49
  -9   8  -1  148.35    4.58
  -9   8  -2   25.52    1.49
  -9   7   2  158.55    5.10
  -9   7   1   10.02    1.12
  -9   7   1   10.09    1.05
  -9   7   0  249.66    7.50
  -9   7  -1    0.63    0.38
  -9   7  -1    0.98    0.42
  -9   7  -2    3.76    0.71
  -9   7  -2    4.17    0.73
  -9   7  -3  112.35    4.29
  -9   7  -4    6.66    0.85
  -9   6   3   80.10    3.57
  -9   6   3   83.98    3.29
  -9   6   2   53.78    3.05
  -9   6   2   54.38    2.85
  -9   6   1   11.56    1.44
  -9   6   1   13.06    1.43
  -9   6   0  106.01    4.51
  -9   6   0  100.24    4.47
  -9   6  -1   17.68    1.75
  -9   6  -1   21.51    1.86
  -9   6  -2   96.80    4.39
  -9   6  -3   82.05    3.87
  -9   6  -4    5.03    0.87
   9  -6   5  365.04    9.79
  -9   6  -5  333.70    9.26
  -9   5   4   31.53    2.15
  -9   5   3   71.98    3.96
  -9   5   3   97.35    4.12
  -9   5   2   12.86    1.67
  -9   5   2   20.91    1.91
  -9   5   1   15.66    1.73
  -9   5   1   16.02    1.85
  -9   5   1   16.10    1.74
  -9   5   0  430.73   12.88
  -9   5   0  453.79   12.94
  -9   5  -1    0.89    0.57
  -9   5  -1    1.54    0.60
  -9   5  -2   57.20    3.44
  -9   5  -3  106.13    4.76
   9  -5   4   31.69    2.45
  -9   5  -4   32.56    2.26
   9  -5   5    3.73    0.80
   9  -5   6  111.52    4.16
  -9   4   5    3.42    0.74
  -9   4   4   97.98    4.31
  -9   4   3    0.45    0.39
  -9   4   2    7.38    1.26
  -9   4   1   76.23    4.38
  -9   4   1   76.10    4.26
  -9   4   1   85.80    4.38
  -9   4   0   12.46    1.72
  -9   4   0   13.62    1.74
  -9   4   0   12.06    1.58
  -9   4  -1    1.56    0.68
  -9   4  -2  631.60   17.27
   9  -4   3   20.28    2.13
  -9   4  -3   19.57    1.92
   9  -4   4   39.16    2.86
   9  -4   5  358.19   10.65
   9  -4   6    2.29    0.58
   9  -4   6    1.69    0.53
  -9   3   6    0.93    0.40
  -9   3   6    1.99    0.57
  -9   3   5    9.49    1.27
  -9   3   4    1.47    0.62
  -9   3   4    1.14    0.57
  -9   3   3  128.00    5.87
  -9   3   3  117.61    5.44
  -9   3   2    0.30    0.39
  -9   3   2    0.61    0.49
  -9   3   1   10.24    1.64
  -9   3   1    8.81    1.43
  -9   3   1    8.84    1.39
  -9   3   0    2.01    0.71
  -9   3  -1    0.35    0.47
   9  -3   2   57.40    3.86
   9  -3   3  140.46    6.32
   9  -3   4  473.38   13.86
   9  -3   5  116.63    4.94
   9  -3   5  114.65    5.05
   9  -3   6   50.00    2.55
   9  -3   6   50.22    2.75
  -9   2   7  154.50    5.37
  -9   2   7  204.30    5.85
  -9   2   6    0.45    0.40
  -9   2   6    0.75    0.46
  -9   2   6    0.37    0.41
  -9   2   5    6.10    1.16
  -9   2   4  198.88    7.83
  -9   2   3   58.86    3.94
  -9   2   3   59.89    3.71
  -9   2   2   40.98    3.32
  -9   2   2   44.35    3.14
  -9   2   1  127.81    6.24
  -9   2   1  124.53    5.84
  -9   2   0   63.18    3.86
   9  -2   1    4.48    1.16
   9  -2   2   47.72    3.56
   9  -2   3    0.48    0.50
   9  -2   4  308.89   10.04
   9  -2   4  301.22   10.17
   9  -2   5   23.78    1.96
   9  -2   5   22.28    2.05
   9  -2   6   42.06    2.44
  -9   1   7  152.31    5.18
  -9   1   7  133.86    4.85
  -9   1   6   49.56    3.16
  -9   1   5   85.25    4.65
  -9   1   4   64.21    4.12
  -9   1   3   37.49    3.17
  -9   1   3   33.57    2.72
  -9   1   2    4.69    1.17
  -9   1   1   29.72    2.83
   9  -1   0    1.67    0.80
   9  -1   1  164.99    7.39
   9  -1   2    7.12    1.40
   9  -1   3   16.58    1.98
   9  -1   3   17.61    2.11
   9  -1   4  104.51    4.88
   9  -1   4  112.93    5.32
   9  -1   5   72.16    3.74
   9  -1   6   25.68    1.76
   9   0  -8   42.11    2.05
  -9   0   8   34.90    1.94
  -9   0   7   27.68    2.01
  -9   0   7   31.35    2.18
  -9   0   6   32.68    2.59
  -9   0   5  259.19    9.33
  -9   0   4  652.54   18.15
   9   0  -4  610.77   18.22
  -9   0   3    5.53    1.24
  -9   0   3    5.41    1.21
   9   0  -3    4.17    1.18
  -9   0   2  120.13    6.01
  -9   0   2  130.60    6.21
  -9   0   1   14.58    1.94
   9   0  -1   13.21    2.00
  -9   0   1   15.15    1.96
   9   0   0   70.30    4.56
  -9   0   0   68.36    4.25
   9   0   1   28.84    2.83
   9   0   2   77.32    4.55
   9   0   3   12.22    1.62
   9   0   3   14.09    1.88
   9   0   4  215.65    7.37
   9   0   4  225.19    8.00
   9   0   5  162.15    5.86
   9   1  -8    1.81    0.48
  -9  -1   8    1.51    0.47
  -9  -1   7   62.83    3.31
  -9  -1   6   63.98    3.67
  -9  -1   5  157.34    6.62
   9   1  -5  160.87    7.00
  -9  -1   4    0.57    0.49
   9   1  -4    1.04    0.70
  -9  -1   3  318.77   11.14
   9   1  -3  339.13   11.97
  -9  -1   2   93.73    5.15
   9   1  -1    2.65    0.97
  -9  -1   1    2.58    0.92
   9   1   0   14.52    2.04
  -9  -1   0   13.21    1.83
   9   1   1   14.69    1.99
   9   1   2    6.62    1.27
   9   1   2    6.36    1.31
   9   1   3  153.95    6.15
   9   1   3  175.69    6.91
   9   1   4    7.44    1.17
   9   1   5   -0.05    0.23
   9   2  -8   25.11    1.63
  -9  -2   8   23.29    1.55
   9   2  -7   68.93    3.32
   9   2  -6   18.50    2.00
   9   2  -5   11.32    1.75
  -9  -2   4   18.21    2.10
   9   2  -4   18.23    2.28
  -9  -2   4   16.97    1.93
  -9  -2   3   48.82    3.52
   9   2  -3   50.18    3.81
  -9  -2   3   43.40    3.18
  -9  -2   2  187.33    7.74
   9   2  -2  193.87    8.20
  -9  -2   1   20.59    2.29
   9   2  -1   24.60    2.54
   9   2   0  242.64    8.87
   9   2   1   66.59    4.24
   9   2   1   59.65    3.72
   9   2   2   12.77    1.76
   9   2   2   17.03    1.81
   9   2   3   24.97    2.16
   9   2   3   20.44    1.81
   9   2   4   52.09    2.73
   9   3  -7    0.81    0.39
   9   3  -7    0.62    0.40
   9   3  -6   22.72    2.19
   9   3  -5   98.48    5.11
  -9  -3   4    9.03    1.42
   9   3  -4   11.46    1.72
  -9  -3   4   11.68    1.57
  -9  -3   3   17.87    2.01
   9   3  -3   19.86    2.28
  -9  -3   3   19.85    2.06
  -9  -3   2   65.63    3.98
   9   3  -2   72.22    4.30
  -9  -3   2   66.54    3.93
  -9  -3   1  163.96    6.77
  -9  -3   1  165.10    6.58
   9   3   0  110.86    5.28
  -9  -3   0  111.34    5.19
   9   3   1   13.29    1.60
   9   3   2  246.43    7.97
   9   3   3    5.48    0.82
   9   4  -7   26.69    1.92
   9   4  -6    5.52    1.02
   9   4  -5   33.25    2.60
   9   4  -4   67.01    3.91
  -9  -4   4   66.75    3.69
  -9  -4   3   35.35    2.59
  -9  -4   3   37.96    2.75
  -9  -4   2   96.39    4.62
  -9  -4   2  116.90    5.04
  -9  -4   1    1.41    0.58
  -9  -4   1    1.28    0.56
  -9  -4   0   77.09    3.78
  -9  -4   0   80.66    3.80
   9   4   1   20.29    1.77
  -9  -4  -1   21.00    1.71
  -9  -4  -1   20.40    1.63
   9   4   2    7.48    0.92
  -9  -4  -2    7.48    0.90
   9   5  -6   20.53    1.65
   9   5  -5   63.88    3.22
  -9  -5   4   28.88    2.11
  -9  -5   3   82.51    3.83
  -9  -5   2    7.16    1.06
  -9  -5   1   13.38    1.35
  -9  -5   0   80.19    3.33
  -9  -6   4    8.10    0.89
  -9  -6   3    7.74    0.88
  -9  -6   2   45.66    2.19
 -10   6   1   14.40    1.17
 -10   6   0    0.92    0.34
 -10   6  -1  110.46    4.03
 -10   6  -2    0.16    0.26
 -10   6  -3  146.69    4.63
 -10   5   3   20.56    1.50
 -10   5   2  106.18    4.14
 -10   5   2   99.18    3.89
 -10   5   1    1.73    0.51
 -10   5   0   13.62    1.33
 -10   5  -1  214.47    6.91
 -10   5  -2   38.86    2.31
 -10   5  -3  444.72   11.28
 -10   5  -3  400.35   10.89
 -10   5  -4    0.41    0.28
 -10   4   4    0.23    0.28
 -10   4   3    2.16    0.63
 -10   4   2  148.25    5.41
 -10   4   1    0.20    0.33
 -10   4   1    0.65    0.39
 -10   4   0  230.65    7.96
 -10   4   0  253.16    8.02
 -10   4  -1    0.76    0.45
 -10   4  -1    0.62    0.42
 -10   4  -2    1.38    0.57
 -10   4  -2    1.63    0.55
  10  -4   3   42.20    2.58
  10  -4   4   34.57    2.15
 -10   3   5   78.96    3.39
 -10   3   5  134.78    4.14
 -10   3   4   25.60    1.87
 -10   3   3  431.37   12.20
 -10   3   2   23.02    2.07
 -10   3   2   23.33    1.93
 -10   3   1    0.79    0.54
 -10   3   0  110.05    5.04
 -10   3   0  101.11    4.61
 -10   3  -1   30.24    2.45
 -10   3  -1   29.06    2.20
  10  -3   2    0.30    0.35
  10  -3   3  120.69    5.01
  10  -3   4  485.61   12.91
 -10   2   6    9.68    0.92
 -10   2   5   67.21    3.20
 -10   2   4  259.95    8.40
 -10   2   3   23.42    2.13
 -10   2   2   14.74    1.74
 -10   2   1   41.70    3.03
 -10   2   0   52.63    3.42
  10  -2   1   75.70    4.15
  10  -2   2  392.16   11.82
  10  -2   3   60.49    3.35
  10  -2   4   24.87    1.85
 -10   1   6    2.72    0.59
 -10   1   6    0.99    0.38
 -10   1   5    1.92    0.60
 -10   1   4   49.46    3.10
 -10   1   3  143.80    6.01
 -10   1   2    5.66    1.16
  10  -1  -2    9.08    1.48
 -10   1   1   62.34    3.77
 -10   1   0  139.95    6.00
  10  -1   0  151.31    6.33
 -10   1  -1    6.62    1.15
  10  -1   1    5.73    1.15
  10  -1   2   22.94    2.11
  10  -1   3   43.03    2.70
  10  -1   4    1.77    0.49
  10  -1   4    0.76    0.37
 -10   0   6   21.01    1.59
 -10   0   6    8.46    1.00
 -10   0   5    9.13    1.21
 -10   0   4    3.71    0.86
  10   0  -4    4.35    0.98
 -10   0   3   89.23    4.42
  10   0  -3   91.25    4.78
 -10   0   2    2.23    0.74
 -10   0   2    1.65    0.66
  10   0  -2    1.64    0.77
 -10   0   1  133.91    5.74
 -10   0   1  143.12    5.88
  10   0   0   11.37    1.60
 -10   0   0   11.10    1.44
  10   0   1   11.30    1.55
  10   0   2   63.16    3.50
  10   0   3   67.30    3.22
  10   0   3   66.19    3.36
  10   0   4  223.72    6.67
 -10  -1   6  199.91    6.26
 -10  -1   5    4.44    0.83
  10   1  -5    4.93    0.94
  10   1  -4  107.63    5.07
  10   1  -3    7.25    1.31
 -10  -1   2   46.05    3.04
  10   1  -2   42.92    3.19
 -10  -1   1   64.53    3.66
  10   1  -1   68.77    4.01
 -10  -1   0   49.25    3.07
  10   1   0   52.97    3.31
 -10  -1  -1   12.33    1.42
 -10  -1  -2   16.54    1.50
  10   1   3    1.23    0.43
  10   2  -6   45.31    2.47
  10   2  -5   88.03    4.14
  10   2  -4   53.11    3.31
 -10  -2   3    8.59    1.24
  10   2  -3    8.00    1.30
 -10  -2   2   14.52    1.63
  10   2  -2   12.53    1.60
 -10  -2   1    8.71    1.27
  10   2  -1    8.43    1.27
 -10  -2   0  127.42    5.16
 -10  -2  -1   78.85    3.60
 -10  -2  -2  109.50    4.05
  10   3  -6    0.44    0.29
  10   3  -5    6.89    1.01
  10   3  -4  268.49    8.51
  10   3  -3    3.83    0.84
 -10  -3   2   11.91    1.34
 -10  -3   1   72.48    3.44
 -10  -3   0    5.17    0.83
 -10  -3  -1    2.66    0.55
  10   4  -5   56.73    2.60
  10   4  -4    7.19    0.91
 -10  -4   3   10.00    1.03
 -10  -4   2  212.65    6.29
 -10  -4   2  204.15    6.18
 -10  -4   1    1.33    0.40
 -11   4   0   55.14    2.44
 -11   4  -1   49.61    2.27
 -11   3   2    2.20    0.52
 -11   3   1   22.79    1.64
 -11   3   0    4.04    0.71
  11  -3   0    4.15    0.74
 -11   3  -1  218.58    6.60
 -11   3  -2   34.67    1.91
 -11   2   3   24.44    1.67
 -11   2   2  118.54    4.44
 -11   2   1   25.12    1.84
  11  -2  -1   28.66    2.01
 -11   2   0    6.71    0.94
 -11   2  -1    3.09    0.61
 -11   2  -2   74.67    3.00
 -11   1   4   22.71    1.53
 -11   1   3   69.44    3.09
 -11   1   2  248.78    7.51
  11  -1  -2  249.46    7.76
 -11   1   1   31.31    2.04
  11  -1  -1   32.47    2.25
 -11   1   0    0.71    0.36
  11  -1   0    0.87    0.44
  11  -1   1    4.39    0.78
 -11   0   4   21.07    1.42
 -11   0   3    1.36    0.42
  11   0  -3    1.35    0.46
  11   0  -2  119.97    4.73
  11   0  -1   29.04    2.08
  11   0   0  348.79    9.80
  11   0   1    4.15    0.66
  11   1  -4    0.53    0.32
  11   1  -3  100.53    4.00
  11   1  -2    7.83    1.03
  11   1  -1   36.04    2.15
 -11  -1   0  205.14    5.98
   0   0   0    0.00    0.00


TITL 10681-12188_CAT8-147 in P-1
REM P-1 (#2 in standard setting)
CELL 1.54184   9.214007   9.260039   9.673147 109.1955  95.1693  96.0436
ZERR    2.00   0.000189   0.000133   0.000173   0.0015   0.0016   0.0014
LATT  1
SFAC C N O Cl
UNIT 36.00 4.00 4.00 2.00
TREF
HKLF 4
END
_computing_structure_solution     'SHELXT 2014/5 (Sheldrick, 2014)'
;
_shelx_hkl_checksum              13591
_olex2_submission_special_instructions 'No special instructions were received'
_oxdiff_exptl_absorpt_empirical_details
;
Empirical correction (ABSPACK) includes:
- Absorption correction using spherical harmonics
- Frame scaling
;
_oxdiff_exptl_absorpt_empirical_full_max 1.402
_oxdiff_exptl_absorpt_empirical_full_min 0.734
loop_
_space_group_symop_operation_xyz
'x, y, z'
'-x, -y, -z'
loop_
_atom_site_label
_atom_site_type_symbol
_atom_site_fract_x
_atom_site_fract_y
_atom_site_fract_z
_atom_site_U_iso_or_equiv
_atom_site_adp_type
_atom_site_occupancy
_atom_site_site_symmetry_order
_atom_site_calc_flag
_atom_site_refinement_flags_posn
Cl1 Cl 0.31146(4) 1.04357(4) 0.17917(4) 0.01980(13) Uani 1 1 d .
O1 O 0.66454(11) 0.35716(11) 0.32615(11) 0.0176(2) Uani 1 1 d .
O2 O 0.63411(12) 0.49252(11) 0.16752(11) 0.0195(2) Uani 1 1 d .
N1 N 0.72802(14) 0.38518(14) 0.47498(13) 0.0179(3) Uani 1 1 d .
N2 N 1.04955(14) 0.83554(17) 0.35560(15) 0.0242(3) Uani 1 1 d .
C8 C 0.41473(15) 0.86613(15) 0.32969(15) 0.0154(3) Uani 1 1 d .
H8 H 0.3160 0.8444 0.3463 0.018 Uiso 1 1 calc R
C5 C 0.79295(14) 0.77585(15) 0.43792(14) 0.0131(3) Uani 1 1 d .
H5 H 0.8023 0.8352 0.5461 0.016 Uiso 1 1 calc R
C3 C 0.78115(15) 0.53313(16) 0.52606(15) 0.0151(3) Uani 1 1 d .
C6 C 0.67232(15) 0.83659(15) 0.36265(14) 0.0129(3) Uani 1 1 d .
C12 C 0.93719(15) 0.80792(16) 0.39020(15) 0.0161(3) Uani 1 1 d .
C2 C 0.75756(15) 0.60729(15) 0.41994(15) 0.0138(3) Uani 1 1 d .
C11 C 0.70365(15) 0.92793(15) 0.27725(15) 0.0156(3) Uani 1 1 d .
H11 H 0.8019 0.9484 0.2588 0.019 Uiso 1 1 calc R
C13 C 0.85373(15) 0.60270(16) 0.68032(15) 0.0155(3) Uani 1 1 d .
C7 C 0.52718(15) 0.80522(15) 0.38717(15) 0.0143(3) Uani 1 1 d .
H7 H 0.5051 0.7413 0.4440 0.017 Uiso 1 1 calc R
C9 C 0.44973(15) 0.95956(15) 0.24745(15) 0.0154(3) Uani 1 1 d .
C10 C 0.59206(16) 0.98967(16) 0.21863(16) 0.0167(3) Uani 1 1 d .
H10 H 0.6133 1.0516 0.1597 0.020 Uiso 1 1 calc R
C1 C 0.68568(15) 0.49021(16) 0.29929(15) 0.0151(3) Uani 1 1 d .
C18 C 0.97845(15) 0.71404(17) 0.71606(16) 0.0179(3) Uani 1 1 d .
H18 H 1.0187 0.7435 0.6406 0.021 Uiso 1 1 calc R
C17 C 1.04393(16) 0.78190(18) 0.86183(17) 0.0224(3) Uani 1 1 d .
H17 H 1.1281 0.8586 0.8858 0.027 Uiso 1 1 calc R
C4 C 0.57293(18) 0.34471(17) 0.05646(16) 0.0232(3) Uani 1 1 d .
H4A H 0.5366 0.3607 -0.0350 0.035 Uiso 1 1 calc GR
H4B H 0.4915 0.2962 0.0920 0.035 Uiso 1 1 calc GR
H4C H 0.6495 0.2774 0.0374 0.035 Uiso 1 1 calc GR
C14 C 0.79684(18) 0.55843(18) 0.79193(17) 0.0228(3) Uani 1 1 d .
H14 H 0.7121 0.4826 0.7686 0.027 Uiso 1 1 calc R
C16 C 0.98708(18) 0.7383(2) 0.97279(17) 0.0264(4) Uani 1 1 d .
H16 H 1.0318 0.7852 1.0724 0.032 Uiso 1 1 calc R
C15 C 0.86437(19) 0.6255(2) 0.93700(18) 0.0285(4) Uani 1 1 d .
H15 H 0.8264 0.5941 1.0123 0.034 Uiso 1 1 calc R
loop_
_atom_site_aniso_label
_atom_site_aniso_U_11
_atom_site_aniso_U_22
_atom_site_aniso_U_33
_atom_site_aniso_U_23
_atom_site_aniso_U_13
_atom_site_aniso_U_12
Cl1 0.0190(2) 0.0210(2) 0.0202(2) 0.00758(14) -0.00025(13) 0.00721(13)
O1 0.0252(5) 0.0124(5) 0.0145(5) 0.0053(4) -0.0009(4) 0.0003(4)
O2 0.0300(6) 0.0126(5) 0.0128(5) 0.0028(4) -0.0036(4) 0.0000(4)
N1 0.0239(6) 0.0175(6) 0.0127(6) 0.0068(5) -0.0007(5) 0.0020(5)
N2 0.0167(6) 0.0334(7) 0.0267(7) 0.0161(6) 0.0026(5) 0.0034(5)
C8 0.0142(6) 0.0143(6) 0.0147(6) 0.0014(5) 0.0024(5) 0.0000(5)
C5 0.0148(6) 0.0123(6) 0.0120(6) 0.0046(5) 0.0014(5) 0.0003(5)
C3 0.0158(6) 0.0157(6) 0.0148(7) 0.0060(5) 0.0030(5) 0.0038(5)
C6 0.0152(6) 0.0102(6) 0.0115(6) 0.0019(5) 0.0007(5) 0.0010(5)
C12 0.0183(7) 0.0155(6) 0.0151(6) 0.0070(5) -0.0008(5) 0.0020(5)
C2 0.0156(6) 0.0133(6) 0.0128(6) 0.0050(5) 0.0017(5) 0.0021(5)
C11 0.0150(6) 0.0145(6) 0.0176(7) 0.0065(5) 0.0024(5) 0.0001(5)
C13 0.0182(7) 0.0160(6) 0.0138(7) 0.0065(5) 0.0015(5) 0.0048(5)
C7 0.0167(7) 0.0118(6) 0.0138(6) 0.0038(5) 0.0026(5) 0.0003(5)
C9 0.0171(7) 0.0120(6) 0.0138(6) 0.0009(5) -0.0014(5) 0.0031(5)
C10 0.0199(7) 0.0140(6) 0.0174(7) 0.0072(5) 0.0027(5) 0.0018(5)
C1 0.0186(7) 0.0132(6) 0.0141(6) 0.0055(5) 0.0018(5) 0.0023(5)
C18 0.0168(7) 0.0224(7) 0.0165(7) 0.0095(6) 0.0015(5) 0.0027(5)
C17 0.0195(7) 0.0277(8) 0.0195(7) 0.0100(6) -0.0019(6) -0.0011(6)
C4 0.0327(8) 0.0141(7) 0.0168(7) 0.0004(6) -0.0067(6) 0.0016(6)
C14 0.0273(8) 0.0223(7) 0.0195(7) 0.0102(6) 0.0015(6) -0.0027(6)
C16 0.0291(8) 0.0328(9) 0.0152(7) 0.0084(6) -0.0023(6) -0.0013(7)
C15 0.0350(9) 0.0349(9) 0.0171(7) 0.0136(7) 0.0031(6) -0.0032(7)
loop_
_atom_type_symbol
_atom_type_description
_atom_type_scat_dispersion_real
_atom_type_scat_dispersion_imag
_atom_type_scat_source
C C 0.0181 0.0091 'International Tables Vol C Tables 4.2.6.8 and 6.1.1.4'
H H 0.0000 0.0000 'International Tables Vol C Tables 4.2.6.8 and 6.1.1.4'
Cl Cl 0.3639 0.7018 'International Tables Vol C Tables 4.2.6.8 and 6.1.1.4'
N N 0.0311 0.0180 'International Tables Vol C Tables 4.2.6.8 and 6.1.1.4'
O O 0.0492 0.0322 'International Tables Vol C Tables 4.2.6.8 and 6.1.1.4'
loop_
_geom_angle_atom_site_label_1
_geom_angle_atom_site_label_2
_geom_angle_atom_site_label_3
_geom_angle
C1 O1 N1 108.05(10)
C1 O2 C4 116.64(11)
C3 N1 O1 104.61(10)
C7 C8 H8 120.7
C9 C8 H8 120.7
C9 C8 C7 118.50(12)
C6 C5 H5 106.7
C12 C5 H5 106.7
C12 C5 C6 111.29(11)
C12 C5 C2 111.04(11)
C2 C5 H5 106.7
C2 C5 C6 113.84(11)
N1 C3 C2 112.90(12)
N1 C3 C13 119.07(12)
C2 C3 C13 128.02(12)
C11 C6 C5 122.12(12)
C11 C6 C7 119.32(13)
C7 C6 C5 118.49(12)
N2 C12 C5 178.61(16)
C3 C2 C5 129.12(12)
C1 C2 C5 127.81(12)
C1 C2 C3 102.94(12)
C6 C11 H11 119.8
C6 C11 C10 120.45(13)
C10 C11 H11 119.8
C18 C13 C3 120.38(13)
C18 C13 C14 119.46(13)
C14 C13 C3 120.15(13)
C8 C7 C6 120.92(12)
C8 C7 H7 119.5
C6 C7 H7 119.5
C8 C9 Cl1 119.54(11)
C10 C9 Cl1 118.68(11)
C10 C9 C8 121.78(13)
C11 C10 H10 120.5
C9 C10 C11 119.00(13)
C9 C10 H10 120.5
O1 C1 C2 111.50(12)
O2 C1 O1 118.78(12)
O2 C1 C2 129.69(13)
C13 C18 H18 119.9
C17 C18 C13 120.11(13)
C17 C18 H18 119.9
C18 C17 H17 119.8
C16 C17 C18 120.41(14)
C16 C17 H17 119.8
O2 C4 H4A 109.5
O2 C4 H4B 109.5
O2 C4 H4C 109.5
H4A C4 H4B 109.5
H4A C4 H4C 109.5
H4B C4 H4C 109.5
C13 C14 H14 120.0
C15 C14 C13 119.94(14)
C15 C14 H14 120.0
C17 C16 H16 120.2
C17 C16 C15 119.53(15)
C15 C16 H16 120.2
C14 C15 C16 120.53(14)
C14 C15 H15 119.7
C16 C15 H15 119.7
loop_
_geom_bond_atom_site_label_1
_geom_bond_atom_site_label_2
_geom_bond_distance
Cl1 C9 1.7491(14)
O1 N1 1.4327(15)
O1 C1 1.3388(16)
O2 C1 1.3273(17)
O2 C4 1.4515(16)
N1 C3 1.3156(18)
N2 C12 1.146(2)
C8 H8 0.9500
C8 C7 1.3880(19)
C8 C9 1.388(2)
C5 H5 1.0000
C5 C6 1.5287(18)
C5 C12 1.4782(18)
C5 C2 1.5090(18)
C3 C2 1.4238(19)
C3 C13 1.4786(19)
C6 C11 1.3901(19)
C6 C7 1.3963(18)
C2 C1 1.3615(19)
C11 H11 0.9500
C11 C10 1.392(2)
C13 C18 1.396(2)
C13 C14 1.399(2)
C7 H7 0.9500
C9 C10 1.384(2)
C10 H10 0.9500
C18 H18 0.9500
C18 C17 1.390(2)
C17 H17 0.9500
C17 C16 1.390(2)
C4 H4A 0.9800
C4 H4B 0.9800
C4 H4C 0.9800
C14 H14 0.9500
C14 C15 1.389(2)
C16 H16 0.9500
C16 C15 1.390(2)
C15 H15 0.9500
