#------------------------------------------------------------------------------
#$Date: 2019-11-04 13:42:06 +0200 (Mon, 04 Nov 2019) $
#$Revision: 222912 $
#$URL: file:///home/coder/svn-repositories/cod/cif/4/03/43/4034374.cif $
#------------------------------------------------------------------------------
#
# This file is available in the Crystallography Open Database (COD),
# http://www.crystallography.net/
#
# All data on this site have been placed in the public domain by the
# contributors.
#
data_4034374
loop_
_publ_author_name
'Potopnyk, Mykhaylo A.'
'Volyniuk, Dmytro'
'Luboradzki, Roman'
'Ceborska, Magdalena'
'Hladka, Iryna'
'Danyliv, Yan'
'Gra\<zulevi\<cius, Juozas Vidas'
_publ_section_title
;
 Application of the Suzuki-Miyaura Reaction for the Postfunctionalization
 of the Benzo[4,5]thiazolo[3,2- c][1,3,5,2]oxadiazaborinine Core: An
 Approach toward Fluorescent Dyes.
;
_journal_issue                   9
_journal_name_full               'The Journal of organic chemistry'
_journal_page_first              5614
_journal_page_last               5626
_journal_paper_doi               10.1021/acs.joc.9b00566
_journal_volume                  84
_journal_year                    2019
_chemical_formula_sum            'C16 H13 B Br F2 N3 O S'
_chemical_formula_weight         424.07
_space_group_crystal_system      triclinic
_space_group_IT_number           2
_space_group_name_Hall           '-P 1'
_space_group_name_H-M_alt        'P -1'
_atom_sites_solution_hydrogens   geom
_audit_creation_method           SHELXL-2018/1
_audit_update_record
;
2018-04-04 deposited with the CCDC.
2018-06-06 downloaded from the CCDC.
;
_cell_angle_alpha                81.503(3)
_cell_angle_beta                 75.608(3)
_cell_angle_gamma                76.458(3)
_cell_formula_units_Z            2
_cell_length_a                   7.4750(2)
_cell_length_b                   8.3821(3)
_cell_length_c                   13.9171(5)
_cell_measurement_reflns_used    3260
_cell_measurement_temperature    100(2)
_cell_measurement_theta_max      69.7682
_cell_measurement_theta_min      3.2907
_cell_volume                     817.42(5)
_computing_structure_refinement  'SHELXL-2018/1 (Sheldrick, 2018)'
_diffrn_ambient_temperature      100(2)
_diffrn_measured_fraction_theta_full 0.990
_diffrn_measured_fraction_theta_max 0.972
_diffrn_measurement_device_type  'SuperNova, Dual, Cu at zero, Eos'
_diffrn_radiation_type           CuK\a
_diffrn_radiation_wavelength     1.5418
_diffrn_reflns_av_R_equivalents  0.0215
_diffrn_reflns_av_unetI/netI     0.0296
_diffrn_reflns_Laue_measured_fraction_full 0.990
_diffrn_reflns_Laue_measured_fraction_max 0.972
_diffrn_reflns_limit_h_max       9
_diffrn_reflns_limit_h_min       -7
_diffrn_reflns_limit_k_max       9
_diffrn_reflns_limit_k_min       -10
_diffrn_reflns_limit_l_max       16
_diffrn_reflns_limit_l_min       -16
_diffrn_reflns_number            5375
_diffrn_reflns_point_group_measured_fraction_full 0.990
_diffrn_reflns_point_group_measured_fraction_max 0.972
_diffrn_reflns_theta_full        67.680
_diffrn_reflns_theta_max         69.894
_diffrn_reflns_theta_min         3.293
_diffrn_source                   'SuperNova (Cu) X-ray Source'
_exptl_absorpt_coefficient_mu    4.912
_exptl_absorpt_correction_T_max  0.9525
_exptl_absorpt_correction_T_min  0.4112
_exptl_absorpt_correction_type   multi-scan
_exptl_absorpt_process_details
;
CrysAlisPro, Agilent Technologies,
Version 1.171.35.21b (release 03-02-2012 CrysAlis171 .NET)
(compiled Feb  3 2012,10:37:01)
Empirical absorption correction using spherical harmonics,
 implemented in SCALE3 ABSPACK scaling algorithm.
;
_exptl_crystal_colour            yellow
_exptl_crystal_density_diffrn    1.723
_exptl_crystal_description       needle
_exptl_crystal_F_000             424
_exptl_crystal_size_max          0.220
_exptl_crystal_size_mid          0.080
_exptl_crystal_size_min          0.010
_refine_diff_density_max         0.458
_refine_diff_density_min         -0.478
_refine_diff_density_rms         0.066
_refine_ls_extinction_method     none
_refine_ls_goodness_of_fit_ref   1.045
_refine_ls_hydrogen_treatment    constr
_refine_ls_matrix_type           full
_refine_ls_number_parameters     228
_refine_ls_number_reflns         3001
_refine_ls_number_restraints     0
_refine_ls_restrained_S_all      1.045
_refine_ls_R_factor_all          0.0297
_refine_ls_R_factor_gt           0.0243
_refine_ls_shift/su_max          0.000
_refine_ls_shift/su_mean         0.000
_refine_ls_structure_factor_coef Fsqd
_refine_ls_weighting_details
'w=1/[\s^2^(Fo^2^)+(0.0364P)^2^+0.2466P] where P=(Fo^2^+2Fc^2^)/3'
_refine_ls_weighting_scheme      calc
_refine_ls_wR_factor_gt          0.0614
_refine_ls_wR_factor_ref         0.0629
_reflns_Friedel_coverage         0.000
_reflns_number_gt                2738
_reflns_number_total             3001
_reflns_threshold_expression     'I > 2\s(I)'
_cod_data_source_file            jo9b00566_si_002.cif
_cod_data_source_block           shelxl
_cod_database_code               4034374
_shelx_shelxl_version_number     2018/1
_shelx_space_group_comment
;
The symmetry employed for this shelxl refinement is uniquely defined
by the following loop, which should always be used as a source of
symmetry information in preference to the above space-group names.
They are only intended as comments.
;
_shelx_estimated_absorpt_t_min   0.411
_shelx_estimated_absorpt_t_max   0.953
_shelx_res_file
;
TITL MPC_295_09_02_17
    shelxl.res
    created by SHELXL-2018/1 at 11:53:20 on 07-Mar-2018
CELL  1.54180   7.4750   8.3821  13.9171   81.503   75.608   76.458
ZERR     2.00   0.0002   0.0003   0.0005    0.003    0.003    0.003
LATT   1
SFAC  C    H    B    N    O    F    S    BR
UNIT  32   26   2    6    2    4    2    2
MERG   2
OMIT     3  -3   6
OMIT    -7   1   2
OMIT     8   1   0
OMIT     8   0   0
OMIT    -8  -1   3
OMIT    -1   1   5
OMIT    -8  -2   2
OMIT    -8  -2   3
OMIT     8   1   1
OMIT    -8  -1   2
OMIT     3  -2   5
OMIT    -8  -1   1
OMIT     1   1   0
OMIT     4  -2   4
SIZE     0.01   0.08   0.22
ACTA
LIST   4
L.S.   25
TEMP  -173.00
WGHT    0.036400    0.246600
FVAR       3.88872
C1    1   -0.408151    1.036265    1.215194    11.00000    0.02555    0.02970 =
         0.01996   -0.01141    0.00097   -0.00412
AFIX 137
H1A   2   -0.311966    0.969453    1.249426    11.00000   -1.50000
H1B   2   -0.512806    1.093912    1.263855    11.00000   -1.50000
H1C   2   -0.352584    1.117104    1.165508    11.00000   -1.50000
AFIX   0
C2    1   -0.681663    0.942680    1.185755    11.00000    0.01760    0.02585 =
         0.02094   -0.00543    0.00303   -0.00141
AFIX 137
H2A   2   -0.729268    1.000479    1.127711    11.00000   -1.50000
H2B   2   -0.742745    1.004270    1.243956    11.00000   -1.50000
H2C   2   -0.709800    0.832004    1.198993    11.00000   -1.50000
AFIX   0
C3    1   -0.361392    0.845091    1.090452    11.00000    0.01684    0.01536 =
         0.01318    0.00069   -0.00097   -0.00136
C4    1   -0.164460    0.840785    1.066192    11.00000    0.01782    0.01797 =
         0.01515   -0.00271   -0.00388   -0.00331
AFIX  43
H4    2   -0.113150    0.898026    1.103332    11.00000   -1.20000
AFIX   0
C5    1   -0.046933    0.754862    0.989643    11.00000    0.01456    0.01722 =
         0.01628   -0.00041   -0.00307   -0.00213
AFIX  43
H5    2    0.084517    0.753247    0.975237    11.00000   -1.20000
AFIX   0
C6    1   -0.116411    0.669651    0.932393    11.00000    0.01533    0.01288 =
         0.01347    0.00003   -0.00217    0.00010
C7    1   -0.310412    0.671335    0.956755    11.00000    0.01845    0.01546 =
         0.01604   -0.00038   -0.00420   -0.00406
AFIX  43
H7    2   -0.359988    0.612351    0.919772    11.00000   -1.20000
AFIX   0
C8    1   -0.430471    0.756404    1.032940    11.00000    0.01305    0.01766 =
         0.01707    0.00003   -0.00161   -0.00242
AFIX  43
H8    2   -0.561433    0.755937    1.047368    11.00000   -1.20000
AFIX   0
C9    1    0.007923    0.585111    0.849338    11.00000    0.01784    0.01289 =
         0.01338    0.00121   -0.00523   -0.00357
C10   1    0.296056    0.503847    0.750980    11.00000    0.01603    0.01266 =
         0.01352    0.00012   -0.00436   -0.00405
C11   1    0.556141    0.374270    0.620399    11.00000    0.01800    0.01237 =
         0.01259   -0.00194   -0.00453   -0.00145
C12   1    0.378211    0.353046    0.617153    11.00000    0.01414    0.01348 =
         0.01287   -0.00088   -0.00112   -0.00262
C13   1    0.355382    0.265021    0.544753    11.00000    0.01858    0.01798 =
         0.01716   -0.00298   -0.00327   -0.00605
AFIX  43
H13   2    0.233821    0.252009    0.542192    11.00000   -1.20000
AFIX   0
C14   1    0.513852    0.197692    0.477253    11.00000    0.02578    0.01495 =
         0.01354   -0.00323   -0.00471   -0.00396
AFIX  43
H14   2    0.502307    0.137417    0.427189    11.00000   -1.20000
AFIX   0
C15   1    0.692155    0.217799    0.482170    11.00000    0.01762    0.01317 =
         0.01311   -0.00078    0.00089   -0.00084
C16   1    0.717865    0.306856    0.552304    11.00000    0.01445    0.01680 =
         0.01488   -0.00152   -0.00189   -0.00122
AFIX  43
H16   2    0.839388    0.321250    0.553919    11.00000   -1.20000
AFIX   0
B1    3    0.021399    0.428924    0.708773    11.00000    0.01638    0.02215 =
         0.01733   -0.00648   -0.00117   -0.00638
N1    4   -0.478163    0.929721    1.165833    11.00000    0.01663    0.02227 =
         0.01723   -0.00597    0.00088   -0.00210
N2    4    0.190998    0.584908    0.828209    11.00000    0.01460    0.01521 =
         0.01281   -0.00205   -0.00127   -0.00191
N3    4    0.234221    0.427757    0.691438    11.00000    0.01407    0.01521 =
         0.01364   -0.00342   -0.00178   -0.00355
O1    5   -0.073689    0.513865    0.799059    11.00000    0.01426    0.02537 =
         0.01710   -0.00890   -0.00097   -0.00494
F1    6   -0.049341    0.512377    0.628240    11.00000    0.01525    0.03125 =
         0.01818   -0.00535   -0.00571   -0.00386
F2    6   -0.007366    0.269310    0.723519    11.00000    0.02052    0.02262 =
         0.02683   -0.00779   -0.00013   -0.01012
S1    7    0.538303    0.491209    0.717817    11.00000    0.01268    0.01786 =
         0.01321   -0.00559   -0.00182   -0.00270
BR1   8    0.903939    0.117968    0.387768    11.00000    0.02124    0.02094 =
         0.01572   -0.00702    0.00041    0.00115
HKLF    4




REM  MPC_295_09_02_17
REM R1 =  0.0243 for    2738 Fo > 4sig(Fo)  and  0.0297 for all    3001 data
REM    228 parameters refined using      0 restraints

END

WGHT      0.0364      0.2466

REM Highest difference peak  0.458,  deepest hole -0.478,  1-sigma level  0.066
Q1    1   0.9901  0.1771  0.3781  11.00000  0.05    0.46
Q2    1   0.6179  0.2076  0.4831  11.00000  0.05    0.37
Q3    1   1.0378  0.1048  0.3988  11.00000  0.05    0.36
Q4    1   0.4603  0.4075  0.6035  11.00000  0.05    0.29
Q5    1   0.4107  0.5137  0.7351  11.00000  0.05    0.29
Q6    1   0.5627  0.4080  0.6642  11.00000  0.05    0.26
Q7    1   0.3688  0.3167  0.5796  11.00000  0.05    0.25
Q8    1  -0.1906  0.6424  0.9571  11.00000  0.05    0.25
Q9    1   0.8739  0.0171  0.3610  11.00000  0.05    0.25
Q10   1  -0.2557  0.8267  1.0825  11.00000  0.05    0.24
Q11   1   0.1172  0.6216  0.8264  11.00000  0.05    0.24
Q12   1   0.6281  0.3605  0.5833  11.00000  0.05    0.23
Q13   1  -0.2251  0.6947  0.9354  11.00000  0.05    0.23
Q14   1   0.2564  0.4275  0.7295  11.00000  0.05    0.23
Q15   1   0.4990  0.3234  0.6275  11.00000  0.05    0.22
Q16   1  -0.3966  0.8223  1.0564  11.00000  0.05    0.22
Q17   1  -0.5631  0.9247  1.1771  11.00000  0.05    0.22
Q18   1   0.3110  0.3843  0.6522  11.00000  0.05    0.21
Q19   1   0.9610  0.2722  0.3148  11.00000  0.05    0.21
Q20   1   0.8416 -0.0435  0.4543  11.00000  0.05    0.21
;
_shelx_res_checksum              36531
_shelx_hkl_file
;
   0   0  -1 25628.4 433.091   1
   0   0  -2 5015.92 133.225   1
   0   0  -3 14169.6 315.661   1
   0   0   3 14678.4 296.668   8
   0   0   4 4774.64 155.122   8
   0   0  -4 4631.62 173.213   1
   0   0  -5 35401.6 619.387   9
   0   0   5 34238.7 670.809   8
   0   0  -5 34072.9 703.457   1
   0   0  -6 5598.26 156.538   9
   0   0   6 5720.91 207.527   8
   0   0  -6 5553.58 232.181   1
   0   0   7 133.102 73.1672   8
   0   0  -7 115.815 89.4307   1
   0   0  -8 7146.61 306.365   1
   0   0   8 7113.79 268.977   8
   0   0  -9 112089. 2086.12   1
   0   0   9 109580. 2005.43   8
   0   0  10 13716.1 437.345   8
   0   0 -11 12267.7 419.783  23
   0   0  11 11664.5 410.276   8
   0   0 -11 11679.7 397.346   5
   0   0 -11 11952.1 427.135  24
   0   0 -12 22907.3 613.559   5
   0   0 -12 24166.7 655.261  23
   0   0 -13 19404.7 553.751  19
   0   0 -13 18829.6 562.924  23
   0   0 -14 3411.89 213.939  19
   0   0 -14 3195.75 209.787  23
   0   0 -15 548.193 109.377  19
   0   0 -16 21.4787 54.6435  19
   0   1 -16 810.862 76.5122  19
   0   1 -15 615.615 97.4090  19
   0   1 -14 12661.1 402.297  19
   0   1 -13 15656.1 481.705  19
   0   1 -12 5053.10 266.338  19
   0   1 -12 4606.78 267.132  23
   0   1 -11 213.804 104.155   5
   0   1 -11 102.820 92.8757  23
   0   1 -11 195.842 92.4466  19
   0  -1  10 647.258 118.778   8
   0   1 -10 509.753 108.137   5
   0  -1   9 1848.49 159.005   8
   0   1  -9 1904.36 187.874   1
   0   1  -8 11067.9 400.146   1
   0  -1   8 10541.1 348.762   8
   0   1  -7 29862.7 706.471   1
   0  -1   7 28875.7 646.014   8
   0   1  -6 14323.8 408.442   1
   0  -1   6 14100.9 366.876   8
   0   1  -5 5664.66 222.598   1
   0  -1   5 5462.88 191.077   8
   0  -1   4 58553.6 1027.36   8
   0   1  -4 58254.3 1066.91   1
   0  -1   3 101.370 55.7471   8
   0   1  -3 76.4901 77.3428   1
   0   1  -2 28977.2 539.057   1
   0   1  -1 2808.38 94.9356   2
   0   1   0 20715.2 370.569   2
   0   1   1 1161.93 57.5575   2
   0  -1  -2 64579.6 1089.83   1
   0  -1  -3 54257.9 956.879   1
   0   1   4 4549.28 151.625   8
   0  -1  -4 4192.33 169.678   1
   0   1   5 79644.4 1372.49   8
   0  -1  -5 77845.6 1408.03   1
   0  -1  -6 50527.8 890.264   9
   0   1   6 48553.9 932.260   8
   0  -1  -6 48636.4 973.443   1
   0   1   7 1061.08 107.830   8
   0  -1  -7 1295.18 88.1576   9
   0  -1  -7 1232.50 130.968   1
   0   1   8 1651.87 136.387   8
   0  -1  -8 1981.04 167.901   1
   0  -1  -9 2451.70 199.264   1
   0   1   9 2117.97 160.842   8
   0   1  10 8144.45 324.595   8
   0   1  11 20805.0 582.980   8
   0  -1 -11 20548.5 575.083  23
   0  -1 -11 20930.9 593.164  24
   0  -1 -12 24168.5 650.604  23
   0  -1 -12 23492.4 663.281  24
   0  -1 -13 134.849 99.7139  23
   0  -1 -13 190.832 112.611  24
   0  -1 -14 7680.62 313.004  19
   0  -1 -14 7092.92 304.885  23
   0  -1 -15 3018.84 180.010  23
   0  -1 -15 3215.63 188.205  19
   0  -1 -16 37.0540 63.2712  19
   0   2 -15 9105.64 272.870  19
   0   2 -14 5710.61 244.060  19
   0   2 -13 73.7923 83.7363  19
   0   2 -12 14699.9 466.511  19
   0   2 -11 55709.3 1153.12  19
   0   2 -11 53003.9 1166.22   5
   0   2 -10 219.474 97.1515  23
   0   2 -10 151.523 97.0911   5
   0   2 -10 140.611 82.8566  19
   0  -2  10 97.0284 79.7032   8
   0   2  -9 1293.43 161.981   1
   0   2  -9 1083.08 140.167   5
   0  -2   9 991.586 131.291   8
   0   2  -8 6374.08 273.375   5
   0  -2   8 6357.77 273.659   8
   0   2  -8 5891.55 297.663   1
   0   2  -7 36710.5 788.516   5
   0   2  -7 36416.3 843.215   1
   0  -2   7 35045.7 778.843   8
   0   2  -6 7019.30 257.408   5
   0   2  -6 6919.58 285.970   1
   0  -2   6 6763.20 251.009   8
   0   2  -5 1514.73 139.486   1
   0  -2   5 1509.05 115.151   8
   0   2  -4 33058.3 686.687   1
   0  -2   4 32046.3 645.841   8
   0  -2   3 6459.71 196.496   8
   0   2  -3 6588.96 222.788   1
   0   2  -3 6309.37 191.872   5
   0   2  -2 899934. 14906.0   2
   0   2  -2 935473. 14861.2   5
   0   2  -1 11792.8 287.773   2
   0   2  -1 12177.5 248.712   5
   0   2   0 10121.7 246.953   2
   0   2   1 19470.4 414.829   2
   0   2   1 22387.0 442.412   4
   0   2   2 8760.77 234.495   2
   0   2   3 18535.4 411.387   2
   0   2   3 19021.4 405.410   3
   0  -2  -4 1319.31 116.648   1
   0   2   4 1410.67 102.373   3
   0   2   5 15204.9 369.447   8
   0  -2  -5 15162.8 401.417   1
   0   2   6 3829.78 174.236   8
   0  -2  -6 3652.06 194.733   1
   0   2   7 52604.4 1032.35   8
   0  -2  -7 53346.9 1090.20   1
   0  -2  -8 6210.48 222.580   9
   0  -2  -8 5899.29 281.760   1
   0   2   8 5881.31 250.198   8
   0   2   9 12538.5 408.450   8
   0  -2  -9 13234.5 460.155   1
   0   2  10 20260.6 569.567   8
   0  -2 -11 34988.2 797.454  26
   0   2  11 36860.7 863.764   8
   0  -2 -11 36651.1 847.983  23
   0  -2 -11 37014.7 869.567  24
   0  -2 -12 5012.48 265.448  23
   0  -2 -12 4710.92 269.950  24
   0  -2 -13 17.5575 88.0167  23
   0  -2 -13 17.5495 94.5900  24
   0  -2 -14 195.073 98.6420  23
   0  -2 -14 192.422 103.621  24
   0  -2 -15 4620.18 216.699  19
   0  -2 -15 4343.71 208.135  23
   0  -2 -16 9551.64 275.260  19
   0   3 -15 5603.27 188.926  22
   0   3 -14 739.817 93.3370  19
   0   3 -13 1249.06 131.549  19
   0   3 -12-11.6315 76.8485  19
   0  -3  11 75.2508 81.0066  27
   0   3 -11 39.8217 83.5271  19
   0   3 -10 19717.2 586.381   5
   0   3 -10 19696.8 549.571  19
   0  -3  10 19615.9 552.089  27
   0   3  -9 22064.7 573.764  19
   0  -3   9 21761.7 585.246  27
   0   3  -9 22675.9 628.152   5
   0   3  -8 486.513 101.305   1
   0   3  -8 448.005 113.190   5
   0   3  -7 9848.85 391.704   1
   0   3  -7 10197.2 357.043   5
   0   3  -6 26211.3 551.170  10
   0   3  -6 25234.4 664.350   1
   0   3  -6 26238.0 619.438   5
   0   3  -5 76.5815 87.9662   1
   0   3  -5 95.4846 68.8823   5
   0   3  -4 4271.60 208.730   1
   0   3  -4 4189.37 181.020   5
   0   3  -3 1607.84 136.369   2
   0   3  -3 1752.79 109.379   5
   0   3  -2 860.646 74.4852   5
   0   3  -2 803.004 102.449   2
   0   3  -1 54421.9 1019.81   2
   0   3   0 58332.2 974.604   7
   0   3   0 56572.7 1060.60   2
   0   3   1 30.6494 67.6218   2
   0   3   1 19.0153 27.4026   7
   0   3   2 36129.2 721.905   2
   0   3   3 46260.1 897.512   2
   0   3   3 46419.4 887.724   3
   0   3   4 24212.5 555.535   2
   0   3   4 23991.4 545.294   3
   0   3   5 7.34112 67.2700   3
   0   3   5 10.6968 78.0742   2
   0   3   6 5638.92 255.947   2
   0   3   6 5998.76 235.263   8
   0   3   7 24147.4 586.435   8
   0   3   7 23987.6 626.881   2
   0   3   8 34818.3 838.679   2
   0   3   8 34713.2 789.670   8
   0   3   9 8220.85 329.229   8
   0   3   9 7813.45 358.204   2
   0  -3  -9 8814.87 307.861   9
   0   3  10 3897.72 235.690   8
   0  -3 -10 3884.04 229.104  24
   0   3  11 9914.60 381.694   8
   0  -3 -11 9734.28 380.746  24
   0  -3 -12 8224.20 352.740  24
   0  -3 -12 8727.46 347.140  23
   0  -3 -13 684.692 118.450  23
   0  -3 -13 601.233 129.751  24
   0  -3 -14 493.357 115.097  24
   0  -3 -14 623.994 106.339  23
   0  -3 -15 1834.42 131.000  23
   0  -3 -15 1737.05 128.594  19
   0  -3 -16 4982.94 175.443  19
   0   4 -14 7826.32 243.951  22
   0   4 -13 23848.4 539.262  19
   0   4 -12 1292.86 129.654  19
   0   4 -11 6665.70 280.228  19
   0  -4  11 6208.95 273.819  27
   0  -4  10 489.744 110.106  27
   0   4 -10 593.499 106.860  19
   0  -4   9 2072.59 174.277  27
   0   4  -9 1999.96 184.458   5
   0   4  -9 2043.21 162.527  19
   0   4  -8 1821.85 147.405  19
   0   4  -8 1897.31 174.277   5
   0  -4   8 1826.13 163.391  27
   0   4  -7 963.886 130.074   5
   0   4  -6 10567.3 361.759   5
   0   4  -6 10689.5 322.324  10
   0   4  -6 10945.6 414.472   1
   0   4  -5 8637.92 304.625   5
   0   4  -5 8916.06 355.020   1
   0   4  -4 262067. 4318.06   5
   0   4  -4 261332. 4419.57   1
   0   4  -3 944.046 90.6297   5
   0   4  -3 795.030 125.120   2
   0   4  -2 17509.2 492.445   2
   0   4  -2 18651.7 408.426   7
   0   4  -1 2766.88 115.168   7
   0   4  -1 2524.56 169.925   2
   0   4   0 16.8410 78.4647   2
   0   4   1 8908.53 303.121   2
   0   4   2 8520.09 294.247   2
   0   4   3 2670.14 168.820   2
   0   4   4 25234.9 611.520   3
   0   4   4 26429.9 633.940   2
   0   4   5 56220.2 1141.18   2
   0   4   5 54184.5 1118.50   3
   0   4   6 400.503 107.047   2
   0   4   6 334.838 96.1120   3
   0   4   7 28196.2 727.162   2
   0   4   7 26875.1 669.901   8
   0   4   8 7085.86 335.820   2
   0   4   8 7029.45 304.518   8
   0  -4  -9 35767.7 859.466  12
   0   4   9 36566.0 875.042   8
   0  -4  -9 36650.4 866.829  24
   0  -4 -10 11677.6 427.497  24
   0   4  10 12048.2 431.952   8
   0  -4 -11 2243.31 193.162  24
   0  -4 -12 1278.16 150.556  24
   0  -4 -13 13047.8 415.935  23
   0  -4 -13 12825.9 433.792  24
   0  -4 -14 15612.9 453.600  24
   0  -4 -14 15315.3 429.794  23
   0  -4 -14 15741.0 387.128  14
   0  -4 -15 224.723 64.2808  23
   0  -4 -15 181.324 68.1036  24
   0   5 -13 106.477 55.8660  22
   0   5 -12 7731.49 276.890  22
   0   5 -11 7769.93 301.908  22
   0  -5  11 7153.36 279.408  27
   0   5 -11 7470.76 271.520  19
   0   5 -10 71.2951 85.8026  22
   0  -5  10 13.5880 74.6060  27
   0   5 -10 36.6431 59.3176  19
   0  -5   9 12121.5 423.056  27
   0   5  -9 12275.4 395.867  19
   0  -5   8 23042.7 632.266  27
   0   5  -8 22321.3 583.243  19
   0   5  -7 362.327 97.4611  19
   0  -5   7 286.147 96.9585  27
   0   5  -6 16439.3 453.767  10
   0   5  -6 16304.1 456.321  19
   0  -5   6 17813.7 517.360  27
   0   5  -5 13765.1 401.370   7
   0   5  -5 14068.8 412.533  10
   0   5  -4 1060.69 152.978   1
   0   5  -4 1131.87 131.674  10
   0   5  -3 14284.9 478.272   2
   0   5  -2 19846.1 577.846   2
   0   5  -1 701.052 124.075   2
   0   5   0 46526.5 1016.45   2
   0   5   1 37584.7 860.678   2
   0   5   2 445.762 112.257   2
   0   5   3 14650.5 383.459  10
   0   5   3 14154.5 448.437   3
   0   5   3 14478.8 460.060   2
   0   5   4 11498.4 399.931   3
   0   5   4 11456.1 404.846   2
   0   5   5 7998.43 345.743   2
   0   5   5 8248.98 340.191   3
   0   5   6 14048.9 477.402   3
   0   5   6 14748.0 498.212   2
   0  -5  -7 347.981 86.2484  20
   0   5   7 514.907 114.219   8
   0  -5  -7 436.161 95.6464  12
   0  -5  -8 1710.51 161.422  12
   0   5   8 1782.68 171.686   8
   0   5   9 17212.6 541.023   8
   0  -5  -9 17179.1 537.761  12
   0  -5  -9 18888.7 548.018   9
   0  -5 -10 11078.3 416.700  24
   0  -5 -11 292.498 107.841  24
   0  -5 -12 7069.75 311.791  24
   0  -5 -13 972.154 116.323  23
   0  -5 -13 955.265 126.203  24
   0  -5 -14 933.909 84.1194  14
   0  -5 -14 864.987 92.8860  23
   0  -5 -14 768.238 98.4448  24
   0  -6  11 1052.26 91.6070  27
   0   6 -11 1239.85 110.892  22
   0   6 -10 1115.71 119.935  22
   0  -6  10 951.712 117.565  27
   0   6  -9 107.958 83.8790  22
   0  -6   9 103.346 91.1808  27
   0   6  -8 5821.30 263.195  22
   0  -6   8 5598.90 282.753  27
   0   6  -7 2999.64 193.687  22
   0  -6   7 3183.77 225.218  27
   0  -6   6 73299.5 1482.80  27
   0   6  -6 72916.3 1420.85  22
   0   6  -5 3304.12 193.569  22
   0  -6   5 3324.59 222.014  27
   0   6  -5 3242.58 203.472  10
   0  -6   4 7427.53 322.542  27
   0   6  -4 8187.55 321.396  10
   0  -6   3 8594.47 340.633  27
   0   6  -3 8461.41 337.235  10
   0  -6   2 8379.86 331.575  27
   0   6  -2 8940.51 347.094  10
   0   6  -1 3326.34 213.558  10
   0   6   0 215.418 110.604  10
   0   6   0 53.9363 94.3164   2
   0   6   1 5147.40 293.682   2
   0   6   1 5177.25 254.083  10
   0   6   2 18235.1 500.980  10
   0   6   2 18932.0 583.719   2
   0   6   3 29131.7 767.724   3
   0   6   4 1287.66 158.279   3
   0  -6  -4 1281.32 131.240  12
   0  -6  -5 35038.3 815.262  12
   0  -6  -5 35471.6 776.426  20
   0   6   5 35057.6 883.716   3
   0  -6  -5 32742.3 772.887  27
   0  -6  -6 13623.4 412.756  20
   0   6   6 13982.2 496.994   3
   0  -6  -6 12860.6 409.802  27
   0  -6  -6 13418.1 447.030  12
   0  -6  -7 46446.4 1040.89  12
   0   6   7 46789.1 1058.24   8
   0  -6  -8 5930.17 297.709  12
   0  -6  -9 66.6761 94.8705  12
   0  -6 -10 6326.76 301.897  24
   0  -6 -11 11638.2 405.439  24
   0  -6 -12 11021.5 366.908  24
   0  -6 -13 75.7732 58.0078  23
   0  -6 -13 95.1213 69.4367  24
   0  -7  10 2374.83 120.885  27
   0   7  -9 1151.26 97.8759  22
   0  -7   9 1167.85 115.309  27
   0  -7   8 5760.96 254.714  27
   0   7  -8 5987.30 232.185  22
   0  -7   7 7450.63 313.914  27
   0   7  -7 7294.01 271.546  22
   0  -7   6 2060.02 183.966  27
   0  -7   5 4021.04 247.278  27
   0  -7   4 902.071 145.465  27
   0  -7   3 2504.01 201.284  27
   0  -7   2 10544.5 398.548  27
   0  -7   1 3697.47 230.512  27
   0  -7   1 3409.42 207.257  12
   0   7  -1 3759.88 234.701  10
   0   7   0 288.889 110.843  10
   0  -7   0 397.024 98.4511  12
   0  -7   0 324.552 107.596  27
   0  -7  -1 2500.35 186.802  27
   0   7   1 2298.83 177.654  10
   0  -7  -1 2426.49 181.038  12
   0   7   2 3086.63 240.048   3
   0   7   2 2877.05 184.261  10
   0  -7  -2 2761.06 192.559  12
   0  -7  -2 3089.55 207.136  27
   0  -7  -3 8751.20 349.216  12
   0  -7  -3 8295.68 336.320  27
   0   7   3 8508.49 391.090   3
   0   7   4 13519.3 503.779   3
   0  -7  -4 13610.8 403.904  20
   0  -7  -4 13888.3 462.254  12
   0  -7  -4 13432.4 439.933  27
   0  -7  -5 3164.69 216.241  12
   0  -7  -5 3223.88 207.042  27
   0  -7  -6 133.446 78.9212  27
   0  -7  -6 110.546 97.2051  12
   0  -7  -7 5961.89 296.627  12
   0  -7  -8 3963.94 240.806  12
   0  -7  -9 2.75802 95.6908  12
   0  -7 -10 3053.89 199.321  24
   0  -7 -11 468.686 93.9272  24
   0  -7 -12 913.872 95.2918  24
   0  -8   8 15384.1 371.936  27
   0  -8   7 165.055 77.7783  27
   0  -8   6 6373.25 262.734  27
   0  -8   5 1153.88 139.699  27
   0  -8   4 4271.56 238.119  27
   0  -8   3 1750.83 171.510  27
   0  -8   2 224.443 107.984  27
   0  -8   1 10264.7 383.885  27
   0  -8   0 15770.5 494.230  27
   0  -8   0 16075.9 475.723  12
   0  -8  -1 3302.00 205.439  12
   0  -8  -1 3332.29 217.167  27
   0  -8  -2 2813.61 200.134  27
   0  -8  -2 2897.15 199.311  12
   0  -8  -3 32252.1 784.020  12
   0  -8  -3 31895.6 775.104  27
   0  -8  -4 1118.04 135.392  12
   0  -8  -4 1133.34 134.254  27
   0  -8  -5 19602.3 532.750  27
   0  -8  -5 18926.5 556.830  12
   0  -8  -6 3879.76 206.047  27
   0  -8  -6 3532.87 225.449  12
   0  -8  -7 145.756 101.406  12
   0  -8  -8 11700.9 387.945  12
   0  -8  -9 11430.7 362.935  24
   0  -8 -10 1477.16 118.487  24
   0  -9   5 1407.69 104.266  27
   0  -9   4 6363.37 231.270  27
   0  -9   3 1232.27 117.671  27
   0  -9   2 1828.12 141.514  27
   0  -9   1 2037.45 151.538  27
   0  -9   0 112.884 84.5710  27
   0  -9  -1 2556.12 152.882  12
   0  -9  -1 2526.14 170.519  27
   0  -9  -2 14140.0 412.969  27
   0  -9  -2 13940.8 398.732  12
   0  -9  -3 1572.22 133.865  12
   0  -9  -3 1557.36 132.220  27
   0  -9  -4 2874.06 164.059  27
   0  -9  -4 2932.12 171.495  12
   0  -9  -5 9136.26 281.947  27
   0  -9  -5 8569.48 298.515  12
   0  -9  -6 2263.76 148.323  12
   0  -9  -7 308.340 73.8921  12
   0  -9  -8 4232.06 175.810  24
   1  -9  -6 5611.55 207.722  12
   1  -9  -5 3726.78 175.931  12
   1  -9  -4 616.897 93.0999  12
   1  -9  -3 1365.72 119.504  12
   1  -9  -2 17038.0 443.986  12
   1  -9  -1 8524.56 270.710  27
   1  -9  -1 8423.11 282.770  12
   1  -9   0 7971.83 267.081  12
   1  -9   0 8314.85 270.104  27
   1  -9   1 937.020 89.7817  12
   1  -9   1 998.029 104.054  27
   1  -9   2 11204.2 314.964  27
   1  -9   2 10141.0 285.589  12
   1  -9   3 2017.38 124.439  27
   1  -9   4 1308.64 97.4843  27
   1  -8  -9 5588.28 208.003  24
   1  -8  -8 10525.6 337.671  12
   1  -8  -8 10259.9 327.948  24
   1  -8  -7 2912.01 188.183  12
   1  -8  -6 794.798 125.784  12
   1  -8  -5 5807.27 282.158  12
   1  -8  -4 620.579 127.536  12
   1  -8  -3 3843.48 234.766  12
   1  -8  -2 2155.19 160.586  27
   1  -8  -2 1967.28 170.385  12
   1  -8  -1 1656.39 147.441  27
   1  -8  -1 1954.33 169.849  12
   1  -8   0 3648.83 218.314  12
   1  -8   0 3715.35 212.943  27
   1  -8   1 10068.8 362.580  12
   1  -8   1 10117.1 362.588  27
   1  -8   2 3427.23 208.651  27
   1  -8   2 3579.77 205.206  12
   1  -8   3 4169.61 226.471  27
   1  -8   3 4117.51 211.424  12
   1  -8   4 12741.8 398.227  27
   1  -8   4 11691.8 361.739  12
   1  -8   5 4556.74 223.194  27
   1  -8   6 33.9281 75.5080  27
   1  -8   7 1383.78 114.151  27
   1  -8   8 1023.06 87.7161  27
   1  -7 -11 2070.94 124.855  24
   1  -7 -10 8163.70 288.650  24
   1  -7  -9 16666.8 482.729  12
   1  -7  -9 16455.0 477.184  24
   1  -7  -8 6216.01 290.634  12
   1  -7  -7 601.689 123.984  12
   1  -7  -6 652.020 106.348  20
   1  -7  -6 702.595 133.176  12
   1  -7  -5 621.837 106.746  20
   1  -7  -5 858.012 134.708  12
   1  -7  -4 21309.9 617.402  12
   1  -7  -4 21052.8 544.546  20
   1  -7  -3 22962.2 645.804  12
   1  -7  -3 23068.2 568.443  20
   1  -7  -2 9626.89 353.538  27
   1  -7  -2 9453.58 378.243  12
   1  -7  -1 7433.76 330.645  12
   1  -7  -1 7161.13 307.174  27
   1  -7   0 37243.1 868.699  27
   1  -7   0 37864.8 896.664  12
   1  -7   1 880.677 129.072  27
   1  -7   1 680.400 120.423  12
   1  -7   2 353.986 106.889  27
   1  -7   3-19.0711 95.8277  27
   1  -7   4 80.0856 101.892  27
   1  -7   5 845.614 138.019  27
   1  -7   6 7097.55 315.549  27
   1  -7   7 2365.61 185.078  27
   1  -7   8 2106.10 163.751  27
   1  -7   9 52816.2 1035.46  27
   1  -7  10 466.510 70.8988  27
   1  -6 -13 424.686 63.6109  14
   1  -6 -12 5898.86 228.039  24
   1  -6 -11 8972.54 321.541  24
   1  -6 -10 9939.71 366.646  24
   1  -6  -9 193.886 101.268  12
   1  -6  -9 160.039 97.8376  24
   1  -6  -8 3034.58 192.204  20
   1  -6  -8 3147.94 217.758  12
   1  -6  -7 11453.8 379.410  20
   1  -6  -7 11561.1 425.336  12
   1  -6  -6 2519.25 175.618  20
   1  -6  -6 2462.49 196.597  12
   1  -6  -5 11414.8 375.755  20
  -1   6   5 11317.2 439.251   3
   1  -6  -5 11175.6 408.772  12
   1  -6  -4 26301.1 686.398  12
  -1   6   4 26669.7 736.213   3
   1  -6  -4 26722.4 644.665  20
   1  -6  -3 11387.5 397.502  12
   1  -6  -3 10478.1 350.587  20
  -1   6   3 11313.1 434.967   3
   1  -6  -2 2873.01 180.361  27
   1  -6  -2 3412.28 206.754  12
   1  -6  -2 3094.77 171.233  20
   1  -6  -1 6732.53 281.549  27
   1  -6  -1 7228.17 306.793  12
   1  -6   0 2336.20 170.702  27
   1  -6   1 16661.1 477.513  13
   1  -6   1 16774.2 490.974  27
   1  -6   2 34493.2 806.425  27
   1  -6   2 33320.8 776.960  13
   1  -6   3 8843.05 348.183  27
   1  -6   3 8839.82 327.863  13
   1  -6   4 1969.94 180.184  27
   1  -6   4 1876.62 155.090  13
   1  -6   5 11141.4 374.051  13
   1  -6   5 11892.1 429.942  27
   1  -6   6 4236.97 254.823  27
   1  -6   7 2896.49 216.145  27
   1  -6   8 850.103 138.656  27
   1  -6   9 198.056 117.261  27
   1  -6  10 684.967 115.848  27
   1  -6  11 11807.3 341.235  27
   1  -5 -13 62.8179 62.8660  24
   1  -5 -13 81.2425 64.2468  14
   1  -5 -12 6924.39 285.089  24
   1  -5 -11 12063.2 413.977  24
   1  -5 -10 11329.0 411.748  24
   1  -5  -9 2969.67 210.465  12
   1  -5  -9 3005.23 209.520  24
   1  -5  -8 891.725 108.884  20
  -1   5   8 894.290 122.119   8
   1  -5  -8 936.024 132.671  12
   1  -5  -8 857.183 128.168   9
   1  -5  -7 4319.45 239.695  12
   1  -5  -7 4356.26 215.610  20
  -1   5   7 4368.25 237.638   8
   1  -5  -7 4598.48 254.134   9
   1  -5  -6 22414.8 558.052  20
  -1   5   6 23589.4 644.414   3
   1  -5  -6 21892.3 594.449  12
  -1   5   5 25314.0 678.173   3
  -1   5   4 7688.80 344.485   2
  -1   5   4 7098.82 314.745   3
  -1   5   3 5967.61 299.879   2
  -1   5   3 5887.58 282.451   3
  -1   5   2 68645.6 1407.89   2
  -1   5   1 3368.64 222.848   2
  -1   5   0 8573.93 355.033   2
  -1   5  -1 30.3173 93.9875   2
  -1   5  -2 9463.12 386.239   2
  -1   5  -3 5486.58 293.184   2
  -1   5  -4 9245.43 391.374   2
  -1   5  -4 9961.82 396.441   1
   1  -5   5 2087.32 172.602  27
   1  -5   6 1537.15 157.117  27
   1  -5   7 135574. 2477.44  27
   1  -5   8 5126.89 277.637  27
   1  -5   9 1667.63 171.929  27
   1  -5  10 118.782 90.2993  27
   1  -5  11 2645.06 184.489  27
  -1   5 -11 2648.66 171.868  22
  -1   5 -12 6241.13 233.184  22
   1  -5  12 5992.55 239.608  27
  -1   5 -13 2019.62 108.712  22
   1  -5  13 1713.73 104.114  27
   1  -4 -14 4432.52 195.733  24
   1  -4 -14 4651.51 181.656  19
   1  -4 -14 4608.01 172.277  14
   1  -4 -13 10746.5 329.392  14
   1  -4 -13 10506.8 358.531  24
   1  -4 -12 7591.75 290.893  23
   1  -4 -12 7274.24 313.291  24
   1  -4 -11 7106.58 318.759  24
   1  -4 -10 14445.9 476.753  24
   1  -4  -9 3613.10 226.183  24
   1  -4  -9 3851.10 226.038  12
   1  -4  -9 3571.21 184.340  20
   1  -4  -9 4076.47 231.397   9
  -1   4   8 3547.59 208.108   8
   1  -4  -8 3468.37 212.770   9
   1  -4  -8 3160.69 201.520  12
   1  -4  -8 3107.42 171.140  20
   1  -4  -7 22009.4 579.777   9
  -1   4   7 20908.9 563.902   8
  -1   4   6 29876.7 778.990   2
  -1   4   5 10387.4 359.159   3
  -1   4   5 10699.3 398.783   2
  -1   4   4 5092.92 235.806   3
  -1   4   4 4996.83 254.362   2
  -1   4   3 2068.03 148.218   3
  -1   4   3 2156.39 166.482   2
  -1   4   2 553.212 104.430   2
  -1   4   2 744.278 120.613   4
  -1   4   1 49195.0 1036.07   2
  -1   4   1 53137.5 1070.81   4
  -1   4   0 25310.8 621.037   2
  -1   4   0 25285.2 663.486   4
  -1   4  -1 168.358 173.972   4
  -1   4  -1 42.5365 83.8665   2
  -1   4  -2 4320.45 231.961   2
  -1   4  -2 5182.36 334.191   4
  -1   4  -3 5873.77 277.176   2
  -1   4  -3 7568.56 372.767   4
  -1   4  -4 2354.81 352.326   4
  -1   4  -4 1843.68 168.959   2
  -1   4  -5 5351.96 215.116   5
  -1   4  -5 5193.53 268.700   1
  -1   4  -6 272.956 79.1385   5
  -1   4  -6 298.357 115.036   1
  -1   4  -7 2191.10 163.988   5
   1  -4   8 5565.55 274.220  27
  -1   4  -8 5482.51 266.330   5
  -1   4  -9 14032.8 463.718   5
   1  -4   9 14639.9 482.131  27
   1  -4  10 1147.09 150.513  27
   1  -4  11 1496.24 158.975  27
   1  -4  12 2264.66 175.815  27
   1  -4  13 1161.15 114.777  27
  -1   4 -14 36.1761 53.2809  22
   1  -3 -15 587.936 72.3888  19
   1  -3 -14 16095.7 424.292  19
   1  -3 -14 15425.3 439.880  24
   1  -3 -13 11870.9 353.281  14
   1  -3 -13 11614.4 401.399  24
   1  -3 -12 8713.98 328.486  23
   1  -3 -12 8840.75 356.995  24
   1  -3 -11 2912.22 208.632  24
   1  -3 -11 3289.75 200.939  23
   1  -3 -10 2285.95 166.798   9
   1  -3 -10 2217.83 183.890  24
   1  -3  -9 8460.27 317.772   9
   1  -3  -9 8029.75 323.348  24
   1  -3  -8 40462.5 870.408   9
  -1   3   8 39734.2 866.986   8
  -1   3   8 38667.1 952.861   2
  -1   3   7 50814.7 1027.81   8
  -1   3   7 50453.1 1121.88   2
   1  -3  -7 51255.8 1030.47   9
  -1   3   6 570.678 84.8131   8
   1  -3  -6 606.390 100.251   9
  -1   3   6 516.904 111.830   2
  -1   3   5 57000.4 1153.36   2
  -1   3   5 56468.6 1102.12   3
  -1   3   4 180208. 3055.42   2
  -1   3   4 177279. 3003.96   3
  -1   3   3 1222.45 104.301   3
  -1   3   3 1266.71 123.744   2
  -1   3   2 5384.54 222.217   2
  -1   3   1 957.749 104.895   2
  -1   3   0 41127.2 507.724   2
  -1   3   0-59.8731 137.451   4
  -1   3  -1 44323.5 876.303   2
  -1   3  -2 22629.3 435.393   5
  -1   3  -2 21462.3 523.237   2
  -1   3  -3 7168.18 267.873   2
  -1   3  -3 6984.60 202.713   5
  -1   3  -4 20817.9 406.510   5
  -1   3  -4 19683.5 478.045   2
  -1   3  -5 315851. 5264.45   1
  -1   3  -5 315042. 5188.05   5
  -1   3  -5 323737. 5242.57   4
  -1   3  -6 1107.30 135.228   1
  -1   3  -6 1649.71 133.928   5
  -1   3  -7 1334.74 153.167   1
  -1   3  -7 1243.56 134.738   5
  -1   3  -8 953.246 127.655   5
  -1   3  -8 945.028 134.064   1
   1  -3   9 8417.37 345.602  27
  -1   3  -9 8511.68 348.000   5
  -1   3 -10 23682.2 648.632   5
   1  -3  10 22452.2 635.920  27
   1  -3  11 4717.67 260.177  27
   1  -3  12 2558.54 190.173  27
   1  -3  13 10104.6 346.135  27
   1  -3  14 10982.5 319.367  27
   1  -2 -15 1623.84 119.177  19
   1  -2 -14 4797.83 227.305  19
   1  -2 -13 4836.20 233.175  23
   1  -2 -13 5016.45 260.928  24
   1  -2 -12 10629.9 376.928  23
   1  -2 -12 11375.3 352.703  14
   1  -2 -12 10897.5 408.263  24
   1  -2 -11 3606.90 228.764  24
   1  -2 -11 3475.20 209.892  23
   1  -2 -10 7203.31 305.666  24
   1  -2 -10 6340.11 273.152  23
   1  -2  -9 26771.5 631.546   9
  -1   2   8 30867.9 692.391   8
   1  -2  -8 30275.8 781.834   1
   1  -2  -8 30273.8 681.155   9
   1  -2  -7 932.066 127.672   1
  -1   2   7 901.911 96.5810   8
   1  -2  -7 881.779 97.7067   9
   1  -2  -6 117.144 65.9379   9
  -1   2   6 128.744 57.9169   8
   1  -2  -6 99.8216 98.6354   1
   1  -2  -5 1997.29 123.857   9
   1  -2  -5 2038.33 154.870   1
  -1   2   5 2115.27 119.649   8
  -1   2   4 6589.87 212.371   3
  -1   2   4 6326.97 239.831   2
  -1   2   3 50270.9 904.786   3
   1  -2  -3 49301.7 860.357   6
  -1   2   3 49205.6 939.453   2
  -1   2   2 91280.7 1566.04   2
   1  -2  -2 90149.4 1490.29   6
  -1   2   1 2907.27 136.476   2
   1  -2  -1 2904.18 95.3197   6
  -1   2   0 25805.1 519.129   2
  -1   2  -1 10838.2 278.945   2
  -1   2  -2 1874.08 119.313   2
   1  -2   3 24363.4 505.696   8
  -1   2  -3 23636.2 523.872   2
   1  -2   4 2436.84 132.978   8
  -1   2  -4 2658.50 147.123   1
  -1   2  -5 1229.13 117.118   1
   1  -2   5 1267.68 115.079   8
  -1   2  -6 25366.7 587.335   4
   1  -2   6 26205.4 605.692   8
  -1   2  -6 25920.4 624.379   1
   1  -2   7 47349.9 994.765   8
  -1   2  -7 48105.7 1024.39   1
   1  -2   8 3655.44 222.580   8
  -1   2  -8 3755.46 230.700   1
   1  -2   9 9462.07 374.001   8
  -1   2  -9 9389.33 382.651   1
  -1   2 -10 8068.96 306.231  19
   1  -2  10 8645.61 367.362   8
   1  -2  10 8864.87 345.474  27
  -1   2 -10 8628.58 355.744   5
   1  -2  11 1861.66 170.173  27
   1  -2  11 1502.57 171.290   8
  -1   2 -11 1816.25 176.505   5
  -1   2 -11 1931.86 152.541  19
   1  -2  12 180.197 94.0745  27
  -1   2 -12 148.550 77.4967  19
  -1   2 -13 1129.88 127.842  19
   1  -2  13 1039.41 125.293  27
   1  -2  14 1563.20 131.621  27
  -1   2 -14 1620.47 131.009  19
  -1   2 -15 14306.1 352.189  19
   1  -1 -15 8654.53 282.702  19
   1  -1 -14 7979.36 306.075  19
   1  -1 -13 659.124 121.397  19
   1  -1 -13 755.345 114.941  23
   1  -1 -12 570.266 116.009  24
   1  -1 -12 572.066 105.128  23
   1  -1 -11 17648.7 541.018  24
   1  -1 -11 17946.7 514.922  23
   1  -1 -10 12199.6 410.856  24
   1  -1 -10 11656.4 385.160  23
   1  -1  -9 8488.68 373.435   1
  -1   1   8 1728.38 131.405   8
   1  -1  -8 1806.93 173.371   1
   1  -1  -8 1863.43 125.429   9
   1  -1  -7 45556.0 992.382   1
  -1   1   7 45500.9 904.265   8
   1  -1  -7 46870.9 895.092   9
  -1   1   6 220880. 3643.74   8
   1  -1  -6 223822. 3648.49   9
   1  -1  -6 219777. 3739.08   1
  -1   1   5 2136.46 110.568   8
   1  -1  -5 2291.93 157.486   1
   1  -1  -5 2080.66 114.292   9
   1  -1  -4 5678.11 178.851   9
  -1   1   4 5340.52 163.301   8
   1  -1  -4 5317.76 210.587   1
   1  -1  -3 7026.21 222.612   1
   1  -1  -3 7400.60 196.826   9
  -1   1   3 6941.45 184.907   3
   1  -1  -2 70431.9 1214.69   1
  -1   1   1 14505.2 305.883   2
  -1   1   0 609.213 58.9514   2
  -1   1  -1 27377.9 501.478   2
  -1   1  -2 1254.69 82.4030   2
   1  -1   3 587166. 9574.95  11
  -1   1  -3 546888. 9595.18   1
  -1   1  -4 1543.93 107.090   1
   1  -1   4 1615.94 101.018   8
   1  -1   4 1533.15 86.5231  11
   1  -1   5 31578.7 640.915   8
  -1   1  -5 31245.0 655.841   1
   1  -1   6 12804.5 360.385   8
  -1   1  -6 13719.6 382.620   1
   1  -1   7 12610.9 377.154   8
  -1   1  -7 12966.8 396.948   1
   1  -1   8 11961.4 393.556   8
  -1   1  -8 12790.7 417.399   1
   1  -1   9 2247.29 184.214   8
  -1   1  -9 2469.40 194.178   1
   1  -1  10 3871.59 242.307   8
  -1   1 -11 15510.2 506.784  23
   1  -1  11 15283.1 516.033   8
  -1   1 -11 16301.3 469.743  19
  -1   1 -12 15520.6 468.544  19
  -1   1 -12 14960.8 507.363  23
   1  -1  12 15344.5 481.379  27
  -1   1 -13 10.9161 74.4996  19
   1  -1  13 88.9438 83.8791  27
  -1   1 -13 56.5152 109.720  23
  -1   1 -14 5343.98 243.076  19
   1  -1  14 5101.24 229.821  27
  -1   1 -15 636.365 91.8054  19
  -1   1 -16 9586.39 253.129  19
   1   0 -15 8852.19 286.647  19
   1   0 -14 6915.08 285.404  19
   1   0 -13 802.098 135.593  19
   1   0 -13 595.300 109.103  23
   1   0 -12 6097.16 284.671  23
   1   0 -12 6384.64 298.057  19
   1   0 -11 6300.46 287.155  23
   1   0 -11 6589.26 311.830  24
   1   0 -10 18071.5 497.691   5
   1   0 -10 17916.8 524.026  24
   1   0 -10 17464.3 500.506  23
   1   0  -9 10086.1 403.248   1
   1   0  -9 9840.00 334.132   5
   1   0  -8 6093.77 294.891   1
   1   0  -8 5949.61 240.345   5
   1   0  -7 1891.68 130.474   5
  -1   0   7 1780.69 119.756   8
   1   0  -7 1717.16 157.279   1
  -1   0   6 6698.64 218.007   8
   1   0  -6 6661.18 265.931   1
  -1   0   5 56161.7 1008.56   8
   1   0  -5 55616.2 1080.45   1
   1   0  -5 58033.3 1010.55   9
  -1   0   4 43609.9 778.181   8
   1   0  -4 44842.4 790.274   9
   1   0  -4 42926.4 840.940   1
   1   0  -3 4113.25 134.678   5
   1   0  -3 4040.62 129.868   9
   1   0  -2 14275.1 307.894   1
   1   0  -1 41083.6 700.702   1
  -1   0   0 8984.42 165.773   2
   1   0   0 8633.52 164.776   1
  -1   0  -1 17439.7 300.389   2
  -1   0  -2 18626.5 335.573   1
  -1   0  -3 72432.5 1212.49   1
  -1   0  -4 71113.6 1220.47   1
   1   0   4 70706.1 1173.58  11
   1   0   5 26183.1 531.979   8
   1   0   5 24588.9 456.813  11
  -1   0  -5 25269.3 527.482   1
  -1   0  -6 158.176 72.2044   1
   1   0   6 175.140 72.1202   8
  -1   0  -7 20556.2 513.693   1
   1   0   7 20470.1 505.086   8
  -1   0  -8 19042.7 514.973   1
   1   0   8 18629.1 502.439   8
   1   0   9 5691.81 267.889   8
  -1   0  -9 5624.25 272.711   1
   1   0  10 226.945 100.109   8
  -1   0 -10 199.622 92.7187   1
  -1   0 -11 1966.74 175.080  23
   1   0  11 1907.15 180.841   8
  -1   0 -11 1880.04 168.193  24
  -1   0 -12 17613.6 544.066  23
   1   0  12 16684.9 543.181   8
  -1   0 -13 31609.4 805.502  23
  -1   0 -13 32409.6 767.144  19
   1   0  13 31807.4 761.502  27
  -1   0 -14 230.234 95.0880  19
  -1   0 -14 290.073 123.540  23
  -1   0 -15 100.786 88.8421  19
  -1   0 -16 9634.24 275.423  19
   1   1 -15 425.911 80.9230  19
   1   1 -14-19.6943 89.3434  19
   1   1 -13 11854.6 407.760  19
   1   1 -12 6693.64 306.813  19
   1   1 -11 32.0014 93.8007  19
   1   1 -11 35.7633 79.2250   5
   1   1 -11 57.7873 93.6359  23
   1   1 -10 13588.0 440.475   5
   1   1 -10 14272.3 446.966  23
   1   1 -10 14629.4 456.214  19
   1   1  -9 20700.1 556.701   5
   1   1  -9 21204.0 636.292   1
   1   1  -8 53050.7 1091.47   5
   1   1  -8 56974.6 1192.69   1
  -1  -1   7 7127.15 246.921   8
   1   1  -7 7085.31 268.398   5
   1   1  -7 7304.06 307.597   1
   1   1  -6 1566.48 144.028   1
  -1  -1   6 1443.57 101.250   8
   1   1  -6 1418.95 123.149   5
   1   1  -5 1472.12 116.984   5
  -1  -1   5 1397.92 93.1021   8
   1   1  -5 1354.00 130.734   1
   1   1  -4 29838.1 619.982   1
   1   1  -4 28934.7 594.951   5
  -1  -1   4 29269.6 551.477   8
   1   1  -3 49011.0 835.203  10
  -1  -1   3 49609.4 848.841   8
   1   1  -3 48015.1 907.071   1
   1   1  -2 367.727 66.7880   1
   1   1  -1 88401.1 1454.53   1
   1   1   0 1005.92 44.4512   2
   1   1   1 206665. 3268.64   2
  -1  -1  -2 17.9472 28.1669   1
  -1  -1  -3 6695.80 168.910   1
  -1  -1  -4 179.412 57.2895   1
   1   1   4 224.066 39.5796  11
  -1  -1  -5 57555.1 1020.87   1
   1   1   5 58823.0 1025.28   8
   1   1   6 52756.5 987.643   8
  -1  -1  -6 51111.2 982.612   1
   1   1   7 3850.34 189.465   8
  -1  -1  -7 3866.50 188.166   1
  -1  -1  -8 15772.2 448.989   1
   1   1   8 15619.8 444.094   8
  -1  -1  -9 34147.1 800.997   1
   1   1   9 33929.8 786.215   8
   1   1  10 8638.00 349.387   8
  -1  -1 -10 9158.75 365.496   1
   1   1  11 457.858 116.461   8
  -1  -1 -11 673.937 116.442  24
  -1  -1 -11 574.925 116.438  23
  -1  -1 -11 607.329 105.210  26
   1   1  12 4309.42 259.345   8
  -1  -1 -12 4418.40 261.526  24
  -1  -1 -12 4368.80 239.353  26
  -1  -1 -12 4568.06 261.672  23
  -1  -1 -13 82.6716 88.0012  24
  -1  -1 -13 226.692 112.397  23
  -1  -1 -14 24958.1 668.323  23
  -1  -1 -15 14254.8 444.573  23
  -1  -1 -15 14940.6 425.256  19
  -1  -1 -16 452.514 81.9256  19
   1   2 -15 570.211 78.7734  19
   1   2 -14 10096.3 328.269  19
   1   2 -13 10651.2 374.626  19
   1   2 -12 9941.61 376.965  19
   1   2 -11 983.087 139.725  19
   1   2 -10 793.399 119.387  19
   1   2 -10 848.888 137.577   5
   1   2  -9 3964.36 220.176  19
   1   2  -9 3817.48 227.747   5
   1   2  -8 17676.0 511.674   5
   1   2  -8 18412.8 573.654   1
   1   2  -7 64648.1 1267.21   5
  -1  -2   7 62897.6 1211.93   8
   1   2  -7 65270.7 1325.09   1
   1   2  -6 12374.6 378.376   5
   1   2  -6 12525.8 409.279   1
  -1  -2   6 12512.9 343.349   8
   1   2  -5 18863.1 477.733   5
  -1  -2   5 19299.9 435.562   8
   1   2  -5 19049.6 502.386   1
  -1  -2   4 55001.2 1009.26   8
   1   2  -4 58154.5 991.234  10
   1   2  -4 56952.4 1082.86   1
   1   2  -4 55518.4 1054.73   5
   1   2  -3 22245.8 432.090  10
   1   2  -3 21274.5 463.098   5
   1   2  -2 2503.73 108.348  10
   1   2  -2 2196.47 122.826   1
   1   2  -2 2281.22 108.141   5
   1   2  -1 27865.7 536.002   2
   1   2   0 23180.8 443.811   2
   1   2   0 23110.0 430.107   7
   1   2   1 73506.3 1254.66   2
   1   2   1 76010.9 1252.60  10
   1   2   1 76189.5 1247.00   7
   1   2   2 103820. 1727.68   2
   1   2   2 106721. 1743.50   3
   1   2   2 104724. 1709.46  10
   1   2   3 5117.70 158.475   2
   1   2   4 37227.7 659.942  11
   1   2   5 78047.7 1307.56  11
  -1  -2  -5 78164.5 1387.31   1
   1   2   5 78460.6 1380.15   8
   1   2   6 1085.05 106.673   8
  -1  -2  -6 997.092 105.828   1
  -1  -2  -7 9979.16 325.042   1
   1   2   7 9966.18 317.665   8
  -1  -2  -8 174.830 79.5501   1
   1   2   8 155.760 87.8764   8
  -1  -2  -9 529.538 108.865   1
   1   2   9 612.212 120.279   8
  -1  -2 -10 24754.9 666.093   1
   1   2  10 23426.4 645.155   8
  -1  -2 -11 54339.0 1112.91  26
   1   2  11 54002.1 1177.22   8
  -1  -2 -11 53942.0 1139.60  23
  -1  -2 -11 53965.0 1149.18  24
  -1  -2 -12 6306.68 285.226  26
  -1  -2 -12 6243.96 303.142  24
   1   2  12 6285.09 307.986   8
  -1  -2 -12 6233.75 301.924  23
  -1  -2 -13 3202.15 222.726  23
  -1  -2 -13 3149.19 224.580  24
  -1  -2 -14 19117.2 562.190  24
  -1  -2 -14 18498.8 547.729  23
  -1  -2 -15 1499.79 150.822  23
  -1  -2 -16 186.877 71.1090  19
  -1  -2 -16 229.489 73.3606  23
   1   3 -14 1774.75 119.751  22
   1   3 -14 1945.82 128.456  19
   1   3 -13 2.52362 92.9314  19
   1   3 -12 5814.90 276.482  19
   1   3 -11 8567.79 346.899  19
   1   3 -10 29671.5 764.487   5
   1   3 -10 30646.2 760.037  19
   1   3  -9 480.616 102.705  19
   1   3  -9 346.646 110.476   5
   1   3  -8 4404.30 247.806   5
   1   3  -7 501.688 117.070   5
   1   3  -7 596.588 131.763   1
   1   3  -6 5424.43 277.356   1
   1   3  -6 5523.87 257.543   5
   1   3  -5 24030.6 628.584   1
   1   3  -5 25393.5 602.442   5
   1   3  -5 25126.5 531.378  10
   1   3  -4 4174.09 165.942  10
   1   3  -4 4064.29 210.054   1
   1   3  -4 4131.44 194.037   5
   1   3  -3 25893.3 604.550   1
   1   3  -3 26325.4 572.996   5
   1   3  -3 27740.3 564.754  10
   1   3  -2 19038.1 432.160  10
   1   3  -2 19245.0 421.504   5
   1   3  -2 17949.4 444.705   2
   1   3  -1 114185. 1902.25   7
   1   3  -1 116651. 1951.02   2
   1   3  -1 111025. 1936.60  10
   1   3   0 142.606 68.1062   2
   1   3   0 102.885 47.4900   7
   1   3   0 129.577 66.8347  10
   1   3   1 39219.3 713.062   7
   1   3   1 41055.3 753.688  10
   1   3   1 40097.7 754.231   2
   1   3   2 6946.32 212.124   2
   1   3   2 7176.70 200.331  10
   1   3   3 78915.1 1396.09   3
   1   3   3 79730.3 1381.88   2
   1   3   3 78465.0 1329.61  10
   1   3   4 44741.3 867.800   3
   1   3   4 45166.0 851.670   2
   1   3   4 43588.8 771.040  10
   1   3   5 4349.82 198.620   3
   1   3   5 4149.53 143.743  11
   1   3   5 4448.82 189.111   2
   1   3   6 17477.8 450.078   8
   1   3   6 17545.4 455.347   2
   1   3   7 82984.7 1541.45   8
   1   3   7 82443.9 1547.85   2
   1   3   8 21692.9 575.360   8
   1   3   8 22519.0 586.313   2
   1   3   9 6081.77 287.191   2
   1   3   9 6092.79 284.621   8
  -1  -3 -10 30607.9 742.675  24
   1   3  10 31002.2 780.357   8
  -1  -3 -11 114.698 79.9076  24
  -1  -3 -11 40.0255 68.5175  26
   1   3  11-12.0728 97.9726   8
  -1  -3 -12 25787.6 652.128  26
  -1  -3 -12 25200.0 677.045  23
  -1  -3 -12 25876.8 693.395  24
  -1  -3 -13 12878.7 443.610  23
  -1  -3 -13 12712.7 411.790  26
  -1  -3 -13 12837.5 447.792  24
  -1  -3 -14 24.7837 99.6509  24
  -1  -3 -14 1.80717 94.9142  23
  -1  -3 -15 12094.7 381.159  23
  -1  -3 -16 18920.0 435.963  19
  -1  -3 -16 17766.4 438.458  23
   1   4 -13 83.5168 74.8745  19
   1   4 -13 55.1759 69.3901  22
   1   4 -12 464.311 105.750  19
   1   4 -11 9894.83 363.371  19
   1   4 -10 10056.9 379.191  19
   1   4  -9 9693.38 388.259   5
   1   4  -9 9725.79 368.930  19
   1   4  -8-3.48424 90.3712   5
   1   4  -8-7.60067 78.5126  19
   1   4  -7 8874.49 359.318   5
   1   4  -6 14412.0 456.336   5
   1   4  -6 14337.9 499.333   1
   1   4  -5 8030.76 270.899  10
   1   4  -5 8196.83 347.180   1
   1   4  -5 8520.61 317.523   5
   1   4  -4 301.056 82.0325  10
   1   4  -4 309.922 103.662   1
   1   4  -3 17566.2 444.991   7
   1   4  -3 18621.7 458.241  10
   1   4  -3 18130.5 502.408   1
   1   4  -2 24868.2 533.908   7
   1   4  -2 24958.5 568.277  10
   1   4  -1 21375.4 463.729   7
   1   4  -1 21545.6 518.356  10
   1   4  -1 20976.3 523.187   2
   1   4   0 8200.65 277.278  10
   1   4   0 8257.37 279.068   2
   1   4   0 8084.83 229.030   7
   1   4   1 1310.15 117.397  10
   1   4   1 1223.36 112.287   2
   1   4   1 1225.27 82.3085   7
   1   4   2 4579.17 196.811   2
   1   4   2 4720.23 186.149  10
   1   4   3 25927.8 596.685   3
   1   4   3 26314.3 586.854   2
   1   4   3 26388.7 539.135  10
   1   4   4 3311.38 174.501   2
   1   4   4 2993.04 124.847  10
   1   4   4 3056.36 174.361   3
   1   4   5 9433.44 334.163   3
   1   4   5 10265.1 332.083   2
   1   4   6 1514.82 137.768   2
   1   4   7 965.581 126.068   8
   1   4   7 1056.19 134.702   2
   1   4   8 17899.2 532.495   2
   1   4   8 17704.4 522.103   8
   1   4   9 48958.4 1081.86   8
  -1  -4 -10 11893.6 391.087  27
  -1  -4 -10 13057.9 436.012  24
  -1  -4 -10 12215.0 387.162  26
   1   4  10 12753.5 455.456   8
  -1  -4 -11 2465.87 170.909  26
  -1  -4 -11 2067.28 181.418  24
   1   4  11 2273.52 204.271   8
  -1  -4 -12 16017.6 465.284  26
  -1  -4 -12 15670.5 506.633  24
  -1  -4 -13 4129.73 242.080  23
  -1  -4 -13 3891.77 234.279  24
  -1  -4 -13 3987.20 203.071  26
  -1  -4 -14 23.8267 86.6806  23
  -1  -4 -14 66.6672 95.5952  24
  -1  -4 -15 1135.74 118.564  23
  -1  -4 -15 1062.59 117.186  24
  -1  -4 -16 429.187 62.8111  19
  -1  -4 -16 380.178 63.6242  23
   1   5 -13 2361.60 119.669  22
   1   5 -12 5979.39 234.676  22
   1   5 -11 22.4564 77.2539  19
   1   5 -11 38.2162 88.6547  22
   1   5 -10 1102.73 147.203  22
   1   5 -10 1160.92 136.785  19
   1   5  -9 4755.42 248.994  19
   1   5  -9 4511.85 251.620  22
  -1  -5   8 8803.91 337.716  27
   1   5  -8 9252.77 353.978  19
   1   5  -8 9288.91 366.790  22
   1   5  -7 7978.58 336.423   7
  -1  -5   7 7947.96 320.470  27
   1   5  -7 7717.44 315.835  19
   1   5  -6 3137.42 201.193  22
   1   5  -6 3123.25 193.606  19
  -1  -5   6 3083.08 193.406  27
   1   5  -6 2931.76 200.236   7
   1   5  -5 32008.2 718.592  10
   1   5  -5 32658.4 761.445   7
   1   5  -4 11609.8 429.175   1
   1   5  -4 10512.0 346.613  10
   1   5  -4 10882.0 358.948   7
   1   5  -3 6733.84 275.132  10
   1   5  -3 7367.15 324.349   1
   1   5  -3 6696.35 256.631   7
   1   5  -2 1089.52 134.211  10
   1   5  -2 1049.40 100.484   7
   1   5  -2 966.465 131.449   2
   1   5  -1 23859.1 529.701   7
   1   5  -1 23408.7 591.172  10
   1   5  -1 23253.2 615.009   2
   1   5   0 10651.4 361.622  10
   1   5   0 11318.4 301.724   7
   1   5   0 10988.3 374.698   2
   1   5   1 74909.7 1436.77  10
   1   5   1 79104.2 1477.21   2
   1   5   2 15564.4 448.463   2
   1   5   2 15020.6 413.656  10
   1   5   3 11385.2 373.613   2
   1   5   3 10683.2 368.759   3
   1   5   3 10982.0 319.029  10
   1   5   4 38068.7 880.232   3
   1   5   4 40247.9 780.451  10
   1   5   4 40809.7 882.555   2
   1   5   5 29500.2 738.207   3
   1   5   5 30650.6 729.890   2
   1   5   6 101.695 84.9916   2
   1   5   6 15.6140 92.1080   3
   1   5   7 9777.27 384.762   2
   1   5   7 9933.12 378.057   8
  -1  -5  -8 29849.9 732.479  12
  -1  -5  -8 29721.1 704.782  27
   1   5   8 29618.1 762.061   8
   1   5   9 214.984 112.374   8
  -1  -5  -9 143.326 84.1488  12
  -1  -5  -9 193.651 82.3951  27
  -1  -5 -10 20284.3 553.866  27
   1   5  10 20979.4 618.025   8
  -1  -5 -10 20788.0 598.495  24
  -1  -5 -11 4272.64 219.600  27
  -1  -5 -11 4603.86 259.301  24
  -1  -5 -12 4863.30 262.996  24
  -1  -5 -13 22546.1 600.654  24
  -1  -5 -13 22552.0 592.155  23
  -1  -5 -14 12540.0 385.408  24
  -1  -5 -14 12383.1 374.772  23
  -1  -5 -15 862.956 90.3206  23
  -1  -5 -15 810.432 89.2063  24
   1   6 -11 4326.70 190.346  22
   1   6 -10 563.094 106.876  22
   1   6  -9 7322.94 306.015  22
   1   6  -8 3835.82 226.803  22
  -1  -6   8 3440.57 207.940  27
   1   6  -7 30.5456 88.1949  22
  -1  -6   7-73.4111 81.2250  27
   1   6  -6 77.7529 90.5087  22
  -1  -6   6 44.2512 85.7154  27
   1   6  -5 59.8566 81.1163  22
   1   6  -5 131.183 87.4833  10
  -1  -6   5 126.745 91.7060  27
  -1  -6   4 4442.94 247.012  27
   1   6  -4 4236.55 227.775  10
   1   6  -4 4444.75 227.847  22
   1   6  -3 23997.5 605.773  22
   1   6  -3 24184.0 626.598  10
  -1  -6   3 25274.1 645.454  27
   1   6  -2 13187.9 430.259  10
   1   6  -1 5110.10 261.321  10
   1   6  -1 5119.36 281.339   2
   1   6   0 14836.7 464.130  10
   1   6   0 14965.8 494.412   2
   1   6   1 10252.0 394.349   2
   1   6   1 10487.6 370.874  10
   1   6   2 337.739 96.6148   2
   1   6   2 237.523 101.947   3
   1   6   2 304.247 96.6214  10
   1   6   3 3567.23 228.891   2
   1   6   3 3393.08 185.944  10
   1   6   3 3134.57 218.461   3
   1   6   4 124.698 67.7820   2
   1   6   4 53.0621 84.7700   3
   1   6   5 437.874 128.537   3
  -1  -6  -6 28546.8 700.992  27
   1   6   6 29509.2 785.416   3
  -1  -6  -6 28692.1 708.636  12
  -1  -6  -7 68141.5 1385.57  12
  -1  -6  -7 69048.4 1368.67  27
   1   6   7 69494.7 1427.90   8
  -1  -6  -8 22255.7 621.302  12
   1   6   8 22737.6 647.919   8
  -1  -6  -8 22136.7 595.073  27
  -1  -6  -9 18003.5 550.618  12
  -1  -6  -9 18012.9 515.156  27
  -1  -6 -10 12875.6 444.685  24
  -1  -6 -10 12764.3 406.084  27
  -1  -6 -11 1054.23 136.374  24
  -1  -6 -12 22.8150 88.6935  24
  -1  -6 -13 690.158 107.104  23
  -1  -6 -13 743.535 109.667  24
  -1  -6 -14 84.8971 58.5700  24
  -1  -6 -14 123.127 63.9895  23
   1   7 -10 731.411 78.5157  22
   1   7  -9 996.559 104.835  22
  -1  -7   8 2176.44 147.467  27
   1   7  -8 2356.13 161.034  22
   1   7  -7 12930.8 402.586  22
  -1  -7   7 12470.0 400.074  27
   1   7  -6 6716.01 284.755  22
  -1  -7   6 6469.90 293.960  27
   1   7  -5 26.1279 73.5564  22
  -1  -7   5 43.7057 92.1563  27
  -1  -7   4 9450.93 372.262  27
   1   7  -4 9239.97 343.146  22
  -1  -7   3 15903.0 503.454  27
   1   7  -3 15523.6 464.055  22
   1   7  -2 137.119 85.8975  10
  -1  -7   2 199.039 101.343  27
   1   7  -2 60.9078 75.1953  22
  -1  -7   1 14694.9 476.119  27
   1   7  -1 14466.9 434.042  22
   1   7  -1 14718.2 482.307  10
  -1  -7   0 6434.47 300.264  27
   1   7   0 6167.69 301.530  10
   1   7   1 2457.03 208.154   3
   1   7   1 2507.44 197.049  10
  -1  -7  -1 2678.11 195.799  27
   1   7   2 21964.4 591.897  10
  -1  -7  -2 21542.2 595.977  27
   1   7   2 21190.0 651.978   3
  -1  -7  -3 16113.9 480.227  12
   1   7   3 16344.9 553.428   3
  -1  -7  -3 16261.4 497.903  27
  -1  -7  -4 2627.67 190.209  12
   1   7   4 2682.48 223.914   3
  -1  -7  -4 2601.05 198.529  27
   1   7   5 15046.2 533.316   3
  -1  -7  -5 15185.9 482.526  27
  -1  -7  -5 15365.7 478.108  12
  -1  -7  -6 21723.3 604.269  12
  -1  -7  -6 21401.3 597.624  27
  -1  -7  -7 6117.26 288.305  27
  -1  -7  -7 6464.45 301.804  12
  -1  -7  -8 4529.10 238.711  27
  -1  -7  -8 4648.12 259.444  12
  -1  -7  -9 3235.47 193.548  27
  -1  -7  -9 3385.26 217.147  12
  -1  -7 -10 1975.89 146.857  27
  -1  -7 -10 2158.53 181.409  24
  -1  -7 -11 20380.1 544.683  24
  -1  -7 -12 13701.3 392.733  24
  -1  -7 -13 240.188 58.2777  24
  -1  -7 -13 210.342 59.9285  23
  -1  -8   7 611.444 82.9058  27
   1   8  -7 566.814 76.4266  22
   1   8  -6 2906.31 157.890  22
  -1  -8   6 3014.26 175.310  27
   1   8  -5 8914.78 298.408  22
  -1  -8   5 9255.91 332.188  27
   1   8  -4 3119.40 174.829  22
  -1  -8   4 3125.94 206.388  27
  -1  -8   3 4081.40 240.490  27
  -1  -8   2 10780.6 400.180  27
  -1  -8   1 9804.54 380.982  27
  -1  -8   0 1134.56 152.173  27
  -1  -8  -1 5101.21 275.096  27
  -1  -8  -2 4767.95 263.454  27
  -1  -8  -3 1840.79 175.891  27
  -1  -8  -3 1992.07 164.791  12
  -1  -8  -4 8287.84 332.691  12
  -1  -8  -4 8259.37 349.110  27
  -1  -8  -5 33120.1 789.670  12
  -1  -8  -5 32681.5 799.658  27
  -1  -8  -6 16207.9 492.165  12
  -1  -8  -6 16162.6 494.181  27
  -1  -8  -7 21507.5 576.081  27
  -1  -8  -7 21915.7 594.648  12
  -1  -8  -8 11043.0 360.179  27
  -1  -8  -8 11225.2 384.920  12
  -1  -8  -9 167.753 72.5445  27
  -1  -8  -9 144.506 92.7314  24
  -1  -8 -10 1423.08 129.567  24
  -1  -8 -11 3033.23 155.239  24
  -1  -9   5 4918.48 186.561  27
  -1  -9   4 51.9089 63.6031  27
  -1  -9   3 6491.51 254.540  27
  -1  -9   2 1418.12 138.770  27
  -1  -9   1 2290.44 169.657  27
  -1  -9   0 6354.56 277.757  27
  -1  -9  -1 3071.46 201.839  27
  -1  -9  -2 2166.20 174.782  27
  -1  -9  -3 2849.13 192.345  27
  -1  -9  -4 11225.6 375.210  27
  -1  -9  -5 1303.83 133.199  27
  -1  -9  -5 1347.35 120.757  12
  -1  -9  -6 3276.74 177.723  27
  -1  -9  -6 3207.81 173.355  12
  -1  -9  -7 307.738 75.0071  27
  -1  -9  -8 4832.14 179.752  27
  -1  -9  -8 5094.72 210.947  24
  -1  -9  -9 12127.4 324.328  24
  -1 -10   0 1684.06 108.176  27
  -1 -10  -1 1889.67 118.881  27
  -1 -10  -2 2726.77 138.163  27
  -1 -10  -3 7997.28 243.042  27
   2  -9  -3 6860.32 222.985  12
   2  -9  -2 1955.15 121.019  12
   2  -9  -1 55.6003 50.8963  12
   2  -9   0 1210.24 95.2707  12
   2  -9   1 2543.09 127.171  12
   2  -8  -7 6553.13 233.373  12
   2  -8  -7 6247.31 211.016  24
   2  -8  -6 3164.00 175.395  12
   2  -8  -5 8693.75 313.586  12
   2  -8  -4 3168.90 195.401  12
   2  -8  -3 2516.21 181.900  12
   2  -8  -2 2678.44 189.080  12
   2  -8  -1 8002.73 319.621  12
   2  -8   0 9085.41 339.258  12
   2  -8   1 41.6827 81.9122  12
   2  -8   2 3849.62 209.296  12
   2  -8   2 3752.46 186.317  27
   2  -8   3 17901.2 481.525  12
   2  -8   3 17782.3 460.132  27
   2  -8   4 590.462 93.1851  12
   2  -8   4 685.281 97.1014  27
   2  -8   5 2524.11 146.066  27
   2  -8   5 2485.97 141.381  12
   2  -8   6 85.8472 42.5103  12
   2  -8   6 98.8319 56.3863  27
   2  -8   7 1782.08 106.267  27
   2  -7  -9 6609.03 214.425  14
   2  -7  -9 7098.29 236.891  24
   2  -7  -8 9058.41 306.070  24
   2  -7  -8 9134.32 316.987  12
   2  -7  -7 2689.35 185.799  12
   2  -7  -6 16120.7 488.491  12
   2  -7  -6 15243.4 434.017  20
   2  -7  -5 13856.4 454.531  12
   2  -7  -5 12925.9 393.665  20
   2  -7  -4 750.094 135.774  12
   2  -7  -4 712.921 105.311  20
   2  -7  -3 615.656 127.850  12
   2  -7  -3 690.711 103.543  20
   2  -7  -2 1109.53 147.629  12
   2  -7  -2 1065.31 116.498  20
   2  -7  -1 9063.39 375.679  12
   2  -7   0 7923.66 347.066  12
   2  -7   1 655.049 132.436  12
   2  -7   1 613.483 117.298  27
   2  -7   2 115.942 82.1797  27
   2  -7   2 45.7010 91.9580  12
   2  -7   3 2166.45 171.442  27
   2  -7   4 10808.6 382.248  27
   2  -7   5 4977.86 251.052  27
   2  -7   6 4.49639 87.3045  27
   2  -7   7 921.977 122.284  27
   2  -7   8 554.738 91.9916  27
   2  -7   9 1531.63 118.668  27
   2  -6 -11 2672.21 133.998  24
   2  -6 -11 2677.82 140.142  14
   2  -6 -10 4399.80 202.376  24
   2  -6  -9 10276.6 345.914  24
   2  -6  -9 9795.03 345.069  12
   2  -6  -8 1556.99 153.599  12
   2  -6  -8 1777.61 157.131  24
   2  -6  -8 1557.21 142.870  20
   2  -6  -7 17405.0 521.931  12
   2  -6  -7 16741.9 479.221  20
   2  -6  -6 10429.8 361.812  20
   2  -6  -6 10257.4 391.499  12
   2  -6  -5 952.914 140.905  12
   2  -6  -5 769.442 121.509  20
   2  -6  -4 26247.8 692.476   9
   2  -6  -4 24768.8 630.868  20
   2  -6  -4 25542.7 682.924  12
  -2   6   4 24847.9 690.531   3
   2  -6  -3 21664.7 612.247  12
   2  -6  -3 21387.8 562.665  20
  -2   6   3 21607.9 633.255   3
  -2   6   2 6583.07 323.947   3
   2  -6  -2 6656.92 309.462  12
   2  -6  -2 6452.22 269.431  20
   2  -6  -1 6334.64 303.782  12
   2  -6  -1 6043.30 251.782  20
   2  -6   0 10673.3 372.401  13
   2  -6   1 37519.4 852.538  13
   2  -6   1 37651.5 844.080  27
   2  -6   2 2079.50 170.132  13
   2  -6   2 2192.66 168.957  27
   2  -6   3 5978.16 281.433  27
   2  -6   3 6396.33 285.770  13
   2  -6   4 21.9339 88.6700  27
   2  -6   4 141.291 101.664  13
   2  -6   5 17602.3 531.929  27
   2  -6   5 17146.5 497.735  13
   2  -6   6 16580.5 516.673  27
   2  -6   6 15988.0 465.905  13
   2  -6   7 1310.01 160.135  27
   2  -6   7 1295.31 126.105  13
   2  -6   8 4024.12 238.258  27
   2  -6   9 2830.43 195.832  27
   2  -6  10 16202.0 451.539  27
   2  -6  11-0.47476 63.4635  27
   2  -5 -13 2652.77 120.516  14
   2  -5 -12 3137.07 161.058  14
   2  -5 -12 3315.67 155.707  24
   2  -5 -11 4931.49 221.758  14
   2  -5 -11 5176.77 225.436  24
   2  -5 -10 7077.58 290.025  24
   2  -5  -9 3174.38 205.563  24
   2  -5  -9 3114.07 180.391  20
   2  -5  -9 3224.13 201.416  12
   2  -5  -8 28622.4 711.548  12
   2  -5  -8 26925.8 655.756  20
   2  -5  -8 28324.3 715.205  24
   2  -5  -7 26937.5 654.000  20
   2  -5  -7 27017.3 692.609  12
   2  -5  -6 34.3831 75.3176  12
   2  -5  -6 216.128 94.4919  20
   2  -5  -6 140.008 109.226   9
   2  -5  -5 8129.04 310.059  20
   2  -5  -5 8057.68 325.612  12
   2  -5  -5 8843.03 368.132   9
   2  -5  -4 741.246 108.377  20
  -2   5   4 692.745 108.777   3
   2  -5  -4 813.422 142.473   9
   2  -5  -4 867.961 117.461  12
  -2   5   3 2882.73 197.162   3
   2  -5  -3 3049.18 215.190   9
   2  -5  -2 5573.05 275.375   9
  -2   5   1 4770.42 280.981   4
  -2   5   1 3595.86 244.265   2
  -2   5   0 779.637 224.856   4
  -2   5   0-76.5580 92.7050   2
  -2   5  -1 11362.0 442.005   2
  -2   5  -1 13738.3 530.812   4
  -2   5  -2 39804.5 1022.09   4
  -2   5  -3 10400.2 585.236   4
   2  -5   4 1242.92 132.029  27
   2  -5   4 1358.60 144.404  13
   2  -5   5 2152.30 176.333  27
   2  -5   5 2378.12 174.676  13
   2  -5   6 505.300 109.418  13
   2  -5   6 451.550 120.787  27
   2  -5   7 3977.06 216.944  13
   2  -5   7 4063.44 246.231  27
   2  -5   8 1800.81 179.111  27
   2  -5   9 1283.73 162.457  27
   2  -5  10 8729.95 355.774  27
   2  -5  11 12515.0 406.622  27
   2  -5  12 1202.24 118.759  27
   2  -5  13 168.560 53.3789  27
   2  -4 -13 1770.96 117.575  14
   2  -4 -12 11338.5 346.805  14
   2  -4 -12 10887.5 345.081  24
   2  -4 -11 25597.9 637.812  24
   2  -4 -10 2730.09 187.675  24
   2  -4  -9 7469.73 271.847  20
   2  -4  -9 7708.60 320.617  24
   2  -4  -8 1793.57 140.496  20
   2  -4  -8 1532.86 151.087  24
   2  -4  -8 1546.14 146.764  12
   2  -4  -8 1902.52 167.835   9
   2  -4  -7 584.181 104.298  12
   2  -4  -7 419.072 93.7081  20
   2  -4  -7 532.356 107.488   9
   2  -4  -6 37307.1 814.190  20
   2  -4  -6 40467.3 905.040   9
  -2   4   5 21277.6 631.693   2
   2  -4  -5 20889.2 582.688   9
  -2   4   4 2965.11 219.961   2
   2  -4  -4 3158.44 204.360   9
  -2   4   4 2770.27 172.699   3
  -2   4   3 23170.9 585.886   3
  -2   4   3 23039.2 633.631   2
   2  -4  -3 24350.8 623.145   9
   2  -4  -2 38041.3 845.998   9
  -2   4   2 37226.2 864.559   2
   2  -4  -1 74969.6 1449.25   9
  -2   4   1 78262.7 1499.37   2
  -2   4   0 466.888 115.964   2
  -2   4  -1 91.4480 95.0376   2
  -2   4  -2 575.105 119.488   2
  -2   4  -3 15849.5 492.724   2
  -2   4  -4 6159.22 644.573   4
  -2   4  -4 24061.7 581.635   2
  -2   4  -5 839.524 523.120   4
  -2   4  -5 231.733 85.3615   1
  -2   4  -6 17213.3 539.728   1
  -2   4  -6 19996.9 727.895   4
   2  -4   7 9032.40 355.283  27
   2  -4   7 8348.37 306.522  13
   2  -4   8 17841.4 548.373  27
   2  -4   9 921.493 146.549  27
   2  -4  10 2133.50 194.242  27
   2  -4  11 226.272 114.529  27
   2  -4  12 10302.4 371.770  27
   2  -4  13 9452.40 315.481  27
   2  -4  14 1299.50 97.5213  27
   2  -3 -14 5592.81 176.653  14
   2  -3 -13 8213.30 281.502  24
   2  -3 -13 8775.34 277.405  14
   2  -3 -12 2180.90 159.861  14
   2  -3 -12 2035.09 154.111  24
   2  -3 -11 523.626 110.048  24
   2  -3 -11 514.102 98.6574  14
   2  -3 -10 25121.1 654.584  24
   2  -3  -9 22548.8 604.088   9
   2  -3  -9 23075.2 610.955  24
   2  -3  -8 2427.21 178.627   9
   2  -3  -8 2782.37 181.883  24
   2  -3  -7 2435.59 172.207   9
   2  -3  -6 1910.08 154.403   9
  -2   3   6 1840.39 186.661   2
  -2   3   5 15213.7 487.996   2
   2  -3  -5 15979.8 453.439   9
  -2   3   4 14818.7 401.102   3
  -2   3   4 14934.4 459.275   2
   2  -3  -4 15006.8 433.156   9
  -2   3   3 609.384 77.3756   3
  -2   3   3 669.813 114.650   2
   2  -3  -3 641.356 99.0743   9
   2  -3  -2 9270.45 308.277   9
  -2   3   2 9247.87 318.977   2
  -2   3   1 25835.4 604.081   2
   2  -3  -1 26308.7 594.469   9
  -2   3   0 55249.1 1081.56   2
   2  -3   0 55580.5 1045.74   9
  -2   3  -1 26740.6 615.746   2
  -2   3  -2 162.479 80.5708   2
  -2   3  -2-1.57184 116.562   4
  -2   3  -3 19562.0 508.294   2
  -2   3  -4 22710.9 573.224   2
  -2   3  -5 13100.0 401.893   1
  -2   3  -6 749.412 110.593   1
  -2   3  -7 419.347 86.2421   5
  -2   3  -7 745.983 397.171   4
  -2   3  -7 390.321 91.6139   1
  -2   3  -8 25107.3 633.245   5
  -2   3  -9 30134.9 738.568   5
   2  -3   9 30632.5 769.389  27
   2  -3  10 1025.77 141.735  27
  -2   3 -10 701.861 121.247   5
   2  -3  11 1912.28 187.201  27
   2  -3  12 9465.03 373.825  27
   2  -3  13 1324.89 145.143  27
   2  -3  14 135.639 80.9139  27
   2  -2 -14 12963.2 336.472  19
   2  -2 -13 13599.0 384.825  19
   2  -2 -13 13619.5 369.521  14
   2  -2 -12 14.2521 73.7802  19
   2  -2 -12 36.7557 65.0349  14
   2  -2 -12-3.54425 70.3399  24
   2  -2 -11 3684.62 202.926  14
   2  -2 -11 3782.92 225.186  24
   2  -2 -10 540.337 93.4355  25
   2  -2 -10 804.443 120.182  24
   2  -2  -9 3376.55 178.458  25
   2  -2  -9 3693.88 206.361  24
   2  -2  -8 48495.0 1011.58   9
  -2   2   7 5667.95 293.919   2
   2  -2  -7 5275.17 237.276   9
   2  -2  -6 7245.69 271.130   9
  -2   2   6 6832.07 304.949   2
  -2   2   5 25795.7 642.581   2
   2  -2  -5 25763.7 598.854   9
   2  -2  -5 26446.9 568.787   6
  -2   2   4 4205.33 210.373   2
   2  -2  -4 4107.78 165.298   6
   2  -2  -4 4180.65 190.912   9
  -2   2   3 63553.7 1216.33   2
   2  -2  -3 63809.7 1201.97   9
   2  -2  -3 62719.8 1148.09   6
  -2   2   3 65491.2 1153.57   3
  -2   2   2 2539.22 127.004   4
  -2   2   2 2183.79 139.712   2
   2  -2  -2 2391.26 114.598   6
   2  -2  -2 2504.42 145.457   9
  -2   2   1 237.179 75.3463   2
   2  -2  -1 235.729 53.6843   6
   2  -2  -1 143.678 66.4421   9
  -2   2   1 239.832 68.8709   4
   2  -2   0 5175.54 168.890   6
  -2   2   0 5205.16 191.942   2
   2  -2   0 5497.28 186.274   9
   2  -2   1 21876.6 445.516   9
  -2   2  -1 20814.2 481.280   2
  -2   2  -2 25640.0 552.161   4
  -2   2  -2 20747.5 490.156   2
  -2   2  -3 4800.78 226.202   4
  -2   2  -3 4014.75 179.450   2
   2  -2   4 25522.1 557.179   8
  -2   2  -4 24050.7 556.954   2
   2  -2   5 1819.50 142.367   8
  -2   2  -5 1848.46 130.114   1
  -2   2  -6 10155.7 332.549   1
   2  -2   6 10151.7 344.033   8
  -2   2  -7 830.964 105.858   1
   2  -2   7 709.819 129.176   8
   2  -2   8 1397.21 163.391   8
  -2   2  -8 1484.79 147.660   1
   2  -2   9 2386.23 203.904   8
  -2   2  -9 2621.78 193.868   1
   2  -2  10 39648.2 910.227  27
   2  -2  10 36799.1 931.320   8
  -2   2 -11 17108.8 525.458   5
   2  -2  11 16820.1 528.013  27
   2  -2  12 509.071 124.976  27
   2  -2  13 4962.03 261.513  27
   2  -2  14 10201.4 350.607  27
   2  -2  15 1311.79 111.162  27
   2  -1 -14 1618.43 124.276  19
   2  -1 -13 643.617 105.059  19
   2  -1 -12 43186.6 937.340  19
   2  -1 -12 44238.6 900.229  14
   2  -1 -11 20777.8 531.212  14
   2  -1 -11 19922.8 549.476  19
   2  -1 -11 21333.9 582.052  24
   2  -1 -10 147.417 73.1925  14
   2  -1 -10 48.0293 76.6871  24
   2  -1  -9 11005.6 343.060  25
   2  -1  -8 2827.79 215.330   1
   2  -1  -7 10816.0 401.517   1
   2  -1  -6 18265.5 512.326   1
   2  -1  -6 17068.9 446.286   9
   2  -1  -5 278.236 87.4427   1
   2  -1  -5 267.379 73.4426   9
   2  -1  -4 63552.3 1211.90   1
   2  -1  -4 64746.0 1179.48   9
   2  -1  -3 139851. 2403.17   1
   2  -1  -3 143722. 2387.99   9
  -2   1   2 72188.0 1279.22   2
   2  -1  -2 73572.4 1262.73   6
   2  -1  -2 72456.2 1278.25   9
  -2   1   2 72516.1 1216.48   3
   2  -1  -1 368.840 51.9533  11
   2  -1  -1 390.192 64.5190   9
  -2   1   1 371.097 65.0979   2
   2  -1   0 33759.3 610.532  11
   2  -1   0 33418.4 620.121   6
  -2   1   0 32656.6 621.578   2
   2  -1   0 34033.4 621.183   9
   2  -1   1 25591.9 490.939  11
   2  -1   1 25562.4 494.842   6
   2  -1   1 25793.5 472.476   9
  -2   1  -1 25059.8 490.307   2
  -2   1  -2 23744.2 469.159   2
   2  -1   2 23987.6 468.444   8
   2  -1   2 23271.3 466.126  11
   2  -1   3 22816.8 464.750  11
   2  -1   3 23708.2 481.777   8
  -2   1  -3 22441.2 470.946   2
   2  -1   4 1431.32 97.1787  11
  -2   1  -4 1699.28 113.189   4
  -2   1  -4 1537.40 100.510   1
   2  -1   4 1629.94 112.764   8
  -2   1  -5 18727.5 445.095   1
   2  -1   5 19276.5 430.216  11
   2  -1   5 19047.4 462.116   8
   2  -1   6 79035.4 1370.89  11
  -2   1  -6 75946.7 1407.09   1
   2  -1   6 76380.9 1427.69   8
   2  -1   7 29450.3 689.831   8
  -2   1  -7 29554.2 670.144   1
  -2   1  -8 16468.7 473.010   1
   2  -1   8 16718.3 494.590   8
  -2   1  -9 15547.1 478.546   1
   2  -1   9 16134.0 505.221   8
   2  -1  10 11844.8 445.784   8
  -2   1 -10 12292.3 418.777  23
   2  -1  11 281.728 118.805   8
   2  -1  11 351.059 96.1512  18
  -2   1 -11 224.064 105.346  23
  -2   1 -12 143.345 101.766  23
   2  -1  12 25.2987 92.4479  27
   2  -1  13 524.918 111.566  27
   2  -1  14 1668.90 159.180  27
   2  -1  15 12012.3 361.380  27
   2  -1  16 21487.3 457.838  27
   2   0 -14 837.655 103.011  19
   2   0 -13 268.293 101.737  19
   2   0 -12 279.853 105.435  19
   2   0 -11 562.174 113.531  19
   2   0 -10 27371.5 677.797  19
   2   0 -10 27590.0 690.428  24
   2   0  -9 13695.6 393.301  14
   2   0  -9 14373.3 410.190  25
   2   0  -8 2536.75 204.699   1
   2   0  -7 35029.4 832.970   1
   2   0  -6 7881.28 306.129   1
   2   0  -6 7547.58 264.957   5
   2   0  -5 27464.2 579.227   5
   2   0  -5 25901.6 620.234   1
   2   0  -4 2340.00 144.909   1
   2   0  -4 2482.47 119.346   5
   2   0  -3 1490.32 82.2487   5
   2   0  -3 1489.63 110.501   1
   2   0  -2 4893.82 132.460   7
   2   0  -2 4844.11 164.926   1
   2   0  -1 21619.4 393.268   7
   2   0  -1 21695.5 396.267  11
   2   0  -1 21206.9 417.242   1
  -2   0   0 78944.1 1303.70   2
   2   0   0 79935.9 1314.47  11
  -2   0  -1 572.621 39.7321   2
   2   0   2 95195.9 1561.51   6
   2   0   2 92092.4 1545.57   8
  -2   0  -2 94731.8 1513.82   1
  -2   0  -2 93714.5 1527.73   2
   2   0   3 66514.5 1153.12  11
  -2   0  -3 67812.4 1121.46   1
   2   0   3 68592.6 1161.06   8
   2   0   4 1266.80 83.7590  11
   2   0   4 1278.73 96.0742   8
  -2   0  -4 1313.12 76.3219   1
  -2   0  -5 1089.87 83.1153   1
   2   0   5 1114.89 103.859   8
   2   0   5 1130.24 80.4397  11
   2   0   6 3532.41 178.058   8
  -2   0  -6 3594.22 158.525   1
   2   0   6 3555.30 135.405  11
  -2   0  -7 2603.66 146.961   1
   2   0   7 2515.09 115.614  11
   2   0   7 2390.90 164.657   8
  -2   0  -8 111153. 1976.55   1
   2   0   8 110030. 2007.87   8
  -2   0  -9 41071.3 891.824   1
   2   0   9 40222.7 919.217   8
   2   0  10 112.123 100.748   8
   2   0  11 23604.7 682.405   8
  -2   0 -11 25101.4 658.217  23
  -2   0 -11 24439.5 620.410  26
   2   0  12 28288.2 770.408   8
  -2   0 -12 28190.9 739.129  23
  -2   0 -13 849.450 116.608  19
  -2   0 -13 608.993 139.006  23
  -2   0 -14 5489.03 283.071  23
   2   0  14 5640.26 269.119  27
  -2   0 -14 5390.65 238.106  19
  -2   0 -15 3252.21 166.384  19
   2   0  15 3341.42 186.900  27
   2   0  16 559.730 76.5052  27
   2   1 -14 23408.6 540.676  19
   2   1 -13 6499.21 272.262  19
   2   1 -12 1017.43 140.944  19
   2   1 -11 11964.6 414.138  19
   2   1 -10 7408.26 315.091  19
   2   1  -9 4191.02 231.838  19
   2   1  -9 4282.34 233.080   5
   2   1  -8 939.516 123.898   5
   2   1  -8 36.3758 91.4748   1
   2   1  -7 8123.41 313.224   5
   2   1  -7 7997.74 335.093   1
   2   1  -6 42158.3 900.134   5
   2   1  -6 43437.6 931.759   1
   2   1  -5 53168.6 1059.05   1
   2   1  -5 53193.6 1040.84   5
   2   1  -4 27867.5 623.730   1
   2   1  -4 29668.6 616.041   5
   2   1  -3 726.028 82.6033   5
   2   1  -3 683.612 86.3067   1
   2   1  -2 42180.8 757.426   7
   2   1  -2 41724.2 718.610  11
   2   1  -2 42366.4 774.125   1
   2   1  -1 41776.3 717.846  11
   2   1  -1 41533.9 731.914   7
   2   1  -1 41161.6 731.039   1
   2   1   0 7180.90 155.813   1
   2   1   0 7304.95 188.079   6
   2   1   0 7385.92 178.916  11
   2   1   0 7387.91 180.986   7
   2   1   1 209.728 43.6154   6
   2   1   2 214.969 42.1265   6
  -2  -1  -3 6201.10 131.723   1
   2   1   3 6679.40 179.665   8
   2   1   3 6715.17 179.743  11
   2   1   4 28785.7 550.717  11
   2   1   4 28881.8 573.943   8
  -2  -1  -4 29553.1 527.865   1
   2   1   5 21739.5 438.638  11
  -2  -1  -5 22262.1 447.167   1
   2   1   5 22013.5 484.556   8
   2   1   6 23440.7 476.463  11
  -2  -1  -6 24197.2 510.588   1
   2   1   7 17254.8 373.599  11
  -2  -1  -7 17388.5 427.215   1
   2   1   7 17670.9 461.517   8
   2   1   8 22460.1 577.714   8
  -2  -1  -8 22955.0 548.720   1
   2   1   9 311.260 107.717   8
   2   1  10 3561.24 226.722   8
  -2  -1 -11 137.297 86.2235  26
  -2  -1 -11 178.332 94.2567  23
  -2  -1 -11 125.798 81.8377  24
   2   1  11 57.1515 109.465   8
  -2  -1 -12 454.568 101.336  26
  -2  -1 -12 445.628 105.886  24
   2   1  12 293.579 122.577   8
  -2  -1 -12 464.172 123.684  23
  -2  -1 -13 13433.7 465.816  23
  -2  -1 -14 47637.0 1060.40  23
  -2  -1 -15 8623.89 296.430  19
  -2  -1 -15 8550.40 338.617  23
   2   1  15 9039.63 313.280  27
   2   1  16 2191.83 129.380  27
  -2  -1 -16 2395.70 130.488  19
   2   2 -14 208.271 73.7664  19
   2   2 -13 5319.63 240.633  19
   2   2 -12 15888.6 479.059  19
   2   2 -11 4605.66 257.155  19
   2   2 -10 5480.12 278.005  19
   2   2  -9 20583.9 572.356  19
   2   2  -9 20105.5 577.787   5
   2   2  -8 4928.45 261.873   5
   2   2  -7 16233.9 492.786   5
   2   2  -7 16431.3 522.082   1
   2   2  -6 3615.22 217.545   1
   2   2  -6 3124.04 201.350   5
   2   2  -5 7454.89 288.727   5
   2   2  -5 7582.81 293.707   1
   2   2  -4 67952.7 1267.69   5
   2   2  -4 66811.0 1268.31   1
   2   2  -3 9392.20 285.532   1
   2   2  -2 2399.10 121.756   7
   2   2  -2 2446.53 97.5637  11
   2   2  -2 2473.14 127.387   1
   2   2  -1 26634.4 525.021   7
   2   2  -1 26670.0 505.761  11
   2   2  -1 27183.6 525.621   1
   2   2   0 52308.0 920.065   7
   2   2   0 52597.1 900.467   1
   2   2   0 51762.0 908.979  11
   2   2   1 91157.6 1518.11   7
   2   2   1 89393.1 1464.64   2
   2   2   1 90653.0 1485.45   6
   2   2   1 91177.1 1512.55  11
   2   2   2 2189.86 98.5533  11
   2   2   2 2158.05 68.4557   2
   2   2   2 2295.95 97.9035   3
   2   2   3 10212.4 214.882   2
   2   2   3 10491.0 252.340  11
   2   2   3 10578.3 253.247   8
   2   2   4 52644.5 903.114   2
   2   2   4 52045.6 924.302  11
   2   2   4 51730.1 944.679   8
   2   2   5 13278.2 307.413  11
   2   2   5 13403.3 342.977   8
   2   2   6 116416. 1957.34  11
   2   2   6 115710. 2027.83   8
  -2  -2  -6 119727. 2000.34   1
   2   2   7 5702.98 178.044  11
  -2  -2  -7 6054.91 222.658   1
   2   2   7 5969.37 243.130   8
   2   2   8 13358.2 411.769   8
  -2  -2  -8 13181.2 384.358   1
   2   2   9 24951.4 649.659   8
   2   2  10 17656.8 542.036   8
  -2  -2 -11-16.8255 67.0626  24
  -2  -2 -11 127.391 86.0824  26
   2   2  11 9.45376 96.9306   8
  -2  -2 -11-74.0833 86.8778  23
  -2  -2 -12 11004.2 402.376  24
  -2  -2 -12 10941.3 404.134  23
  -2  -2 -12 11076.4 394.670  26
   2   2  12 11600.4 438.022   8
  -2  -2 -13 15098.9 473.914  26
  -2  -2 -13 14962.6 487.300  24
  -2  -2 -13 14585.5 487.575  23
  -2  -2 -14 137.271 101.085  23
  -2  -2 -15 4848.15 250.125  23
  -2  -2 -16 891.613 112.603  23
  -2  -2 -16 989.292 95.4162  19
   2   3 -14 3202.25 141.878  19
   2   3 -13 2318.07 153.935  19
   2   3 -13 2257.24 128.263  22
   2   3 -12 393.681 112.567  19
   2   3 -11 1066.95 146.043  19
   2   3 -10 1091.16 152.906  19
   2   3  -9 3517.13 227.882  19
   2   3  -8 34918.3 821.703  19
   2   3  -7 29551.9 752.377   5
   2   3  -7 29932.2 786.081   1
   2   3  -6 1909.14 175.876   5
   2   3  -6 2111.81 179.285   1
   2   3  -5 4253.75 234.998   5
   2   3  -5 4488.89 238.566   1
   2   3  -4 3251.25 193.556   1
   2   3  -3 3844.88 184.655   7
   2   3  -3 3818.55 190.740   1
   2   3  -2 14783.7 367.730  10
   2   3  -2 14059.7 362.483   7
   2   3  -2 14299.5 377.896   1
   2   3  -1 14992.8 357.789   7
   2   3  -1 15078.9 368.386   1
   2   3  -1 14683.0 368.824  10
   2   3   0 3842.70 150.069   7
   2   3   0 4069.91 164.832  10
   2   3   0 3790.56 144.540   2
   2   3   1 22885.1 477.501   7
   2   3   1 23632.7 465.151   2
   2   3   2 55132.1 959.694   2
   2   3   2 54852.5 989.242   3
   2   3   3 4728.01 169.033  11
   2   3   3 4522.47 146.936   2
   2   3   3 4932.71 180.354   3
   2   3   4 55247.4 1000.70  11
   2   3   4 55865.4 987.871   2
   2   3   5 4620.33 170.480   2
   2   3   5 4622.19 167.693  11
   2   3   5 4940.03 197.039   8
   2   3   6 11209.2 288.421  11
   2   3   6 10905.1 334.815   8
   2   3   7 12903.8 320.963  11
   2   3   7 13321.1 397.463   8
   2   3   8 298.172 104.333   8
   2   3   9 803.600 131.946   8
   2   3  10 10771.4 412.302   8
   2   3  11 25825.1 717.047   8
  -2  -3 -11 25163.3 646.670  26
  -2  -3 -11 25745.2 662.897  24
  -2  -3 -12 48258.4 1036.24  26
  -2  -3 -12 47766.4 1055.41  24
  -2  -3 -12 47268.1 1058.00  23
  -2  -3 -13 18014.0 538.932  24
  -2  -3 -13 16694.2 507.095  26
  -2  -3 -13 17784.8 538.679  23
  -2  -3 -14 6472.97 278.749  26
  -2  -3 -14 6023.38 283.596  24
  -2  -3 -14 6703.24 304.980  23
  -2  -3 -15 3428.79 204.391  23
  -2  -3 -16 1600.05 112.056  19
  -2  -3 -16 1400.74 122.743  23
   2   4 -13 927.647 79.6647  22
   2   4 -13 846.531 94.6834  19
   2   4 -12 8090.81 277.639  22
   2   4 -12 8344.74 299.102  19
   2   4 -11 17010.9 496.724  19
   2   4 -11 16339.7 468.503  22
   2   4 -10 656.019 118.566  22
   2   4 -10 746.967 137.892  19
   2   4  -9 273.259 115.501  19
   2   4  -8 356.664 94.9808   7
   2   4  -8 303.504 108.185  19
   2   4  -7 850.300 126.637  19
   2   4  -7 809.775 137.552   7
   2   4  -6 28020.9 731.289   7
   2   4  -6 29136.4 770.536   1
   2   4  -5 4055.30 238.910   1
   2   4  -5 3556.59 220.731   7
   2   4  -4 531.891 114.219   1
   2   4  -4 262.215 92.6348   7
   2   4  -3 58202.2 1163.63   1
   2   4  -3 59245.7 1123.05  10
   2   4  -2 46382.6 924.018   7
   2   4  -2 47120.7 958.663   1
   2   4  -2 46500.2 947.999  10
   2   4  -1 16234.3 399.135   7
   2   4  -1 14872.3 423.150  10
   2   4   0 15048.9 373.682   7
   2   4   0 14572.1 408.061  10
   2   4   0 15012.2 381.322   2
   2   4   1 12635.4 327.049   7
   2   4   1 12675.4 333.869   2
   2   4   1 12945.6 363.177  10
   2   4   2 15085.1 389.794   3
   2   4   2 15159.6 373.210   2
   2   4   3 328.213 74.7371   3
   2   4   4 76379.0 1369.38  11
   2   4   4 76887.7 1419.71   3
   2   4   5 4600.34 182.949  11
   2   4   6 29783.2 620.666  11
   2   4   6 29163.5 679.590   8
   2   4   7 31756.6 742.402   8
   2   4   8 1656.41 160.174   8
   2   4   9 8507.55 353.534   8
  -2  -4 -10 8577.84 326.377  26
  -2  -4 -10 9015.08 342.368  27
   2   4  10 8697.37 372.917   8
  -2  -4 -10 9007.37 342.858  24
  -2  -4 -11 6748.62 290.998  26
  -2  -4 -11 6106.52 286.318  27
  -2  -4 -11 6328.27 294.011  24
   2   4  11 6328.62 315.735   8
  -2  -4 -12 558.660 104.157  26
  -2  -4 -12 546.454 110.494  24
  -2  -4 -13 6341.63 277.288  26
  -2  -4 -13 6166.64 294.012  23
  -2  -4 -13 6164.16 287.459  24
  -2  -4 -14 792.933 108.141  26
  -2  -4 -14 636.147 117.783  24
  -2  -4 -14 736.681 126.915  23
  -2  -4 -15 11797.6 364.546  24
  -2  -4 -15 12189.3 373.872  23
  -2  -4 -16 15167.3 381.648  23
   2   5 -12 211.612 50.2131  21
   2   5 -12 198.488 59.5969  22
   2   5 -11 1502.20 133.866  22
   2   5 -11 1702.56 146.668  19
   2   5 -10 16646.2 487.868  22
   2   5 -10 17014.4 497.343  19
   2   5  -9 16071.4 499.123  22
   2   5  -9 16256.4 502.063  19
   2   5  -8 2729.16 204.404  19
   2   5  -8 2795.51 211.607  22
   2   5  -7 2419.22 197.850  22
   2   5  -7 2426.99 193.552   7
   2   5  -7 2299.51 186.621  19
   2   5  -6 8590.74 350.447  22
   2   5  -6 8428.15 353.211   7
   2   5  -6 8350.48 335.668  19
   2   5  -5 10021.1 367.123  22
   2   5  -5 9875.27 354.080  19
   2   5  -5 10359.1 384.468   7
   2   5  -4 4285.88 232.424   7
   2   5  -4 4101.47 246.950   1
   2   5  -4 4374.26 224.660  10
   2   5  -3 382.513 94.7557   7
   2   5  -3 438.889 109.728  10
   2   5  -3 525.982 116.451   1
   2   5  -2 122.424 72.0175   7
   2   5  -2 106.665 76.8944   1
   2   5  -2 111.013 101.825  10
   2   5  -1 9837.59 361.333  10
   2   5  -1 10286.6 324.875   7
   2   5   0 48316.4 943.713   7
   2   5   0 47059.0 1012.52  10
   2   5   1 11458.5 382.035  10
   2   5   2 60290.2 1229.68   3
   2   5   2 67663.9 1247.15  10
   2   5   3 37891.1 829.473   3
   2   5   4 14100.8 431.468   3
   2   5   5 2917.61 163.039  11
   2   5   5 2860.18 196.043   3
   2   5   6 1495.50 117.185  11
   2   5   6 1623.21 147.916   8
   2   5   7 6240.24 288.262   8
  -2  -5  -8 12888.3 416.048  27
   2   5   8 13308.7 452.827   8
  -2  -5  -8 12648.6 415.650  12
  -2  -5  -9 20310.4 568.537  27
  -2  -5  -9 20820.9 546.421  26
   2   5   9 21148.4 617.337   8
  -2  -5 -10 35668.8 812.464  26
   2   5  10 36310.9 894.154   8
  -2  -5 -10 35922.0 839.355  27
  -2  -5 -10 35327.0 843.991  24
  -2  -5 -11 27039.9 663.087  26
  -2  -5 -11 26054.9 676.529  27
  -2  -5 -11 26457.0 687.380  24
  -2  -5 -12 21288.5 559.340  26
  -2  -5 -12 21199.5 589.974  24
  -2  -5 -13 2061.15 153.102  26
  -2  -5 -13 2002.89 163.878  24
  -2  -5 -14 75.8688 60.1225  26
  -2  -5 -14 83.2759 84.5033  24
  -2  -5 -14 33.4569 83.5945  23
  -2  -5 -15 591.715 87.3798  24
  -2  -5 -15 678.193 92.9368  23
   2   6 -11 392.248 70.3574  22
   2   6 -10 896.293 113.007  22
   2   6  -9 362.127 113.201  22
   2   6  -8 10359.3 382.298  22
   2   6  -7 91.3725 99.4425  22
   2   6  -6 2299.05 193.510  22
   2   6  -5 17559.9 526.870  22
   2   6  -5 16557.2 511.741   7
   2   6  -4 6720.91 297.419   7
  -2  -6   4 7174.04 306.239  27
   2   6  -4 6613.63 299.109  22
   2   6  -3 7269.43 304.206  22
   2   6  -3 7404.79 300.647   7
   2   6  -3 7035.95 309.828  10
  -2  -6   3 7396.85 309.416  27
   2   6  -2 1667.11 143.753  22
   2   6  -2 1459.29 131.468   7
   2   6  -2 1617.43 166.584  10
   2   6  -1 4687.29 219.854   7
   2   6  -1 4538.47 253.811   1
   2   6  -1 4804.64 265.015  10
   2   6   0 15238.7 492.843  10
   2   6   1 44.8844 78.3796   3
   2   6   1 74.3032 101.987  10
   2   6   2 16268.1 503.103   3
   2   6   2 17391.1 506.369  10
   2   6   3 1379.48 151.995   3
   2   6   4 7889.58 338.275   3
   2   6   5 14610.7 432.797  11
   2   6   5 14677.0 490.061   3
  -2  -6  -6 3534.81 197.252  12
   2   6   6 3304.08 185.497  11
  -2  -6  -6 3337.53 180.653  26
  -2  -6  -6 3187.70 200.797  27
  -2  -6  -7 2990.46 199.314  27
  -2  -6  -7 2677.82 166.578  26
  -2  -6  -7 3125.89 196.734  12
   2   6   7 3028.38 218.559   8
  -2  -6  -8 7963.71 300.568  26
  -2  -6  -8 8734.81 346.842  27
  -2  -6  -8 8409.90 339.212  12
   2   6   8 8544.81 364.409   8
  -2  -6  -9 11510.1 409.485  27
  -2  -6  -9 11718.8 375.426  26
  -2  -6 -10 61.9007 59.2811  26
  -2  -6 -10 16.9001 75.0912  27
  -2  -6 -10 46.1778 75.6036  24
  -2  -6 -11 2939.64 196.520  27
  -2  -6 -11 3076.32 200.742  24
  -2  -6 -12 5.93493 79.2228  24
  -2  -6 -13 13163.9 393.288  24
  -2  -6 -14 14290.3 387.936  23
  -2  -6 -14 14346.3 379.242  24
   2   7  -9 2584.89 151.355  22
   2   7  -8 1200.45 131.594  22
   2   7  -7 3736.06 216.289  22
   2   7  -6 2638.10 190.143  22
   2   7  -5 248.750 101.061  22
  -2  -7   5 245.631 90.6471  27
  -2  -7   4 4902.30 257.931  27
   2   7  -4 5029.59 260.515  22
  -2  -7   3 9715.08 375.506  27
   2   7  -3 9497.99 361.193  22
   2   7  -2 6483.52 290.623  22
  -2  -7   2 6685.95 307.125  27
   2   7  -1 549.340 104.075  22
  -2  -7   1 580.797 120.890  27
  -2  -7   0 37527.6 876.984  27
   2   7   1 12039.0 450.875   3
   2   7   1 12985.5 402.626  16
  -2  -7  -1 13568.0 443.656  27
   2   7   2 2588.55 205.428   3
   2   7   2 2570.10 165.212  16
  -2  -7  -2 2505.58 184.565  27
  -2  -7  -3 1496.22 154.309  27
   2   7   3 1338.80 165.955   3
   2   7   4 1789.11 168.124  11
  -2  -7  -4 1613.17 158.005  27
   2   7   4 1711.82 177.574   3
   2   7   5 14959.6 454.690  11
  -2  -7  -5 14498.2 473.584  27
   2   7   5 14091.0 505.731   3
  -2  -7  -6 15008.6 463.308  12
   2   7   6 13444.7 420.353  11
  -2  -7  -6 14679.5 472.987  27
   2   7   6 14151.9 479.624   8
  -2  -7  -7 2311.59 189.060  27
  -2  -7  -7 2398.46 184.270  12
  -2  -7  -8 4880.92 260.200  27
  -2  -7  -8 4797.73 254.999  12
  -2  -7  -9 14709.1 464.661  27
  -2  -7 -10 7838.36 312.460  27
  -2  -7 -10 7819.15 315.944  24
  -2  -7 -11 29.4819 78.2661  27
  -2  -7 -11 39.9909 72.5024  24
  -2  -7 -12 42.7335 71.4514  24
  -2  -7 -13 1631.13 110.892  24
  -2  -7 -13 1489.78 117.931  23
   2   8  -8 1953.26 107.367  16
   2   8  -7 14941.3 383.186  22
   2   8  -6 2831.59 166.201  22
   2   8  -5 400.770 97.1252  22
  -2  -8   5 415.118 84.7387  27
  -2  -8   4 1116.16 131.674  27
   2   8  -4 1007.02 128.522  22
  -2  -8   3 65.1276 95.4049  27
   2   8  -3 119.327 86.9694  22
   2   8  -2 6474.39 275.985  16
  -2  -8   2 6884.98 305.494  27
   2   8  -1 1408.75 134.678  16
  -2  -8   1 1668.07 171.230  27
   2   8   0 9852.36 346.281  16
  -2  -8   0 10291.7 389.711  27
  -2  -8  -1 647.574 126.904  27
   2   8   1 625.258 93.7795  16
  -2  -8  -2 18310.1 552.253  27
  -2  -8  -3 10162.1 393.232  27
  -2  -8  -4 72.0539 95.5037  27
  -2  -8  -5 6445.59 308.924  27
  -2  -8  -6 4324.65 252.137  27
  -2  -8  -7 8503.24 343.516  27
  -2  -8  -7 8512.79 326.098  12
  -2  -8  -8 1528.11 156.262  27
  -2  -8  -9 2200.78 160.430  27
  -2  -8  -9 1951.55 152.260  24
  -2  -8 -10 1890.86 134.771  27
  -2  -8 -10 1834.35 138.990  24
  -2  -8 -11 23822.7 526.125  27
  -2  -8 -11 23639.7 536.373  24
   2   9  -4 1448.95 99.4167  16
  -2  -9   4 1531.70 110.365  27
   2   9  -3 475.452 74.0008  16
  -2  -9   3 585.576 91.2825  27
   2   9  -2 17048.8 421.629  16
  -2  -9   2 17107.9 465.029  27
   2   9  -1 5872.11 219.587  16
  -2  -9   1 6253.36 264.890  27
  -2  -9   0 34.1933 90.4301  27
  -2  -9  -1 170.642 101.664  27
  -2  -9  -2 29.8423 98.7130  27
  -2  -9  -3 2501.45 189.276  27
  -2  -9  -4 7996.88 322.137  27
  -2  -9  -5 2886.42 193.618  27
  -2  -9  -6 1047.64 125.592  27
  -2  -9  -7 10132.8 331.262  27
  -2  -9  -8 4156.87 188.605  27
  -2  -9  -8 4143.64 185.408  24
  -2  -9  -9 1053.69 92.7017  27
  -2  -9  -9 997.330 87.7353  24
  -2 -10   0 6486.60 217.074  27
  -2 -10  -1 3628.41 165.412  27
  -2 -10  -2 545.768 84.1386  27
  -2 -10  -3 7541.15 248.279  27
  -2 -10  -4 6051.44 214.107  27
  -2 -10  -5 3801.60 160.115  27
   3  -8  -5 3194.27 144.134  12
   3  -8  -4 47.0069 49.8866  12
   3  -8  -3 14792.4 395.595  12
   3  -8  -2 6795.78 254.801  12
   3  -8  -1 94.3013 69.7863  12
   3  -8   0 94.2169 74.5311  12
   3  -8   1 441.838 93.3906  12
   3  -8   2 895.563 103.241  12
   3  -8   3 6039.84 229.090  12
   3  -8   4 317.301 69.7844  12
   3  -8   5 1743.57 105.004  12
   3  -7  -7 10398.2 302.365  12
   3  -7  -6 8353.54 289.550  12
   3  -7  -6 8369.85 269.257  20
   3  -7  -5 34.9691 76.7604  12
   3  -7  -5 2.44085 81.2345  20
   3  -7  -4 7706.47 274.784  20
   3  -7  -4 8178.41 316.574  12
   3  -7  -3 248.699 99.9630  12
   3  -7  -3 254.905 87.5862  20
   3  -7  -2 4379.29 245.606  12
   3  -7  -2 4529.84 205.820  20
   3  -7  -1 29120.7 716.462  12
   3  -7  -1 26978.7 615.934  20
   3  -7   0 9585.47 371.974  12
   3  -7   1 154.516 107.523  12
   3  -7   2 9034.62 358.609  12
   3  -7   3 2389.70 188.886  12
   3  -7   5 753.527 99.0749  27
   3  -7   6 573.354 93.5289  27
   3  -7   7 1885.75 126.260  27
   3  -7   8 4008.59 165.195  27
   3  -6 -10 233.824 50.9307  14
   3  -6  -9 8390.04 253.978  14
   3  -6  -8 14221.8 377.185  20
   3  -6  -8 13526.6 366.778  14
   3  -6  -7 2847.03 175.556  12
   3  -6  -7 2883.25 176.084  20
   3  -6  -7 2746.21 156.196  14
   3  -6  -6 76.1704 75.8426  12
   3  -6  -6-59.3367 102.128  20
   3  -6  -5 20317.3 566.034  12
   3  -6  -5 20151.5 540.187  20
   3  -6  -4 16248.2 506.187  12
   3  -6  -4 17094.9 484.394  20
   3  -6  -3 635.937 127.188  12
   3  -6  -3 475.134 109.625  20
   3  -6  -2 882.432 133.298  12
   3  -6  -2 902.625 117.117  20
   3  -6  -1 322.369 104.744  12
   3  -6  -1 459.953 98.5729  20
   3  -6   0 4019.52 250.037  12
   3  -6   0 3749.99 210.898  20
   3  -6   0 3744.81 219.325  13
   3  -6   1 10330.2 373.780  13
   3  -6   2 780.048 138.687  13
   3  -6   3 6790.46 299.315  13
   3  -6   4 20118.0 546.372  27
   3  -6   4 20321.8 563.162  13
   3  -6   5 11819.7 393.623  27
   3  -6   5 11345.7 391.909  13
   3  -6   6 1719.82 154.533  27
   3  -6   6 1739.38 154.829  13
   3  -6   7 680.247 119.935  27
   3  -6   7 656.659 110.793  13
   3  -6   8 1577.38 127.631  13
   3  -6   8 1554.72 142.926  27
   3  -6   9 4758.93 220.047  27
   3  -6  10 4692.53 197.981  27
   3  -5 -11 1208.75 96.1579  14
   3  -5 -10 1365.85 119.066  14
   3  -5  -9 10374.5 338.255  14
   3  -5  -8 12646.9 396.504  14
   3  -5  -8 12394.2 375.060  20
   3  -5  -7 1.53775 91.0833  20
   3  -5  -6 3341.31 207.225  12
   3  -5  -6 3336.29 210.012  20
   3  -5  -5 2237.14 172.697  12
   3  -5  -5 2119.35 173.872  20
   3  -5  -4 14360.8 443.675  20
   3  -5  -4 14089.1 489.028   9
   3  -5  -4 14538.4 457.124  12
   3  -5  -3 23230.8 617.061  12
   3  -5  -3 23487.0 610.835  20
   3  -5  -3 22185.7 639.904   9
   3  -5  -2 5173.94 265.367  12
   3  -5  -2 5297.62 262.562  20
   3  -5  -1 1368.59 146.776  12
   3  -5  -1 1190.94 143.422  20
  -3   5   1 1746.24 237.549   4
   3  -5  -1 1351.99 132.314  13
   3  -5   0 7220.59 286.736  20
   3  -5   0 7587.57 301.010  13
  -3   5   0 7532.05 431.608   4
   3  -5   1 1732.73 140.411  20
   3  -5   1 1965.70 161.981  13
   3  -5   2 9708.38 357.127  13
  -3   5  -2 10185.9 596.160   4
  -3   5  -3 3479.14 569.884   4
   3  -5   3 2216.84 181.509  13
   3  -5   4 245.057 88.4804  27
  -3   5  -4 651.053 569.051   4
   3  -5   4 162.751 100.693  13
   3  -5   5 9440.49 360.708  27
   3  -5   5 9928.58 365.748  13
   3  -5   6 2845.07 203.825  27
   3  -5   6 2744.19 195.674  13
   3  -5   7 2498.35 191.136  27
   3  -5   7 2366.57 182.095  13
   3  -5   8 1494.01 165.918  27
   3  -5   8 1506.04 146.623  13
   3  -5   9 6342.71 296.241  27
   3  -5   9 6592.40 261.352  13
   3  -5  10 4761.39 247.584  27
   3  -5  11 575.825 108.599  27
   3  -5  12 119.584 64.3658  27
   3  -4 -12 800.262 87.9851  14
   3  -4 -11 18424.2 466.501  14
   3  -4 -10 23614.9 584.134  14
   3  -4  -9-14.5160 66.0838  20
   3  -4  -9 6.38760 81.3886  14
   3  -4  -8 7601.62 279.897  20
   3  -4  -7 26511.0 636.217  20
   3  -4  -6 9614.86 337.617  20
   3  -4  -6 9409.09 380.672   9
   3  -4  -5 67.4712 121.622  20
   3  -4  -5 72.8157 104.290   9
   3  -4  -4 778.279 110.542  12
   3  -4  -4 810.468 141.224  20
   3  -4  -4 727.998 141.923   9
   3  -4  -3 5456.09 289.402   9
  -3   4   2 25944.1 678.482   2
   3  -4  -2 22887.2 642.193   9
  -3   4   1 17584.9 458.926   2
  -3   4   1-337.154 168.991   4
  -3   4   0 4042.65 236.052   2
  -3   4  -1 51992.9 1123.93   2
  -3   4  -2 44420.9 1001.44   2
  -3   4  -3 5620.33 281.209   2
  -3   4  -4 176.690 86.0916   2
   3  -4   5 1375.80 142.949  27
   3  -4   5 1482.01 139.366  13
   3  -4   6 5867.11 277.306  27
   3  -4   6 6204.82 277.208  13
   3  -4   7 19708.5 549.405  13
   3  -4   7 19609.6 574.836  27
   3  -4   8 7589.12 335.269  27
   3  -4   8 7358.33 306.477  13
   3  -4   9 19.9392 108.136  27
   3  -4   9-30.5503 74.9264  13
   3  -4  10 7254.51 329.353  27
   3  -4  11 7569.45 329.164  27
   3  -4  12 3531.17 210.203  27
   3  -4  13 4326.61 197.339  27
   3  -3 -13 34.4571 49.7170  14
   3  -3 -12 5005.16 205.574  14
   3  -3 -11 8625.07 304.738  14
   3  -3 -10 5747.04 255.621  14
   3  -3  -9 84.9762 87.0119  14
   3  -3  -9 70.9352 78.3377  25
   3  -3  -8 4746.22 217.211  25
   3  -3  -7 925.024 105.005  20
   3  -3  -7 869.230 104.234  25
   3  -3  -6 24884.5 592.323  20
   3  -3  -6 25712.5 666.342   9
  -3   3   5 32626.6 817.714   2
   3  -3  -5 32393.0 785.421   9
  -3   3   4 10359.1 385.792   2
   3  -3  -4 9960.09 375.724   9
  -3   3   3 7998.28 321.044   2
   3  -3  -3 7623.98 318.897   9
  -3   3   2 12510.3 403.223   2
   3  -3  -2 12543.4 412.690   9
  -3   3   1 52.6431 71.2973   2
   3  -3  -1 55.5820 86.8522   9
   3  -3   0 7124.94 258.516   9
  -3   3   0 6549.01 271.732   2
  -3   3  -1 21100.7 542.442   2
  -3   3  -2 69.0036 75.3695   2
  -3   3  -3 52840.9 1079.40   2
  -3   3  -4 7.97898 165.288   4
  -3   3  -4 12118.8 340.633   2
  -3   3  -6-1027.81 680.004   4
   3  -3   8 15323.5 483.701  27
   3  -3   8 13572.2 425.420  13
   3  -3   9 814.816 133.495  27
   3  -3   9 688.557 112.741  13
   3  -3  10 967.582 155.427  27
   3  -3  10 1058.93 120.157  13
   3  -3  11 376.473 129.811  27
   3  -3  12 5221.56 278.176  27
   3  -3  13 27587.2 673.285  27
   3  -3  14 1722.70 133.739  27
   3  -2 -13 8278.91 243.125  14
   3  -2 -12 11312.5 337.599  14
   3  -2 -11 407.330 102.704  14
   3  -2 -10 10608.3 361.234  14
   3  -2 -10 11463.6 358.793  25
   3  -2  -9 26270.1 623.149  25
   3  -2  -9 24904.3 630.890  14
   3  -2  -8 3418.60 197.703  14
   3  -2  -8 3351.65 193.759  25
   3  -2  -7 5033.00 224.210  25
  -3   2   6 8805.56 356.716   2
  -3   2   5 7842.98 321.711   2
   3  -2  -5 8183.29 286.516   6
   3  -2  -5 7692.24 307.649   9
  -3   2   4 10108.8 355.235   2
   3  -2  -4 10981.1 332.661   6
   3  -2  -4 10644.4 360.234   9
   3  -2  -3 5100.29 207.799   6
  -3   2   3 4724.76 221.902   2
   3  -2  -3 5035.03 236.262   9
   3  -2  -2 10749.0 314.192   6
  -3   2   2 10631.7 335.345   2
  -3   2   2 11202.9 321.518   4
   3  -2  -2 10688.9 347.470   9
  -3   2   1 69468.3 1292.99   2
  -3   2   1 72132.3 1298.61   4
   3  -2  -1 71155.8 1274.91   6
   3  -2   0 56914.2 1091.43   6
  -3   2   0 59942.7 1114.49   2
   3  -2   0 59876.2 1103.18   9
  -3   2   0 60321.2 1137.19   4
  -3   2  -1 2322.25 157.316   4
  -3   2  -1 2551.01 140.558   2
  -3   2  -2 6169.04 254.674   4
  -3   2  -2 5816.16 217.330   2
  -3   2  -3 9671.02 334.736   4
  -3   2  -3 8112.62 271.801   2
  -3   2  -4 2124.76 189.957   4
  -3   2  -4 1719.99 124.310   2
  -3   2  -5 7289.42 365.759   4
   3  -2   6 4187.93 219.082   8
   3  -2   7 709.059 127.766   8
   3  -2   8 9829.93 381.961   8
   3  -2   9 15310.5 483.917  27
   3  -2   9 14489.5 441.652  18
   3  -2   9 14089.5 490.280   8
   3  -2  10 4364.14 276.525   8
   3  -2  10 4742.81 272.238  27
   3  -2  10 4446.29 220.142  13
   3  -2  11 15352.4 512.879  27
   3  -2  12 2666.79 210.598  27
   3  -2  13 2516.34 204.938  27
   3  -2  14 997.620 128.937  27
   3  -2  15 670.993 91.4654  27
   3  -1 -12 9969.20 312.020  14
   3  -1 -11 512.182 98.4544  14
   3  -1 -10 805.396 112.874  14
   3  -1 -10 738.495 150.789  25
   3  -1  -9 9399.85 334.183  14
   3  -1  -9 9298.70 339.796  25
   3  -1  -8 38337.3 871.350   6
   3  -1  -8 37911.4 824.127  25
   3  -1  -8 37053.6 822.764  14
   3  -1  -7 11595.6 392.618   6
  -3   1   6 9633.00 362.951   2
   3  -1  -6 9573.75 338.974   6
  -3   1   5 5247.64 240.852   2
   3  -1  -5 4957.73 225.209   6
  -3   1   4 30876.0 692.928   2
   3  -1  -4 30556.3 677.655   6
  -3   1   3 15887.2 413.017   2
   3  -1  -3 15745.0 410.163   6
  -3   1   2 2638.55 139.961   2
   3  -1  -2 2922.83 151.343   6
   3  -1  -1 3743.95 143.558  11
   3  -1  -1 3434.71 161.354   6
  -3   1   1 3613.95 154.585   2
   3  -1   0 7328.13 215.115  11
   3  -1   0 7321.75 233.097   6
  -3   1   0 7143.18 211.751   2
   3  -1   1 144877. 2424.28  11
   3  -1   1 145091. 2440.12   6
  -3   1  -1 146432. 2406.76   2
   3  -1   2 2396.96 130.878  11
  -3   1  -2 2472.55 114.461   2
   3  -1   3 1653.68 113.567  11
  -3   1  -3 1740.42 101.344   2
   3  -1   4 40171.7 789.545  11
   3  -1   4 40022.3 792.094   8
   3  -1   5 51132.5 978.937  11
  -3   1  -5 51716.5 1012.39   4
   3  -1   5 50936.3 999.514   8
   3  -1   6 60708.5 1162.26  11
   3  -1   6 58136.6 1193.24   8
   3  -1   7 18.6903 66.4337  11
  -3   1  -7-10.2706 134.926   4
   3  -1   7 52.3594 81.9978   8
   3  -1   8 3926.34 233.464   8
   3  -1   9 10458.5 405.765   8
   3  -1  10 5666.16 256.847  18
   3  -1  10 5549.23 303.508   8
  -3   1 -10 5677.80 272.031  23
   3  -1  11 26967.3 671.414  18
   3  -1  11 27767.3 768.685   8
   3  -1  12 88.4150 106.753  27
   3  -1  13 12434.8 442.020  27
   3  -1  14 9353.68 355.318  27
   3  -1  15 1359.15 131.194  27
   3  -1  16 192.273 56.9516  27
   3   0 -13 3370.40 154.037  19
   3   0 -12 6471.97 248.329  19
   3   0 -11 4372.26 214.871  19
   3   0 -11 4518.15 212.217  14
   3   0 -10 85.9456 71.6644  19
   3   0 -10 8.57217 67.9724  14
   3   0  -9 1874.30 151.161  19
   3   0  -9 2033.73 155.054  14
   3   0  -9 2105.57 190.704  25
   3   0  -8 628.534 107.524  14
   3   0  -8 790.295 132.229  25
   3   0  -7 9927.25 381.196   1
   3   0  -6 18224.2 524.822   1
   3   0  -5 1684.47 138.871   1
   3   0  -4 27607.9 626.601   1
   3   0  -3 55920.9 1068.02   6
   3   0  -3 55868.6 1049.23   1
  -3   0   2 11806.3 300.818   2
   3   0  -2 11741.8 303.342   1
   3   0  -2 12142.6 328.640   6
   3   0  -1 153.698 49.9969  11
   3   0  -1 33.0569 62.8399   6
  -3   0   1 0.04455 34.8960   2
   3   0   0 2638.44 115.363  11
   3   0   0 2440.94 129.530   6
  -3   0   0 2543.45 95.3595   2
   3   0   1 65.8954 54.3628  11
   3   0   1 35.5322 57.0102   6
   3   0   2 8853.32 247.731   6
   3   0   2 8897.01 245.338  11
   3   0   3 49186.9 921.447  11
   3   0   3 51051.8 900.000   8
   3   0   4 5031.84 183.448  11
   3   0   4 4731.89 175.790   8
   3   0   5 861.561 90.5633  11
   3   0   5 839.145 91.1204   8
   3   0   6 19148.1 443.932  11
   3   0   6 18737.5 472.797   8
   3   0   7 14098.2 366.412  11
   3   0   7 14166.9 415.683   8
   3   0   8 8248.67 262.215  11
   3   0   8 8089.57 320.482   8
   3   0   9 13886.5 460.879   8
   3   0  10 1841.52 149.850  18
   3   0  10 2150.76 196.173   8
  -3   0 -11 8984.11 329.458  26
   3   0  11 9260.75 331.397  18
   3   0  11 9237.57 396.537   8
  -3   0 -11 9630.84 364.528  23
   3   0  12 9786.21 341.061  18
  -3   0 -12 9786.24 381.239  23
  -3   0 -13 1191.75 147.933  23
   3   0  13 1157.76 118.823  18
   3   0  14 1825.68 175.782  27
   3   0  15 10201.0 346.153  27
   3   0  16 6519.69 230.812  27
   3   1 -13 259.532 64.9085  19
   3   1 -12 314.197 85.5344  19
   3   1 -11 14117.7 424.930  19
   3   1 -10 56894.5 1160.46  19
   3   1  -9 1038.27 121.215  19
   3   1  -9 1239.54 121.240  14
   3   1  -8 1030.37 119.913  14
   3   1  -8 1100.27 129.939  19
   3   1  -8 1208.50 155.688  25
   3   1  -7 21016.1 601.164   1
   3   1  -6 11539.4 393.216   1
   3   1  -6 11545.0 373.582   7
   3   1  -5 1073.87 119.302   1
   3   1  -5 1037.98 109.261   7
   3   1  -4 357.536 74.7887   7
   3   1  -4 370.639 78.0251   1
   3   1  -3 960.475 87.4744   7
   3   1  -3 839.251 87.4739   1
   3   1  -2 8134.04 230.275   7
   3   1  -1 224183. 3660.86   7
   3   1  -1 228207. 3645.96  11
   3   1  -1 223610. 3701.39   6
   3   1   0 714.680 69.7221  11
   3   1   0 506.582 75.5612   6
   3   1   0 595.640 63.7789   7
   3   1   1 88443.7 1506.68  11
   3   1   1 88411.1 1515.11   6
   3   1   2 115869. 1949.66   6
   3   1   2 117132. 1956.23  11
   3   1   3 8839.09 247.169  11
   3   1   3 9127.94 224.280   8
   3   1   4 17335.8 392.989  11
   3   1   4 16947.2 381.564   8
   3   1   5 235.277 64.1336  11
   3   1   5 269.802 67.1919   8
   3   1   6 1746.55 127.766   8
   3   1   6 1797.29 114.675  11
   3   1   7 19703.8 449.105  11
   3   1   7 19325.0 500.685   8
   3   1   8 6872.37 228.495  11
   3   1   8 7035.69 289.993   8
   3   1   9 19740.6 560.296   8
   3   1  10 4342.00 254.920   8
   3   1  11 24623.1 610.946  18
  -3  -1 -11 25103.3 629.812  26
  -3  -1 -11 25517.2 650.181  23
   3   1  11 25197.9 704.356   8
  -3  -1 -12 5915.69 271.792  26
   3   1  12 5273.40 299.468   8
   3   1  12 5366.53 242.394  18
  -3  -1 -12 5619.37 281.277  23
  -3  -1 -13 188.562 90.1092  26
  -3  -1 -13 231.412 102.331  23
  -3  -1 -14 671.680 120.652  23
   3   1  15 1161.03 131.504  27
  -3  -1 -15 938.349 127.018  23
   3   1  16 3819.80 179.021  27
   3   2 -13 2188.43 128.991  19
   3   2 -12 315.699 94.6033  19
   3   2 -11 4070.59 221.845  19
   3   2 -10 100.312 95.2873  19
   3   2  -9 5664.95 272.562  19
   3   2  -8 13783.5 460.314   7
   3   2  -8 14357.6 448.412  19
   3   2  -7 5220.67 273.605   7
   3   2  -6 13508.4 449.190   7
   3   2  -6 13831.5 446.871   1
   3   2  -5 70402.1 1396.64   7
   3   2  -5 72519.4 1388.84   1
   3   2  -4 33183.8 733.039   7
   3   2  -4 31758.3 711.615   1
   3   2  -3 1702.32 124.989   7
   3   2  -2 3593.67 163.753   7
   3   2  -2 3658.03 133.344  11
   3   2  -1 473.523 72.7573   7
   3   2  -1 491.837 61.4112  11
   3   2   0 5551.72 186.140   7
   3   2   0 5410.57 177.307  11
   3   2   0 5342.33 181.883   6
   3   2   1 45671.2 856.625  11
   3   2   1 47934.7 850.372   6
   3   2   2 6700.68 189.796   6
   3   2   2 6770.71 209.481  11
   3   2   3 8386.44 213.564   6
   3   2   3 8452.61 241.873  11
   3   2   3 7919.98 211.803   8
   3   2   4 70241.7 1239.44  11
   3   2   4 69177.3 1223.56   8
   3   2   5 46985.9 876.405  11
   3   2   5 45489.8 880.077   8
   3   2   6 2280.02 126.193  11
   3   2   6 2217.63 139.915   8
   3   2   7 70598.3 1253.55  11
   3   2   7 68142.7 1317.37   8
   3   2   8 10290.3 288.005  11
   3   2   8 9930.79 350.482   8
   3   2   9 4133.52 232.954   8
   3   2  10 8398.62 357.900   8
  -3  -2 -11 1576.59 144.225  26
   3   2  11 1612.55 132.555  18
   3   2  11 1469.79 175.454   8
  -3  -2 -11 1500.83 144.623  23
   3   2  12 11139.5 359.571  18
   3   2  12 11284.3 438.708   8
  -3  -2 -12 11232.0 404.391  23
  -3  -2 -12 11499.9 395.740  26
  -3  -2 -12 11589.5 391.332  24
  -3  -2 -13 29390.5 724.976  26
  -3  -2 -13 29489.0 743.824  23
  -3  -2 -14 8138.22 320.888  26
  -3  -2 -14 8462.75 336.751  23
  -3  -2 -15 2060.39 166.143  23
   3   2  16 10192.5 305.836  27
  -3  -2 -16 9999.78 315.092  23
   3   3 -13 4215.51 164.486  19
   3   3 -12 26686.8 606.680  19
   3   3 -11 848.061 124.947  19
   3   3 -10 1908.28 171.617  19
   3   3  -9 9301.52 333.729  22
   3   3  -9 9572.47 370.261  19
   3   3  -8 4597.16 263.912   7
   3   3  -8 4681.38 259.078  19
   3   3  -7 286.449 109.223   7
   3   3  -7 219.929 108.098  19
   3   3  -6 4302.80 255.936   7
   3   3  -5 1461.95 156.983   7
   3   3  -4 49.2990 94.9710   7
   3   3  -3 68376.6 1311.63   7
   3   3  -2 234.240 80.5611   7
   3   3  -2 210.476 55.3930  11
   3   3  -1 27495.2 603.149   7
   3   3  -1 28486.7 582.904  11
   3   3   0 70176.9 1255.45   7
   3   3   0 69350.8 1245.01  11
   3   3   0 68991.7 1220.31   6
   3   3   1 11109.2 270.262   6
   3   3   1 11516.3 312.092  11
   3   3   1 11924.0 313.480   7
   3   3   2 7828.85 244.204  11
   3   3   3 1865.60 119.340  11
   3   3   3 1953.66 105.472   8
   3   3   4 1265.67 102.302  11
   3   3   4 1276.64 96.5406   8
   3   3   5 10860.4 306.233  11
   3   3   5 10933.7 311.586   8
   3   3   6 1538.32 122.950   8
   3   3   6 1714.18 116.731  11
   3   3   7 19704.8 520.083   8
   3   3   7 20901.7 479.652  11
   3   3   8 774.416 87.4925  11
   3   3   8 772.241 116.140   8
   3   3   9 25729.2 672.726   8
   3   3  10 16178.5 518.375   8
  -3  -3 -10 16208.6 469.139  26
  -3  -3 -11-2.33933 76.9511  26
   3   3  11 52.4266 103.888   8
  -3  -3 -12 2170.44 176.122  26
  -3  -3 -12 2213.77 170.621  24
  -3  -3 -12 2510.31 188.152  23
  -3  -3 -13 2228.05 182.262  23
  -3  -3 -13 2332.57 178.840  26
  -3  -3 -13 2115.64 164.125  24
  -3  -3 -14 5082.01 251.262  26
  -3  -3 -14 5506.54 269.095  23
  -3  -3 -15 6893.22 280.486  23
  -3  -3 -16 4152.48 158.335  19
  -3  -3 -16 4287.90 191.873  23
   3   4 -12 549.940 72.7611  21
   3   4 -12 435.069 79.6243  19
   3   4 -11 8658.08 273.307  22
   3   4 -11 8943.49 310.878  19
   3   4 -10 4673.44 220.046  22
   3   4 -10 5124.14 256.108  19
   3   4  -9 140.766 85.1123  22
   3   4  -9 87.0076 107.014  19
   3   4  -8 18971.4 549.021  22
   3   4  -8 19509.8 570.844  19
   3   4  -7 30927.5 768.094  22
   3   4  -7 32033.7 813.753   7
   3   4  -7 31230.9 777.038  19
   3   4  -6 4984.18 260.267  22
   3   4  -6 5022.42 282.714   7
   3   4  -6 5184.46 263.297  19
   3   4  -5 3523.57 235.455   7
   3   4  -4 4019.96 237.170   7
   3   4  -3 3472.05 212.019   7
   3   4  -2 11540.3 370.140   7
   3   4  -2 11861.8 342.818  11
   3   4  -1 9021.64 305.089   7
   3   4  -1 9265.91 303.795  11
   3   4   0 10777.6 325.908   7
   3   4   0 11005.5 339.671  11
   3   4   1 34516.3 717.508   7
   3   4   1 34002.6 737.604  11
   3   4   2 20432.6 503.668  11
   3   4   3 5419.51 222.766  11
   3   4   4 533.659 94.1732  11
   3   4   4 627.352 86.4367   8
   3   4   5 49991.1 990.175  11
   3   4   5 51618.3 1003.90   8
   3   4   6 19790.3 481.800  11
   3   4   6 19572.3 508.695   8
   3   4   7 1851.06 153.117   8
   3   4   7 2057.78 137.378  11
   3   4   8 64.6249 84.7333   8
  -3  -4  -9 702.747 115.001  27
  -3  -4  -9 624.729 103.321  26
   3   4   9 632.830 120.998   8
  -3  -4 -10 17382.5 517.867  27
  -3  -4 -10 17218.2 496.660  26
   3   4  10 17504.4 549.488   8
  -3  -4 -11 17092.9 507.617  26
   3   4  11 17413.5 557.442   8
  -3  -4 -12 1466.72 151.376  26
  -3  -4 -12 1262.17 132.323  24
  -3  -4 -13 16.8048 82.9796  26
  -3  -4 -13 0.61652 66.4470  24
  -3  -4 -13 51.4995 90.9510  23
  -3  -4 -14 6781.88 275.625  26
  -3  -4 -14 6767.66 268.324  24
  -3  -4 -14 6991.19 289.236  23
  -3  -4 -15 3127.92 169.828  26
  -3  -4 -15 3128.39 178.588  23
  -3  -4 -16 178.250 59.3502  23
   3   5 -11 2340.38 124.604  22
   3   5 -11 2420.57 125.104  21
   3   5 -10 1.23697 59.3761  21
   3   5 -10-13.0802 67.9641  22
   3   5 -10 26.9612 82.2301  19
   3   5  -9 592.231 109.528  22
   3   5  -9 514.523 126.214  19
   3   5  -8 189.816 106.470  22
   3   5  -8 74.9707 109.344  19
   3   5  -7 1211.61 153.506  22
   3   5  -7 1159.01 156.777  19
   3   5  -6 3584.15 232.675  22
   3   5  -6 3214.63 222.995   7
   3   5  -6 3269.42 225.702  19
   3   5  -5 43039.9 974.700  22
   3   5  -5 42412.2 1005.20   7
   3   5  -5 42980.6 965.238  19
   3   5  -4 1130.53 142.536  22
   3   5  -4 1182.90 148.134   7
   3   5  -4 1035.38 136.841  19
   3   5  -3 26819.1 690.962   7
   3   5  -2 32680.3 782.418   7
   3   5  -2 35238.3 772.413  11
   3   5  -1 2862.69 182.523   7
   3   5  -1 2625.87 185.814  11
   3   5   0 4978.24 226.543   7
   3   5   0 4750.62 247.886  11
   3   5   1 1145.74 144.531  11
   3   5   2 2362.41 180.747  11
   3   5   3 45939.6 977.451  11
   3   5   4 12984.0 401.371  11
   3   5   5 1749.40 145.466  11
   3   5   5 1938.23 151.623   8
   3   5   6 15901.0 438.290  11
   3   5   6 15209.1 458.802   8
   3   5   7 25038.3 591.351  11
   3   5   7 24492.6 644.653   8
  -3  -5  -8 8964.59 338.091  27
  -3  -5  -8 8915.37 319.697  26
   3   5   8 8614.83 355.674   8
  -3  -5  -9-17.8691 85.8945  27
  -3  -5  -9 8.25482 79.5435  26
   3   5   9 65.8804 85.4758   8
   3   5  10 1851.96 179.452   8
  -3  -5 -10 1717.28 152.360  26
  -3  -5 -10 1749.67 170.140  27
  -3  -5 -11 7373.71 324.639  27
  -3  -5 -11 7373.46 308.150  26
  -3  -5 -11 7262.02 298.455  24
  -3  -5 -12 17327.8 499.034  26
  -3  -5 -12 17138.1 486.497  24
  -3  -5 -13 10729.5 360.649  26
  -3  -5 -13 11010.1 355.056  24
  -3  -5 -13 11438.0 382.916  23
  -3  -5 -14 327.940 82.4283  26
  -3  -5 -14 260.134 69.8020  24
  -3  -5 -14 197.269 88.4770  23
  -3  -5 -15 6868.46 228.164  26
  -3  -5 -15 7040.88 244.545  23
   3   6 -10 10779.2 297.858  22
   3   6  -9 14279.9 365.825  21
   3   6  -9 14418.1 402.898  22
   3   6  -8 88.8914 89.5363  22
   3   6  -8-68.2853 59.8979  21
   3   6  -7 11558.8 405.398  22
   3   6  -7 11054.3 351.691  21
   3   6  -6 3259.18 224.981  22
   3   6  -5 637.779 134.768  22
   3   6  -4 118.104 99.3231  22
   3   6  -4 187.878 89.5238   7
   3   6  -3 3704.34 230.482   7
   3   6  -3 4058.72 242.246  22
   3   6  -2 2277.79 176.413   7
   3   6  -2 2199.05 167.628  11
   3   6  -2 2266.72 181.337  22
   3   6  -1 26090.8 685.063  11
   3   6  -1 26736.1 664.012  22
   3   6  -1 25872.5 660.529   7
   3   6   0 15318.8 453.627  22
   3   6   0 14390.2 490.189  11
   3   6   1 132.487 113.247  11
   3   6   2 3832.22 247.732  11
   3   6   3 16638.0 521.641  11
   3   6   4 902.874 128.765  11
   3   6   4 804.729 125.496   3
   3   6   5 30.6164 80.1481  11
   3   6   5 83.8712 50.2149  16
  -3  -6  -5 40.6430 72.9518  27
   3   6   5-78.2991 75.5013   8
   3   6   6 386.377 99.6369  11
  -3  -6  -6 317.611 96.0692  27
   3   6   6 341.543 77.6133  16
   3   6   6 304.202 98.3678   8
   3   6   7 272.021 84.3859  11
  -3  -6  -7 291.339 97.3307  27
   3   6   7 196.088 65.6484  16
  -3  -6  -7 228.430 86.2514  26
   3   6   7 168.094 97.4866   8
  -3  -6  -8 14369.7 464.431  27
  -3  -6  -8 14511.9 438.758  26
   3   6   8 13892.7 475.808   8
  -3  -6  -9 19655.3 572.602  27
  -3  -6  -9 20063.0 546.216  26
  -3  -6 -10 464.116 112.467  27
  -3  -6 -10 347.183 88.2256  26
  -3  -6 -11 4554.03 247.028  27
  -3  -6 -11 4627.55 230.264  26
  -3  -6 -11 4609.40 222.902  24
  -3  -6 -12 3703.87 200.955  26
  -3  -6 -12 3508.98 191.341  24
  -3  -6 -13 509.504 86.0782  26
  -3  -6 -13 542.528 79.9160  24
  -3  -6 -13 620.477 102.074  23
  -3  -6 -14 330.235 63.4628  26
  -3  -6 -14 413.548 84.7427  23
   3   7  -9 1239.21 83.8044  16
   3   7  -9 1403.74 97.8144  22
   3   7  -8 1694.60 131.132  22
   3   7  -7 17631.5 484.917  22
   3   7  -6 670.215 131.937  22
   3   7  -5 17863.3 533.942  22
   3   7  -4 24931.4 668.213  22
   3   7  -3 3858.01 237.110  22
   3   7  -2 447.553 109.159  22
  -3  -7   1 3029.33 206.021  27
   3   7  -1 2881.95 206.843  22
   3   7   0 3215.30 229.480  11
   3   7   0 3222.18 206.578  16
  -3  -7   0 2925.74 204.139  27
   3   7   1 15130.7 523.808  11
   3   7   1 15045.3 465.973  16
  -3  -7  -1 15788.1 487.336  27
   3   7   2 5264.11 300.520  11
   3   7   2 5084.88 249.276  16
  -3  -7  -2 5446.01 272.904  27
   3   7   3 71.0007 83.5624  11
   3   7   3 108.211 66.4207  16
  -3  -7  -3 87.1872 102.720  27
   3   7   4 21881.4 625.233  11
   3   7   4 20982.9 556.581  16
  -3  -7  -4 20697.7 590.698  27
   3   7   5 27413.8 710.503  11
   3   7   5 28231.8 669.721  16
  -3  -7  -5 27828.1 712.650  27
   3   7   6 4509.65 217.660  16
  -3  -7  -6 4256.79 224.158  26
  -3  -7  -6 4577.78 255.492  27
  -3  -7  -7 6976.87 313.451  27
  -3  -7  -7 6818.83 284.986  26
  -3  -7  -8 8822.35 356.272  27
  -3  -7  -8 8772.00 324.909  26
  -3  -7  -9 6099.26 292.837  27
  -3  -7  -9 6349.16 266.098  26
  -3  -7 -10 6883.31 299.657  27
  -3  -7 -10 7011.74 272.941  26
  -3  -7 -11 5787.76 261.402  27
  -3  -7 -11 5950.77 236.270  26
  -3  -7 -12 92.6758 55.3412  26
  -3  -7 -13 9709.22 289.741  23
   3   8  -7 182.803 54.3644  16
   3   8  -6-16.8706 59.7938  16
   3   8  -5 146.872 82.7113  16
   3   8  -4 1054.29 133.366  16
   3   8  -3 8308.22 326.653  16
   3   8  -2 4402.21 235.646  16
  -3  -8   2 4267.54 224.212  27
   3   8  -1-8.43858 80.1223  16
  -3  -8   1-22.2529 78.6649  27
   3   8   0 485.066 105.602  16
  -3  -8   0 570.185 121.012  27
   3   8   1 4905.71 245.906  16
  -3  -8  -1 5657.70 282.662  27
   3   8   2 2801.28 181.128  16
  -3  -8  -2 2593.00 196.372  27
   3   8   3 300.473 83.3266  16
  -3  -8  -3 320.540 111.080  27
   3   8   4 836.211 108.679  16
  -3  -8  -4 896.017 137.627  27
   3   8   5 312.441 68.4703  16
  -3  -8  -5 287.242 110.562  27
  -3  -8  -5 274.710 84.7908  26
  -3  -8  -6 6989.68 312.104  27
  -3  -8  -6 6575.65 261.477  26
  -3  -8  -7 9085.79 356.817  27
  -3  -8  -8 1570.22 156.600  27
  -3  -8  -9 5054.19 244.143  27
  -3  -8 -10 5849.65 246.122  27
  -3  -8 -11 2323.33 141.669  27
   3   9  -4 425.935 66.8213  16
   3   9  -3 1410.28 110.958  16
  -3  -9   2 3810.43 177.694  27
   3   9  -2 3692.66 176.531  16
   3   9  -1 6761.50 253.766  16
  -3  -9   1 7222.48 269.937  27
   3   9   0 151.360 66.2024  16
  -3  -9   0 199.656 87.1309  27
   3   9   1 2248.87 146.196  16
  -3  -9  -1 2140.90 173.191  27
   3   9   2 9766.30 307.789  16
  -3  -9  -2 10709.2 368.238  27
  -3  -9  -3 3205.19 206.218  27
  -3  -9  -4 260.380 96.9929  27
  -3  -9  -5 3626.98 208.939  27
  -3  -9  -6 3557.24 203.497  27
  -3  -9  -7 5628.46 241.682  27
  -3  -9  -8 4968.53 213.656  27
  -3  -9  -9 1645.77 118.248  27
  -3  -9 -10 1975.49 111.253  27
  -3 -10  -2 726.428 80.8008  27
  -3 -10  -3 2174.90 125.925  27
  -3 -10  -4 7559.26 241.342  27
  -3 -10  -5 1807.10 113.602  27
   4  -7  -5 7305.47 213.732  20
   4  -7  -4 461.982 72.0970  12
   4  -7  -4 479.099 76.0947  20
   4  -7  -3 3253.09 161.994  12
   4  -7  -3 3153.51 150.934  20
   4  -7  -2 2510.25 155.276  12
   4  -7  -2 2410.21 134.177  20
   4  -7  -1 900.407 112.996  12
   4  -7  -1 827.412 89.1422  20
   4  -7   0 725.632 105.353  12
   4  -7   1 41.5359 75.1463  12
   4  -7   2 5917.84 250.285  12
   4  -7   3 13596.6 397.425  12
   4  -7   4 2871.00 167.850  12
   4  -7   5 1830.79 132.561  12
   4  -7   6 7800.00 254.891  12
   4  -6  -7 1262.74 97.6181  20
   4  -6  -6 1831.39 129.310  20
   4  -6  -5 7599.28 272.034  20
   4  -6  -4 5007.86 228.278  12
   4  -6  -4 5424.11 238.233  20
   4  -6  -3 4913.28 234.608  12
   4  -6  -3 4939.65 237.975  20
   4  -6  -2 8638.31 327.969  12
   4  -6  -2 8473.75 312.227  20
   4  -6  -1 36701.9 841.806  12
   4  -6  -1 36329.8 796.805  20
   4  -6   0 756.038 126.067  12
   4  -6   0 735.290 121.942  20
   4  -6   1 240.889 97.4819  12
   4  -6   1 130.320 109.610  20
   4  -6   1 264.960 96.4351  13
   4  -6   2 1983.68 176.109  12
   4  -6   2 2057.17 166.812  13
   4  -6   3 589.872 117.484  13
   4  -6   4 1425.40 155.756  13
   4  -6   5 5705.20 260.333  13
   4  -6   6 4703.37 230.769  13
   4  -6   7 1383.99 129.594  13
   4  -6   8 22230.2 506.204  13
   4  -6   9 330.344 57.5098  27
   4  -6   9 453.708 64.4223  13
   4  -5  -9 7929.58 237.330  14
   4  -5  -8 17127.0 404.048  20
   4  -5  -8 16690.6 419.035  14
   4  -5  -7 5975.99 232.582  20
   4  -5  -7 5584.15 224.452  14
   4  -5  -6 5673.52 248.673  20
   4  -5  -5 15594.4 459.616  20
   4  -5  -4 3373.10 214.570  20
   4  -5  -3 848.958 120.917  12
   4  -5  -3 618.876 173.595  20
   4  -5  -2 164.978 88.9285  12
   4  -5  -2-10.3916 165.563  20
   4  -5  -1 156.007 91.9960  12
   4  -5  -1 9.61917 155.867  20
   4  -5  -1 222.176 86.5048  13
   4  -5   0 9386.14 358.191  20
   4  -5   0 9499.08 369.246  12
   4  -5   0 9485.55 339.244  13
   4  -5   1 26379.5 646.431  20
   4  -5   1 25575.1 648.428  13
   4  -5   2 2959.32 198.538  20
   4  -5   2 2962.40 199.833  13
   4  -5   3 9683.93 364.499  13
   4  -5   4 24249.4 642.671  13
   4  -5   5 5406.31 275.875  13
   4  -5   6 1059.40 147.713  13
   4  -5   7 136.582 96.7769  13
   4  -5   8 42.7114 64.8645  27
   4  -5   8 10.2660 87.3190  13
   4  -5   9 67.6693 74.9700  27
   4  -5   9 43.8611 77.8044  13
   4  -5  10 7927.25 275.473  27
   4  -5  10 8390.40 258.212  13
   4  -5  11 1019.72 93.0344  27
   4  -4 -11 1740.15 98.8596  14
   4  -4 -10 162.227 67.6360  14
   4  -4  -9 3772.05 190.237  14
   4  -4  -8 6717.10 239.299  20
   4  -4  -8 7330.01 285.340  14
   4  -4  -7 10794.8 339.796  20
   4  -4  -7 10627.1 369.208  14
   4  -4  -7 10588.8 333.336  25
   4  -4  -6 6026.58 261.671  20
   4  -4  -6 5691.24 269.652  14
   4  -4  -5 3723.79 222.919  20
   4  -4  -5 2919.80 193.013  14
   4  -4  -4 15220.9 478.590  20
   4  -4  -3 79986.2 1543.60  20
   4  -4  -2 632.180 151.697  20
   4  -4  -1 327.049 127.087  20
   4  -4   0 13478.8 426.322  20
   4  -4   0 12788.7 396.257  13
   4  -4   1 13027.6 411.357  20
   4  -4   1 12481.8 399.120  13
   4  -4   2 6878.59 282.025  20
   4  -4   2 7086.74 293.479  13
   4  -4   3 2276.47 164.312  20
   4  -4   3 2463.61 179.690  13
   4  -4   4 2576.81 193.458  13
   4  -4   5 4612.49 249.830  13
   4  -4   6 64601.4 1318.73  13
   4  -4   7 1531.80 147.790  27
   4  -4   7 1847.30 171.844  13
   4  -4   8 6027.99 284.787  27
   4  -4   8 6427.11 293.354  13
   4  -4   9 14704.1 463.192  27
   4  -4   9 15116.9 454.997  13
   4  -4  10 5577.72 264.894  27
   4  -4  10 5903.90 249.890  13
   4  -4  11 4650.97 227.858  27
   4  -4  11 4943.64 201.535  13
   4  -4  12 283.710 83.2427  27
   4  -4  13 94.3309 51.7781  27
   4  -3 -11 11548.7 317.690  14
   4  -3 -10 7383.26 268.312  14
   4  -3  -9 251.519 102.291  25
   4  -3  -9 148.009 88.8167  14
   4  -3  -8 7203.52 298.530  14
   4  -3  -8 7551.41 288.035  25
   4  -3  -7 7913.27 323.215  14
   4  -3  -7 7644.15 301.640  25
   4  -3  -6 894.695 119.858  20
   4  -3  -6 827.452 130.441  14
   4  -3  -5 169.014 133.225  20
   4  -3  -5 306.033 105.752  14
   4  -3  -4 191.180 130.760  20
   4  -3  -4-33.8012 291.092  17
   4  -3  -4 191.454 100.770  14
   4  -3  -3 652.470 143.606  20
   4  -3  -3 496.865 271.442  17
   4  -3  -2 16126.3 456.307  20
   4  -3  -2 13683.6 451.604  17
  -4   3  -5 769.586 235.937   4
   4  -3   5 944.879 126.201  13
   4  -3   6 300.961 103.987  13
   4  -3   7 1665.31 152.642  27
   4  -3   7 1629.49 159.767  13
   4  -3   8 12538.7 432.141  27
   4  -3   8 12970.0 430.137  13
   4  -3   9 590.920 123.570  27
   4  -3   9 672.338 118.337  13
   4  -3  10 2689.17 209.456  27
   4  -3  10 3357.33 202.496  13
   4  -3  11 11552.8 408.168  27
   4  -3  11 11807.0 369.900  13
   4  -3  12 3350.09 207.691  27
   4  -3  13 2284.60 154.641  27
   4  -3  14 1005.46 93.6258  27
   4  -2 -12 1443.75 97.7719  14
   4  -2 -11 4186.50 187.597  14
   4  -2 -10 8249.42 299.317  14
   4  -2 -10 8458.48 296.397  25
   4  -2  -9 11703.6 384.164  14
   4  -2  -9 12367.9 384.841  25
   4  -2  -8 4955.69 248.950  14
   4  -2  -8 5551.27 268.444  25
   4  -2  -7 112.927 78.4618  14
   4  -2  -7-42.1842 129.633  25
   4  -2  -6 35045.0 825.535  14
   4  -2  -5 98698.3 1746.43  20
   4  -2  -5 100024. 1810.33   6
   4  -2  -5 100776. 1833.91  14
   4  -2  -4 14186.0 431.024   6
   4  -2  -3 8213.25 306.709   6
  -4   2   2 13132.8 398.918   4
   4  -2  -2 11719.1 377.262   6
   4  -2  -1 11986.0 378.183   6
  -4   2   1 13284.6 408.192   4
  -4   2   0 16946.1 491.808   4
  -4   2  -1 314.283 106.873   4
  -4   2  -2 2036.04 180.056   4
  -4   2  -3 17247.9 526.442   4
  -4   2  -4 108225. 2062.16   4
  -4   2  -5 2483.33 257.850   4
   4  -2   7 19168.7 521.247  18
   4  -2   8 3037.95 199.095  18
   4  -2   8 2908.49 199.304  27
   4  -2   9 6115.36 297.869  27
   4  -2   9 5964.23 281.919  18
   4  -2   9 6070.24 279.154  13
   4  -2  10 176.441 105.029  27
   4  -2  10 235.350 90.6928  13
   4  -2  11 3126.94 227.807  27
   4  -2  11 3093.20 191.544  13
   4  -2  12 12759.9 439.221  27
   4  -2  12 11662.2 362.853  13
   4  -2  13 4321.54 235.589  27
   4  -2  14 801.532 109.279  27
   4  -2  15 1841.71 114.844  27
   4  -1 -12 8928.15 255.609  14
   4  -1 -11 87.0590 67.4956  14
   4  -1 -10 12436.5 380.582  14
   4  -1  -9 10002.7 346.500  14
   4  -1  -9 10168.0 368.211  25
   4  -1  -8 53.6683 80.9417  14
   4  -1  -8 117.517 145.552  25
   4  -1  -7 902.365 120.726   6
   4  -1  -7 1060.07 133.450  14
   4  -1  -7 1045.27 153.622  25
   4  -1  -6 107.747 89.0560   6
   4  -1  -6 43.3601 85.3227  14
   4  -1  -6 10.2111 110.045  25
   4  -1  -5 268.666 95.2758   6
   4  -1  -4 24002.8 610.151   6
   4  -1  -3 52744.8 1071.97   6
   4  -1  -2 840.072 111.704   6
   4  -1  -1 47498.1 964.456   6
   4  -1   0 55382.0 1033.24  11
   4  -1   0 53220.3 1065.44   6
   4  -1   1 5272.73 208.969  11
   4  -1   1 5093.30 222.684   6
   4  -1   2 3573.80 180.141  11
   4  -1   3 1807.13 140.149  11
   4  -1   4 497.433 104.291  11
   4  -1   5 11208.5 358.346  11
   4  -1   6 32814.5 724.031  11
  -4   1  -6 31718.2 762.839   4
   4  -1   7 175.954 91.0020  11
  -4   1  -7 32.0573 161.938   4
   4  -1   7 118.399 84.1583   8
   4  -1   8 27492.2 701.120   8
   4  -1   9 31365.5 735.286  18
   4  -1   9 28954.9 761.879   8
   4  -1  10 3070.90 203.552  18
   4  -1  10 2920.75 225.053   8
   4  -1  10 3059.87 216.312  27
   4  -1  11 522.319 112.011  18
   4  -1  11 681.369 129.131  27
   4  -1  12 2557.73 207.573  27
   4  -1  13 682.638 133.810  27
   4  -1  14 3651.13 214.128  27
   4  -1  15 1857.46 137.496  27
   4   0 -12 5441.70 183.558  14
   4   0 -11 1954.12 135.965  14
   4   0 -10 448.663 97.5012  14
   4   0  -9 106.836 84.2561  14
   4   0  -9 410.829 162.964  25
   4   0  -8 12079.5 400.650  14
   4   0  -8 12817.9 423.730  25
   4   0  -7 87907.5 1750.59   6
   4   0  -7 89717.2 1685.89  14
   4   0  -7 90361.1 1680.70  25
   4   0  -6 19702.1 579.703   6
   4   0  -6 20080.5 541.044  14
   4   0  -6 20151.2 531.206  25
   4   0  -5 23343.9 628.207   6
   4   0  -4 16218.9 480.803   6
   4   0  -3 3142.88 189.595   6
   4   0  -2 3033.59 177.025   6
   4   0  -1 52.2312 48.3351  11
   4   0  -1 183.542 81.9498   6
   4   0   0 138.484 54.0817  11
   4   0   0 173.351 79.4314   6
   4   0   1 1638.16 115.528  11
   4   0   1 1707.81 126.709   6
   4   0   2 120338. 2078.16   6
   4   0   2 118869. 2060.77  11
   4   0   3 440.630 86.2741  11
   4   0   4 49398.2 973.623  11
   4   0   5 32188.3 701.039  11
   4   0   6 1229.08 122.464  11
   4   0   6 1158.61 110.785   8
   4   0   7 850.128 107.753  11
   4   0   7 651.744 104.089   8
   4   0   8 518.950 95.7226  11
   4   0   8 572.817 110.183   8
   4   0   9 1786.67 136.926  11
   4   0   9 1876.05 158.741  18
   4   0   9 1611.10 160.740   8
   4   0  10 20712.1 563.308  18
   4   0  10 20250.8 604.071   8
   4   0  11 11956.4 403.503  18
   4   0  11 11647.6 443.837   8
   4   0  12 1473.64 147.623  18
   4   0  13 4959.85 273.077  27
   4   0  13 4272.05 220.922  18
   4   0  14 8301.18 336.059  27
   4   0  15 2648.50 172.564  27
   4   0  16 34.9543 54.6221  27
   4   1 -12 8709.24 246.013  21
   4   1 -11 9317.81 282.688  14
   4   1 -10 64.3636 72.0238  14
   4   1  -9 1354.47 135.575  14
   4   1  -8 4510.24 232.979  14
   4   1  -8 4812.42 272.928  25
   4   1  -7 2253.84 205.203   6
   4   1  -7 2691.71 182.410  14
   4   1  -7 2613.31 209.001  25
   4   1  -6 17103.7 480.844  14
   4   1  -6 15916.4 538.882   6
   4   1  -6 16665.5 468.654  25
   4   1  -5 10966.2 416.444   6
   4   1  -4 1939.14 173.773   6
   4   1  -3 43452.3 933.847   6
   4   1  -2 50979.5 1029.43   6
   4   1  -1 8687.20 244.796  11
   4   1  -1 8204.66 284.113   6
   4   1   0 12974.7 327.396  11
   4   1   0 12259.2 352.969   6
   4   1   1 10024.3 285.597  11
   4   1   1 10067.7 300.552   6
   4   1   2 7600.03 247.930   6
   4   1   2 7232.19 240.944  11
   4   1   3 1271.93 109.650  11
   4   1   4 1852.54 131.620  11
   4   1   5 6347.25 239.439  11
   4   1   6 44054.4 890.949  11
   4   1   7 25516.6 586.289  11
   4   1   7 24058.4 590.180   8
   4   1   8 1258.49 120.373  11
   4   1   8 1252.16 135.423   8
   4   1   9 37.7765 58.2485  11
   4   1   9 153.077 95.7613   8
  -4  -1 -10 9332.93 319.983  26
   4   1  10 9806.81 348.873  18
   4   1  10 8757.12 363.707   8
   4   1  11 2973.12 199.134  18
  -4  -1 -11 3106.98 188.953  26
   4   1  11 3018.84 222.383   8
   4   1  12 749.534 119.700  18
  -4  -1 -12 771.230 107.921  26
  -4  -1 -12 740.967 112.376  23
   4   1  13 214.119 82.7494  18
  -4  -1 -13 231.540 88.9659  26
  -4  -1 -13 178.600 87.8004  23
   4   1  14 110.278 72.0054  18
  -4  -1 -14 122.464 75.9719  23
   4   1  15 9783.20 340.618  27
   4   1  16 6333.05 229.952  27
   4   2 -12 106.809 49.7071  21
   4   2 -11 1382.03 111.242  19
   4   2 -10 3305.19 180.271  19
   4   2  -9 44196.2 951.891  19
   4   2  -9 46821.9 947.520  14
   4   2  -8 18490.1 507.896  14
   4   2  -7 12628.1 399.086  14
   4   2  -7 11354.5 396.951  25
   4   2  -6 5783.58 258.399  14
   4   2  -6 5442.03 260.199  25
   4   2  -5 5418.89 268.642   7
   4   2  -4 17431.5 493.134   7
   4   2  -3 136.242 73.6924   7
   4   2  -3 153.049 91.8171   6
   4   2  -2 13766.4 376.449   7
   4   2  -2 12862.9 399.396   6
   4   2  -1 6142.23 204.855  11
   4   2  -1 5969.17 239.924   6
   4   2  -1 6155.39 223.410   7
   4   2   0 61711.7 1130.87  11
   4   2   0 62363.9 1159.44   6
   4   2   1 928.640 93.1717  11
   4   2   1 925.314 90.0981   6
   4   2   2 21104.7 468.876   6
   4   2   2 20082.7 476.312  11
   4   2   3 18344.9 423.558   6
   4   2   3 18388.1 446.076  11
   4   2   4 21510.4 505.339  11
   4   2   5 6215.96 234.381  11
   4   2   6 1074.19 108.236  11
   4   2   7 22782.2 538.301  11
   4   2   7 22015.0 549.407   8
   4   2   8 48911.0 971.699  11
   4   2   8 47892.9 1010.62   8
   4   2   9 12043.0 409.353   8
   4   2  10-46.5639 126.189  15
  -4  -2 -10 71.4358 71.1299  26
   4   2  10 72.7978 93.6509   8
   4   2  11 8048.08 317.857  18
   4   2  11 7815.19 349.381   8
  -4  -2 -11 7844.95 310.636  26
   4   2  12 9000.48 334.358  18
  -4  -2 -12 8963.77 337.930  26
  -4  -2 -12 8902.55 332.212  23
   4   2  13 8099.31 303.541  18
  -4  -2 -13 8189.51 317.662  26
  -4  -2 -13 7947.23 312.573  23
   4   2  14 220.177 76.8124  18
  -4  -2 -14 186.033 96.4896  26
  -4  -2 -14 277.779 89.2309  23
  -4  -2 -15 1855.70 137.652  23
   4   2  16 6974.26 244.922  27
   4   3 -12 2241.85 111.601  21
   4   3 -11 2087.05 126.509  21
   4   3 -11 2152.11 125.427  19
   4   3 -10 1455.81 128.389  19
   4   3  -9 198.467 87.6926  19
   4   3  -8 9598.28 353.229  19
   4   3  -7 999.430 136.960  19
   4   3  -7 886.281 109.748  14
   4   3  -6 13991.0 494.463   7
   4   3  -6 14819.9 459.219  19
   4   3  -6 15153.2 437.253  14
   4   3  -5 35104.3 885.046   7
   4   3  -5 35677.1 816.425  19
   4   3  -5 37614.6 803.817  14
   4   3  -4 9637.96 380.127   7
   4   3  -3 2011.80 166.770   7
   4   3  -2 12183.9 384.818   7
   4   3  -2 12178.1 393.365   6
   4   3  -1 402.569 87.8502   7
   4   3  -1 494.740 76.0863  11
   4   3  -1 389.192 80.4350   6
   4   3   0 1113.55 100.668  11
   4   3   0 1070.69 96.1144   6
   4   3   0 1077.98 111.673   7
   4   3   1 2000.22 118.540   6
   4   3   1 2022.37 133.799  11
   4   3   2 51.5114 71.0567  11
   4   3   3 14994.0 401.469  11
   4   3   4 48491.5 960.571  11
   4   3   5 2411.24 150.845  11
   4   3   6 5393.39 224.831  11
   4   3   7 311.965 79.0923  11
   4   3   7 317.833 83.2321   8
   4   3   8 101.281 66.1315  11
   4   3   8 94.4115 76.8894   8
   4   3   9 2736.83 185.713  21
   4   3   9 2520.38 187.913   8
  -4  -3  -9 2992.30 179.644  26
   4   3  10 4001.79 239.730   8
  -4  -3 -10 4276.07 222.834  26
  -4  -3 -11 1132.44 135.620  26
   4   3  11 1044.10 149.431   8
   4   3  12 2452.49 170.678  18
  -4  -3 -12 2246.62 177.959  26
  -4  -3 -12 2319.20 170.730  23
  -4  -3 -13 12625.1 407.856  26
   4   3  13 12033.8 379.778  18
  -4  -3 -13 12084.6 393.986  23
  -4  -3 -14 3205.06 192.418  26
  -4  -3 -14 2969.97 179.174  23
  -4  -3 -15 14.0526 65.1341  26
  -4  -3 -15 14.5136 62.8970  23
  -4  -3 -16 3124.59 137.797  23
   4   4 -11 27838.8 577.425  21
   4   4 -10 10834.8 329.922  21
   4   4 -10 10884.9 330.167  19
   4   4  -9 16613.8 470.028  19
   4   4  -8 7790.57 320.353  19
   4   4  -7 1307.10 151.953  19
   4   4  -6 4666.96 254.256  19
   4   4  -6 4339.65 211.717  14
   4   4  -5 394.503 133.916   7
   4   4  -5 461.743 110.377  19
   4   4  -5 433.859 93.0710  14
   4   4  -4 12445.1 419.029  22
   4   4  -4 13082.9 471.731   7
   4   4  -4 12936.0 417.938  19
   4   4  -4 13567.1 393.766  14
   4   4  -3 20374.4 591.968   7
   4   4  -2 37473.7 866.127   7
   4   4  -2 37870.5 837.615   6
   4   4  -1 7416.35 299.241   7
   4   4  -1 8044.25 281.330  11
   4   4   0 52479.9 1034.48  11
   4   4   0 49778.1 1036.22   7
   4   4   1 13980.1 414.151  11
   4   4   2 6335.99 262.860  11
   4   4   3 199.416 90.7512  11
   4   4   4 5784.04 247.614  11
   4   4   5 31853.7 717.313  11
   4   4   6 58347.4 1150.23  11
   4   4   7 12144.4 375.120  11
   4   4   8 9811.76 319.564  21
   4   4   8 9220.34 317.514  11
  -4  -4  -8 9472.57 340.964  27
   4   4   8 9243.14 350.085   8
  -4  -4  -8 9388.03 327.818  26
   4   4   9 30465.0 697.428  21
  -4  -4  -9 30114.6 729.076  27
   4   4   9 28473.6 736.453   8
  -4  -4  -9 29574.7 708.716  26
  -4  -4 -10 5664.78 279.865  27
   4   4  10 5731.15 290.053   8
  -4  -4 -10 5989.31 273.709  26
  -4  -4 -11 771.876 120.504  26
  -4  -4 -12 778.111 123.129  26
  -4  -4 -12 769.183 101.318  23
   4   4  13 2629.56 166.952  18
  -4  -4 -13 3128.49 196.207  26
  -4  -4 -13 2820.43 176.873  23
  -4  -4 -14 8712.30 310.701  26
  -4  -4 -14 8625.82 298.431  23
  -4  -4 -15 10229.0 314.651  26
  -4  -4 -15 10897.6 309.468  23
   4   5 -10 699.552 80.9041  21
   4   5  -9-6.02999 48.1148  22
   4   5  -9 202.063 75.5133  21
   4   5  -8 5184.31 243.086  21
   4   5  -8 4717.68 218.663  22
   4   5  -7 12605.2 408.435  22
   4   5  -7 12498.1 414.843  21
   4   5  -6 5345.01 270.500  22
   4   5  -6 4782.60 255.231  21
   4   5  -6 5179.90 276.182  19
   4   5  -5 279.212 106.089  22
   4   5  -5 301.837 96.5259  21
   4   5  -4 7418.94 351.189   7
   4   5  -4 7648.35 317.422  21
   4   5  -4 7417.90 329.318  22
   4   5  -3 1310.65 160.032   7
   4   5  -3 1426.70 138.882  21
   4   5  -3 1281.36 151.811  22
   4   5  -2 101.444 78.1658  22
   4   5  -2 149.613 75.9691  21
   4   5  -2 153.735 87.1232   7
   4   5  -1 226.915 92.9368   7
   4   5  -1 614.643 109.516  11
   4   5   0 109.085 95.0227  11
   4   5   1 1537.00 163.988  11
   4   5   2 27375.3 705.069  11
   4   5   3 8802.49 352.410  11
   4   5   4 1416.30 152.328  11
   4   5   5 1206.54 133.358  11
   4   5   6 92.7163 79.6195  11
   4   5   6 22.4719 63.7401  16
   4   5   7 2295.97 145.572  21
   4   5   7 2579.85 174.671  11
   4   5   7 2450.74 164.344  16
  -4  -5  -7 2445.02 174.861  27
  -4  -5  -7 2385.15 163.956  26
   4   5   8 5226.30 229.674  21
  -4  -5  -8 5188.40 256.627  27
   4   5   8 5075.26 234.426  11
  -4  -5  -8 5449.91 252.663  26
  -4  -5  -9 2097.05 175.446  27
   4   5   9 1879.81 178.437   8
  -4  -5  -9 1927.30 159.680  26
  -4  -5 -10 3858.96 234.280  27
  -4  -5 -10 3668.88 219.990  26
  -4  -5 -11 14526.3 456.507  26
  -4  -5 -12 4450.11 233.039  26
  -4  -5 -12 4593.70 223.195  23
   4   5  13 80.1706 68.2340  18
  -4  -5 -13 28.9383 79.4561  26
  -4  -5 -13 32.1072 83.3225  23
  -4  -5 -14 10328.1 323.568  26
  -4  -5 -14 10319.9 311.660  23
  -4  -5 -15 1703.36 112.114  26
  -4  -5 -15 1773.61 105.509  23
   4   6  -9 1329.69 91.8786  21
   4   6  -9 1486.33 93.3902  22
   4   6  -8 233.312 72.8908  22
   4   6  -8 223.971 63.6686  21
   4   6  -8 268.231 54.5285  16
   4   6  -7 1356.82 121.213  21
   4   6  -7 1352.37 135.024  22
   4   6  -6 9943.05 340.953  21
   4   6  -6 9803.43 364.543  22
   4   6  -5 3725.66 206.546  21
   4   6  -5 3582.63 233.309  22
   4   6  -4 2446.18 171.418  21
   4   6  -4 2580.26 203.331  22
   4   6  -3 7133.90 286.798  21
   4   6  -3 6521.14 314.914  22
   4   6  -2 17632.5 488.588  21
   4   6  -2 18175.0 542.268  22
   4   6  -2 17290.1 545.131   7
   4   6  -1 1549.93 131.918  21
   4   6  -1 1600.80 160.923  16
   4   6  -1 1696.50 167.058  22
   4   6   0 5661.64 239.634  21
   4   6   0 5225.28 289.050  11
   4   6   0 5371.13 265.234  16
   4   6   1 3556.95 188.419  21
   4   6   1 3171.76 240.328  11
   4   6   1 3661.47 211.260  16
   4   6   2 16666.6 560.025  11
   4   6   2 17291.4 492.277  16
   4   6   3 31645.3 815.804  11
   4   6   3 30140.9 719.451  16
  -4  -6  -3 30307.7 728.791  27
   4   6   4 17527.0 547.829  11
   4   6   4 16507.2 475.490  16
  -4  -6  -4 16250.9 484.848  27
   4   6   5 590.966 123.865  11
   4   6   5 545.292 102.837  16
  -4  -6  -5 674.433 116.069  27
   4   6   6 6039.95 281.937  11
   4   6   6 6062.29 263.686  16
  -4  -6  -6 5468.76 266.962  27
   4   6   7 9984.24 359.855  11
   4   6   7 10197.4 354.151  16
  -4  -6  -7 9994.93 371.182  27
  -4  -6  -7 9749.57 353.817  26
  -4  -6  -8 1136.68 142.399  27
  -4  -6  -8 1015.16 126.372  26
  -4  -6  -9 604.679 123.136  27
  -4  -6  -9 696.448 118.764  26
  -4  -6 -10 1282.72 148.900  27
  -4  -6 -10 1244.93 139.772  26
  -4  -6 -11 4391.57 243.431  27
  -4  -6 -11 4600.19 233.362  26
  -4  -6 -12 7116.42 282.404  26
  -4  -6 -13 4554.33 204.260  26
  -4  -6 -13 4562.73 196.644  23
  -4  -6 -14 431.158 73.0698  26
  -4  -6 -14 456.980 70.2405  23
   4   7  -7 492.579 82.7759  22
   4   7  -7 509.143 74.1399  16
   4   7  -6 801.575 102.151  16
   4   7  -6 855.713 120.565  22
   4   7  -5 579.384 116.141  22
   4   7  -5 593.743 107.187  16
   4   7  -4 3792.43 229.558  16
   4   7  -4 4111.43 245.715  22
   4   7  -3 2361.40 197.991  16
   4   7  -3 2526.18 201.800  22
   4   7  -2 5861.29 297.361  16
   4   7  -2 6194.40 302.812  22
   4   7  -1 8344.67 352.559  16
   4   7   0 11801.7 423.490  16
   4   7   1 157.963 88.4835  16
   4   7   2 2965.95 199.897  16
  -4  -7  -2 3362.67 221.611  27
   4   7   3 1589.24 150.501  16
  -4  -7  -3 1494.70 155.824  27
   4   7   4 76.4736 74.5582  16
  -4  -7  -4 43.1329 87.3220  27
   4   7   5 5361.60 254.331  16
  -4  -7  -5 5554.03 277.819  27
   4   7   6 7622.58 302.662  16
  -4  -7  -6 7595.34 323.670  27
  -4  -7  -7 12556.7 428.927  27
  -4  -7  -7 12873.7 418.432  26
  -4  -7  -8 18157.1 529.953  27
  -4  -7  -8 17830.0 510.447  26
  -4  -7  -9 9268.34 351.643  27
  -4  -7  -9 9231.30 336.901  26
  -4  -7 -10 206.504 104.292  27
  -4  -7 -10 336.702 91.1208  26
  -4  -7 -11 920.499 127.037  27
  -4  -7 -11 1053.95 114.078  26
  -4  -7 -12 8219.68 271.168  26
  -4  -7 -12 8242.74 260.234  23
  -4  -7 -13 2052.54 116.077  26
  -4  -7 -13 1969.13 105.250  23
   4   8  -6 152.038 49.9918  16
   4   8  -5 5122.39 205.920  16
   4   8  -4 7224.84 272.943  16
   4   8  -3 2040.90 159.971  16
   4   8  -2 1001.17 135.440  16
   4   8  -1 208.930 107.344  16
   4   8   0 3769.56 220.839  16
   4   8   1 24714.1 639.740  16
   4   8   2 16933.9 499.438  16
  -4  -8  -2 18080.7 527.105  27
   4   8   3 123.430 71.2225  16
  -4  -8  -3 210.730 93.1802  27
   4   8   4 7593.95 299.933  16
  -4  -8  -4 7860.65 328.274  27
   4   8   5 5366.02 243.460  16
  -4  -8  -5 5249.32 265.423  27
   4   8   6 667.882 101.154  16
  -4  -8  -6 608.582 115.424  27
  -4  -8  -6 607.343 109.950  26
  -4  -8  -7 130.075 92.0999  27
  -4  -8  -7 125.627 79.1885  26
  -4  -8  -8-22.2888 77.9774  27
  -4  -8  -8 28.4113 65.1493  26
  -4  -8  -9 1465.20 138.895  27
  -4  -8  -9 1363.36 121.248  26
  -4  -8 -10 8803.77 298.523  27
  -4  -8 -10 8514.88 272.689  26
  -4  -8 -11 6785.70 216.221  26
   4   9  -3 4018.31 164.189  16
   4   9  -2 3299.13 162.408  16
   4   9  -1 376.692 80.5581  16
   4   9   0 6256.69 241.377  16
   4   9   1 4492.01 206.416  16
   4   9   2 93.9608 63.8888  16
  -4  -9  -2 25.7212 67.4577  27
   4   9   3 5.19754 57.7524  16
  -4  -9  -3 36.0666 74.2729  27
   4   9   4 2355.69 142.833  16
  -4  -9  -4 2631.35 170.854  27
  -4  -9  -4 2212.63 136.579  26
  -4  -9  -5 7292.89 277.623  27
  -4  -9  -5 6664.61 236.219  26
  -4  -9  -6 11520.7 353.726  27
  -4  -9  -6 10505.8 304.483  26
  -4  -9  -7 5252.09 218.649  27
  -4  -9  -7 4599.71 178.899  26
  -4  -9  -8 2329.06 141.361  27
  -4  -9  -9 4729.00 190.784  27
   5  -6  -5 4196.65 151.029  20
   5  -6  -4 169.645 61.7759  20
   5  -6  -3 4318.42 181.187  20
   5  -6  -2 5337.32 209.475  20
   5  -6  -1 818.322 99.4457  20
   5  -6   0 636.447 86.6300  12
   5  -6   0 707.317 101.478  20
   5  -6   1 291.687 79.2441  12
   5  -6   1 484.553 83.8288  20
   5  -6   2-0.28501 55.9375  12
   5  -6   2 87.5756 54.0307  20
   5  -6   3 1873.21 139.809  12
   5  -6   4 6644.49 254.289  12
   5  -6   4 7348.88 254.894  13
   5  -6   5 151.173 72.9125  12
   5  -6   5 185.984 76.4485  13
   5  -6   6 4452.81 189.861  12
   5  -6   6 4532.88 186.520  13
   5  -6   7 3466.89 156.807  12
   5  -6   7 4121.40 162.054  13
   5  -5  -7-33.5347 35.0195  20
   5  -5  -6 3355.53 152.233  20
   5  -5  -5 14745.1 390.111  20
   5  -5  -5 14663.3 367.212  25
   5  -5  -4 8987.03 305.395  20
   5  -5  -3 1849.62 159.243  20
   5  -5  -2 1173.24 195.681  20
   5  -5  -1 9844.57 366.852  20
   5  -5   0 48877.4 1021.17  20
   5  -5   1 9018.08 329.963  12
   5  -5   1 9526.18 349.452  20
   5  -5   1 9099.37 313.624  13
   5  -5   2 2076.87 165.790  12
   5  -5   2 2130.44 189.637  20
   5  -5   2 2301.89 167.679  13
   5  -5   3 7849.06 303.352  20
   5  -5   3 7786.97 304.968  13
   5  -5   4 10956.8 372.794  13
   5  -5   5 10281.5 358.943  13
   5  -5   6 100.062 97.0557  13
   5  -5   7 1926.71 157.304  13
   5  -5   8 4454.35 205.062  13
   5  -5   9 11187.0 312.256  13
   5  -4  -8 20366.5 453.037  14
   5  -4  -8 20146.0 428.747  25
   5  -4  -7 3543.22 152.798  20
   5  -4  -7 3529.51 169.591  14
   5  -4  -7 3383.86 165.462  25
   5  -4  -6 3291.11 170.061  20
   5  -4  -6 3169.29 181.509  25
   5  -4  -5 7949.44 294.437  20
   5  -4  -4 4597.38 272.804  20
   5  -4  -3 1548.19 209.483  20
   5  -4  -2 150.421 177.255  20
   5  -4  -1 937.047 196.757  20
   5  -4   0 2751.39 236.671  20
   5  -4   1 10893.9 397.196  20
   5  -4   2 7735.60 330.019  20
   5  -4   2 7108.72 295.880  13
   5  -4   3 3996.40 239.578  20
   5  -4   3 3966.36 223.394  13
   5  -4   4 16506.2 477.395  20
   5  -4   4 16647.7 496.991  13
   5  -4   5 7890.90 298.658  20
   5  -4   5 7699.56 324.343  13
   5  -4   6 1960.71 179.766  13
   5  -4   7 115.416 104.089  13
   5  -4   8 906.710 141.448  13
   5  -4   9 5972.15 260.712  13
   5  -4  10 6883.07 254.442  13
   5  -4  11 787.393 81.1277  13
   5  -3 -10 5667.81 181.368  14
   5  -3  -9 1337.07 108.959  14
   5  -3  -9 1233.69 105.217  25
   5  -3  -8 2107.86 146.407  14
   5  -3  -8 2226.56 155.432  25
   5  -3  -7 12660.2 391.218  14
   5  -3  -7 11662.7 370.733  25
   5  -3  -6 4959.99 214.822  20
   5  -3  -6 5134.55 253.346  14
   5  -3  -6 4992.94 254.924  25
   5  -3  -5 95.6029 152.587  20
   5  -3  -5 197.481 94.3340  14
   5  -3  -4 5616.72 284.325  20
   5  -3  -3 10878.1 392.479  20
   5  -3  -3 8231.30 499.683  17
   5  -3  -2 62879.3 1229.86  20
   5  -3  -2 55872.6 1217.33  17
   5  -3  -1 29785.0 715.693  20
   5  -3  -1 25593.1 748.910  17
   5  -3   0 12388.4 410.988  20
   5  -3   0 10324.5 508.750  17
   5  -3   1 5076.39 260.039  20
   5  -3   1 3425.46 403.484  17
   5  -3   2 8247.67 329.347  20
   5  -3   2 8342.31 307.497  13
   5  -3   3 17080.0 497.544  20
   5  -3   3 17040.8 489.508  13
   5  -3   4 517.819 112.664  20
   5  -3   4 377.953 106.911  13
   5  -3   5 7291.06 293.476  20
   5  -3   5 7342.36 311.224  13
   5  -3   6 8583.06 314.035  20
   5  -3   6 8860.75 351.999  13
   5  -3   7 14065.2 461.820  13
   5  -3   8 1641.07 171.971  13
   5  -3   9 4187.15 237.330  13
   5  -3  10 279.444 88.0106  27
   5  -3  10 333.614 116.109  13
   5  -3  11 2097.08 146.837  27
   5  -3  11 2263.47 160.289  13
   5  -3  12 1288.26 108.235  27
   5  -3  12 1546.01 111.496  13
   5  -2 -10 16235.9 391.792  14
   5  -2  -9 2293.13 148.489  14
   5  -2  -9 2561.18 168.152  25
   5  -2  -8 5163.97 238.179  14
   5  -2  -8 5658.49 259.428  25
   5  -2  -7 16795.2 489.541  14
   5  -2  -7 16504.0 484.840  25
   5  -2  -6 13045.0 467.542  17
   5  -2  -6 13346.8 442.988  14
   5  -2  -6 13550.9 442.094  25
   5  -2  -5 3282.65 302.033  17
   5  -2  -5 1201.48 149.929  14
   5  -2  -4 862.583 115.275   6
   5  -2  -4 797.767 130.764  14
   5  -2  -3 1215.90 140.911   6
   5  -2  -3 1392.88 174.911  20
   5  -2  -2 4074.81 234.537   6
   5  -2  -2 4796.49 260.453  20
   5  -2  -1 8542.65 323.880  20
   5  -2  -1 8563.31 346.010  17
  -5   2   1 8100.67 355.838   4
   5  -2   0 2254.58 174.900  20
  -5   2   0 2059.73 193.236   4
   5  -2   1 14664.1 439.476  20
   5  -2   1 14557.6 435.352  17
   5  -2   2 44021.6 912.747  20
   5  -2   2 39265.1 855.362  17
   5  -2   3 17587.9 479.596  20
   5  -2   3 16501.0 454.161  17
   5  -2   3 17415.8 474.824  13
   5  -2   4 405.478 95.1253  20
  -5   2  -4 460.224 173.607   4
   5  -2   4 603.195 103.102  13
   5  -2   5 3014.26 183.262  20
  -5   2  -5 2656.80 302.444   4
   5  -2   5 3485.97 201.879  13
   5  -2   6 557.437 123.014  13
   5  -2   7 10112.3 376.031  13
   5  -2   8 8542.86 347.234  13
   5  -2   9 109.287 104.196  13
   5  -2  10 3874.61 219.432  27
   5  -2  10 3811.98 226.098  13
   5  -2  11 14220.1 440.587  27
   5  -2  11 14884.4 442.487  13
   5  -2  12 808.852 117.115  27
   5  -2  12 738.711 110.877  13
   5  -2  13 436.987 83.5970  27
   5  -2  13 384.283 79.6852  13
   5  -2  14-36.0896 41.0003  27
   5  -1 -11 478.805 64.0813  14
   5  -1 -10 1518.88 117.720  14
   5  -1  -9 14007.7 400.692  14
   5  -1  -9 14819.4 422.807  25
   5  -1  -8 2297.73 173.776  14
   5  -1  -8 2693.63 219.017  25
   5  -1  -7 1030.96 133.524  14
   5  -1  -7 1030.59 185.154  25
   5  -1  -6 6202.50 296.159  14
   5  -1  -6 6071.70 304.608  25
   5  -1  -5 679.534 113.950   6
   5  -1  -5 940.462 140.594  14
   5  -1  -4 52221.9 1106.13   6
   5  -1  -4 50241.2 1052.13  17
   5  -1  -4 51604.8 1114.55  14
   5  -1  -3 9172.79 350.935   6
   5  -1  -3 8850.90 346.378  14
   5  -1  -2 7666.58 319.004   6
   5  -1  -2 7060.65 353.079  17
   5  -1  -2 7839.15 303.417  14
   5  -1  -1 11088.4 387.011   6
   5  -1   0 21762.0 581.918   6
   5  -1   1 17696.5 486.857  11
   5  -1   2 113.447 89.4334  11
   5  -1   3 16256.1 479.574  11
   5  -1   4 10537.1 376.255  11
   5  -1   5 19935.3 560.222  11
  -5   1  -5 17886.4 571.042   4
   5  -1   6 122.205 101.481  11
   5  -1   6 136.874 75.6219  18
   5  -1   6 129.579 181.148  15
  -5   1  -6 7.55544 168.922   4
   5  -1   7 4955.80 242.102  18
   5  -1   7 4403.60 282.900  15
  -5   1  -7 5110.23 348.463   4
   5  -1   8 3562.41 215.500  18
   5  -1   9 16034.1 490.232  18
   5  -1  10 1187.06 152.756  18
   5  -1  10 1176.65 141.626  27
   5  -1  11 3268.58 210.914  18
   5  -1  11 3196.42 208.741  27
   5  -1  11 2925.43 195.606  13
   5  -1  12 20556.9 562.203  27
   5  -1  12 20043.0 528.243  13
   5  -1  13 24799.8 612.237  27
   5  -1  13 24782.9 567.787  13
   5  -1  14 5834.66 230.777  27
   5  -1  15 466.327 64.4221  27
   5   0 -11 491.422 63.4505  14
   5   0 -10 10933.3 314.884  14
   5   0  -9 8706.23 302.655  14
   5   0  -8 4504.59 228.897  14
   5   0  -8 5154.77 274.042  25
   5   0  -7 91.1274 91.8200  14
   5   0  -7 289.470 171.063  25
   5   0  -6 901.065 133.750  14
   5   0  -6 546.144 163.720  25
   5   0  -5 5329.15 280.580   6
   5   0  -5 5518.06 272.582  14
   5   0  -5 5196.27 271.834  25
   5   0  -4 8008.36 337.246   6
   5   0  -4 8042.17 327.766  14
   5   0  -3 531.792 111.436   6
   5   0  -3 625.503 112.695  14
   5   0  -2 8978.20 342.918   6
   5   0  -1 34427.4 796.321   6
   5   0   0 22686.6 588.965   6
   5   0   1 1426.52 126.667  11
   5   0   1 1426.66 138.139   6
   5   0   2 97.0491 81.8114  11
   5   0   3 616.146 102.599  11
   5   0   4 3155.11 191.737  11
   5   0   5 21693.5 570.425  11
   5   0   6 5702.21 264.644  11
   5   0   7 12837.0 412.914  11
   5   0   7 12136.8 392.129  18
   5   0   7 11771.9 386.793  15
   5   0   8 5323.33 259.630  11
   5   0   8 5488.14 260.900  18
   5   0   8 5198.90 300.552  15
   5   0   9 8488.35 329.541  11
   5   0   9 7871.22 325.721  18
   5   0  10 668.064 128.329  18
   5   0  11 1154.05 137.457  27
   5   0  11 1023.34 140.724  18
   5   0  12 202.312 95.1613  18
   5   0  12 201.856 103.241  27
   5   0  13 205.809 98.9899  18
   5   0  13 286.232 105.716  27
   5   0  14 4124.97 209.605  27
   5   0  14 3648.43 168.714  13
   5   0  15 5456.98 208.430  27
   5   1 -10 4681.27 188.231  14
   5   1  -9 2058.14 148.017  14
   5   1  -8 20289.0 537.311  14
   5   1  -8 20772.7 559.385  25
   5   1  -7 2481.64 181.973  14
   5   1  -7 3201.93 232.493  25
   5   1  -6 28086.1 705.219  14
   5   1  -6 27954.0 690.303  25
   5   1  -5 12273.0 463.808   6
   5   1  -5 12863.9 428.529  14
   5   1  -5 12365.7 410.654  25
   5   1  -4 8489.92 370.038   6
   5   1  -4 9392.54 355.337  14
   5   1  -4 8831.13 331.105  25
   5   1  -3 7798.33 334.924   6
   5   1  -3 7853.49 313.405  14
   5   1  -2 28227.3 708.406   6
   5   1  -1 17539.4 501.564   6
   5   1   0 3854.76 180.292  11
   5   1   0 3772.72 205.953   6
   5   1   1 58505.6 1127.35  11
   5   1   1 58699.7 1160.81   6
   5   1   2 30751.1 696.139   6
   5   1   2 30376.2 681.686  11
   5   1   3 2530.46 165.672  11
   5   1   4 15243.8 436.459  11
   5   1   5 10057.3 345.319  11
   5   1   6 60.0053 81.4100  11
   5   1   7 26232.4 650.571  11
   5   1   8 819.923 147.228  21
   5   1   8 1077.16 132.698  11
   5   1   8 1148.35 129.917  18
   5   1   8 1203.79 177.174  15
   5   1   9 17644.3 490.991  11
   5   1   9 17248.0 506.064  18
   5   1   9 17004.4 508.826  15
   5   1  10 56869.1 1192.05  18
   5   1  10 57030.7 1185.54  15
   5   1  11 36247.7 847.796  18
   5   1  12 1353.61 145.655  18
   5   1  13 7146.24 291.301  18
   5   1  14 3754.23 190.434  18
   5   1  14 3772.70 211.247  27
   5   1  15 69.0259 67.5982  27
   5   2 -10 1456.11 104.916  21
   5   2 -10 1271.17 96.7955  14
   5   2  -9 412.440 90.7677  21
   5   2  -9 313.557 79.4441  14
   5   2  -8 919.040 128.347  21
   5   2  -8 1073.94 123.196  14
   5   2  -7 626.625 123.698  21
   5   2  -7 769.465 118.151  14
   5   2  -6 692.153 128.931  21
   5   2  -6 775.354 128.746  14
   5   2  -5 215.561 97.1417  21
   5   2  -5 178.879 96.8038   6
   5   2  -5 177.660 96.1245  14
   5   2  -5 344.789 135.197  25
   5   2  -4 7372.04 319.218  21
   5   2  -4 7521.46 358.389   6
   5   2  -4 7393.96 306.796  14
   5   2  -4 6810.96 284.544  25
   5   2  -3 31581.3 735.044  21
   5   2  -3 30587.7 788.952   6
   5   2  -3 29939.9 725.130  14
   5   2  -2 24056.1 644.485   6
   5   2  -1 241.202 85.4840   6
   5   2   0 1469.47 121.396  11
   5   2   0 1546.85 132.312   6
   5   2   1 57.9130 69.5330  11
   5   2   1 45.3418 66.1751   6
   5   2   2 43.8899 65.0530   6
   5   2   2 86.6662 75.6946  11
   5   2   3 18751.5 486.663  11
   5   2   4 17507.2 471.395  11
   5   2   5 10673.1 349.677  11
   5   2   6 5570.08 249.058  11
   5   2   7 16009.3 462.843  11
   5   2   8 655.003 140.778  21
   5   2   8 784.504 116.264  11
   5   2   8 1039.29 145.562  15
   5   2   9 5069.93 239.095  11
   5   2   9 4947.71 248.815  15
   5   2  10-11.8206 154.675  15
  -5  -2 -10 139.180 76.9281  26
   5   2  11 741.056 131.742  18
  -5  -2 -11 747.297 103.426  26
   5   2  12 7884.25 321.648  18
  -5  -2 -12 8229.75 301.323  26
   5   2  13 17378.2 486.486  18
  -5  -2 -13 16814.0 459.258  26
   5   2  14 5089.49 220.972  18
   5   2  15 7633.74 238.241  18
   5   2  15 8333.49 282.546  27
   5   2  16 5434.82 189.420  27
   5   3 -10 12458.0 325.894  21
   5   3  -9 269.227 79.8681  21
   5   3  -9 288.445 72.7902  14
   5   3  -8 10530.5 365.038  21
   5   3  -8 10254.1 331.797  14
   5   3  -7 7302.92 324.174  21
   5   3  -7 7293.23 288.163  14
   5   3  -6 10723.8 423.993  21
   5   3  -6 12053.6 395.655  14
   5   3  -5 6980.63 342.007  21
   5   3  -5 8217.49 322.406  14
   5   3  -4 7777.64 345.691  21
   5   3  -4 7461.22 374.012   6
   5   3  -4 8170.17 321.269  14
   5   3  -3 48.6918 86.0754  21
   5   3  -3 72.7502 94.2583   7
   5   3  -3 134.369 103.854   6
   5   3  -3 123.775 89.0802  14
   5   3  -2 10422.9 361.282  21
   5   3  -2 10767.8 392.262   6
   5   3  -2 10185.5 353.250  14
   5   3  -1 26573.4 657.818   6
   5   3   0 11070.8 337.021  11
   5   3   0 11042.1 352.320   6
   5   3   1 52.6933 68.1168  11
   5   3   1 95.7045 58.0042   6
   5   3   2 17495.6 472.465  11
   5   3   3 17412.3 475.542  11
   5   3   4 1573.01 137.002  11
   5   3   5 9687.88 334.829  11
   5   3   6 1222.39 123.926  11
   5   3   7 21111.4 524.648  21
   5   3   7 20707.5 542.962  11
   5   3   7 19989.6 490.751  15
   5   3   8 41639.8 883.665  21
   5   3   8 41983.5 898.105  11
   5   3   8 40249.1 842.028  15
  -5  -3  -8 42086.0 881.434  26
   5   3   9 20914.9 564.684  21
   5   3   9 20720.8 547.982  11
   5   3   9 21008.1 522.744  15
  -5  -3  -9 20975.4 550.985  26
   5   3  10 640.473 132.002  15
  -5  -3 -10 744.941 109.819  26
  -5  -3 -11 9270.08 339.804  26
   5   3  12 4860.13 245.216  18
  -5  -3 -12 4830.00 238.145  26
   5   3  13 374.644 98.4752  18
  -5  -3 -13 405.109 93.0462  26
   5   3  14 64.6344 72.9353  18
  -5  -3 -14 49.6115 60.5638  26
   5   3  15 264.600 60.8432  18
   5   4 -10 325.323 55.9936  21
   5   4  -9 3359.90 166.538  21
   5   4  -8 1373.76 134.736  21
   5   4  -7 794.709 128.689  21
   5   4  -7 884.062 113.637  14
   5   4  -6 12655.6 449.840  21
   5   4  -6 13711.5 407.792  14
   5   4  -5 15848.6 528.349  21
   5   4  -5 17801.8 490.138  14
   5   4  -4 9344.98 387.007  21
   5   4  -4 10390.7 361.289  14
   5   4  -3 1702.71 166.658  21
   5   4  -3 1741.08 155.774  14
   5   4  -3 1716.26 185.810   7
   5   4  -2 40.4255 77.6608  21
   5   4  -2 35.5639 74.7149  14
   5   4  -1 660.004 109.465  21
   5   4  -1 588.959 111.335  14
   5   4   0 8694.93 313.923  21
   5   4   0 8845.63 317.173  11
   5   4   1 29493.4 703.988  11
   5   4   2 7764.48 311.202  11
   5   4   3 38077.9 857.758  11
   5   4   4 5361.08 256.119  11
   5   4   5 5538.02 231.551  21
   5   4   5 5339.95 254.775  11
   5   4   6 586.052 120.653  21
   5   4   6 564.931 111.340  11
   5   4   6 693.907 97.0191  16
   5   4   6 394.981 95.5473  15
   5   4   7 4248.43 221.796  21
   5   4   7 4321.16 226.292  11
   5   4   7 4217.61 191.238  15
  -5  -4  -7 4128.59 213.963  26
   5   4   8 8106.85 311.455  21
   5   4   8 7426.11 298.027  11
  -5  -4  -8 7753.08 308.252  27
  -5  -4  -8 7981.41 306.623  26
   5   4   9 2073.03 188.525  21
   5   4   9 2017.74 151.784  11
  -5  -4  -9 2342.10 173.417  26
  -5  -4 -10 8601.26 329.635  26
  -5  -4 -11 9169.91 343.574  26
  -5  -4 -12 15906.4 466.855  26
   5   4  13 14691.9 421.648  18
  -5  -4 -13 15110.2 433.012  26
   5   4  14 3733.64 172.550  18
  -5  -4 -14 3865.02 184.909  26
  -5  -4 -15 941.953 85.9820  26
   5   5  -9 2166.94 115.538  21
   5   5  -8 655.666 95.2574  21
   5   5  -7 187.795 91.9217  21
   5   5  -6 7111.24 302.976  21
   5   5  -5-6.65116 85.0329  21
   5   5  -4 11801.7 421.460  21
   5   5  -3 17643.6 533.086  21
   5   5  -2 1490.39 151.118  21
   5   5  -2 1409.61 154.273  16
   5   5  -2 1189.66 140.226  22
   5   5  -1 4951.37 250.036  21
   5   5  -1 5422.11 266.143  16
   5   5   0 7041.66 292.757  21
   5   5   0 7218.31 303.215  16
   5   5   1 2455.68 174.668  21
   5   5   1 2415.03 195.977  11
   5   5   1 2629.77 177.114  16
   5   5   2 8480.79 308.129  21
   5   5   2 8089.98 310.814  16
   5   5   3 19658.5 512.094  21
   5   5   3 18501.8 570.328  11
   5   5   3 19891.6 528.131  16
   5   5   4 219.086 95.4968  21
   5   5   4 260.417 118.374  11
   5   5   4 193.425 82.1717  16
   5   5   5 22317.6 555.636  21
   5   5   5 22348.0 620.066  11
   5   5   5 22456.1 579.498  16
   5   5   6 49221.5 1008.08  21
   5   5   6 49823.9 1069.57  11
   5   5   6 49352.6 1039.13  16
   5   5   7 11513.9 369.110  21
   5   5   7 10973.3 386.689  11
  -5  -5  -7 11109.4 379.882  27
  -5  -5  -7 11354.5 381.765  26
   5   5   8 281.379 107.767  21
  -5  -5  -8 250.719 88.5325  27
  -5  -5  -8 401.016 92.5241  26
   5   5   9 5881.95 270.111  21
  -5  -5  -9 6056.40 280.232  27
  -5  -5  -9 5952.08 273.803  26
  -5  -5 -10 781.750 119.830  26
  -5  -5 -11 644.181 113.330  26
  -5  -5 -12 2119.05 163.450  26
   5   5  13 856.058 105.093  18
  -5  -5 -13 1040.99 115.325  26
   5   5  14 4370.69 169.096  18
  -5  -5 -14 4422.99 188.463  26
  -5  -5 -15 10139.4 265.898  26
   5   6  -8 13732.3 322.931  21
   5   6  -7 16633.6 412.692  21
   5   6  -6 4917.24 216.856  21
   5   6  -5 374.128 96.0145  21
   5   6  -5 251.762 82.2758  16
   5   6  -4 3547.67 205.395  21
   5   6  -4 2906.50 196.912  16
   5   6  -3 592.262 109.955  21
   5   6  -3 535.790 118.932  16
   5   6  -2 1776.57 153.285  21
   5   6  -2 1676.43 170.730  16
   5   6  -1 16206.6 480.566  21
   5   6  -1 16081.2 516.414  16
   5   6   0 6997.77 293.331  21
   5   6   0 7453.86 329.611  16
   5   6   1 52992.0 1086.36  21
   5   6   1 52812.8 1136.59  16
   5   6   2 14708.1 427.837  21
   5   6   2 14148.5 457.135  16
   5   6   3 143.149 83.2921  21
   5   6   3 271.581 122.907  11
   5   6   3 249.406 88.4301  16
   5   6   4 14438.1 419.700  21
   5   6   4 15327.0 520.356  11
   5   6   4 14507.7 454.619  16
   5   6   5 13675.6 401.266  21
   5   6   5 13406.0 431.641  16
   5   6   6 6295.02 257.125  21
   5   6   6 6092.50 275.462  16
  -5  -6  -6 6334.55 283.061  27
   5   6   7 324.739 89.4274  21
  -5  -6  -7 457.553 97.7872  27
  -5  -6  -7 399.559 100.654  26
   5   6   8 3112.64 188.126  21
  -5  -6  -8 3264.98 206.872  27
  -5  -6  -8 3462.88 208.108  26
  -5  -6  -9 6337.09 284.033  27
  -5  -6  -9 6448.17 285.160  26
  -5  -6 -10 18768.8 524.710  27
  -5  -6 -10 18493.2 518.676  26
  -5  -6 -11 18101.8 497.314  26
  -5  -6 -12 826.931 111.293  26
   5   6  13 6698.69 220.891  18
  -5  -6 -13 7073.00 245.167  26
  -5  -6 -14 4681.61 171.974  26
   5   7  -6 4058.20 148.294  21
   5   7  -6 3774.70 139.698  16
   5   7  -5 6528.52 219.981  21
   5   7  -5 6442.83 227.911  16
   5   7  -4 2081.78 138.722  21
   5   7  -4 2018.37 150.743  16
   5   7  -3 1454.36 130.904  21
   5   7  -3 1476.41 146.903  16
   5   7  -2 4151.05 205.050  21
   5   7  -2 4480.38 248.286  16
   5   7  -1 6886.62 264.972  21
   5   7  -1 6964.48 319.189  16
   5   7   0 6298.24 251.033  21
   5   7   0 6375.79 304.707  16
   5   7   1 6919.84 264.137  21
   5   7   1 7638.13 329.635  16
   5   7   2 10.7957 68.9716  21
   5   7   2-32.9554 91.9919  16
   5   7   3 10730.9 389.010  16
   5   7   4 35808.2 830.064  16
   5   7   5 11812.4 397.546  16
   5   7   6 552.409 105.575  16
  -5  -7  -6 591.402 111.528  27
  -5  -7  -7 12571.6 410.992  27
  -5  -7  -7 11912.1 399.037  26
  -5  -7  -8 4252.62 228.509  27
  -5  -7  -8 4113.05 222.649  26
  -5  -7  -9 995.137 120.590  27
  -5  -7  -9 819.502 117.196  26
  -5  -7 -10 134.854 84.8414  27
  -5  -7 -10 174.370 83.6864  26
  -5  -7 -11 64.3676 69.7349  26
  -5  -7 -12 4985.15 195.734  26
  -5  -7 -13 9030.47 246.967  26
   5   8  -4 376.831 63.3823  16
   5   8  -3 1567.85 121.415  16
   5   8  -2 1392.54 132.997  16
   5   8  -1 23478.2 594.967  16
   5   8   0 2281.97 172.581  16
   5   8   1 1097.05 139.296  16
   5   8   2 8685.64 334.402  16
   5   8   3 6953.30 289.928  16
   5   8   4 5855.95 261.807  16
   5   8   5 855.701 116.376  16
  -5  -8  -5 845.085 121.714  27
  -5  -8  -6 61.9339 80.1272  27
  -5  -8  -6 32.1593 82.9802  26
  -5  -8  -7 1539.89 137.060  27
  -5  -8  -7 1260.50 127.906  26
  -5  -8  -8 8069.59 290.385  27
  -5  -8  -8 7842.52 280.628  26
  -5  -8  -9 5786.35 231.059  27
  -5  -8  -9 5709.00 223.825  26
  -5  -8 -10 75.7027 60.3752  26
  -5  -8 -11 2308.66 117.839  26
   5   9  -1 4186.65 169.077  16
   5   9   0 844.978 92.6489  16
   5   9   1 11371.4 327.235  16
   5   9   2 12825.0 355.741  16
   5   9   3 299.805 80.2315  16
   5   9   4 2925.65 152.836  16
  -5  -9  -4 2798.07 148.725  26
  -5  -9  -5 4563.25 186.114  26
  -5  -9  -6 1074.03 93.2161  27
  -5  -9  -6 1070.28 93.3240  26
  -5  -9  -7 448.911 66.7494  27
  -5  -9  -7 392.964 65.8129  26
  -5  -9  -8 43.6380 44.4933  26
   6  -5  -3 6371.65 205.255  20
   6  -5  -3 6253.84 197.817  25
   6  -5  -2 4973.86 191.311  20
   6  -5  -1 3188.97 161.883  20
   6  -5   0 4142.04 207.692  20
   6  -5   1-117.864 120.320  20
   6  -5   2 378.706 115.499  20
   6  -5   3 8081.35 260.450  20
   6  -5   3 7341.36 235.137  13
   6  -5   4 418.714 97.2476  20
   6  -5   4 635.369 83.0976  13
   6  -5   5 2821.60 145.123  13
   6  -5   6 7059.01 229.138  12
   6  -5   6 9910.83 265.226  13
   6  -5   7 6203.45 200.353  13
   6  -4  -5 2875.19 130.851  20
   6  -4  -5 2662.40 144.073  25
   6  -4  -4 14702.6 377.021  20
   6  -4  -4 14889.4 390.471  25
   6  -4  -3 2017.54 147.108  20
   6  -4  -2 2683.42 213.360  20
   6  -4  -1 11181.8 381.950  20
   6  -4   0 1387.47 198.290  20
   6  -4   1 19973.2 547.170  20
   6  -4   2 1091.62 186.190  20
   6  -4   3 445.533 158.429  20
   6  -4   3 267.366 79.8996  13
   6  -4   4 2522.52 199.311  20
   6  -4   4 2451.45 159.645  13
   6  -4   5 12839.9 378.277  20
   6  -4   5 12010.6 375.400  13
   6  -4   6 5445.91 237.900  13
   6  -4   7 555.717 103.719  13
   6  -4   8 9842.95 308.766  13
   6  -4   9 7056.76 236.758  13
   6  -4  10 617.565 71.3438  13
   6  -3  -7 1475.68 97.7308  14
   6  -3  -7 1930.69 122.587  25
   6  -3  -6 3075.47 174.503  25
   6  -3  -5 7777.14 249.039  20
   6  -3  -5 7687.00 292.825  25
   6  -3  -4 5396.94 238.459  20
   6  -3  -3 5137.73 268.467  20
   6  -3  -2 3383.50 252.711  20
   6  -3  -1 2231.59 236.280  20
   6  -3   0 6624.95 329.849  20
   6  -3   1 8282.00 367.105  20
   6  -3   2 1210.20 166.371  20
   6  -3   3 16446.7 492.165  20
   6  -3   4 15004.3 457.283  20
   6  -3   4 14589.1 434.598  13
   6  -3   5 7800.93 306.998  20
   6  -3   5 7489.17 301.685  13
   6  -3   6 844.121 129.005  20
   6  -3   6 852.531 121.268  13
   6  -3   7 264.831 93.7605  20
   6  -3   7 131.688 103.056  13
   6  -3   8 53.1209 100.600  13
   6  -3   9 1584.73 146.758  13
   6  -3  10 7843.02 271.766  13
   6  -3  11 4702.22 183.462  13
   6  -2  -8 202.705 57.6851  14
   6  -2  -8 435.487 99.6069  25
   6  -2  -7 6170.33 234.976  14
   6  -2  -7 6824.77 253.924  25
   6  -2  -6 21824.6 550.683  14
   6  -2  -6 22039.8 551.873  25
   6  -2  -5 1212.55 136.215  14
   6  -2  -5 1024.41 169.957  25
   6  -2  -4 13878.1 546.541  17
   6  -2  -3 27358.4 653.453  20
   6  -2  -3 26143.7 720.062  17
   6  -2  -2 919.646 188.787  20
   6  -2  -2 7236.97 319.007  17
   6  -2  -1 12994.9 467.684  20
   6  -2  -1 18982.0 491.595  17
   6  -2   0 126.813 122.855  20
   6  -2   0 6807.44 303.787  17
   6  -2   1 598.850 143.874  20
   6  -2   1 6068.87 299.819  17
   6  -2   2 10774.3 404.612  20
   6  -2   2 15004.1 435.787  17
   6  -2   3 29262.7 703.609  20
   6  -2   3 26335.1 697.229  17
   6  -2   4 1127.80 150.258  20
   6  -2   4 1424.67 138.854  13
   6  -2   5 12281.8 402.132  20
   6  -2   5 12321.6 400.488  13
   6  -2   6 26305.1 642.948  20
   6  -2   6 25618.4 655.004  13
   6  -2   7 8911.19 319.767  20
   6  -2   7 8939.60 344.639  13
   6  -2   8 44.7200 79.8469  20
   6  -2   8 74.3000 100.453  13
   6  -2   9 3230.31 209.799  13
   6  -2  10 886.403 131.200  13
   6  -2  11 89.2266 84.9801  13
   6  -2  12 13756.7 357.122  13
   6  -1  -9 109.098 51.7651  14
   6  -1  -8 8491.95 270.023  14
   6  -1  -8 9206.81 289.225  25
   6  -1  -7 9344.67 315.263  14
   6  -1  -7 9568.42 327.934  25
   6  -1  -6 1293.54 276.317  17
   6  -1  -6 1343.24 146.302  14
   6  -1  -6 1256.96 176.827  25
   6  -1  -5 868.276 138.207  14
   6  -1  -5 544.525 172.272  25
   6  -1  -4 6774.84 291.380  17
   6  -1  -4 1939.53 183.850  14
   6  -1  -3 4693.70 265.429  17
   6  -1  -3 333.995 114.334  14
   6  -1  -2 7411.40 318.767  20
   6  -1  -2 9125.64 360.564  17
   6  -1  -1 12344.2 401.541  20
   6  -1  -1 11672.4 428.461  17
   6  -1   0 807.025 129.828  20
  -6   1   0 707.395 125.729   4
   6  -1   1 29604.0 695.182  20
  -6   1  -1 29770.5 769.519   4
   6  -1   2 19820.7 536.278  20
   6  -1   2 18472.2 527.047  17
  -6   1  -2 20540.4 621.309   4
   6  -1   3 4321.65 235.448  20
  -6   1  -3 4763.51 288.560   4
   6  -1   4 45.1119 91.8818  20
  -6   1  -4-134.164 110.823   4
  -6   1  -5 16.3465 155.331   4
   6  -1   5 229.318 88.8632  13
   6  -1   6 642.721 245.310  15
   6  -1   6 744.555 115.447  13
   6  -1   7 3028.40 184.197  18
   6  -1   7 2696.33 295.192  15
   6  -1   7 3217.53 206.623  13
   6  -1   8 19482.8 528.623  18
   6  -1   8 19905.5 553.998  13
   6  -1   9 11820.1 390.446  18
   6  -1   9 12032.6 405.558  13
   6  -1  10 22179.6 584.223  13
   6  -1  11 949.037 133.140  13
   6  -1  12 1051.24 120.695  13
   6  -1  13 2059.79 124.714  13
   6   0  -9 4770.49 173.564  14
   6   0  -8 6721.27 240.375  14
   6   0  -7 56.3591 82.4119  14
   6   0  -7 568.951 159.252  25
   6   0  -6 18498.7 454.148  17
   6   0  -6 17007.2 497.955  14
   6   0  -6 17240.7 494.806  25
   6   0  -5 29891.8 681.990  17
   6   0  -5 30258.7 755.176  14
   6   0  -5 31517.7 737.823  25
   6   0  -4 1539.62 281.589  17
   6   0  -4 1792.78 180.575  14
   6   0  -4 1639.45 195.737  25
   6   0  -3 378.166 267.127  17
   6   0  -3 1544.25 166.012  14
   6   0  -2 633.840 294.253  17
   6   0  -2 2917.30 199.870  14
   6   0  -1 1681.32 159.990   6
   6   0  -1 2022.10 160.865  14
   6   0   0 2638.26 196.679   6
   6   0   0 2978.70 184.191  20
   6   0   1 13452.5 398.025  20
   6   0   1 11063.4 444.611  17
   6   0   2 329.212 101.688  11
   6   0   3 17813.5 528.581  17
   6   0   3 18250.6 468.280  15
   6   0   4 26524.5 674.509  11
   6   0   4 25719.0 602.492  15
   6   0   5 9370.62 364.528  11
   6   0   5 8746.32 351.011  15
   6   0   6 3597.34 228.612  11
   6   0   6 3954.19 276.557  15
   6   0   7 14164.5 426.643  18
   6   0   7 14499.2 471.700  15
  -6   0  -7 14208.5 510.651   4
   6   0   8 2882.59 185.982  18
   6   0   8 2460.46 298.751  15
   6   0   9 2328.47 179.101  18
   6   0  10 12271.1 403.542  18
   6   0  11 289.820 102.287  18
   6   0  12 12316.0 381.943  18
   6   0  12 12812.7 384.891  13
   6   0  13 14842.8 394.258  27
   6   0  13 16602.4 413.577  13
   6   0  14 2536.23 125.585  27
   6   0  14 3033.66 135.594  13
   6   1  -9 3980.44 157.889  14
   6   1  -8 2017.64 135.929  14
   6   1  -7 2741.20 177.750  14
   6   1  -7 3314.86 213.581  25
   6   1  -6 497.438 120.494  14
   6   1  -6 1146.41 172.004  25
   6   1  -5 3307.65 212.330  14
   6   1  -5 3696.19 235.795  25
   6   1  -4 10993.7 401.826  14
   6   1  -4 11551.6 388.761  25
   6   1  -3 6115.49 296.825  14
   6   1  -3 6099.27 284.854  25
   6   1  -2 1020.98 138.381   6
   6   1  -2 972.500 138.667  14
   6   1  -1 20205.3 586.383   6
   6   1  -1 20069.4 551.298  14
   6   1   0 15982.3 500.171   6
   6   1   0 16534.1 459.910  14
   6   1   1 14428.5 450.738   6
   6   1   1 12871.3 389.053  15
   6   1   2 2590.44 177.119  11
   6   1   2 2190.81 167.311  15
   6   1   3 1029.06 127.991  11
   6   1   3 959.407 141.107  15
   6   1   4 1699.10 158.316  11
   6   1   4 2178.66 171.526  15
   6   1   5 8974.46 350.737  11
   6   1   5 9440.99 320.561  15
   6   1   6 19192.4 551.530  11
   6   1   6 19269.8 526.279  15
   6   1   7 13280.5 431.003  11
   6   1   7 12453.7 399.195  18
   6   1   7 12056.4 422.163  15
   6   1   8 38544.1 874.444  18
   6   1   8 40475.5 890.304  15
   6   1   9 3081.87 205.896  18
   6   1   9 2701.82 296.704  15
   6   1  10 3234.34 209.139  18
   6   1  11 1518.32 154.138  18
   6   1  12 3798.08 213.189  18
   6   1  12 3348.96 189.035  27
   6   1  13 6086.27 246.644  18
   6   1  13 5916.36 233.197  27
   6   1  14 2523.38 136.624  27
   6   1  14 2804.46 140.610  13
   6   2  -9 1977.85 104.451  14
   6   2  -8 14633.5 378.979  14
   6   2  -7 8522.35 295.759  21
   6   2  -7 8581.73 299.892  14
   6   2  -6 30.8920 77.0190  21
   6   2  -6-3.37739 91.6673  14
   6   2  -5 228.403 93.5072  21
   6   2  -5 276.475 113.647  14
   6   2  -4-71.5177 80.9501  21
   6   2  -4 36.0303 100.993  14
   6   2  -4 109.376 124.967  25
   6   2  -3 609.870 112.431  21
   6   2  -3 383.998 116.602  14
   6   2  -2 1715.30 153.272  21
   6   2  -2 1636.08 176.407   6
   6   2  -2 1497.15 157.873  14
   6   2  -1 8223.14 308.667  21
   6   2  -1 8112.07 345.483   6
   6   2  -1 8375.04 330.720  14
   6   2   0 6662.36 272.980  21
   6   2   0 6759.29 303.050   6
   6   2   0 7213.09 294.917  14
   6   2   1 24105.3 584.443  21
   6   2   1 24669.6 631.416   6
   6   2   1 24215.5 591.315  14
   6   2   2 5488.63 235.808  21
   6   2   2 5333.95 253.500   6
   6   2   2 5789.29 258.621  11
   6   2   2 5776.38 235.539  14
   6   2   3 949.172 114.044  21
   6   2   3 928.529 123.337  11
   6   2   3 770.231 139.176  15
   6   2   4 1412.79 128.566  21
   6   2   4 1294.25 142.558  11
   6   2   4 1248.30 154.011  15
   6   2   5 3390.43 209.610  21
   6   2   5 3479.33 212.939  11
   6   2   5 3284.28 203.768  15
   6   2   6 4538.16 238.915  21
   6   2   6 4473.25 246.974  11
   6   2   6 4861.11 242.475  15
   6   2   7 1581.72 178.353  21
   6   2   7 1283.78 143.526  11
   6   2   7 1467.02 203.303  15
   6   2   8 14437.6 447.860  21
   6   2   8 14244.4 442.491  18
   6   2   8 14927.4 462.126  15
   6   2   9-18.3124 84.0953  18
   6   2   9-13.4096 188.058  15
   6   2  10 14999.8 469.051  18
   6   2  10 15550.5 490.543  15
   6   2  11 13717.2 436.476  18
   6   2  12 888.167 131.971  18
   6   2  13 33.2779 81.0470  18
   6   2  14 1565.89 119.552  18
   6   2  14 1393.53 112.770  27
   6   3  -8 265.134 63.8614  21
   6   3  -7 4604.27 218.110  21
   6   3  -7 4555.18 202.512  14
   6   3  -6 17424.6 514.354  21
   6   3  -6 18533.8 491.478  14
   6   3  -5 6074.97 303.748  21
   6   3  -5 6682.95 287.224  14
   6   3  -4 6438.88 314.367  21
   6   3  -4 7196.75 310.597  14
   6   3  -3 43121.4 978.636  21
   6   3  -3 40476.8 937.808  14
   6   3  -2 12704.0 432.081  21
   6   3  -2 11594.0 411.616  14
   6   3  -1 2174.42 175.148  21
   6   3  -1 1953.89 169.644   6
   6   3  -1 2147.25 178.210  14
   6   3   0 171.792 100.522  21
   6   3   0 96.9384 77.8989   6
   6   3   0 206.662 111.044  14
   6   3   1 3271.54 198.552  21
   6   3   1 3453.41 206.577  14
   6   3   2 6312.33 266.875  21
   6   3   2 6472.99 274.707  11
   6   3   3 14980.8 427.260  21
   6   3   3 14325.0 445.616  11
   6   3   4 11927.8 370.557  21
   6   3   4 11616.8 398.865  11
   6   3   4 12121.6 380.871  15
   6   3   5 1732.18 176.637  21
   6   3   5 1688.02 160.180  11
   6   3   5 1626.77 159.659  15
   6   3   6 76061.4 1444.62  21
   6   3   6 76985.1 1494.04  11
   6   3   6 75930.5 1427.59  15
   6   3   7 3323.53 230.182  21
   6   3   7 2938.23 198.408  11
   6   3   8 572.511 168.871  21
   6   3   8 940.338 178.495  15
   6   3   9 5258.94 289.581  21
   6   3   9 5701.23 271.130  15
   6   3  10 3349.89 231.118  15
   6   3  11 9691.94 357.591  18
   6   3  12 6783.28 284.329  18
   6   3  13 1139.93 122.373  18
   6   3  14-7.39999 66.2866  18
   6   4  -8 87.0880 46.0500  21
   6   4  -7 72.1345 63.6624  21
   6   4  -6 22.4088 85.6773  21
   6   4  -5 35.8292 94.2832  21
   6   4  -4 68.1263 107.150  21
   6   4  -4 389.208 113.961  14
   6   4  -3 9347.96 385.675  21
   6   4  -3 9587.59 357.020  14
   6   4  -2 1824.00 179.649  21
   6   4  -1 25602.0 676.332  21
   6   4   0 11268.7 398.937  21
   6   4   1 1098.68 138.399  21
   6   4   2 3904.28 220.095  21
   6   4   2 3707.41 221.220  11
   6   4   3 4052.99 219.126  21
   6   4   3 3815.09 229.387  11
   6   4   4 5363.20 248.646  21
   6   4   4 4947.96 259.634  11
   6   4   4 5811.99 248.558  16
   6   4   4 4921.57 250.695  15
   6   4   5 1175.39 160.723  21
   6   4   5 1230.64 152.037  11
   6   4   5 1102.34 147.579  15
   6   4   6 15950.2 467.001  21
   6   4   6 15694.2 482.231  11
   6   4   6 15883.4 439.813  15
  -6  -4  -6 16035.5 444.553  26
   6   4   7 129.765 153.702  21
  -6  -4  -7-34.7679 60.9768  26
   6   4   8 22750.5 595.921  21
   6   4   8 22358.4 549.057  15
  -6  -4  -8 22806.2 571.989  26
   6   4   9 20095.1 559.764  21
   6   4   9 20018.9 507.195  15
  -6  -4  -9 19861.8 525.295  26
   6   4  10 191.152 113.324  15
  -6  -4 -10 281.664 79.1475  26
  -6  -4 -11 3027.67 178.211  26
   6   4  12 5009.58 236.207  18
  -6  -4 -12 5040.00 215.344  26
   6   4  13 2553.62 155.224  18
  -6  -4 -13 2556.16 141.306  26
   6   4  14 1652.50 111.062  18
  -6  -4 -14 1667.82 97.0503  26
   6   5  -7 559.590 73.8820  21
   6   5  -6 5028.50 215.296  21
   6   5  -5 21133.2 555.566  21
   6   5  -4 4226.29 242.649  21
   6   5  -3 228.214 104.511  21
   6   5  -2 560.928 130.923  21
   6   5  -1 9661.97 380.296  21
   6   5   0 5865.20 284.814  21
   6   5   1 1641.21 162.908  21
   6   5   1 1875.06 161.505  16
   6   5   2 669.045 121.264  21
   6   5   2 803.702 124.241  16
   6   5   3 2973.21 194.441  21
   6   5   3 3222.31 196.356  16
   6   5   4 44682.1 950.176  21
   6   5   4 45850.2 972.723  16
   6   5   4 44269.5 933.543  15
   6   5   5 2829.28 209.680  21
   6   5   5 3012.16 191.730  16
   6   5   5 2608.53 182.061  15
   6   5   6 1442.36 176.559  21
   6   5   6 1299.89 142.719  15
  -6  -5  -6 1286.43 130.298  26
   6   5   7 7565.90 313.596  21
   6   5   7 7711.36 271.066  15
  -6  -5  -7 7369.77 292.976  26
   6   5   8 4732.81 258.106  21
  -6  -5  -8 4760.69 232.054  26
   6   5   9 4906.74 262.964  21
  -6  -5  -9 5193.11 238.668  26
  -6  -5 -10 3664.77 199.639  26
  -6  -5 -11 201.801 81.6189  26
   6   5  12 65.8337 79.4667  18
  -6  -5 -12 76.9245 65.1380  26
   6   5  13 7717.33 252.077  18
  -6  -5 -13 7574.49 244.519  26
   6   5  14 1419.90 90.5705  18
  -6  -5 -14 1615.58 91.9300  26
   6   6  -6-8.10803 55.4519  21
   6   6  -5 913.804 108.142  21
   6   6  -4 5840.81 249.373  21
   6   6  -3 15032.6 448.608  21
   6   6  -2 2206.73 183.223  21
   6   6  -1 0.12317 100.420  21
   6   6  -1 94.7563 85.1407  16
   6   6   0 2238.20 178.332  21
   6   6   0 2304.44 186.700  16
   6   6   1 3281.85 205.869  21
   6   6   1 3359.77 218.123  16
   6   6   2 12757.3 408.167  21
   6   6   2 13369.9 442.169  16
   6   6   3 1025.22 130.525  21
   6   6   3 874.111 123.016  16
   6   6   4 1183.35 144.791  21
   6   6   4 1029.52 132.610  16
   6   6   4 796.486 126.209  15
   6   6   5 4841.41 243.175  21
   6   6   5 4492.90 238.620  16
   6   6   6 14790.7 433.971  21
  -6  -6  -6 14713.0 441.526  26
   6   6   7 3223.02 199.662  21
  -6  -6  -7 3136.04 190.766  26
   6   6   8 772.701 134.603  21
  -6  -6  -8 894.616 115.367  26
  -6  -6  -9 3212.36 189.064  26
  -6  -6 -10 5550.76 237.393  26
  -6  -6 -11 4633.71 206.183  26
  -6  -6 -12 1272.58 107.510  26
   6   6  13-30.3233 47.1087  18
  -6  -6 -13-5.55164 43.0802  26
   6   7  -4 3.81935 50.5405  21
   6   7  -3 1903.71 122.538  21
   6   7  -2 7247.04 254.642  21
   6   7  -2 7201.98 266.179  16
   6   7  -1 3442.89 182.732  21
   6   7  -1 3634.51 202.763  16
   6   7   0 64.3445 80.4602  21
   6   7   0 40.4778 85.0395  16
   6   7   1 143.628 87.1667  21
   6   7   1 59.7288 90.6668  16
   6   7   2 21115.5 525.930  21
   6   7   2 22170.8 593.127  16
   6   7   2 21864.2 516.411  15
   6   7   3 347.350 101.135  21
   6   7   3 211.498 101.590  16
   6   7   4 1437.92 131.964  21
   6   7   4 1442.77 145.323  16
   6   7   5 702.195 108.844  21
   6   7   5 795.919 117.552  16
   6   7   6 1579.87 133.018  21
  -6  -7  -6 1414.00 139.308  26
   6   7   7 6672.53 248.876  21
  -6  -7  -7 6641.95 270.717  26
  -6  -7  -8 8466.07 300.608  26
  -6  -7  -9 8.49805 70.0066  26
  -6  -7 -10 3798.25 180.360  26
  -6  -7 -11 8411.01 257.743  26
  -6  -7 -12 344.728 57.5566  26
   6   8  -1 135.216 59.0390  16
   6   8   0 1554.54 128.140  16
   6   8   1 1258.05 125.546  16
   6   8   2 621.478 102.628  16
   6   8   3 3119.63 182.229  16
   6   8   4 9925.08 327.749  16
  -6  -8  -5 84.6559 73.1301  26
  -6  -8  -6 6194.41 239.050  26
  -6  -8  -7 3925.96 184.579  26
  -6  -8  -8 486.399 78.2268  26
  -6  -8  -9 754.512 83.3521  26
  -6  -8 -10 1348.71 91.1504  26
  -6  -9  -3 1522.70 98.5978  26
  -6  -9  -4 2602.49 126.132  26
  -6  -9  -5 2377.21 119.968  26
   7  -4  -1 1493.03 97.3740  20
   7  -4   0 4562.24 187.862  20
   7  -4   1 842.276 116.848  20
   7  -4   2 3883.84 181.640  20
   7  -4   3 7957.79 251.155  20
   7  -4   4 2449.37 137.181  20
   7  -3  -4 13581.9 331.324  25
   7  -3  -3 1302.97 92.9703  20
   7  -3  -3 1151.34 120.947  25
   7  -3  -2 1712.94 145.793  20
   7  -3  -1 15436.0 412.325  20
   7  -3   0 7882.24 297.286  20
   7  -3   1 837.048 159.872  20
   7  -3   2 297.339 154.388  20
   7  -3   3 92.2700 144.668  20
   7  -3   4 1211.53 165.981  20
   7  -3   5 3937.36 210.631  20
   7  -3   6 6831.53 244.789  20
   7  -3   6 5925.95 216.175  13
   7  -3   7 4148.54 174.197  20
   7  -3   7 4085.83 172.541  13
   7  -3   8 9817.10 276.421  13
   7  -3   9 2977.56 132.115  13
   7  -2  -5 4090.04 175.862  25
   7  -2  -4 3399.02 182.943  25
   7  -2  -3 3285.14 196.545  25
   7  -2  -2 6117.43 256.500  20
   7  -2  -1 278.659 152.579  20
   7  -2   0 7331.35 313.318  20
   7  -2   0 5880.12 463.092  17
   7  -2   1 15388.3 466.508  20
   7  -2   1 13636.6 546.639  17
   7  -2   2 6237.68 283.819  20
   7  -2   3 192.160 128.982  20
   7  -2   4 12495.9 404.137  20
   7  -2   5 2771.12 194.036  20
   7  -2   6 3359.80 199.699  20
   7  -2   6 3105.73 173.474  13
   7  -2   7 995.785 124.447  20
   7  -2   7 982.762 116.120  13
   7  -2   8 707.217 98.8722  20
   7  -2   8 738.821 100.703  13
   7  -2   9 3635.08 173.294  13
   7  -2  10 8182.93 251.147  13
   7  -1  -6 10767.2 286.691  14
   7  -1  -6 11304.8 295.159  25
   7  -1  -5 1667.72 119.491  14
   7  -1  -5 1727.58 145.100  25
   7  -1  -4 6472.89 366.297  17
   7  -1  -4 5765.65 233.677  14
   7  -1  -4 6484.73 258.305  25
   7  -1  -3 12302.8 407.939  17
   7  -1  -3 8638.49 323.264  25
   7  -1  -2 8569.02 316.785  17
   7  -1  -1 1420.36 188.792  20
   7  -1  -1 9224.12 305.159  17
   7  -1   0 81.8791 137.306  20
   7  -1   0 7579.93 283.270  17
   7  -1   1 361.692 121.777  20
   7  -1   1 7710.16 277.551  17
   7  -1   2 3414.89 228.215  20
   7  -1   2 9590.63 304.610  17
   7  -1   3 1481.73 174.136  20
   7  -1   3 6903.53 268.708  17
   7  -1   4 2698.67 199.032  20
   7  -1   5 8123.65 318.430  20
   7  -1   6 9119.22 332.152  20
   7  -1   6 9077.21 314.196  13
   7  -1   7 470.609 119.136  20
   7  -1   7 781.928 117.585  13
   7  -1   8 616.828 112.514  20
   7  -1   8 936.959 121.904  13
   7  -1   9 42.7668 77.6727  20
   7  -1   9 113.750 84.7722  13
   7  -1  10 904.917 95.6376  20
   7  -1  10 866.351 110.482  13
   7  -1  11 2317.06 136.921  13
   7  -1  12 46.1945 52.6112  13
   7   0  -7 3566.72 139.575  14
   7   0  -6 2525.34 144.398  14
   7   0  -6 3119.81 160.310  25
   7   0  -5 5789.16 241.581  14
   7   0  -5 5926.13 236.016  25
   7   0  -4 7697.74 310.497  14
   7   0  -4 7564.05 294.000  25
   7   0  -3 1047.87 134.655  14
   7   0  -3 696.775 143.111  25
   7   0  -2 25143.6 588.198  17
   7   0  -2 23966.2 605.563  14
   7   0  -1 24857.6 618.771  17
   7   0   0 711.332 121.528  20
   7   0   0 2663.36 232.799  17
   7   0   1 4994.87 247.425  20
   7   0   1 5208.70 279.729  17
   7   0   2 16138.1 476.260  20
   7   0   2 16701.4 472.153  17
   7   0   3 987.937 140.341  20
   7   0   3 2521.05 206.460  17
   7   0   4 2824.30 201.072  20
   7   0   4 2850.11 244.756  15
   7   0   5 1327.64 159.857  20
   7   0   5 1598.08 246.258  15
   7   0   6 7111.42 346.895  15
   7   0   7 19380.4 573.905  15
   7   0   7 19647.8 514.938  13
   7   0   8 11750.8 460.072  15
   7   0   8 11823.1 377.823  13
   7   0   9 87.8721 64.0269  18
   7   0   9 15.6448 84.5238  13
   7   0  10 201.447 93.9316  13
   7   0  11 20310.5 456.604  20
   7   0  11 21554.9 505.297  13
   7   0  12 58.3375 62.8336  13
   7   1  -7 1857.28 105.650  14
   7   1  -6 8822.41 277.282  14
   7   1  -5 9049.36 315.331  14
   7   1  -5 9133.67 291.187  25
   7   1  -4 128.025 101.841  14
   7   1  -4 274.992 120.927  25
   7   1  -3 313.659 122.147  14
   7   1  -3 235.078 123.831  25
   7   1  -2 134.154 183.443  17
   7   1  -2-3.39498 96.4777  14
   7   1  -1-29.3505 86.4881  14
   7   1   0 3999.49 281.212  17
   7   1   1 5127.38 230.150  20
   7   1   1 4216.02 276.850  17
   7   1   1 4619.58 221.347  15
   7   1   2 5191.82 239.535  20
   7   1   2 4983.66 229.539  15
   7   1   3 11548.9 410.803  17
   7   1   3 12785.5 379.320  15
   7   1   4 15690.4 477.577  17
   7   1   4 18127.5 467.378  15
   7   1   5 357.511 224.963  15
   7   1   6 163.772 221.358  15
   7   1   7 475.105 244.733  15
   7   1   8 413.181 86.2025  18
   7   1   8 405.467 268.720  15
   7   1   9 7297.53 275.094  18
   7   1   9 7198.95 389.739  15
   7   1  10 1556.21 131.696  18
   7   1  11 1359.32 120.400  18
   7   1  12 3857.19 172.477  18
   7   1  12 3890.92 179.227  13
   7   1  13 10713.2 285.148  13
   7   2  -6 1136.64 106.658  14
   7   2  -5 2686.53 214.960  17
   7   2  -5 3006.19 176.063  14
   7   2  -4 13334.0 431.287  17
   7   2  -4 14644.4 431.327  14
   7   2  -3 11241.1 410.031  17
   7   2  -3 11746.0 398.929  14
   7   2  -2-6.59443 103.032  14
   7   2  -1 6512.51 282.319  15
   7   2  -1 6951.93 302.920  14
   7   2   0 19022.1 522.410  15
   7   2   0 20552.7 546.050  14
   7   2   1-23.3131 126.498  15
   7   2   2 87.1350 129.589  15
   7   2   3 53.7712 114.136  15
   7   2   4 6386.48 268.207  21
   7   2   4 6714.01 275.788  15
   7   2   5 15776.4 440.629  21
   7   2   5 16014.7 457.437  15
   7   2   6 8068.15 307.739  21
   7   2   6 8258.67 353.355  15
   7   2   7 162.840 144.688  21
   7   2   7 391.059 237.785  15
   7   2   8 60.7136 74.7860  18
   7   2   8 137.458 238.581  15
   7   2   9 22610.0 570.091  18
   7   2   9 23524.0 623.696  15
   7   2  10 53.6440 79.4816  18
   7   2  11 358.518 93.1353  18
   7   2  12 59.6144 69.6438  18
   7   2  13 168.128 60.1549  18
   7   3  -6 111.985 56.9876  21
   7   3  -5 731.737 101.758  21
   7   3  -5-226.528 181.017  17
   7   3  -4 185.581 97.0470  21
   7   3  -3 2883.13 203.063  21
   7   3  -3 3300.33 210.241  14
   7   3  -2 10910.7 383.401  21
   7   3  -1 499.402 115.404  21
   7   3   0 190.768 94.7536  21
   7   3   1 12388.5 396.477  21
   7   3   1 11970.4 411.903  15
   7   3   2 14849.3 433.016  21
   7   3   2 14333.3 448.626  15
   7   3   3 1090.79 125.994  21
   7   3   3 694.779 144.775  15
   7   3   4 62.3169 144.432  21
   7   3   4 200.044 131.480  15
   7   3   5 1387.32 186.110  21
   7   3   5 1900.79 168.063  15
   7   3   6 4416.88 256.623  21
   7   3   6 5313.03 253.962  15
   7   3   7 9185.23 351.255  21
   7   3   7 9483.72 368.067  15
   7   3   8-115.489 167.448  21
   7   3   8 28.6083 74.0730  18
   7   3   8 298.488 212.989  15
   7   3   9 543.886 112.164  18
   7   3   9 321.997 191.645  15
   7   3  10 8986.89 318.562  18
   7   3  10 8717.53 348.425  15
   7   3  11 11158.9 348.338  18
   7   3  12 205.621 71.5527  18
   7   3  13 2530.95 131.639  18
   7   4  -6 9907.44 261.534  21
   7   4  -5 1583.14 126.628  21
   7   4  -4 1379.91 140.061  21
   7   4  -3 2074.39 180.495  21
   7   4  -2 4351.93 250.685  21
   7   4  -1-50.2888 122.068  21
   7   4   0 19.0356 113.749  21
   7   4   1 142.941 106.639  21
   7   4   2 8390.32 322.853  21
   7   4   2 8342.22 343.985  15
   7   4   3 21434.4 567.055  21
   7   4   3 22812.8 583.543  15
   7   4   4 4125.60 254.704  21
   7   4   4 4085.51 237.294  15
   7   4   5 2305.50 218.268  21
   7   4   5 2632.64 184.259  15
   7   4   6 150.502 166.460  21
   7   4   6 783.659 135.254  15
   7   4   7 8270.06 332.924  21
   7   4   7 8532.88 307.783  15
   7   4   8 549.959 176.034  21
   7   4   8 965.821 178.492  15
   7   4   9-51.2480 170.428  21
   7   4   9 199.776 141.543  15
   7   4  10 1158.95 125.392  18
   7   4  10 701.798 148.052  15
   7   4  11 2120.04 148.380  18
   7   4  12 4843.58 198.132  18
   7   4  13 3454.16 145.971  18
   7   5  -5 1259.20 96.8682  21
   7   5  -4 9730.47 305.529  21
   7   5  -3-44.4390 104.492  21
   7   5  -2 1139.01 149.538  21
   7   5  -1 14802.9 459.907  21
   7   5   0 4531.89 248.548  21
   7   5   1 1951.80 176.505  21
   7   5   2 3597.32 215.470  21
   7   5   2 2949.57 212.882  15
   7   5   3 468.569 117.576  21
   7   5   3 123.275 123.580  15
   7   5   4 657.799 172.967  21
   7   5   4 598.539 123.083  15
   7   5   5 6526.47 295.317  21
   7   5   5 5960.79 250.694  15
   7   5   6 230.337 165.491  21
   7   5   6 521.799 116.220  15
   7   5   7 4809.50 262.377  21
   7   5   7 5118.11 227.642  15
  -7  -5  -7 4879.43 209.094  26
   7   5   8 13737.3 421.676  21
   7   5   8 13554.2 370.239  15
  -7  -5  -8 13831.8 380.158  26
   7   5   9 5266.96 213.770  15
  -7  -5  -9 5294.71 210.500  26
  -7  -5 -10 1848.75 115.834  26
   7   5  11 5101.73 209.371  18
  -7  -5 -11 4832.28 177.431  26
   7   5  12 211.577 65.1379  18
   7   6  -4 3936.20 150.387  21
   7   6  -3 19.1192 66.8828  21
   7   6  -2 158.362 86.8624  21
   7   6  -1-52.5187 90.2929  21
   7   6   0 4149.50 216.541  21
   7   6   1 20873.6 538.555  21
   7   6   1 21386.1 545.920  15
   7   6   2 7903.85 292.614  21
   7   6   2 7049.18 286.712  15
   7   6   3 2394.43 199.220  21
   7   6   3 2334.86 171.522  15
   7   6   4 3737.07 223.700  21
   7   6   4 3375.30 184.006  15
   7   6   5 8140.87 303.432  21
   7   6   5 7257.57 256.993  15
  -7  -6  -5 7944.82 282.395  26
   7   6   6 253.180 135.407  21
   7   6   6 422.500 98.9310  15
  -7  -6  -6 133.052 69.6514  26
   7   6   7 180.474 129.943  21
  -7  -6  -7 154.525 67.1118  26
   7   6   8 853.437 146.574  21
  -7  -6  -8 1022.33 104.043  26
  -7  -6  -9 3704.43 168.004  26
  -7  -6 -10 5246.49 191.135  26
   7   6  11 2557.93 134.355  18
  -7  -6 -11 2584.95 119.360  26
   7   7  -1 1060.65 89.6941  21
   7   7  -1 595.443 96.3547  15
   7   7   0 2519.40 135.289  21
   7   7   0 1826.28 134.533  15
   7   7   1 363.603 115.043  21
   7   7   1 524.291 81.6527  16
   7   7   1 323.522 92.9700  15
   7   7   2 178.900 112.690  21
   7   7   2 123.726 87.0373  15
   7   7   3 800.932 124.136  21
   7   7   3 699.410 98.6485  15
   7   7   4 423.956 114.650  21
  -7  -7  -4 371.688 82.5441  26
   7   7   5 2190.55 155.930  21
  -7  -7  -5 2220.32 145.433  26
   7   7   6 5710.28 225.078  21
  -7  -7  -6 5924.83 224.979  26
   7   7   7 4611.62 199.807  21
  -7  -7  -7 4654.93 192.052  26
  -7  -7  -8 517.546 73.8152  26
  -7  -7  -9 3367.83 144.156  26
  -7  -8  -3 1584.94 104.160  26
  -7  -8  -4 57.9491 53.9676  26
  -7  -8  -5 632.417 73.9887  26
  -7  -8  -6 58.3477 45.4129  26
   8  -2   0 1313.86 107.393  25
   8  -2   1 752.745 113.608  20
   8  -2   2 2511.01 160.192  20
   8  -2   3 187.023 108.819  20
   8  -2   4 3151.52 171.333  20
   8  -2   5 11285.2 307.420  20
   8  -2   6 1965.61 126.881  20
   8  -1  -2 2776.60 133.440  25
   8  -1  -1 2721.51 143.784  25
   8  -1   0 5164.76 202.169  20
   8  -1   0 4877.37 192.387  25
   8  -1   1 14503.8 383.393  20
   8  -1   2 2882.83 193.134  20
   8  -1   3 4407.80 214.098  20
   8  -1   4 2941.85 172.928  20
   8  -1   5 4637.11 210.520  20
   8  -1   6 106.561 89.3573  20
   8  -1   7 712.465 98.5285  20
   8  -1   8 74.6050 64.1003  20
   8   0  -3 11642.6 353.351  17
   8   0  -2 6089.36 311.368  17
   8   0  -2 5341.96 185.191  25
   8   0  -1 6295.82 211.349  17
   8   0  -1 47.7807 86.7720  25
   8   0   0 6330.19 242.577  17
   8   0   1 781.708 143.448  20
   8   0   1 6623.00 227.950  17
   8   0   2 8207.34 299.549  20
   8   0   2 12077.4 317.621  17
   8   0   3 15908.7 446.437  20
   8   0   3 18006.1 411.466  17
   8   0   4 1104.51 138.500  20
   8   0   5 148.257 98.6343  20
   8   0   6 7866.27 283.088  20
   8   0   7 3433.38 183.563  20
   8   0   8-5.98242 79.6019  20
   8   0   9 261.547 76.0030  20
   8   0   9 347.008 63.7042  13
   8   1  -3 4048.62 177.745  17
   8   1  -2 9204.32 277.308  17
   8   1  -1 9856.17 305.482  17
   8   1   0 3746.56 210.324  17
   8   1   1 6119.13 257.730  17
   8   1   2 482.819 99.4633  20
   8   1   2 3056.22 188.655  17
   8   1   3 4353.46 215.391  20
   8   1   3 3840.70 242.541  15
   8   1   4 1646.82 149.179  20
   8   1   4 1279.16 208.908  15
   8   1   5 565.852 116.770  20
   8   1   5 790.470 217.006  15
   8   1   6 364.931 113.767  20
   8   1   6 726.018 218.894  15
   8   1   7 4812.70 224.577  20
   8   1   7 5317.92 299.949  15
   8   1   8 10866.4 332.785  20
   8   1   9 1255.10 120.072  20
   8   1   9 1446.34 108.345  13
   8   1  10 300.195 73.8124  20
   8   1  10 465.377 71.2697  13
   8   2  -3 2388.28 163.371  17
   8   2  -2 1824.21 165.653  17
   8   2  -1 2615.91 218.231  17
   8   2   0 13392.5 398.049  17
   8   2   0 12055.3 336.155  15
   8   2   1 12327.7 392.523  17
   8   2   1 12091.2 340.453  15
   8   2   2 910.267 169.209  17
   8   2   2 1583.98 144.601  15
   8   2   3 5710.04 265.489  17
   8   2   3 6576.70 250.309  15
   8   2   4 5084.58 220.228  20
   8   2   4 4819.10 235.885  17
   8   2   4 4916.60 285.950  15
   8   2   5-199.711 96.6862  20
   8   2   5-87.1957 223.220  15
   8   2   6 235.668 227.985  15
   8   2   7 631.840 244.109  15
   8   2   8 1610.79 258.167  15
   8   2   9 4954.25 298.737  15
   8   2   9 4844.68 193.929  13
   8   2  10 2097.38 127.528  13
   8   2  11 1171.77 91.5590  13
   8   3  -3 7265.05 249.052  17
   8   3  -2 203.130 133.800  17
   8   3  -2 12.8859 85.8314  15
   8   3  -1 5434.01 278.434  17
   8   3  -1 5644.63 225.139  15
   8   3   0 65.7563 170.128  17
   8   3   0 615.206 126.839  15
   8   3   1 2025.52 175.203  21
   8   3   1 2249.62 165.884  15
   8   3   2 3103.53 201.931  21
   8   3   2 3559.33 195.214  15
   8   3   3 2370.62 186.479  21
   8   3   3 3215.35 187.231  15
   8   3   4 1831.05 173.929  21
   8   3   4 2723.23 179.436  15
   8   3   5 9916.66 324.373  21
   8   3   5 10564.2 352.217  15
   8   3   6 17342.6 447.902  21
   8   3   6 17741.3 493.929  15
   8   3   7 509.586 139.597  21
   8   3   7 641.199 232.324  15
   8   3   8 2995.57 251.987  15
   8   3   9 1823.14 224.089  15
   8   3  10 244.216 60.6625  18
   8   3  11 936.212 83.6288  13
   8   4  -2 3291.60 151.461  21
   8   4  -2 3027.52 189.704  17
   8   4  -2 3092.57 161.997  15
   8   4  -1 4556.65 195.153  21
   8   4  -1 4146.79 203.441  15
   8   4   0 941.772 117.525  21
   8   4   0 502.651 126.244  15
   8   4   1 4371.36 226.960  21
   8   4   1 4411.10 227.332  15
   8   4   2 3470.46 226.978  21
   8   4   2 4191.96 216.984  15
   8   4   3 310.681 152.228  21
   8   4   3 908.130 133.270  15
   8   4   4 705.522 165.641  21
   8   4   4 1511.68 146.847  15
   8   4   5 831.854 161.651  21
   8   4   5 1945.05 150.642  15
   8   4   6 492.169 148.917  21
   8   4   6 273.734 208.999  15
   8   4   7 2934.16 199.007  21
   8   4   7 3182.91 230.433  15
   8   4   8 1843.65 200.223  15
   8   4   9 563.473 178.357  15
   8   4  10 7360.48 226.996  18
   8   5  -1 2795.22 145.679  21
   8   5  -1 2418.63 155.890  15
   8   5   0 2816.95 155.183  21
   8   5   0 2391.23 165.589  15
   8   5   1-191.959 162.797  21
   8   5   1 2.06644 102.374  15
   8   5   2 8736.54 320.648  21
   8   5   2 9199.79 302.525  15
   8   5   3 6402.93 278.638  21
   8   5   3 7102.62 258.528  15
   8   5   4 5714.79 258.425  21
   8   5   4 6187.99 232.269  15
   8   5   5 273.808 148.354  21
   8   5   5 939.002 118.018  15
   8   5   6 2154.34 181.389  21
   8   5   6 1927.41 188.425  15
   8   5   7 3488.49 201.864  21
   8   5   7 3485.44 207.996  15
   8   5   8 204.322 142.624  15
   8   5   9 80.4665 127.278  15
   8   6   0 211.766 108.926  21
   8   6   0 386.266 83.7078  15
   8   6   1 457.922 125.226  21
   8   6   1 671.052 102.036  15
   8   6   2 128.534 123.992  21
   8   6   2 354.063 93.0147  15
   8   6   3 13.3718 127.514  21
   8   6   3 395.308 94.4387  15
   8   6   4 2589.59 179.006  21
   8   6   4 3093.97 147.651  15
   8   6   5 7974.65 269.075  21
   8   6   5 7299.15 246.453  15
   8   6   6 723.411 135.713  21
   8   6   6 531.878 129.553  15
   8   6   7 2931.50 172.915  21
   9   3   4 4688.13 226.908  15
   9   3   5 1124.86 182.342  15
   9   3   6 359.609 171.049  15
   0   0   0    0.00    0.00   0
;
_shelx_hkl_checksum              75893
loop_
_space_group_symop_operation_xyz
'x, y, z'
'-x, -y, -z'
loop_
_atom_site_label
_atom_site_type_symbol
_atom_site_fract_x
_atom_site_fract_y
_atom_site_fract_z
_atom_site_U_iso_or_equiv
_atom_site_adp_type
_atom_site_occupancy
_atom_site_site_symmetry_order
_atom_site_calc_flag
_atom_site_refinement_flags_posn
_atom_site_refinement_flags_adp
C1 C -0.4082(3) 1.0363(3) 1.21519(15) 0.0255(5) Uani 1 1 d . .
H1A H -0.311966 0.969453 1.249426 0.038 Uiso 1 1 calc R U
H1B H -0.512806 1.093912 1.263855 0.038 Uiso 1 1 calc R U
H1C H -0.352584 1.117104 1.165508 0.038 Uiso 1 1 calc R U
C2 C -0.6817(3) 0.9427(3) 1.18576(15) 0.0230(4) Uani 1 1 d . .
H2A H -0.729268 1.000479 1.127711 0.034 Uiso 1 1 calc R U
H2B H -0.742745 1.004270 1.243956 0.034 Uiso 1 1 calc R U
H2C H -0.709800 0.832004 1.198993 0.034 Uiso 1 1 calc R U
C3 C -0.3614(3) 0.8451(2) 1.09045(14) 0.0161(4) Uani 1 1 d . .
C4 C -0.1645(3) 0.8408(2) 1.06619(14) 0.0169(4) Uani 1 1 d . .
H4 H -0.113150 0.898026 1.103332 0.020 Uiso 1 1 calc R U
C5 C -0.0469(3) 0.7549(2) 0.98964(14) 0.0164(4) Uani 1 1 d . .
H5 H 0.084517 0.753247 0.975237 0.020 Uiso 1 1 calc R U
C6 C -0.1164(3) 0.6697(2) 0.93239(13) 0.0147(4) Uani 1 1 d . .
C7 C -0.3104(3) 0.6713(2) 0.95675(14) 0.0166(4) Uani 1 1 d . .
H7 H -0.359988 0.612351 0.919772 0.020 Uiso 1 1 calc R U
C8 C -0.4305(3) 0.7564(2) 1.03294(14) 0.0165(4) Uani 1 1 d . .
H8 H -0.561433 0.755937 1.047368 0.020 Uiso 1 1 calc R U
C9 C 0.0079(3) 0.5851(2) 0.84934(13) 0.0146(4) Uani 1 1 d . .
C10 C 0.2961(3) 0.5038(2) 0.75098(13) 0.0138(4) Uani 1 1 d . .
C11 C 0.5561(3) 0.3743(2) 0.62040(13) 0.0143(4) Uani 1 1 d . .
C12 C 0.3782(3) 0.3530(2) 0.61715(13) 0.0139(4) Uani 1 1 d . .
C13 C 0.3554(3) 0.2650(2) 0.54475(14) 0.0175(4) Uani 1 1 d . .
H13 H 0.233821 0.252009 0.542192 0.021 Uiso 1 1 calc R U
C14 C 0.5139(3) 0.1977(2) 0.47725(14) 0.0179(4) Uani 1 1 d . .
H14 H 0.502307 0.137417 0.427189 0.021 Uiso 1 1 calc R U
C15 C 0.6922(3) 0.2178(2) 0.48217(14) 0.0159(4) Uani 1 1 d . .
C16 C 0.7179(3) 0.3069(2) 0.55230(13) 0.0160(4) Uani 1 1 d . .
H16 H 0.839388 0.321250 0.553919 0.019 Uiso 1 1 calc R U
B1 B 0.0214(3) 0.4289(3) 0.70877(16) 0.0182(5) Uani 1 1 d . .
N1 N -0.4782(2) 0.9297(2) 1.16583(12) 0.0194(4) Uani 1 1 d . .
N2 N 0.1910(2) 0.58491(19) 0.82821(11) 0.0147(3) Uani 1 1 d . .
N3 N 0.2342(2) 0.42776(19) 0.69144(11) 0.0142(3) Uani 1 1 d . .
O1 O -0.07369(19) 0.51386(17) 0.79906(10) 0.0185(3) Uani 1 1 d . .
F1 F -0.04934(16) 0.51238(15) 0.62824(8) 0.0210(2) Uani 1 1 d . .
F2 F -0.00737(17) 0.26931(14) 0.72352(9) 0.0227(3) Uani 1 1 d . .
S1 S 0.53830(6) 0.49121(5) 0.71782(3) 0.01442(11) Uani 1 1 d . .
Br1 Br 0.90394(3) 0.11797(2) 0.38777(2) 0.02049(8) Uani 1 1 d . .
loop_
_atom_site_aniso_label
_atom_site_aniso_U_11
_atom_site_aniso_U_22
_atom_site_aniso_U_33
_atom_site_aniso_U_23
_atom_site_aniso_U_13
_atom_site_aniso_U_12
C1 0.0255(12) 0.0297(11) 0.0200(10) -0.0114(8) 0.0010(8) -0.0041(9)
C2 0.0176(11) 0.0258(11) 0.0209(10) -0.0054(8) 0.0030(8) -0.0014(8)
C3 0.0168(10) 0.0154(9) 0.0132(9) 0.0007(7) -0.0010(7) -0.0014(7)
C4 0.0178(10) 0.0180(9) 0.0152(9) -0.0027(7) -0.0039(8) -0.0033(8)
C5 0.0146(10) 0.0172(9) 0.0163(9) -0.0004(7) -0.0031(7) -0.0021(7)
C6 0.0153(10) 0.0129(8) 0.0135(9) 0.0000(7) -0.0022(7) 0.0001(7)
C7 0.0185(10) 0.0155(9) 0.0160(9) -0.0004(7) -0.0042(7) -0.0041(7)
C8 0.0131(10) 0.0177(9) 0.0171(9) 0.0000(7) -0.0016(7) -0.0024(7)
C9 0.0178(10) 0.0129(8) 0.0134(9) 0.0012(7) -0.0052(7) -0.0036(7)
C10 0.0160(10) 0.0127(8) 0.0135(9) 0.0001(7) -0.0044(7) -0.0041(7)
C11 0.0180(10) 0.0124(8) 0.0126(8) -0.0019(7) -0.0045(7) -0.0014(7)
C12 0.0141(10) 0.0135(8) 0.0129(8) -0.0009(7) -0.0011(7) -0.0026(7)
C13 0.0186(11) 0.0180(9) 0.0172(9) -0.0030(7) -0.0033(8) -0.0061(8)
C14 0.0258(11) 0.0150(9) 0.0135(9) -0.0032(7) -0.0047(8) -0.0040(8)
C15 0.0176(10) 0.0132(8) 0.0131(9) -0.0008(7) 0.0009(7) -0.0008(7)
C16 0.0145(10) 0.0168(9) 0.0149(9) -0.0015(7) -0.0019(7) -0.0012(7)
B1 0.0164(12) 0.0222(11) 0.0173(11) -0.0065(9) -0.0012(9) -0.0064(9)
N1 0.0166(9) 0.0223(8) 0.0172(8) -0.0060(7) 0.0009(7) -0.0021(7)
N2 0.0146(8) 0.0152(7) 0.0128(7) -0.0020(6) -0.0013(6) -0.0019(6)
N3 0.0141(9) 0.0152(7) 0.0136(8) -0.0034(6) -0.0018(6) -0.0035(6)
O1 0.0143(7) 0.0254(7) 0.0171(7) -0.0089(5) -0.0010(5) -0.0049(6)
F1 0.0152(6) 0.0313(6) 0.0182(6) -0.0053(5) -0.0057(4) -0.0039(5)
F2 0.0205(6) 0.0226(6) 0.0268(6) -0.0078(5) -0.0001(5) -0.0101(5)
S1 0.0127(2) 0.0179(2) 0.0132(2) -0.00559(16) -0.00182(17) -0.00270(17)
Br1 0.02124(13) 0.02094(12) 0.01572(12) -0.00702(8) 0.00041(8) 0.00115(8)
loop_
_atom_type_symbol
_atom_type_description
_atom_type_scat_dispersion_real
_atom_type_scat_dispersion_imag
_atom_type_scat_source
C C 0.0181 0.0091 'International Tables Vol C Tables 4.2.6.8 and 6.1.1.4'
H H 0.0000 0.0000 'International Tables Vol C Tables 4.2.6.8 and 6.1.1.4'
B B 0.0090 0.0039 'International Tables Vol C Tables 4.2.6.8 and 6.1.1.4'
N N 0.0311 0.0180 'International Tables Vol C Tables 4.2.6.8 and 6.1.1.4'
O O 0.0492 0.0322 'International Tables Vol C Tables 4.2.6.8 and 6.1.1.4'
F F 0.0727 0.0534 'International Tables Vol C Tables 4.2.6.8 and 6.1.1.4'
S S 0.3331 0.5567 'International Tables Vol C Tables 4.2.6.8 and 6.1.1.4'
Br Br -0.6763 1.2805 'International Tables Vol C Tables 4.2.6.8 and 6.1.1.4'
loop_
_geom_angle_atom_site_label_1
_geom_angle_atom_site_label_2
_geom_angle_atom_site_label_3
_geom_angle
N1 C3 C4 121.18(18)
N1 C3 C8 121.59(18)
C4 C3 C8 117.23(17)
C5 C4 C3 120.87(18)
C4 C5 C6 121.57(19)
C5 C6 C7 117.92(17)
C5 C6 C9 120.99(18)
C7 C6 C9 121.07(17)
C8 C7 C6 121.48(18)
C7 C8 C3 120.91(18)
O1 C9 N2 124.51(17)
O1 C9 C6 115.68(17)
N2 C9 C6 119.81(16)
N2 C10 N3 126.55(18)
N2 C10 S1 120.40(14)
N3 C10 S1 113.04(14)
C12 C11 C16 121.27(17)
C12 C11 S1 110.31(14)
C16 C11 S1 128.42(15)
N3 C12 C11 113.09(16)
N3 C12 C13 125.81(17)
C11 C12 C13 121.11(17)
C14 C13 C12 118.18(18)
C13 C14 C15 120.19(17)
C16 C15 C14 122.63(17)
C16 C15 Br1 119.80(15)
C14 C15 Br1 117.57(14)
C15 C16 C11 116.61(17)
F2 B1 F1 109.74(16)
F2 B1 O1 109.65(16)
F1 B1 O1 109.89(17)
F2 B1 N3 110.11(17)
F1 B1 N3 110.53(16)
O1 B1 N3 106.87(15)
C3 N1 C1 120.39(17)
C3 N1 C2 120.71(17)
C1 N1 C2 117.77(16)
C9 N2 C10 116.19(16)
C10 N3 C12 113.27(16)
C10 N3 B1 120.21(16)
C12 N3 B1 126.52(15)
C9 O1 B1 125.50(16)
C10 S1 C11 90.28(9)
loop_
_geom_bond_atom_site_label_1
_geom_bond_atom_site_label_2
_geom_bond_distance
C1 N1 1.457(3)
C2 N1 1.458(3)
C3 N1 1.357(2)
C3 C4 1.419(3)
C3 C8 1.422(3)
C4 C5 1.375(3)
C5 C6 1.401(3)
C6 C7 1.402(3)
C6 C9 1.450(3)
C7 C8 1.374(3)
C9 O1 1.313(2)
C9 N2 1.326(3)
C10 N2 1.334(2)
C10 N3 1.339(2)
C10 S1 1.736(2)
C11 C12 1.395(3)
C11 C16 1.396(3)
C11 S1 1.7488(18)
C12 N3 1.394(2)
C12 C13 1.397(3)
C13 C14 1.376(3)
C14 C15 1.401(3)
C15 C16 1.387(3)
C15 Br1 1.8982(19)
B1 F2 1.382(2)
B1 F1 1.384(3)
B1 O1 1.475(2)
B1 N3 1.547(3)
