#------------------------------------------------------------------------------
#$Date: 2019-11-09 02:18:58 +0200 (Sat, 09 Nov 2019) $
#$Revision: 225397 $
#$URL: file:///home/coder/svn-repositories/cod/cif/4/03/47/4034706.cif $
#------------------------------------------------------------------------------
#
# This file is available in the Crystallography Open Database (COD),
# http://www.crystallography.net/
#
# All data on this site have been placed in the public domain by the
# contributors.
#
data_4034706
loop_
_publ_author_name
'Chalyk, Bohdan A.'
'Khutorianskyi, Andrii'
'Lysenko, Andrii'
'Fil, Yulia'
'Kuchkovska, Yuliya O.'
'Gavrilenko, Konstantin S.'
'Bakanovych, Iulia'
'Moroz, Yurii S.'
'Gorlova, Alina O.'
'Grygorenko, Oleksandr O.'
_publ_section_title
;
 Regioselective Synthesis of Functionalized 3- or 5-Fluoroalkyl Isoxazoles
 and Pyrazoles from Fluoroalkyl Ynones and Binucleophiles.
;
_journal_name_full               'The Journal of organic chemistry'
_journal_paper_doi               10.1021/acs.joc.9b02258
_journal_year                    2019
_chemical_formula_moiety         'C5 H3 F2 N O3'
_chemical_formula_sum            'C5 H3 F2 N O3'
_chemical_formula_weight         163.08
_space_group_crystal_system      triclinic
_space_group_IT_number           2
_space_group_name_Hall           '-P 1'
_space_group_name_H-M_alt        'P -1'
_atom_sites_solution_hydrogens   mixed
_audit_creation_method           SHELXL-2016/4
_cell_angle_alpha                84.307(15)
_cell_angle_beta                 83.682(14)
_cell_angle_gamma                78.046(15)
_cell_formula_units_Z            2
_cell_length_a                   5.093(2)
_cell_length_b                   5.618(2)
_cell_length_c                   11.155(5)
_cell_measurement_reflns_used    461
_cell_measurement_temperature    293(2)
_cell_measurement_theta_max      26.13
_cell_measurement_theta_min      3.69
_cell_volume                     309.4(2)
_computing_cell_refinement       'Bruker SMART'
_computing_data_collection       'Bruker SMART'
_computing_data_reduction        'Bruker SAINT'
_computing_molecular_graphics    'Bruker SHELXTL'
_computing_publication_material  'Bruker SHELXTL'
_computing_structure_refinement  'SHELXL-2016/4 (Sheldrick, 2016)'
_computing_structure_solution    'Bruker SHELXTL'
_diffrn_ambient_temperature      293(2)
_diffrn_measured_fraction_theta_full 0.992
_diffrn_measured_fraction_theta_max 0.983
_diffrn_measurement_device_type  'CCD area detector'
_diffrn_measurement_method       'omega scans'
_diffrn_radiation_monochromator  graphite
_diffrn_radiation_source         'sealed tube'
_diffrn_radiation_type           MoK\a
_diffrn_radiation_wavelength     0.71073
_diffrn_reflns_av_R_equivalents  0.0383
_diffrn_reflns_av_unetI/netI     0.0332
_diffrn_reflns_Laue_measured_fraction_full 0.992
_diffrn_reflns_Laue_measured_fraction_max 0.983
_diffrn_reflns_limit_h_max       6
_diffrn_reflns_limit_h_min       -6
_diffrn_reflns_limit_k_max       7
_diffrn_reflns_limit_k_min       -7
_diffrn_reflns_limit_l_max       14
_diffrn_reflns_limit_l_min       -14
_diffrn_reflns_number            4960
_diffrn_reflns_point_group_measured_fraction_full 0.992
_diffrn_reflns_point_group_measured_fraction_max 0.983
_diffrn_reflns_theta_full        25.242
_diffrn_reflns_theta_max         27.578
_diffrn_reflns_theta_min         1.842
_exptl_absorpt_coefficient_mu    0.181
_exptl_absorpt_correction_T_max  0.96
_exptl_absorpt_correction_T_min  0.78
_exptl_absorpt_correction_type   numerical
_exptl_absorpt_process_details   SADABS
_exptl_crystal_colour            colourless
_exptl_crystal_density_diffrn    1.751
_exptl_crystal_description       block
_exptl_crystal_F_000             164
_exptl_crystal_size_max          0.500
_exptl_crystal_size_mid          0.360
_exptl_crystal_size_min          0.200
_refine_diff_density_max         0.186
_refine_diff_density_min         -0.231
_refine_diff_density_rms         0.050
_refine_ls_extinction_method     none
_refine_ls_goodness_of_fit_ref   1.040
_refine_ls_hydrogen_treatment    mixed
_refine_ls_matrix_type           full
_refine_ls_number_parameters     143
_refine_ls_number_reflns         1414
_refine_ls_number_restraints     6
_refine_ls_restrained_S_all      1.046
_refine_ls_R_factor_all          0.0649
_refine_ls_R_factor_gt           0.0432
_refine_ls_shift/su_max          0.070
_refine_ls_shift/su_mean         0.010
_refine_ls_structure_factor_coef Fsqd
_refine_ls_weighting_details
'w=1/[\s^2^(Fo^2^)+(0.0976P)^2^] where P=(Fo^2^+2Fc^2^)/3'
_refine_ls_weighting_scheme      calc
_refine_ls_wR_factor_gt          0.1293
_refine_ls_wR_factor_ref         0.1517
_reflns_Friedel_coverage         0.000
_reflns_number_gt                974
_reflns_number_total             1414
_reflns_threshold_expression     'I > 2\s(I)'
_cod_data_source_file            jo9b02258_si_003.cif
_cod_data_source_block           xr26rt
_cod_database_code               4034706
_shelx_shelxl_version_number     2016/4
_shelx_space_group_comment
;
The symmetry employed for this shelxl refinement is uniquely defined
by the following loop, which should always be used as a source of
symmetry information in preference to the above space-group names.
They are only intended as comments.
;
_shelx_estimated_absorpt_t_min   0.915
_shelx_estimated_absorpt_t_max   0.965
_shelx_res_file
;
TITL xr26rt in P-1
 xr26rt.res created by SHELXL-2016/4 at 15:25:15 on 06-Jun-2018
CELL 0.71073   5.0925   5.6180  11.1550  84.307  83.682  78.046
ZERR    2.00   0.0021   0.0021   0.0050   0.015   0.014   0.015
LATT 1
SFAC C  H  N  O  F
UNIT 10  6  2  6  4
L.S. 2
BOND
htab o3 o2_$1
eqiv $1 -x, 2-y, 1-z
acta
FMAP 2
PLAN 20
SIZE 0.200 0.360 0.500
DFIX 0.82 0.01 H3 O3
DFIX 1.00 .01 C5 H5A
dfix 1.33 .01 c5 f1b c5 f2b c5 f1c c5 f2c
TEMP 20.000
WGHT    0.097600
FVAR       1.42995
N1    3    0.610371    0.830045    0.734496    11.00000    0.07338    0.03589 =
         0.07262    0.00651   -0.03556   -0.01221
O1    4    0.761848    0.661818    0.811959    11.00000    0.07411    0.03978 =
         0.07282    0.00406   -0.03938   -0.01235
O2    4    0.221127    1.063150    0.587592    11.00000    0.07626    0.03777 =
         0.08155    0.00458   -0.03639   -0.00872
O3    4    0.156863    0.699477    0.548450    11.00000    0.06825    0.04770 =
         0.06780   -0.00501   -0.03157   -0.01080
H3    2    0.018738    0.779961    0.516905    11.00000    0.17427
C1    1    0.464211    0.707442    0.686063    11.00000    0.04524    0.03602 =
         0.04415   -0.00198   -0.01145   -0.00813
C2    1    0.514190    0.459350    0.727928    11.00000    0.05310    0.03554 =
         0.04887   -0.00234   -0.01187   -0.01072
AFIX  43
H2    2    0.438354    0.335290    0.705496    11.00000   -1.20000
AFIX   0
C3    1    0.696096    0.443446    0.807475    11.00000    0.05437    0.03482 =
         0.04699   -0.00229   -0.01223   -0.00818
C4    1    0.268695    0.837140    0.601044    11.00000    0.04851    0.03833 =
         0.04545   -0.00186   -0.00983   -0.00870
C5    1    0.823068    0.239236    0.890081    11.00000    0.06777    0.04307 =
         0.05643    0.00322   -0.01921   -0.00660
H5A   2    0.772651    0.082382    0.883362    11.00000   -1.20000
PART   1
F1A   5    0.749602    0.289994    1.005349    10.50000    0.08516    0.07067 =
         0.04369    0.01118   -0.00406   -0.00347
F2A   5    1.090587    0.207025    0.879103    10.50000    0.06488    0.05855 =
         0.10206    0.02248    0.00085    0.01385
PART   2
F1B   5    0.660739    0.204343    0.985777    10.25000    0.08261    0.12749 =
         0.14083    0.08993   -0.01395   -0.01256
F2B   5    1.059529    0.281373    0.911855    10.25000    0.09013    0.05672 =
         0.16036    0.01456   -0.08690   -0.00699
PART   3
F1C   5    0.840207    0.320001    0.995029    10.25000    0.10606    0.07569 =
         0.06186    0.00366   -0.04295   -0.03190
F2C   5    1.055773    0.122642    0.842603    10.25000    0.09588    0.05602 =
         0.10547    0.00458   -0.00812    0.02808
PART   0
HKLF 4




REM  xr26rt in P-1
REM R1 =  0.0432 for     974 Fo > 4sig(Fo)  and  0.0649 for all    1414 data
REM    143 parameters refined using      6 restraints

END

WGHT      0.0978      0.0000

REM Highest difference peak  0.186,  deepest hole -0.231,  1-sigma level  0.050
Q1    1  -0.0117  0.8227  0.4606  11.00000  0.05    0.19
Q2    1   0.5109  0.5741  0.6814  11.00000  0.05    0.16
Q3    1   0.1005  1.0386  0.6257  11.00000  0.05    0.15
Q4    1   0.5904  0.1194  0.9160  11.00000  0.05    0.15
Q5    1   0.7845  1.0911  0.6544  11.00000  0.05    0.14
Q6    1   0.5368  0.3304  0.6599  11.00000  0.05    0.14
Q7    1   0.0751  0.8711  0.4124  11.00000  0.05    0.13
Q8    1   0.2914  1.1595  0.4830  11.00000  0.05    0.13
Q9    1   0.8279  0.8636  0.6597  11.00000  0.05    0.13
Q10   1   0.1285  0.3922  0.6616  11.00000  0.05    0.13
Q11   1   0.4306  0.8408  0.7957  11.00000  0.05    0.13
Q12   1   0.5866  0.9883  0.7821  11.00000  0.05    0.13
Q13   1   0.6187  0.9594  0.7115  11.00000  0.05    0.13
Q14   1  -0.2078  0.6408  0.4861  11.00000  0.05    0.13
Q15   1  -0.2550  0.6376  0.5126  11.00000  0.05    0.12
Q16   1   0.8823  0.5231  1.0228  11.00000  0.05    0.12
Q17   1   0.2715  0.9729  0.5238  11.00000  0.05    0.12
Q18   1   0.9584  0.0221  0.9194  11.00000  0.05    0.12
Q19   1   0.3835  1.0160  0.4621  11.00000  0.05    0.12
Q20   1   0.3590  0.7243  0.4912  11.00000  0.05    0.12
;
_shelx_res_checksum              5316
_shelx_hkl_file
;
  -1   0   0   25.41    1.62
  -1   0   0   25.26    1.43
   1   0   0   27.08    1.44
  -1   0   0   26.69    1.36
   1   0   0   26.47    1.63
   1   0   0   26.82    1.35
  -2   0   0  975.20   40.88
   2   0   0 1068.46   40.88
   2   0   0 1037.98   40.29
  -2   0   0  990.04   46.63
   2   0   0 1037.79   46.61
  -3   0   0  225.98   10.15
   3   0   0  234.20   14.34
   3   0   0  241.00   10.12
  -3   0   0  228.01   11.59
   3   0   0  230.33    9.80
   4   0   0   56.79    3.52
  -4   0   0   53.05    3.99
  -4   0   0   52.68    3.47
   4   0   0   58.20    4.89
   4   0   0   53.63    3.17
  -5   0   0    2.99    1.46
   5   0   0    4.18    1.32
   5   0   0    4.74    2.04
   5   0   0    4.51    1.37
  -5   0   0    3.18    1.56
   6   0   0    0.12    1.73
  -6   0   0   -1.01    1.46
   6  -1   0    2.59    1.65
  -6   1   0    1.40    1.83
   6  -1   0    1.63    2.03
   5  -1   0   20.16    2.50
   5  -1   0   15.01    3.00
  -5   1   0   17.74    2.86
   5  -1   0   18.39    2.10
  -5   1   0   17.65    2.34
   4  -1   0    7.17    1.17
   4  -1   0    2.09    1.61
  -4   1   0    6.52    1.77
   4  -1   0    7.84    1.54
  -4   1   0    6.59    1.41
  -3   1   0  145.90    7.00
   3  -1   0  156.59    7.03
   3  -1   0  152.84    6.64
  -3   1   0  149.99    8.35
   2  -1   0   98.32    4.27
  -2   1   0   92.81    4.48
   2  -1   0   99.39    4.52
  -2   1   0   93.95    5.40
  -1   1   0   13.33    0.82
  -1   1   0   14.65    1.30
   1  -1   0   14.06    0.99
   1  -1   0    9.99    1.33
   1  -1   0   14.42    0.88
   1  -1   0   13.27    1.25
  -1   1   0   13.84    1.59
   0  -1   0   72.56    4.43
   0   1   0   71.97    4.43
   0  -1   0   72.38    3.66
   0  -1   0   68.58    3.19
   0   1   0   69.75    3.65
   0   1   0   66.79    3.19
  -1  -1   0 1477.44   58.69
  -1  -1   0 1499.63   82.56
  -1  -1   0 1483.45   67.50
   1   1   0 1470.71   58.03
   1   1   0 1379.86   67.21
  -1  -1   0 1619.10   58.01
   1   1   0 1383.30   82.58
   1   1   0 1505.58   58.70
   2   1   0    2.16    0.32
   2   1   0    1.98    0.84
   2   1   0    1.92    0.60
  -2  -1   0    1.30    0.56
   2   1   0    2.04    0.66
  -2  -1   0    1.66    0.50
   3   1   0    5.14    1.02
  -3  -1   0    6.34    1.04
   3   1   0    7.87    1.63
   3   1   0    5.30    1.07
   3   1   0    6.64    0.76
  -3  -1   0    6.44    1.08
   4   1   0   71.66    4.03
   4   1   0   73.71    5.77
  -4  -1   0   69.15    4.13
  -4  -1   0   67.55    4.43
   4   1   0   73.18    3.79
   5   1   0    6.72    2.19
   5   1   0    8.20    1.69
  -5  -1   0    5.96    1.58
  -5  -1   0    7.97    1.76
   6   1   0   38.11    3.52
   6   1   0   36.67    4.58
  -5   2   0    5.24    2.13
   5  -2   0    2.42    1.88
   5  -2   0    6.87    1.90
   4  -2   0    4.95    1.63
   4  -2   0    1.18    1.64
   4  -2   0    1.57    1.03
  -4   2   0    1.62    1.58
   3  -2   0  209.13    9.19
   3  -2   0  223.47    9.74
  -3   2   0  208.85   11.47
   2  -2   0   33.80    3.46
   2  -2   0   47.64    2.67
   2  -2   0   43.99    2.30
  -2   2   0   37.20    3.10
  -1   2   0   -0.01    0.57
   1  -2   0    4.41    0.62
   1  -2   0   -0.20    0.89
   0   2   0 1891.33  112.05
   0  -2   0 2016.89   79.70
   0   2   0 2097.71   90.86
   0  -2   0 2092.38  112.04
   0   2   0 1936.44   78.76
  -1  -2   0  826.30   38.55
   1   2   0  852.88   33.82
   1   2   0  850.67   47.84
  -1  -2   0  839.98   34.11
   1   2   0  841.76   34.15
  -1  -2   0  864.32   34.24
  -1  -2   0  858.34   38.51
   2   2   0    6.84    1.08
  -2  -2   0    7.01    0.79
   2   2   0    6.36    0.80
   2   2   0    7.20    1.05
  -2  -2   0    6.68    1.03
   2   2   0    8.17    1.39
   3   2   0   27.24    2.30
   3   2   0   25.45    2.13
  -3  -2   0   25.66    2.00
   3   2   0   19.26    2.59
  -3  -2   0   25.82    1.87
   3   2   0   26.55    1.87
  -4  -2   0   62.78    3.81
  -4  -2   0   62.13    3.82
   4   2   0   60.95    2.85
   4   2   0   55.33    3.74
   4   2   0   65.65    5.37
   5   2   0    0.63    1.10
  -5  -2   0   -0.94    1.12
  -5  -2   0   -0.46    0.88
   5   2   0    0.16    1.38
   6   2   0   -0.15    1.66
   6   2   0    2.33    1.50
   5  -3   0    0.38    2.00
   5  -3   0    6.31    2.15
  -5   3   0    6.06    2.50
   4  -3   0   18.22    2.59
  -4   3   0   20.29    3.22
   3  -3   0  119.45    6.85
   3  -3   0  135.75    6.17
  -3   3   0  118.54    7.77
   2  -3   0    2.54    1.60
   2  -3   0    2.00    0.80
   2  -3   0    1.08    1.06
  -2   3   0    1.24    1.12
   1  -3   0  476.68   19.16
   1  -3   0  466.19   27.88
   0   3   0   13.64    1.43
   0   3   0   13.38    1.55
   0   3   0   14.78    1.70
   0  -3   0   13.03    1.40
   1   3   0   29.05    2.15
  -1  -3   0   28.22    1.80
   1   3   0   28.93    2.19
  -1  -3   0   28.62    2.07
   1   3   0   28.35    2.61
  -1  -3   0   30.99    2.06
  -1  -3   0   29.61    2.04
  -2  -3   0  426.48   18.77
  -2  -3   0  402.76   18.71
   2   3   0  393.07   23.87
  -2  -3   0  426.46   17.23
   2   3   0  410.49   17.30
  -2  -3   0  380.25   16.50
   2   3   0  407.04   17.16
   3   3   0   49.79    2.83
   3   3   0   47.67    4.28
   3   3   0   48.56    3.33
  -3  -3   0   46.81    3.10
  -3  -3   0   49.56    2.76
  -4  -3   0  109.28    5.81
   4   3   0  112.37    8.15
   4   3   0  108.13    6.02
  -4  -3   0  105.15    5.64
   5   3   0    9.19    2.57
   5   3   0    6.65    1.86
   6   3   0   -1.09    1.65
   6   3   0    1.08    1.54
  -4   4   0    1.49    1.76
   4  -4   0   -1.11    1.90
   4  -4   0    0.96    1.46
  -3   4   0  171.36   10.25
   3  -4   0  161.26    8.83
  -2   4   0   -0.09    1.13
   2  -4   0    0.19    0.85
   2  -4   0   -1.18    1.51
   2  -4   0    1.61    1.18
   1  -4   0   41.21    2.65
  -1   4   0   44.03    3.52
   1  -4   0   41.50    3.05
   1  -4   0   35.53    4.32
   0   4   0   17.47    1.82
   0  -4   0   17.80    1.87
   0   4   0   19.36    2.29
   0   4   0   21.04    2.10
   0  -4   0   18.64    1.89
  -1  -4   0   47.94    3.11
   1   4   0   45.94    3.15
   1   4   0   40.57    3.73
  -1  -4   0   49.96    3.16
  -1  -4   0   46.18    2.76
   2   4   0   60.17    3.82
  -2  -4   0   57.70    3.30
  -2  -4   0   60.93    3.36
  -2  -4   0   55.24    2.83
  -2  -4   0   51.82    3.48
   2   4   0   54.03    4.64
   3   4   0   58.73    4.08
  -3  -4   0   59.53    3.22
  -3  -4   0   55.87    3.74
   3   4   0   60.74    5.17
  -4  -4   0   15.45    2.13
   4   4   0   19.06    3.15
   4   4   0   21.25    2.79
   5   4   0   24.68    3.87
   5   4   0   16.66    2.84
   6   4   0    5.59    2.13
   6   4   0    3.19    2.23
  -3   5   0    1.85    1.87
   3  -5   0    2.03    1.59
   2  -5   0    4.21    1.72
   2  -5   0    1.66    2.11
   2  -5   0    6.64    1.65
  -2   5   0    7.05    2.16
  -1   5   0   14.46    2.38
   1  -5   0   18.28    2.06
   1  -5   0   13.77    3.59
   1  -5   0   13.59    2.08
   1  -5   0   14.39    2.20
   0  -5   0   50.14    3.18
   0   5   0   41.59    4.07
   0  -5   0   47.21    3.81
   0   5   0   47.84    3.79
   0   5   0   41.96    3.25
   0  -5   0   42.14    3.39
   0  -5   0   42.26    3.30
  -1  -5   0   14.34    1.71
   1   5   0   17.64    2.67
   1   5   0   14.31    2.20
  -1  -5   0   18.62    2.16
  -1  -5   0   16.01    2.12
  -2  -5   0   14.84    1.57
  -2  -5   0   15.51    2.05
   2   5   0   15.07    2.71
   2   5   0   23.04    2.72
  -2  -5   0   16.90    1.84
   3   5   0   75.39    6.24
   3   5   0   68.96    4.87
  -3  -5   0   69.41    4.56
   4   5   0   14.30    2.96
   4   5   0   13.51    2.62
   5   5   0   -0.01    1.64
   5   5   0    1.33    1.68
  -2   6   0    1.00    1.67
   2  -6   0    1.52    1.62
   1  -6   0   14.76    2.26
   1  -6   0    8.54    3.41
  -1   6   0   13.28    2.51
   1  -6   0   14.72    2.42
   1  -6   0   12.39    2.11
   0  -6   0   10.70    2.03
   0  -6   0    7.59    1.73
   0  -6   0    2.63    2.95
   0  -6   0    8.02    2.08
   0  -6   0    7.63    1.73
  -1  -6   0   72.58    4.57
   1   6   0   73.35    5.16
  -1  -6   0   84.30    5.22
   1   6   0   81.59    6.48
  -1  -6   0   83.56    5.41
   2   6   0    0.11    1.09
   2   6   0    1.05    1.46
   3   6   0    2.54    1.79
   3   6   0    0.58    1.31
   4   6   0    4.44    2.29
   4   6   0    3.60    2.14
   0  -7   0    4.43    1.68
   0  -7   0    7.41    1.98
   1   7   0   13.30    2.59
   1   7   0   15.46    3.05
  -1  -7   0   13.35    2.16
   2   7   0    5.96    2.23
   2   7   0    3.23    1.73
   3   7   0    0.12    1.45
   2   7  -1   17.25    3.00
   2   7  -1   21.12    3.66
   1   7  -1    3.46    1.72
   1   7  -1    1.94    1.75
  -1  -7   1    1.61    1.29
   0  -7   1    1.64    2.72
   0  -7   1    2.75    1.54
   0  -7   1    1.40    1.42
   4   6  -1    5.52    2.23
   4   6  -1    2.53    2.10
   3   6  -1    6.13    2.37
   3   6  -1    6.82    2.10
   2   6  -1    0.59    1.43
   2   6  -1   -0.12    1.24
   1   6  -1    4.82    1.99
  -1  -6   1    5.28    1.36
  -1  -6   1    5.25    1.65
   1   6  -1    6.69    1.81
  -1  -6   1    5.28    1.71
   0  -6   1    0.18    1.08
   0  -6   1    0.83    1.32
   0  -6   1    0.97    1.50
   0  -6   1    1.16    2.93
   0  -6   1    1.45    1.13
   1  -6   1   23.36    2.62
  -1   6  -1   14.87    2.69
   1  -6   1   16.99    2.33
   1  -6   1   20.62    2.72
   1  -6   1   14.51    4.33
   1  -6   1   16.01    2.84
   2  -6   1   -0.07    1.36
  -2   6  -1    0.50    1.42
   5   5  -1    1.82    1.85
   5   5  -1    3.03    2.15
   4   5  -1   35.06    3.62
   4   5  -1   42.11    4.68
   3   5  -1   18.96    2.70
   3   5  -1   23.23    3.29
  -3  -5   1   25.34    2.60
   2   5  -1   33.05    3.66
  -2  -5   1   30.40    2.59
   2   5  -1   29.99    2.88
  -2  -5   1   32.99    2.80
  -1  -5   1  218.66   11.18
   1   5  -1  215.66   13.81
   1   5  -1  217.87   10.35
  -1  -5   1  211.51    9.78
  -1  -5   1  207.18   10.09
   0  -5   1  131.32    7.02
   0   5  -1  136.23    7.03
   0  -5   1  136.64    8.03
   0   5  -1  135.52    9.41
   0  -5   1  140.77    7.08
   1  -5   1   28.26    2.35
   1  -5   1   18.88    4.39
   1  -5   1   23.55    2.60
  -1   5  -1   22.67    2.85
   1  -5   1   23.72    2.40
   2  -5   1   31.61    3.24
   2  -5   1   19.40    4.12
  -2   5  -1   31.42    3.63
   2  -5   1   41.40    3.05
  -3   5  -1   -1.11    1.35
   3  -5   1   -1.29    1.16
   3  -5   1   -0.60    2.25
   6   4  -1    4.57    2.09
   5   4  -1    3.32    1.77
   5   4  -1    2.87    2.08
   4   4  -1   24.70    3.10
  -4  -4   1   26.98    2.73
   4   4  -1   30.92    3.75
  -3  -4   1   89.64    5.01
   3   4  -1   89.72    6.92
  -3  -4   1   87.69    4.79
   3   4  -1   88.46    5.34
  -2  -4   1    0.37    0.50
  -2  -4   1    1.40    0.59
   2   4  -1    0.87    0.91
   2   4  -1    1.02    1.26
  -2  -4   1    1.52    0.77
  -2  -4   1    2.44    1.00
  -1  -4   1    0.01    0.59
   1   4  -1    0.39    0.94
  -1  -4   1    0.45    0.77
   1   4  -1    0.67    0.86
  -1  -4   1    0.56    0.77
   0   4  -1  136.14    8.74
   0  -4   1  128.83    6.39
   0   4  -1  128.68    6.41
   0   4  -1  125.47    7.23
  -1   4  -1    2.34    1.25
   1  -4   1    2.16    2.29
   1  -4   1    3.19    0.94
  -2   4  -1    6.48    1.97
   2  -4   1    8.25    2.71
   2  -4   1    7.03    1.29
  -3   4  -1    0.82    1.53
   3  -4   1    0.57    1.98
   4  -4   1   -0.61    1.98
   4  -4   1    0.17    1.34
  -4   4  -1   -0.04    1.73
   6   3  -1    3.27    2.15
   6   3  -1    1.45    1.60
   5   3  -1   15.99    3.09
   5   3  -1   14.04    2.53
  -4  -3   1   13.53    1.60
   4   3  -1   10.46    2.00
   4   3  -1    8.22    2.22
  -4  -3   1   11.85    1.86
  -3  -3   1    6.27    1.00
   3   3  -1    7.50    1.08
   3   3  -1    7.18    1.56
   3   3  -1    7.25    1.81
  -3  -3   1    7.34    1.32
   2   3  -1   52.02    3.07
  -2  -3   1   51.18    3.08
   2   3  -1   51.50    4.13
  -2  -3   1   51.46    2.94
   2   3  -1   46.91    3.12
  -2  -3   1   45.41    2.17
   2   3  -1   48.18    3.22
  -1  -3   1  231.86    9.60
  -1  -3   1  213.53    9.17
   1   3  -1  217.62    9.60
   1   3  -1  236.13    9.69
   1   3  -1  194.48   13.11
  -1  -3   1  210.71   10.51
  -1  -3   1  215.99   10.56
   0  -3   1  285.14   12.07
   0  -3   1  286.61   13.85
   0   3  -1  276.72   11.99
   0   3  -1  295.61   13.85
   0   3  -1  268.92   16.76
  -1   3  -1   -0.95    0.67
   1  -3   1   -0.33    0.42
   1  -3   1   -0.32    1.54
   2  -3   1  292.56   12.42
  -2   3  -1  259.44   15.05
   2  -3   1  287.53   18.44
   2  -3   1  350.43   13.22
   3  -3   1   78.65    4.08
  -3   3  -1   70.94    5.54
   4  -3   1   -1.15    1.62
  -4   3  -1    7.05    2.33
   5  -3   1    0.91    1.53
   5  -3   1    0.68    2.12
  -5   3  -1   -0.33    1.86
   6   2  -1   -0.09    1.91
   6   2  -1    1.86    1.67
  -5  -2   1    3.40    1.32
  -5  -2   1    3.94    1.50
   5   2  -1    3.94    1.49
   5   2  -1    3.27    1.83
  -4  -2   1   38.21    2.86
   4   2  -1   33.29    2.81
  -4  -2   1   39.37    2.88
   4   2  -1   37.00    3.86
   3   2  -1  215.05   13.10
  -3  -2   1  203.73    9.28
  -3  -2   1  207.31   10.14
   3   2  -1  203.14    9.37
  -2  -2   1  267.78   12.55
  -2  -2   1  258.43   11.35
   2   2  -1  268.48   12.60
   2   2  -1  264.91   11.43
   2   2  -1  269.72   11.51
   2   2  -1  271.57   16.00
   1   2  -1  426.08   17.26
   1   2  -1  409.96   24.28
  -1  -2   1  430.23   17.14
  -1  -2   1  466.90   17.41
  -1  -2   1  439.10   19.55
   1   2  -1  359.20   19.47
   1   2  -1  426.05   17.40
   0  -2   1  552.37   26.17
   0   2  -1  567.21   32.22
   0   2  -1  574.49   26.18
   0   2  -1  582.84   22.71
   0  -2   1  549.86   22.87
   1  -2   1  864.80   36.21
  -1   2  -1  948.75   42.43
   1  -2   1  909.69   52.45
   1  -2   1  953.33   36.36
   2  -2   1   89.99    6.36
   2  -2   1   85.87    3.90
   2  -2   1   87.56    4.23
  -2   2  -1   78.56    5.21
   3  -2   1    4.77    0.86
   3  -2   1    4.71    1.09
   3  -2   1    0.28    1.50
  -3   2  -1    5.59    1.61
   4  -2   1   -0.41    1.50
  -4   2  -1    1.72    1.55
   4  -2   1    1.82    0.97
  -5   2  -1    8.11    2.44
   5  -2   1    8.40    2.08
  -6  -1   1    6.96    2.04
   6   1  -1    8.55    2.69
   6   1  -1    7.09    1.99
   5   1  -1    6.50    2.17
  -5  -1   1    9.48    1.87
  -5  -1   1    6.45    1.75
   5   1  -1    8.98    1.76
   4   1  -1   32.75    3.46
   4   1  -1   35.66    2.22
  -4  -1   1   31.51    2.75
  -4  -1   1   29.88    2.53
   4   1  -1   28.23    2.36
   3   1  -1   -0.37    0.40
   3   1  -1   -1.04    0.55
   3   1  -1   -0.59    0.72
  -3  -1   1   -0.31    0.53
  -3  -1   1   -1.09    0.70
   3   1  -1    0.43    0.82
   2   1  -1    0.34    0.50
  -2  -1   1    1.10    0.60
   2   1  -1    0.80    0.70
  -2  -1   1    0.71    0.52
   2   1  -1    0.70    0.57
   2   1  -1    0.69    0.31
  -1  -1   1 2515.64   93.02
   1   1  -1 2243.11  132.64
   1   1  -1 2382.46   93.11
   1   1  -1 2412.48   94.19
  -1  -1   1 2311.58  107.37
   1   1  -1 2281.71  107.25
  -1  -1   1 2457.28   97.50
  -1  -1   1 2428.19   94.37
   0   1  -1    2.58    0.41
   0  -1   1    2.70    0.51
   0   1  -1    2.77    0.63
   0  -1   1    3.04    0.65
   0   1  -1    2.19    0.41
   0  -1   1    2.39    0.41
   0  -1   1    3.05    0.57
   0  -1   1    2.60    0.43
   0  -1   1    3.33    0.44
   1  -1   1    0.96    0.28
  -1   1  -1    1.64    0.63
   1  -1   1    1.21    0.27
   1  -1   1    0.23    0.73
   1  -1   1    0.80    0.50
  -1   1  -1    0.20    0.76
   1  -1   1    1.23    0.37
  -2   1  -1  652.10   27.43
   2  -1   1  693.27   27.44
   2  -1   1  693.09   26.93
  -2   1  -1  681.36   31.72
  -2   1  -1  686.78   26.90
  -3   1  -1   10.09    1.27
   3  -1   1   11.35    1.03
  -3   1  -1    9.33    1.67
   3  -1   1   11.65    1.27
  -4   1  -1    5.53    1.70
   4  -1   1    6.35    1.08
  -4   1  -1    6.81    1.40
   5  -1   1   21.03    2.58
  -5   1  -1   19.11    2.36
  -5   1  -1   20.01    2.89
   6  -1   1    4.53    2.42
  -6   1  -1    3.04    2.12
   6  -1   1    6.85    2.00
   6   0  -1    0.24    1.85
  -6   0   1    0.84    1.66
   5   0  -1    9.42    2.46
  -5   0   1    7.79    1.96
  -5   0   1    8.95    1.89
   5   0  -1    8.85    1.66
   5   0  -1    7.30    1.61
   4   0  -1    6.85    1.83
  -4   0   1    5.33    1.57
  -4   0   1    4.91    1.38
   4   0  -1    5.47    1.25
   4   0  -1    5.89    1.15
   3   0  -1    3.30    0.96
   3   0  -1    1.08    0.80
   3   0  -1    3.42    0.86
  -3   0   1    2.52    0.94
   3   0  -1    0.36    0.92
  -3   0   1    1.69    1.00
   2   0  -1  315.79   15.17
   2   0  -1  334.45   13.36
  -2   0   1  304.36   13.35
   2   0  -1  354.91   18.76
   2   0  -1  313.14   13.39
  -2   0   1  303.25   15.19
   2   0  -1  316.93   13.08
  -1   0   1  841.09   30.60
  -1   0   1  754.59   35.28
   1   0  -1  741.15   31.29
   1   0  -1  749.13   35.23
  -1   0   1  790.59   31.30
   1   0  -1  800.77   43.58
   1   0  -1  755.28   30.56
   1   0  -1  792.71   30.97
  -1   0   1  744.68   30.97
   0   0   1   17.94    0.83
   0   0  -1   18.01    0.87
   0   0   1   14.69    0.96
   0   0  -1   19.23    1.00
   0   0   1   17.36    0.86
   0   0  -1   19.11    1.18
  -1   0  -1   22.91    1.19
   1   0   1   23.23    1.18
  -1   0  -1   21.71    1.07
   1   0   1   20.57    1.18
   1   0   1   22.87    1.44
  -1   0  -1   18.58    1.18
   1   0   1   22.23    1.09
  -1   0  -1   23.13    1.44
   2   0   1  442.54   20.59
   2   0   1  423.33   18.11
  -2   0  -1  434.39   18.00
  -2   0  -1  430.62   20.62
   2   0   1  445.03   17.65
   2   0   1  476.75   18.01
  -3   0  -1  269.64   13.05
  -3   0  -1  253.16   11.29
   3   0   1  261.39   10.94
   3   0   1  268.19   11.26
   4   0   1   -0.38    1.21
   4   0   1    1.37    0.80
  -4   0  -1   -0.26    0.93
  -4   0  -1    0.72    0.90
   5   0   1    4.14    1.97
   5   0   1    3.23    1.27
  -5   0  -1    0.95    1.26
  -5   0  -1    1.79    1.36
   6   0   1    1.72    1.85
  -6   0  -1    3.31    1.76
   6  -1  -1    1.93    2.01
  -6   1   1    2.35    1.99
   5  -1  -1    4.92    1.46
   5  -1  -1    7.56    2.33
   5  -1  -1    4.78    1.64
  -5   1   1    4.13    1.65
  -5   1   1    5.09    1.93
  -4   1   1   41.55    3.12
   4  -1  -1   35.34    4.03
  -4   1   1   48.71    3.96
   4  -1  -1   49.16    3.40
   4  -1  -1   47.96    2.87
  -3   1   1  197.49   10.58
   3  -1  -1  197.26    8.70
   3  -1  -1  208.87    9.38
   3  -1  -1  201.54    9.05
  -2   1   1  813.15   36.24
   2  -1  -1  793.67   32.09
   2  -1  -1  811.38   31.08
   2  -1  -1  777.07   31.56
  -2   1   1  712.51   31.50
   1  -1  -1    5.38    0.61
  -1   1   1    4.79    0.88
   1  -1  -1    5.55    0.73
   1  -1  -1    5.43    0.85
  -1   1   1    4.26    0.79
  -1   1   1    5.85    0.63
   1  -1  -1    4.75    0.74
   0   1   1 1379.53   63.67
   0  -1  -1 1445.16   56.65
   0  -1  -1 1380.86   79.38
   0  -1  -1 1386.78   63.67
   0   1   1 1425.64   56.43
   0  -1  -1 1437.91   55.12
   0   1   1 1374.17   79.73
   1   1   1 2701.98  103.50
  -1  -1  -1 2863.97  103.08
  -1  -1  -1 2267.15  106.09
   1   1   1 2530.26  106.40
   1   1   1 2769.16  104.88
  -1  -1  -1 2665.99  147.54
   1   1   1 2599.17  147.98
  -1  -1  -1 2672.40  104.74
  -2  -1  -1  356.86   14.77
   2   1   1  355.33   20.87
   2   1   1  360.43   14.62
   2   1   1  372.89   16.56
   2   1   1  343.57   14.61
   2   1   1  360.53   14.84
  -2  -1  -1  360.69   16.60
   3   1   1  455.65   17.75
  -3  -1  -1  413.13   19.79
  -3  -1  -1  419.14   17.56
   3   1   1  370.54   17.28
   3   1   1  422.44   17.37
   3   1   1  458.04   24.99
   4   1   1   58.01    4.77
  -4  -1  -1   46.85    3.46
  -4  -1  -1   49.51    3.26
   4   1   1   49.86    3.15
  -5  -1  -1    0.03    1.09
  -5  -1  -1    0.98    1.13
   5   1   1    2.37    1.04
   5   1   1   -0.44    1.35
   5   1   1    0.31    1.02
   6   1   1    9.99    2.94
  -5   2   1    9.93    2.54
   5  -2  -1   11.65    2.78
   5  -2  -1   10.70    2.24
   4  -2  -1   44.67    3.05
   4  -2  -1   46.78    3.73
  -4   2   1   45.76    4.21
   3  -2  -1    0.67    0.94
   3  -2  -1    0.39    0.73
   3  -2  -1   -0.28    1.08
  -3   2   1    0.12    1.13
  -2   2   1    0.14    0.85
   2  -2  -1    1.01    0.71
   2  -2  -1    3.00    0.79
   2  -2  -1    0.02    1.13
   2  -2  -1    4.03    1.01
  -1   2   1    3.87    0.96
   1  -2  -1    2.52    0.60
   1  -2  -1    5.25    0.85
   1  -2  -1    4.25    0.84
   1  -2  -1    4.53    1.15
   0  -2  -1  148.87    6.98
   0   2   1  142.10    6.99
   0   2   1  140.01    6.18
   0  -2  -1  139.17    6.23
   0  -2  -1  148.53    8.33
   0  -2  -1  124.05    5.98
   1   2   1  493.34   19.48
  -1  -2  -1  467.14   19.42
   1   2   1  435.64   19.28
   1   2   1  435.59   26.96
  -1  -2  -1  506.97   21.72
  -1  -2  -1  511.57   19.33
  -1  -2  -1  489.45   21.75
  -1  -2  -1  466.54   26.98
   1   2   1  456.61   19.25
  -2  -2  -1   67.55    3.10
   2   2   1   63.45    2.77
   2   2   1   63.02    3.09
  -2  -2  -1   64.26    3.36
   2   2   1   60.74    3.37
   2   2   1   67.88    4.62
  -2  -2  -1   56.46    2.72
   2   2   1   66.68    3.48
  -3  -2  -1  190.46    9.14
   3   2   1  213.42    9.82
   3   2   1  202.76   12.93
   3   2   1  208.96    8.53
   3   2   1  203.29    9.24
   3   2   1  218.96    9.47
  -3  -2  -1  208.42    9.85
  -4  -2  -1   63.20    3.78
  -4  -2  -1   60.89    3.77
   4   2   1   63.77    5.34
   4   2   1   65.36    3.95
  -5  -2  -1    7.13    1.63
   5   2   1    9.36    1.90
  -5  -2  -1    8.03    1.47
   5   2   1    7.96    2.37
   6   2   1   27.02    3.93
   6   2   1   20.15    2.84
   5  -3  -1    0.40    1.38
  -5   3   1    2.22    2.16
   4  -3  -1   77.45    5.21
  -4   3   1   66.54    5.83
   4  -3  -1   74.89    4.53
   3  -3  -1   12.51    2.14
  -3   3   1   13.61    2.40
   3  -3  -1   14.80    1.82
  -2   3   1    1.30    1.05
   2  -3  -1    0.75    1.35
   2  -3  -1    0.33    1.03
   2  -3  -1    1.74    0.84
   2  -3  -1    1.81    0.98
   1  -3  -1  380.95   14.67
   1  -3  -1  326.38   15.23
   1  -3  -1  357.60   20.92
  -1   3   1  344.01   17.22
   0  -3  -1  163.00    6.99
   0   3   1  148.73    7.11
   0   3   1  165.45    8.12
   0   3   1  152.24    9.54
   0  -3  -1  156.63    7.20
  -1  -3  -1   70.79    3.76
  -1  -3  -1   72.37    3.77
  -1  -3  -1   62.48    3.38
  -1  -3  -1   68.73    3.74
   1   3   1   65.77    3.77
   1   3   1   73.25    4.83
   2   3   1   96.33    6.49
   2   3   1   83.85    4.81
   2   3   1   96.14    5.00
  -2  -3  -1   89.18    4.78
  -2  -3  -1   98.00    4.51
  -2  -3  -1   93.67    4.06
  -2  -3  -1   92.95    4.47
   3   3   1  230.59   10.48
  -3  -3  -1  240.56   10.68
  -3  -3  -1  222.65   10.35
   3   3   1  222.66   14.37
   4   3   1   22.80    2.66
  -4  -3  -1   25.20    2.36
   4   3   1   31.34    3.49
   5   3   1   16.85    2.45
   5   3   1   13.82    2.98
  -5  -3  -1   12.57    2.09
   6   3   1    1.94    1.65
   6   3   1    1.60    2.07
  -4   4   1    4.54    2.29
   4  -4  -1    6.15    1.99
   3  -4  -1   24.54    2.59
  -3   4   1   22.07    3.27
   3  -4  -1   19.67    2.69
   2  -4  -1   11.77    1.97
   2  -4  -1   18.04    1.96
   2  -4  -1   14.37    2.58
  -2   4   1   11.90    2.20
   1  -4  -1   -0.07    0.66
   1  -4  -1    1.80    1.77
   1  -4  -1   -0.14    0.82
  -1   4   1    1.41    1.07
   0   4   1   28.02    2.53
   0   4   1   30.75    2.76
   0  -4  -1   30.84    2.49
   0  -4  -1   27.10    2.24
   0  -4  -1   27.69    2.10
  -1  -4  -1   84.22    4.15
  -1  -4  -1   81.72    4.57
  -1  -4  -1   74.74    4.41
   1   4   1   78.54    4.54
   1   4   1   77.81    5.65
  -2  -4  -1   36.82    2.69
   2   4   1   35.19    3.41
  -2  -4  -1   38.23    2.18
  -2  -4  -1   26.55    1.96
   2   4   1   31.82    2.70
  -2  -4  -1   38.23    2.18
   3   4   1    8.19    2.02
   3   4   1    6.83    1.65
  -3  -4  -1    5.82    1.52
   4   4   1   21.06    2.66
  -4  -4  -1   12.77    1.97
   4   4   1   18.46    3.03
   5   4   1   48.79    4.05
   5   4   1   40.50    4.77
   6   4   1    0.14    1.80
   6   4   1    2.04    1.82
   3  -5  -1    0.43    1.32
  -3   5   1    2.73    1.89
   2  -5  -1   35.35    3.01
  -2   5   1   33.96    3.79
   2  -5  -1   34.89    3.44
  -1   5   1   63.87    4.87
   1  -5  -1   59.84    5.76
   1  -5  -1   56.05    3.75
   1  -5  -1   62.61    4.26
   0  -5  -1  310.27   14.03
   0   5   1  317.13   15.88
   0  -5  -1  305.63   13.60
   0   5   1  333.00   18.94
   0  -5  -1  293.30   14.09
   1   5   1   13.87    2.13
  -1  -5  -1   14.94    1.87
  -1  -5  -1   12.85    1.98
  -1  -5  -1   10.47    1.51
   1   5   1   13.18    2.25
   2   5   1    7.21    1.81
  -2  -5  -1    4.57    1.07
  -2  -5  -1    5.51    1.52
   2   5   1    4.71    1.79
   3   5   1  183.79    9.52
   3   5   1  185.81   12.57
  -3  -5  -1  189.89    9.31
   4   5   1    9.25    2.61
   4   5   1   11.06    2.49
   5   5   1   -1.15    1.35
   5   5   1   -0.45    1.53
  -2   6   1    1.01    1.62
   2  -6  -1    4.49    1.85
  -1   6   1    0.20    1.29
   1  -6  -1   -0.06    1.27
   1  -6  -1   -0.46    1.16
   0   6   1    4.13    1.64
   0  -6  -1    6.32    1.64
   0  -6  -1    3.86    1.48
   0  -6  -1    4.31    1.71
   0  -6  -1    2.14    2.71
   0  -6  -1    3.61    1.65
  -1  -6  -1    7.77    1.94
  -1  -6  -1    4.04    1.40
   1   6   1    5.01    1.85
   1   6   1    7.31    2.01
  -1  -6  -1    4.10    1.34
   2   6   1   11.92    2.49
   2   6   1   10.83    2.35
   3   6   1   11.29    2.71
   3   6   1   11.10    2.50
   4   6   1   -0.38    1.47
   4   6   1   -0.02    1.50
   0  -7  -1    7.66    2.01
   0  -7  -1    9.63    2.17
  -1  -7  -1    5.93    1.79
   2   7   1    2.08    1.61
   2   7   1    3.85    2.01
   3   7   1    0.17    1.50
   2   7  -2    7.14    2.32
   1   7  -2   19.36    3.48
   1   7  -2   17.80    2.98
   4   6  -2    5.67    2.51
   4   6  -2    3.30    1.87
   3   6  -2   -0.95    1.31
   3   6  -2   -0.25    1.30
  -2  -6   2   25.00    2.75
   2   6  -2   24.64    3.46
   2   6  -2   23.03    3.20
   1   6  -2   -0.25    1.06
  -1  -6   2    0.75    1.16
  -1  -6   2    1.58    1.00
   1   6  -2   -0.37    1.26
  -1  -6   2    1.00    1.38
   0   6  -2    0.75    1.12
   0  -6   2    1.15    1.13
   0  -6   2    2.42    3.40
   0  -6   2    0.53    1.04
   0  -6   2    1.95    1.26
   0  -6   2    1.58    1.53
   1  -6   2    0.01    1.20
   1  -6   2    1.57    1.66
   1  -6   2    2.71    3.26
  -2   6  -2    4.41    2.11
   2  -6   2    6.21    2.17
   2  -6   2    5.44    1.96
   2  -6   2    2.32    3.26
   5   5  -2    4.05    2.04
   5   5  -2    7.94    2.81
   4   5  -2   40.70    4.72
   3   5  -2   -0.61    1.16
  -3  -5   2    1.17    1.23
   3   5  -2    0.24    1.41
   2   5  -2   26.31    2.70
  -2  -5   2   22.93    2.39
  -2  -5   2   30.75    2.65
   2   5  -2   26.29    3.37
  -1  -5   2  205.48   10.43
  -1  -5   2  180.40    9.11
   1   5  -2  187.98    9.38
   1   5  -2  197.02   12.74
  -1  -5   2  188.22    8.93
   0  -5   2   15.32    1.94
   0   5  -2   10.96    2.38
   0  -5   2   15.11    2.29
   0   5  -2   15.42    2.10
   1  -5   2   38.70    2.79
   1  -5   2   36.10    2.87
   1  -5   2   33.76    3.60
   1  -5   2   28.76    5.72
   2  -5   2    1.82    2.34
  -2   5  -2    2.51    1.61
  -3   5  -2   -1.49    1.22
   3  -5   2   -1.44    2.39
   3  -5   2    1.50    1.33
   5   4  -2    0.12    1.45
   5   4  -2    0.17    1.65
   4   4  -2   -0.96    1.12
  -4  -4   2   -0.58    1.07
   4   4  -2    0.59    1.43
   3   4  -2    7.80    1.73
  -3  -4   2   10.98    1.47
   3   4  -2    7.55    2.10
  -3  -4   2    9.55    1.60
  -2  -4   2   87.59    4.20
  -2  -4   2   97.99    5.26
   2   4  -2   87.97    5.13
  -2  -4   2   93.17    4.96
   2   4  -2   87.44    6.77
  -1  -4   2  100.20    5.81
  -1  -4   2   94.90    5.16
   1   4  -2   99.29    5.38
   1   4  -2  108.68    7.35
   0   4  -2  281.59   16.99
   0   4  -2  271.72   12.10
   0  -4   2  279.48   14.02
   0  -4   2  269.89   12.07
   1  -4   2    1.81    2.40
   1  -4   2    5.01    1.55
   1  -4   2    3.83    1.09
   1  -4   2    3.54    0.95
  -1   4  -2    4.85    1.45
  -2   4  -2  361.82   20.23
   2  -4   2  433.10   16.79
   3  -4   2    5.50    2.75
  -3   4  -2   22.06    3.15
   4  -4   2    0.31    2.10
  -4   4  -2   -0.72    1.72
   6   3  -2    3.97    1.93
   6   3  -2    3.98    2.46
   5   3  -2    3.83    2.15
   5   3  -2    7.55    2.05
   4   3  -2   43.16    3.62
   4   3  -2   46.44    4.60
  -4  -3   2   42.27    3.28
  -4  -3   2   48.25    3.31
  -3  -3   2   10.96    1.37
  -3  -3   2   10.86    1.53
   3   3  -2   10.62    2.14
   3   3  -2   13.03    1.91
  -2  -3   2   22.57    1.90
   2   3  -2   18.64    2.39
  -2  -3   2   18.77    1.14
  -2  -3   2   22.67    1.85
   2   3  -2   19.38    1.92
   2   3  -2   21.44    1.99
  -1  -3   2   13.38    1.18
  -1  -3   2   12.50    1.35
  -1  -3   2   14.28    1.56
   1   3  -2   15.75    1.54
   1   3  -2   11.94    1.83
   1   3  -2   13.03    1.52
   0  -3   2 1113.42   49.62
   0   3  -2 1056.22   61.04
   0  -3   2 1073.08   43.28
   0   3  -2 1066.27   42.92
   1  -3   2   99.21    4.37
   1  -3   2   79.88    7.45
  -1   3  -2   99.21    5.80
   2  -3   2   24.24    1.71
   2  -3   2   26.48    2.31
  -2   3  -2   20.20    2.60
  -3   3  -2  288.09   16.38
   3  -3   2  336.43   13.86
   4  -3   2   -0.83    1.94
  -4   3  -2   -0.80    1.38
  -5   3  -2   -2.16    1.67
   5  -3   2   -0.34    2.09
   5  -3   2   -0.04    1.32
   6   2  -2    1.58    1.58
   6   2  -2   -0.55    1.79
   5   2  -2    7.37    1.83
  -5  -2   2    6.30    1.72
   5   2  -2   10.81    2.55
  -5  -2   2    9.12    1.78
   4   2  -2   35.14    3.75
  -4  -2   2   31.55    2.68
  -4  -2   2   30.49    2.67
   4   2  -2   29.37    2.62
  -3  -2   2   62.64    3.85
  -3  -2   2   63.48    3.67
   3   2  -2   65.21    3.84
   3   2  -2   66.59    5.15
   2   2  -2   90.05    6.61
   2   2  -2   93.87    4.88
   2   2  -2  101.83    4.94
  -2  -2   2  100.02    5.20
  -2  -2   2   99.12    4.77
   2   2  -2  103.63    5.29
  -2  -2   2  101.40    4.18
   1   2  -2  405.11   16.47
   1   2  -2  395.77   16.37
   1   2  -2  372.36   23.07
  -1  -2   2  379.91   16.35
  -1  -2   2  443.01   16.31
  -1  -2   2  379.40   18.59
   1   2  -2  415.10   18.71
   0   2  -2  670.82   38.80
   0  -2   2  703.59   27.44
   0   2  -2  662.51   27.19
   0  -2   2  665.92   31.41
   0  -2   2  707.12   27.75
   1  -2   2    0.84    1.41
   1  -2   2    0.30    0.36
  -1   2  -2    1.67    0.81
   1  -2   2    0.93    0.40
   2  -2   2  448.13   25.13
   2  -2   2  434.08   16.73
  -2   2  -2  403.41   20.32
   2  -2   2  425.74   17.19
   2  -2   2  381.76   16.68
   3  -2   2  120.98    5.33
  -3   2  -2  126.25    7.53
   3  -2   2  123.89    5.87
  -5   2  -2    3.34    1.94
   5  -2   2   -0.04    1.92
   6   1  -2    4.32    2.34
   6   1  -2    4.08    1.74
  -6  -1   2    4.31    1.85
  -5  -1   2    1.93    1.40
   5   1  -2    1.43    1.60
  -5  -1   2    2.22    1.38
   5   1  -2    2.39    1.34
   4   1  -2   28.68    1.97
   4   1  -2   29.18    3.21
  -4  -1   2   23.38    2.32
   4   1  -2   26.89    2.38
  -4  -1   2   26.27    2.59
  -3  -1   2   54.48    3.28
  -3  -1   2   54.80    3.60
   3   1  -2   54.59    2.81
   3   1  -2   60.55    3.42
   3   1  -2   56.78    4.47
   3   1  -2   52.41    3.19
  -2  -1   2    9.51    1.16
  -2  -1   2    8.80    1.09
  -2  -1   2    9.38    0.87
   2   1  -2    8.12    1.08
   2   1  -2    8.58    1.10
   2   1  -2   11.19    1.50
   1   1  -2  268.87   11.16
  -1  -1   2  251.27   12.74
   1   1  -2  273.11   15.80
   1   1  -2  253.07   11.12
   1   1  -2  265.69   12.79
  -1  -1   2  282.99   11.21
   1   1  -2  291.69   11.26
  -1  -1   2  271.70   15.80
  -1  -1   2  289.22   11.15
   0   1  -2  486.77   19.44
   0  -1   2  493.21   19.66
   0  -1   2  487.17   22.59
   0   1  -2  513.25   22.63
   0   1  -2  464.18   27.79
   0  -1   2  498.07   19.39
   0   1  -2  482.02   19.66
   0  -1   2  476.74   27.80
   0  -1   2  502.50   19.90
   1  -1   2 4330.77  179.05
   1  -1   2 4399.84  179.85
   1  -1   2 4649.56  202.85
   1  -1   2 4235.55  179.05
   1  -1   2 4673.36  179.96
  -1   1  -2 4738.14  203.89
  -2   1  -2  298.08   12.03
   2  -1   2  300.11   12.41
  -2   1  -2  296.47   14.75
   2  -1   2  313.85   12.06
  -3   1  -2  134.76    5.51
   3  -1   2  136.87    5.96
   3  -1   2  130.52    5.52
  -3   1  -2  126.06    7.34
  -3   1  -2  117.67    5.90
  -4   1  -2  226.86   10.57
  -4   1  -2  241.92   12.76
   4  -1   2  244.84   10.07
  -5   1  -2   -0.20    1.39
  -5   1  -2    0.97    1.16
   5  -1   2   -0.24    1.72
  -6   1  -2    1.45    1.79
   6  -1   2    1.73    2.34
   6  -1   2    6.19    1.98
   6   0  -2    2.90    1.72
  -6   0   2    2.27    1.78
   6   0  -2    3.61    2.16
  -5   0   2   11.07    2.30
   5   0  -2   12.68    2.57
   5   0  -2    9.62    1.72
  -5   0   2   12.18    2.12
   5   0  -2    8.90    1.75
  -4   0   2   72.46    4.59
  -4   0   2   80.68    5.36
   4   0  -2   84.33    4.56
   4   0  -2   80.99    4.43
   4   0  -2   88.89    6.38
   3   0  -2  412.48   17.68
   3   0  -2  424.28   18.05
  -3   0   2  410.90   18.11
  -3   0   2  426.12   20.66
   3   0  -2  462.16   25.26
   3   0  -2  444.33   18.13
   2   0  -2  479.58   19.17
  -2   0   2  446.44   19.17
  -2   0   2  457.57   21.83
   2   0  -2  472.21   26.72
   2   0  -2  463.85   19.24
   2   0  -2  476.97   18.90
  -1   0   2 9999.65  367.18
   1   0  -2 8952.37  362.57
   1   0  -2 9163.52  358.72
   1   0  -2 9523.99  413.19
   1   0  -2 9278.63  367.36
  -1   0   2 8484.55  362.76
  -1   0   2 9109.73  413.59
   1   0  -2 8724.44  511.24
  -1   0   2 9247.38  510.81
   0   0   2   85.48    5.37
   0   0   2   96.43    3.82
   0   0  -2   91.31    3.95
   0   0  -2   93.67    4.48
   0   0   2   93.34    3.95
   0   0  -2   89.42    3.81
   0   0  -2   88.39    5.39
   0   0   2   91.35    4.48
   0   0  -2   91.22    3.82
  -1   0  -2  164.92    6.95
   1   0   2  166.70    6.66
  -1   0  -2  165.52    6.73
  -1   0  -2  165.53    7.86
  -1   0  -2  153.76    9.89
   1   0   2  163.05    7.88
  -1   0  -2  175.71    6.67
   1   0   2  163.60    6.74
   1   0   2  153.34    6.91
   1   0   2  168.12    7.87
   2   0   2  703.09   27.71
  -2   0  -2  667.07   27.69
   2   0   2  686.63   31.77
  -2   0  -2  693.08   31.83
   2   0   2  673.88   27.29
  -2   0  -2  741.00   27.24
   2   0   2  667.53   28.05
  -3   0  -2  324.26   14.25
  -3   0  -2  345.56   16.53
   3   0   2  362.72   14.30
   3   0   2  330.85   13.88
   4   0   2   24.10    2.21
  -4   0  -2   25.91    2.50
  -4   0  -2   21.24    1.98
   4   0   2   24.23    1.86
  -5   0  -2    1.26    1.29
   5   0   2    0.00    0.91
   5   0   2   -0.95    1.64
  -5   0  -2   -0.13    1.18
   6   0   2    0.81    2.02
  -6   0  -2    0.06    1.44
  -6   1   2    0.92    1.75
   5  -1  -2    7.06    2.24
   5  -1  -2    5.95    1.58
  -5   1   2    6.68    2.18
   5  -1  -2    2.56    1.53
   4  -1  -2    6.61    1.87
  -4   1   2    4.31    1.37
  -4   1   2    5.25    1.76
   4  -1  -2    4.89    1.25
   4  -1  -2    5.53    1.50
  -3   1   2   39.19    2.76
   3  -1  -2   48.92    3.76
  -3   1   2   37.69    3.30
   3  -1  -2   40.73    2.95
   3  -1  -2   42.76    2.66
   2  -1  -2    0.61    0.70
   2  -1  -2    0.72    0.62
   2  -1  -2    0.01    0.67
   2  -1  -2    0.58    0.51
  -2   1   2    1.02    0.85
  -2   1   2   -0.02    0.54
   1  -1  -2 1257.54   50.65
  -1   1   2 1228.90   57.05
   1  -1  -2 1293.91   57.02
   1  -1  -2 1313.23   49.41
   1  -1  -2 1078.18   70.16
   1  -1  -2 1293.28   50.01
  -1   1   2 1317.27   50.69
   0  -1  -2 4503.79  182.89
   0   1   2 4410.83  210.80
   0  -1  -2 4654.34  210.84
   0   1   2 4742.45  186.43
   0   1   2 4987.46  182.86
  -1  -1  -2 1400.31   51.53
  -1  -1  -2 1281.48   52.11
  -1  -1  -2 1207.26   52.57
   1   1   2 1398.26   52.61
   1   1   2 1349.89   51.56
   1   1   2 1158.43   73.26
  -1  -1  -2 1363.50   59.86
   1   1   2 1348.06   52.14
   1   1   2 1272.76   59.97
  -2  -1  -2   20.14    1.45
   2   1   2   21.70    1.57
  -2  -1  -2   19.57    1.42
   2   1   2   21.34    1.44
   2   1   2   19.37    1.46
   2   1   2   25.42    1.36
  -2  -1  -2   20.71    1.29
   3   1   2   40.24    2.12
   3   1   2   34.75    3.43
  -3  -1  -2   33.41    2.26
   3   1   2   31.31    2.18
   3   1   2   34.57    2.44
  -3  -1  -2   33.47    2.43
  -4  -1  -2   20.17    1.87
   4   1   2   18.05    1.76
  -4  -1  -2   21.23    2.06
   4   1   2   17.19    2.82
  -5  -1  -2   88.52    5.80
   5   1   2  101.89    7.75
   5   1   2   88.71    5.08
  -5  -1  -2   92.09    5.32
   6   1   2    4.93    2.38
   5  -2  -2    0.51    1.38
  -5   2   2    0.51    1.65
   5  -2  -2    2.38    1.83
   5  -2  -2    0.90    1.34
   4  -2  -2    9.37    1.65
   4  -2  -2    5.28    1.89
   4  -2  -2   11.02    2.06
  -4   2   2   10.16    2.39
   3  -2  -2    0.39    0.82
   3  -2  -2   -0.20    0.79
  -3   2   2   -0.05    1.02
   3  -2  -2   -0.44    0.98
   2  -2  -2  224.28   13.50
   2  -2  -2  248.52   10.14
  -2   2   2  211.65   11.51
   2  -2  -2  220.99   10.25
   2  -2  -2  222.22    9.72
   1  -2  -2    0.33    0.75
   1  -2  -2    0.68    0.60
   1  -2  -2    1.03    0.57
  -1   2   2    1.94    0.83
   1  -2  -2    2.33    0.58
   0   2   2  113.75    5.84
   0  -2  -2  112.11    6.76
   0  -2  -2  119.29    5.83
   0   2   2  121.54    5.41
   0  -2  -2  109.60    5.10
   0   2   2  117.15    6.81
   0  -2  -2  115.85    5.30
   1   2   2  122.07    5.68
   1   2   2  129.27    5.91
  -1  -2  -2  127.07    5.88
   1   2   2  140.90    7.92
   1   2   2  127.57    6.14
  -1  -2  -2  131.19    6.10
  -2  -2  -2  294.82   12.77
   2   2   2  293.69   17.75
   2   2   2  303.77   12.88
  -2  -2  -2  304.18   12.39
   2   2   2  297.03   12.71
   2   2   2  313.60   12.43
   3   2   2  291.18   13.14
  -3  -2  -2  327.13   14.35
   3   2   2  288.92   12.69
   3   2   2  322.66   14.26
   3   2   2  328.82   13.47
  -3  -2  -2  300.26   13.20
   3   2   2  297.33   18.55
   4   2   2    1.10    1.21
  -4  -2  -2   -0.20    0.62
   4   2   2   -0.51    0.83
  -4  -2  -2    0.20    0.84
   5   2   2    8.55    1.80
   5   2   2    5.53    2.32
  -5  -2  -2    5.06    1.52
   6   2   2   41.17    4.95
   6   2   2   34.16    3.41
  -5   3   2    2.88    2.16
   5  -3  -2    3.40    1.78
   4  -3  -2   15.21    2.29
   4  -3  -2   11.20    2.27
  -4   3   2   17.05    3.06
  -3   3   2   39.93    3.83
   3  -3  -2   39.64    3.44
   3  -3  -2   43.41    3.05
   2  -3  -2   65.89    3.73
   2  -3  -2   62.15    4.09
   2  -3  -2   73.99    5.01
  -2   3   2   61.29    4.58
   1  -3  -2  164.03    7.70
   1  -3  -2  189.56   10.78
   1  -3  -2  179.57   10.41
   1  -3  -2  165.99    8.18
  -1   3   2  172.24    9.23
   0   3   2   28.26    2.15
   0  -3  -2   23.97    1.77
   0   3   2   25.01    2.10
   0  -3  -2   25.22    2.10
   0  -3  -2   24.65    1.96
   1   3   2 1009.25   44.19
  -1  -3  -2  986.98   39.35
   1   3   2  967.04   39.43
  -1  -3  -2  910.83   39.27
  -1  -3  -2 1002.12   44.08
   1   3   2  931.67   54.66
   1   3   2  980.61   38.98
   2   3   2   22.10    2.25
   2   3   2   17.47    1.36
   2   3   2   16.62    1.86
   2   3   2   17.09    1.87
  -2  -3  -2   16.79    1.23
  -2  -3  -2   14.08    1.59
   3   3   2   99.35    5.44
  -3  -3  -2   96.03    5.32
   3   3   2  105.02    4.50
  -3  -3  -2  107.70    4.44
   3   3   2  104.27    7.35
  -4  -3  -2    1.41    1.05
   4   3   2   -0.34    1.02
   4   3   2    1.62    1.30
   5   3   2    0.32    1.23
   5   3   2   -0.20    1.36
  -5  -3  -2   -0.98    1.06
   6   3   2    1.75    1.69
   6   3   2    1.73    1.84
  -4   4   2   13.53    2.96
   4  -4  -2   18.68    2.83
  -3   4   2    6.19    2.14
   3  -4  -2    2.59    1.73
   3  -4  -2    5.62    1.71
   2  -4  -2    9.21    1.58
  -2   4   2    7.98    1.88
   2  -4  -2    8.67    1.76
   2  -4  -2    6.19    1.87
   1  -4  -2   16.93    2.50
   1  -4  -2   17.15    1.79
   1  -4  -2   15.00    1.89
  -1   4   2   15.82    2.15
   0  -4  -2   39.02    2.72
   0   4   2   37.17    3.00
   0  -4  -2   43.09    2.72
   0  -4  -2   39.48    2.92
   1   4   2   86.91    5.03
  -1  -4  -2   90.88    4.67
  -1  -4  -2   99.18    5.08
   1   4   2   96.78    5.11
  -1  -4  -2   88.63    5.06
   1   4   2   92.86    6.31
   2   4   2  201.32    9.68
  -2  -4  -2  212.74    9.60
  -2  -4  -2  194.93    9.53
   2   4   2  203.23   12.83
  -2  -4  -2  213.37    8.90
  -2  -4  -2  200.88    9.54
   3   4   2  108.61    7.87
  -3  -4  -2  104.55    5.80
   3   4   2  111.95    6.06
   4   4   2    5.42    1.83
   4   4   2    7.60    2.28
  -4  -4  -2    6.96    1.57
   5   4   2   10.32    2.34
   5   4   2    7.93    2.51
   6   4   2   -0.84    1.62
   6   4   2    0.94    1.65
   3  -5  -2    6.01    2.03
   3  -5  -2    5.19    2.00
  -3   5   2    3.20    1.91
   2  -5  -2   -0.06    1.29
  -2   5   2    0.49    1.40
   2  -5  -2    1.06    1.19
   1  -5  -2    8.09    1.84
  -1   5   2    6.30    1.83
   1  -5  -2    7.01    1.58
   1  -5  -2    6.14    2.15
   0  -5  -2    7.79    1.74
   0  -5  -2    6.07    1.43
   0  -5  -2    4.42    1.35
   0   5   2    3.09    1.42
   1   5   2   56.17    4.69
   1   5   2   55.77    3.96
  -1  -5  -2   56.87    3.72
  -1  -5  -2   63.58    3.65
   1   5   2   65.58    3.96
  -1  -5  -2   57.67    4.04
   2   5   2   72.24    5.71
  -2  -5  -2   71.17    3.83
  -2  -5  -2   70.77    4.53
   2   5   2   67.49    4.64
   3   5   2    4.82    1.92
   3   5   2    6.36    1.91
  -3  -5  -2    6.56    1.72
   4   5   2   -0.43    1.31
   4   5   2   -1.30    1.13
   5   5   2    5.48    2.09
   5   5   2   10.60    2.86
   2  -6  -2    6.74    2.00
  -2   6   2    5.92    2.22
   2  -6  -2    5.83    2.03
   1  -6  -2    2.58    1.50
  -1   6   2    1.86    1.51
   1  -6  -2    3.70    1.73
   0  -6  -2   39.97    3.40
   0   6   2   47.71    4.00
   0  -6  -2   39.81    3.23
  -1  -6  -2    2.00    1.41
  -1  -6  -2    1.37    1.19
  -1  -6  -2    0.41    1.01
   1   6   2    0.96    1.31
   2   6   2    1.54    1.44
   2   6   2    1.87    1.32
   3   6   2   13.28    2.77
   3   6   2    9.50    2.29
   4   6   2    2.72    2.10
   4   6   2   -0.02    1.58
   0  -7  -2    2.72    1.49
   0  -7  -2    2.93    1.68
  -1  -7  -2   14.02    2.35
  -2  -7  -2    0.75    1.15
   2   7   2   -1.91    1.20
   3   7   2   -0.65    1.33
   4   6  -3    0.20    1.56
   4   6  -3    2.00    2.03
   3   6  -3    0.86    1.51
   3   6  -3    0.97    1.66
  -2  -6   3    9.81    1.96
   2   6  -3   12.22    2.59
   2   6  -3    9.65    2.65
   1   6  -3    7.44    1.94
   1   6  -3    6.51    2.24
  -1  -6   3    8.53    1.77
  -1  -6   3    5.61    1.88
   0   6  -3   28.03    2.92
   0  -6   3   33.35    3.70
   0  -6   3   33.07    6.79
   1  -6   3    0.97    1.63
   1  -6   3    0.54    3.17
   2  -6   3    1.80    1.82
   2  -6   3    1.88    1.37
   2  -6   3   -0.41    3.43
   5   5  -3    1.97    1.98
   5   5  -3    0.60    1.83
   4   5  -3    9.67    2.39
   4   5  -3   16.21    3.38
   3   5  -3   23.85    3.10
  -3  -5   3   21.21    2.51
   3   5  -3   25.19    3.52
   2   5  -3   30.18    2.95
   2   5  -3   26.84    3.57
  -2  -5   3   31.29    2.91
  -2  -5   3   31.32    2.75
  -1  -5   3   63.36    4.55
   1   5  -3   67.99    4.34
  -1  -5   3   58.68    3.84
   1   5  -3   55.95    5.34
   0  -5   3    4.78    4.03
   0  -5   3    9.79    2.10
   0   5  -3    7.57    1.62
   0   5  -3    6.60    2.16
   0  -5   3    7.33    1.45
   1  -5   3    0.56    1.41
   1  -5   3   -0.05    2.69
   1  -5   3    0.71    1.04
   1  -5   3    0.44    0.95
   2  -5   3    0.35    2.44
   2  -5   3    0.57    1.53
  -2   5  -3   -1.22    1.12
   3  -5   3    3.13    2.96
   3  -5   3   -0.03    1.60
  -3   5  -3    1.64    1.69
   5   4  -3   11.25    3.08
   5   4  -3   10.78    2.60
  -4  -4   3   37.15    3.26
   4   4  -3   34.17    3.44
   4   4  -3   38.38    4.39
   3   4  -3   18.90    3.00
   3   4  -3   18.60    2.49
  -3  -4   3   12.87    1.85
  -3  -4   3   15.44    1.89
  -2  -4   3    0.67    0.89
  -2  -4   3    0.22    0.88
   2   4  -3   -0.06    1.02
   2   4  -3    0.01    0.91
   1   4  -3  111.97    6.02
  -1  -4   3  113.25    5.77
  -1  -4   3  122.66    6.75
   1   4  -3  120.92    6.00
   1   4  -3  114.88    8.22
   0  -4   3    5.70    1.59
   0   4  -3    5.29    1.69
   0   4  -3    7.69    1.43
   0  -4   3    5.89    1.20
   1  -4   3   62.74    4.84
   1  -4   3   72.00    3.62
   1  -4   3   70.83    7.73
   1  -4   3   61.41    3.68
   2  -4   3   71.50    7.69
  -2   4  -3   97.60    6.37
  -3   4  -3   25.22    3.52
  -4   4  -3    4.89    2.59
   4  -4   3    0.35    2.32
   6   3  -3    3.49    1.84
   5   3  -3    7.62    2.46
   5   3  -3    4.79    1.85
   4   3  -3    0.91    1.28
   4   3  -3   -0.74    1.18
  -4  -3   3    0.09    1.00
  -4  -3   3   -0.45    1.17
  -3  -3   3   16.26    1.83
   3   3  -3   11.55    1.90
   3   3  -3   19.53    2.74
  -3  -3   3   14.93    1.76
  -2  -3   3   88.81    4.91
  -2  -3   3   77.62    3.76
   2   3  -3   82.12    4.65
   2   3  -3   77.64    6.16
   2   3  -3   86.87    4.65
  -2  -3   3   94.69    4.50
   1   3  -3   59.02    3.46
  -1  -3   3   58.41    3.24
   1   3  -3   62.89    3.43
  -1  -3   3   61.99    3.87
   1   3  -3   59.54    4.76
   0   3  -3    2.74    1.23
   0  -3   3    2.85    1.05
   0  -3   3    3.30    0.79
   0   3  -3    3.06    0.87
  -1   3  -3   10.72    1.11
   1  -3   3    9.27    1.10
   1  -3   3   10.67    1.81
   1  -3   3   14.01    3.44
  -2   3  -3  336.98   19.19
   2  -3   3  418.37   16.31
   2  -3   3  397.11   15.69
  -3   3  -3   14.82    2.53
   3  -3   3    3.19    2.51
   4  -3   3   -1.60    1.86
  -4   3  -3    1.49    1.74
   5  -3   3    0.42    2.51
  -5   3  -3   15.89    3.30
   6   2  -3    1.62    1.65
   6   2  -3    1.52    2.08
   5   2  -3    1.95    1.73
   5   2  -3    1.01    1.30
  -5  -2   3    3.67    1.50
  -4  -2   3   58.62    4.08
   4   2  -3   62.83    5.29
  -4  -2   3   56.80    3.89
   4   2  -3   54.72    3.87
   3   2  -3   14.20    2.29
   3   2  -3   16.26    1.03
   3   2  -3   13.69    1.85
  -3  -2   3   14.97    1.80
  -3  -2   3   15.21    1.71
  -2  -2   3   20.02    1.20
   2   2  -3   13.43    1.61
   2   2  -3   18.79    2.17
  -2  -2   3   14.31    1.57
   2   2  -3   15.36    1.71
   2   2  -3   19.01    1.14
  -2  -2   3   17.80    1.65
  -1  -2   3  175.32    6.91
  -1  -2   3  156.67    6.93
   1   2  -3  147.37    9.89
   1   2  -3  165.71    7.08
   1   2  -3  151.85    7.07
  -1  -2   3  160.10    8.07
   0   2  -3  618.91   24.70
   0   2  -3  613.91   35.35
   0  -2   3  617.07   24.80
   0  -2   3  606.08   28.71
   0   2  -3  628.44   24.85
   1  -2   3  453.14   18.55
   1  -2   3  472.91   18.27
   1  -2   3  476.55   21.96
  -1   2  -3  434.24   18.32
  -2   2  -3   21.50    2.56
   2  -2   3   26.14    1.28
   2  -2   3   23.09    3.35
   2  -2   3   25.97    1.29
   2  -2   3   26.10    1.64
  -3   2  -3  166.87    9.44
   3  -2   3  153.60    7.27
   3  -2   3  169.32    6.64
  -5   2  -3    2.87    1.97
   5  -2   3    0.07    1.88
  -6  -1   3    0.32    1.50
   6   1  -3    1.59    1.53
   6   1  -3    1.41    1.94
   5   1  -3    2.43    1.39
   5   1  -3    0.04    1.45
  -5  -1   3    2.00    1.42
  -4  -1   3   11.46    1.77
  -4  -1   3    9.22    1.73
   4   1  -3    8.82    1.63
   4   1  -3   11.42    1.29
   4   1  -3   11.47    2.22
  -3  -1   3   17.75    2.06
   3   1  -3   17.46    1.44
  -3  -1   3   19.30    1.87
   3   1  -3   21.68    1.88
   3   1  -3   18.40    2.34
  -2  -1   3  378.21   18.33
  -2  -1   3  400.41   16.23
  -2  -1   3  418.56   16.07
   2   1  -3  355.41   22.54
   2   1  -3  390.41   16.07
   1   1  -3   33.49    1.84
  -1  -1   3   35.57    1.75
   1   1  -3   30.92    1.88
   1   1  -3   31.90    2.56
  -1  -1   3   30.50    1.82
   1   1  -3   29.98    1.70
   1   1  -3   33.16    2.22
  -1  -1   3   32.09    2.20
   0  -1   3  198.52    9.95
   0   1  -3  206.09    8.40
   0  -1   3  215.31    8.39
   0  -1   3  210.82    8.69
   0   1  -3  205.99    8.41
   0  -1   3  215.33    8.41
   0   1  -3  194.34   12.13
   0   1  -3  202.21   10.00
   0   1  -3  196.98    8.66
   1  -1   3   83.09    6.02
  -1   1  -3   82.58    4.01
   1  -1   3   83.28    4.70
  -1   1  -3   83.99    3.50
   1  -1   3   79.99    3.44
   1  -1   3   91.50    3.56
  -2   1  -3  400.53   19.37
   2  -1   3  405.26   16.29
  -3   1  -3   24.87    2.68
   3  -1   3   27.83    1.36
  -3   1  -3   24.39    1.29
   3  -1   3   27.24    1.83
  -4   1  -3    0.38    0.97
   4  -1   3    1.00    0.88
  -4   1  -3   -0.02    1.29
   4  -1   3    1.57    1.91
  -5   1  -3   38.80    3.04
  -5   1  -3   43.59    4.17
   6  -1   3    2.11    2.24
  -6   1  -3    5.72    2.31
   6   0  -3    1.44    1.46
  -6   0   3    0.86    1.66
   6   0  -3   -0.23    1.75
   5   0  -3    5.41    1.65
   5   0  -3    5.90    2.05
   5   0  -3    5.21    1.44
  -5   0   3    3.32    1.80
  -4   0   3    2.14    1.28
   4   0  -3    1.67    1.08
   4   0  -3    2.40    1.40
  -4   0   3    2.27    1.33
   4   0  -3    3.51    1.18
  -3   0   3    0.57    0.82
   3   0  -3    0.84    0.72
   3   0  -3   -0.37    0.74
  -3   0   3    0.59    1.00
   3   0  -3    1.12    1.14
   2   0  -3   49.52    3.63
   2   0  -3   51.13    2.74
   2   0  -3   50.27    2.89
  -2   0   3   48.73    2.85
   2   0  -3   49.52    2.78
  -2   0   3   49.07    3.25
   1   0  -3 5293.68  203.99
   1   0  -3 5258.56  236.05
   1   0  -3 5116.45  291.52
  -1   0   3 5044.57  235.78
  -1   0   3 5045.99  207.43
  -1   0   3 5367.75  208.77
   1   0  -3 5414.05  207.06
   1   0  -3 5217.18  209.71
   0   0  -3   85.35    4.34
   0   0  -3   76.38    3.77
   0   0   3   83.73    4.33
   0   0   3   91.40    3.84
   0   0   3   86.31    5.17
   0   0  -3   80.16    5.15
   0   0   3   86.69    3.66
   0   0  -3   84.70    3.67
   0   0  -3   81.79    3.60
  -1   0  -3  304.05   12.72
  -1   0  -3  309.14   14.41
  -1   0  -3  300.26   12.39
   1   0   3  313.21   12.73
   1   0   3  310.34   14.38
   1   0   3  286.57   14.34
  -1   0  -3  295.97   12.18
  -1   0  -3  328.90   12.26
  -2   0  -3  380.37   16.61
   2   0   3  391.03   16.23
   2   0   3  393.50   18.81
  -2   0  -3  407.39   18.87
   2   0   3  408.76   15.97
  -2   0  -3  419.57   15.90
  -3   0  -3   14.52    1.77
  -3   0  -3   15.88    1.14
   3   0   3   14.86    1.16
  -3   0  -3   13.64    1.31
   3   0   3   13.83    1.35
   4   0   3   10.44    1.45
  -4   0  -3   13.68    1.95
  -4   0  -3   10.93    1.51
   4   0   3   10.88    1.29
  -5   0  -3    4.73    1.45
  -5   0  -3    7.41    1.87
   5   0   3    1.80    1.96
   6   0   3   -2.08    1.63
  -6   0  -3   -0.04    1.53
   5  -1  -3    9.57    2.44
   5  -1  -3    9.95    1.96
  -5   1   3    9.62    2.44
   5  -1  -3    7.69    1.84
   4  -1  -3    7.22    1.63
  -4   1   3    4.52    1.76
  -4   1   3    6.38    1.57
   4  -1  -3    6.34    1.44
   4  -1  -3    8.77    1.96
   3  -1  -3   33.11    2.65
   3  -1  -3   34.09    2.44
  -3   1   3   33.35    3.08
   3  -1  -3   41.01    3.31
  -2   1   3   52.48    3.76
  -2   1   3   48.52    2.89
   2  -1  -3   47.39    2.93
  -2   1   3   48.23    3.43
   2  -1  -3   48.17    2.93
   2  -1  -3   46.36    2.78
   2  -1  -3   55.66    3.60
   1  -1  -3  490.95   27.99
   1  -1  -3  513.46   20.28
   1  -1  -3  476.15   20.49
   1  -1  -3  491.20   20.01
  -1   1   3  510.76   28.03
  -1   1   3  493.41   23.13
   0   1   3  777.75   44.11
   0   1   3  776.23   35.33
   0  -1  -3  811.65   35.33
   0   1   3  749.35   31.42
   0  -1  -3  784.05   31.44
   0  -1  -3  748.43   30.65
   1   1   3  732.58   33.99
  -1  -1  -3  731.54   33.96
  -1  -1  -3  764.18   30.28
  -1  -1  -3  714.06   29.50
   1   1   3  777.93   30.27
  -1  -1  -3  701.31   29.93
  -1  -1  -3  807.30   29.71
   2   1   3  308.16   12.45
   2   1   3  303.65   14.09
  -2  -1  -3  306.34   12.60
   2   1   3  300.12   12.60
  -2  -1  -3  289.62   12.52
   2   1   3  314.59   12.64
   2   1   3  290.07   14.07
  -3  -1  -3    2.48    0.79
   3   1   3    1.02    1.11
   3   1   3    2.90    0.72
   3   1   3    3.01    0.84
   3   1   3    3.47    0.90
  -3  -1  -3    2.36    0.80
  -4  -1  -3    4.30    1.13
  -4  -1  -3    5.56    1.27
   4   1   3    6.12    1.18
   4   1   3    5.20    1.22
   5   1   3  145.97    6.93
  -5  -1  -3  141.00    7.93
   5   1   3  144.55   10.39
  -5  -1  -3  121.14    6.93
   6   1   3   -0.71    1.67
   5  -2  -3    3.35    1.75
  -5   2   3    2.91    1.99
   5  -2  -3    2.89    1.64
   4  -2  -3   30.92    2.77
   4  -2  -3   34.75    3.55
  -4   2   3   27.82    3.51
   4  -2  -3   29.50    3.06
   3  -2  -3   30.78    2.74
   3  -2  -3   43.43    3.34
  -3   2   3   33.15    3.27
   3  -2  -3   30.43    2.54
   2  -2  -3    9.12    1.42
  -2   2   3    9.28    1.63
   2  -2  -3   10.98    1.34
   2  -2  -3   11.83    1.53
   2  -2  -3   10.02    1.50
  -2   2   3    8.19    1.58
  -1   2   3  215.06   11.16
   1  -2  -3  240.10   12.92
   1  -2  -3  236.76   12.82
   1  -2  -3  221.50    9.59
   1  -2  -3  203.77    9.89
   0   2   3  323.47   15.25
   0  -2  -3  275.74   18.27
   0  -2  -3  342.52   13.70
   0  -2  -3  312.91   13.28
   0  -2  -3  344.95   15.24
   0   2   3  344.13   18.43
  -1  -2  -3   30.03    1.90
   1   2   3   32.32    2.06
  -1  -2  -3   30.78    1.85
  -1  -2  -3   31.92    2.06
   1   2   3   33.45    2.44
  -1  -2  -3   31.33    1.80
   1   2   3   32.37    1.97
   1   2   3   29.88    1.79
  -1  -2  -3   35.77    2.62
  -2  -2  -3    3.20    0.81
   2   2   3    0.70    0.70
   2   2   3    0.83    0.80
  -2  -2  -3    0.18    0.43
   2   2   3    0.02    0.42
   2   2   3    0.20    0.54
   3   2   3  211.65    9.66
   3   2   3  219.00   10.24
   3   2   3  226.36    9.90
   3   2   3  209.08    9.29
  -3  -2  -3  227.40    9.30
   3   2   3  225.60   10.21
   3   2   3  215.30   13.63
  -3  -2  -3  211.86    9.67
   4   2   3   38.05    2.73
  -4  -2  -3   34.76    2.38
   4   2   3   35.38    3.86
  -4  -2  -3   31.63    2.48
   5   2   3    6.53    1.71
  -5  -2  -3    6.94    1.70
   5   2   3    5.83    2.32
   6   2   3    1.69    2.02
  -5   3   3    7.83    2.71
   5  -3  -3    5.48    2.16
  -4   3   3    6.49    2.35
   4  -3  -3    7.93    1.95
   4  -3  -3    6.90    2.04
  -3   3   3    7.93    2.02
   3  -3  -3    6.84    1.56
   3  -3  -3    5.29    1.65
   2  -3  -3  143.62    6.76
   2  -3  -3  142.43    8.80
   2  -3  -3  137.72    7.19
  -2   3   3  136.98    8.08
   1  -3  -3   76.59    4.42
   1  -3  -3   77.09    4.07
  -1   3   3   80.07    4.90
   1  -3  -3   81.07    4.89
   0   3   3   24.88    1.92
   0  -3  -3   24.33    1.91
   0  -3  -3   23.32    1.88
   0   3   3   23.27    2.01
   0  -3  -3   25.33    1.85
  -1  -3  -3    0.29    0.63
   1   3   3    0.96    0.52
   1   3   3    0.79    0.58
   1   3   3    0.11    0.67
  -1  -3  -3    0.13    0.58
  -1  -3  -3    0.91    0.50
  -1  -3  -3    1.10    0.73
   2   3   3  393.73   16.51
  -2  -3  -3  385.79   16.05
   2   3   3  391.90   16.66
   2   3   3  371.27   22.67
   2   3   3  418.85   16.22
  -2  -3  -3  364.44   16.45
   3   3   3   19.54    2.06
   3   3   3   16.81    2.46
  -3  -3  -3   20.24    1.96
   3   3   3   24.18    1.55
  -3  -3  -3   23.19    1.44
   4   3   3   40.22    3.13
   4   3   3   38.90    4.02
  -4  -3  -3   37.35    2.87
   5   3   3    7.64    1.93
   5   3   3    5.79    2.26
  -5  -3  -3    6.56    1.71
   6   3   3    6.46    2.60
   6   3   3    5.48    2.09
   4  -4  -3   27.70    3.32
  -4   4   3   24.32    3.86
   4  -4  -3   24.87    3.28
   3  -4  -3    0.60    1.35
  -3   4   3   -0.78    1.23
   3  -4  -3    0.71    1.31
   2  -4  -3    2.68    1.16
  -2   4   3    2.16    1.37
   2  -4  -3    2.04    1.26
   1  -4  -3   48.29    3.08
   1  -4  -3   43.29    3.26
   1  -4  -3   52.29    3.89
  -1   4   3   46.71    3.72
   0  -4  -3   86.76    4.79
   0   4   3   89.11    5.31
   0  -4  -3   87.95    4.64
   0   4   3   89.55    5.75
   1   4   3   16.77    1.61
   1   4   3   10.14    1.59
   1   4   3   21.07    2.19
  -1  -4  -3   15.15    1.87
  -1  -4  -3   17.00    1.61
  -1  -4  -3   13.93    1.53
  -1  -4  -3   13.22    1.75
   2   4   3   70.77    5.27
   2   4   3   68.90    4.30
  -2  -4  -3   66.69    4.15
  -2  -4  -3   69.20    3.58
   3   4   3    4.33    1.51
   3   4   3    4.99    1.65
  -3  -4  -3    3.60    0.70
  -3  -4  -3    4.40    1.33
  -4  -4  -3  212.30   10.45
   4   4   3  220.72   10.71
   4   4   3  227.22   14.55
   5   4   3    3.02    1.75
   5   4   3   -0.77    1.42
   6   4   3    2.89    2.26
   6   4   3    6.09    2.25
  -3   5   3   11.03    2.71
   3  -5  -3    9.45    2.37
   3  -5  -3    8.70    2.23
  -2   5   3    6.07    2.01
   2  -5  -3    2.90    1.61
   2  -5  -3    4.57    1.61
   1  -5  -3  163.16    8.13
  -1   5   3  171.47    9.73
   0  -5  -3    0.64    1.04
   0  -5  -3   -0.54    0.91
   0   5   3    0.36    0.99
   0  -5  -3    0.01    1.05
   0  -5  -3    0.21    1.65
   1   5   3   -0.21    0.78
  -1  -5  -3    0.56    1.09
   1   5   3    0.24    0.87
  -1  -5  -3   -1.13    0.76
  -1  -5  -3   -0.31    1.05
   2   5   3  255.71   12.25
  -2  -5  -3  250.33   12.17
   2   5   3  262.79   16.11
  -2  -5  -3  266.87   11.44
   3   5   3   49.24    3.79
   3   5   3   39.77    4.27
  -3  -5  -3   41.40    3.42
   4   5   3    0.67    1.43
   4   5   3    0.38    1.56
   5   5   3    5.17    2.14
   5   5   3    5.33    2.35
   2  -6  -3   -0.79    1.48
  -2   6   3    0.95    1.64
   2  -6  -3    2.64    1.82
   1  -6  -3   14.57    2.49
   1  -6  -3   17.38    2.47
  -1   6   3   17.03    2.75
   0   6   3   41.80    3.73
   0  -6  -3   37.85    3.13
   0  -6  -3   35.59    3.24
  -1  -6  -3   12.03    2.02
  -1  -6  -3   10.53    1.75
  -2  -6  -3    1.21    1.25
   2   6   3    1.96    1.48
   2   6   3    2.00    1.51
   3   6   3    9.63    2.41
   3   6   3   11.85    2.54
   4   6   3    0.38    1.51
   4   6   3    0.63    1.67
   0  -7  -3   -0.14    1.28
   0  -7  -3    0.38    1.32
  -1  -7  -3   -0.36    1.21
  -2  -7  -3    1.44    1.30
   3   7   3   -1.64    1.30
   3   6  -4    4.23    2.24
   3   6  -4    1.40    1.69
   2   6  -4    1.45    1.45
   2   6  -4    4.62    2.10
  -1  -6   4   -0.16    1.39
   1   6  -4    0.47    1.48
   1   6  -4    0.40    1.26
   0  -6   4    5.73    2.12
   0   6  -4    5.25    1.62
   0  -6   4    4.80    3.95
   1  -6   4   11.69    2.67
   1  -6   4    8.73    5.08
   4   5  -4    2.10    1.63
   4   5  -4    4.41    2.26
   3   5  -4    6.99    1.97
   3   5  -4   14.14    3.03
  -3  -5   4    9.65    1.92
  -2  -5   4  138.55    7.86
   2   5  -4  131.43    9.85
  -2  -5   4  133.76    6.93
  -1  -5   4    2.54    1.17
  -1  -5   4    0.80    1.27
   1   5  -4    0.55    1.51
   1   5  -4    1.34    1.14
   0  -5   4   15.85    5.87
   0  -5   4   14.73    2.48
   0   5  -4   13.86    2.84
   0  -5   4   12.26    1.66
   0   5  -4   11.82    2.01
   1  -5   4   32.44    6.89
   1  -5   4   32.66    3.60
   2  -5   4   -0.33    1.47
   2  -5   4    0.08    3.31
   3  -5   4    8.32    2.63
   3  -5   4   -1.28    3.15
   5   4  -4    1.33    1.61
   5   4  -4    6.55    2.57
   4   4  -4   12.06    2.86
   4   4  -4   12.03    2.46
  -3  -4   4   39.54    3.06
   3   4  -4   39.23    4.22
  -3  -4   4   37.04    3.17
   3   4  -4   35.66    3.30
   2   4  -4   36.77    3.97
   2   4  -4   39.06    3.12
  -2  -4   4   43.74    2.89
  -2  -4   4   36.49    3.16
  -1  -4   4   15.74    2.08
   1   4  -4   17.01    1.84
   1   4  -4   16.43    2.60
   1   4  -4   11.51    1.80
  -1  -4   4   14.62    1.67
   0   4  -4    2.88    1.54
   0   4  -4    5.32    1.32
   0  -4   4    6.08    1.11
   0  -4   4    4.94    1.62
   1  -4   4  223.38   12.43
   1  -4   4  232.03   10.13
   1  -4   4  226.91   17.66
  -1   4  -4  236.16   10.13
   2  -4   4    1.75    2.72
   2  -4   4    1.12    1.50
   3  -4   4   12.81    2.67
   3  -4   4    3.26    2.86
  -3   4  -4   10.46    2.51
   4  -4   4    8.29    3.56
   5   3  -4    9.22    2.78
   5   3  -4    8.35    2.26
   4   3  -4    0.62    1.50
  -4  -3   4    2.72    1.38
   4   3  -4    1.04    1.49
  -4  -3   4    2.79    1.43
  -3  -3   4    0.63    0.96
  -3  -3   4   -0.05    0.91
   3   3  -4   -1.13    0.71
   3   3  -4   -0.35    0.98
   2   3  -4  112.10    7.84
  -2  -3   4  105.58    6.16
  -2  -3   4  109.27    4.95
   2   3  -4  105.88    5.71
  -2  -3   4  111.95    5.41
   2   3  -4  111.24    5.63
  -1  -3   4  225.09   10.94
   1   3  -4  209.76    9.56
  -1  -3   4  213.82    9.26
   1   3  -4  223.42    9.51
   1   3  -4  192.34   13.26
   0   3  -4  181.21   11.43
   0  -3   4  175.20    9.38
   0   3  -4  175.53    7.91
   0  -3   4  172.71    7.65
   1  -3   4  596.99   34.45
   1  -3   4  541.29   22.14
  -1   3  -4  515.38   21.96
   1  -3   4  536.55   26.22
  -2   3  -4  354.24   19.62
   2  -3   4  448.03   15.89
   2  -3   4  332.51   19.46
   2  -3   4  419.96   16.32
   3  -3   4    0.58    2.10
  -3   3  -4   -0.60    1.21
   4  -3   4   -1.08    1.99
  -4   3  -4    5.87    2.19
   5  -3   4    0.98    2.57
  -5   3  -4    9.50    2.88
   6   2  -4   -0.74    1.30
  -5  -2   4    8.16    2.00
   5   2  -4    9.81    2.71
   5   2  -4    7.11    2.02
   4   2  -4   -0.07    1.06
   4   2  -4    3.68    1.76
  -4  -2   4    1.28    1.10
  -4  -2   4    0.47    1.20
   3   2  -4   30.30    2.62
   3   2  -4   31.00    3.36
   3   2  -4   35.36    1.89
  -3  -2   4   37.33    2.07
  -3  -2   4   31.74    2.75
  -3  -2   4   30.61    2.47
   2   2  -4   47.89    3.02
  -2  -2   4   50.34    2.53
  -2  -2   4   47.39    2.82
   2   2  -4   43.62    2.42
   2   2  -4   48.53    2.95
   2   2  -4   47.40    3.97
  -2  -2   4   48.21    3.28
  -1  -2   4    2.51    0.91
   1   2  -4    5.33    1.00
  -1  -2   4    3.76    0.72
   1   2  -4    3.41    1.12
   1   2  -4    2.96    0.66
   1   2  -4    4.34    0.79
  -1  -2   4    3.82    0.72
   0   2  -4  205.98    8.66
   0  -2   4  206.15   10.33
   0   2  -4  208.59    8.56
   0  -2   4  205.14    8.45
   0   2  -4  200.25   12.53
   0   2  -4  193.60    8.85
   1  -2   4  493.32   19.46
   1  -2   4  461.44   23.05
  -1   2  -4  476.79   19.33
   1  -2   4  500.54   19.21
  -2   2  -4    1.80    1.17
   2  -2   4    1.29    0.47
   2  -2   4   -0.76    1.29
   2  -2   4    0.08    1.04
   3  -2   4   76.59    3.77
  -3   2  -4   76.23    5.45
  -4   2  -4    4.40    1.92
   4  -2   4   -0.44    1.81
  -5   2  -4   19.65    3.33
   6   1  -4   -0.32    1.75
   6   1  -4    1.02    1.49
  -6  -1   4    0.81    1.67
   5   1  -4    5.08    1.67
   5   1  -4    4.60    2.07
  -5  -1   4    5.37    1.81
  -4  -1   4    0.48    1.08
   4   1  -4   -0.45    0.73
   4   1  -4    0.70    1.37
  -4  -1   4   -0.47    1.05
   4   1  -4   -0.05    1.00
   3   1  -4   10.91    1.94
   3   1  -4   10.03    1.54
  -3  -1   4    9.34    1.60
   3   1  -4   14.31    1.31
  -3  -1   4   12.22    1.76
  -2  -1   4  362.96   17.94
   2   1  -4  387.69   15.81
   2   1  -4  355.81   15.62
  -2  -1   4  371.44   15.79
  -2  -1   4  386.88   15.68
   2   1  -4  389.74   22.05
  -1  -1   4  132.78    5.51
   1   1  -4  118.91    5.44
   1   1  -4  123.39    5.55
   1   1  -4  123.52    5.45
   1   1  -4  123.48    7.72
  -1  -1   4  114.38    6.37
  -1  -1   4  119.49    5.45
   0   1  -4 1367.54   56.55
   0   1  -4 1429.12   55.79
   0   1  -4 1393.46   78.85
   0  -1   4 1377.33   55.79
   0  -1   4 1366.80   63.91
   0   1  -4 1490.64   55.21
  -1   1  -4 2333.24   93.21
  -1   1  -4 2435.26   95.35
   1  -1   4 2344.40  107.57
   1  -1   4 2384.59   93.10
   2  -1   4  135.60    5.44
   2  -1   4  121.55    7.12
  -3   1  -4  320.95   14.22
   3  -1   4  362.34   14.29
  -3   1  -4  355.49   17.31
  -4   1  -4   89.86    6.23
   4  -1   4   98.20    4.85
  -5   1  -4    8.43    2.25
   5  -1   4   -1.13    1.67
  -6   1  -4    0.64    1.80
   6  -1   4   -0.86    2.03
   6   0  -4    4.03    1.84
   5   0  -4    2.17    1.31
   5   0  -4    2.73    1.36
  -5   0   4    2.33    1.63
   5   0  -4    0.17    1.51
  -4   0   4    2.13    1.42
   4   0  -4    4.50    1.23
   4   0  -4    2.56    1.21
   4   0  -4    3.19    1.59
  -4   0   4    3.04    1.40
   3   0  -4    1.05    0.81
  -3   0   4    1.93    1.09
   3   0  -4    1.79    0.84
  -3   0   4    1.31    1.03
   3   0  -4    1.80    1.16
  -2   0   4  235.61   11.44
   2   0  -4  234.25    9.94
   2   0  -4  221.29   13.51
   2   0  -4  235.05    9.99
   2   0  -4  226.68    9.86
  -2   0   4  213.14    9.92
  -1   0   4  274.53   11.04
   1   0  -4  249.65   10.78
  -1   0   4  236.89   10.77
   1   0  -4  271.24   10.89
  -1   0   4  260.46   14.97
   1   0  -4  265.60   10.96
  -1   0   4  248.98   12.44
   1   0  -4  258.25   14.97
   0   0   4   20.78    1.59
   0   0  -4   19.86    1.25
   0   0  -4   19.93    1.60
   0   0   4   19.19    1.36
   0   0  -4   20.85    1.16
   0   0  -4   20.11    1.36
   0   0   4   16.18    1.70
   0   0  -4   15.51    1.73
   1   0   4 1449.37   51.87
  -1   0  -4 1317.79   53.32
  -1   0  -4 1345.86   60.14
  -1   0  -4 1263.43   52.71
   1   0   4 1282.32   60.10
  -1   0  -4 1273.48   51.86
   2   0   4   34.99    1.87
  -2   0  -4   34.63    2.20
   2   0   4   31.05    2.47
  -2   0  -4   35.66    1.62
  -2   0  -4   37.52    1.81
  -2   0  -4   35.75    1.69
  -3   0  -4    0.54    0.80
  -3   0  -4    1.53    0.42
   3   0   4    2.06    0.47
   3   0   4    0.03    1.26
  -3   0  -4   -0.21    0.34
   3   0   4    1.90    0.67
   4   0   4    1.63    1.73
   4   0   4    5.76    0.94
  -4   0  -4    4.26    1.43
  -4   0  -4    3.99    1.16
   4   0   4    4.20    1.09
  -5   0  -4   17.05    2.10
  -5   0  -4   25.81    2.93
  -6   0  -4   -0.28    1.50
   6   0   4    0.15    2.10
   5  -1  -4    7.95    1.85
   5  -1  -4   11.30    2.53
   5  -1  -4    5.49    1.75
  -5   1   4    6.74    2.27
  -4   1   4   16.05    2.58
   4  -1  -4   14.54    2.07
   4  -1  -4   16.75    2.47
   4  -1  -4   14.67    2.04
   3  -1  -4   30.83    2.86
   3  -1  -4   29.10    2.48
   3  -1  -4   32.97    2.50
  -3   1   4   26.66    2.39
  -3   1   4   28.96    2.91
  -2   1   4  389.46   18.18
  -2   1   4  335.30   21.48
   2  -1  -4  370.29   15.82
   2  -1  -4  361.46   15.90
   2  -1  -4  389.32   21.43
   2  -1  -4  393.64   15.64
   1  -1  -4  764.67   44.46
  -1   1   4  818.50   44.49
  -1   1   4  800.27   36.54
   1  -1  -4  801.43   31.68
   1  -1  -4  811.00   32.02
   1  -1  -4  756.78   32.38
   0  -1  -4   83.79    4.14
   0   1   4   79.18    4.56
   0  -1  -4   87.17    4.65
   0   1   4  101.89    5.38
   0  -1  -4   82.97    4.01
   0   1   4   86.81    5.19
   1   1   4   24.91    1.67
  -1  -1  -4   20.48    1.45
  -1  -1  -4   23.87    1.57
   1   1   4   23.95    1.58
  -1  -1  -4   23.39    1.43
  -1  -1  -4   24.45    1.68
   2   1   4   84.85    3.85
   2   1   4   80.11    4.30
  -2  -1  -4   85.04    3.89
   2   1   4   85.73    3.99
   2   1   4   69.50    4.24
  -2  -1  -4   85.25    3.97
   3   1   4  155.98    7.21
   3   1   4  156.89    7.02
  -3  -1  -4  172.07    7.26
  -3  -1  -4  155.35    7.08
   3   1   4  155.14    8.05
   4   1   4   26.63    2.03
  -4  -1  -4   24.95    2.39
   4   1   4   29.86    2.49
  -4  -1  -4   25.01    2.12
  -5  -1  -4    0.62    1.18
  -5  -1  -4    1.25    1.24
   5   1   4   -0.21    1.64
   6   1   4    2.97    2.26
   5  -2  -4    1.00    1.49
  -5   2   4    0.73    1.89
   5  -2  -4    0.37    1.55
   4  -2  -4    1.33    1.41
   4  -2  -4    1.24    1.40
  -4   2   4    1.90    1.65
   4  -2  -4    2.05    1.42
   3  -2  -4   -0.34    0.83
   3  -2  -4   -0.59    0.91
   3  -2  -4   -0.18    0.94
  -3   2   4   -0.93    1.05
   2  -2  -4    5.31    1.20
   2  -2  -4    8.35    1.07
  -2   2   4    5.91    1.27
   2  -2  -4    6.01    1.23
  -2   2   4    3.68    1.30
  -1   2   4    1.20    0.85
   1  -2  -4    1.51    0.69
   1  -2  -4    0.26    0.62
   0  -2  -4  235.07   10.85
   0   2   4  217.63   10.84
   0  -2  -4  222.39    9.51
   0  -2  -4  218.63    9.79
  -1  -2  -4  290.01   12.83
  -1  -2  -4  273.55   11.61
   1   2   4  270.28   12.79
  -1  -2  -4  268.07   11.70
  -1  -2  -4  264.94   11.39
   2   2   4  687.84   31.52
   2   2   4  749.37   31.57
  -2  -2  -4  664.74   28.21
   2   2   4  732.22   39.61
   2   2   4  685.06   28.28
   2   2   4  673.57   27.95
  -2  -2  -4  649.89   28.16
   3   2   4   26.34    1.70
   3   2   4   24.53    2.00
  -3  -2  -4   24.93    2.01
   3   2   4   25.09    1.66
  -3  -2  -4   25.92    1.80
   3   2   4   27.04    2.26
   3   2   4   27.36    3.05
   4   2   4   30.31    2.16
  -4  -2  -4   31.04    2.41
   4   2   4   28.31    3.51
   4   2   4   31.10    2.52
   5   2   4  196.39   13.31
   5   2   4  186.82    9.11
  -5  -2  -4  187.52    9.18
   6   2   4    2.38    2.19
   4  -3  -4   13.63    2.41
  -4   3   4   13.89    2.96
   4  -3  -4   12.58    2.25
   3  -3  -4   -1.35    1.06
   3  -3  -4   -0.20    1.03
  -3   3   4   -0.41    1.07
   2  -3  -4   37.65    2.57
  -2   3   4   27.83    2.96
   2  -3  -4   30.41    2.54
   2  -3  -4   27.88    2.64
  -1   3   4   13.41    1.77
   1  -3  -4   11.20    1.53
   1  -3  -4   14.31    1.59
   0   3   4   52.71    3.28
   0  -3  -4   50.36    3.04
   0  -3  -4   55.46    3.23
   0  -3  -4   50.43    3.32
   0   3   4   56.25    3.45
  -1  -3  -4   64.64    3.80
  -1  -3  -4   68.85    3.57
   1   3   4   66.01    3.61
  -1  -3  -4   63.60    3.53
  -1  -3  -4   65.11    3.52
   1   3   4   62.92    4.36
   2   3   4   26.31    2.63
  -2  -3  -4   26.05    1.84
  -2  -3  -4   25.24    2.19
   2   3   4   31.35    2.46
   3   3   4   37.52    2.87
   3   3   4   38.82    3.74
  -3  -3  -4   41.56    2.30
  -3  -3  -4   39.27    2.78
  -4  -3  -4    1.00    0.70
   4   3   4    0.28    1.33
  -4  -3  -4    2.34    1.08
   4   3   4    0.43    1.06
  -5  -3  -4   12.30    2.08
   5   3   4   18.58    2.55
   5   3   4   11.82    2.86
   6   3   4    0.01    1.61
   6   3   4    0.23    1.84
  -4   4   4   -0.02    1.51
   4  -4  -4    0.38    1.53
   4  -4  -4    0.07    1.75
   3  -4  -4   19.79    2.60
   3  -4  -4   17.68    2.65
  -3   4   4   10.47    2.53
  -2   4   4    1.92    1.41
   2  -4  -4    2.53    1.48
   2  -4  -4    2.54    1.30
  -1   4   4   16.32    2.20
   1  -4  -4   16.22    2.04
   1  -4  -4   17.68    1.99
   0  -4  -4    9.80    1.49
   0  -4  -4   10.98    1.56
   0   4   4    9.20    1.54
  -1  -4  -4  116.85    5.98
  -1  -4  -4  120.61    5.96
   1   4   4  128.16    6.42
  -1  -4  -4  113.82    6.31
   1   4   4  122.33    7.67
   2   4   4   87.98    5.07
  -2  -4  -4   83.87    4.36
   2   4   4   90.04    6.23
  -2  -4  -4   84.58    4.94
   3   4   4   19.90    2.49
  -3  -4  -4   19.89    1.58
  -3  -4  -4   17.69    2.12
   3   4   4   18.21    2.73
   4   4   4    1.97    1.55
   4   4   4    1.08    1.60
  -4  -4  -4    4.16    1.44
   5   4   4    2.02    1.71
   5   4   4    3.32    1.66
   6   4   4   -1.07    1.69
   6   4   4    0.25    1.58
   3  -5  -4    0.33    1.47
  -3   5   4    2.00    1.71
   3  -5  -4    0.45    1.59
   2  -5  -4   33.80    3.09
  -2   5   4   30.47    3.62
   2  -5  -4   28.84    3.11
  -1   5   4   17.57    2.57
   1  -5  -4   18.56    2.49
   1  -5  -4   21.54    2.25
   0  -5  -4   65.10    4.28
   0  -5  -4   68.29    4.76
   0   5   4   73.58    4.82
   0  -5  -4   67.38    4.18
   1   5   4   11.68    1.62
  -1  -5  -4    9.87    1.63
   1   5   4    9.54    1.75
  -1  -5  -4   11.33    2.19
  -1  -5  -4   15.09    2.09
  -2  -5  -4   99.45    5.39
   2   5   4  114.54    6.35
  -2  -5  -4  105.81    6.15
   2   5   4  113.07    7.59
  -2  -5  -4  100.94    5.71
   3   5   4   -0.42    1.26
   3   5   4   -0.11    1.24
  -3  -5  -4    2.30    1.30
   4   5   4   21.66    3.11
   4   5   4   22.59    3.44
   5   5   4   -0.24    1.58
   5   5   4   -0.60    1.58
   2  -6  -4    0.92    1.62
   2  -6  -4   -0.36    1.47
  -2   6   4   -0.40    1.38
   1  -6  -4    2.62    1.60
   1  -6  -4    3.84    1.70
  -1   6   4    2.26    1.54
   0  -6  -4    6.97    1.82
   0  -6  -4    9.92    2.03
   0   6   4    5.92    1.79
  -1  -6  -4    6.32    1.55
  -1  -6  -4    9.75    1.96
  -2  -6  -4    7.20    1.87
   3   6   4    7.65    2.24
   3   6   4    7.71    2.20
   4   6   4    7.80    2.48
   4   6   4    6.52    2.33
   0  -7  -4    4.95    1.88
  -1  -7  -4   -0.26    1.35
  -2  -7  -4   -0.13    1.19
   3   6  -5    2.15    1.74
   3   6  -5    0.95    1.81
   2   6  -5    1.76    1.79
   2   6  -5    0.53    1.57
   1   6  -5   11.67    2.89
  -1  -6   5    7.64    2.30
   1   6  -5   12.37    2.48
   0  -6   5    5.12    2.24
   0  -6   5    6.86    5.33
   1  -6   5    2.52    2.10
   1  -6   5    2.69    4.61
   4   5  -5    6.71    2.06
   4   5  -5    7.26    2.64
   3   5  -5    2.25    1.91
   3   5  -5   -1.06    1.21
  -3  -5   5    0.24    1.30
  -3  -5   5   -1.02    1.21
   2   5  -5    0.91    1.31
  -2  -5   5   -0.18    1.20
  -2  -5   5    1.13    1.17
   2   5  -5    0.01    1.41
  -1  -5   5    1.91    1.10
  -1  -5   5    2.18    1.47
   1   5  -5    1.55    1.57
   1   5  -5    0.84    1.22
   0  -5   5   17.98    6.58
   0   5  -5   20.56    3.12
   0  -5   5   16.42    2.75
   0   5  -5   16.84    2.26
   1  -5   5    2.87    3.83
   1  -5   5    4.53    2.00
   2  -5   5   -2.06    2.82
   2  -5   5    1.51    1.60
   3  -5   5   -0.67    1.81
   3  -5   5   -1.54    3.01
   5   4  -5    1.02    1.77
   5   4  -5    0.88    1.91
   4   4  -5    3.60    1.65
  -4  -4   5    5.11    1.75
   4   4  -5    4.07    2.10
   3   4  -5   11.41    2.60
   3   4  -5    6.54    1.80
  -3  -4   5    8.29    1.74
  -3  -4   5    8.97    1.86
  -2  -4   5   14.02    1.71
   2   4  -5   13.14    2.59
   2   4  -5   14.33    2.25
  -2  -4   5   15.65    2.16
  -1  -4   5  128.24    6.12
   1   4  -5  125.13    6.58
  -1  -4   5  133.71    7.52
   1   4  -5  117.19    8.99
   1   4  -5  129.77    6.39
   0   4  -5  102.29    7.90
   0  -4   5  100.87    5.10
   0  -4   5  112.35    6.83
   0   4  -5  109.84    5.57
  -1   4  -5  136.39    6.33
   1  -4   5  127.24    8.10
   2  -4   5   -1.17    2.94
   2  -4   5   -0.46    1.32
   3  -4   5    1.48    2.96
   3  -4   5    0.88    1.73
   4  -4   5    1.81    3.25
   4  -4   5    2.94    1.95
   5   3  -5    1.48    1.55
   5   3  -5    1.43    1.85
  -4  -3   5   -1.09    1.25
  -4  -3   5   -0.15    1.24
   4   3  -5   -1.13    1.16
   4   3  -5   -0.16    1.43
  -3  -3   5   -0.89    0.90
   3   3  -5   -0.49    1.05
  -3  -3   5   -0.38    0.97
   3   3  -5   -0.20    0.95
  -2  -3   5   15.24    2.03
   2   3  -5   17.69    2.11
   2   3  -5   19.91    1.51
  -2  -3   5   15.45    1.70
   2   3  -5   17.86    2.60
  -1  -3   5   97.26    4.73
   1   3  -5   99.23    5.17
  -1  -3   5   94.96    5.83
   1   3  -5  102.65    5.01
   1   3  -5   99.25    7.16
   1   3  -5   97.42    4.85
   0  -3   5   -0.01    0.52
   0   3  -5    0.40    1.03
   0  -3   5   -0.13    0.86
   0   3  -5   -1.18    0.52
   1  -3   5  238.21   12.91
  -1   3  -5  249.76   10.44
   1  -3   5  249.69   10.26
   2  -3   5    8.26    3.45
   2  -3   5    9.28    2.11
   2  -3   5    9.43    1.02
   3  -3   5    3.98    1.76
   3  -3   5   -1.17    2.23
   4  -3   5    0.57    2.65
  -4   3  -5    1.94    1.88
   4  -3   5    2.08    1.67
   5   2  -5    0.51    1.65
  -5  -2   5    0.19    1.37
   5   2  -5   -0.48    1.21
  -4  -2   5   12.94    2.11
   4   2  -5   16.03    2.80
  -4  -2   5   11.09    2.05
   4   2  -5   10.43    2.06
  -3  -2   5    1.50    1.08
  -3  -2   5    3.42    1.22
   3   2  -5    2.27    1.17
   3   2  -5    2.60    0.70
   3   2  -5    1.88    1.32
  -2  -2   5  118.17    6.87
   2   2  -5  112.42    8.33
   2   2  -5  136.17    6.18
  -2  -2   5  125.19    6.00
   2   2  -5  137.64    5.74
   2   2  -5  119.73    6.15
   1   2  -5    1.18    0.71
   1   2  -5    1.76    0.68
   1   2  -5    1.58    1.00
  -1  -2   5    2.57    0.97
  -1  -2   5    1.90    0.71
   1   2  -5    0.63    0.62
   0   2  -5  235.79    9.96
   0   2  -5  232.53   14.45
   0   2  -5  220.43   10.22
   0   2  -5  232.26    9.79
   0  -2   5  243.66    9.71
   0  -2   5  246.17   11.98
   1  -2   5   22.57    2.26
  -1   2  -5   17.77    1.75
   1  -2   5   12.42    3.27
   1  -2   5   21.21    1.28
  -1   2  -5   19.94    1.30
   2  -2   5   46.95    3.71
   2  -2   5   46.65    2.08
   3  -2   5    0.87    1.25
   3  -2   5   -1.26    1.62
   4  -2   5   -0.54    2.00
   4  -2   5   -0.97    1.28
  -4   2  -5   -1.00    1.33
   5  -2   5   -0.05    1.51
   5  -2   5   -1.24    2.13
  -5   2  -5   -0.69    1.45
   5   1  -5   -1.56    1.32
   5   1  -5    0.25    1.21
  -5  -1   5    0.91    1.48
  -4  -1   5   26.45    3.02
   4   1  -5   28.51    3.44
   4   1  -5   28.81    2.18
  -4  -1   5   25.11    2.63
   4   1  -5   25.71    2.57
  -3  -1   5   26.84    2.27
  -3  -1   5   24.92    2.59
   3   1  -5   19.75    2.10
   3   1  -5   21.30    2.61
   2   1  -5   -0.38    0.56
  -2  -1   5    0.62    0.83
   2   1  -5   -0.08    0.88
   2   1  -5   -0.77    0.71
   2   1  -5   -0.56    0.76
  -2  -1   5    0.66    0.79
   1   1  -5  220.14    9.52
   1   1  -5  217.56   13.37
  -1  -1   5  215.64   11.07
  -1  -1   5  215.16    9.44
   1   1  -5  232.60    9.48
   1   1  -5  230.39    9.61
   0   1  -5  204.09    8.60
   0   1  -5  215.72   12.73
   0   1  -5  205.34    9.09
   0   1  -5  214.86    8.78
   0  -1   5  212.67    8.61
   0  -1   5  200.75   10.44
  -1   1  -5   18.50    1.63
  -1   1  -5   17.59    1.06
   1  -1   5   13.01    2.56
   1  -1   5   16.11    1.89
   1  -1   5   18.38    1.05
  -2   1  -5   58.19    3.46
   2  -1   5   60.47    5.37
   2  -1   5   59.91    4.02
   3  -1   5  194.38   10.91
   3  -1   5  213.16    8.66
   5  -1   5   -0.37    2.02
  -5   1  -5   12.11    2.46
   5   0  -5   -0.63    1.41
   5   0  -5    1.45    1.38
  -5   0   5   -1.17    1.28
   4   0  -5   23.19    2.41
  -4   0   5   29.44    3.24
   4   0  -5   31.72    3.36
  -4   0   5   25.78    2.83
   4   0  -5   26.09    2.46
  -3   0   5  191.94    9.42
  -3   0   5  203.34   10.84
   3   0  -5  213.56   12.68
   3   0  -5  217.36    9.34
   3   0  -5  187.78    9.21
   2   0  -5 1368.43   75.23
   2   0  -5 1405.34   53.82
   2   0  -5 1307.65   53.18
  -2   0   5 1367.46   61.42
  -2   0   5 1312.97   53.76
   2   0  -5 1268.91   54.18
   1   0  -5   23.52    1.98
  -1   0   5   18.17    1.44
   1   0  -5   20.56    1.60
   1   0  -5   17.82    1.55
   1   0  -5   21.08    1.59
  -1   0   5   19.03    1.85
   0   0  -5  262.01   10.69
   0   0  -5  260.51   10.74
   0   0   5  252.29   12.55
   0   0  -5  259.50   11.09
   1   0   5  377.96   18.77
  -1   0  -5  376.97   16.03
  -1   0  -5  392.33   15.94
  -1   0  -5  394.11   16.65
   1   0   5  446.92   16.00
  -2   0  -5  649.99   25.14
   2   0   5  600.19   29.24
  -2   0  -5  623.58   24.79
  -2   0  -5  636.86   25.97
  -3   0  -5   24.04    1.23
   3   0   5   20.60    1.64
  -3   0  -5   23.00    1.18
   3   0   5   19.77    2.22
  -3   0  -5   22.31    1.56
  -3   0  -5   24.34    1.99
  -4   0  -5   23.40    1.84
   5   0   5   -0.69    1.83
   5   0   5    2.00    1.57
  -5   0  -5    0.78    1.33
   6   0   5    3.22    2.49
  -5   1   5    2.09    1.79
   5  -1  -5   -0.43    1.33
   5  -1  -5    0.43    1.41
   4  -1  -5   -0.32    1.16
  -4   1   5    1.85    1.29
   4  -1  -5    0.57    1.28
  -4   1   5    1.56    1.66
   4  -1  -5    2.16    1.28
   3  -1  -5    2.20    1.09
   3  -1  -5    2.39    1.14
  -3   1   5    1.23    1.22
   3  -1  -5    1.25    1.09
   2  -1  -5   78.48    4.32
   2  -1  -5   78.09    4.37
   2  -1  -5   81.14    4.43
   2  -1  -5   87.09    5.28
  -2   1   5   75.18    5.04
   1  -1  -5  118.29    5.62
   1  -1  -5  113.16    5.58
  -1   1   5  112.49    6.43
   1  -1  -5  120.78    5.74
   1  -1  -5  121.28    7.07
  -1   1   5  127.22    7.10
   0   1   5  129.73    6.71
   0  -1  -5  123.76    5.97
   0   1   5  149.30    7.77
   0  -1  -5  134.04    5.85
   0   1   5  113.76    7.80
  -1  -1  -5  213.65    9.47
  -1  -1  -5  236.94   10.89
  -1  -1  -5  223.68    9.35
   1   1   5  226.96   10.83
  -1  -1  -5  219.61    9.71
  -2  -1  -5   12.39    1.07
   2   1   5   13.17    1.32
  -2  -1  -5   12.23    1.03
   2   1   5    7.81    1.09
   3   1   5    5.40    1.06
  -3  -1  -5    5.82    1.04
  -3  -1  -5    6.83    0.98
   3   1   5    5.60    1.03
   3   1   5    6.63    0.94
   4   1   5  408.67   16.68
  -4  -1  -5  371.50   16.38
   4   1   5  404.59   16.15
   4   1   5  370.96   18.74
   5   1   5    2.86    1.36
   5   1   5   -0.19    1.87
  -5  -1  -5    1.08    1.18
   6   1   5    1.84    2.43
   5  -2  -5    4.74    1.93
  -5   2   5   -0.04    1.78
   5  -2  -5    1.18    1.52
   4  -2  -5    7.48    1.93
   4  -2  -5    7.78    1.96
  -4   2   5    7.02    2.33
  -3   2   5   16.28    2.48
   3  -2  -5   16.21    2.02
   3  -2  -5   13.26    1.96
   3  -2  -5   16.27    2.08
   2  -2  -5   11.35    1.57
   2  -2  -5    9.12    1.51
  -2   2   5    7.27    1.62
  -2   2   5    8.58    1.31
   2  -2  -5    7.83    1.07
  -1   2   5   56.89    3.77
   1  -2  -5   54.49    3.33
   1  -2  -5   53.87    3.22
   1  -2  -5   56.62    3.33
   0  -2  -5   11.40    1.26
   0   2   5   11.42    1.37
   0  -2  -5   10.63    1.28
  -1  -2  -5   77.37    3.95
  -1  -2  -5   72.26    3.60
  -1  -2  -5   61.31    4.80
  -1  -2  -5   67.83    3.77
   1   2   5   74.06    3.89
  -1  -2  -5   73.66    3.69
   2   2   5  381.15   17.03
  -2  -2  -5  370.92   15.19
  -2  -2  -5  355.18   15.46
  -2  -2  -5  368.11   15.46
   2   2   5  331.42   21.50
  -2  -2  -5  394.77   17.12
   3   2   5    9.08    1.06
   3   2   5    8.38    1.31
  -3  -2  -5    8.57    1.09
  -3  -2  -5    8.28    1.25
   3   2   5    5.10    1.57
   3   2   5    8.71    1.00
   3   2   5    9.77    1.40
   4   2   5    2.97    1.81
  -4  -2  -5    6.84    1.17
   4   2   5    5.92    1.06
  -4  -2  -5    7.61    1.38
   4   2   5    7.06    1.43
   5   2   5   32.21    4.22
   5   2   5   36.65    2.98
  -5  -2  -5   31.13    2.83
   6   2   5    3.17    2.24
   4  -3  -5   -0.43    1.46
  -4   3   5    1.66    1.69
   4  -3  -5    0.19    1.57
   3  -3  -5   34.21    3.10
  -3   3   5   34.96    3.64
   3  -3  -5   31.37    2.92
   2  -3  -5    3.69    1.27
   2  -3  -5    1.29    1.07
  -2   3   5    3.30    1.43
   1  -3  -5    8.86    1.43
   1  -3  -5    5.99    1.25
  -1   3   5    8.79    1.60
   0   3   5  168.15    8.52
   0  -3  -5  154.20    7.65
   0  -3  -5  166.83    7.52
   1   3   5  213.36   10.33
  -1  -3  -5  204.17    9.72
  -1  -3  -5  206.05    9.36
  -1  -3  -5  222.70   10.33
  -1  -3  -5  209.81    9.49
   1   3   5  217.18   12.54
  -2  -3  -5  114.11    5.42
   2   3   5  110.02    7.38
   2   3   5  112.22    5.41
  -2  -3  -5  104.73    5.43
  -2  -3  -5  105.03    5.68
  -2  -3  -5  124.70    5.46
  -3  -3  -5   44.57    3.10
  -3  -3  -5   50.06    2.77
   3   3   5   46.83    4.24
   3   3   5   48.87    3.29
  -4  -3  -5    6.69    1.41
   4   3   5    7.19    2.20
  -4  -3  -5    6.62    1.15
   4   3   5    8.44    1.70
   5   3   5    5.12    1.75
  -5  -3  -5   -0.30    1.23
   5   3   5    4.13    1.98
   6   3   5   -1.22    1.61
   4  -4  -5   -0.66    1.78
   4  -4  -5   -0.25    1.50
  -4   4   5    0.85    1.66
   3  -4  -5    2.65    1.65
  -3   4   5    4.57    1.93
   3  -4  -5    3.84    1.75
   2  -4  -5    5.18    1.60
   2  -4  -5    6.55    1.73
  -2   4   5    8.98    2.03
  -1   4   5   30.14    2.93
   1  -4  -5   28.02    2.40
   1  -4  -5   26.08    2.53
   0   4   5   36.43    2.91
   0  -4  -5   32.90    2.73
   0  -4  -5   34.94    2.62
   1   4   5  188.28    9.32
  -1  -4  -5  172.35    8.49
  -1  -4  -5  187.82    9.09
   1   4   5  190.85   11.12
  -1  -4  -5  182.46    8.61
  -2  -4  -5   28.10    2.30
  -2  -4  -5   26.08    2.45
  -2  -4  -5   28.70    2.12
   2   4   5   23.89    2.66
  -3  -4  -5  277.35   11.82
  -3  -4  -5  262.85   12.50
   3   4   5  274.67   12.62
   3   4   5  276.05   16.97
  -4  -4  -5    7.74    1.67
   4   4   5    9.23    2.35
   4   4   5   10.71    2.20
   5   4   5    9.14    2.71
   5   4   5   11.44    2.34
   3  -5  -5    1.84    1.67
   3  -5  -5   -1.43    1.52
  -3   5   5    1.54    1.79
  -2   5   5   40.13    4.14
   2  -5  -5   39.55    3.74
   2  -5  -5   42.50    3.54
   1  -5  -5    1.24    1.17
   1  -5  -5   -1.11    1.08
  -1   5   5    1.42    1.37
   0   5   5    5.20    1.55
   0  -5  -5    4.26    1.47
   0  -5  -5    6.00    1.56
  -1  -5  -5  157.25    8.51
   1   5   5  161.23    8.54
  -1  -5  -5  161.48    7.96
  -1  -5  -5  162.32    8.00
  -2  -5  -5   21.22    2.59
   2   5   5   14.62    2.26
  -2  -5  -5   18.56    2.28
  -2  -5  -5   19.84    2.10
   3   5   5    5.69    1.84
  -3  -5  -5    4.30    1.55
   3   5   5    3.64    1.76
   4   5   5   36.77    4.15
   4   5   5   34.32    3.56
   5   5   5    0.47    1.65
   5   5   5    0.19    1.66
   1  -6  -5   38.65    3.35
   1  -6  -5   34.64    3.56
  -1   6   5   41.54    4.10
   0  -6  -5    2.81    1.50
   0  -6  -5    1.75    1.38
  -1  -6  -5   -0.70    1.10
  -1  -6  -5   -0.86    0.99
  -2  -6  -5   25.89    2.65
   3   6   5    1.97    1.72
   3   6   5   -0.29    1.33
  -3  -6  -5    0.22    1.09
   4   6   5    1.15    1.80
   4   6   5    1.97    1.73
  -1  -7  -5    2.62    1.75
  -2  -7  -5   -1.34    1.12
   2   6  -6    1.03    1.64
   2   6  -6    0.79    1.71
  -1  -6   6   10.09    2.49
   1   6  -6    8.87    2.81
   1   6  -6   11.77    2.45
   0  -6   6    9.85    6.34
   0  -6   6   10.04    2.69
   4   5  -6    1.59    1.65
   4   5  -6    0.27    1.72
   3   5  -6   26.27    3.80
  -3  -5   6   22.30    2.97
   3   5  -6   21.52    3.16
  -2  -5   6    8.72    2.11
  -2  -5   6   12.60    1.91
   2   5  -6   14.32    3.08
   2   5  -6   11.96    2.37
   1   5  -6   10.00    2.71
   1   5  -6    8.66    2.02
  -1  -5   6    7.45    2.09
   0  -5   6   17.36    2.98
   0   5  -6   22.60    2.54
   0   5  -6   21.74    3.57
   0  -5   6   13.98    7.03
   1  -5   6    0.41    1.60
   1  -5   6   -1.17    4.95
   2  -5   6    0.20    4.37
   2  -5   6    7.46    2.44
  -4  -4   6    1.09    1.53
   4   4  -6    1.78    1.86
   4   4  -6   -0.15    1.32
   3   4  -6   32.10    3.25
  -3  -4   6   30.21    3.22
   3   4  -6   32.34    3.99
  -3  -4   6   30.77    2.78
   2   4  -6   14.86    2.79
   2   4  -6   12.25    2.24
  -2  -4   6    9.59    1.97
  -2  -4   6   11.77    1.72
  -1  -4   6    8.04    1.83
  -1  -4   6    6.16    1.20
   1   4  -6    6.41    1.65
   1   4  -6    8.35    2.26
   0  -4   6   14.62    1.59
   0   4  -6   17.90    3.02
   0   4  -6   17.07    2.11
   0  -4   6   19.53    7.15
   0  -4   6   16.77    2.53
   1  -4   6   62.86    8.99
   1  -4   6   52.14    4.72
   2  -4   6   24.37    5.97
   2  -4   6   26.08    3.43
   3  -4   6   63.74    5.51
   5   3  -6    0.13    1.73
  -5  -3   6    0.97    1.64
   5   3  -6    0.40    1.62
   4   3  -6    0.33    1.50
   4   3  -6   -0.55    1.13
  -4  -3   6   -0.79    1.34
  -3  -3   6   47.75    3.83
  -3  -3   6   46.03    3.34
   3   3  -6   45.12    4.56
   3   3  -6   45.10    3.55
   2   3  -6   20.36    2.40
   2   3  -6   20.94    2.81
   2   3  -6   25.27    1.88
  -2  -3   6   23.80    2.60
  -2  -3   6   21.41    2.00
   1   3  -6    1.66    0.86
  -1  -3   6    0.51    0.73
   1   3  -6    1.06    1.26
  -1  -3   6    1.74    1.14
   1   3  -6    0.88    0.85
   1   3  -6    0.63    0.96
   0  -3   6   99.09    4.49
   0  -3   6   98.90    6.19
   0   3  -6   96.11    7.29
   0   3  -6   97.84    4.96
  -1   3  -6  386.20   15.86
   1  -3   6  382.82   15.52
   1  -3   6  386.05   19.40
   2  -3   6   -2.58    2.11
   2  -3   6   -0.15    1.15
   3  -3   6   -1.44    2.48
   3  -3   6    1.22    1.58
  -5  -2   6    7.59    2.20
   5   2  -6    6.69    2.46
   5   2  -6    3.87    1.79
   4   2  -6    7.24    1.98
  -4  -2   6    8.15    1.83
  -4  -2   6    7.33    1.95
   4   2  -6   10.03    2.37
   3   2  -6   -1.21    0.97
   3   2  -6    0.12    0.96
  -3  -2   6   -1.37    0.89
   3   2  -6    0.07    0.64
  -3  -2   6   -0.97    0.97
  -2  -2   6   26.82    2.62
   2   2  -6   30.15    2.25
  -2  -2   6   26.46    2.11
   2   2  -6   20.81    1.72
   2   2  -6   27.12    2.97
   2   2  -6   26.03    2.24
  -1  -2   6  103.48    6.03
  -1  -2   6  103.10    4.84
   1   2  -6  101.32    4.88
   1   2  -6  103.56    5.11
   1   2  -6   98.59    7.10
   1   2  -6   98.49    4.95
   0   2  -6   16.84    1.28
   0   2  -6   18.23    1.53
   0  -2   6   18.62    1.24
   0  -2   6   17.99    2.18
   0   2  -6   16.50    1.72
   0   2  -6   17.56    2.38
   1  -2   6   78.31    7.22
   1  -2   6   67.89    4.64
  -1   2  -6   66.71    3.91
  -1   2  -6   66.04    3.25
   3  -2   6   57.64    4.69
   4  -2   6   22.50    3.22
   5  -2   6   -1.45    2.48
   5  -2   6    1.90    1.85
  -5  -1   6    0.68    1.50
   5   1  -6   -0.23    1.15
   5   1  -6   -0.50    1.51
   4   1  -6    0.43    0.67
  -4  -1   6   -0.08    1.31
   4   1  -6    0.19    1.24
   4   1  -6    0.82    1.41
  -4  -1   6    0.37    1.30
   3   1  -6   14.06    2.28
   3   1  -6   15.47    1.57
  -3  -1   6   14.01    1.85
  -3  -1   6   12.02    2.00
   3   1  -6   10.80    1.79
   2   1  -6    5.97    1.23
   2   1  -6    5.85    1.03
   2   1  -6    8.06    1.58
  -2  -1   6    8.35    1.34
  -2  -1   6    8.22    1.51
   2   1  -6    6.40    1.19
   1   1  -6    0.02    0.61
  -1  -1   6    0.39    0.79
   1   1  -6    0.01    0.77
  -1  -1   6    0.22    0.58
   1   1  -6    0.40    0.60
   1   1  -6   -0.43    0.50
   0  -1   6  154.07    8.32
   0   1  -6  164.34    6.64
   0  -1   6  148.63    6.60
   0   1  -6  155.90    9.95
   0   1  -6  164.59    6.89
   0   1  -6  153.71    7.16
  -1   1  -6  259.11   11.51
   1  -1   6  257.13   13.15
  -1   1  -6  269.92   10.70
   2  -1   6  185.77   10.05
  -2   1  -6  193.84    8.82
   3  -1   6  102.85    6.67
   3  -1   6  114.36    4.78
   4  -1   6    3.06    1.72
   4  -1   6   -1.57    2.04
   5  -1   6    8.03    2.31
   5  -1   6   -0.01    2.15
   5   0  -6   -1.13    1.16
   5   0  -6   -0.95    1.36
  -5   0   6   -0.22    1.45
   4   0  -6    1.76    1.33
  -4   0   6    1.96    1.55
  -4   0   6    4.14    1.73
   4   0  -6    2.90    1.69
   4   0  -6    2.77    1.25
  -3   0   6   18.66    2.17
   3   0  -6   16.54    2.09
  -3   0   6   23.75    2.67
   3   0  -6   20.47    2.48
   3   0  -6   21.33    2.05
   2   0  -6    6.81    1.31
   2   0  -6   11.07    1.38
   2   0  -6   10.72    1.52
   2   0  -6   12.33    1.69
  -2   0   6   10.21    1.72
  -2   0   6   10.85    1.47
   1   0  -6   45.96    2.82
   1   0  -6   47.12    3.50
   1   0  -6   48.39    2.77
  -1   0   6   45.84    2.65
  -1   0   6   42.49    3.23
   1   0  -6   52.79    2.94
   0   0  -6   12.19    1.18
   0   0  -6   11.09    1.03
   0   0  -6   13.57    1.33
   0   0   6    6.53    1.81
   0   0   6   11.67    1.47
  -1   0  -6   79.63    3.75
  -1   0  -6   80.49    4.17
   1   0   6   85.71    4.80
  -2   0  -6   84.10    4.32
   2   0   6   77.57    4.81
  -2   0  -6   74.18    3.52
  -2   0  -6   89.94    3.72
  -2   0  -6   81.43    3.53
   3   0   6    3.20    0.80
  -3   0  -6    4.39    0.44
   3   0   6    4.50    1.25
  -3   0  -6    4.09    0.78
  -3   0  -6    4.97    1.16
   4   0   6    0.28    1.94
   4   0   6    0.52    1.10
  -4   0  -6    0.43    0.85
   5   0   6    5.78    1.93
   5   0   6   -1.18    1.98
   6   0   6    0.75    2.43
  -5   1   6    0.30    1.62
   5  -1  -6   -1.40    1.23
   5  -1  -6   -0.83    1.29
   4  -1  -6    3.00    1.50
   4  -1  -6    1.09    1.32
  -4   1   6    5.65    2.06
   3  -1  -6    0.86    1.00
   3  -1  -6    2.01    1.12
   3  -1  -6    2.39    1.24
  -3   1   6    1.99    1.37
   2  -1  -6  348.07   19.51
   2  -1  -6  325.24   14.49
   2  -1  -6  345.12   14.81
  -2   1   6  331.09   16.81
   1  -1  -6  303.42   13.34
   1  -1  -6  311.67   17.62
  -1   1   6  303.50   15.10
   1  -1  -6  308.55   13.17
   1  -1  -6  293.05   13.06
  -1   1   6  322.14   17.64
   0   1   6  331.87   17.53
   0   1   6  290.55   14.65
   0  -1  -6  288.97   13.04
   0   1   6  308.40   17.72
   0  -1  -6  295.98   12.71
   1   1   6  132.70    6.74
  -1  -1  -6  126.27    6.05
  -1  -1  -6  126.35    5.72
  -2  -1  -6  117.05    5.30
   3   1   6    0.35    0.68
   3   1   6   -0.31    1.31
   3   1   6    0.93    0.72
  -3  -1  -6    0.44    0.35
  -3  -1  -6    1.28    0.82
  -3  -1  -6   -0.18    0.42
  -4  -1  -6   92.28    4.83
   4   1   6   85.12    4.66
  -4  -1  -6   83.59    4.40
   4   1   6   77.82    5.10
   5   1   6   -0.43    1.89
   6   1   6   14.06    3.74
  -5   2   6    1.19    1.99
   5  -2  -6    0.95    1.79
   5  -2  -6    0.77    1.70
  -4   2   6    0.24    1.55
   4  -2  -6    0.12    1.34
   4  -2  -6   -0.59    1.30
  -3   2   6    0.47    1.33
   3  -2  -6   -0.01    1.21
   3  -2  -6    1.15    1.22
   2  -2  -6   10.11    1.03
  -2   2   6   13.89    2.10
   2  -2  -6    9.10    1.62
   2  -2  -6   11.11    1.65
   1  -2  -6    0.66    0.79
   1  -2  -6   -1.07    0.68
   1  -2  -6   -0.23    0.83
  -1   2   6    0.20    0.78
   0   2   6  124.17    6.69
   0  -2  -6  127.85    6.09
   0  -2  -6  118.63    5.84
   0   2   6  126.32    7.20
   1   2   6   22.81    1.88
  -1  -2  -6   23.18    1.88
   1   2   6   19.43    2.08
  -1  -2  -6   19.82    1.66
  -2  -2  -6   64.12    3.63
  -2  -2  -6   64.38    3.58
   2   2   6   68.39    3.73
  -2  -2  -6   65.02    3.51
  -2  -2  -6   70.65    3.87
   3   2   6  116.76    8.39
  -3  -2  -6  119.76    5.74
  -3  -2  -6  119.67    5.61
   3   2   6  115.59    6.03
   3   2   6  119.30    6.10
  -3  -2  -6  116.26    5.74
  -4  -2  -6  161.72    7.51
   4   2   6  151.44    8.02
   4   2   6  167.13    7.58
  -4  -2  -6  156.47    7.51
   4   2   6  155.30   11.15
  -5  -2  -6    9.92    1.73
   5   2   6   11.32    3.07
   6   2   6    1.00    2.03
   4  -3  -6    1.34    1.59
  -4   3   6    0.70    1.64
   4  -3  -6   -2.74    1.41
   3  -3  -6    2.02    1.49
  -3   3   6    3.62    1.68
   3  -3  -6    3.22    1.44
  -2   3   6   34.30    3.38
   2  -3  -6   35.30    2.90
   2  -3  -6   38.02    3.08
   1  -3  -6    1.58    1.00
   1  -3  -6    0.96    0.89
  -1   3   6    1.23    1.06
   0  -3  -6  133.62    6.62
   0  -3  -6  143.05    6.92
   0   3   6  143.07    7.59
  -1  -3  -6  108.02    5.75
  -1  -3  -6  104.64    5.44
  -1  -3  -6  103.11    5.35
  -1  -3  -6  120.38    7.11
   1   3   6  104.60    6.73
   1   3   6  110.56    5.81
  -2  -3  -6   36.05    2.72
  -2  -3  -6   41.37    2.63
   2   3   6   39.83    3.38
  -2  -3  -6   36.68    2.57
   2   3   6   38.51    2.34
  -2  -3  -6   41.80    2.46
   3   3   6    3.88    1.29
  -3  -3  -6    3.28    0.90
   3   3   6    5.68    1.71
  -3  -3  -6    5.57    1.29
  -3  -3  -6    5.34    1.22
   4   3   6   43.81    3.23
  -4  -3  -6   38.99    3.03
  -4  -3  -6   39.76    2.73
   4   3   6   39.99    4.42
   5   3   6    5.09    2.30
   5   3   6    4.31    1.75
  -5  -3  -6    4.64    1.56
   6   3   6   -0.42    1.84
   3  -4  -6    0.95    1.51
   3  -4  -6    2.61    1.62
  -3   4   6    1.49    1.46
  -2   4   6   -0.94    1.20
   2  -4  -6   -0.50    1.03
   2  -4  -6    0.42    1.11
   1  -4  -6   13.19    1.97
   1  -4  -6   11.06    1.81
  -1   4   6   11.41    2.08
   0  -4  -6   15.34    1.95
   0  -4  -6   15.32    1.91
   0   4   6   16.43    2.04
  -1  -4  -6    1.75    1.09
   1   4   6    1.60    0.82
  -1  -4  -6    0.94    1.17
  -1  -4  -6    0.35    0.92
   1   4   6    2.08    0.90
  -2  -4  -6   81.44    4.54
  -2  -4  -6   71.45    4.68
  -2  -4  -6   81.22    4.38
   3   4   6  101.43    5.67
  -3  -4  -6   84.18    5.25
  -3  -4  -6   90.02    4.78
   3   4   6   96.24    6.97
  -3  -4  -6   91.62    5.13
   4   4   6   21.26    2.76
   4   4   6   19.04    3.12
  -4  -4  -6   14.90    2.12
   5   4   6    0.22    1.56
   5   4   6    2.90    1.68
  -2   5   6   11.78    2.61
   2  -5  -6   11.80    2.40
   2  -5  -6    9.51    2.16
   1  -5  -6   17.25    2.34
   1  -5  -6   12.69    2.27
  -1   5   6   15.74    2.54
   0   5   6    3.64    1.49
   0  -5  -6    0.67    1.23
   0  -5  -6    3.02    1.42
  -1  -5  -6  120.62    6.60
  -1  -5  -6  129.57    7.24
  -1  -5  -6  123.76    6.58
  -2  -5  -6   10.88    1.88
  -2  -5  -6    5.48    1.83
  -2  -5  -6    8.62    1.55
  -3  -5  -6    4.02    1.48
   3   5   6    4.14    1.74
  -4  -5  -6    0.82    1.13
   4   5   6    1.15    1.60
   4   5   6    1.42    1.64
   5   5   6    3.12    1.82
   5   5   6   -0.43    1.69
   1  -6  -6    1.23    1.48
  -1   6   6    0.96    1.51
   1  -6  -6    0.89    1.51
   0  -6  -6    6.24    1.86
   0  -6  -6    7.58    1.93
  -1  -6  -6   -0.78    1.13
  -1  -6  -6    1.27    1.41
  -2  -6  -6    5.08    1.70
  -2  -6  -6    2.92    1.31
  -3  -6  -6    4.09    1.52
   4   6   6   17.04    3.01
   3   5  -7    5.32    2.39
  -3  -5   7    3.30    1.95
   3   5  -7    4.87    1.93
   2   5  -7    0.45    1.60
   2   5  -7    0.15    1.42
  -2  -5   7   -1.59    1.37
  -1  -5   7    2.41    1.70
   1   5  -7    2.38    1.84
   1   5  -7    2.32    1.51
   0  -5   7    5.30    6.61
   0  -5   7    9.50    2.42
   1  -5   7   -3.08    4.56
   1  -5   7    0.78    1.65
   2  -5   7    3.76    2.21
   2  -5   7    2.06    4.98
   4   4  -7    7.65    2.30
   4   4  -7    9.36    2.81
  -4  -4   7    9.17    2.28
  -3  -4   7    1.97    1.49
   3   4  -7    3.12    1.88
   3   4  -7    2.93    1.77
  -3  -4   7    1.79    1.64
  -2  -4   7   36.46    3.53
   2   4  -7   33.21    4.09
   2   4  -7   30.57    3.08
  -2  -4   7   32.09    2.66
  -1  -4   7   10.98    2.19
   1   4  -7   16.61    2.98
   1   4  -7   16.15    2.25
   0   4  -7  157.95   11.16
   0   4  -7  158.29    7.69
   0  -4   7  154.03    9.33
   0  -4   7  148.03   16.13
   1  -4   7    5.19    1.94
   1  -4   7    2.44    4.56
   2  -4   7   29.07    3.56
   2  -4   7   20.83    6.53
   3  -4   7   10.40    5.21
   3  -4   7   39.07    4.26
   5   3  -7    0.13    1.57
   4   3  -7    0.38    1.52
  -4  -3   7   -0.91    1.39
   4   3  -7   -0.03    1.16
  -3  -3   7    4.81    1.61
  -3  -3   7    8.44    1.93
   3   3  -7    6.98    2.17
   3   3  -7    4.34    1.61
   2   3  -7    5.16    1.86
  -2  -3   7    4.34    1.61
  -2  -3   7    1.50    1.07
   2   3  -7    5.30    1.56
   1   3  -7   56.98    3.34
   1   3  -7   56.09    3.53
  -1  -3   7   52.35    4.23
  -1  -3   7   52.25    3.08
   1   3  -7   49.35    3.26
   1   3  -7   53.14    4.84
   0  -3   7   45.70    8.83
   0  -3   7   56.59    2.85
   0   3  -7   55.86    3.58
   0   3  -7   57.45    3.41
   0  -3   7   54.64    4.35
   0   3  -7   54.08    5.00
   1  -3   7   56.16    4.38
  -1   3  -7   52.35    2.93
   1  -3   7   34.70    7.08
   2  -3   7   -0.23    2.66
   2  -3   7    1.92    1.47
   3  -3   7   -0.54    2.90
   3  -3   7    6.43    2.05
   4  -3   7    1.34    3.22
   4  -3   7    7.83    2.49
   5   2  -7    1.04    1.55
   5   2  -7    1.45    1.89
  -5  -2   7    0.39    1.65
  -4  -2   7    0.91    1.55
   4   2  -7   -0.66    1.36
   4   2  -7    1.67    1.45
   3   2  -7    0.43    1.25
   3   2  -7   -0.02    1.00
  -3  -2   7   -0.32    1.09
   3   2  -7    0.29    0.74
  -3  -2   7   -1.17    1.04
   2   2  -7    5.16    1.37
   2   2  -7    4.29    1.00
  -2  -2   7    3.88    1.14
   2   2  -7    4.86    1.64
  -2  -2   7    3.86    1.42
   1   2  -7    3.68    1.03
   1   2  -7    1.52    1.22
   1   2  -7    4.69    1.15
  -1  -2   7    2.96    1.38
   1   2  -7    4.06    0.91
  -1  -2   7    2.32    0.86
   0   2  -7  294.65   12.05
   0   2  -7  281.49   12.78
   0  -2   7  281.86   14.75
   0  -2   7  297.41   11.98
   0   2  -7  304.71   12.40
   0   2  -7  285.17   17.89
   1  -2   7   21.68    2.57
  -1   2  -7   22.36    1.56
  -1   2  -7   18.21    1.94
   3  -2   7   -2.20    2.13
   3  -2   7    0.46    1.14
   4  -2   7   -2.53    2.17
   4  -2   7    7.63    2.22
   5  -2   7   -2.11    2.50
   5  -2   7    6.89    2.46
   5   1  -7    3.26    1.70
   5   1  -7    1.13    1.78
  -5  -1   7    2.76    1.94
   4   1  -7    6.93    1.94
   4   1  -7    8.42    2.17
  -4  -1   7    8.41    2.19
   3   1  -7   44.30    4.06
  -3  -1   7   43.48    3.29
   3   1  -7   45.37    3.28
  -3  -1   7   43.70    3.79
   3   1  -7   45.71    2.94
  -2  -1   7    0.56    1.12
   2   1  -7    0.66    0.98
   2   1  -7    0.15    0.83
  -2  -1   7    0.35    0.81
   2   1  -7   -0.38    0.70
   1   1  -7  194.32    8.39
   1   1  -7  197.44   11.97
   1   1  -7  191.81    8.56
   1   1  -7  191.24    8.66
  -1  -1   7  186.34    8.35
  -1  -1   7  181.13   10.04
   0  -1   7  313.34   15.72
   0   1  -7  309.94   13.69
   0   1  -7  325.53   12.99
   0   1  -7  316.62   13.21
  -1   1  -7    4.84    1.08
  -1   1  -7    4.03    0.68
   1  -1   7   -0.26    1.45
   1  -1   7    3.44    1.21
   2  -1   7  327.36   16.80
  -2   1  -7  344.87   14.82
  -3   1  -7   16.97    2.05
   3  -1   7   13.81    2.18
   5  -1   7   -0.21    1.50
   5  -1   7   -1.47    2.06
  -5   0   7    0.64    1.55
   5   0  -7   -1.37    1.16
   4   0  -7   24.81    2.76
  -4   0   7   29.52    3.41
   4   0  -7   30.34    2.66
   4   0  -7   31.59    3.48
   3   0  -7   93.49    5.06
  -3   0   7   98.40    6.30
   3   0  -7   95.16    6.62
   3   0  -7   87.29    5.23
  -3   0   7   89.72    5.26
   2   0  -7    1.18    0.93
  -2   0   7    0.29    1.08
   2   0  -7    1.43    0.91
  -2   0   7    2.47    1.09
   2   0  -7    1.02    0.93
   1   0  -7   10.20    1.53
  -1   0   7    9.17    1.59
   1   0  -7    9.38    1.29
   1   0  -7   10.65    1.49
   1   0  -7    8.24    1.24
   0   0   7  535.36   25.79
   0   0  -7  562.23   22.85
   0   0  -7  545.39   22.15
   0   0  -7  537.55   22.13
   1   0   7   94.65    5.37
  -1   0  -7   91.01    4.23
  -1   0  -7   87.00    4.64
  -1   0  -7   88.94    3.96
   2   0   7   -0.96    1.34
  -2   0  -7    0.61    0.34
  -2   0  -7    0.25    0.41
  -2   0  -7    0.41    0.74
   2   0   7   -0.07    0.76
  -3   0  -7   24.20    2.16
   3   0   7   21.88    2.40
  -3   0  -7   20.09    1.39
   5   0   7   10.59    2.21
   5   0   7    0.00    2.39
   5  -1  -7    0.63    1.51
  -5   1   7   -0.21    1.72
   4  -1  -7   -0.84    1.12
   4  -1  -7   -0.38    1.25
  -4   1   7    1.06    1.64
   3  -1  -7  126.24    7.08
  -3   1   7  137.76    8.46
   3  -1  -7  137.87    7.16
   3  -1  -7  150.51    8.95
   2  -1  -7   22.29    2.24
   2  -1  -7   21.61    2.09
   2  -1  -7   23.03    2.24
  -2   1   7   22.70    2.57
   1  -1  -7   47.65    2.91
  -1   1   7   40.90    3.25
   1  -1  -7   43.33    2.91
  -1   1   7   43.70    3.09
   1  -1  -7   36.69    2.73
   0   1   7  110.73    7.14
   0  -1  -7  114.67    5.23
   0  -1  -7  102.54    5.24
   0  -1  -7  108.61    5.48
   0   1   7  107.36    6.13
  -1  -1  -7   22.82    1.73
  -1  -1  -7   21.56    1.90
   1   1   7   25.59    2.14
  -2  -1  -7   16.32    1.33
  -2  -1  -7   16.31    1.32
   2   1   7   12.08    1.57
  -2  -1  -7   15.49    1.60
  -3  -1  -7  233.92   10.48
  -3  -1  -7  233.00    9.65
  -3  -1  -7  227.64    9.84
   3   1   7  224.08   11.55
   4   1   7   -0.67    0.84
   4   1   7   -1.39    1.82
  -4  -1  -7   -0.65    0.79
  -4  -1  -7    0.58    1.04
   5   1   7   -1.67    1.77
   6   1   7    9.99    3.31
   4  -2  -7   -0.39    1.31
  -4   2   7   -0.48    1.48
   4  -2  -7    0.78    1.43
   3  -2  -7    1.92    1.42
  -3   2   7    1.06    1.42
   3  -2  -7    1.92    1.47
  -2   2   7   23.08    2.76
   2  -2  -7   21.14    2.45
   2  -2  -7   24.27    2.38
   1  -2  -7   45.88    3.11
  -1   2   7   47.06    3.60
   1  -2  -7   47.90    3.26
   0  -2  -7   30.07    2.37
   0  -2  -7   27.74    2.24
   0   2   7   28.20    2.46
   0   2   7   29.74    2.01
   0   2   7   29.24    2.06
   1   2   7  434.07   27.82
  -1  -2  -7  503.81   20.58
   1   2   7  510.50   22.91
  -1  -2  -7  498.87   20.00
  -2  -2  -7    6.14    1.15
   2   2   7    7.06    1.15
  -2  -2  -7    7.67    1.15
  -2  -2  -7    7.44    1.22
  -3  -2  -7   27.48    2.32
   3   2   7   31.65    2.33
  -3  -2  -7   31.61    2.34
  -3  -2  -7   29.94    2.17
  -4  -2  -7  257.25   11.78
  -4  -2  -7  281.10   12.05
  -4  -2  -7  264.52   11.53
   5   2   7    5.71    2.51
   6   2   7    6.86    2.87
   4  -3  -7    0.12    1.63
  -4   3   7    1.47    1.75
   4  -3  -7    0.81    1.43
  -3   3   7    1.97    1.54
   3  -3  -7    2.38    1.57
   3  -3  -7    0.52    1.34
   2  -3  -7    9.99    1.97
  -2   3   7   11.13    2.23
   2  -3  -7    8.52    1.92
  -1   3   7   30.18    2.97
   1  -3  -7   34.31    2.68
   1  -3  -7   31.02    2.80
   0  -3  -7   47.99    3.26
   0  -3  -7   46.87    3.04
   0   3   7   42.11    3.34
  -1  -3  -7    3.35    1.10
   1   3   7    2.69    0.95
  -1  -3  -7    4.05    1.14
   1   3   7    3.18    0.89
  -2  -3  -7   17.75    1.87
   2   3   7   16.16    2.17
  -2  -3  -7   19.22    1.87
  -2  -3  -7   18.76    1.93
   2   3   7   19.29    1.64
  -3  -3  -7    1.37    0.97
   3   3   7   -0.34    1.22
  -3  -3  -7    0.66    0.85
  -3  -3  -7    0.42    0.91
  -4  -3  -7    2.38    1.09
  -4  -3  -7    2.39    1.11
  -4  -3  -7    1.39    1.23
   4   3   7    0.83    1.52
  -5  -3  -7    2.81    1.35
   5   3   7    3.93    2.21
  -5  -3  -7    3.68    1.23
   3  -4  -7    1.05    1.64
   3  -4  -7    0.38    1.41
  -3   4   7    1.81    1.64
   2  -4  -7    9.66    2.04
  -2   4   7   12.76    2.50
   2  -4  -7    9.80    2.07
  -1   4   7   32.98    3.20
   1  -4  -7   28.54    2.66
   1  -4  -7   30.59    2.98
   0  -4  -7   98.24    5.58
   0  -4  -7   95.55    5.35
   0   4   7  100.65    6.04
   1   4   7   90.86    5.23
  -1  -4  -7   87.98    4.96
  -1  -4  -7   89.37    5.03
  -1  -4  -7   87.74    5.40
  -2  -4  -7   97.61    5.95
  -2  -4  -7  106.14    5.56
  -2  -4  -7  100.10    5.61
   2   4   7  113.53    7.25
  -3  -4  -7   17.37    2.13
  -3  -4  -7   12.89    1.97
   3   4   7   14.59    2.49
  -3  -4  -7   13.36    1.71
  -4  -4  -7   10.30    1.87
   4   4   7    7.95    2.25
  -4  -4  -7    9.15    1.79
  -5  -4  -7    1.61    1.21
   5   4   7    3.01    1.69
   5   4   7    0.43    1.73
   2  -5  -7   -0.83    1.50
   2  -5  -7   -0.11    1.43
  -2   5   7    0.10    1.55
   1  -5  -7   11.05    2.12
   1  -5  -7    9.54    2.17
  -1   5   7   10.14    2.23
   0  -5  -7   39.10    3.19
   0   5   7   39.79    3.57
   0  -5  -7   38.32    3.27
  -1  -5  -7    9.88    1.80
  -1  -5  -7    6.77    1.74
  -1  -5  -7    8.17    2.03
  -2  -5  -7    9.01    1.63
  -2  -5  -7   11.06    2.05
  -2  -5  -7    9.68    2.17
  -3  -5  -7   74.14    4.74
   3   5   7   78.22    6.15
  -4  -5  -7    0.07    1.11
   4   5   7    0.52    1.50
   5   5   7    0.46    1.76
  -5  -5  -7    2.36    1.38
   1  -6  -7    0.06    1.38
  -1   6   7    0.21    1.53
   1  -6  -7    0.31    1.61
   0  -6  -7    0.84    1.37
   0  -6  -7    0.63    1.54
  -1  -6  -7   25.39    2.95
  -1  -6  -7   19.90    2.55
  -2  -6  -7    2.59    1.47
  -2  -6  -7    2.32    1.37
  -3  -6  -7    1.37    1.34
  -4  -6  -7    1.50    1.37
   3   5  -8   -1.06    1.47
  -2  -5   8   -0.16    1.58
   2   5  -8    0.46    1.53
   2   5  -8    0.94    1.73
   1   5  -8    2.04    1.50
   1   5  -8    1.05    1.67
  -1  -5   8   -0.36    1.44
   0  -5   8    0.51    1.60
   0  -5   8    5.48    7.06
   1  -5   8   12.32    3.04
   1  -5   8   17.25    8.42
   4   4  -8    5.86    2.11
  -4  -4   8    3.25    1.97
   3   4  -8    5.77    1.85
   3   4  -8   10.19    2.78
  -3  -4   8    7.33    1.88
  -3  -4   8    9.27    2.32
  -2  -4   8    1.45    1.49
   2   4  -8    1.33    1.63
   2   4  -8    2.14    1.48
   1   4  -8   18.96    3.32
   1   4  -8   13.42    2.20
  -1  -4   8   13.26    2.53
   0  -4   8   12.78    6.66
   0  -4   8    7.08    2.13
   0   4  -8    8.82    1.72
   1  -4   8    2.61    5.88
   1  -4   8   14.54    2.85
   2  -4   8    5.09    5.22
   2  -4   8   13.98    2.93
   3  -4   8    2.77    2.00
   3  -4   8    1.25    4.35
   4   3  -8    4.07    1.73
  -4  -3   8    2.40    1.94
   4   3  -8    2.61    2.02
  -3  -3   8   19.56    2.76
   3   3  -8   19.29    3.22
   3   3  -8   20.01    2.79
  -3  -3   8   17.30    2.27
   2   3  -8    2.38    1.65
  -2  -3   8    1.39    1.47
   2   3  -8    2.22    1.05
   2   3  -8    1.04    1.26
  -2  -3   8    1.53    1.10
  -1  -3   8    0.83    1.44
  -1  -3   8    0.12    0.88
   1   3  -8   -0.62    0.87
   1   3  -8   -0.02    1.22
   1   3  -8   -0.86    0.89
   0   3  -8  179.40    8.96
   0  -3   8  187.04   10.60
   0  -3   8  204.20   17.72
   0   3  -8  191.81   12.71
   0   3  -8  183.08    8.65
   1  -3   8    0.49    3.92
   1  -3   8    3.70    1.77
   2  -3   8   11.63    5.07
   2  -3   8   16.86    2.85
   3  -3   8   12.21    4.78
   3  -3   8   21.98    3.29
   4  -3   8    0.21    3.42
   4  -3   8    4.44    2.21
   4   2  -8    0.23    1.22
   4   2  -8    1.81    1.62
  -4  -2   8   -0.87    1.45
   3   2  -8   22.92    2.69
  -3  -2   8   18.53    2.68
  -3  -2   8   22.25    2.45
   3   2  -8   19.23    2.92
   2   2  -8   24.27    3.08
  -2  -2   8   26.61    3.00
   2   2  -8   27.14    2.15
  -2  -2   8   23.98    2.23
   2   2  -8   23.38    2.41
   1   2  -8   60.32    3.53
  -1  -2   8   57.72    3.19
  -1  -2   8   46.50    4.13
   1   2  -8   61.58    5.00
   1   2  -8   57.74    3.27
   1   2  -8   51.77    3.41
   0   2  -8    1.69    0.65
   0  -2   8   -0.30    1.12
   0  -2   8   -2.06    2.81
   0  -2   8   -0.83    0.64
   0   2  -8    1.08    0.86
   0   2  -8    1.03    0.88
   1  -2   8    3.48    1.44
   1  -2   8   -1.40    2.28
  -1   2  -8    1.61    1.14
  -1   2  -8    1.97    0.77
   2  -2   8   51.98    4.39
  -2   2  -8   58.14    3.85
   3  -2   8   12.35    2.40
   3  -2   8    1.93    3.15
   4  -2   8    1.40    1.60
   4  -2   8   -0.41    2.59
   5   1  -8    1.36    1.64
  -5  -1   8    2.63    2.07
   4   1  -8   -0.23    1.23
   4   1  -8    0.41    1.44
  -4  -1   8   -0.08    1.45
   3   1  -8    0.64    1.25
   3   1  -8    2.03    1.26
   3   1  -8    2.37    1.05
  -3  -1   8    0.60    1.29
  -3  -1   8   -0.42    1.40
   2   1  -8   33.05    2.46
   2   1  -8   30.14    3.17
  -2  -1   8   29.81    2.42
  -2  -1   8   31.15    3.16
   2   1  -8   29.99    2.60
   1   1  -8   -0.11    0.75
   1   1  -8    0.08    0.93
   1   1  -8    0.51    0.70
  -1  -1   8   -0.32    1.01
   1   1  -8   -0.54    0.76
  -1  -1   8    0.17    0.77
   0  -1   8   57.09    6.64
   0   1  -8   76.92    4.18
   0   1  -8   77.35    3.92
   0   1  -8   74.21    3.51
   0  -1   8   78.70    5.04
   1  -1   8    8.80    1.72
  -1   1  -8    9.16    1.06
  -1   1  -8   10.10    1.53
   1  -1   8    4.72    2.59
   2  -1   8   20.68    2.49
  -2   1  -8   21.43    2.15
   3  -1   8  134.66    8.33
  -3   1  -8  146.61    7.45
   4  -1   8   -0.99    2.30
   4  -1   8    6.55    1.99
   5  -1   8   -1.25    1.19
   5  -1   8    0.20    2.66
   5   0  -8    0.46    1.50
   4   0  -8    0.73    1.16
   4   0  -8    1.42    1.46
  -4   0   8    2.49    1.76
  -3   0   8   18.63    2.77
   3   0  -8   20.06    2.21
   3   0  -8   18.57    2.51
  -3   0   8   24.14    2.47
   3   0  -8   23.05    2.62
   2   0  -8    1.54    1.06
   2   0  -8    0.90    0.98
   2   0  -8    0.41    0.92
  -2   0   8   -0.27    1.13
   1   0  -8    9.00    1.42
  -1   0   8    7.83    1.59
   1   0  -8    8.85    1.32
   1   0  -8    8.81    1.49
   1   0  -8   10.11    1.61
   0   0   8   -0.68    1.53
   0   0   8    1.28    0.94
   0   0  -8    0.65    0.78
   0   0  -8    0.37    0.75
   0   0  -8    0.87    0.67
  -1   0  -8   58.35    3.15
   1   0   8   61.53    4.19
  -1   0  -8   60.28    3.57
  -1   0  -8   59.22    2.85
  -2   0  -8   24.73    2.18
   2   0   8   22.88    2.36
  -2   0  -8   22.42    1.55
   3   0   8   79.78    5.19
  -3   0  -8   74.19    4.51
   4   0   8   14.32    2.23
   4   0   8    0.71    2.56
   5   0   8   19.19    2.83
   4  -1  -8    0.19    1.52
   4  -1  -8   -0.98    1.19
  -4   1   8   -0.30    1.46
   3  -1  -8   26.38    2.82
   3  -1  -8   30.05    2.85
  -3   1   8   26.17    3.25
   2  -1  -8    5.54    1.54
   2  -1  -8    5.51    1.38
   2  -1  -8    7.25    1.28
  -2   1   8    7.62    1.82
   1  -1  -8   47.10    3.18
  -1   1   8   51.86    3.77
   1  -1  -8   48.38    3.27
   0  -1  -8   17.24    1.84
   0  -1  -8   19.24    1.86
   0   1   8   14.53    2.20
   0  -1  -8   19.34    1.74
   0   1   8   17.74    2.07
  -1  -1  -8  144.77    6.69
  -1  -1  -8  144.48    7.09
   1   1   8  149.19    7.93
  -2  -1  -8   25.69    1.78
   2   1   8   23.97    2.34
  -2  -1  -8   25.58    2.17
  -2  -1  -8   25.25    1.80
  -3  -1  -8  253.83   10.79
  -3  -1  -8  265.65   10.99
  -3  -1  -8  260.47   11.78
   3   1   8  253.54   12.99
  -4  -1  -8    4.26    1.46
   4   1   8    1.68    1.20
   4   1   8   -0.78    1.87
   5   1   8    4.53    2.80
  -4   2   8    1.50    1.90
   4  -2  -8   -0.57    1.37
   4  -2  -8    0.30    1.61
   3  -2  -8    7.07    1.81
  -3   2   8    3.75    1.70
   3  -2  -8    4.44    1.78
  -2   2   8   24.42    2.93
   2  -2  -8   26.41    2.64
   2  -2  -8   28.08    2.72
  -1   2   8    1.85    1.25
   1  -2  -8    1.23    1.00
   1  -2  -8    2.00    1.07
   0  -2  -8   47.51    3.26
   0  -2  -8   46.39    3.11
   0   2   8   48.67    3.29
   0   2   8   47.52    3.57
  -1  -2  -8    3.22    1.03
   1   2   8    1.74    1.18
  -1  -2  -8    2.89    1.06
   1   2   8    3.82    1.10
  -2  -2  -8   59.85    3.59
   2   2   8   65.76    3.97
  -2  -2  -8   61.25    3.46
  -2  -2  -8   61.34    3.76
  -3  -2  -8    6.29    1.23
  -3  -2  -8    4.87    1.23
   3   2   8    3.77    1.20
   3   2   8    4.01    2.00
  -3  -2  -8    5.49    1.33
  -4  -2  -8   12.72    1.64
  -4  -2  -8   12.90    1.82
  -4  -2  -8   13.12    1.60
   5   2   8    3.12    2.40
  -3   3   8    5.30    2.09
   3  -3  -8    4.17    1.80
   3  -3  -8    5.17    1.89
  -2   3   8   -0.05    1.11
   2  -3  -8    1.30    1.35
   2  -3  -8   -0.04    1.14
   1  -3  -8   27.27    2.65
  -1   3   8   29.83    3.00
   1  -3  -8   25.35    2.51
   0  -3  -8   14.37    1.90
   0  -3  -8   16.55    2.03
   0   3   8   18.42    2.14
  -1  -3  -8    5.02    1.25
   1   3   8    4.69    1.21
  -1  -3  -8    4.49    1.21
   1   3   8    5.51    1.08
  -2  -3  -8    6.54    1.36
  -2  -3  -8    8.71    1.53
   2   3   8    6.23    1.16
  -2  -3  -8    7.55    1.47
  -3  -3  -8   40.03    3.11
  -3  -3  -8   43.96    3.10
   3   3   8   47.10    4.37
  -3  -3  -8   45.58    3.07
  -4  -3  -8   13.38    1.90
   4   3   8   17.24    3.13
  -4  -3  -8   14.58    1.85
  -4  -3  -8   13.68    1.92
   5   3   8    1.00    1.68
  -3   4   8    3.31    1.88
   3  -4  -8    0.59    1.73
   3  -4  -8    1.08    1.52
  -2   4   8   12.10    2.60
   2  -4  -8   12.12    2.30
   2  -4  -8    8.34    2.16
   1  -4  -8   -0.62    1.13
  -1   4   8    1.08    1.27
   1  -4  -8   -1.42    1.10
   0   4   8   34.80    3.14
   0  -4  -8   34.95    3.06
   0  -4  -8   28.55    2.73
   1   4   8   50.47    3.63
  -1  -4  -8   49.37    3.95
  -1  -4  -8   48.83    3.45
  -1  -4  -8   54.09    3.65
  -2  -4  -8  141.75    6.78
  -2  -4  -8  121.06    6.97
  -2  -4  -8  122.17    6.60
  -3  -4  -8   21.23    2.52
  -3  -4  -8   20.17    2.16
  -3  -4  -8   21.77    2.48
   3   4   8   22.63    2.94
   4   4   8    2.78    1.82
  -4  -4  -8    6.93    1.67
  -4  -4  -8    3.72    1.45
   5   4   8    6.39    2.57
  -5  -4  -8    8.00    1.77
   2  -5  -8   -0.87    1.38
  -2   5   8    0.69    1.49
   2  -5  -8   -1.21    1.42
  -1   5   8    4.15    1.81
   1  -5  -8    4.18    1.85
   1  -5  -8    3.19    1.56
   0   5   8   43.55    3.79
   0  -5  -8   42.25    3.58
   0  -5  -8   44.56    3.57
  -1  -5  -8   20.35    2.55
  -1  -5  -8   23.43    2.57
  -2  -5  -8    8.93    1.99
  -2  -5  -8    5.46    1.53
  -3  -5  -8   -0.09    1.07
  -3  -5  -8   -0.16    1.20
  -4  -5  -8    0.76    1.27
   0  -6  -8    2.09    1.56
   0  -6  -8   -0.12    1.45
  -1  -6  -8    1.03    1.41
  -1  -6  -8   -0.04    1.21
  -2  -6  -8    4.89    1.71
  -2  -6  -8    2.08    1.54
  -3  -6  -8   13.03    2.45
  -1  -5   9    8.95    6.35
  -1  -5   9   11.37    2.76
   1   5  -9    8.91    2.84
   0  -5   9    0.90    6.89
   0  -5   9    1.73    1.98
   3   4  -9    2.96    1.95
   3   4  -9    2.06    1.64
  -3  -4   9    0.30    1.64
   2   4  -9    0.44    1.36
  -2  -4   9    2.27    1.83
   2   4  -9    1.13    1.66
  -1  -4   9   37.68    3.98
   1   4  -9   37.09    3.28
   1   4  -9   41.44    4.70
   0  -4   9   21.87    8.59
   0  -4   9   10.83    2.61
   1  -4   9    1.27    1.71
   1  -4   9    3.13    5.74
   2  -4   9   31.30    8.67
   2  -4   9   42.45    4.61
  -4  -3   9    4.98    2.25
   4   3  -9    8.17    2.67
   4   3  -9    6.65    2.20
  -3  -3   9    1.72    1.51
   3   3  -9    3.70    2.03
   3   3  -9    2.79    1.58
  -3  -3   9    1.85    1.80
  -2  -3   9    1.61    1.64
   2   3  -9   -1.00    1.01
   2   3  -9    1.13    1.10
   2   3  -9    1.98    1.75
   1   3  -9   93.68    7.34
  -1  -3   9   88.30    6.31
   1   3  -9   88.88    5.12
   1   3  -9   92.01    5.28
   0   3  -9   91.28    5.51
   0  -3   9  109.91    6.89
   0  -3   9   69.69   10.82
   0   3  -9  111.00    5.45
   1  -3   9   -0.25    3.83
   1  -3   9    4.31    1.92
  -1   3  -9    3.63    1.51
   2  -3   9    1.92    1.70
   2  -3   9    2.43    4.31
   3  -3   9   11.96    2.91
   3  -3   9    6.41    4.72
   4   2  -9    1.56    1.76
   4   2  -9    0.97    1.37
  -4  -2   9   -0.40    1.59
   3   2  -9    6.79    2.13
   3   2  -9    6.94    1.93
  -3  -2   9    6.37    2.06
  -3  -2   9    3.02    1.48
   2   2  -9    6.18    1.36
  -2  -2   9    5.63    1.90
   2   2  -9   10.22    2.26
  -2  -2   9    7.37    1.48
   2   2  -9    5.78    1.57
   1   2  -9   24.81    2.38
   1   2  -9   28.92    3.28
  -1  -2   9   26.55    2.08
   1   2  -9   26.19    2.41
  -1  -2   9   28.41    3.24
   0  -2   9   49.32    7.52
   0  -2   9   57.35    4.52
   0   2  -9   55.59    3.39
   0   2  -9   57.81    3.77
   1  -2   9   -1.15    2.39
  -1   2  -9   -0.47    0.68
  -1   2  -9    1.12    1.09
   1  -2   9   -0.36    0.99
   2  -2   9    3.83    1.62
  -2   2  -9    1.81    1.27
   2  -2   9    0.50    3.14
   3  -2   9    4.45    3.78
   3  -2   9   13.43    2.61
   4  -2   9   -0.57    2.91
   4  -2   9   16.38    2.97
  -4  -1   9    0.76    1.56
   4   1  -9    3.46    1.60
   4   1  -9    3.46    1.83
  -3  -1   9    4.56    1.88
  -3  -1   9    4.23    1.59
   3   1  -9    4.39    1.34
   3   1  -9    7.08    1.94
   3   1  -9    4.60    1.57
  -2  -1   9   -0.51    1.20
   2   1  -9    1.81    1.35
  -2  -1   9    1.63    1.16
   2   1  -9    2.90    1.17
   2   1  -9    1.34    1.20
   1   1  -9  146.92    6.77
  -1  -1   9  139.12    8.40
   1   1  -9  150.79    9.73
   1   1  -9  144.24    7.07
   1   1  -9  143.29    7.16
   0   1  -9   11.39    1.55
   0   1  -9   14.76    1.29
   0   1  -9   14.07    1.77
   0  -1   9    8.72    3.39
   0  -1   9   15.81    2.25
   1  -1   9  327.50   16.92
  -1   1  -9  338.92   14.88
  -1   1  -9  334.99   13.86
  -2   1  -9    0.57    1.06
   2  -1   9    1.10    1.17
   2  -1   9   -2.58    2.30
   3  -1   9   31.41    3.45
  -3   1  -9   37.79    3.22
   4  -1   9   -0.39    2.30
   4  -1   9    8.05    2.21
   5  -1   9    1.64    3.04
   5  -1   9    1.52    1.68
   4   0  -9    4.85    1.57
  -4   0   9    4.88    2.08
   4   0  -9    6.70    2.11
  -3   0   9   -0.46    1.42
   3   0  -9    2.02    1.22
   3   0  -9    0.68    1.17
   3   0  -9    0.79    1.24
   2   0  -9   15.78    2.11
   2   0  -9    8.98    1.58
   2   0  -9   17.18    2.23
  -2   0   9   11.13    2.14
   1   0  -9   14.67    2.01
   1   0  -9   14.92    1.94
  -1   0   9   10.35    2.69
  -1   0   9   12.48    2.04
   1   0  -9   14.72    1.83
   1   0  -9   14.35    1.69
   0   0   9    2.78    1.89
   0   0  -9    7.74    1.35
   0   0   9    6.56    1.63
   0   0  -9    5.43    1.25
   0   0  -9    5.88    1.04
   1   0   9   87.83    5.64
  -1   0  -9   87.99    4.45
  -1   0  -9   87.74    4.07
  -1   0  -9   92.79    4.99
   2   0   9    0.67    0.99
  -2   0  -9    0.69    0.94
  -2   0  -9   -1.62    0.58
   2   0   9    0.46    1.81
  -3   0  -9  107.58    5.84
   3   0   9  100.02    6.49
   4   0   9    3.69    1.65
  -4   0  -9    2.12    1.46
   4   0   9    0.08    2.22
   5   0   9    2.33    1.58
   5   0   9   -2.14    2.06
   4  -1  -9   11.46    2.10
   4  -1  -9   10.73    2.40
  -4   1   9   11.80    2.76
  -3   1   9   14.03    2.66
   3  -1  -9   15.21    2.11
   3  -1  -9   17.52    2.55
   2  -1  -9    3.79    1.38
   2  -1  -9    2.56    1.30
  -2   1   9    3.72    1.67
   1  -1  -9   12.01    1.83
  -1   1   9   10.23    1.95
   1  -1  -9   10.53    1.71
  -1   1   9    9.04    1.85
   0  -1  -9   -0.85    0.74
   0  -1  -9    0.49    0.77
   0  -1  -9   -0.54    0.75
   0   1   9    0.57    1.36
   0   1   9   -0.14    0.94
  -1  -1  -9   19.99    1.80
  -1  -1  -9   19.02    1.63
  -1  -1  -9   18.12    2.02
   1   1   9   17.13    2.09
   2   1   9   87.75    5.36
  -2  -1  -9   87.08    4.30
  -2  -1  -9   82.58    4.76
  -2  -1  -9   82.00    4.19
   3   1   9   13.37    1.91
  -3  -1  -9   14.42    1.45
  -3  -1  -9   13.93    1.88
   4   1   9    0.85    1.13
   4   1   9   -0.51    1.90
  -4  -1  -9    1.16    1.17
   5   1   9    4.50    2.82
   4  -2  -9   -0.53    1.67
  -4   2   9    0.09    1.81
   4  -2  -9   -0.15    1.55
  -3   2   9    7.12    2.17
   3  -2  -9    6.09    1.86
   3  -2  -9    4.24    1.86
   2  -2  -9    2.55    1.40
  -2   2   9    2.93    1.58
   2  -2  -9    2.74    1.42
  -1   2   9   24.86    2.88
   1  -2  -9   25.20    2.44
   1  -2  -9   25.90    2.48
   0   2   9  115.95    6.84
   0  -2  -9  111.42    5.92
   0  -2  -9  120.48    6.21
   1   2   9   17.08    2.09
  -1  -2  -9   16.23    1.84
  -1  -2  -9   15.26    1.93
   2   2   9   70.85    4.65
  -2  -2  -9   75.00    4.20
  -2  -2  -9   75.74    4.06
  -2  -2  -9   71.81    4.31
   3   2   9  359.48   17.21
  -3  -2  -9  354.99   15.64
  -3  -2  -9  345.42   14.89
   4   2   9    1.02    1.83
  -4  -2  -9    0.77    1.10
  -5  -2  -9    8.64    1.79
   5   2   9    4.30    2.64
   3  -3  -9   -2.03    1.19
  -3   3   9    0.14    1.54
   3  -3  -9   -0.98    1.46
  -2   3   9    0.22    1.37
   2  -3  -9    0.74    1.44
   2  -3  -9   -0.67    1.24
   1  -3  -9    0.03    1.12
   1  -3  -9   -0.81    0.96
  -1   3   9    0.27    1.24
   0  -3  -9   19.34    2.28
   0   3   9   18.02    2.36
   0  -3  -9   16.08    2.11
  -1  -3  -9    2.00    1.20
  -1  -3  -9    3.02    1.25
   1   3   9    2.42    1.17
  -2  -3  -9    1.64    1.03
  -2  -3  -9    1.30    1.10
  -2  -3  -9   -1.02    0.88
   2   3   9   -0.01    1.12
   2   3   9   -0.84    0.82
   3   3   9   36.96    3.92
  -3  -3  -9   32.56    2.64
  -3  -3  -9   33.36    2.81
  -3  -3  -9   34.80    2.84
   4   3   9    0.52    1.68
  -4  -3  -9    0.92    1.04
  -4  -3  -9    0.16    1.00
   5   3   9    0.53    1.75
  -2   4   9    2.58    1.66
   2  -4  -9    1.09    1.48
   2  -4  -9    3.13    1.78
   1  -4  -9   20.51    2.75
   1  -4  -9   20.04    2.61
  -1   4   9   25.40    3.12
   0  -4  -9   22.27    2.35
   0  -4  -9   27.50    2.80
   0   4   9   17.78    2.50
   1   4   9   14.04    1.94
  -1  -4  -9   13.15    2.26
  -1  -4  -9    9.59    1.79
  -1  -4  -9   11.74    1.95
  -2  -4  -9   -0.81    1.01
  -2  -4  -9    0.18    1.16
  -2  -4  -9    0.35    1.04
  -3  -4  -9    0.99    1.09
   3   4   9    0.58    1.41
  -3  -4  -9    1.18    1.16
  -3  -4  -9    0.55    1.18
  -4  -4  -9    2.67    1.36
  -4  -4  -9    2.93    1.42
   4   4   9    3.25    1.93
  -1   5   9    1.76    1.52
   1  -5  -9   -0.18    1.56
   1  -5  -9    0.24    1.43
   0  -5  -9   21.98    2.79
   0  -5  -9   23.62    2.84
  -1  -5  -9    0.89    1.19
  -1  -5  -9   -0.54    1.25
  -2  -5  -9   53.58    3.91
  -2  -5  -9   53.44    3.98
  -3  -5  -9    2.05    1.32
  -3  -5  -9    0.98    1.27
  -4  -5  -9    3.72    1.62
  -1  -6  -9    3.20    1.60
  -1  -6  -9    3.22    1.59
  -2  -6  -9    0.94    1.42
  -2  -6  -9   -0.47    1.31
   2   4 -10    3.34    2.13
  -2  -4  10    2.24    1.97
   2   4 -10    2.51    1.71
  -1  -4  10    8.61    6.63
   1   4 -10    9.57    2.05
   1   4 -10    9.60    2.86
  -1  -4  10    7.91    2.43
   0  -4  10    0.93    1.77
   0  -4  10   -0.82    5.16
   1  -4  10    9.04    2.68
   1  -4  10    8.92    7.26
   2  -4  10    5.22    6.19
   3   3 -10    0.59    1.71
  -3  -3  10   -0.14    1.57
   3   3 -10    0.40    1.47
  -2  -3  10    1.83    1.76
   2   3 -10    1.24    1.58
   2   3 -10   -0.19    1.16
   1   3 -10   12.26    2.76
   1   3 -10    7.47    1.62
  -1  -3  10    8.12    2.31
   1   3 -10    9.34    1.96
   0   3 -10    3.16    1.43
   0  -3  10    2.73    4.68
   0   3 -10    3.26    1.24
   0  -3  10    5.49    2.11
   1  -3  10    1.33    1.52
  -1   3 -10    0.94    1.28
   1  -3  10   -0.65    3.45
   2  -3  10   16.33    3.00
   2  -3  10   11.28    5.82
   3  -3  10   27.62    3.84
   3  -3  10    1.44    4.57
   4   2 -10    1.08    1.44
  -3  -2  10    1.87    1.57
   3   2 -10    5.49    2.08
   3   2 -10    2.83    1.44
  -3  -2  10    2.09    1.84
   2   2 -10    1.25    1.22
   2   2 -10   -1.28    0.92
  -2  -2  10   -1.01    1.28
  -2  -2  10    0.46    1.13
   2   2 -10    0.16    1.37
  -1  -2  10   12.14    2.41
   1   2 -10   11.82    1.85
   1   2 -10   10.98    1.88
   1   2 -10   13.88    2.60
   0  -2  10   50.77    4.45
   0   2 -10   57.37    3.53
   0   2 -10   52.92    3.80
   0  -2  10   59.71    8.04
  -1   2 -10    8.43    1.69
   1  -2  10    5.11    1.79
   1  -2  10    9.26    4.49
   2  -2  10   -0.64    2.62
  -2   2 -10    1.29    1.23
   2  -2  10   -0.39    1.14
   3  -2  10    1.12    1.55
   3  -2  10   -0.16    3.13
   4  -2  10    0.08    1.63
   4  -2  10    1.39    3.43
   4   1 -10    0.90    1.43
  -4  -1  10    0.38    1.86
   3   1 -10    5.02    1.43
  -3  -1  10    4.05    1.65
   3   1 -10    8.09    2.09
  -3  -1  10    3.56    1.91
   3   1 -10    3.82    1.61
  -2  -1  10   -1.10    1.31
   2   1 -10   -0.55    0.95
   2   1 -10    0.05    1.07
   2   1 -10    0.55    1.21
   1   1 -10   10.11    2.05
  -1  -1  10    2.29    2.68
   1   1 -10    5.76    1.39
  -1  -1  10    8.18    2.00
   1   1 -10    7.71    1.58
   0   1 -10   11.71    1.72
   0  -1  10   14.31    2.36
   0  -1  10   15.23    4.02
   0   1 -10   11.78    1.62
  -1   1 -10   26.21    2.04
  -1   1 -10   27.69    2.57
   1  -1  10   30.34    3.16
  -2   1 -10   67.70    4.41
   2  -1  10   66.97    5.03
   3  -1  10   -1.31    1.80
   3  -1  10    3.12    1.52
  -3   1 -10    4.01    1.59
   4  -1  10    4.12    1.91
   4  -1  10    0.10    2.74
   4   0 -10    2.99    1.85
  -4   0  10    5.06    2.30
   3   0 -10   -0.09    1.33
   3   0 -10   -1.15    0.97
  -3   0  10    0.51    1.55
   2   0 -10   12.52    2.01
   2   0 -10    7.97    1.70
  -2   0  10    6.64    2.04
   2   0 -10    9.62    1.99
  -1   0  10   16.39    3.24
   1   0 -10   24.04    2.38
  -1   0  10   21.77    2.70
   1   0 -10   23.98    2.39
   0   0  10  106.68    6.78
   0   0 -10  106.93    5.58
   0   0 -10  112.81    5.96
   1   0  10   12.02    3.24
  -1   0 -10   17.88    1.85
   1   0  10   16.01    2.32
  -1   0 -10   24.58    2.35
   2   0  10  152.95    9.22
  -2   0 -10  161.47    7.24
  -2   0 -10  180.16    8.45
  -3   0 -10    0.48    1.14
   3   0  10    1.10    1.21
   3   0  10    0.84    2.35
   4   0  10   32.88    3.49
  -4   0 -10   32.14    3.13
   4  -1 -10    0.31    1.38
   4  -1 -10    0.67    1.83
   3  -1 -10    0.03    1.10
   3  -1 -10   -2.25    1.18
  -3   1  10    0.37    1.39
   2  -1 -10    0.07    1.15
  -2   1  10   -0.70    1.14
   2  -1 -10   -0.18    1.23
   1  -1 -10    0.02    0.96
  -1   1  10    1.39    1.36
   1  -1 -10   -1.00    0.91
   0   1  10    0.34    1.46
   0  -1 -10    1.36    1.08
   0   1  10    0.02    1.08
   0  -1 -10   -0.42    0.89
   0  -1 -10    1.20    0.99
   1   1  10   50.22    3.89
  -1  -1 -10   47.26    3.16
  -1  -1 -10   53.82    3.56
   2   1  10   71.68    4.88
  -2  -1 -10   68.99    3.89
  -2  -1 -10   71.33    4.44
  -3  -1 -10    3.87    1.40
   3   1  10   -0.87    1.82
   3   1  10    3.29    1.38
   4   1  10    0.29    2.29
   4   1  10    0.00    1.07
  -4  -1 -10    0.40    1.25
   5   1  10    3.22    2.92
  -3   2  10    3.25    1.79
   3  -2 -10    1.99    1.49
   3  -2 -10   -0.28    1.59
   2  -2 -10   -0.79    1.11
   2  -2 -10   -1.16    1.24
  -2   2  10    0.71    1.34
   1  -2 -10   13.36    1.97
   1  -2 -10   10.97    1.99
  -1   2  10   11.89    2.24
   0   2  10    2.97    1.47
   0  -2 -10    1.60    1.19
   0  -2 -10    4.53    1.46
   1   2  10    0.11    1.37
   1   2  10    0.74    1.06
  -1  -2 -10    1.90    1.11
  -1  -2 -10    0.27    0.96
  -2  -2 -10   19.75    1.92
   2   2  10   12.93    1.97
  -2  -2 -10   15.07    1.96
  -2  -2 -10   16.34    1.97
   3   2  10    0.72    1.11
  -3  -2 -10    1.68    1.05
  -3  -2 -10    1.69    1.10
   3   2  10    2.72    2.16
  -4  -2 -10   11.71    1.90
   4   2  10    5.88    2.57
  -5  -2 -10    0.84    1.37
   5   2  10   -1.11    2.11
   3  -3 -10    1.31    1.53
   3  -3 -10   -0.56    1.50
  -3   3  10    0.53    1.60
  -2   3  10    1.89    1.68
   2  -3 -10    5.02    1.78
   2  -3 -10    0.71    1.47
   1  -3 -10    1.79    1.29
  -1   3  10    2.18    1.55
   1  -3 -10   -0.31    1.07
   0  -3 -10   -0.21    1.08
   0   3  10    0.64    1.20
   0  -3 -10    0.40    1.11
  -1  -3 -10    3.22    1.28
  -1  -3 -10    2.32    1.29
   1   3  10    1.94    1.31
  -2  -3 -10    6.76    1.58
  -2  -3 -10    6.08    1.59
   2   3  10    4.83    1.38
  -2  -3 -10    6.27    1.57
  -3  -3 -10   12.52    1.82
  -3  -3 -10    7.78    1.62
   3   3  10    6.24    2.14
  -3  -3 -10    9.53    1.72
  -4  -3 -10   16.98    2.25
   4   3  10   17.91    3.41
   2  -4 -10    2.94    1.81
   2  -4 -10    0.89    1.63
  -2   4  10    0.71    1.51
   1  -4 -10   15.40    2.46
   1  -4 -10   13.67    2.42
  -1   4  10   13.45    2.52
   0  -4 -10    1.39    1.31
   0   4  10    1.50    1.42
   0  -4 -10    1.85    1.26
   1   4  10   49.91    3.87
  -1  -4 -10   48.32    3.99
  -1  -4 -10   42.42    3.45
  -1  -4 -10   53.11    3.89
  -2  -4 -10    4.62    1.58
  -2  -4 -10    4.38    1.61
  -2  -4 -10    3.21    1.35
  -3  -4 -10    9.03    1.89
  -3  -4 -10    6.58    1.75
  -3  -4 -10    6.04    1.61
  -4  -4 -10    2.53    1.34
   1  -5 -10    3.97    1.95
   1  -5 -10   10.43    2.36
   0  -5 -10    6.26    1.81
   0  -5 -10    3.67    1.82
  -1  -5 -10   18.15    2.65
  -1  -5 -10   13.74    2.27
  -2  -5 -10    3.78    1.63
  -2  -5 -10    4.80    1.74
  -3  -5 -10   -1.68    1.14
  -3  -5 -10    0.13    1.25
  -1  -4  11    3.64    2.18
  -1  -4  11    3.96    6.20
   1   4 -11    4.18    2.28
   0  -4  11    8.72    2.73
   0  -4  11   13.43    8.31
   2   3 -11   24.16    3.76
  -2  -3  11   16.83    3.12
   1   3 -11   27.22    2.82
   1   3 -11   33.69    4.15
  -1  -3  11   28.36    3.70
  -1  -3  11   26.31    7.37
   1   3 -11   28.93    2.91
   0   3 -11    1.25    1.23
   0  -3  11    1.72    1.82
   0  -3  11   -1.11    4.53
   1  -3  11   18.05    3.12
   1  -3  11   26.94    8.06
  -1   3 -11   22.71    2.79
   2  -3  11   10.52    2.77
   2  -3  11    9.16    6.30
   3   2 -11    0.15    1.53
   3   2 -11    0.56    1.50
  -3  -2  11    0.85    1.85
   2   2 -11    3.42    1.41
  -2  -2  11    0.54    1.66
   2   2 -11    3.84    1.82
   2   2 -11    3.40    1.55
  -1  -2  11   17.43    2.87
   1   2 -11   16.70    2.13
  -1  -2  11   11.28    4.15
   1   2 -11   14.98    2.13
   1   2 -11   15.84    2.81
   0   2 -11    0.79    1.10
   0   2 -11    0.84    1.17
   0  -2  11    1.41    3.55
   0  -2  11    0.38    1.36
  -1   2 -11    5.79    1.63
   1  -2  11    2.82    3.44
   1  -2  11    4.45    1.76
   2  -2  11   24.23    3.34
  -2   2 -11   25.85    2.97
   3  -2  11    9.68    2.57
   3  -2  11   -0.40    3.41
  -3  -1  11   -1.72    1.60
   3   1 -11   -0.49    1.16
   3   1 -11   -1.16    1.22
   2   1 -11   14.65    2.53
   2   1 -11   13.04    1.97
   2   1 -11   14.84    2.26
  -2  -1  11   14.91    2.75
   1   1 -11    1.15    1.23
  -1  -1  11    0.45    1.43
  -1  -1  11   -2.86    2.04
   1   1 -11    0.65    1.17
   0   1 -11   46.29    3.46
   0  -1  11   42.08    3.99
   0  -1  11   38.75    5.66
   0   1 -11   47.37    3.13
   1  -1  11   -0.43    1.77
   1  -1  11   -1.42    0.93
  -1   1 -11    0.68    1.15
   2  -1  11    3.51    1.63
  -2   1 -11    5.77    1.68
   2  -1  11    2.34    2.94
  -3   1 -11    6.67    1.88
   3  -1  11    8.25    2.11
   3  -1  11   -4.28    2.52
   4  -1  11   -0.98    2.89
   4  -1  11    1.14    1.47
   3   0 -11   -0.65    1.19
  -3   0  11   -0.44    1.53
   3   0 -11   -1.61    1.12
  -2   0  11   -0.16    1.26
   2   0 -11   -0.29    1.30
   2   0 -11    0.77    1.23
   1   0 -11    0.86    1.22
  -1   0  11   -0.09    1.88
  -1   0  11    1.06    1.48
   1   0 -11    1.87    1.26
   0   0 -11   30.84    2.75
   0   0  11   30.74    3.28
   0   0 -11   31.04    2.64
  -1   0 -11    3.07    1.22
   1   0  11    5.70    1.74
   1   0  11   -0.20    2.29
  -1   0 -11    4.71    1.41
   2   0  11   25.94    3.09
  -2   0 -11   25.95    2.65
   3   0  11    1.51    2.45
  -3   0 -11   -1.08    1.07
   3   0  11    0.66    1.21
  -4   0 -11    0.52    1.41
   4   0  11   -1.20    2.56
   4   0  11    2.93    1.73
   3  -1 -11    1.05    1.43
   3  -1 -11    2.18    1.74
  -3   1  11    0.84    1.66
  -2   1  11   -1.67    1.13
   2  -1 -11   -2.88    1.00
   2  -1 -11   -0.70    1.08
  -1   1  11   -0.58    1.12
   1  -1 -11   -0.45    1.22
   1  -1 -11   -0.28    1.05
   0   1  11   38.28    3.59
   0  -1 -11   32.80    2.84
   0  -1 -11   32.67    2.94
   1   1  11   24.09    2.87
  -1  -1 -11   19.29    2.31
  -1  -1 -11   22.31    2.20
   2   1  11   71.17    4.99
  -2  -1 -11   66.19    3.91
  -2  -1 -11   73.16    4.62
  -3  -1 -11    1.26    1.18
   3   1  11   -0.07    1.95
   3   1  11   -0.43    1.11
   3  -2 -11    3.46    2.05
  -3   2  11    1.64    1.77
   3  -2 -11    1.70    1.56
  -2   2  11    1.25    1.42
   2  -2 -11    3.98    1.63
   2  -2 -11   -0.26    1.41
   1  -2 -11    1.66    1.39
   1  -2 -11   -0.56    1.12
  -1   2  11    0.97    1.41
   0  -2 -11   -0.98    1.11
   0  -2 -11    0.40    1.14
   0   2  11   -1.23    1.16
  -1  -2 -11   65.32    4.31
   1   2  11   59.67    4.61
  -1  -2 -11   63.59    4.03
  -2  -2 -11  114.31    6.31
   2   2  11  113.22    6.86
  -2  -2 -11  112.18    5.87
   3   2  11   -0.32    1.80
  -3  -2 -11    1.16    1.25
  -4  -2 -11    0.32    1.28
   4   2  11   -0.91    1.85
  -2   3  11    1.85    1.74
   2  -3 -11    1.80    1.61
   2  -3 -11    0.11    1.49
  -1   3  11    5.54    2.02
   1  -3 -11    5.72    1.74
   1  -3 -11    0.34    1.35
   0  -3 -11   -1.72    1.02
   0  -3 -11   -1.42    0.97
   0   3  11    0.15    1.28
  -1  -3 -11    6.03    1.75
  -1  -3 -11    3.36    1.42
   1   3  11    4.85    1.65
  -2  -3 -11   61.09    4.27
  -2  -3 -11   69.08    4.40
  -2  -3 -11   59.85    4.04
  -3  -3 -11    2.27    1.27
  -3  -3 -11    3.11    1.37
   4   3  11    3.11    2.13
  -4  -3 -11    3.59    1.54
   1  -4 -11   -0.02    1.44
   1  -4 -11    0.90    1.45
  -1   4  11    2.79    1.68
   0   4  11    0.19    1.29
   0  -4 -11    0.87    1.33
   0  -4 -11    1.36    1.34
  -1  -4 -11    3.07    1.56
  -1  -4 -11    2.84    1.48
  -2  -4 -11    7.54    1.83
  -2  -4 -11    3.17    1.59
  -3  -4 -11    0.48    1.30
  -3  -4 -11    2.54    1.36
  -4  -4 -11   -0.38    1.14
   0  -5 -11    2.16    1.63
   0  -5 -11    2.20    1.59
  -1  -5 -11    4.18    1.78
  -1  -5 -11    4.93    1.82
  -2  -5 -11    1.47    1.51
  -2  -5 -11    1.58    1.45
   1   3 -12    3.34    1.51
  -1  -3  12    5.85    2.57
   1   3 -12    4.94    1.74
  -1  -3  12    1.73    3.84
   0  -3  12   -0.87    3.28
   0   3 -12   -0.54    1.22
   0  -3  12   -0.11    1.80
  -1   3 -12   23.21    2.92
   1  -3  12   17.36    3.24
   1  -3  12   20.47    7.57
   2   2 -12    5.06    1.77
  -2  -2  12    4.67    2.28
   2   2 -12    3.86    1.58
   2   2 -12    8.55    2.42
   1   2 -12    2.34    1.43
  -1  -2  12    1.63    1.88
  -1  -2  12    1.14    3.28
   1   2 -12    2.69    1.44
   0  -2  12    0.49    1.58
   0  -2  12    0.01    2.46
   0   2 -12    1.85    1.31
   1  -2  12    1.64    2.94
  -1   2 -12   -0.33    1.19
   1  -2  12    1.16    1.64
  -2   2 -12   11.91    2.30
   2  -2  12    4.81    1.96
   2  -2  12    5.49    4.26
   2   1 -12    1.18    1.43
   2   1 -12    0.47    1.25
  -2  -1  12   -0.07    1.73
   1   1 -12    2.66    1.39
  -1  -1  12    0.26    1.40
  -1  -1  12    0.69    2.60
   1   1 -12    0.81    1.24
   0  -1  12   -2.56    2.14
   0  -1  12   -0.27    1.27
   0   1 -12    1.64    1.31
   0   1 -12   -0.08    1.07
   1  -1  12    4.57    2.97
   1  -1  12    2.45    1.73
  -1   1 -12    3.01    1.38
  -2   1 -12    4.93    1.68
   2  -1  12    4.97    3.57
   2  -1  12    4.31    1.88
   3  -1  12   -0.60    2.40
  -3   1 -12    2.26    1.51
   3  -1  12    1.87    1.63
  -3   0  12   -1.41    1.74
   3   0 -12   -1.21    1.26
   3   0 -12   -0.55    1.30
   2   0 -12    5.07    1.86
  -2   0  12    3.82    1.99
   2   0 -12    4.74    1.52
   1   0 -12   12.28    2.03
  -1   0  12   14.20    2.60
   1   0 -12   16.60    2.44
   0   0 -12    0.04    1.03
   0   0  12    0.63    1.41
   0   0  12    0.25    1.92
   0   0 -12    1.61    1.31
   1   0  12   60.38    4.80
  -1   0 -12   55.96    3.58
  -1   0 -12   56.07    4.07
   2   0  12   -0.24    2.08
  -2   0 -12    1.30    1.30
   2   0  12    2.95    1.54
  -3   0 -12   10.10    2.06
   3   0  12    7.56    2.09
  -4   0 -12   13.40    2.49
   2  -1 -12   -1.19    1.23
   2  -1 -12   -0.17    1.28
  -2   1  12    0.57    1.57
  -1   1  12    2.92    1.73
   1  -1 -12    2.25    1.45
   1  -1 -12    0.74    1.30
   0  -1 -12   18.04    2.38
   0  -1 -12   13.94    2.27
   0   1  12   17.58    2.73
   1   1  12   -1.10    1.91
  -1  -1 -12    4.24    1.55
  -1  -1 -12    4.10    1.46
   1   1  12    1.57    1.45
   2   1  12    0.89    2.18
   2   1  12    3.43    1.56
  -2  -1 -12    4.42    1.50
  -3  -1 -12    8.15    1.93
   3   1  12   10.14    2.20
  -4  -1 -12   22.97    2.90
  -2   2  12    4.76    2.20
   2  -2 -12    1.59    1.64
   2  -2 -12    3.93    1.70
   1  -2 -12    3.40    1.67
  -1   2  12    4.07    1.83
   1  -2 -12    6.68    1.76
   0  -2 -12   -1.08    1.13
   0   2  12   -0.26    1.28
   0  -2 -12    0.93    1.23
  -1  -2 -12   24.02    2.55
   1   2  12   20.82    2.81
  -1  -2 -12   24.59    2.76
   2   2  12   24.39    2.90
  -2  -2 -12   19.76    2.35
  -2  -2 -12   19.53    2.50
   3   2  12   -1.20    1.85
  -3  -2 -12    0.43    1.33
  -4  -2 -12    0.05    1.37
   4   2  12   -0.50    2.31
  -1   3  12    2.72    1.79
   1  -3 -12   -0.23    1.42
   1  -3 -12    0.76    1.39
   0  -3 -12   -1.19    1.20
   0  -3 -12   -0.89    1.18
   0   3  12   -0.50    1.30
   1   3  12    0.24    1.31
  -1  -3 -12   -0.21    1.26
  -1  -3 -12    1.08    1.26
  -1  -3 -12    0.91    1.25
  -2  -3 -12    0.70    1.18
  -2  -3 -12    0.85    1.31
  -3  -3 -12   10.81    1.96
  -3  -3 -12    8.60    1.96
   0   4  12   12.12    2.54
   0  -4 -12   12.54    2.55
   0  -4 -12   10.34    2.25
  -1  -4 -12    0.43    1.33
  -1  -4 -12   -0.08    1.41
  -2  -4 -12    5.79    1.81
  -2  -4 -12    3.64    1.71
  -3  -4 -12   -0.29    1.30
  -3  -4 -12    0.77    1.41
   1   2 -13    4.63    1.76
   1   2 -13    3.80    1.61
  -1  -2  13    7.26    2.64
  -1  -2  13    2.66    3.06
   0  -2  13    4.13    3.25
   0   2 -13    7.85    2.01
   0  -2  13    5.24    2.16
   1  -2  13   14.06    5.42
   1  -2  13    8.37    2.55
  -1   2 -13   14.46    2.51
   2   1 -13    1.13    1.54
   1   1 -13    1.77    1.37
   1   1 -13    2.45    1.52
  -1  -1  13    1.02    1.73
   0  -1  13    2.97    1.95
   0   1 -13    6.08    1.65
   0  -1  13    5.42    3.15
   0   1 -13    7.79    1.94
   1  -1  13    9.95    3.59
   1  -1  13   18.44    3.05
  -1   1 -13   19.61    2.67
  -2   1 -13    1.56    1.44
   2  -1  13   -0.30    2.79
   2  -1  13    0.82    1.58
  -2   0  13    1.97    1.90
   2   0 -13    2.28    1.65
   2   0 -13   -0.21    1.24
  -1   0  13   -0.05    1.43
   1   0 -13   -1.16    1.12
   1   0 -13    0.82    1.44
   0   0 -13    1.75    1.37
   0   0 -13    1.99    1.44
   0   0  13    0.42    1.57
  -1   0 -13    2.12    1.41
   1   0  13    2.63    2.60
   1   0  13    3.51    1.77
  -2   0 -13    0.54    1.37
   2   0  13   -1.12    2.33
   2   0  13    0.40    1.45
   3   0  13   -1.70    2.61
  -3   0 -13    7.25    1.97
   3   0  13    6.57    2.21
   2  -1 -13    0.36    1.46
   2  -1 -13    0.18    1.63
  -2   1  13   -0.92    1.64
   1  -1 -13    4.34    1.79
  -1   1  13    3.29    1.88
   1  -1 -13    3.77    1.70
   0   1  13    0.50    1.51
   0  -1 -13    0.50    1.35
   0  -1 -13   -1.97    1.19
  -1  -1 -13   22.14    2.64
   1   1  13   20.55    2.97
  -1  -1 -13   18.14    2.39
  -2  -1 -13   -0.63    1.10
   2   1  13    0.01    1.46
   2   1  13    1.83    2.53
  -3  -1 -13    9.18    2.16
   3   1  13   -1.21    2.42
   3   1  13    5.34    1.95
   1  -2 -13    0.54    1.47
  -1   2  13    1.45    1.70
   1  -2 -13   -1.14    1.33
   0  -2 -13   12.10    2.24
   0   2  13   10.71    2.50
   0  -2 -13    8.99    2.09
  -1  -2 -13    6.29    1.76
  -1  -2 -13    5.31    1.75
   1   2  13    4.59    1.93
  -2  -2 -13    0.27    1.20
   2   2  13    0.32    1.51
  -2  -2 -13    1.15    1.44
  -3  -2 -13    1.40    1.55
   0  -3 -13    6.68    1.95
   0  -3 -13    4.50    1.79
   0   3  13    7.33    2.34
  -1  -3 -13   23.23    2.89
   1   3  13   11.77    2.48
  -1  -3 -13   17.56    2.66
  -2  -3 -13    3.80    1.62
  -2  -3 -13    4.47    1.74
   0   0 -14    6.70    1.91
   0   0  14    4.07    2.17
   0   0 -14    3.94    1.69
   1   0  14    6.66    2.41
  -1   0 -14    4.72    1.78
  -2   0 -14    0.00    1.48
   0  -1 -14    0.83    1.56
   0   1  14    1.13    1.85
   0  -1 -14    2.39    1.51
   1   1  14    6.87    2.35
  -1  -1 -14    6.93    1.92
   2   1  14    0.89    1.79
  -2  -1 -14   -0.27    1.25
   0  -2 -14   13.53    2.53
   0  -2 -14   13.11    2.39
  -1  -2 -14   15.32    2.44
   1   2  14   10.93    2.52
  -1  -2 -14   10.62    2.23
  -2  -2 -14   -1.54    1.26
   0   0   0    0.00    0.00
;
_shelx_hkl_checksum              29779
loop_
_space_group_symop_operation_xyz
'x, y, z'
'-x, -y, -z'
loop_
_atom_site_label
_atom_site_type_symbol
_atom_site_fract_x
_atom_site_fract_y
_atom_site_fract_z
_atom_site_U_iso_or_equiv
_atom_site_adp_type
_atom_site_occupancy
_atom_site_site_symmetry_order
_atom_site_calc_flag
_atom_site_refinement_flags_posn
_atom_site_refinement_flags_adp
_atom_site_refinement_flags_occupancy
_atom_site_disorder_assembly
_atom_site_disorder_group
N1 N 0.6104(4) 0.8300(3) 0.73450(16) 0.0590(5) Uani 1 1 d . . . . .
O1 O 0.7618(3) 0.6618(2) 0.81196(13) 0.0602(5) Uani 1 1 d . . . . .
O2 O 0.2211(3) 1.0632(2) 0.58759(14) 0.0640(5) Uani 1 1 d . . . . .
O3 O 0.1569(3) 0.6995(3) 0.54845(13) 0.0594(4) Uani 1 1 d D . . . .
H3 H 0.019(5) 0.780(7) 0.517(4) 0.174(19) Uiso 1 1 d D . . . .
C1 C 0.4642(3) 0.7074(3) 0.68606(15) 0.0413(4) Uani 1 1 d . . . . .
C2 C 0.5142(4) 0.4594(3) 0.72793(16) 0.0451(5) Uani 1 1 d . . . . .
H2 H 0.438354 0.335290 0.705496 0.054 Uiso 1 1 calc R U . . .
C3 C 0.6961(4) 0.4434(3) 0.80747(16) 0.0450(5) Uani 1 1 d . . . . .
C4 C 0.2687(4) 0.8371(3) 0.60104(16) 0.0438(5) Uani 1 1 d . . . . .
C5 C 0.8231(4) 0.2392(4) 0.89008(19) 0.0559(5) Uani 1 1 d D . . . .
H5A H 0.773(5) 0.082(3) 0.883(2) 0.067 Uiso 1 1 d D U . . .
F1A F 0.7496(18) 0.2900(16) 1.0053(6) 0.069(2) Uani 0.5 1 d . . P A 1
F2A F 1.0906(12) 0.2070(11) 0.8791(7) 0.082(3) Uani 0.5 1 d . . P A 1
F1B F 0.661(2) 0.204(2) 0.9858(10) 0.125(5) Uani 0.25 1 d D . P A 2
F2B F 1.060(2) 0.281(2) 0.9119(18) 0.099(5) Uani 0.25 1 d D . P A 2
F1C F 0.840(4) 0.320(4) 0.9950(11) 0.077(5) Uani 0.25 1 d D . P A 3
F2C F 1.056(2) 0.123(2) 0.8426(13) 0.093(4) Uani 0.25 1 d D . P A 3
loop_
_atom_site_aniso_label
_atom_site_aniso_U_11
_atom_site_aniso_U_22
_atom_site_aniso_U_33
_atom_site_aniso_U_23
_atom_site_aniso_U_13
_atom_site_aniso_U_12
N1 0.0734(11) 0.0359(8) 0.0726(11) 0.0065(8) -0.0356(9) -0.0122(8)
O1 0.0741(10) 0.0398(7) 0.0728(9) 0.0041(6) -0.0394(7) -0.0124(7)
O2 0.0763(10) 0.0378(7) 0.0816(10) 0.0046(7) -0.0364(8) -0.0087(7)
O3 0.0683(10) 0.0477(8) 0.0678(9) -0.0050(7) -0.0316(8) -0.0108(7)
C1 0.0452(9) 0.0360(9) 0.0442(8) -0.0020(7) -0.0114(7) -0.0081(8)
C2 0.0531(10) 0.0355(9) 0.0489(10) -0.0023(7) -0.0119(8) -0.0107(8)
C3 0.0544(10) 0.0348(9) 0.0470(9) -0.0023(7) -0.0122(8) -0.0082(8)
C4 0.0485(10) 0.0383(9) 0.0455(9) -0.0019(7) -0.0098(7) -0.0087(8)
C5 0.0678(13) 0.0431(10) 0.0564(11) 0.0032(9) -0.0192(10) -0.0066(10)
F1A 0.085(7) 0.071(5) 0.0437(17) 0.0112(19) -0.004(3) -0.003(4)
F2A 0.065(2) 0.059(6) 0.102(5) 0.022(4) 0.001(3) 0.014(2)
F1B 0.083(6) 0.127(11) 0.141(10) 0.090(8) -0.014(6) -0.013(6)
F2B 0.090(8) 0.057(7) 0.160(13) 0.015(6) -0.087(9) -0.007(6)
F1C 0.106(14) 0.076(5) 0.062(7) 0.004(6) -0.043(7) -0.032(8)
F2C 0.096(6) 0.056(6) 0.105(8) 0.005(4) -0.008(5) 0.028(4)
loop_
_atom_type_symbol
_atom_type_description
_atom_type_scat_dispersion_real
_atom_type_scat_dispersion_imag
_atom_type_scat_source
C C 0.0033 0.0016 'International Tables Vol C Tables 4.2.6.8 and 6.1.1.4'
H H 0.0000 0.0000 'International Tables Vol C Tables 4.2.6.8 and 6.1.1.4'
N N 0.0061 0.0033 'International Tables Vol C Tables 4.2.6.8 and 6.1.1.4'
O O 0.0106 0.0060 'International Tables Vol C Tables 4.2.6.8 and 6.1.1.4'
F F 0.0171 0.0103 'International Tables Vol C Tables 4.2.6.8 and 6.1.1.4'
loop_
_geom_angle_atom_site_label_1
_geom_angle_atom_site_label_2
_geom_angle_atom_site_label_3
_geom_angle
C1 N1 O1 105.42(14)
C3 O1 N1 108.52(14)
N1 C1 C2 112.02(17)
N1 C1 C4 119.32(16)
C2 C1 C4 128.62(16)
C3 C2 C1 103.81(16)
C2 C3 O1 110.19(17)
C2 C3 C5 132.39(17)
O1 C3 C5 117.38(16)
O2 C4 O3 125.07(18)
O2 C4 C1 120.15(16)
O3 C4 C1 114.76(16)
F2Cc C5 F1C 112.7(11)
F1B C5 F2B 115.1(10)
F2A C5 F1A 104.7(5)
F1B C5 C3 111.2(6)
F2C C5 C3 112.5(7)
F1C C5 C3 109.6(12)
F2B C5 C3 108.1(7)
F2A C5 C3 112.5(3)
F1A C5 C3 109.9(5)
loop_
_geom_bond_atom_site_label_1
_geom_bond_atom_site_label_2
_geom_bond_distance
N1 C1 1.302(2)
N1 O1 1.385(2)
O1 C3 1.344(2)
O2 C4 1.239(2)
O3 C4 1.270(2)
C1 C2 1.406(2)
C1 C4 1.481(3)
C2 C3 1.336(3)
C3 C5 1.482(3)
C5 F1B 1.301(8)
C5 F2C 1.313(9)
C5 F1C 1.315(10)
C5 F2B 1.326(9)
C5 F2A 1.330(7)
C5 F1A 1.341(7)
loop_
_geom_hbond_atom_site_label_D
_geom_hbond_atom_site_label_H
_geom_hbond_atom_site_label_A
_geom_hbond_distance_DH
_geom_hbond_distance_HA
_geom_hbond_distance_DA
_geom_hbond_angle_DHA
_geom_hbond_site_symmetry_A
O3 H3 O2_$1 0.845(10) 1.814(16) 2.639(2) 165(4) 2_576
