#------------------------------------------------------------------------------
#$Date: 2019-11-04 13:55:50 +0200 (Mon, 04 Nov 2019) $
#$Revision: 222944 $
#$URL: file:///home/coder/svn-repositories/cod/cif/4/03/44/4034413.cif $
#------------------------------------------------------------------------------
#
# This file is available in the Crystallography Open Database (COD),
# http://www.crystallography.net/
#
# All data on this site have been placed in the public domain by the
# contributors.
#
data_4034413
loop_
_publ_author_name
'Li, Shasha'
'Zhang, Jinxia'
'Li, Hongjie'
'Feng, Lifei'
'Jiao, Peng'
_publ_section_title
;
 Preparation and Application of Amino Phosphine Ligands Bearing
 Spiro[indane-1,2'-pyrrolidine] Backbone.
;
_journal_issue                   15
_journal_name_full               'The Journal of organic chemistry'
_journal_page_first              9460
_journal_page_last               9473
_journal_paper_doi               10.1021/acs.joc.9b00875
_journal_volume                  84
_journal_year                    2019
_chemical_absolute_configuration ad
_chemical_formula_moiety         'C13 H15 N O2'
_chemical_formula_sum            'C13 H15 N O2'
_chemical_formula_weight         217.26
_space_group_crystal_system      monoclinic
_space_group_IT_number           4
_space_group_name_Hall           'P 2yb'
_space_group_name_H-M_alt        'P 1 21 1'
_atom_sites_solution_hydrogens   geom
_audit_creation_date             2018-11-29
_audit_creation_method
;
Olex2 1.2
(compiled 2018.05.29 svn.r3508 for OlexSys, GUI svn.r5506)
;
_cell_angle_alpha                90
_cell_angle_beta                 95.2490(10)
_cell_angle_gamma                90
_cell_formula_units_Z            2
_cell_length_a                   8.00540(10)
_cell_length_b                   7.73140(10)
_cell_length_c                   8.68840(10)
_cell_measurement_reflns_used    6900
_cell_measurement_temperature    100.00(10)
_cell_measurement_theta_max      73.1090
_cell_measurement_theta_min      5.0980
_cell_volume                     535.496(11)
_computing_cell_refinement       'CrysAlisPro 1.171.39.32a (Rigaku OD, 2017)'
_computing_data_collection       'CrysAlisPro 1.171.39.32a (Rigaku OD, 2017)'
_computing_data_reduction        'CrysAlisPro 1.171.39.32a (Rigaku OD, 2017)'
_computing_molecular_graphics    'Olex2 (Dolomanov et al., 2009)'
_computing_publication_material  'Olex2 (Dolomanov et al., 2009)'
_computing_structure_refinement  'ShelXL (Sheldrick, 2015)'
_computing_structure_solution    'SHELXT 2014/5 (Sheldrick, 2014)'
_diffrn_ambient_environment      N~2~
_diffrn_ambient_temperature      100.00(10)
_diffrn_detector                 'CCD plate'
_diffrn_detector_area_resol_mean 5.3127
_diffrn_detector_type            AtlasS2
_diffrn_measured_fraction_theta_full 1.000
_diffrn_measured_fraction_theta_max 0.999
_diffrn_measurement_details
;
List of Runs (angles in degrees, time in seconds):

  # Type    Start    End  Width  t~exp~   \w     \q     \k     \f   Frames
--------------------------------------------------------------------------
  1  \w      0.00  25.00   1.00    1.00    --   38.00  93.00-136.81   25
  2  \w    -62.00 -17.00   1.00    1.00    --  -41.49 -37.00  90.00   45
  3  \w    -45.00 -13.00   1.00    1.00    --  -41.49 -57.00   0.00   32
  4  \w   -106.00 -80.00   1.00    1.00    --  -41.49 -37.00  90.00   26
  5  \w    -61.00  32.00   1.00    1.00    --  -41.49  37.00-180.00   93
  6  \w    -94.00 -60.00   1.00    1.00    --  -41.49 -57.00   0.00   34
  7  \w     27.00  78.00   1.00    1.00    --   41.49  37.00-180.00   51
  8  \w     23.00  98.00   1.00    1.00    --   41.49-125.00 -30.00   75
  9  \w    -30.00  72.00   1.00    1.00    --   41.49 -77.00   0.00  102
 10  \w     17.00  42.00   1.00    1.00    --   50.00  80.00 -21.29   25
 11  \w     17.00  43.00   1.00    1.00    --   50.00  78.00 127.94   26
 12  \w     18.00  44.00   1.00    1.00    --   50.00  79.00  52.88   26
 13  \w     17.00  42.00   1.00    1.00    --   50.00  79.00 -86.70   25
 14  \w     96.00 123.00   1.00    1.00    --   54.00  77.00  99.82   27
 15  \w     22.00  53.00   1.00    1.00    --   54.00  77.00 -46.86   31
 16  \w     23.00  48.00   1.00    1.00    --   54.00  77.00  99.82   25
 17  \w     27.00  64.00   1.00    1.00    --   58.00  75.00-159.52   37
 18  \w     28.00  54.00   1.00    1.00    --   58.00  65.00 145.05   26
 19  \w     33.00  59.00   1.00    1.00    --   62.00  77.00  -7.50   26
 20  \w     35.00  60.00   1.00    1.00    --   66.00  76.00 150.33   25
 21  \w     38.00  64.00   1.00    1.00    --   66.00  64.00-139.22   26
 22  \w     39.00  65.00   1.00    1.00    --   70.00  75.00 136.06   26
 23  \w     38.00 144.00   1.00    1.00    --   70.00  76.00  17.90  106
 24  \w     42.00 111.00   1.00    1.00    --   74.00  77.00-135.33   69
 25  \w     57.00  85.00   1.00    1.00    --   86.00  62.00 -56.98   28
 26  \w     95.00 177.00   1.00    1.00    --  107.19 125.00-120.00   82
 27  \w     75.00 168.00   1.00    1.00    --  107.19  77.00  60.00   93
 28  \w     79.00 119.00   1.00    1.00    --  107.19  61.00 -30.00   40
 29  \w     25.00 106.00   1.00    1.00    --  107.19 -94.00-180.00   81
 30  \w     76.00 177.00   1.00    1.00    --  107.19  77.00-150.00  101
 31  \w     67.00 104.00   1.00    1.00    --  107.19 -94.00  30.00   37
 32  \w     78.00 129.00   1.00    1.00    --  107.19  61.00 -90.00   51
 33  \w     75.00 101.00   1.00    1.00    --  107.19  77.00 120.00   26
 34  \w     82.00 115.00   1.00    1.00    --  107.19  61.00  30.00   33
 35  \w     57.00 128.00   1.00    1.00    --  107.19 -61.00 -60.00   71
 36  \w     82.00 108.00   1.00    1.00    --  107.19  45.00 -90.00   26
 37  \w    117.00 144.00   1.00    1.00    --  107.19  77.00 -60.00   27
 38  \w    117.00 142.00   1.00    1.00    --  107.19  77.00  30.00   25
 39  \w     76.00 114.00   1.00    1.00    --  107.19  77.00 -60.00   38
 40  \w     76.00 149.00   1.00    1.00    --  107.19  77.00-180.00   73
 41  \w     77.00 107.00   1.00    1.00    --  107.19  77.00  30.00   30
 42  \w     78.00 104.00   1.00    1.00    --  107.19  61.00-180.00   26
 43  \w     79.00 109.00   1.00    1.00    --  107.19  61.00  60.00   30
 44  \w     75.00 176.00   1.00    1.00    --  107.19  77.00 -30.00  101
 45  \w     79.00 176.00   1.00    1.00    --  107.19  61.00 150.00   97
 46  \w    122.00 174.00   1.00    1.00    --  107.19  77.00   0.00   52
 47  \w     78.00 105.00   1.00    1.00    --  107.19  77.00   0.00   27
 48  \w     25.00 108.00   1.00    1.00    --  107.19 -94.00 -90.00   83
 49  \w     75.00 177.00   1.00    1.00    --  107.19  77.00  90.00  102
 50  \w     85.00 112.00   1.00    1.00    --  107.19  61.00   0.00   27
;
_diffrn_measurement_device       'four-circle diffractometer'
_diffrn_measurement_device_type  'SuperNova, Dual, Cu at home/near, AtlasS2'
_diffrn_measurement_method       '\w scans'
_diffrn_orient_matrix_type
'CrysAlisPro convention (1999,Acta A55,543-557)'
_diffrn_orient_matrix_UB_11      0.1793286000
_diffrn_orient_matrix_UB_12      0.0296911000
_diffrn_orient_matrix_UB_13      -0.0451897000
_diffrn_orient_matrix_UB_21      0.0599045000
_diffrn_orient_matrix_UB_22      0.0388891000
_diffrn_orient_matrix_UB_23      0.1701376000
_diffrn_orient_matrix_UB_31      0.0397114000
_diffrn_orient_matrix_UB_32      -0.1931412000
_diffrn_orient_matrix_UB_33      0.0272800000
_diffrn_radiation_monochromator  mirror
_diffrn_radiation_probe          x-ray
_diffrn_radiation_type           CuK\a
_diffrn_radiation_wavelength     1.54184
_diffrn_reflns_av_R_equivalents  0.0210
_diffrn_reflns_av_unetI/netI     0.0161
_diffrn_reflns_Laue_measured_fraction_full 1.000
_diffrn_reflns_Laue_measured_fraction_max 0.999
_diffrn_reflns_limit_h_max       9
_diffrn_reflns_limit_h_min       -9
_diffrn_reflns_limit_k_max       8
_diffrn_reflns_limit_k_min       -9
_diffrn_reflns_limit_l_max       10
_diffrn_reflns_limit_l_min       -10
_diffrn_reflns_number            7770
_diffrn_reflns_point_group_measured_fraction_full 0.976
_diffrn_reflns_point_group_measured_fraction_max 0.971
_diffrn_reflns_theta_full        67.684
_diffrn_reflns_theta_max         69.863
_diffrn_reflns_theta_min         5.112
_diffrn_source                   'micro-focus sealed X-ray tube'
_diffrn_source_type              'SuperNova (Cu) X-ray Source'
_exptl_absorpt_coefficient_mu    0.732
_exptl_absorpt_correction_T_max  1.00000
_exptl_absorpt_correction_T_min  0.62370
_exptl_absorpt_correction_type   multi-scan
_exptl_absorpt_process_details
;
CrysAlisPro 1.171.39.32a (Rigaku Oxford Diffraction, 2017)
Empirical absorption correction using spherical harmonics,
 implemented in SCALE3 ABSPACK scaling algorithm.
;
_exptl_crystal_colour            'clear light colourless'
_exptl_crystal_density_diffrn    1.347
_exptl_crystal_description       block
_exptl_crystal_F_000             232
_exptl_crystal_size_max          0.4
_exptl_crystal_size_mid          0.25
_exptl_crystal_size_min          0.2
_refine_diff_density_max         0.128
_refine_diff_density_min         -0.192
_refine_diff_density_rms         0.047
_refine_ls_abs_structure_details
;
 Flack x determined using 864 quotients [(I+)-(I-)]/[(I+)+(I-)]
 (Parsons, Flack and Wagner, Acta Cryst. B69 (2013) 249-259).
;
_refine_ls_abs_structure_Flack   -0.01(7)
_refine_ls_extinction_method     none
_refine_ls_goodness_of_fit_ref   1.103
_refine_ls_hydrogen_treatment    constr
_refine_ls_matrix_type           full
_refine_ls_number_parameters     146
_refine_ls_number_reflns         1979
_refine_ls_number_restraints     1
_refine_ls_restrained_S_all      1.102
_refine_ls_R_factor_all          0.0270
_refine_ls_R_factor_gt           0.0269
_refine_ls_shift/su_max          0.000
_refine_ls_shift/su_mean         0.000
_refine_ls_structure_factor_coef Fsqd
_refine_ls_weighting_details
'w=1/[\s^2^(Fo^2^)+(0.0366P)^2^+0.1108P] where P=(Fo^2^+2Fc^2^)/3'
_refine_ls_weighting_scheme      calc
_refine_ls_wR_factor_gt          0.0674
_refine_ls_wR_factor_ref         0.0675
_reflns_Friedel_coverage         0.801
_reflns_Friedel_fraction_full    0.947
_reflns_Friedel_fraction_max     0.937
_reflns_number_gt                1961
_reflns_number_total             1979
_reflns_threshold_expression     'I > 2\s(I)'
_cod_data_source_file            8.cif
_cod_data_source_block           fjj20180815
_cod_database_code               4034413
_shelx_shelxl_version_number     2018/3
_chemical_oxdiff_formula         'C1 H1 N1 O1'
_shelx_space_group_comment
;
The symmetry employed for this shelxl refinement is uniquely defined
by the following loop, which should always be used as a source of
symmetry information in preference to the above space-group names.
They are only intended as comments.
;
_shelx_estimated_absorpt_t_max   0.867
_shelx_estimated_absorpt_t_min   0.758
_reflns_odcompleteness_completeness 100.00
_reflns_odcompleteness_iscentric 1
_reflns_odcompleteness_theta     66.97
_olex2_refinement_description
;
1. Fixed Uiso
 At 1.2 times of:
  All C(H) groups, All C(H,H) groups, All N(H) groups
 At 1.5 times of:
  All C(H,H,H) groups
2.a Secondary CH2 refined with riding coordinates:
 C2(H2A,H2B), C3(H3A,H3B), C12(H12A,H12B), C11(H11A,H11B)
2.b Aromatic/amide H refined with riding coordinates:
 N10(H10), C6(H6), C5(H5), C7(H7)
2.c Idealised Me refined as rotating group:
 C16(H16A,H16B,H16C)
;
_shelx_res_file
;
TITL fjj20180815_a.res in P2(1)
    fjj20180815.res
    created by SHELXL-2018/3 at 09:03:33 on 29-Nov-2018
REM Old TITL FJJ20180815 in P21 #4
REM SHELXT solution in P2(1)
REM R1 0.074, Rweak 0.031, Alpha 0.001, Orientation as input
REM Flack x = 0.012 ( 0.069 ) from Parsons' quotients
REM Formula found by SHELXT: C13 N O2
CELL 1.54184 8.0054 7.7314 8.6884 90 95.249 90
ZERR 2 0.0001 0.0001 0.0001 0 0.001 0
LATT -1
SYMM -X,0.5+Y,-Z
SFAC C H N O
UNIT 26 30 2 4

L.S. 4
PLAN  5
SIZE 0.4 0.25 0.2
TEMP -173
BOND $H
LIST 4
CONF
fmap 2
acta
OMIT -2 140
REM <olex2.extras>
REM <HklSrc "%.\\FJJ20180815.hkl">
REM </olex2.extras>

WGHT    0.036600    0.110800
FVAR       1.31111
O14   4    0.988050    0.711152    0.547512    11.00000    0.01573    0.01848 =
         0.01775   -0.00150   -0.00248   -0.00146
O15   4    0.484835    0.686319    0.323367    11.00000    0.01522    0.02005 =
         0.02487   -0.00530    0.00626    0.00091
N10   3    0.888652    0.537290    0.346967    11.00000    0.01279    0.01337 =
         0.01482    0.00171   -0.00094    0.00088
AFIX  43
H10   2    0.930059    0.440246    0.387309    11.00000   -1.20000
AFIX   0
C9    1    0.619627    0.454117    0.211367    11.00000    0.01324    0.01758 =
         0.01110    0.00089   -0.00100   -0.00026
C13   1    0.913176    0.689815    0.417438    11.00000    0.00970    0.01628 =
         0.01830   -0.00051    0.00401   -0.00073
C4    1    0.624324    0.283151    0.162260    11.00000    0.01580    0.01892 =
         0.01255   -0.00020   -0.00254    0.00170
C2    1    0.862523    0.427074    0.076053    11.00000    0.01521    0.01894 =
         0.01653    0.00029    0.00363    0.00170
AFIX  23
H2A   2    0.831392    0.470736   -0.029809    11.00000   -1.20000
H2B   2    0.986379    0.424531    0.094489    11.00000   -1.20000
AFIX   0
C1    1    0.787027    0.543210    0.196445    11.00000    0.01280    0.01641 =
         0.01302    0.00126    0.00088    0.00177
C6    1    0.353458    0.233813    0.247169    11.00000    0.01749    0.02438 =
         0.01777    0.00108   -0.00215   -0.00690
AFIX  43
H6    2    0.262514    0.158290    0.261326    11.00000   -1.20000
AFIX   0
C8    1    0.478547    0.516900    0.277448    11.00000    0.01522    0.01809 =
         0.01250   -0.00032   -0.00104    0.00062
C5    1    0.491797    0.170040    0.180532    11.00000    0.02235    0.01807 =
         0.01785   -0.00105   -0.00348   -0.00278
AFIX  43
H5    2    0.496215    0.052848    0.148285    11.00000   -1.20000
AFIX   0
C7    1    0.344149    0.406257    0.294103    11.00000    0.01340    0.02688 =
         0.01551    0.00008    0.00076   -0.00037
AFIX  43
H7    2    0.246787    0.447655    0.337065    11.00000   -1.20000
AFIX   0
C3    1    0.789276    0.245607    0.096108    11.00000    0.01794    0.01639 =
         0.01812   -0.00244    0.00188    0.00182
AFIX  23
H3A   2    0.771005    0.184716   -0.004258    11.00000   -1.20000
H3B   2    0.863876    0.174931    0.168298    11.00000   -1.20000
AFIX   0
C12   1    0.836665    0.830293    0.313149    11.00000    0.01680    0.01511 =
         0.02013   -0.00009   -0.00040   -0.00051
AFIX  23
H12A  2    0.918680    0.923908    0.300539    11.00000   -1.20000
H12B  2    0.736519    0.880184    0.355397    11.00000   -1.20000
AFIX   0
C11   1    0.788530    0.739206    0.159047    11.00000    0.01752    0.01596 =
         0.01728    0.00231    0.00201   -0.00061
AFIX  23
H11A  2    0.871451    0.764802    0.084328    11.00000   -1.20000
H11B  2    0.676457    0.777633    0.114384    11.00000   -1.20000
AFIX   0
C16   1    0.343073    0.753417    0.392099    11.00000    0.01863    0.02648 =
         0.02294   -0.00463    0.00591    0.00486
AFIX 137
H16A  2    0.243364    0.745300    0.318114    11.00000   -1.50000
H16B  2    0.363413    0.874760    0.420555    11.00000   -1.50000
H16C  2    0.325118    0.686255    0.484816    11.00000   -1.50000
AFIX   0
HKLF 4




REM  fjj20180815_a.res in P2(1)
REM wR2 = 0.0675, GooF = S = 1.103, Restrained GooF = 1.102 for all data
REM R1 = 0.0269 for 1961 Fo > 4sig(Fo) and 0.0270 for all 1979 data
REM 146 parameters refined using 1 restraints

END

WGHT      0.0366      0.1108

REM Highest difference peak  0.128,  deepest hole -0.192,  1-sigma level  0.047
Q1    1   0.4293  0.6507  0.5823  11.00000  0.05    0.13
Q2    1   0.8874  0.7609  0.3643  11.00000  0.05    0.12
Q3    1   0.2892  0.9630  0.5381  11.00000  0.05    0.11
Q4    1   0.6968  0.5099  0.2095  11.00000  0.05    0.11
Q5    1   1.0600  0.7265  0.0988  11.00000  0.05    0.11
;
_shelx_res_checksum              11528
_shelx_hkl_file
;
   0  -9   0    0.10    0.26
   0  -9  -1   28.46    1.30
   0  -9   1   32.23    1.60
   0  -9   2   10.57    0.82
   0  -9  -2    9.77    0.75
   0  -9  -3   15.71    0.93
   0  -8   0  103.74    4.04
   0  -8   0  101.44    3.49
   0  -8  -1   40.78    2.21
   0  -8  -1   43.17    2.38
   0  -8   1   38.62    2.33
   0  -8  -2   42.57    2.33
   0  -8   2   45.80    2.42
   0  -8   3   12.94    1.14
   0  -8  -3   13.16    1.26
   0  -8   3   13.45    1.39
   0  -8   4   26.78    1.84
   0  -8  -4   25.54    1.65
   0  -8  -5    5.47    0.67
   0  -8   5    5.45    0.75
   0  -7   0    0.20    0.32
   0  -7   0    0.00    0.44
   0  -7  -1  214.72    6.84
   0  -7  -1  230.18    6.86
   0  -7   1  248.46    6.17
   0  -7   1  254.81    7.68
   0  -7   1  221.58    7.04
   0  -7  -2  190.46    6.33
   0  -7   2  210.46    6.89
   0  -7   2  199.68    5.60
   0  -7  -2  205.64    6.28
   0  -7   2  184.82    6.26
   0  -7  -3   10.55    1.33
   0  -7   3   10.53    1.09
   0  -7  -3   11.26    1.24
   0  -7   3   11.24    1.45
   0  -7   3    9.11    1.17
   0  -7   4  325.54    7.79
   0  -7  -4  297.93    8.44
   0  -7   4  312.80    7.98
   0  -7   4  317.55    8.96
   0  -7   5   79.79    3.71
   0  -7  -5   82.97    3.52
   0  -7   6   82.51    3.42
   0  -7  -6   81.52    3.05
   0  -7  -7   32.73    1.36
   0  -7   7   33.38    1.69
   0  -6   0  494.89   12.11
   0  -6   0  528.01   12.18
   0  -6   0  501.00   11.66
   0  -6  -1  368.88    9.60
   0  -6   1  393.77    9.52
   0  -6   1  394.81   10.17
   0  -6   1  364.11    8.85
   0  -6   1  373.31    9.81
   0  -6  -1  389.89   10.08
   0  -6  -1  377.68    9.65
   0  -6   1  397.40    8.83
   0  -6  -2   43.78    2.57
   0  -6   2   45.24    2.29
   0  -6   2   42.74    2.65
   0  -6  -2   48.43    3.00
   0  -6   2   41.36    2.78
   0  -6  -2   42.37    2.69
   0  -6  -3   96.85    4.06
   0  -6   3   86.72    3.93
   0  -6  -3   92.24    4.50
   0  -6   3   84.77    4.23
   0  -6   3   91.83    3.53
   0  -6  -3   86.21    4.11
   0  -6  -3   94.85    3.83
   0  -6  -4   34.16    2.10
   0  -6   4   28.36    1.88
   0  -6  -4   32.32    2.36
   0  -6   4   30.64    2.16
   0  -6  -4   28.25    2.29
   0  -6   4   27.60    2.36
   0  -6  -5   10.68    1.39
   0  -6   5   10.70    1.47
   0  -6   5   10.32    1.09
   0  -6  -5   11.49    1.42
   0  -6  -6   94.35    3.94
   0  -6  -6   96.34    4.17
   0  -6   6  107.09    4.59
   0  -6  -7   30.74    1.74
   0  -6  -7   31.41    2.02
   0  -6   7   31.26    2.13
   0  -6  -8   53.94    2.22
   0  -6   8   51.37    2.25
   0  -5   0    0.11    0.28
   0  -5  -1   35.83    2.24
   0  -5   1   33.37    1.93
   0  -5  -2   37.81    2.47
   0  -5   2   45.57    2.24
   0  -5  -3   20.47    1.58
   0  -5   3   16.61    1.71
   0  -5   3   20.04    1.45
   0  -5  -3   18.98    1.76
   0  -5   3   16.91    1.56
   0  -5  -3   21.65    1.86
   0  -5  -3   17.76    1.66
   0  -5  -3   19.11    1.86
   0  -5   4   91.30    4.43
   0  -5  -4   97.13    4.30
   0  -5  -4   95.54    4.63
   0  -5  -4  106.05    3.83
   0  -5   4  102.61    3.69
   0  -5  -4   86.60    4.14
   0  -5   5  296.27    9.19
   0  -5   5  314.81    7.73
   0  -5  -5  288.36    8.70
   0  -5  -5  312.08    9.05
   0  -5  -6   71.80    3.58
   0  -5  -6   71.14    3.82
   0  -5   6   71.93    3.97
   0  -5   6   70.75    2.96
   0  -5   7   14.51    1.65
   0  -5  -7   14.14    1.35
   0  -5  -7   16.48    1.70
   0  -5  -8  116.52    4.30
   0  -5   8  110.53    4.27
   0  -5  -9   16.56    1.13
   0  -5   9   14.83    1.09
   0  -4   0 3212.40   53.51
   0  -4   0 2946.42   54.61
   0  -4  -1   58.10    2.59
   0  -4   1   56.44    2.33
   0  -4   1   55.34    1.98
   0  -4   2  117.12    3.48
   0  -4  -2  115.22    4.13
   0  -4   2  112.23    3.50
   0  -4  -3  175.79    5.76
   0  -4   3  183.33    5.23
   0  -4  -4   52.25    3.05
   0  -4   4   56.92    2.89
   0  -4   5   25.12    2.18
   0  -4  -5   27.74    2.37
   0  -4   5   26.61    2.09
   0  -4   5   29.05    1.75
   0  -4   5   28.77    2.23
   0  -4  -5   23.08    1.99
   0  -4  -5   23.56    2.07
   0  -4   6  109.10    4.94
   0  -4  -6  105.91    4.83
   0  -4  -6  108.16    4.50
   0  -4   6  114.77    3.83
   0  -4   6  106.63    4.60
   0  -4   6  110.81    5.00
   0  -4   7    2.98    0.74
   0  -4   7    3.45    0.91
   0  -4  -7    4.83    1.02
   0  -4   8   90.04    4.17
   0  -4  -8   95.07    4.20
   0  -4  -9   14.29    1.29
   0  -4   9   15.37    1.36
   0  -3   0    0.14    0.08
   0  -3   0    0.02    0.11
   0  -3   0    0.13    0.23
   0  -3   1  986.62   18.67
   0  -3   1 1015.49   18.18
   0  -3   1 1015.87   18.28
   0  -3  -1 1046.58   17.80
   0  -3  -1 1017.09   19.10
   0  -3   2   23.48    1.22
   0  -3   2   21.50    1.20
   0  -3  -2   20.07    1.38
   0  -3   3  198.29    5.24
   0  -3  -3  198.21    4.83
   0  -3  -4  136.06    4.02
   0  -3   4  138.10    4.56
   0  -3  -5   73.41    2.98
   0  -3   5   73.12    3.48
   0  -3  -6   23.57    1.97
   0  -3  -6   24.65    2.14
   0  -3   6   27.27    2.29
   0  -3   6   27.80    1.63
   0  -3   6   27.76    2.25
   0  -3   6   24.38    1.99
   0  -3   7   24.97    2.03
   0  -3  -7   22.72    2.00
   0  -3   7   27.00    2.31
   0  -3  -7   24.24    2.20
   0  -3  -8  144.87    5.61
   0  -3  -8  151.14    5.40
   0  -3   8  151.53    5.74
   0  -3   8  141.50    5.07
   0  -3  -9   76.96    3.47
   0  -3  -9   81.00    3.26
   0  -3   9   79.56    3.59
   0  -3 -10   31.34    1.58
   0  -3  10   27.96    1.57
   0  -2   0 2668.82   45.10
   0  -2   0 2655.45   44.85
   0  -2   1  524.25    9.48
   0  -2  -1  516.39    9.09
   0  -2   1  506.09    9.67
   0  -2   1  513.35    9.48
   0  -2  -2  278.68    6.20
   0  -2  -2  277.58    5.72
   0  -2  -2  289.09    5.28
   0  -2   2  282.73    6.02
   0  -2  -3  577.28   10.81
   0  -2  -3  632.84   12.06
   0  -2  -3  590.68   11.46
   0  -2   3  623.54   12.05
   0  -2  -3  641.19   12.06
   0  -2  -4  258.11    6.39
   0  -2   4  272.28    6.74
   0  -2  -4  251.71    6.56
   0  -2  -5  177.43    5.62
   0  -2   5  185.14    5.74
   0  -2   6   35.97    2.18
   0  -2  -6   39.60    2.62
   0  -2   6   39.69    2.37
   0  -2   6   39.53    2.65
   0  -2  -6   37.37    2.20
   0  -2  -6   37.74    2.39
   0  -2  -6   36.32    2.45
   0  -2   6   39.27    2.48
   0  -2  -7  236.28    7.50
   0  -2   7  223.29    7.67
   0  -2  -7  236.66    6.98
   0  -2  -7  226.15    7.70
   0  -2  -7  232.57    7.26
   0  -2   7  244.71    7.55
   0  -2   7  230.12    6.94
   0  -2  -8    1.24    0.52
   0  -2   8    0.88    0.42
   0  -2  -8    1.29    0.58
   0  -2   8    2.14    0.69
   0  -2  -9   15.48    1.53
   0  -2  -9   16.24    1.54
   0  -2   9   14.25    1.50
   0  -2 -10   47.85    2.18
   0  -2  10   48.98    2.33
   0  -2 -10   48.23    2.14
   0  -1   0   -0.02    0.05
   0  -1   0    0.14    0.06
   0  -1  -1 3310.28   55.16
   0  -1   1 3202.14   55.39
   0  -1   1 3259.82   55.54
   0  -1   1 3302.02   55.43
   0  -1  -1 3314.90   55.51
   0  -1  -2 2919.76   49.76
   0  -1   2 2890.78   49.75
   0  -1  -3  127.40    2.89
   0  -1   3  132.63    3.59
   0  -1  -3  135.83    3.38
   0  -1  -4  522.52   11.01
   0  -1   4  532.90   10.97
   0  -1  -4  501.42   10.28
   0  -1  -4  518.61    9.81
   0  -1   5  568.06   12.49
   0  -1  -5  574.24   12.61
   0  -1   6   84.32    3.82
   0  -1  -6   83.66    3.83
   0  -1  -6   77.58    3.47
   0  -1  -6   81.80    3.37
   0  -1   7    4.89    0.93
   0  -1  -7    4.73    0.92
   0  -1   7    4.77    1.00
   0  -1   7    4.32    0.76
   0  -1  -7    5.31    1.03
   0  -1   7    5.46    0.89
   0  -1  -7    5.06    0.89
   0  -1   8   74.23    3.45
   0  -1  -8   74.77    3.74
   0  -1  -8   73.92    3.58
   0  -1  -8   75.62    3.74
   0  -1   8   73.82    3.72
   0  -1  -9   70.95    3.38
   0  -1   9   70.64    3.47
   0  -1  -9   71.04    3.46
   0  -1 -10   92.33    3.23
   0  -1  10   94.70    3.51
   0  -1 -10   92.18    3.43
   0   0   1  267.03    4.83
   0   0  -1  263.20    4.67
   0   0   2 3535.80   58.77
   0   0   2 3476.82   58.18
   0   0  -2 3401.12   58.38
   0   0  -2 3405.58   58.82
   0   0  -3    0.56    0.18
   0   0  -3    1.00    0.22
   0   0   3    1.00    0.28
   0   0  -4  272.52    5.82
   0   0   4  275.32    6.52
   0   0  -4  276.84    5.97
   0   0  -5   18.55    1.19
   0   0   5   17.69    1.08
   0   0  -5   19.70    1.10
   0   0   5   18.35    1.44
   0   0  -5   18.74    1.11
   0   0  -6   55.02    3.05
   0   0  -6   54.17    2.36
   0   0   6   55.10    2.95
   0   0  -6   56.05    2.27
   0   0   7    7.77    1.03
   0   0  -7    6.14    0.98
   0   0   7    7.61    1.25
   0   0  -7    7.22    1.21
   0   0  -7    7.53    1.07
   0   0  -7    8.46    1.17
   0   0  -8  367.40    9.73
   0   0  -8  367.62    9.56
   0   0   8  349.52    9.20
   0   0   9    1.55    0.57
   0   0  -9    0.14    0.31
   0   0  -9    1.42    0.44
   0   0   9    1.25    0.53
   0   0  10   12.09    1.17
   0   0 -10   13.18    1.23
   0   1   0    0.36    0.06
   0   1  -1 3303.61   55.75
   0   1  -1 3247.94   55.57
   0   1   1 3346.33   55.52
   0   1   2 2872.06   48.65
   0   1  -2 2838.32   48.87
   0   1  -3  132.76    3.23
   0   1  -3  129.55    3.14
   0   1  -3  128.57    3.53
   0   1   3  133.17    3.35
   0   1   3  131.67    3.16
   0   1   4  544.31   10.39
   0   1  -4  524.65   10.52
   0   1  -4  535.43   10.79
   0   1   4  533.84   10.16
   0   1  -5  577.94   11.78
   0   1   5  575.46   11.34
   0   1  -5  581.14   11.57
   0   1   5  560.57   11.46
   0   1   5  569.40   12.17
   0   1  -6   80.10    3.00
   0   1   6   82.42    3.51
   0   1   6   81.15    3.22
   0   1  -6   79.65    3.15
   0   1  -6   85.49    3.03
   0   1   6   76.72    3.48
   0   1   6   82.84    2.94
   0   1  -7    4.63    0.75
   0   1  -7    6.39    0.92
   0   1  -7    4.79    0.86
   0   1   7    6.00    0.91
   0   1  -7    8.10    0.93
   0   1   7    5.92    0.76
   0   1  -7    5.83    1.04
   0   1  -7    4.36    0.97
   0   1  -8   72.54    3.34
   0   1   8   75.14    3.41
   0   1  -8   75.79    3.61
   0   1   9   69.32    3.12
   0   1  -9   70.05    3.36
   0   1  -9   72.79    2.96
   0   1 -10   95.44    3.50
   0   1  10   91.94    3.35
   0   2   0 2673.83   45.07
   0   2   1  504.16    9.23
   0   2   1  514.85    9.61
   0   2  -1  512.09    9.30
   0   2  -2  277.13    5.81
   0   2  -2  273.08    5.60
   0   2   2  279.56    6.00
   0   2  -2  285.30    5.32
   0   2  -3  609.14   11.30
   0   2  -3  610.57   11.51
   0   2  -3  620.59   11.87
   0   2   3  618.80   11.23
   0   2  -4  266.31    6.65
   0   2   4  263.03    6.10
   0   2  -4  274.47    6.20
   0   2  -4  274.94    6.47
   0   2   4  279.70    5.86
   0   2   5  180.66    4.53
   0   2  -5  174.75    5.08
   0   2  -5  176.84    4.82
   0   2   5  174.57    4.43
   0   2   6   38.11    2.18
   0   2   6   39.20    2.39
   0   2  -6   36.25    2.04
   0   2  -6   41.70    2.31
   0   2  -6   39.96    2.60
   0   2   6   38.26    2.02
   0   2  -7  243.58    7.97
   0   2  -7  236.88    6.44
   0   2   7  236.62    6.71
   0   2  -7  228.81    6.44
   0   2  -7  214.69    6.60
   0   2  -7  239.87    6.88
   0   2   7  233.54    6.23
   0   2  -8    1.94    0.61
   0   2  -8    0.78    0.41
   0   2   8    1.18    0.53
   0   2  -9   15.48    1.31
   0   2  -9   15.38    1.47
   0   2   9   16.20    1.37
   0   2  10   51.83    2.21
   0   2 -10   49.18    1.89
   0   2 -10   50.70    2.30
   0   2  10   48.18    2.10
   0   3   0    0.44    0.10
   0   3   1 1008.01   18.15
   0   3   1 1006.27   18.59
   0   3   1 1018.60   18.05
   0   3  -1 1011.60   17.92
   0   3  -1  995.37   17.90
   0   3   2   20.09    1.08
   0   3  -2   21.03    1.15
   0   3  -2   20.50    0.91
   0   3   2   20.57    0.89
   0   3  -2   19.99    1.08
   0   3   2   18.50    1.23
   0   3  -2   21.50    1.05
   0   3  -3  192.57    4.65
   0   3  -3  198.22    5.06
   0   3   3  204.12    5.24
   0   3   3  198.64    4.64
   0   3  -3  202.40    4.95
   0   3  -4  140.12    3.84
   0   3  -4  135.61    4.39
   0   3  -4  130.89    4.02
   0   3   4  130.72    4.18
   0   3  -4  145.62    4.40
   0   3   4  142.94    3.72
   0   3  -5   69.42    3.07
   0   3  -5   72.94    2.93
   0   3   5   69.30    2.76
   0   3   5   75.13    2.59
   0   3  -5   71.82    3.37
   0   3  -6   28.73    1.90
   0   3   6   25.72    1.51
   0   3   6   28.37    2.07
   0   3  -6   26.03    1.92
   0   3   6   26.76    1.86
   0   3   6   25.00    1.76
   0   3  -6   27.88    2.22
   0   3  -7   22.70    1.77
   0   3   7   24.51    1.84
   0   3  -7   22.94    1.87
   0   3   7   27.36    1.81
   0   3  -7   27.32    1.94
   0   3  -7   22.27    1.73
   0   3   7   23.41    1.97
   0   3  -8  148.97    4.89
   0   3   8  153.80    5.00
   0   3   8  147.31    4.52
   0   3  -8  142.65    5.01
   0   3  -9   81.64    3.33
   0   3  -9   86.25    3.22
   0   3   9   83.26    3.20
   0   3  10   28.71    1.43
   0   3 -10   31.98    1.56
   0   3  10   30.21    1.46
   0   3 -10   27.98    1.32
   0   4   0 3098.08   54.56
   0   4   1   56.29    2.06
   0   4   1   57.81    2.14
   0   4  -1   55.59    1.86
   0   4   1   59.95    2.49
   0   4  -2  113.10    3.26
   0   4   2  112.86    3.89
   0   4  -2  112.57    3.17
   0   4  -2  118.37    3.04
   0   4  -2  111.88    3.39
   0   4  -2  111.84    3.25
   0   4   2  114.65    3.43
   0   4   3  177.22    5.20
   0   4  -3  178.54    5.03
   0   4  -3  172.19    4.47
   0   4  -3  176.56    4.84
   0   4   3  174.84    4.53
   0   4  -3  176.20    4.85
   0   4  -3  168.27    4.82
   0   4  -4   57.11    2.55
   0   4  -4   54.11    2.63
   0   4   4   48.22    2.60
   0   4  -4   53.76    2.26
   0   4  -4   51.16    2.61
   0   4  -4   58.54    2.74
   0   4   5   23.20    1.72
   0   4   5   25.49    1.94
   0   4  -5   28.16    1.86
   0   4  -5   22.13    1.88
   0   4   6  109.18    4.22
   0   4  -6  120.05    4.44
   0   4   6  120.58    4.64
   0   4   6  113.50    3.87
   0   4   6  125.34    4.48
   0   4  -6  118.14    4.63
   0   4  -7    5.03    0.83
   0   4   7    3.64    0.79
   0   4  -7    3.29    0.73
   0   4  -7    5.44    0.92
   0   4  -7    4.26    0.77
   0   4   7    4.63    0.83
   0   4   7    3.61    0.68
   0   4   8  102.41    3.72
   0   4  -8   92.76    3.62
   0   4   8   92.08    3.34
   0   4  -9   14.23    1.14
   0   4   9   14.62    1.12
   0   4  -9   14.93    1.17
   0   5   0   -0.09    0.33
   0   5   0   -0.10    0.27
   0   5   1   33.69    2.06
   0   5  -1   33.15    2.16
   0   5   1   32.79    2.12
   0   5  -1   36.07    1.69
   0   5  -2   42.32    1.84
   0   5   2   40.85    2.40
   0   5  -2   40.52    1.98
   0   5   2   41.92    2.07
   0   5  -2   39.29    1.98
   0   5   3   19.58    1.64
   0   5  -3   20.53    1.54
   0   5  -3   19.74    1.46
   0   5  -3   18.68    1.25
   0   5   4   90.12    3.98
   0   5  -4   96.67    3.71
   0   5  -4   94.64    3.83
   0   5  -5  323.52    8.69
   0   5   5  306.11    8.39
   0   5   5  332.84    8.54
   0   5  -5  332.06    8.56
   0   5   6   74.82    3.13
   0   5   6   81.38    3.52
   0   5   6   73.37    3.38
   0   5  -6   77.17    3.49
   0   5  -6   82.17    3.73
   0   5  -6   76.98    3.60
   0   5   6   76.94    3.36
   0   5  -7   15.92    1.31
   0   5   7   16.20    1.39
   0   5  -7   16.97    1.51
   0   5   7   18.62    1.49
   0   5   8  116.20    3.62
   0   5  -8  116.41    3.65
   0   5   8  117.02    3.75
   0   5   8  120.23    3.19
   0   5  -9   17.03    1.06
   0   5   9   17.13    0.99
   0   6   0  526.16   12.45
   0   6   1  364.18    9.45
   0   6  -1  351.89    9.50
   0   6  -1  362.26    8.90
   0   6  -2   37.19    2.54
   0   6   2   48.23    2.77
   0   6   3   82.72    3.96
   0   6  -3   98.82    3.63
   0   6  -4   32.53    2.11
   0   6  -4   28.99    2.09
   0   6  -4   30.53    2.02
   0   6   4   27.17    2.13
   0   6  -5   13.32    1.38
   0   6  -5   11.28    1.23
   0   6  -5   11.91    1.32
   0   6   6  105.07    3.88
   0   6   6  100.69    3.64
   0   6  -6  104.48    3.95
   0   6   7   31.26    1.75
   0   6   7   33.85    1.74
   0   6   8   51.99    1.84
   0   6  -8   53.16    2.03
   0   7   0   -0.24    0.45
   0   7   1  206.57    6.31
   0   7  -1  176.89    5.79
   0   7  -2  170.60    5.35
   0   7   2  162.02    5.66
   0   7  -3    7.92    1.06
   0   7  -4  275.56    7.27
   0   7   5   80.35    3.17
   0   7   5   84.70    2.92
   0   7   6   82.26    2.61
   0   7   6   83.21    2.91
   0   8   4   20.32    1.24
   1  -9  -3   22.08    1.09
  -1  -9   2   16.32    1.08
   1  -9  -2   17.26    1.01
  -1  -9   1   46.91    2.04
   1  -9  -1   47.38    1.74
   1  -9   0    0.08    0.18
  -1  -9   0    0.17    0.20
  -1  -9  -1    7.81    0.79
   1  -9   1    6.91    0.67
  -1  -9  -2    9.66    0.71
  -1  -9  -3   22.25    1.06
  -1  -8   5   23.45    1.46
   1  -8  -5   20.55    1.24
  -1  -8   4   12.94    1.08
  -1  -8   4   14.71    1.31
   1  -8  -4   13.39    1.14
   1  -8  -3   20.74    1.53
  -1  -8   3   22.80    1.65
  -1  -8   2  134.20    4.79
   1  -8  -2  135.97    4.57
   1  -8  -1  106.18    3.79
  -1  -8   1  102.16    4.10
  -1  -8   0   66.79    3.16
   1  -8   0   64.30    2.64
   1  -8   0   70.28    3.07
   1  -8   1   12.09    0.95
  -1  -8  -1   13.02    1.29
   1  -8   1   10.65    1.10
  -1  -8  -1   11.72    1.12
   1  -8   2    8.97    0.97
  -1  -8  -2    8.68    1.02
   1  -8   2    9.09    0.88
  -1  -8  -2    7.04    0.92
  -1  -8  -3   30.29    1.90
   1  -8   3   33.57    1.72
   1  -8   4   19.88    1.53
  -1  -8  -4   17.77    1.34
   1  -8   5   23.51    1.46
  -1  -8  -5   21.66    1.30
  -1  -7   7  100.84    3.20
  -1  -7   6   67.98    2.99
   1  -7  -6   63.49    2.54
  -1  -7   5   38.04    2.44
  -1  -7   5   38.37    2.10
   1  -7  -5   32.78    2.07
  -1  -7   4  299.41    8.24
   1  -7  -4  312.70    8.32
  -1  -7   4  313.09    8.77
  -1  -7   3  139.36    5.40
  -1  -7   3  135.57    5.20
   1  -7  -3  133.02    5.00
   1  -7  -2   23.15    1.89
  -1  -7   2   22.52    1.98
   1  -7  -2   26.16    1.91
  -1  -7   2   21.87    1.98
   1  -7  -1    5.91    0.96
   1  -7  -1    5.92    0.94
  -1  -7   1    5.66    1.02
  -1  -7   1    5.40    1.01
   1  -7   0  138.13    4.70
   1  -7   0  148.37    5.11
  -1  -7   0  145.66    5.39
  -1  -7   0  144.30    4.81
   1  -7   1   63.99    2.74
   1  -7   1   61.08    2.69
  -1  -7  -1   60.32    3.19
   1  -7   1   57.53    3.03
  -1  -7  -1   60.01    3.07
   1  -7   1   67.18    3.57
   1  -7   2   16.82    1.39
  -1  -7  -2   14.57    1.55
   1  -7   2   15.43    1.68
  -1  -7  -2   14.59    1.48
   1  -7   2   15.78    1.45
  -1  -7  -3   12.37    1.29
   1  -7   3   10.82    1.39
   1  -7   3   11.00    1.12
  -1  -7  -3   10.77    1.37
   1  -7   4   72.49    3.68
  -1  -7  -4   74.33    3.58
  -1  -7  -5    9.13    1.11
   1  -7   5    9.38    0.93
   1  -7   5    8.00    1.09
   1  -7   6   91.23    3.50
  -1  -7  -6   91.76    3.30
   1  -7   7   67.96    2.39
   1  -6  -8    1.14    0.38
  -1  -6   8    1.21    0.37
   1  -6  -7   20.47    1.29
   1  -6  -7   20.51    1.67
  -1  -6   7   19.08    1.65
   1  -6  -6   10.53    1.16
  -1  -6   6    9.59    1.33
   1  -6  -6    9.32    1.26
  -1  -6   5  219.99    7.40
  -1  -6   5  224.78    6.75
   1  -6  -5  222.97    7.23
   1  -6  -5  215.55    6.75
   1  -6  -4    7.49    1.12
   1  -6  -4    9.33    1.29
  -1  -6   4    8.02    1.17
  -1  -6   4    8.95    1.36
  -1  -6   3  292.71    8.74
   1  -6  -3  315.64    8.63
   1  -6  -3  309.99    7.96
  -1  -6   3  292.33    7.46
  -1  -6   3  273.96    8.37
   1  -6  -3  282.08    8.34
   1  -6  -2  578.67   13.59
   1  -6  -2  551.55   12.43
  -1  -6   2  551.67   13.23
   1  -6  -2  525.63   12.74
  -1  -6   2  520.44   12.99
  -1  -6   2  553.77   11.77
  -1  -6   1  120.75    4.72
  -1  -6   1  134.88    4.98
  -1  -6   1  120.51    4.85
   1  -6  -1  116.28    4.49
   1  -6  -1  112.34    4.39
  -1  -6   1  127.25    4.32
  -1  -6   1  124.51    3.89
   1  -6  -1  130.77    4.98
  -1  -6   0   97.18    3.89
   1  -6   0  108.79    4.45
  -1  -6   0  100.05    3.94
   1  -6   0  100.07    3.91
  -1  -6   0  105.90    4.21
  -1  -6   0  101.24    4.37
   1  -6   0   99.53    4.13
  -1  -6   0  110.94    4.39
   1  -6   0  102.47    4.10
  -1  -6   0   99.55    4.24
  -1  -6  -1   61.88    3.20
  -1  -6  -1   68.77    3.44
   1  -6   1   63.15    2.79
  -1  -6  -1   62.05    3.19
   1  -6   1   64.20    3.41
   1  -6   1   67.02    2.84
   1  -6   1   58.45    3.02
   1  -6   1   68.70    3.17
  -1  -6  -1   63.07    3.21
   1  -6   2  262.20    8.13
  -1  -6  -2  262.97    7.95
   1  -6   2  254.85    7.41
  -1  -6  -2  258.76    7.50
  -1  -6  -2  285.39    8.21
  -1  -6  -2  288.33    8.27
   1  -6   2  277.13    7.12
   1  -6   3   74.84    3.17
   1  -6   3   67.70    3.72
  -1  -6  -3   72.38    3.30
  -1  -6  -3   75.37    3.84
  -1  -6  -3   63.43    3.55
  -1  -6  -4   32.61    2.00
  -1  -6  -4   26.76    2.28
   1  -6   4   29.97    1.92
  -1  -6  -4   29.30    2.35
   1  -6   4   27.17    2.37
   1  -6   5   53.13    3.28
  -1  -6  -5   55.10    3.04
  -1  -6  -5   52.10    3.10
   1  -6   5   63.50    2.76
  -1  -6  -6   34.95    2.30
  -1  -6  -6   34.62    2.26
   1  -6   6   35.28    2.48
   1  -6   6   34.41    1.84
  -1  -6  -7    7.48    0.92
   1  -6   7    7.52    0.99
  -1  -6  -7    7.47    0.87
   1  -6   8   61.47    2.31
  -1  -5   9   31.37    1.64
   1  -5  -9   35.06    1.71
   1  -5  -8   28.66    1.97
  -1  -5   8   26.29    1.93
   1  -5  -7   18.96    1.83
  -1  -5   7   16.89    1.78
   1  -5  -6  300.95    9.04
   1  -5  -6  285.41    8.05
  -1  -5   6  314.61    9.27
  -1  -5   5    9.02    1.39
  -1  -5   5   10.57    1.34
   1  -5  -5   10.17    1.30
   1  -5  -5    9.60    1.42
   1  -5  -4   68.49    3.61
  -1  -5   4   65.94    3.44
   1  -5  -4   63.45    3.37
  -1  -5   4   74.12    3.87
   1  -5  -4   73.24    4.00
   1  -5  -4   81.01    3.30
  -1  -5   4   73.09    3.02
   1  -5  -3  219.82    6.10
   1  -5  -3  203.22    6.53
  -1  -5   3  224.72    5.90
  -1  -5   3  211.13    6.70
   1  -5  -3  219.63    7.15
  -1  -5   3  210.93    6.86
   1  -5  -3  211.49    6.70
   1  -5  -2   87.65    3.94
  -1  -5   2   93.27    3.25
  -1  -5   1  141.05    4.35
   1  -5  -1  143.66    4.97
   1  -5   0  104.62    3.19
   1  -5   0  100.95    3.87
  -1  -5   0  100.27    3.68
  -1  -5  -1   73.01    3.23
   1  -5   1   79.20    2.80
   1  -5   1   72.99    3.09
  -1  -5  -2  155.56    5.40
   1  -5   2  144.72    5.39
  -1  -5  -2  162.80    5.50
   1  -5   2  165.03    4.90
  -1  -5  -2  158.59    5.49
  -1  -5  -3   23.55    1.72
  -1  -5  -3   24.49    2.09
  -1  -5  -3   24.21    2.06
   1  -5   3   25.00    2.12
  -1  -5  -3   25.07    2.04
   1  -5   3   25.95    1.70
   1  -5   4   38.30    2.13
   1  -5   4   35.50    2.45
  -1  -5  -4   35.70    2.72
  -1  -5  -4   39.10    2.18
  -1  -5  -4   36.19    2.52
  -1  -5  -4   32.86    2.35
  -1  -5  -4   33.31    2.52
   1  -5   4   34.88    2.62
  -1  -5  -5  211.48    6.71
   1  -5   5  203.56    6.80
   1  -5   5  203.92    5.79
  -1  -5  -5  199.63    6.77
   1  -5   5  192.95    7.00
  -1  -5  -5  198.27    6.89
  -1  -5  -6   48.14    3.03
  -1  -5  -6   50.35    3.03
   1  -5   6   50.57    2.39
   1  -5   6   43.59    3.02
   1  -5   7  114.84    4.76
  -1  -5  -7  114.04    4.30
  -1  -5  -7  118.72    4.74
   1  -5   8   51.04    2.61
  -1  -5  -8   51.41    2.57
  -1  -4   9   85.05    3.47
   1  -4  -9   90.14    3.44
   1  -4  -9   89.36    3.06
   1  -4  -8   17.86    1.60
  -1  -4   8   18.53    1.80
   1  -4  -8   19.33    1.81
   1  -4  -7  392.82   10.78
  -1  -4   7  393.34   10.84
   1  -4  -7  375.78   10.17
   1  -4  -6  442.00   11.44
  -1  -4   6  464.23   12.03
  -1  -4   6  466.66   12.18
   1  -4  -6  449.70   10.94
   1  -4  -6  451.65   12.01
   1  -4  -5   95.69    4.07
  -1  -4   5   96.43    4.48
  -1  -4   5  102.79    3.60
   1  -4  -5   95.98    4.21
   1  -4  -5  101.54    4.74
  -1  -4   5  106.51    4.45
   1  -4  -5   99.71    4.52
  -1  -4   5   99.73    4.22
   1  -4  -4   17.68    1.74
  -1  -4   4   18.35    1.58
  -1  -4   3  723.33   14.84
   1  -4  -3  738.76   15.86
   1  -4  -2  477.36   11.26
  -1  -4   2  509.50   10.18
  -1  -4   2  500.19   10.32
   1  -4  -1  424.08    9.83
  -1  -4   1  413.36    9.09
  -1  -4   0   36.25    1.82
   1  -4   0   38.38    1.60
   1  -4   0   36.63    1.96
   1  -4   1  272.54    6.59
  -1  -4  -1  261.07    6.73
   1  -4   1  276.26    6.17
  -1  -4  -2 2207.16   41.51
   1  -4   2 2278.75   40.60
   1  -4   2 2252.57   40.49
  -1  -4  -3   13.39    1.38
   1  -4   3   11.48    1.16
  -1  -4  -4  104.50    4.19
   1  -4   4  106.01    3.60
  -1  -4  -4  104.10    4.54
   1  -4   4  102.81    4.13
   1  -4   4  103.13    4.20
  -1  -4  -4  104.50    4.48
   1  -4   4   93.29    4.23
  -1  -4  -5  154.07    6.02
  -1  -4  -5  159.68    5.44
  -1  -4  -5  154.43    5.70
   1  -4   5  148.04    5.79
  -1  -4  -5  152.63    6.03
   1  -4   5  156.65    5.62
   1  -4   5  160.46    4.76
   1  -4   5  161.21    5.97
  -1  -4  -6  158.35    5.80
   1  -4   6  156.29    6.12
  -1  -4  -6  152.20    5.94
   1  -4   6  164.97    4.81
   1  -4   6  155.19    5.76
   1  -4   7   15.08    1.62
  -1  -4  -7   15.14    1.54
  -1  -4  -7   15.57    1.76
   1  -4   7   14.07    1.68
  -1  -4  -8   35.79    2.42
   1  -4   8   35.15    2.41
   1  -4   9   32.07    1.85
  -1  -4  -9   32.84    1.90
   1  -3 -10  201.61    4.92
  -1  -3  10  194.85    5.19
  -1  -3   9   80.55    3.65
   1  -3  -9   80.18    3.49
   1  -3  -9   80.89    3.46
  -1  -3   8  306.44    8.97
   1  -3  -8  295.73    8.77
   1  -3  -8  302.44    8.70
   1  -3  -7   58.11    3.36
   1  -3  -7   56.62    3.42
  -1  -3   7   60.31    3.49
   1  -3  -7   53.20    3.05
  -1  -3   6   17.05    1.75
   1  -3  -6   13.95    1.43
   1  -3  -6   13.88    1.63
  -1  -3   6   14.81    1.52
   1  -3  -6   14.28    1.61
  -1  -3   6   15.05    1.67
  -1  -3   5  205.11    6.32
   1  -3  -5  200.79    5.94
   1  -3  -4  359.94    8.54
  -1  -3   4  377.61    8.88
   1  -3  -3  558.91   11.98
  -1  -3   3  545.50   11.40
   1  -3  -3  548.86   10.56
  -1  -3   2 1271.70   23.80
   1  -3  -2 1289.11   24.50
   1  -3  -2 1287.16   23.31
  -1  -3   1   52.75    1.76
   1  -3  -1   52.23    2.18
   1  -3  -1   52.51    1.74
  -1  -3   1   49.63    1.82
  -1  -3   0  414.63    8.53
   1  -3   0  404.82    8.70
   1  -3   0  412.80    8.17
  -1  -3   0  419.85    8.50
  -1  -3   0  424.46    7.86
   1  -3   1  354.51    7.26
  -1  -3  -1  340.83    7.65
   1  -3   1  368.91    7.64
  -1  -3  -1  358.02    7.72
   1  -3   1  352.62    7.12
   1  -3   2  373.99    7.86
  -1  -3  -2  370.63    8.39
   1  -3   2  365.23    8.01
  -1  -3  -2  366.61    8.38
   1  -3   3   96.00    3.04
   1  -3   3   91.79    3.32
  -1  -3  -3   94.49    3.45
  -1  -3  -4  242.83    6.81
   1  -3   4  257.66    7.00
   1  -3   5   54.46    3.05
  -1  -3  -5   53.35    3.11
  -1  -3  -5   50.72    2.86
   1  -3   5   52.89    2.99
   1  -3   5   55.90    2.91
   1  -3   6  247.38    7.85
   1  -3   6  253.99    8.23
  -1  -3  -6  259.35    8.04
   1  -3   6  265.30    7.70
  -1  -3  -6  261.59    7.89
   1  -3   6  242.85    7.02
  -1  -3  -7  397.83   10.11
  -1  -3  -7  401.76   10.90
   1  -3   7  404.40   10.46
   1  -3   7  405.34   11.01
   1  -3   8   62.37    3.43
   1  -3   8   63.30    3.15
  -1  -3  -8   63.70    3.45
   1  -3   9    6.21    0.93
  -1  -3  -9    5.34    0.87
  -1  -3 -10   14.17    1.00
   1  -2 -10   18.91    1.26
   1  -2 -10   18.62    1.37
  -1  -2  10   18.80    1.43
   1  -2  -9   20.64    1.80
   1  -2  -9   18.72    1.65
  -1  -2   9   17.21    1.66
   1  -2  -8  151.13    5.73
  -1  -2   8  161.98    5.94
   1  -2  -8  151.98    5.80
   1  -2  -7   78.39    3.95
   1  -2  -7   78.23    4.00
  -1  -2   7   72.95    3.79
  -1  -2   7   77.33    4.08
   1  -2  -7   80.03    3.98
   1  -2  -7   78.72    3.74
  -1  -2   7   81.59    3.60
  -1  -2   6   56.90    3.13
   1  -2  -6   51.98    3.01
   1  -2  -6   56.68    2.90
   1  -2  -6   55.94    3.08
  -1  -2   6   63.14    3.18
  -1  -2   6   57.38    2.88
   1  -2  -6   56.49    3.04
  -1  -2   5  191.77    5.78
   1  -2  -5  179.08    5.37
   1  -2  -5  198.53    5.71
  -1  -2   4  191.82    5.38
   1  -2  -4  191.38    4.62
   1  -2  -4  195.90    5.21
   1  -2  -4  209.72    4.75
   1  -2  -4  196.41    5.25
  -1  -2   3  869.14   16.57
   1  -2  -3  854.82   15.85
   1  -2  -3  864.05   16.39
   1  -2  -3  899.31   15.64
   1  -2  -3  869.94   16.22
   1  -2  -2  451.24    9.12
   1  -2  -2  467.06    8.26
   1  -2  -2  468.45    8.71
   1  -2  -2  465.83    8.80
  -1  -2   2  463.37    9.14
  -1  -2   1  218.84    4.56
   1  -2  -1  211.36    4.92
  -1  -2   1  216.55    4.47
   1  -2  -1  220.71    4.53
  -1  -2   0   37.52    1.33
   1  -2   0   35.99    1.26
   1  -2   1  640.00   12.06
   1  -2   1  665.50   12.20
  -1  -2  -1  666.19   12.27
   1  -2   1  660.13   12.08
   1  -2   2 1228.06   22.80
  -1  -2  -2 1276.38   21.94
   1  -2   2 1285.24   22.53
  -1  -2  -2 1261.82   22.82
   1  -2   3  112.78    3.58
  -1  -2  -3  109.27    3.41
   1  -2   3  120.78    3.23
  -1  -2  -4  461.21   10.46
  -1  -2  -4  451.96    9.95
   1  -2   4  453.43   10.37
  -1  -2  -5  177.69    5.31
  -1  -2  -5  181.81    5.94
   1  -2   5  182.53    5.91
  -1  -2  -6  956.79   19.50
  -1  -2  -6  891.92   19.11
   1  -2   6  877.36   18.62
   1  -2   6  876.55   19.71
   1  -2   6  902.86   18.27
   1  -2   6  918.64   19.21
  -1  -2  -6  902.71   18.69
   1  -2   6  957.44   19.01
  -1  -2  -7  229.65    6.99
  -1  -2  -7  234.18    7.23
   1  -2   7  221.07    6.88
   1  -2   7  230.06    7.33
  -1  -2  -7  224.16    7.30
  -1  -2  -8   90.49    4.23
  -1  -2  -8   85.22    3.87
   1  -2   8   91.28    4.21
   1  -2   8   87.07    3.80
   1  -2   9    6.13    0.97
  -1  -2  -9    6.68    0.92
   1  -2   9    5.40    0.78
  -1  -2  -9    5.41    0.90
  -1  -2 -10    5.19    0.69
   1  -2  10    5.41    0.69
   1  -1 -10   33.40    1.99
  -1  -1  10   33.01    1.98
   1  -1  -9   18.15    1.74
  -1  -1   9   15.77    1.60
   1  -1  -9   16.54    1.52
   1  -1  -8  105.67    4.68
   1  -1  -8  106.37    4.52
   1  -1  -8  110.23    4.63
  -1  -1   8  115.81    4.74
   1  -1  -7  281.79    8.32
  -1  -1   7  287.76    7.96
   1  -1  -7  284.29    8.09
   1  -1  -7  291.83    8.72
  -1  -1   7  290.52    8.64
   1  -1  -7  282.89    8.23
   1  -1  -6  294.02    8.09
   1  -1  -6  295.36    7.55
  -1  -1   6  288.94    7.99
  -1  -1   6  280.24    7.49
   1  -1  -6  267.36    7.70
  -1  -1   5  150.12    4.74
   1  -1  -5  149.00    4.44
  -1  -1   4  110.36    3.51
   1  -1  -4  107.26    3.22
  -1  -1   3  432.71    9.02
   1  -1  -3  456.24    8.72
  -1  -1   2   86.60    2.38
   1  -1  -2   88.54    2.24
   1  -1  -2   85.63    2.13
   1  -1  -1   16.66    0.60
  -1  -1   1   17.24    0.75
   1  -1  -1   17.79    0.72
   1  -1  -1   18.64    0.59
  -1  -1   0  866.88   14.81
   1  -1   0  850.77   15.01
  -1  -1   0  864.48   14.73
   1  -1   0  838.32   15.06
  -1  -1  -1 1568.93   26.66
   1  -1   1 1634.33   26.95
  -1  -1  -2 2806.68   47.22
   1  -1   2 2830.44   46.67
  -1  -1  -2 2687.03   45.94
   1  -1   2 2754.13   47.14
   1  -1   3 2284.18   40.23
  -1  -1  -3 2376.29   39.70
   1  -1   3 2323.57   39.43
  -1  -1  -4  553.76   11.04
   1  -1   4  551.20   11.80
  -1  -1  -4  561.33   10.41
  -1  -1  -4  522.63   11.72
  -1  -1  -5  649.95   14.19
  -1  -1  -5  637.54   13.06
   1  -1   5  654.97   14.16
  -1  -1  -6  176.74    6.19
   1  -1   6  182.35    5.53
   1  -1   6  175.77    6.17
  -1  -1  -6  175.10    5.43
  -1  -1  -6  172.91    5.56
   1  -1   6  173.65    5.20
  -1  -1  -7  171.03    5.87
  -1  -1  -7  177.72    6.63
   1  -1   7  168.60    5.81
  -1  -1  -7  167.41    5.67
   1  -1   7  174.09    5.46
   1  -1   7  167.51    6.51
   1  -1   7  170.99    5.59
  -1  -1  -8  173.01    6.08
  -1  -1  -8  176.04    5.96
   1  -1   8  173.58    5.53
   1  -1   8  172.82    5.61
   1  -1   8  185.35    6.20
   1  -1   9    9.93    1.21
  -1  -1  -9    9.96    1.18
   1  -1   9   10.36    1.07
  -1  -1  -9   10.81    1.26
  -1  -1 -10   12.64    1.05
  -1  -1 -10   11.65    1.05
   1  -1  10   10.95    1.01
  -1   0  10   27.29    1.79
   1   0 -10   28.98    1.87
  -1   0   9  393.22    9.88
   1   0  -9  375.26    9.96
   1   0  -8   33.57    2.46
  -1   0   8   35.26    2.34
   1   0  -8   36.22    2.23
   1   0  -8   33.51    2.28
  -1   0   7  214.92    6.47
   1   0  -7  211.16    6.22
  -1   0   7  220.58    7.07
   1   0  -7  216.23    6.78
   1   0  -7  231.95    7.45
   1   0  -7  204.48    6.44
   1   0  -7  213.02    6.80
   1   0  -6  287.69    7.68
  -1   0   6  274.31    7.69
   1   0  -5  256.26    6.64
  -1   0   5  268.31    6.05
   1   0  -5  253.82    5.82
  -1   0   5  250.93    6.60
   1   0  -5  258.80    6.03
   1   0  -4   17.33    1.19
   1   0  -4   21.14    1.11
   1   0  -4   20.43    1.04
  -1   0   4   19.75    1.26
   1   0  -4   19.01    1.29
   1   0  -4   19.56    1.12
   1   0  -3  465.32    8.97
   1   0  -3  454.99    9.23
   1   0  -3  470.43    9.26
   1   0  -3  462.75    8.92
  -1   0   3  478.00    9.24
   1   0  -3  470.91    8.84
   1   0  -2  326.66    6.33
  -1   0   2  321.31    6.34
   1   0  -2  326.12    6.40
  -1   0   1 3087.47   51.98
   1   0  -1 3059.24   52.04
   1   0   0  254.00    4.67
  -1   0   0  257.50    4.74
  -1   0  -1  607.78   10.83
   1   0   1  597.00   10.50
  -1   0  -2 9973.29  165.73
   1   0   2 9999.00  165.78
  -1   0  -3  451.58    8.62
   1   0   3  470.29    8.83
  -1   0  -3  460.65    8.55
  -1   0  -3  443.83    9.42
   1   0   3  443.31    9.38
  -1   0  -4  457.08   10.17
  -1   0  -4  449.75    9.07
   1   0   4  449.69   10.04
  -1   0  -4  464.94    8.98
   1   0   5  394.31    9.67
  -1   0  -5  404.21    8.57
  -1   0  -5  396.77    9.72
  -1   0  -6   10.40    0.98
  -1   0  -6   12.36    1.21
   1   0   6   11.45    1.38
   1   0   6   15.44    1.28
  -1   0  -6   12.87    1.46
  -1   0  -6   11.98    1.19
  -1   0  -6   10.95    1.13
  -1   0  -7   40.24    2.47
  -1   0  -7   37.04    2.81
   1   0   7   44.22    2.43
  -1   0  -7   41.76    2.51
   1   0   7   42.40    2.94
   1   0   7   45.50    2.47
   1   0   8  134.31    4.98
  -1   0  -8  135.76    5.02
  -1   0  -8  131.01    4.99
   1   0   8  127.09    4.61
   1   0   8  139.34    4.65
  -1   0  -9    1.87    0.52
   1   0   9    1.88    0.55
   1   0   9    1.36    0.45
  -1   0  -9    2.05    0.59
  -1   0 -10   31.66    1.69
   1   0  10   28.99    1.68
  -1   0 -10   30.89    1.78
  -1   1  10   32.35    1.87
   1   1 -10   30.58    1.88
   1   1  -9   15.16    1.54
  -1   1   9   18.89    1.59
   1   1  -9   19.13    1.52
   1   1  -8  110.99    4.57
   1   1  -8  113.38    4.28
  -1   1   8  110.55    4.35
   1   1  -7  277.38    7.88
  -1   1   7  300.63    6.89
  -1   1   7  274.04    7.61
   1   1  -7  277.79    8.35
  -1   1   6  284.59    7.32
   1   1  -6  276.07    6.90
  -1   1   6  283.57    6.93
  -1   1   6  312.01    7.81
   1   1  -6  285.60    7.49
   1   1  -6  292.72    8.01
   1   1  -6  281.71    7.07
   1   1  -5  160.67    4.34
   1   1  -5  149.63    4.88
  -1   1   5  162.46    4.34
  -1   1   5  155.17    4.55
   1   1  -5  154.50    4.90
   1   1  -5  150.29    4.43
   1   1  -5  153.71    4.33
   1   1  -4  108.41    3.46
   1   1  -4  109.77    3.51
   1   1  -4  105.60    3.07
  -1   1   4  106.81    2.72
   1   1  -4  106.02    3.19
   1   1  -4  105.05    3.07
   1   1  -3  460.76    9.01
  -1   1   3  445.27    8.50
   1   1  -3  429.24    8.62
   1   1  -3  410.69    8.75
  -1   1   3  453.91    8.38
  -1   1   3  407.83    8.29
   1   1  -3  438.05    8.55
  -1   1   2   85.33    2.08
   1   1  -2   82.88    2.29
  -1   1   1   17.08    0.66
   1   1  -1   15.75    0.74
   1   1  -1   17.32    0.71
   1   1   0  848.37   14.95
  -1   1   0  832.48   14.85
  -1   1   0  843.14   14.77
  -1   1   0  881.49   14.89
  -1   1  -1 1575.92   26.66
   1   1   1 1566.29   27.00
   1   1   2 2856.45   49.21
  -1   1  -2 2902.70   48.96
  -1   1  -3 2231.87   38.69
   1   1   3 2281.34   38.70
   1   1   3 2239.79   39.23
   1   1   4  543.26   10.20
   1   1   4  565.42   10.73
  -1   1  -4  541.34   10.67
  -1   1  -4  549.33   10.68
   1   1   4  534.46   11.43
   1   1   5  684.98   13.00
   1   1   5  643.97   13.94
  -1   1  -5  649.73   12.84
  -1   1  -5  662.29   14.25
   1   1   5  632.29   12.73
  -1   1  -6  178.43    5.17
   1   1   6  190.57    5.79
  -1   1  -6  178.61    6.16
  -1   1  -6  174.45    5.19
   1   1   6  183.45    5.34
  -1   1  -6  176.78    5.25
  -1   1  -6  180.56    5.01
   1   1   7  174.28    5.46
  -1   1  -7  174.24    5.66
  -1   1  -7  179.68    5.55
  -1   1  -7  178.02    6.60
  -1   1  -7  176.59    5.39
  -1   1  -8  168.63    5.60
   1   1   8  176.47    5.56
  -1   1  -8  176.85    5.83
   1   1   9   10.34    1.10
   1   1   9    9.93    1.14
  -1   1  -9   11.83    1.20
  -1   1  -9   10.98    1.25
  -1   1 -10   12.90    1.12
   1   1  10   11.35    0.98
   1   2 -10   20.54    1.41
  -1   2  10   18.52    1.32
   1   2 -10   19.19    1.22
   1   2  -9   18.73    1.49
  -1   2   9   19.68    1.57
   1   2  -9   18.53    1.61
   1   2  -8  155.24    5.42
  -1   2   8  155.82    4.42
  -1   2   8  160.13    5.29
   1   2  -7   76.66    3.98
  -1   2   7   79.40    3.22
   1   2  -7   74.94    3.29
   1   2  -7   79.48    3.55
  -1   2   7   82.15    2.96
   1   2  -7   75.65    3.21
  -1   2   7   79.81    3.46
   1   2  -6   56.04    2.69
  -1   2   6   58.59    2.72
   1   2  -6   51.75    2.54
  -1   2   6   55.63    2.55
   1   2  -6   53.36    2.56
   1   2  -6   53.86    2.70
   1   2  -6   52.91    3.04
   1   2  -5  185.56    5.35
  -1   2   5  183.44    5.10
  -1   2   5  190.34    4.77
  -1   2   5  190.77    4.70
   1   2  -5  192.07    5.26
   1   2  -5  187.09    5.77
   1   2  -5  185.72    5.16
   1   2  -5  196.56    5.88
  -1   2   4  188.55    4.89
  -1   2   4  196.81    4.82
  -1   2   4  198.05    4.65
   1   2  -4  204.49    5.05
   1   2  -4  193.99    5.12
   1   2  -4  203.85    5.45
   1   2  -4  198.11    5.50
  -1   2   3  824.73   15.94
   1   2  -3  885.09   16.16
   1   2  -3  853.51   16.30
   1   2  -3  849.69   15.97
   1   2  -3  846.94   15.73
  -1   2   3  854.52   15.24
   1   2  -2  446.44    8.86
  -1   2   2  444.43    7.96
   1   2  -2  445.18    8.60
  -1   2   2  455.09    8.21
   1   2  -2  458.78    8.95
  -1   2   2  428.42    8.93
   1   2  -2  464.27    8.80
   1   2  -1  219.51    4.11
  -1   2   1  216.18    4.47
   1   2  -1  222.24    4.62
   1   2  -1  225.24    4.38
  -1   2   1  210.86    3.75
   1   2  -1  223.69    4.48
  -1   2   1  214.65    4.62
   1   2   0   38.06    1.01
  -1   2   0   39.82    1.29
   1   2   1  632.22   11.84
   1   2   1  642.39   12.02
  -1   2  -1  660.71   11.53
   1   2   2 1239.42   22.49
  -1   2  -2 1264.24   22.20
  -1   2  -2 1287.82   21.67
   1   2   2 1220.19   22.69
   1   2   3  112.31    3.06
  -1   2  -3  107.09    3.01
  -1   2  -4  453.20    9.36
   1   2   4  465.18    9.21
  -1   2  -4  448.41    9.22
   1   2   5  190.04    4.92
  -1   2  -5  181.93    5.01
  -1   2  -6  927.42   18.40
   1   2   6  915.56   18.70
  -1   2  -6  978.55   20.22
  -1   2  -6  952.38   18.98
   1   2   6  921.97   19.35
   1   2   6  955.50   18.32
  -1   2  -6  956.31   18.35
   1   2   6  920.08   18.23
  -1   2  -7  227.44    6.31
   1   2   7  229.21    5.95
   1   2   7  218.79    6.91
   1   2   7  222.50    6.49
  -1   2  -7  220.41    6.56
  -1   2  -7  224.99    7.69
  -1   2  -7  224.88    6.27
  -1   2  -8   92.86    3.67
  -1   2  -8   89.03    3.83
   1   2   8   87.65    3.65
  -1   2  -9    6.27    0.92
  -1   2  -9    7.29    0.85
   1   2   9    5.37    0.79
  -1   2 -10    5.11    0.68
   1   2  10    5.20    0.61
   1   2  10    3.88    0.52
  -1   3  10  219.13    5.12
   1   3 -10  206.51    4.93
   1   3 -10  207.64    4.87
   1   3  -9   82.06    3.24
   1   3  -9   81.39    3.31
  -1   3   9   83.07    3.22
   1   3  -8  289.02    7.67
  -1   3   8  315.88    7.13
   1   3  -8  292.18    8.01
  -1   3   8  306.26    7.95
   1   3  -7   61.35    3.00
  -1   3   7   62.20    2.86
  -1   3   7   56.64    2.88
   1   3  -7   62.15    3.04
   1   3  -7   60.30    2.96
  -1   3   6   14.18    1.31
   1   3  -6   15.70    1.50
   1   3  -6   15.06    1.68
   1   3  -6   16.13    1.41
  -1   3   6   15.38    1.49
   1   3  -6   16.41    1.47
  -1   3   6   14.78    1.36
   1   3  -6   15.81    1.42
   1   3  -5  207.17    5.96
  -1   3   5  193.64    5.71
   1   3  -5  214.87    6.45
   1   3  -5  206.33    6.42
  -1   3   5  193.73    5.47
  -1   3   5  204.18    5.41
   1   3  -5  212.82    5.96
   1   3  -5  216.94    5.89
   1   3  -4  368.56    8.63
   1   3  -4  378.80    8.94
   1   3  -4  376.48    9.02
  -1   3   4  371.57    8.49
   1   3  -4  384.75    8.55
  -1   3   3  536.02   11.32
   1   3  -3  552.83   11.36
   1   3  -3  539.36   10.82
   1   3  -3  539.12   11.11
   1   3  -3  550.07   11.26
   1   3  -2 1298.05   22.68
   1   3  -2 1261.63   23.40
   1   3  -2 1266.06   23.25
  -1   3   2 1330.50   23.57
   1   3  -2 1295.54   23.11
   1   3  -2 1319.04   23.46
   1   3  -1   49.61    1.65
   1   3  -1   51.65    1.42
  -1   3   1   50.25    1.95
   1   3  -1   47.12    1.68
  -1   3   1   48.60    1.85
   1   3  -1   52.03    1.63
   1   3   0  421.69    8.17
   1   3   0  440.95    7.91
  -1   3   0  438.88    8.32
   1   3   1  385.28    7.83
  -1   3  -1  368.63    6.95
   1   3   1  364.90    7.53
   1   3   1  360.45    7.91
  -1   3  -2  378.53    7.64
   1   3   2  380.26    7.60
   1   3   2  364.26    8.34
   1   3   2  381.02    8.01
  -1   3  -2  374.39    7.67
  -1   3  -3  104.09    2.76
  -1   3  -3   95.97    3.02
   1   3   3   97.16    3.05
   1   3   3  101.31    3.35
   1   3   4  254.19    6.07
  -1   3  -4  254.20    6.12
  -1   3  -4  254.65    6.35
   1   3   5   53.53    2.32
   1   3   5   51.58    2.78
   1   3   5   52.29    2.37
  -1   3  -5   56.23    2.57
  -1   3  -6  251.16    6.92
   1   3   6  256.69    7.56
   1   3   6  269.64    6.65
  -1   3  -6  273.84    8.07
   1   3   6  255.40    7.09
   1   3   6  240.65    6.77
  -1   3  -6  268.57    7.47
   1   3   7  416.49   10.61
   1   3   7  398.47    9.46
  -1   3  -7  406.97    9.92
  -1   3  -7  426.91   10.45
   1   3   7  417.81   10.06
  -1   3  -8   62.09    2.86
  -1   3  -8   68.00    3.18
   1   3   8   67.65    3.04
  -1   3  -9    6.73    0.88
   1   3   9    6.34    0.80
  -1   3  -9    6.34    0.76
  -1   3 -10   14.94    1.00
   1   3  10   12.93    0.85
   1   4  -9   92.75    3.12
   1   4  -9   93.65    3.28
  -1   4   9   94.77    3.16
  -1   4   8   18.81    1.41
   1   4  -8   19.35    1.50
  -1   4   8   18.80    1.24
  -1   4   8   20.08    1.52
  -1   4   7  404.26    9.75
  -1   4   7  411.43    9.72
   1   4  -7  424.16    9.81
   1   4  -7  394.50    9.93
   1   4  -7  384.17    9.88
   1   4  -6  465.46   11.26
   1   4  -6  460.98   11.39
   1   4  -6  484.87   10.83
  -1   4   6  502.25   11.37
  -1   4   6  458.31   10.43
  -1   4   6  460.25   10.99
  -1   4   6  480.34   10.96
   1   4  -6  462.51   11.13
   1   4  -5  100.60    4.00
   1   4  -5   91.18    4.11
  -1   4   5   99.45    3.74
  -1   4   5  100.49    3.92
  -1   4   5   96.30    3.65
   1   4  -5  102.81    4.03
   1   4  -5  104.93    4.34
   1   4  -5  100.95    3.86
   1   4  -4   19.38    1.58
   1   4  -4   19.76    1.53
   1   4  -4   18.63    1.43
   1   4  -4   16.89    1.49
  -1   4   4   18.59    1.53
   1   4  -3  752.13   14.65
  -1   4   3  704.88   14.97
   1   4  -3  720.30   14.55
   1   4  -3  710.07   14.16
   1   4  -3  701.36   14.42
   1   4  -2  488.44   10.20
   1   4  -2  501.20    9.47
   1   4  -2  495.71   10.12
   1   4  -2  479.44   10.09
  -1   4   2  494.18   10.59
   1   4  -2  487.51    9.93
   1   4  -1  450.01    8.88
   1   4  -1  459.50    8.84
  -1   4   1  431.37    9.69
  -1   4   1  434.82    9.54
   1   4   0   40.94    2.13
  -1   4   0   40.32    1.54
   1   4   0   41.04    1.92
  -1   4  -1  264.18    6.07
   1   4   1  273.91    6.30
   1   4   1  278.96    6.55
   1   4   1  274.37    6.84
   1   4   2 2296.98   40.80
   1   4   2 2190.94   41.34
  -1   4  -2 2259.05   40.24
  -1   4  -3   11.72    0.84
  -1   4  -3   11.39    0.99
   1   4   3   12.05    1.05
   1   4   3   12.13    1.20
  -1   4  -4  108.97    3.61
  -1   4  -4  109.30    3.85
   1   4   4  105.58    3.55
   1   4   5  167.48    4.75
   1   4   5  149.37    4.97
  -1   4  -5  168.94    5.25
  -1   4  -5  148.70    5.35
   1   4   5  148.60    5.37
  -1   4  -5  169.30    5.54
  -1   4  -6  169.84    5.79
   1   4   6  173.46    5.92
  -1   4  -6  161.64    5.37
   1   4   6  161.85    5.43
   1   4   6  174.56    4.96
   1   4   7   14.75    1.34
  -1   4  -7   15.80    1.59
   1   4   7   17.86    1.69
  -1   4  -7   15.51    1.46
   1   4   7   17.36    1.53
  -1   4  -7   15.39    1.50
   1   4   8   34.60    1.81
  -1   4  -8   37.23    2.15
  -1   4  -9   34.57    1.72
   1   4   9   37.07    1.76
  -1   4  -9   34.37    1.79
   1   5  -9   32.98    1.55
  -1   5   8   26.28    1.56
   1   5  -8   30.58    1.80
  -1   5   8   27.70    1.58
  -1   5   8   27.67    1.39
   1   5  -7   17.27    1.55
  -1   5   7   19.23    1.46
  -1   5   7   17.81    1.44
   1   5  -7   17.99    1.58
  -1   5   6  325.91    8.43
  -1   5   6  317.63    7.97
   1   5  -6  313.54    8.49
  -1   5   6  333.35    8.21
   1   5  -6  330.09    8.78
   1   5  -5   10.33    1.25
   1   5  -5   10.15    1.19
   1   5  -5   11.24    1.31
  -1   5   5   10.60    1.21
  -1   5   5    9.48    1.10
  -1   5   5    9.85    1.24
   1   5  -4   73.33    3.35
  -1   5   4   71.21    3.37
   1   5  -4   69.45    3.19
   1   5  -4   69.99    3.13
   1   5  -3  227.89    6.39
   1   5  -3  230.25    6.19
  -1   5   3  217.42    6.68
   1   5  -3  228.04    6.14
   1   5  -2   91.88    3.36
   1   5  -2   85.21    2.96
  -1   5   2   94.02    3.63
   1   5  -2   90.37    3.13
   1   5  -1  141.36    5.05
   1   5  -1  153.85    4.25
  -1   5   1  148.46    4.68
  -1   5   1  143.27    4.75
   1   5   0  101.69    3.71
   1   5   0  104.93    4.06
   1   5   0   98.86    3.60
  -1   5   0  103.20    3.86
   1   5   1   71.79    2.94
   1   5   1   73.50    2.81
   1   5   2  166.91    5.15
   1   5   2  170.40    5.70
  -1   5  -2  181.05    4.80
   1   5   3   28.27    1.79
   1   5   3   25.81    1.98
  -1   5  -3   27.27    1.80
  -1   5  -3   26.66    1.64
  -1   5  -4   39.17    2.38
  -1   5  -4   40.15    2.12
  -1   5  -4   40.16    2.34
   1   5   4   37.76    2.04
  -1   5  -5  215.49    6.66
  -1   5  -5  218.81    6.47
   1   5   5  210.50    6.62
   1   5   5  222.35    5.85
   1   5   5  197.52    6.34
  -1   5  -6   50.33    2.89
   1   5   6   52.77    2.78
   1   5   6   53.60    2.91
  -1   5  -6   53.76    2.85
   1   5   7  123.00    4.26
   1   5   7  126.05    4.47
  -1   5  -7  124.81    4.41
   1   5   7  122.38    4.12
  -1   5  -8   51.47    2.25
   1   5   8   55.25    2.33
   1   5   9   35.01    1.42
  -1   6   8    1.71    0.30
   1   6  -8    0.59    0.28
  -1   6   7   19.18    1.35
  -1   6   7   19.62    1.22
  -1   6   6   11.70    1.05
   1   6  -6   10.26    1.15
  -1   6   6   12.78    1.22
   1   6  -5  228.92    6.62
  -1   6   5  216.08    6.46
  -1   6   5  242.48    6.23
   1   6  -5  227.91    6.82
   1   6  -4   11.08    1.28
  -1   6   4    8.85    1.16
  -1   6   4    7.81    1.16
   1   6  -4    9.98    1.12
   1   6  -3  296.01    7.83
  -1   6   3  290.09    8.26
   1   6  -3  296.31    7.48
   1   6  -2  569.56   11.90
  -1   6   2  578.19   12.57
   1   6  -2  537.08   12.58
  -1   6   2  498.50   12.43
   1   6  -2  502.82   12.95
  -1   6   1  113.98    4.32
   1   6  -1  116.04    4.75
   1   6  -1  119.33    4.38
  -1   6   0   97.68    4.04
  -1   6   0   97.23    3.89
   1   6   0  102.09    4.35
   1   6   0  105.35    3.86
   1   6   0  103.75    3.89
   1   6   1   61.74    3.31
   1   6   1   61.54    2.99
  -1   6  -1   57.56    3.06
   1   6   2  278.96    7.27
   1   6   2  272.68    7.96
  -1   6  -2  286.30    7.03
  -1   6  -3   72.33    3.17
   1   6   3   74.43    3.12
   1   6   3   72.66    3.60
  -1   6  -4   27.25    1.95
   1   6   4   26.08    2.12
   1   6   5   58.16    2.88
  -1   6  -5   63.29    3.02
   1   6   6   34.29    2.07
   1   6   6   35.80    2.04
   1   6   6   38.02    2.12
  -1   6  -6   37.85    2.20
  -1   6  -7    8.23    0.79
   1   6   7    7.38    0.80
   1   6   7    7.63    0.83
   1   6   8   67.51    2.16
  -1   7   6   63.65    2.42
  -1   7   5   34.41    1.89
  -1   7   4  274.72    7.03
   1   7  -2   17.87    1.61
  -1   7   2   16.51    1.57
   1   7  -2   16.89    1.49
   1   7  -1    5.57    0.92
  -1   7   1    4.45    0.82
   1   7   0  127.10    4.90
   1   7   1   58.57    2.86
   1   7   2   13.41    1.24
  -1   7  -3    8.40    1.01
  -1   7  -4   78.25    3.10
   1   7   5    8.94    0.92
   1   7   6   88.56    3.03
   1   7   6   93.10    2.90
   1   8  -1   90.47    3.36
   1   8   4   14.13    0.91
   1   8   5   19.30    0.91
   2  -9  -3   17.61    0.88
  -2  -9   2   20.78    1.23
   2  -9  -2   22.19    1.08
  -2  -9   1    3.42    0.51
   2  -9  -1    4.12    0.45
  -2  -9   0   38.78    1.81
   2  -9   0   41.02    1.42
  -2  -9  -1   24.06    1.29
   2  -8  -5   10.26    0.77
  -2  -8   5    9.80    0.77
   2  -8  -4  148.40    4.15
  -2  -8   4  145.44    4.40
  -2  -8   3   40.08    2.25
   2  -8  -3   39.70    2.01
  -2  -8   2   24.00    1.79
   2  -8  -2   20.76    1.48
  -2  -8   1    0.63    0.40
   2  -8  -1    0.80    0.41
  -2  -8   0  124.78    4.55
   2  -8   0  128.52    3.94
   2  -8   1   54.47    2.29
   2  -8   1   51.92    2.07
  -2  -8  -1   47.97    2.24
   2  -8   1   50.03    2.08
  -2  -8  -1   51.22    2.59
  -2  -8  -2   98.71    3.47
   2  -8   2   99.59    3.19
  -2  -8  -3    9.98    0.90
  -2  -8  -3    8.08    0.92
   2  -8   3    7.93    0.79
   2  -8   4    7.50    0.71
  -2  -8  -4    6.83    0.79
  -2  -8  -5    0.45    0.23
  -2  -7   6   14.99    1.11
  -2  -7   6   16.50    1.29
   2  -7  -6   13.97    0.99
  -2  -7   5  125.01    4.42
  -2  -7   5  137.28    4.68
   2  -7  -5  128.62    4.19
  -2  -7   4   54.15    2.97
   2  -7  -4   58.83    2.89
  -2  -7   4   61.07    3.11
   2  -7  -3   70.90    3.28
  -2  -7   3   73.38    3.68
  -2  -7   3   78.92    3.64
  -2  -7   2  440.67   11.87
   2  -7  -2  458.81   11.33
   2  -7  -1   54.84    2.73
  -2  -7   1   49.93    3.03
   2  -7  -1   50.58    2.69
   2  -7   0  272.44    7.25
  -2  -7   0  273.70    8.08
   2  -7   0  285.01    7.56
   2  -7   1   17.70    1.46
  -2  -7  -1   17.42    1.57
  -2  -7  -1   17.58    1.72
   2  -7   1   17.68    1.34
   2  -7   1   16.45    1.36
  -2  -7  -1   13.66    1.47
  -2  -7  -2   13.16    1.53
   2  -7   2   12.13    1.00
   2  -7   2   12.40    1.48
   2  -7   2   12.60    1.20
  -2  -7  -2   10.54    1.24
  -2  -7  -2   11.95    1.38
  -2  -7  -3   58.37    2.70
  -2  -7  -3   54.24    3.03
   2  -7   3   54.21    2.59
   2  -7   3   54.25    3.10
   2  -7   4   18.52    1.71
   2  -7   4   18.51    1.38
  -2  -7  -4   16.26    1.59
  -2  -7  -5    0.87    0.42
   2  -7   5    1.10    0.41
   2  -7   5    1.46    0.39
  -2  -7  -6   59.99    2.48
   2  -7   6   61.93    2.51
  -2  -6   8   12.95    0.96
  -2  -6   7   28.67    1.88
   2  -6  -7   26.05    1.84
  -2  -6   6   27.29    1.93
   2  -6  -6   29.41    1.78
  -2  -6   6   28.61    2.15
   2  -6  -6   30.64    2.25
   2  -6  -5   16.25    1.74
  -2  -6   5   13.50    1.50
   2  -6  -5   14.52    1.41
  -2  -6   5   11.45    1.45
   2  -6  -4   61.34    3.45
   2  -6  -4   63.09    3.13
  -2  -6   4   66.08    3.52
   2  -6  -4   56.49    3.08
  -2  -6   4   65.04    3.54
  -2  -6   3  103.41    4.54
   2  -6  -3  103.36    4.33
   2  -6  -3  114.24    4.33
  -2  -6   3   96.38    4.56
   2  -6  -2   33.80    2.12
   2  -6  -2   30.66    2.16
  -2  -6   2   29.86    2.22
  -2  -6   2   25.88    2.23
  -2  -6   2   29.77    2.17
   2  -6  -2   31.20    2.40
   2  -6  -2   31.34    2.12
   2  -6  -1  879.96   18.08
   2  -6  -1  864.12   18.24
  -2  -6   1  931.92   18.71
   2  -6  -1  901.28   19.09
  -2  -6   1  855.63   18.87
  -2  -6   1  880.27   19.12
   2  -6   0  496.15   11.73
  -2  -6   0  511.60   11.88
   2  -6   0  491.70   11.30
   2  -6   0  466.66   11.05
  -2  -6   0  492.07   12.00
   2  -6   0  487.92   10.78
  -2  -6   0  474.90   12.12
  -2  -6  -1   47.23    2.79
   2  -6   1   51.85    3.01
   2  -6   1   49.31    2.38
  -2  -6  -1   51.64    3.15
   2  -6   1   54.25    2.82
   2  -6   1   47.15    2.54
   2  -6   1   51.69    2.55
  -2  -6  -1   53.41    2.93
  -2  -6  -1   46.88    2.91
  -2  -6  -2  173.41    6.23
   2  -6   2  190.61    6.51
   2  -6   2  198.20    5.18
  -2  -6  -2  176.39    5.83
   2  -6   2  200.21    5.78
  -2  -6  -2  190.09    6.54
  -2  -6  -3   24.06    2.14
   2  -6   3   24.74    2.14
  -2  -6  -3   25.38    1.83
   2  -6   3   26.71    1.86
  -2  -6  -3   25.27    2.19
  -2  -6  -4   82.51    4.13
   2  -6   4   86.18    3.48
   2  -6   4   80.87    4.07
  -2  -6  -4   85.13    4.14
  -2  -6  -5  139.97    5.15
   2  -6   5  131.28    4.27
   2  -6   5  123.09    5.04
  -2  -6  -5  127.94    5.11
   2  -6   6    5.67    0.93
  -2  -6  -6    3.78    0.76
   2  -6   6    5.45    0.69
   2  -6   7  134.48    4.22
  -2  -6  -7  136.42    4.16
   2  -5  -8   17.87    1.50
  -2  -5   8   19.09    1.54
   2  -5  -8   19.40    1.37
  -2  -5   7   78.14    3.32
   2  -5  -7   74.39    3.70
   2  -5  -7   75.31    3.43
  -2  -5   7   79.22    3.82
   2  -5  -6   63.70    3.59
   2  -5  -6   60.38    3.25
   2  -5  -6   58.45    2.81
  -2  -5   6   62.86    3.56
  -2  -5   6   64.49    3.36
   2  -5  -5  277.30    8.20
  -2  -5   5  281.25    8.67
   2  -5  -5  291.16    8.78
  -2  -5   5  301.43    8.67
   2  -5  -5  275.45    7.83
   2  -5  -4  270.14    8.51
  -2  -5   4  262.78    8.08
   2  -5  -4  259.70    7.51
   2  -5  -4  259.63    8.05
  -2  -5   4  253.36    8.00
   2  -5  -4  270.49    7.79
   2  -5  -3  129.58    4.27
   2  -5  -3  117.66    4.93
  -2  -5   3  110.01    4.57
   2  -5  -3  116.54    4.70
  -2  -5   3  112.44    4.74
   2  -5  -3  113.44    4.41
   2  -5  -3  110.25    4.41
   2  -5  -2   18.23    1.45
   2  -5  -2   17.62    1.72
   2  -5  -2   17.41    1.54
  -2  -5   2   17.87    1.65
   2  -5  -2   17.33    1.61
  -2  -5   2   16.79    1.66
  -2  -5   1   33.22    2.27
   2  -5  -1   30.77    2.12
   2  -5  -1   32.72    1.73
  -2  -5   1   34.56    1.77
   2  -5   0   79.75    3.42
  -2  -5   0   84.40    3.18
   2  -5   0   87.68    3.11
   2  -5   1  344.77    8.30
  -2  -5  -1  321.83    8.80
  -2  -5  -1  323.88    8.13
   2  -5   1  341.98    7.92
  -2  -5  -1  309.83    8.38
   2  -5   2  386.20    8.86
  -2  -5  -2  386.22    9.53
   2  -5   2  368.24    8.26
  -2  -5  -2  352.68    9.01
  -2  -5  -2  359.63    9.66
  -2  -5  -2  369.84    9.74
   2  -5   2  365.39    9.71
  -2  -5  -2  374.87    9.87
  -2  -5  -3   96.97    4.22
  -2  -5  -3   89.56    3.60
   2  -5   3   94.10    3.61
  -2  -5  -3   99.27    4.31
   2  -5   3   92.49    4.27
  -2  -5  -3  101.72    4.43
   2  -5   3   98.78    4.05
  -2  -5  -4  646.59   15.23
  -2  -5  -4  648.23   14.90
   2  -5   4  607.76   14.88
   2  -5   4  637.14   13.55
   2  -5   4  620.88   14.46
  -2  -5  -5  158.12    5.75
   2  -5   5  153.58    6.03
  -2  -5  -5  175.80    6.02
  -2  -5  -5  169.40    6.29
   2  -5   5  171.53    5.14
   2  -5   5  169.75    5.98
  -2  -5  -6  166.71    6.01
  -2  -5  -6  163.94    5.83
   2  -5   6  175.04    4.93
   2  -5   6  170.46    5.91
   2  -5   6  160.66    6.00
  -2  -5  -7   15.64    1.47
  -2  -5  -7   16.31    1.52
   2  -5   7   15.71    1.53
   2  -5   8    6.65    0.81
  -2  -5  -8    6.85    0.82
  -2  -5  -8    5.85    0.69
  -2  -4   9   90.01    3.42
   2  -4  -9   92.79    3.35
   2  -4  -9   93.00    3.25
   2  -4  -8  500.35   11.90
  -2  -4   8  494.80   11.99
   2  -4  -8  478.26   11.62
   2  -4  -7  198.23    6.80
   2  -4  -7  197.32    6.94
  -2  -4   7  208.01    6.52
  -2  -4   7  211.49    7.11
   2  -4  -6  213.75    7.43
   2  -4  -6  214.27    7.25
  -2  -4   6  240.14    7.35
  -2  -4   6  230.12    7.59
   2  -4  -5   36.12    2.24
   2  -4  -5   36.42    2.76
  -2  -4   5   36.21    2.61
  -2  -4   5   34.62    2.25
   2  -4  -5   36.47    2.64
   2  -4  -5   34.47    2.52
  -2  -4   5   36.94    2.52
   2  -4  -4  146.40    4.92
  -2  -4   4  148.59    5.04
   2  -4  -4  142.92    5.47
  -2  -4   4  149.58    5.34
  -2  -4   4  132.48    4.78
   2  -4  -4  144.79    5.37
   2  -4  -4  139.88    5.16
  -2  -4   3  261.28    6.83
   2  -4  -3  247.89    7.33
   2  -4  -2  175.31    5.49
   2  -4  -2  168.36    4.57
  -2  -4   2  178.89    4.89
  -2  -4   1  624.68   12.00
  -2  -4   1  612.29   11.82
   2  -4  -1  593.14   12.06
  -2  -4   0  615.21   12.56
  -2  -4   0  619.60   12.22
   2  -4   0  608.57   12.78
   2  -4   0  604.83   12.24
   2  -4   1  209.69    5.57
  -2  -4  -1  211.92    5.80
   2  -4   1  207.43    5.31
  -2  -4  -1  205.71    5.52
   2  -4   2   48.32    2.19
  -2  -4  -2   42.28    2.29
  -2  -4  -2   41.24    2.35
   2  -4   2   44.38    2.08
  -2  -4  -3  190.85    6.17
  -2  -4  -3  210.80    6.29
   2  -4   3  202.73    5.59
  -2  -4  -4  108.97    4.35
  -2  -4  -4  113.25    4.54
  -2  -4  -4  113.38    4.71
   2  -4   4  109.30    4.64
  -2  -4  -4  111.85    4.85
   2  -4   4  112.78    4.43
  -2  -4  -4  114.30    4.65
   2  -4   4  124.86    4.05
   2  -4   4  110.03    3.82
  -2  -4  -5  127.37    5.07
   2  -4   5  125.88    5.25
   2  -4   5  140.05    5.23
  -2  -4  -5  132.42    5.01
  -2  -4  -5  132.01    5.51
  -2  -4  -5  133.52    5.61
   2  -4   5  141.15    4.65
   2  -4   5  133.40    4.31
   2  -4   6    8.18    1.21
  -2  -4  -6    6.96    0.98
   2  -4   6    6.19    1.08
  -2  -4  -6    6.61    1.24
   2  -4   6    8.55    0.93
   2  -4   6    6.95    0.98
  -2  -4  -6    6.07    1.09
   2  -4   7   40.38    2.70
  -2  -4  -7   39.83    2.68
   2  -4   7   41.72    2.62
  -2  -4  -7   40.67    2.58
  -2  -4  -8   11.12    1.25
   2  -4   8   10.81    1.17
   2  -4   8    9.06    1.11
  -2  -4  -8    9.72    1.01
  -2  -4  -9   46.03    2.05
   2  -4   9   37.79    1.69
  -2  -3  10  174.46    4.57
   2  -3 -10  175.87    4.45
   2  -3  -9  323.71    8.18
  -2  -3   9  330.50    8.55
   2  -3  -9  331.07    8.51
  -2  -3   8  188.72    6.43
   2  -3  -8  178.79    6.32
   2  -3  -8  173.73    6.12
  -2  -3   7   35.58    2.65
   2  -3  -7   33.73    2.63
   2  -3  -7   33.51    2.58
   2  -3  -6   77.93    3.95
   2  -3  -6   74.38    4.04
   2  -3  -6   67.46    3.53
   2  -3  -6   80.83    4.03
  -2  -3   6   79.87    3.44
  -2  -3   6   77.77    3.91
  -2  -3   6   73.75    3.78
  -2  -3   5   30.38    2.17
  -2  -3   5   30.63    2.21
   2  -3  -5   30.20    2.30
   2  -3  -5   29.57    2.10
   2  -3  -5   31.09    2.29
   2  -3  -5   31.75    2.31
  -2  -3   4  307.20    8.01
   2  -3  -4  319.53    8.44
   2  -3  -4  322.14    7.35
   2  -3  -3   94.74    3.60
  -2  -3   3   94.37    3.33
   2  -3  -3   92.54    3.01
   2  -3  -2  583.06   12.21
  -2  -3   2  580.26   11.72
   2  -3  -2  586.28   11.55
   2  -3  -1    8.95    0.89
  -2  -3   1    8.51    0.73
  -2  -3   1    8.41    0.67
   2  -3  -1    8.47    0.76
  -2  -3   1    7.92    0.61
   2  -3   0  302.54    6.94
  -2  -3   0  315.60    6.79
  -2  -3   0  307.37    6.52
   2  -3   0  310.75    6.76
  -2  -3  -1   69.44    2.46
   2  -3   1   75.14    2.53
   2  -3   1   72.06    2.46
  -2  -3  -1   72.05    2.59
  -2  -3  -2  380.19    8.70
  -2  -3  -2  394.10    8.65
   2  -3   2  387.39    8.30
  -2  -3  -3   55.44    2.62
   2  -3   3   55.31    2.30
   2  -3   4  374.43    9.59
  -2  -3  -4  363.39    9.19
   2  -3   5  200.81    5.86
  -2  -3  -5  190.99    6.19
  -2  -3  -5  201.22    6.07
   2  -3   5  196.13    5.29
   2  -3   5  172.16    6.15
  -2  -3  -5  194.25    6.22
  -2  -3  -5  197.79    6.74
   2  -3   5  193.39    6.17
   2  -3   6  208.35    6.40
  -2  -3  -6  207.54    6.83
   2  -3   6  203.64    6.89
  -2  -3  -6  211.74    7.20
  -2  -3  -6  200.06    6.56
   2  -3   6  208.66    6.69
  -2  -3  -7  256.45    8.07
   2  -3   7  247.86    7.83
   2  -3   7  253.94    7.64
  -2  -3  -7  264.72    8.05
   2  -3   8   15.72    1.56
  -2  -3  -8   14.29    1.53
   2  -3   8   14.20    1.42
  -2  -3  -9   86.30    3.37
   2  -3   9   77.23    2.99
   2  -3   9   80.24    3.00
   2  -2 -10   57.47    2.50
  -2  -2  10   58.04    2.51
   2  -2  -9  110.14    4.06
   2  -2  -9  106.02    4.37
  -2  -2   9  111.78    4.43
   2  -2  -8  232.89    7.58
   2  -2  -8  221.85    7.10
  -2  -2   8  227.83    7.31
   2  -2  -7   78.17    3.94
   2  -2  -7   81.71    4.15
  -2  -2   7   84.71    4.26
  -2  -2   7   84.98    4.05
   2  -2  -7   85.00    4.06
  -2  -2   6   22.63    1.96
   2  -2  -6   19.99    1.88
  -2  -2   6   23.11    1.90
   2  -2  -6   23.94    2.01
   2  -2  -6   22.30    1.87
   2  -2  -6   24.85    1.92
   2  -2  -5    3.82    0.61
   2  -2  -5    3.60    0.69
  -2  -2   5    3.67    0.73
   2  -2  -5    2.53    0.58
   2  -2  -4  582.01   11.17
  -2  -2   4  564.36   12.00
   2  -2  -4  541.81   11.30
   2  -2  -4  544.27   11.90
  -2  -2   3  138.73    4.02
   2  -2  -3  144.32    3.45
   2  -2  -3  132.28    4.01
   2  -2  -3  133.26    3.70
   2  -2  -2  286.30    6.47
  -2  -2   2  282.80    6.30
   2  -2  -2  282.32    6.17
   2  -2  -1 1273.36   23.16
  -2  -2   1 1294.55   22.20
   2  -2  -1 1293.61   23.04
   2  -2   0  980.89   17.75
  -2  -2   0  973.43   17.22
   2  -2   0  980.69   17.72
  -2  -2  -1  276.54    5.93
  -2  -2  -1  275.28    5.80
   2  -2   1  285.27    5.89
  -2  -2  -1  278.40    5.23
   2  -2   1  276.71    5.98
  -2  -2  -2   35.85    1.64
   2  -2   2   39.09    1.60
  -2  -2  -3  120.36    3.68
   2  -2   3  115.05    3.97
   2  -2   3  121.49    3.44
   2  -2   4  539.04   12.42
  -2  -2  -4  561.75   11.78
   2  -2   4  537.19   11.16
   2  -2   5  506.54   11.47
   2  -2   5  490.79   12.27
  -2  -2  -5  500.02   11.40
  -2  -2  -6  312.02    8.53
   2  -2   6  299.72    8.52
  -2  -2  -6  317.84    8.99
  -2  -2  -6  296.71    8.12
   2  -2   6  304.88    8.38
   2  -2   6  308.81    8.42
  -2  -2  -7  181.12    6.29
   2  -2   7  181.67    6.27
  -2  -2  -7  179.56    6.33
   2  -2   7  178.44    6.02
  -2  -2  -8  191.63    6.39
   2  -2   8  184.77    6.14
   2  -2   8  178.54    5.84
  -2  -2  -9   49.96    2.65
   2  -2   9   45.18    2.36
   2  -2   9   47.15    2.31
  -2  -2 -10   45.33    1.92
  -2  -1  10   44.88    2.26
   2  -1 -10   44.30    2.29
   2  -1  -9   51.10    2.96
  -2  -1   9   51.65    2.89
   2  -1  -8  107.38    4.36
   2  -1  -8  103.87    4.66
   2  -1  -8   99.53    4.50
  -2  -1   8   95.30    4.27
   2  -1  -7   65.73    3.56
  -2  -1   7   59.91    2.71
  -2  -1   7   61.79    3.51
   2  -1  -7   61.39    3.46
   2  -1  -7   58.33    3.27
   2  -1  -7   55.99    3.14
   2  -1  -7   65.33    3.15
  -2  -1   6  170.60    5.73
   2  -1  -6  172.28    5.89
   2  -1  -6  172.28    5.68
   2  -1  -6  166.61    5.34
   2  -1  -6  179.41    5.76
   2  -1  -6  180.63    5.54
  -2  -1   6  169.38    5.51
   2  -1  -5  290.54    7.20
  -2  -1   5  290.57    7.50
   2  -1  -5  279.79    7.35
  -2  -1   4  347.59    7.94
   2  -1  -4  336.85    7.89
   2  -1  -4  342.74    7.65
   2  -1  -3  380.81    8.23
   2  -1  -3  396.86    8.00
   2  -1  -3  383.33    7.88
  -2  -1   3  388.20    8.24
   2  -1  -2  213.58    4.77
   2  -1  -2  225.70    4.52
   2  -1  -2  213.49    4.98
   2  -1  -2  214.92    4.71
  -2  -1   2  215.62    4.95
  -2  -1   1  875.80   15.45
   2  -1  -1  854.65   15.46
   2  -1   0 1447.65   25.68
  -2  -1   0 1508.09   25.16
  -2  -1   0 1467.42   25.72
  -2  -1  -1  427.90    8.03
   2  -1   1  429.36    8.26
   2  -1   2  661.16   12.21
  -2  -1  -2  652.62   12.04
  -2  -1  -2  657.15   11.57
  -2  -1  -2  655.16   12.16
   2  -1   3  414.85    9.54
  -2  -1  -3  432.17    8.75
   2  -1   3  442.00    8.66
  -2  -1  -4 2899.10   52.63
  -2  -1  -4 2955.04   51.44
   2  -1   4 2972.09   52.72
   2  -1   5  279.15    7.95
  -2  -1  -5  269.77    6.80
  -2  -1  -5  264.86    7.78
  -2  -1  -6  169.76    5.27
   2  -1   6  167.08    5.49
   2  -1   6  163.89    5.57
  -2  -1  -6  162.88    5.35
   2  -1   6  171.56    5.47
  -2  -1  -6  165.99    5.42
  -2  -1  -7  320.06    8.93
  -2  -1  -7  339.72    9.13
  -2  -1  -7  329.51    8.62
   2  -1   7  323.19    8.90
   2  -1   7  329.66    8.77
  -2  -1  -8   24.76    2.04
   2  -1   8   28.06    2.11
   2  -1   8   24.20    1.88
  -2  -1  -8   29.00    2.05
  -2  -1  -9   34.50    2.21
  -2  -1  -9   34.63    2.01
   2  -1   9   31.52    1.98
   2  -1   9   33.77    1.92
  -2  -1 -10   33.98    1.72
   2   0 -10   14.96    1.30
  -2   0  10   14.29    1.24
  -2   0   9  113.95    4.41
   2   0  -9  112.63    4.57
   2   0  -8   69.57    3.60
   2   0  -8   63.14    3.50
  -2   0   8   66.20    2.78
  -2   0   8   62.98    3.26
   2   0  -8   70.30    3.32
   2   0  -7  169.10    5.98
  -2   0   7  175.48    6.09
   2   0  -7  169.28    5.97
  -2   0   7  171.85    5.67
  -2   0   7  169.88    4.97
   2   0  -7  168.03    5.57
   2   0  -6   46.47    2.65
   2   0  -6   41.58    2.51
  -2   0   6   44.84    2.57
  -2   0   6   45.20    2.44
   2   0  -6   47.29    2.50
  -2   0   5   23.81    1.64
   2   0  -5   24.26    1.68
   2   0  -5   23.44    1.67
  -2   0   4  407.89    8.70
   2   0  -4  383.59    8.64
   2   0  -4  397.06    8.78
  -2   0   3   89.45    2.17
   2   0  -3   88.98    2.70
   2   0  -3   94.91    2.89
  -2   0   3   96.10    2.83
   2   0  -2 1629.42   28.06
  -2   0   2 1597.79   27.98
   2   0  -2 1637.26   28.54
   2   0  -2 1642.22   28.40
   2   0  -2 1640.22   28.68
  -2   0   2 1635.21   28.49
  -2   0   2 1610.21   28.59
   2   0  -1 8139.98  141.02
   2   0  -1 8275.91  141.29
   2   0  -1 8654.24  140.73
  -2   0   1 8132.56  140.98
  -2   0   1 8269.81  141.35
   2   0   0   67.59    1.82
  -2   0   0   70.62    1.72
  -2   0  -1  553.56   10.34
  -2   0  -1  566.97    9.97
   2   0   1  538.46   10.07
   2   0   2  973.09   17.42
  -2   0  -2 1011.85   17.39
  -2   0  -2  966.18   18.22
  -2   0  -3  325.02    7.77
  -2   0  -3  346.20    6.85
  -2   0  -3  336.16    6.85
   2   0   3  340.62    6.72
  -2   0  -4 1111.77   20.07
   2   0   4 1094.43   20.28
  -2   0  -4 1111.66   19.79
  -2   0  -4 1060.57   21.37
   2   0   5    2.89    0.55
  -2   0  -5    3.45    0.57
  -2   0  -5    4.00    0.81
  -2   0  -6    2.26    0.57
  -2   0  -6    2.47    0.59
   2   0   6    2.67    0.66
   2   0   6    3.37    0.67
   2   0   6    2.45    0.59
  -2   0  -6    1.64    0.60
  -2   0  -7    0.90    0.45
   2   0   7    1.42    0.53
   2   0   7    1.52    0.46
  -2   0  -7    1.33    0.54
   2   0   7    0.98    0.42
  -2   0  -8   28.99    2.07
  -2   0  -8   28.31    2.11
   2   0   8   27.46    2.02
   2   0   8   30.01    1.91
   2   0   8   30.19    2.01
  -2   0  -9   14.10    1.32
  -2   0  -9   14.07    1.38
   2   0   9   13.52    1.25
   2   0   9   14.96    1.22
  -2   0 -10   56.30    2.24
  -2   0 -10   50.15    2.04
  -2   1  10   44.78    2.18
   2   1 -10   42.45    2.17
   2   1  -9   50.68    2.83
   2   1  -9   48.96    2.44
   2   1  -9   50.06    2.59
  -2   1   9   48.34    2.58
  -2   1   8  101.62    3.52
   2   1  -8   99.72    4.36
   2   1  -8  101.53    4.15
  -2   1   8   98.71    4.10
   2   1  -7   66.00    3.34
  -2   1   7   65.33    2.68
   2   1  -7   57.96    3.36
  -2   1   7   63.09    3.10
   2   1  -7   59.87    3.06
   2   1  -6  174.49    5.60
   2   1  -6  181.25    6.03
  -2   1   6  183.97    5.62
  -2   1   6  187.82    4.94
   2   1  -6  166.96    5.89
  -2   1   6  182.49    5.45
   2   1  -6  180.02    5.14
  -2   1   5  291.81    7.01
  -2   1   5  290.79    6.76
   2   1  -5  273.95    7.38
   2   1  -5  278.30    7.48
   2   1  -5  284.18    6.93
   2   1  -5  277.00    6.75
  -2   1   4  336.78    7.36
   2   1  -4  342.91    7.86
   2   1  -4  331.86    7.92
  -2   1   4  342.97    7.49
   2   1  -4  331.71    7.46
   2   1  -4  341.72    7.44
  -2   1   3  399.74    8.02
   2   1  -3  384.23    8.09
  -2   1   3  402.30    7.79
   2   1  -3  404.30    8.52
   2   1  -3  389.73    8.25
   2   1  -3  393.02    8.11
  -2   1   2  225.27    4.70
  -2   1   2  217.91    4.76
   2   1  -2  217.66    5.07
   2   1  -2  220.41    4.84
  -2   1   2  219.35    4.72
  -2   1   2  235.29    4.66
   2   1  -2  214.19    4.82
   2   1  -1  846.08   15.38
  -2   1   1  881.74   15.31
   2   1  -1  865.60   15.18
   2   1  -1  871.71   15.60
  -2   1   0 1510.51   26.28
  -2   1   0 1497.37   25.87
   2   1   0 1494.09   25.76
   2   1   0 1509.64   26.28
  -2   1  -1  461.26    9.07
   2   1   1  456.72    8.29
  -2   1  -2  691.97   11.70
   2   1   2  655.13   12.15
   2   1   2  672.03   11.93
  -2   1  -2  664.51   11.92
   2   1   2  614.63   11.28
  -2   1  -2  637.23   12.35
  -2   1  -3  433.55    8.12
   2   1   3  427.49    8.63
  -2   1  -3  419.19    9.17
  -2   1  -3  428.59    8.56
  -2   1  -4 2973.71   51.45
  -2   1  -4 3080.60   51.06
  -2   1  -4 3078.86   52.82
  -2   1  -5  271.60    7.72
   2   1   5  293.43    6.84
  -2   1  -5  273.99    6.52
   2   1   6  175.77    5.19
  -2   1  -6  181.68    5.34
  -2   1  -6  175.74    5.25
  -2   1  -6  173.67    5.28
   2   1   6  174.37    5.69
   2   1   6  173.78    5.20
  -2   1  -6  176.80    6.33
   2   1   6  174.52    5.31
  -2   1  -6  183.04    4.94
   2   1   7  319.38    8.12
  -2   1  -7  323.93    8.39
  -2   1  -7  314.50    8.29
   2   1   7  310.85    8.66
   2   1   7  328.53    8.29
  -2   1  -8   28.08    2.03
  -2   1  -8   24.85    1.92
   2   1   8   26.52    1.88
   2   1   8   28.13    1.86
   2   1   8   29.64    1.90
   2   1   9   34.43    1.86
  -2   1  -9   35.48    2.11
   2   1   9   34.57    1.94
  -2   1  -9   36.74    2.13
  -2   1 -10   32.83    1.63
   2   2 -10   55.41    2.32
  -2   2  10   58.42    2.39
   2   2 -10   52.51    1.97
  -2   2   9  108.84    3.35
   2   2  -9  106.59    4.09
   2   2  -9  109.52    3.99
  -2   2   9  107.24    3.93
   2   2  -8  218.89    6.83
  -2   2   8  227.47    5.91
   2   2  -8  224.99    6.75
  -2   2   8  230.21    6.69
   2   2  -7   80.10    3.66
  -2   2   7   84.10    3.14
  -2   2   7   84.55    3.58
   2   2  -6   23.96    1.77
   2   2  -6   24.94    2.10
  -2   2   6   23.61    1.63
  -2   2   6   24.99    1.75
   2   2  -6   23.58    1.72
   2   2  -6   22.36    2.01
   2   2  -6   21.95    1.62
   2   2  -5    3.10    0.61
   2   2  -5    3.01    0.68
  -2   2   5    4.24    0.66
   2   2  -5    2.82    0.67
  -2   2   5    3.06    0.48
   2   2  -5    4.15    0.69
   2   2  -4  550.29   11.88
  -2   2   4  582.04   11.14
   2   2  -4  541.36   11.41
  -2   2   4  548.46   11.05
   2   2  -4  562.67   12.11
  -2   2   4  565.46   11.37
   2   2  -4  539.44   11.46
   2   2  -3  140.37    3.90
   2   2  -3  141.10    4.17
  -2   2   3  135.84    3.77
  -2   2   3  146.81    3.43
   2   2  -3  150.14    4.14
  -2   2   3  142.79    3.74
   2   2  -3  139.69    3.81
  -2   2   2  298.58    6.29
   2   2  -2  287.00    6.53
  -2   2   2  282.91    6.35
  -2   2   2  292.97    6.05
   2   2  -2  301.98    6.25
  -2   2   2  293.61    5.75
   2   2  -2  292.83    6.32
  -2   2   1 1292.89   23.13
   2   2  -1 1283.22   23.37
   2   2  -1 1284.22   22.95
  -2   2   1 1273.50   23.30
  -2   2   1 1334.74   22.59
   2   2  -1 1361.23   23.16
  -2   2   0  973.28   17.33
   2   2   0  942.04   17.75
  -2   2   0  998.53   17.08
   2   2   0  948.58   17.77
  -2   2   0  985.80   17.53
  -2   2   0  998.06   17.79
  -2   2  -1  284.63    6.30
   2   2   1  266.75    5.98
  -2   2  -1  306.13    5.66
  -2   2  -1  271.11    5.59
  -2   2  -1  294.21    5.37
   2   2   1  279.26    6.23
  -2   2  -2   41.56    1.18
  -2   2  -2   42.25    1.59
  -2   2  -2   37.11    1.31
   2   2   2   36.85    1.64
  -2   2  -2   36.91    1.52
   2   2   2   35.68    1.59
   2   2   3  120.40    3.47
  -2   2  -3  119.70    3.67
  -2   2  -3  127.61    2.92
  -2   2  -4  551.46   11.83
  -2   2  -4  533.72   11.04
   2   2   4  539.80   11.09
  -2   2  -5  498.67   11.75
  -2   2  -5  490.21   10.57
  -2   2  -5  490.15   10.66
   2   2   5  501.49   10.64
   2   2   6  318.80    7.92
  -2   2  -6  322.69    7.94
  -2   2  -6  342.61    8.03
  -2   2  -6  318.98    7.94
   2   2   6  313.50    8.68
   2   2   6  310.74    8.09
  -2   2  -6  325.94    9.29
   2   2   6  342.39    8.14
  -2   2  -7  177.91    5.76
  -2   2  -7  181.53    5.58
   2   2   7  179.40    6.07
  -2   2  -7  184.79    5.56
   2   2   7  180.01    5.59
  -2   2  -7  189.75    5.49
  -2   2  -8  185.68    5.67
   2   2   8  180.88    5.52
  -2   2  -8  200.19    5.99
  -2   2  -9   46.71    2.24
  -2   2  -9   49.62    2.45
   2   2   9   45.97    2.14
  -2   2 -10   47.26    1.92
  -2   3  10  191.17    4.74
  -2   3   9  321.40    7.11
   2   3  -9  335.60    7.96
   2   3  -9  326.70    8.02
  -2   3   9  324.36    7.83
   2   3  -8  176.57    5.60
  -2   3   8  174.53    4.88
   2   3  -8  178.11    5.68
  -2   3   8  176.11    5.47
   2   3  -7   34.10    2.22
  -2   3   7   37.03    2.24
  -2   3   7   34.13    2.11
   2   3  -7   33.94    2.19
   2   3  -6   85.04    4.17
  -2   3   6   81.52    3.36
   2   3  -6   71.22    3.85
  -2   3   6   83.76    3.39
   2   3  -6   76.50    3.42
   2   3  -6   81.20    3.50
  -2   3   5   30.07    1.71
   2   3  -5   32.13    2.25
   2   3  -5   29.44    2.20
  -2   3   5   32.18    1.78
   2   3  -5   29.97    1.91
  -2   3   5   30.23    1.88
   2   3  -5   31.18    1.97
   2   3  -4  304.12    7.49
   2   3  -4  301.40    7.35
  -2   3   4  301.35    7.33
   2   3  -4  329.81    7.99
  -2   3   4  306.81    7.20
   2   3  -4  300.70    7.93
  -2   3   4  300.70    7.34
   2   3  -3   91.22    3.15
  -2   3   3   96.17    3.16
   2   3  -3   94.21    3.40
  -2   3   3   88.53    3.23
   2   3  -3   98.21    3.38
   2   3  -3   90.74    3.04
   2   3  -2  562.16   11.42
  -2   3   2  586.56   11.66
   2   3  -2  559.07   11.62
  -2   3   2  593.32   10.93
  -2   3   2  545.23   11.75
   2   3  -2  586.57   11.26
  -2   3   1    9.14    0.68
   2   3  -1    6.89    0.78
  -2   3   1    8.69    0.70
   2   3  -1    9.06    0.78
  -2   3   1    8.20    0.78
  -2   3   1    7.81    0.82
   2   3  -1    9.04    0.66
   2   3  -1    8.45    0.70
  -2   3   0  305.28    6.63
   2   3   0  314.69    6.92
  -2   3   0  316.88    6.44
  -2   3   0  305.23    6.68
  -2   3   0  294.14    6.71
   2   3   0  304.36    7.03
  -2   3  -1   73.63    2.16
   2   3   1   67.99    2.40
  -2   3  -1   73.75    2.58
  -2   3  -1   71.08    2.21
   2   3   1   72.92    2.65
  -2   3  -2  404.40    8.30
   2   3   2  376.79    8.66
   2   3   2  372.57    8.39
  -2   3  -2  386.62    7.70
   2   3   3   54.22    2.39
   2   3   3   54.37    2.31
  -2   3  -3   57.77    2.10
  -2   3  -4  373.96    8.59
   2   3   4  385.86    8.62
  -2   3  -5  197.80    5.56
  -2   3  -5  196.14    5.72
   2   3   5  206.23    5.59
   2   3   5  187.26    5.42
   2   3   6  198.79    6.60
  -2   3  -6  217.30    6.61
  -2   3  -6  216.50    6.20
   2   3   6  209.69    5.87
   2   3   6  203.09    6.16
  -2   3  -7  262.96    7.58
   2   3   7  256.80    6.89
   2   3   7  261.26    7.77
   2   3   7  261.96    7.21
  -2   3  -7  262.62    7.16
  -2   3  -7  263.78    6.90
  -2   3  -8   15.64    1.44
  -2   3  -8   14.42    1.24
   2   3   8   17.60    1.42
  -2   3  -9   87.02    3.19
  -2   3  -9   84.51    2.78
   2   3   9   83.71    2.90
   2   4  -9   92.49    3.22
   2   4  -9   92.86    3.31
  -2   4   9   85.73    2.86
  -2   4   9   88.22    2.62
   2   4  -8  487.29   11.31
  -2   4   8  499.75   10.96
  -2   4   8  508.34   10.50
  -2   4   7  206.69    6.07
  -2   4   7  220.47    6.16
   2   4  -7  209.12    6.39
  -2   4   6  230.32    6.63
  -2   4   6  243.52    6.52
   2   4  -6  229.42    6.85
   2   4  -6  222.19    6.82
   2   4  -5   37.53    2.58
  -2   4   5   38.88    2.25
   2   4  -5   31.60    2.39
  -2   4   5   36.35    2.07
   2   4  -5   38.94    2.30
  -2   4   5   37.61    2.18
   2   4  -5   36.98    2.31
   2   4  -4  148.80    4.86
   2   4  -4  155.30    5.20
   2   4  -4  140.30    5.01
  -2   4   4  141.33    4.64
  -2   4   4  147.97    4.65
   2   4  -4  150.15    4.71
  -2   4   4  144.81    4.86
   2   4  -3  249.19    6.49
  -2   4   3  239.27    6.75
   2   4  -3  243.21    6.63
  -2   4   3  252.64    6.61
   2   4  -3  257.28    6.74
   2   4  -3  251.13    6.29
  -2   4   2  170.68    5.07
   2   4  -2  170.60    4.82
   2   4  -2  178.42    4.58
   2   4  -2  175.92    4.80
   2   4  -1  587.11   12.54
  -2   4   1  569.45   12.32
  -2   4   1  616.78   12.06
  -2   4   1  617.91   11.98
   2   4  -1  597.10   12.84
   2   4  -1  579.48   11.73
  -2   4   0  594.91   12.65
   2   4   0  633.45   12.90
  -2   4   0  652.99   12.54
   2   4   0  631.14   13.23
  -2   4   0  585.11   12.71
  -2   4   0  655.17   12.45
   2   4   0  637.90   13.20
   2   4   1  203.47    5.40
  -2   4  -1  213.26    5.24
  -2   4  -1  203.80    5.39
  -2   4  -2   37.29    2.02
   2   4   2   40.21    2.31
  -2   4  -2   45.51    2.10
   2   4   2   39.69    2.11
   2   4   3  196.70    5.59
  -2   4  -3  209.94    5.19
   2   4   3  202.29    5.98
  -2   4  -4  119.00    4.26
  -2   4  -4  119.42    4.06
   2   4   4  116.35    3.97
  -2   4  -5  138.42    4.59
   2   4   5  133.13    4.44
  -2   4  -5  140.31    4.85
  -2   4  -6    8.74    1.12
   2   4   6    7.99    0.98
   2   4   6    7.31    1.16
  -2   4  -6    8.01    1.16
   2   4   7   42.00    2.16
   2   4   7   41.46    2.17
   2   4   7   44.55    2.69
   2   4   7   43.61    2.41
  -2   4  -7   48.00    2.57
  -2   4  -8   12.02    1.17
   2   4   8   11.70    1.10
  -2   4  -9   45.89    1.97
  -2   4  -9   44.82    1.76
   2   4   9   45.30    1.82
   2   5  -9    6.18    0.66
   2   5  -9    6.09    0.62
  -2   5   8   19.87    1.21
  -2   5   8   20.97    1.22
   2   5  -8   19.16    1.40
  -2   5   7   80.61    3.23
   2   5  -7   80.15    3.36
  -2   5   7   81.57    3.04
  -2   5   6   66.14    3.04
   2   5  -6   62.81    3.14
   2   5  -6   67.82    3.30
  -2   5   5  301.47    7.68
   2   5  -5  284.74    7.85
  -2   5   5  299.23    7.82
  -2   5   5  275.86    7.70
   2   5  -5  285.31    8.03
  -2   5   4  268.43    7.29
   2   5  -4  268.33    7.64
  -2   5   4  264.82    7.20
  -2   5   4  268.38    7.62
   2   5  -4  264.73    7.17
   2   5  -4  263.03    7.40
   2   5  -3  118.77    4.25
  -2   5   3  118.48    4.32
  -2   5   3  109.24    4.38
   2   5  -3  112.74    4.76
   2   5  -3  111.73    3.89
   2   5  -3  115.03    4.14
   2   5  -2   16.81    1.66
   2   5  -2   17.29    1.38
  -2   5   2   18.37    1.53
   2   5  -2   14.87    1.47
  -2   5   2   14.09    1.44
   2   5  -2   16.76    1.31
   2   5  -1   32.74    2.08
  -2   5   1   32.59    2.02
  -2   5   1   33.50    1.89
  -2   5   1   35.36    2.17
   2   5  -1   33.03    2.26
   2   5   0   85.11    3.39
   2   5   0   84.95    3.66
  -2   5   0   80.68    3.21
  -2   5   0   80.70    3.25
  -2   5   0   77.30    3.25
   2   5   0   85.43    3.54
   2   5   1  326.61    8.08
  -2   5  -1  352.57    8.01
   2   5   1  344.15    8.59
   2   5   2  383.78    9.81
   2   5   2  377.12    9.16
  -2   5  -2  399.71    8.78
   2   5   3   99.43    4.12
  -2   5  -3  109.30    3.40
   2   5   3   95.35    3.70
  -2   5  -3  103.34    3.75
  -2   5  -4  690.57   13.75
   2   5   4  682.77   13.71
  -2   5  -4  689.13   14.18
  -2   5  -5  177.72    6.01
   2   5   5  180.75    5.45
   2   5   6  177.18    5.10
   2   5   6  176.46    5.57
   2   5   6  171.24    5.83
   2   5   7   17.76    1.32
   2   5   7   16.68    1.47
   2   5   7   20.46    1.52
  -2   5  -8    7.09    0.76
   2   5   8    8.02    0.79
   2   6  -8   13.38    0.97
  -2   6   8   12.76    0.77
   2   6  -8   12.46    0.86
  -2   6   7   30.82    1.65
   2   6  -7   28.69    1.63
   2   6  -6   32.15    1.88
  -2   6   6   29.70    1.82
  -2   6   5   14.14    1.31
   2   6  -5   13.47    1.41
  -2   6   4   60.60    2.94
   2   6  -4   53.72    3.21
  -2   6   4   55.42    2.74
   2   6  -4   64.16    2.94
   2   6  -4   63.95    3.10
  -2   6   3  110.65    4.23
   2   6  -3  112.16    4.66
   2   6  -3  103.33    3.96
  -2   6   2   28.08    2.11
  -2   6   2   27.75    1.98
   2   6  -2   29.46    2.18
  -2   6   1  797.57   17.13
   2   6  -1  891.34   17.85
  -2   6   1  791.22   17.35
   2   6  -1  873.17   17.90
   2   6   0  494.33   11.21
   2   6   0  487.20   11.41
   2   6   1   50.18    2.54
   2   6   1   49.35    3.05
   2   6   1   51.18    2.84
  -2   6  -1   55.23    2.70
   2   6   1   56.22    2.84
   2   6   2  186.04    5.88
  -2   6  -2  191.68    5.52
   2   6   2  188.68    6.45
  -2   6  -2  181.34    5.55
  -2   6  -3   23.73    1.75
   2   6   3   29.30    2.23
  -2   6  -3   27.02    1.90
   2   6   3   28.23    1.92
  -2   6  -3   24.19    1.71
  -2   6  -4   81.82    3.49
   2   6   4   88.87    3.43
   2   6   5  124.36    4.60
   2   6   5  138.23    4.27
   2   6   6    5.84    0.83
   2   6   6    4.94    0.79
   2   6   6    5.72    0.83
  -2   6  -7  150.20    4.05
   2   6   7  156.21    4.25
  -2   7   7   26.31    1.11
  -2   7   5  124.57    3.74
  -2   7   4   54.76    2.36
   2   7  -3   62.31    3.12
   2   7  -2  432.72   10.45
   2   7  -2  400.34   10.15
   2   7  -1   45.87    2.59
   2   7  -1   48.73    2.65
   2   7   0  262.26    7.51
   2   7   1   15.57    1.49
   2   7   2   11.72    1.22
   2   7   3   55.10    2.55
   2   7   4   14.96    1.23
   2   7   5    1.29    0.35
   2   7   6   54.17    1.90
   2   7   6   59.24    2.16
   2   8  -1    0.83    0.41
   2   8   0  105.98    3.75
   2   8   5    0.35    0.16
  -3  -9   2   29.16    1.34
   3  -9  -2   31.64    1.16
  -3  -9   1   18.07    1.07
   3  -9  -1   20.67    0.91
  -3  -9   0    4.80    0.52
  -3  -8   5    7.81    0.68
   3  -8  -4   56.28    2.02
  -3  -8   4   56.98    2.40
   3  -8  -3  165.12    4.38
  -3  -8   3  152.51    4.82
  -3  -8   2    5.86    0.87
   3  -8  -2    8.01    0.82
   3  -8  -1   16.33    1.17
  -3  -8   1   15.43    1.39
   3  -8   0   98.60    3.08
  -3  -8   0   86.53    3.48
  -3  -8  -1   91.85    3.36
   3  -8   1   92.90    2.97
  -3  -8  -2   26.23    1.47
   3  -8   2   25.42    1.39
  -3  -8  -2   23.41    1.40
  -3  -8  -3   77.88    2.80
   3  -8   3   89.62    2.75
  -3  -8  -4    6.47    0.67
   3  -8   4    7.23    0.62
   3  -7  -6   19.07    0.94
  -3  -7   6   19.50    1.28
   3  -7  -5   32.91    1.68
  -3  -7   5   31.14    1.97
   3  -7  -4  190.90    5.38
  -3  -7   4  192.94    6.14
   3  -7  -3   53.12    2.66
  -3  -7   3   54.11    3.05
   3  -7  -2  244.13    6.69
  -3  -7   2  248.17    7.19
  -3  -7   2  234.40    7.45
  -3  -7   1  204.65    6.70
  -3  -7   1  207.43    6.75
   3  -7  -1  211.86    5.99
   3  -7   0   67.23    2.86
  -3  -7   0   74.89    3.40
  -3  -7   0   69.08    3.63
  -3  -7   0   65.62    3.37
   3  -7   0   71.24    2.89
   3  -7   1   13.91    1.15
  -3  -7  -1   10.60    1.19
  -3  -7  -1   13.90    1.51
   3  -7   1   11.63    1.15
  -3  -7  -1   11.69    1.32
  -3  -7  -2   27.36    1.83
  -3  -7  -2   23.18    1.83
  -3  -7  -2   24.08    2.02
   3  -7   2   26.97    1.76
  -3  -7  -3   56.27    2.38
  -3  -7  -3   55.19    3.04
   3  -7   3   55.10    2.87
  -3  -7  -3   47.86    2.72
   3  -7   3   51.92    2.46
  -3  -7  -4    4.29    0.81
   3  -7   4    3.98    0.72
   3  -7   4    5.12    0.71
  -3  -7  -5   21.36    1.54
   3  -7   5   22.14    1.44
   3  -7   5   22.36    1.28
  -3  -7  -6   29.90    1.49
   3  -6  -7   45.35    2.02
  -3  -6   7   50.66    2.15
  -3  -6   7   43.83    2.06
   3  -6  -6   77.46    3.24
   3  -6  -6   75.14    2.65
  -3  -6   6   85.86    3.40
  -3  -6   6   79.87    3.48
   3  -6  -5    4.89    0.77
  -3  -6   5    5.24    0.87
  -3  -6   5    4.45    0.92
   3  -6  -5    4.59    0.84
   3  -6  -4    0.72    0.46
   3  -6  -4    0.74    0.40
  -3  -6   4   -0.02    0.45
   3  -6  -3  243.89    7.11
   3  -6  -3  262.02    7.47
  -3  -6   3  237.09    7.83
  -3  -6   2  862.76   18.69
   3  -6  -2  890.50   18.04
  -3  -6   2  806.75   17.98
   3  -6  -2  790.38   17.29
   3  -6  -1   80.57    3.49
  -3  -6   1   77.95    3.94
  -3  -6   1   77.31    3.93
  -3  -6   0  372.70    9.95
  -3  -6   0  359.58   10.32
   3  -6   0  374.57    9.13
  -3  -6   0  387.71   10.15
  -3  -6  -1  357.57    9.52
   3  -6   1  392.26    9.89
  -3  -6  -1  365.52   10.26
   3  -6   1  376.78    8.70
  -3  -6  -1  366.49   10.02
  -3  -6  -1  357.42    9.53
  -3  -6  -2  243.54    7.85
  -3  -6  -2  253.98    7.93
   3  -6   2  253.16    7.58
  -3  -6  -2  233.56    6.89
  -3  -6  -2  232.13    7.48
   3  -6   2  241.48    6.89
  -3  -6  -3   55.47    3.33
  -3  -6  -3   66.52    3.64
   3  -6   3   62.65    3.32
   3  -6   3   68.12    3.05
  -3  -6  -4  195.16    6.51
   3  -6   4  177.70    6.05
  -3  -6  -4  174.68    6.32
   3  -6   4  193.16    5.57
   3  -6   5   27.33    1.96
  -3  -6  -5   22.38    1.93
  -3  -6  -5   29.49    2.12
   3  -6   5   28.34    1.70
   3  -6   6  127.53    4.12
  -3  -6  -6  125.45    4.44
   3  -6   6  126.36    3.60
  -3  -6  -7   57.08    2.25
   3  -5  -8    9.57    0.96
  -3  -5   8   10.97    1.00
  -3  -5   7   62.69    3.04
   3  -5  -7   67.40    3.35
  -3  -5   7   63.45    3.09
   3  -5  -7   63.19    3.09
  -3  -5   6   86.72    4.09
   3  -5  -6   88.83    4.20
   3  -5  -6   80.31    3.86
  -3  -5   6   86.44    3.94
   3  -5  -5  137.10    4.65
  -3  -5   5  142.63    5.65
   3  -5  -5  141.63    5.63
  -3  -5   5  142.99    5.34
   3  -5  -5  133.16    5.29
  -3  -5   4  208.53    7.30
   3  -5  -4  216.22    6.39
   3  -5  -4  229.04    7.39
   3  -5  -4  217.63    7.00
  -3  -5   3  636.41   15.26
   3  -5  -3  638.28   14.08
   3  -5  -3  651.67   15.14
   3  -5  -3  660.64   14.80
  -3  -5   3  646.99   14.43
  -3  -5   2  370.27   10.03
   3  -5  -2  348.85    8.93
  -3  -5   2  342.54    9.40
   3  -5  -2  353.98    9.61
   3  -5  -2  360.69    9.47
   3  -5  -1  513.50   10.76
   3  -5  -1  484.47   11.42
   3  -5  -1  476.94   11.39
  -3  -5   1  464.91   11.62
  -3  -5   1  463.58   11.70
   3  -5  -1  452.21   10.75
   3  -5  -1  497.49   10.85
  -3  -5   0   71.97    3.45
   3  -5   0   71.36    3.20
  -3  -5   0   72.53    3.48
   3  -5   0   72.92    2.99
   3  -5   0   73.24    3.32
  -3  -5   0   74.53    3.64
   3  -5   0   74.40    3.08
   3  -5   1   50.02    2.33
  -3  -5  -1   54.41    3.07
  -3  -5  -1   48.81    2.92
  -3  -5  -1   46.76    2.66
   3  -5   1   50.01    2.55
   3  -5   1   48.13    2.39
  -3  -5  -1   45.73    2.64
   3  -5   1   46.29    2.63
   3  -5   1   51.45    2.57
   3  -5   2  306.24    8.64
  -3  -5  -2  317.35    9.00
  -3  -5  -2  315.17    8.24
  -3  -5  -2  316.96    9.15
   3  -5   2  350.63    7.68
  -3  -5  -2  321.20    9.02
  -3  -5  -2  305.90    8.81
   3  -5   2  339.31    8.01
   3  -5   2  324.21    8.24
   3  -5   3   44.81    2.32
  -3  -5  -3   38.71    2.74
   3  -5   3   40.81    2.38
  -3  -5  -3   36.93    2.56
   3  -5   3   41.78    2.68
  -3  -5  -3   33.01    2.59
  -3  -5  -3   37.12    2.65
   3  -5   3   40.04    2.45
  -3  -5  -4  344.59    9.59
   3  -5   4  306.60    8.99
  -3  -5  -4  320.06    9.70
   3  -5   4  353.90    8.34
   3  -5   4  324.48    8.25
   3  -5   4  323.95    8.90
  -3  -5  -5  206.56    6.70
   3  -5   5  190.66    6.51
   3  -5   5  204.89    5.76
   3  -5   5  199.21    6.50
   3  -5   5  214.81    5.98
  -3  -5  -6  112.60    4.18
  -3  -5  -6  100.61    4.38
   3  -5   6  100.05    4.12
   3  -5   6  109.01    3.50
   3  -5   6  103.62    4.20
  -3  -5  -7   28.27    1.90
   3  -5   7   28.24    1.72
  -3  -5  -7   32.94    1.88
   3  -4  -9  191.07    5.02
  -3  -4   9  178.79    4.74
  -3  -4   8    3.55    0.73
  -3  -4   8    3.49    0.63
   3  -4  -8    4.56    0.84
   3  -4  -8    4.20    0.78
  -3  -4   7  108.66    4.56
   3  -4  -7  109.09    4.65
  -3  -4   7  114.94    4.67
   3  -4  -7  101.04    4.58
   3  -4  -6  156.40    5.94
  -3  -4   6  147.68    5.62
  -3  -4   6  146.95    5.29
   3  -4  -6  143.75    5.74
  -3  -4   5  349.29    9.59
   3  -4  -5  347.82    9.98
   3  -4  -5  328.88    9.68
  -3  -4   5  356.78    9.61
   3  -4  -5  360.62    9.92
  -3  -4   5  331.25    9.15
   3  -4  -4  393.92   10.41
  -3  -4   4  416.61   10.23
   3  -4  -4  413.86   10.66
   3  -4  -4  371.76    9.27
   3  -4  -4  394.31   10.46
  -3  -4   4  393.71   10.10
   3  -4  -3   18.23    1.67
   3  -4  -3   17.21    1.63
   3  -4  -3   16.08    1.56
  -3  -4   3   16.74    1.57
  -3  -4   3   17.54    1.50
   3  -4  -3   18.33    1.43
  -3  -4   2  228.68    6.19
   3  -4  -2  223.25    6.52
   3  -4  -2  232.13    6.12
   3  -4  -1  276.57    7.25
   3  -4  -1  279.49    7.02
  -3  -4   1  294.60    7.00
  -3  -4   0   58.85    2.54
   3  -4   0   56.49    2.50
   3  -4   1  296.82    7.13
  -3  -4  -1  275.19    7.35
   3  -4   1  286.14    7.11
  -3  -4  -2   12.50    1.31
   3  -4   2   12.52    1.17
   3  -4   3   56.05    2.20
  -3  -4  -3   46.51    2.70
   3  -4   3   48.34    2.77
  -3  -4  -3   46.43    2.86
  -3  -4  -3   48.93    2.99
  -3  -4  -3   48.91    2.84
   3  -4   3   52.36    2.48
   3  -4   3   50.69    2.52
   3  -4   3   44.76    2.51
   3  -4   4   26.07    2.10
  -3  -4  -4   24.21    2.19
  -3  -4  -4   22.93    2.02
   3  -4   4   22.71    1.86
   3  -4   4   28.11    1.87
   3  -4   4   24.61    1.80
  -3  -4  -4   26.04    2.16
  -3  -4  -5   87.13    4.03
  -3  -4  -5   84.72    3.93
   3  -4   5   86.90    4.07
  -3  -4  -5   89.04    4.52
   3  -4   5   91.45    3.74
  -3  -4  -5   94.41    4.36
   3  -4   5   89.98    3.42
   3  -4   5   87.64    4.02
  -3  -4  -6    3.24    0.76
   3  -4   6    3.86    0.91
  -3  -4  -6    2.91    0.88
  -3  -4  -6    3.04    0.70
   3  -4   6    2.75    0.66
   3  -4   6    4.41    0.89
  -3  -4  -7    5.32    0.91
   3  -4   7    5.39    0.89
   3  -4   7    4.42    0.84
  -3  -4  -8    1.25    0.37
  -3  -4  -8    0.63    0.35
   3  -4   8    1.61    0.44
   3  -3  -9   78.56    3.36
   3  -3  -9   84.68    3.05
  -3  -3   9   78.91    3.20
   3  -3  -8   30.08    2.33
   3  -3  -8   31.66    2.19
  -3  -3   8   35.02    2.39
  -3  -3   7  287.38    8.41
   3  -3  -7  277.46    8.35
  -3  -3   7  285.19    7.84
   3  -3  -7  271.00    8.68
   3  -3  -6   97.10    4.60
   3  -3  -6   93.09    4.36
   3  -3  -6   93.37    4.54
  -3  -3   6   91.44    3.97
  -3  -3   6   97.20    4.45
  -3  -3   6   96.22    4.32
   3  -3  -5   13.21    1.57
  -3  -3   5   14.13    1.54
   3  -3  -5   13.66    1.52
  -3  -3   5   13.55    1.49
  -3  -3   5   13.32    1.40
   3  -3  -5   16.79    1.72
  -3  -3   4  169.19    5.43
   3  -3  -4  167.84    5.55
   3  -3  -4  155.07    4.90
  -3  -3   3  455.79   10.35
   3  -3  -3  443.41   10.46
   3  -3  -3  461.32   10.08
   3  -3  -2  238.64    6.31
  -3  -3   2  250.55    6.30
   3  -3  -2  249.41    6.24
   3  -3  -1  119.23    3.70
  -3  -3   1  125.30    3.39
  -3  -3   1  119.65    3.70
   3  -3  -1  118.35    3.73
   3  -3   0  130.99    3.81
  -3  -3   0  132.51    3.77
   3  -3   0  136.06    4.00
  -3  -3  -1  138.23    4.18
   3  -3   1  145.01    3.95
   3  -3   1  143.56    4.18
  -3  -3  -2  142.53    4.09
  -3  -3  -2  139.06    4.40
   3  -3   2  132.85    4.07
  -3  -3  -3    0.19    0.23
   3  -3   3    0.13    0.38
  -3  -3  -3    0.50    0.34
  -3  -3  -4    0.17    0.37
   3  -3   4    0.38    0.29
   3  -3   4    0.22    0.28
  -3  -3  -4    0.17    0.33
   3  -3   5  193.65    5.89
  -3  -3  -5  187.51    6.07
  -3  -3  -5  180.53    5.99
   3  -3   5  186.45    6.20
  -3  -3  -5  183.35    6.69
  -3  -3  -5  185.15    6.27
   3  -3   5  178.92    5.15
   3  -3   5  182.38    6.05
  -3  -3  -6  419.74   10.81
  -3  -3  -6  401.06   10.66
   3  -3   6  411.23   10.67
  -3  -3  -6  421.23   11.48
   3  -3   6  417.07   10.45
   3  -3   6  413.69   10.65
   3  -3   7   26.58    2.02
  -3  -3  -7   23.69    2.13
  -3  -3  -7   23.61    2.01
   3  -3   7   23.11    1.91
  -3  -3  -8   74.76    3.11
  -3  -3  -8   81.89    3.55
   3  -3   8   78.22    3.32
  -3  -3  -9  136.84    4.07
   3  -3   9  132.74    3.84
  -3  -2  10   75.24    2.59
   3  -2 -10   80.01    2.85
   3  -2  -9    3.23    0.78
  -3  -2   9    4.10    0.76
  -3  -2   8   18.02    1.74
   3  -2  -8   16.56    1.81
   3  -2  -8   16.08    1.55
  -3  -2   8   18.34    1.52
  -3  -2   7    7.39    1.04
   3  -2  -7    6.04    1.10
   3  -2  -7    6.75    1.10
  -3  -2   7    5.09    0.94
   3  -2  -7    6.89    1.24
   3  -2  -6  171.48    6.33
   3  -2  -6  163.73    6.04
   3  -2  -6  168.09    5.93
  -3  -2   6  180.40    6.23
   3  -2  -6  178.87    6.20
   3  -2  -6  171.18    5.55
  -3  -2   6  189.33    6.05
   3  -2  -5   37.20    2.18
  -3  -2   5   42.94    2.56
   3  -2  -5   42.27    2.52
   3  -2  -5   42.00    2.57
   3  -2  -5   42.54    2.69
   3  -2  -4  268.07    6.85
  -3  -2   4  274.01    7.20
   3  -2  -4  272.99    7.15
   3  -2  -4  273.97    7.34
   3  -2  -3   37.99    1.90
   3  -2  -3   36.32    1.89
  -3  -2   3   35.21    1.92
   3  -2  -2 1606.90   29.32
  -3  -2   2 1644.22   29.64
   3  -2  -2 1662.02   29.56
   3  -2  -1   39.44    1.65
  -3  -2   1   38.04    1.40
   3  -2  -1   41.19    1.83
   3  -2   0  683.86   12.82
  -3  -2   0  667.55   12.76
  -3  -2   0  691.70   12.67
   3  -2   0  695.47   13.34
  -3  -2  -1  802.83   15.02
  -3  -2  -1  780.76   14.48
  -3  -2  -1  819.00   14.55
   3  -2   1  792.67   15.24
  -3  -2  -2  133.42    3.83
   3  -2   2  131.45    3.76
  -3  -2  -3  137.99    4.21
   3  -2   3  133.36    3.93
  -3  -2  -4   29.51    1.91
   3  -2   4   31.95    1.76
  -3  -2  -5  111.94    4.27
  -3  -2  -5  110.85    4.23
   3  -2   5  123.27    4.42
  -3  -2  -5  116.41    4.41
   3  -2   5  120.73    4.47
  -3  -2  -6  295.13    8.33
  -3  -2  -6  303.31    9.01
  -3  -2  -6  300.64    8.33
   3  -2   6  292.49    8.37
   3  -2   6  300.02    8.33
  -3  -2  -7   31.17    2.35
  -3  -2  -7   34.26    2.55
   3  -2   7   34.69    2.37
  -3  -2  -8  280.05    7.89
  -3  -2  -8  275.67    7.69
   3  -2   8  274.54    7.52
  -3  -2  -9   83.88    3.26
   3  -2   9   80.25    2.95
   3  -1 -10    7.79    0.88
  -3  -1  10    8.81    0.87
   3  -1  -9   10.98    1.33
  -3  -1   9    9.46    1.14
  -3  -1   8   23.52    1.96
   3  -1  -8   23.80    2.15
   3  -1  -7  276.68    8.57
  -3  -1   7  269.85    7.34
  -3  -1   7  294.16    8.10
   3  -1  -7  273.05    8.40
   3  -1  -6   14.19    1.39
   3  -1  -6   13.01    1.55
   3  -1  -6   11.34    1.36
   3  -1  -6   13.65    1.40
  -3  -1   6   11.67    1.17
  -3  -1   6   10.96    1.37
   3  -1  -6   12.45    1.38
  -3  -1   5   41.00    2.40
   3  -1  -5   39.27    2.22
   3  -1  -5   38.82    2.38
  -3  -1   4  274.11    6.96
   3  -1  -4  268.94    7.02
   3  -1  -4  270.58    6.73
   3  -1  -4  271.65    6.55
   3  -1  -3  775.71   15.12
   3  -1  -3  801.24   14.89
   3  -1  -3  774.75   15.40
   3  -1  -3  787.60   15.08
   3  -1  -3  759.52   14.62
  -3  -1   3  788.58   15.38
   3  -1  -2 1271.73   22.51
   3  -1  -2 1225.67   23.17
   3  -1  -2 1288.13   23.11
   3  -1  -2 1270.75   22.34
  -3  -1   2 1279.41   22.92
   3  -1  -1 1871.54   32.31
   3  -1  -1 1852.48   31.54
  -3  -1   1 1810.89   32.04
  -3  -1   1 1800.61   31.40
   3  -1   0  257.46    4.95
  -3  -1   0  246.40    5.46
  -3  -1   0  258.07    5.15
   3  -1   0  246.00    5.65
  -3  -1  -1  429.62    8.32
   3  -1   1  428.80    8.69
  -3  -1  -2   35.65    1.54
   3  -1   2   33.89    1.37
  -3  -1  -2   34.02    1.47
   3  -1   2   31.51    1.48
  -3  -1  -3  209.37    5.12
   3  -1   3  210.03    5.01
  -3  -1  -3  205.70    5.12
   3  -1   3  203.59    5.01
  -3  -1  -4   39.89    1.97
  -3  -1  -4   46.91    2.17
   3  -1   4   42.49    1.90
  -3  -1  -5   47.10    2.46
  -3  -1  -5   46.18    2.45
   3  -1   5   48.80    2.50
  -3  -1  -5   48.08    2.45
   3  -1   5   47.56    2.59
  -3  -1  -5   53.13    2.58
   3  -1   5   49.44    2.59
  -3  -1  -6  709.28   15.37
  -3  -1  -6  684.84   15.29
   3  -1   6  698.92   15.75
  -3  -1  -6  740.62   15.31
   3  -1   6  704.61   15.42
  -3  -1  -7  292.22    8.30
  -3  -1  -7  305.49    8.65
   3  -1   7  285.17    8.10
  -3  -1  -8    7.60    1.12
   3  -1   8    7.50    1.03
  -3  -1  -9  142.38    4.62
   3  -1   9  135.75    4.18
  -3   0  10   78.60    2.89
   3   0 -10   78.45    3.01
  -3   0   9   -0.06    0.27
   3   0  -9    0.08    0.35
   3   0  -8  180.07    6.29
  -3   0   8  162.77    5.12
   3   0  -8  177.54    5.89
   3   0  -7   44.64    2.88
   3   0  -7   44.69    2.86
   3   0  -7   43.21    2.85
  -3   0   7   40.26    2.22
   3   0  -7   41.77    2.64
  -3   0   7   41.91    2.61
   3   0  -7   44.24    2.63
  -3   0   7   41.46    2.79
   3   0  -6  585.87   13.86
  -3   0   6  609.40   13.73
   3   0  -6  585.92   13.45
  -3   0   6  619.03   12.57
   3   0  -6  602.28   13.75
   3   0  -6  601.84   13.87
  -3   0   6  601.11   12.65
   3   0  -6  612.64   13.61
  -3   0   6  586.33   13.29
  -3   0   5  339.39    8.32
   3   0  -5  320.58    8.24
   3   0  -5  319.86    8.36
   3   0  -5  321.64    8.19
  -3   0   4  216.80    5.72
   3   0  -4  207.95    5.53
   3   0  -4  213.82    5.74
   3   0  -4  208.82    5.81
   3   0  -3  763.69   14.82
   3   0  -3  733.96   14.90
   3   0  -3  770.21   14.57
  -3   0   3  781.42   14.87
   3   0  -2 1135.13   19.51
   3   0  -2 1120.35   19.20
   3   0  -2 1130.94   20.42
   3   0  -2 1087.33   20.14
  -3   0   2 1120.65   20.15
  -3   0   2 1053.22   19.42
   3   0  -1  927.53   17.15
  -3   0   1  922.29   17.19
  -3   0   1  955.91   16.65
  -3   0   0  420.51    8.03
  -3   0   0  440.71    8.10
   3   0   0  420.84    8.43
  -3   0  -1  621.03   12.30
   3   0   1  621.02   11.96
  -3   0  -2   31.17    1.56
   3   0   2   31.41    1.35
  -3   0  -2   30.71    1.26
   3   0   2   32.47    1.33
  -3   0  -3   67.41    2.21
  -3   0  -3   76.80    2.81
   3   0   3   73.73    2.47
   3   0   3   71.29    2.22
  -3   0  -4  234.32    6.28
   3   0   4  227.22    5.72
  -3   0  -4  234.66    5.39
  -3   0  -4  237.19    5.69
  -3   0  -5  112.40    4.05
  -3   0  -5   90.12    3.41
  -3   0  -5   94.21    3.53
   3   0   5   91.61    3.42
  -3   0  -5   94.25    3.37
  -3   0  -5   98.49    3.50
   3   0   5   83.95    3.52
   3   0   5  102.06    3.74
  -3   0  -6   49.38    2.67
  -3   0  -6   49.70    2.61
   3   0   6   53.41    2.74
   3   0   6   46.82    2.73
   3   0   6   48.25    2.65
  -3   0  -7   38.90    2.30
  -3   0  -7   37.33    2.40
  -3   0  -7   40.38    2.51
   3   0   7   38.33    2.39
  -3   0  -8   68.69    3.07
  -3   0  -8   65.94    3.26
   3   0   8   67.58    3.11
  -3   0  -9    0.76    0.33
  -3   0  -9    0.49    0.35
   3   0   9    0.48    0.30
   3   1 -10    8.01    0.84
  -3   1  10    9.10    0.89
   3   1  -9    8.99    1.12
   3   1  -9    9.92    1.04
  -3   1   9   10.49    1.13
  -3   1   9    9.78    0.94
   3   1  -8   22.44    1.95
   3   1  -8   23.98    1.90
  -3   1   8   20.83    1.54
   3   1  -8   23.81    1.93
  -3   1   8   23.92    1.87
   3   1  -7  291.67    8.28
  -3   1   7  285.10    7.10
   3   1  -7  282.63    8.24
  -3   1   7  282.16    7.20
   3   1  -7  272.95    7.94
  -3   1   7  272.70    7.73
   3   1  -6   15.20    1.51
   3   1  -6   11.39    1.39
  -3   1   6   12.82    1.14
   3   1  -6   12.30    1.34
  -3   1   6   11.56    1.24
   3   1  -6   10.41    1.37
  -3   1   5   39.98    2.15
   3   1  -5   37.56    2.28
   3   1  -5   35.79    2.31
   3   1  -4  285.11    7.01
  -3   1   4  284.87    6.75
  -3   1   4  271.57    5.97
   3   1  -4  280.23    7.29
  -3   1   3  755.76   14.39
   3   1  -3  811.41   14.83
  -3   1   3  792.93   14.74
   3   1  -3  775.33   14.91
   3   1  -3  796.37   15.55
   3   1  -3  762.20   15.11
  -3   1   3  781.02   14.93
  -3   1   3  786.11   15.00
  -3   1   2 1250.65   22.52
   3   1  -2 1268.66   22.81
   3   1  -2 1251.35   22.68
   3   1  -2 1269.92   23.38
   3   1  -2 1305.18   22.34
  -3   1   2 1273.70   22.99
   3   1  -1 1887.91   32.78
  -3   1   1 1863.45   32.50
   3   1   0  271.76    5.43
   3   1   0  253.75    5.59
  -3   1   0  269.34    5.32
  -3   1   0  256.59    5.88
  -3   1   0  247.77    5.39
   3   1   0  254.05    5.71
  -3   1  -1  418.19    8.91
  -3   1  -1  425.15    8.46
   3   1   1  422.33    8.49
  -3   1  -1  427.84    8.22
   3   1   1  433.67    8.12
  -3   1  -2   37.27    1.83
   3   1   2   36.91    1.32
  -3   1  -2   37.79    1.48
   3   1   2   33.53    1.51
  -3   1  -2   35.35    1.35
   3   1   2   35.56    1.19
  -3   1  -3  206.55    5.64
   3   1   3  204.26    4.99
  -3   1  -3  193.30    4.85
  -3   1  -3  202.34    4.57
  -3   1  -4   41.91    1.87
   3   1   4   42.81    2.03
  -3   1  -4   42.22    1.76
  -3   1  -4   41.52    2.36
  -3   1  -5   53.07    2.46
  -3   1  -5   49.42    2.25
   3   1   5   50.01    2.36
   3   1   5   44.34    2.47
  -3   1  -5   49.13    2.17
   3   1   5   47.59    2.42
  -3   1  -5   49.39    2.80
  -3   1  -6  742.16   16.42
  -3   1  -6  708.93   15.33
   3   1   6  683.77   15.05
  -3   1  -6  744.01   15.29
   3   1   6  714.06   15.70
   3   1   6  743.34   14.98
   3   1   6  756.67   15.52
  -3   1  -7  288.48    7.80
  -3   1  -7  269.83    7.75
   3   1   7  289.82    8.00
   3   1   7  305.96    7.47
   3   1   7  285.11    7.74
  -3   1  -8    8.71    1.06
  -3   1  -8    6.57    0.97
   3   1   8    8.17    0.91
   3   1   8    8.01    1.00
  -3   1  -9  139.21    4.28
  -3   1  -9  142.01    4.48
   3   1   9  145.46    4.02
  -3   2  10   83.70    2.75
   3   2  -9    2.84    0.59
   3   2  -9    3.04    0.62
   3   2  -9    3.33    0.67
  -3   2   9    3.98    0.60
   3   2  -8   16.68    1.62
   3   2  -8   16.15    1.56
  -3   2   8   17.77    1.32
  -3   2   8   17.61    1.36
   3   2  -8   17.09    1.61
  -3   2   8   15.92    1.48
   3   2  -7    6.02    0.98
   3   2  -7    5.76    0.98
  -3   2   7    6.35    0.84
   3   2  -7    6.88    1.05
  -3   2   7    6.19    0.95
   3   2  -6  171.65    6.28
  -3   2   6  181.56    5.11
   3   2  -6  172.20    6.24
   3   2  -6  170.76    5.66
  -3   2   6  178.54    5.45
   3   2  -5   39.60    2.51
  -3   2   5   43.96    2.21
   3   2  -5   43.04    2.69
   3   2  -5   41.30    2.34
  -3   2   4  245.81    6.07
  -3   2   4  273.74    6.46
   3   2  -4  281.37    7.36
   3   2  -4  273.27    7.05
   3   2  -4  254.94    6.62
   3   2  -3   36.07    2.02
  -3   2   3   36.88    1.70
   3   2  -3   39.73    2.01
  -3   2   3   40.44    1.74
  -3   2   3   38.14    1.75
  -3   2   3   37.57    1.61
   3   2  -2 1625.34   30.02
   3   2  -2 1674.02   28.94
   3   2  -2 1632.49   29.76
   3   2  -2 1623.11   29.46
  -3   2   2 1722.66   29.43
  -3   2   2 1625.92   29.49
  -3   2   1   37.19    1.56
   3   2  -1   39.95    1.77
   3   2  -1   42.90    1.71
  -3   2   1   42.58    1.64
  -3   2   0  703.67   12.83
   3   2   0  683.52   13.27
   3   2   0  687.44   12.54
  -3   2   0  714.66   13.55
   3   2   0  658.51   13.45
  -3   2  -1  857.87   14.81
  -3   2  -1  835.52   15.91
   3   2   1  798.98   15.48
  -3   2  -1  810.03   15.47
  -3   2  -1  786.82   15.04
   3   2   1  799.06   15.69
  -3   2  -2  147.24    4.36
   3   2   2  132.71    3.71
  -3   2  -2  141.60    3.73
   3   2   2  129.39    3.79
  -3   2  -2  132.43    3.34
  -3   2  -3  138.45    4.62
   3   2   3  136.06    3.99
  -3   2  -3  142.93    3.51
  -3   2  -4   29.44    1.71
   3   2   4   28.91    1.73
  -3   2  -5  124.47    4.02
   3   2   5  119.14    4.01
  -3   2  -5  114.55    3.99
  -3   2  -5  124.50    4.92
   3   2   5  118.76    4.14
  -3   2  -6  313.00    7.94
   3   2   6  309.07    7.87
  -3   2  -6  316.91    7.82
   3   2   6  299.82    8.46
   3   2   6  301.00    7.80
   3   2   6  304.16    7.95
  -3   2  -6  329.60    7.98
  -3   2  -6  295.82    8.98
  -3   2  -7   31.98    2.16
  -3   2  -7   32.55    2.09
   3   2   7   30.04    2.19
   3   2   7   35.87    2.08
   3   2   7   35.81    2.15
  -3   2  -7   35.35    2.16
  -3   2  -8  293.55    7.54
  -3   2  -8  282.93    7.45
   3   2   8  279.13    6.98
   3   2   8  289.82    7.16
  -3   2  -9   78.64    2.94
  -3   2  -9   84.62    2.99
   3   2   9   77.98    2.52
   3   3  -9   78.98    3.12
  -3   3   9   73.41    2.57
   3   3  -9   80.46    3.13
  -3   3   8   32.12    1.79
   3   3  -8   33.82    2.20
  -3   3   8   30.49    1.92
  -3   3   7  295.09    7.34
   3   3  -7  279.32    8.01
  -3   3   7  299.61    7.73
  -3   3   6   94.97    3.71
   3   3  -6  100.73    4.66
   3   3  -6   92.51    3.93
  -3   3   5   13.23    1.15
   3   3  -5   11.21    1.41
  -3   3   5   13.98    1.28
   3   3  -5   13.54    1.58
   3   3  -5   13.47    1.34
   3   3  -4  170.91    5.60
  -3   3   4  165.57    4.79
  -3   3   4  161.29    4.70
   3   3  -4  163.79    5.38
   3   3  -4  152.27    4.90
   3   3  -3  436.31   10.50
  -3   3   3  459.34    9.75
  -3   3   3  458.40    9.70
   3   3  -3  490.35   10.65
  -3   3   3  459.67    9.98
  -3   3   3  483.75    9.67
   3   3  -3  441.72   10.05
   3   3  -2  241.66    6.36
   3   3  -2  244.26    6.33
   3   3  -2  240.52    6.33
  -3   3   2  249.32    5.79
  -3   3   2  257.12    5.76
  -3   3   2  245.63    6.04
  -3   3   2  244.64    5.84
   3   3  -1  117.06    3.78
  -3   3   1  122.44    3.35
  -3   3   1  125.59    3.58
   3   3  -1  113.67    3.69
   3   3   0  132.25    4.01
  -3   3   0  135.64    4.06
  -3   3   0  130.59    3.63
  -3   3   0  143.51    3.73
   3   3   0  131.61    4.20
  -3   3  -1  146.21    3.61
   3   3   1  137.39    4.07
  -3   3  -1  148.91    4.43
   3   3   1  135.44    4.18
   3   3   1  147.34    4.42
  -3   3  -2  138.61    4.45
   3   3   2  126.75    4.11
  -3   3  -2  138.48    3.99
   3   3   2  127.13    4.05
  -3   3  -2  136.70    3.56
  -3   3  -3    0.52    0.30
  -3   3  -3    0.13    0.33
   3   3   3    0.40    0.26
   3   3   3   -0.07    0.33
  -3   3  -3    0.35    0.17
   3   3   4    1.16    0.43
  -3   3  -4    1.04    0.46
  -3   3  -5  192.75    5.60
   3   3   5  188.37    5.56
  -3   3  -5  193.92    5.84
   3   3   5  183.40    5.57
  -3   3  -5  181.77    6.43
  -3   3  -6  446.28   10.06
   3   3   6  420.94   10.05
  -3   3  -6  449.56   10.43
   3   3   6  411.72   10.87
   3   3   6  401.69   10.08
   3   3   6  458.84   10.27
   3   3   7   21.99    1.64
  -3   3  -7   24.69    1.71
   3   3   7   22.95    1.91
   3   3   7   20.56    1.58
   3   3   7   23.30    1.63
  -3   3  -8   86.36    3.35
  -3   3  -8   86.25    3.22
   3   3   8   80.56    3.01
  -3   3  -9  141.17    3.93
   3   3   9  128.47    3.38
  -3   4   9  194.28    4.38
  -3   4   9  193.06    4.57
   3   4  -9  197.99    5.12
   3   4  -9  197.28    5.22
   3   4  -8    3.83    0.73
  -3   4   8    3.92    0.61
   3   4  -8    2.73    0.59
  -3   4   7  110.55    3.72
   3   4  -7  103.88    4.14
  -3   4   6  146.69    4.58
  -3   4   6  158.50    5.07
   3   4  -6  150.65    5.56
   3   4  -6  149.01    5.17
   3   4  -5  340.33    9.85
   3   4  -5  368.58   10.04
  -3   4   5  360.49    8.82
  -3   4   5  371.47    8.74
   3   4  -5  343.97    9.13
   3   4  -4  393.75   10.31
  -3   4   4  434.45    9.52
   3   4  -4  405.21   10.42
  -3   4   4  401.77    9.41
  -3   4   4  400.17    9.56
   3   4  -4  428.55   10.57
   3   4  -4  394.09    9.81
   3   4  -3   19.96    1.69
  -3   4   3   17.87    1.36
   3   4  -3   15.24    1.45
  -3   4   3   20.75    1.42
   3   4  -3   19.44    1.64
  -3   4   3   18.43    1.49
   3   4  -3   17.37    1.60
   3   4  -3   21.78    1.57
  -3   4   2  230.13    5.85
   3   4  -2  219.46    6.44
   3   4  -2  227.73    6.48
  -3   4   2  224.92    6.12
   3   4  -1  277.33    7.27
  -3   4   1  287.97    6.69
   3   4  -1  278.58    7.35
  -3   4   1  288.29    7.02
   3   4   0   56.19    2.58
  -3   4   0   60.61    2.16
  -3   4   0   56.10    2.32
   3   4   0   55.16    2.76
  -3   4  -1  293.69    6.57
   3   4   1  288.66    7.22
  -3   4  -1  287.41    7.36
   3   4   1  286.90    7.50
  -3   4  -1  315.15    6.66
   3   4   1  282.81    7.58
  -3   4  -2   11.23    1.18
   3   4   2    9.78    1.15
  -3   4  -2   12.58    1.14
   3   4   2   11.82    1.19
  -3   4  -2   10.56    0.89
   3   4   3   54.64    2.72
  -3   4  -3   54.58    2.37
   3   4   3   51.79    2.57
  -3   4  -4   23.02    1.95
   3   4   4   26.40    1.80
  -3   4  -4   28.17    1.90
   3   4   4   23.07    1.70
  -3   4  -5   98.66    3.82
   3   4   5   90.43    3.63
  -3   4  -5   97.59    3.99
   3   4   5   96.66    3.70
   3   4   6    5.69    0.87
  -3   4  -6    4.25    0.87
   3   4   6    4.64    0.77
   3   4   6    3.34    0.84
   3   4   6    3.44    0.76
  -3   4  -7    5.69    0.75
   3   4   7    4.58    0.73
   3   4   7    4.97    0.89
   3   4   7    5.25    0.79
  -3   4  -8    1.48    0.46
   3   4   8    1.34    0.38
   3   5  -8   11.25    1.10
  -3   5   8   11.34    0.88
   3   5  -8   10.93    0.99
   3   5  -7   74.54    3.37
  -3   5   7   73.17    2.75
   3   5  -7   66.84    2.97
  -3   5   6   79.22    3.16
  -3   5   6   86.99    3.43
   3   5  -6   84.76    3.53
   3   5  -5  137.60    5.47
  -3   5   5  135.05    4.63
   3   5  -4  233.83    7.24
   3   5  -4  240.57    7.50
  -3   5   4  231.65    6.43
  -3   5   4  230.01    6.37
  -3   5   4  228.04    6.64
   3   5  -3  659.57   14.97
  -3   5   3  652.99   13.85
  -3   5   3  661.18   13.61
   3   5  -3  634.31   15.04
  -3   5   3  656.45   14.37
   3   5  -3  660.81   14.59
   3   5  -2  357.15    9.30
   3   5  -2  345.00    9.35
  -3   5   2  343.98    8.76
  -3   5   2  347.05    8.36
   3   5  -1  486.30   11.48
  -3   5   1  497.99   10.68
   3   5  -1  488.89   11.75
  -3   5   1  497.04   11.11
   3   5  -1  470.83   11.73
   3   5   0   71.79    3.24
  -3   5   0   79.76    3.04
   3   5   0   73.04    3.49
   3   5   1   49.23    2.55
  -3   5  -1   55.61    2.25
  -3   5  -1   51.96    2.70
   3   5   1   46.65    2.66
   3   5   1   55.79    2.93
   3   5   2  321.60    8.92
  -3   5  -2  340.40    8.21
   3   5   2  329.55    8.55
  -3   5  -2  343.48    7.50
  -3   5  -3   33.60    2.24
   3   5   3   37.06    2.28
  -3   5  -3   41.67    2.41
   3   5   3   42.94    2.61
  -3   5  -3   44.26    2.19
  -3   5  -4  351.56    8.77
   3   5   4  339.41    8.60
  -3   5  -4  330.33    8.91
   3   5   4  343.11    8.49
   3   5   5  208.86    6.08
   3   5   5  220.69    6.03
  -3   5  -6  118.16    3.67
   3   5   6  113.10    3.88
   3   5   6  112.94    4.43
   3   5   6  109.18    4.05
   3   5   7   33.44    2.00
   3   5   7   33.32    1.80
  -3   5  -8   53.00    2.02
   3   5   8   52.19    1.89
  -3   6   8    2.24    0.31
  -3   6   7   54.68    2.03
   3   6  -7   49.11    2.01
   3   6  -7   48.38    2.22
  -3   6   6   79.44    2.93
   3   6  -6   76.76    3.22
   3   6  -5    3.45    0.69
  -3   6   5    4.42    0.69
   3   6  -4    0.22    0.37
  -3   6   4    0.57    0.34
   3   6  -3  254.05    7.73
  -3   6   3  250.78    6.79
   3   6  -2  824.58   17.69
  -3   6   2  811.31   16.45
  -3   6   2  795.86   16.85
   3   6  -2  797.61   17.78
   3   6  -1   84.76    3.79
  -3   6   1   85.71    3.49
   3   6  -1   81.79    3.88
  -3   6   0  366.06    8.79
   3   6   0  377.74    9.63
   3   6   0  393.38   10.07
  -3   6   0  401.87    9.08
   3   6   0  391.29   10.04
   3   6   1  370.33   10.30
  -3   6  -1  384.60    9.46
   3   6   1  385.33    9.86
   3   6   2  243.63    7.72
   3   6   2  258.31    7.39
  -3   6  -2  265.93    6.88
  -3   6  -3   62.78    2.95
   3   6   3   64.30    3.04
   3   6   3   61.87    2.86
   3   6   4  194.25    5.75
   3   6   4  199.66    5.56
   3   6   5   26.66    1.68
   3   6   5   22.65    1.79
   3   6   6  122.26    3.84
   3   6   6  132.08    4.23
   3   6   6  133.45    4.07
  -3   6  -7   63.68    2.16
   3   6   7   61.78    2.27
   3   6   7   67.41    2.26
  -3   7   6   20.16    1.07
   3   7  -3   45.16    2.66
  -3   7   2  194.25    5.61
   3   7  -2  224.16    6.64
  -3   7   1  174.57    5.08
   3   7  -1  196.92    6.09
   3   7   0   65.85    3.27
   3   7   0   66.79    3.21
   3   7   1   11.86    1.30
   3   7   2   28.14    1.92
   3   7   3   54.48    2.54
   3   7   3   53.83    2.33
   3   7   5   17.72    1.20
   3   7   6   33.77    1.44
  -4  -8   4   49.74    2.05
   4  -8  -4   58.41    1.72
   4  -8  -3   33.93    1.43
  -4  -8   3   30.82    1.72
  -4  -8   2   35.65    1.96
   4  -8  -2   43.24    1.73
   4  -8  -1   88.35    2.67
  -4  -8   1   69.67    2.88
   4  -8   0   14.50    0.94
  -4  -8   0   11.10    0.99
  -4  -8  -1   34.19    1.58
   4  -8   1   32.40    1.44
   4  -8   2   85.16    2.56
   4  -8   3   44.01    1.59
  -4  -7   6   15.15    1.03
  -4  -7   5   77.53    3.13
   4  -7  -5   84.18    2.43
  -4  -7   4   13.13    1.34
   4  -7  -4   13.94    1.05
  -4  -7   3   42.12    2.58
   4  -7  -3   47.02    2.16
  -4  -7   3   46.70    2.38
   4  -7  -3   43.76    2.10
  -4  -7   2   45.71    2.73
   4  -7  -2   51.67    2.35
  -4  -7   2   48.36    2.72
   4  -7  -2   49.11    2.27
  -4  -7   1  106.92    4.33
  -4  -7   1  106.41    4.46
   4  -7   0    4.17    0.66
  -4  -7   0    3.47    0.71
  -4  -7   0    4.01    0.89
   4  -7   0    3.71    0.62
  -4  -7  -1   15.94    1.53
  -4  -7  -1   19.05    1.50
   4  -7   1   18.64    1.41
  -4  -7  -2   21.42    1.59
  -4  -7  -2   23.52    1.89
   4  -7   2   24.37    1.58
  -4  -7  -3   27.38    1.97
  -4  -7  -3   25.95    1.77
   4  -7   3   27.85    1.63
  -4  -7  -4   25.18    1.66
  -4  -7  -4   31.38    1.91
   4  -7   4   29.02    1.50
  -4  -7  -5   45.58    2.00
   4  -7   5   48.82    1.72
   4  -6  -7   14.80    1.04
  -4  -6   7   13.39    1.04
   4  -6  -6    9.75    1.05
  -4  -6   6   11.80    1.23
   4  -6  -5    7.04    0.76
   4  -6  -5    8.51    1.09
  -4  -6   5    7.81    1.14
   4  -6  -4   27.70    2.09
  -4  -6   4   28.48    2.30
   4  -6  -4   27.27    1.74
   4  -6  -3  169.55    5.76
  -4  -6   3  158.18    6.00
   4  -6  -3  162.04    5.06
  -4  -6   3  166.21    5.65
  -4  -6   2  107.44    4.69
  -4  -6   2  104.04    4.52
   4  -6  -2  104.50    3.93
  -4  -6   1  110.08    4.70
  -4  -6   1  119.13    4.99
   4  -6  -1  119.26    4.06
   4  -6  -1  111.00    4.12
   4  -6   0  349.53    8.24
  -4  -6   0  324.41    9.19
  -4  -6   0  350.01    9.83
  -4  -6   0  335.06    9.13
   4  -6   0  341.94    8.48
  -4  -6  -1  131.30    5.44
  -4  -6  -1  133.45    4.84
  -4  -6  -1  131.79    5.36
   4  -6   1  147.49    4.69
   4  -6   2  132.23    3.92
  -4  -6  -2  106.76    4.54
  -4  -6  -2  102.55    4.74
  -4  -6  -2  112.73    4.85
   4  -6   2  124.19    4.11
  -4  -6  -3  128.20    5.19
   4  -6   3  137.45    4.28
   4  -6   3  131.43    4.42
  -4  -6  -4   41.24    2.65
  -4  -6  -4   44.43    2.72
   4  -6   4   45.10    2.25
  -4  -6  -5    5.28    0.86
  -4  -6  -5    4.73    0.80
   4  -6   5    5.34    0.66
  -4  -6  -6    9.97    1.01
   4  -6   6   10.94    0.76
  -4  -5   8   30.40    1.53
   4  -5  -8   34.86    1.72
   4  -5  -7    5.39    0.84
  -4  -5   7    5.12    0.85
   4  -5  -6   29.17    2.19
  -4  -5   6   30.49    2.31
   4  -5  -5   61.45    3.40
  -4  -5   5   56.98    3.45
  -4  -5   4  454.27   11.85
   4  -5  -4  418.22    9.83
   4  -5  -4  437.29   11.28
  -4  -5   3   57.56    3.45
   4  -5  -3   49.16    2.53
   4  -5  -3   54.34    3.15
  -4  -5   3   54.32    3.04
  -4  -5   2  256.93    7.93
   4  -5  -2  242.79    6.73
   4  -5  -2  252.35    7.58
  -4  -5   2  237.62    7.47
   4  -5  -2  247.36    7.25
   4  -5  -2  250.19    7.03
  -4  -5   1  170.49    6.01
   4  -5  -1  165.69    5.08
   4  -5  -1  165.61    5.42
  -4  -5   1  177.72    5.87
  -4  -5   1  167.91    6.06
   4  -5  -1  182.61    6.02
   4  -5  -1  188.34    5.76
  -4  -5   0  175.01    5.95
   4  -5   0  196.47    5.76
  -4  -5   0  183.75    6.41
   4  -5   0  190.14    5.35
   4  -5   0  171.42    5.50
  -4  -5   0  178.73    6.22
   4  -5   0  190.26    5.84
  -4  -5  -1  252.03    7.87
  -4  -5  -1  234.78    7.30
   4  -5   1  267.96    6.55
  -4  -5  -1  248.66    7.80
   4  -5   1  248.39    6.84
   4  -5   1  251.79    7.10
  -4  -5  -2  255.13    8.16
  -4  -5  -2  245.38    7.82
  -4  -5  -2  246.06    7.76
  -4  -5  -2  243.18    7.77
   4  -5   2  272.14    7.14
  -4  -5  -3  679.79   16.05
  -4  -5  -3  680.78   15.48
  -4  -5  -3  665.63   15.91
  -4  -5  -3  650.85   15.76
   4  -5   3  721.62   14.68
  -4  -5  -4  434.57   11.45
  -4  -5  -4  428.08   11.68
  -4  -5  -4  443.30   11.64
   4  -5   4  472.16   10.45
   4  -5   4  433.43   10.14
   4  -5   4  424.20   10.51
  -4  -5  -5  287.17    8.12
  -4  -5  -5  297.73    8.80
   4  -5   5  295.64    7.50
   4  -5   5  283.22    7.06
   4  -5   5  275.98    7.68
  -4  -5  -6   37.91    2.40
  -4  -5  -6   41.72    2.22
   4  -5   6   38.16    2.00
   4  -5   6   39.54    1.76
   4  -5   6   37.25    2.15
  -4  -5  -7   84.88    3.12
   4  -4  -9   84.16    2.72
  -4  -4   8   53.52    2.57
   4  -4  -8   53.29    2.69
   4  -4  -7    9.74    1.29
  -4  -4   7    9.62    1.27
   4  -4  -6  206.78    7.12
   4  -4  -6  220.83    7.07
  -4  -4   6  210.40    6.79
   4  -4  -5  175.49    6.43
   4  -4  -5  184.37    6.42
  -4  -4   5  169.14    6.08
   4  -4  -4   70.40    3.72
  -4  -4   4   71.85    3.62
  -4  -4   4   67.09    3.21
  -4  -4   4   68.05    3.57
   4  -4  -3   52.56    2.53
  -4  -4   3   56.56    2.97
  -4  -4   3   58.36    3.05
  -4  -4   3   58.40    3.19
   4  -4  -3   60.84    3.05
   4  -4  -3   57.78    2.92
   4  -4  -3   57.64    3.19
   4  -4  -2  164.46    5.63
  -4  -4   2  174.02    5.95
   4  -4  -2  157.58    4.83
   4  -4  -2  168.60    5.29
  -4  -4   2  162.52    5.52
   4  -4  -2  168.34    5.36
  -4  -4   2  164.92    5.35
   4  -4  -1  258.51    7.41
  -4  -4   1  259.45    7.59
   4  -4  -1  261.36    6.63
   4  -4  -1  264.17    6.90
  -4  -4   1  258.70    7.48
   4  -4  -1  267.09    7.18
  -4  -4   1  275.67    7.14
   4  -4   0   99.95    3.49
   4  -4   0   99.44    3.42
  -4  -4   0  101.03    4.14
  -4  -4   0   94.47    4.05
  -4  -4   0  100.37    3.76
  -4  -4   0  104.41    3.76
   4  -4   0   99.48    3.83
   4  -4   1   56.81    2.37
  -4  -4  -1   59.82    3.20
  -4  -4  -1   58.48    3.11
   4  -4   1   56.15    2.88
  -4  -4  -1   53.54    2.78
   4  -4   1   52.64    2.60
   4  -4   1   55.28    2.72
   4  -4   2   29.42    1.63
  -4  -4  -2   28.77    2.25
   4  -4   2   24.82    1.96
  -4  -4  -2   24.97    2.01
  -4  -4  -2   24.13    2.02
  -4  -4  -2   23.59    1.95
   4  -4   2   24.73    1.74
   4  -4   2   25.13    1.83
  -4  -4  -3   59.96    3.46
  -4  -4  -3   66.92    3.61
  -4  -4  -3   61.12    3.22
  -4  -4  -3   58.86    3.29
   4  -4   3   67.38    3.03
   4  -4   3   64.60    3.06
   4  -4   3   59.64    2.96
  -4  -4  -4  302.78    9.34
  -4  -4  -4  308.15    9.12
   4  -4   4  320.23    8.26
   4  -4   4  303.42    8.34
  -4  -4  -4  315.34    9.09
  -4  -4  -5  146.03    5.47
  -4  -4  -5  145.78    5.96
  -4  -4  -5  151.70    5.80
   4  -4   5  152.03    5.10
   4  -4   5  144.36    4.53
   4  -4   5  145.05    5.25
  -4  -4  -6  420.84   10.08
  -4  -4  -6  414.40   10.16
  -4  -4  -6  432.15   11.37
   4  -4   6  407.05   10.04
   4  -4   6  429.52    9.04
   4  -4   6  413.21   10.30
  -4  -4  -7  133.60    4.35
   4  -4   7  137.84    4.53
  -4  -4  -8   11.87    0.92
   4  -4   8   15.67    1.10
   4  -3  -9  390.32    8.25
  -4  -3   9  294.08    7.21
   4  -3  -8  284.65    8.02
  -4  -3   8  277.27    7.24
   4  -3  -7    1.89    0.71
   4  -3  -7    2.36    0.67
  -4  -3   7    1.01    0.45
   4  -3  -6   64.44    3.71
   4  -3  -6   60.23    3.32
  -4  -3   6   65.42    3.41
   4  -3  -5  265.15    8.38
  -4  -3   5  279.70    8.30
   4  -3  -5  284.69    8.20
  -4  -3   5  272.96    7.99
   4  -3  -5  263.17    7.64
   4  -3  -4  344.29    9.54
   4  -3  -4  353.80    9.24
  -4  -3   4  338.96    8.50
  -4  -3   4  352.58    9.26
  -4  -3   4  335.87    9.08
   4  -3  -4  344.31    8.89
   4  -3  -3  268.97    7.83
  -4  -3   3  287.04    7.77
   4  -3  -3  288.54    7.58
  -4  -3   3  281.03    7.66
   4  -3  -2  110.00    3.65
  -4  -3   2  106.93    3.94
   4  -3  -2  105.77    3.90
   4  -3  -1   10.58    0.93
  -4  -3   1   11.93    0.97
   4  -3  -1   11.27    1.13
   4  -3   0  132.68    3.75
  -4  -3   0  131.83    4.04
   4  -3   0  128.65    4.26
  -4  -3  -1   59.33    2.66
   4  -3   1   63.09    2.75
  -4  -3  -2   94.07    3.72
   4  -3   2   98.85    3.63
  -4  -3  -3   52.91    2.95
   4  -3   3   47.52    2.74
  -4  -3  -3   50.20    2.77
   4  -3   3   49.73    2.53
   4  -3   3   46.28    2.40
   4  -3   3   43.59    2.41
  -4  -3  -4  310.44    8.86
  -4  -3  -4  327.64    8.95
   4  -3   4  340.43    8.46
   4  -3   4  314.52    8.13
   4  -3   4  308.15    8.38
  -4  -3  -5  313.02    8.73
  -4  -3  -5  316.26    8.55
  -4  -3  -5  317.16    9.51
  -4  -3  -5  321.03    9.09
   4  -3   5  323.81    8.58
   4  -3   5  305.79    7.56
   4  -3   5  321.63    8.71
  -4  -3  -6   58.77    3.17
  -4  -3  -6   68.34    3.82
  -4  -3  -6   67.90    3.53
   4  -3   6   62.66    3.22
   4  -3   6   66.37    3.35
  -4  -3  -7   40.92    2.46
  -4  -3  -7   39.65    2.65
   4  -3   7   40.48    2.42
  -4  -3  -8   37.12    1.92
  -4  -3  -8   41.19    2.12
   4  -3   8   42.63    2.13
   4  -2  -9  308.66    7.97
  -4  -2   9  309.30    7.12
   4  -2  -8  259.48    7.90
  -4  -2   8  263.15    7.19
   4  -2  -7  183.80    6.74
  -4  -2   7  190.38    6.17
   4  -2  -6  114.24    4.63
   4  -2  -6  116.66    5.15
  -4  -2   6  117.26    5.01
  -4  -2   6  120.24    4.68
   4  -2  -5   91.03    3.92
   4  -2  -5   95.32    4.39
  -4  -2   5   97.50    4.23
  -4  -2   5   93.48    3.55
   4  -2  -5   95.32    4.02
   4  -2  -4   41.02    2.39
  -4  -2   4   44.23    2.56
   4  -2  -3   65.74    2.91
  -4  -2   3   62.79    2.93
  -4  -2   2   48.94    2.42
   4  -2  -2   49.73    2.39
  -4  -2   1  101.06    2.91
  -4  -2   1  100.39    3.17
   4  -2  -1  102.28    3.52
  -4  -2   0 1187.45   22.92
  -4  -2   0 1234.17   22.99
   4  -2   0 1245.16   23.68
  -4  -2  -1  353.40    7.90
  -4  -2  -1  362.01    7.62
   4  -2   1  354.74    8.17
  -4  -2  -2  526.61   10.98
   4  -2   2  498.16   10.85
  -4  -2  -3   22.47    1.62
   4  -2   3   22.80    1.52
  -4  -2  -4  210.92    6.02
  -4  -2  -4  214.02    6.11
  -4  -2  -4  209.31    6.33
   4  -2   4  217.77    6.44
  -4  -2  -4  221.38    6.62
   4  -2   4  225.65    6.38
  -4  -2  -4  217.78    6.42
   4  -2   4  215.92    5.93
   4  -2   4  217.96    6.35
  -4  -2  -5   61.54    3.01
  -4  -2  -5   52.60    2.84
   4  -2   5   57.83    3.02
  -4  -2  -5   53.93    3.01
   4  -2   5   53.40    2.91
  -4  -2  -6  130.34    4.91
  -4  -2  -6  135.39    5.54
   4  -2   6  130.87    5.07
  -4  -2  -6  128.62    4.99
   4  -2   6  128.07    4.90
  -4  -2  -7   33.17    2.46
  -4  -2  -7   31.14    2.22
   4  -2   7   32.84    2.21
  -4  -2  -8  144.42    4.81
  -4  -2  -8  150.80    4.89
   4  -2   8  144.30    4.64
  -4  -2  -9   57.92    2.25
   4  -2   9   57.46    2.12
   4  -1 -10    9.82    0.84
   4  -1  -9   91.15    3.70
  -4  -1   9   89.77    3.32
  -4  -1   9   90.09    3.22
   4  -1  -8   96.37    4.36
  -4  -1   8   96.70    3.89
  -4  -1   8   93.54    3.81
   4  -1  -7   12.94    1.61
   4  -1  -7   14.67    1.67
  -4  -1   7   13.83    1.38
   4  -1  -6  145.32    5.68
  -4  -1   6  143.73    4.59
  -4  -1   6  153.15    5.68
   4  -1  -6  144.21    5.28
   4  -1  -6  149.68    5.71
  -4  -1   6  138.60    4.85
   4  -1  -6  143.04    5.10
  -4  -1   5  294.99    7.35
   4  -1  -5  284.12    7.92
  -4  -1   5  306.13    7.08
   4  -1  -5  296.59    8.34
  -4  -1   5  308.35    8.32
  -4  -1   5  272.46    7.41
   4  -1  -5  300.63    8.47
   4  -1  -5  289.49    7.92
   4  -1  -4  246.22    6.82
   4  -1  -4  248.00    7.01
  -4  -1   4  258.17    7.03
   4  -1  -3  360.36    7.60
   4  -1  -3  346.37    8.31
  -4  -1   3  333.50    8.33
   4  -1  -2  308.60    7.31
   4  -1  -2  312.01    6.46
  -4  -1   2  303.46    6.12
  -4  -1   2  297.75    7.03
  -4  -1   1  487.29   10.03
  -4  -1   1  501.36    9.31
  -4  -1   0   94.10    3.02
  -4  -1   0   99.49    2.74
   4  -1   0   95.02    3.15
  -4  -1  -1  132.39    3.51
   4  -1   1  128.69    3.82
   4  -1   2   77.94    2.44
  -4  -1  -2   77.56    2.64
  -4  -1  -3 1000.72   19.00
  -4  -1  -3  988.90   18.90
   4  -1   3  967.23   18.60
  -4  -1  -4   87.86    3.39
  -4  -1  -4   88.80    3.50
   4  -1   4   90.94    3.63
  -4  -1  -4   88.59    3.30
   4  -1   4   95.46    3.64
  -4  -1  -4   95.86    3.53
  -4  -1  -4   89.24    3.49
   4  -1   4   93.30    3.20
   4  -1   4   94.72    3.64
  -4  -1  -5   19.72    1.58
  -4  -1  -5   19.91    1.63
  -4  -1  -5   18.17    1.60
   4  -1   5   19.96    1.65
   4  -1   5   17.06    1.59
  -4  -1  -5   20.59    1.66
   4  -1   5   19.32    1.65
  -4  -1  -6  168.03    5.61
  -4  -1  -6  165.02    5.62
   4  -1   6  168.05    5.91
  -4  -1  -6  177.78    5.75
   4  -1   6  168.00    5.68
  -4  -1  -7   23.73    1.91
  -4  -1  -7   23.91    2.05
   4  -1   7   25.01    1.93
  -4  -1  -8   25.07    1.83
  -4  -1  -8   27.04    1.85
   4  -1   8   24.77    1.72
  -4  -1  -9    5.47    0.72
   4  -1   9    5.27    0.64
   4   0 -10   20.01    1.18
   4   0  -9    0.33    0.25
  -4   0   9    0.71    0.34
  -4   0   9    0.84    0.38
   4   0  -8   58.54    3.24
  -4   0   8   59.23    2.89
  -4   0   8   57.19    2.73
   4   0  -8   58.49    2.88
   4   0  -7   66.66    3.63
  -4   0   7   70.76    2.96
   4   0  -7   67.46    3.66
  -4   0   7   68.12    3.12
   4   0  -7   71.08    3.47
   4   0  -6   67.46    3.53
   4   0  -6   64.01    3.37
  -4   0   6   70.87    2.98
  -4   0   6   71.17    3.55
   4   0  -6   70.56    3.49
   4   0  -6   70.12    3.59
   4   0  -6   64.85    3.49
   4   0  -6   64.84    3.44
  -4   0   6   67.47    3.03
  -4   0   5   37.11    2.34
   4   0  -5   35.37    2.34
  -4   0   5   36.94    2.02
  -4   0   5   35.63    1.77
   4   0  -5   33.08    2.24
   4   0  -5   35.10    2.35
   4   0  -5   34.45    2.29
   4   0  -5   34.67    2.19
  -4   0   5   35.28    1.97
   4   0  -5   34.75    2.30
   4   0  -4    4.03    0.71
  -4   0   4    4.89    0.78
   4   0  -4    3.95    0.73
   4   0  -4    4.66    0.70
   4   0  -3  124.20    3.94
   4   0  -3  112.68    3.81
   4   0  -3  119.90    3.64
  -4   0   3  119.98    3.82
  -4   0   3  120.18    3.97
   4   0  -2  401.38    8.81
  -4   0   2  392.80    8.73
  -4   0   2  406.15    7.90
   4   0  -1  227.85    5.59
  -4   0   1  236.22    4.93
  -4   0   1  219.99    5.60
  -4   0   1  233.02    4.98
  -4   0   0   29.05    1.20
  -4   0   0   29.86    1.26
   4   0   0   28.39    1.48
   4   0   1  383.76    7.73
  -4   0  -1  395.45    7.84
   4   0   1  377.58    8.11
  -4   0  -2   56.87    2.52
   4   0   2   59.12    2.12
  -4   0  -2   58.29    2.10
   4   0   2   62.01    2.19
  -4   0  -3   81.51    2.54
  -4   0  -3   75.39    3.17
   4   0   3   83.19    2.81
  -4   0  -3   80.04    2.75
  -4   0  -4   62.40    2.98
  -4   0  -4   65.08    2.73
   4   0   4   65.17    2.92
   4   0   4   65.73    2.69
   4   0   4   62.05    2.79
  -4   0  -4   68.20    2.73
  -4   0  -4   63.56    2.74
   4   0   4   66.70    2.92
  -4   0  -5   50.44    2.81
  -4   0  -5   50.94    2.63
  -4   0  -5   52.75    2.64
   4   0   5   52.56    2.68
  -4   0  -5   54.73    2.60
   4   0   5   49.42    2.72
  -4   0  -5   50.09    2.52
  -4   0  -5   54.61    2.65
   4   0   5   51.27    2.72
  -4   0  -6   82.37    3.64
  -4   0  -6   82.62    3.56
  -4   0  -6   82.32    3.53
   4   0   6   75.79    3.65
   4   0   6   85.38    3.70
  -4   0  -7   34.08    1.99
  -4   0  -7   28.14    2.04
  -4   0  -7   27.79    2.04
   4   0   7   31.02    2.12
  -4   0  -8   11.79    1.24
   4   0   8   11.38    1.16
  -4   0  -9   25.57    1.55
   4   0   9   25.25    1.36
   4   1  -9   85.79    3.34
   4   1  -9   88.78    3.21
  -4   1   9   93.99    3.29
  -4   1   9   82.15    2.99
   4   1  -8   92.60    3.98
  -4   1   8   91.60    3.25
   4   1  -8   93.29    3.93
  -4   1   8   95.80    3.57
   4   1  -7   14.87    1.61
  -4   1   7   15.10    1.31
  -4   1   7   15.29    1.37
   4   1  -7   14.88    1.65
   4   1  -7   14.55    1.57
   4   1  -7   13.88    1.55
   4   1  -6  151.76    5.40
  -4   1   6  145.66    4.72
   4   1  -6  148.11    5.47
  -4   1   6  156.58    4.34
   4   1  -6  138.67    5.27
   4   1  -6  144.42    5.68
  -4   1   6  142.48    4.64
   4   1  -6  149.10    5.57
   4   1  -6  146.52    5.37
  -4   1   5  322.51    8.03
   4   1  -5  293.12    8.23
   4   1  -5  295.85    8.08
   4   1  -5  287.96    7.91
   4   1  -5  301.06    8.53
  -4   1   5  295.89    7.24
   4   1  -5  289.34    8.02
  -4   1   4  260.77    6.70
  -4   1   4  248.86    5.71
   4   1  -4  246.96    6.59
   4   1  -4  245.33    7.10
   4   1  -4  245.69    6.68
  -4   1   3  339.38    7.24
   4   1  -3  352.63    7.51
   4   1  -3  333.00    7.77
   4   1  -3  342.15    7.99
  -4   1   3  331.09    7.88
  -4   1   3  348.60    8.03
  -4   1   2  302.45    6.41
   4   1  -2  290.28    6.82
   4   1  -2  297.71    6.61
  -4   1   2  295.60    6.99
   4   1  -2  291.87    6.78
  -4   1   1  528.31    9.82
   4   1  -1  492.87   10.12
   4   1  -1  510.62   10.11
   4   1  -1  502.08    9.84
  -4   1   1  494.37    9.83
   4   1  -1  496.85   10.20
  -4   1   0   94.87    2.89
   4   1   0   94.86    2.80
  -4   1   0   98.02    2.79
   4   1   0  102.78    3.17
   4   1   0   94.86    2.87
  -4   1  -1  134.25    4.23
  -4   1  -1  136.33    3.62
   4   1   1  138.44    3.69
  -4   1  -1  131.96    3.47
   4   1   1  142.70    3.57
  -4   1  -2   76.17    3.15
   4   1   2   78.50    2.68
  -4   1  -2   81.53    2.50
  -4   1  -3 1011.69   19.77
  -4   1  -3  953.48   18.41
   4   1   3  955.23   18.54
  -4   1  -3  997.70   18.21
  -4   1  -4   91.02    3.93
  -4   1  -4   88.14    3.05
  -4   1  -4   90.94    3.21
   4   1   4   91.73    3.48
   4   1   4   92.50    3.36
   4   1   4   77.29    3.11
  -4   1  -4   90.75    3.27
  -4   1  -4   89.29    3.06
   4   1   4   87.47    3.45
  -4   1  -5   23.23    1.98
  -4   1  -5   20.18    1.60
  -4   1  -5   21.78    1.57
   4   1   5   19.41    1.50
   4   1   5   20.51    1.68
   4   1   5   15.50    1.46
  -4   1  -5   22.16    1.51
  -4   1  -5   23.56    1.64
   4   1   5   23.30    1.76
  -4   1  -6  174.41    5.44
  -4   1  -6  164.93    5.47
  -4   1  -6  167.07    5.27
   4   1   6  176.99    5.64
   4   1   6  176.96    5.62
  -4   1  -7   25.84    1.88
  -4   1  -7   27.43    1.96
   4   1   7   25.78    1.89
  -4   1  -8   24.84    1.58
  -4   1  -8   24.52    1.75
   4   1   8   24.79    1.66
  -4   1  -9    6.10    0.74
   4   1   9    4.74    0.53
   4   2  -9  304.96    7.54
  -4   2   9  305.25    7.14
  -4   2   8  242.85    6.27
   4   2  -8  255.74    7.30
  -4   2   8  253.51    6.52
   4   2  -8  246.37    7.22
  -4   2   7  193.55    5.66
   4   2  -7  192.58    6.52
  -4   2   7  196.87    5.06
  -4   2   7  194.05    5.59
   4   2  -7  182.82    6.24
   4   2  -6  118.18    4.87
   4   2  -6  116.69    4.58
   4   2  -6  113.97    4.96
  -4   2   6  119.23    4.04
   4   2  -6  108.59    4.53
  -4   2   5   95.77    3.12
   4   2  -5   96.68    4.19
   4   2  -5   92.65    4.13
   4   2  -5   94.17    3.76
   4   2  -5   99.31    4.45
  -4   2   5   97.54    3.45
   4   2  -5   94.34    3.93
  -4   2   4   41.04    1.90
   4   2  -4   42.78    2.20
   4   2  -4   43.47    2.54
   4   2  -4   39.41    2.52
   4   2  -4   44.67    2.20
   4   2  -4   42.67    2.46
  -4   2   3   65.62    2.43
   4   2  -3   65.15    2.70
  -4   2   3   66.01    2.72
   4   2  -2   48.23    2.21
  -4   2   2   49.17    2.25
  -4   2   2   49.70    1.99
  -4   2   1   99.92    2.95
   4   2  -1   99.60    3.00
   4   2  -1   93.54    3.20
   4   2  -1   95.66    3.38
   4   2   0 1222.59   23.11
  -4   2   0 1235.43   22.82
   4   2   0 1239.09   23.51
  -4   2  -1  358.07    8.00
   4   2   1  350.71    8.00
  -4   2  -1  363.46    7.65
  -4   2  -2  529.22   11.95
  -4   2  -2  525.75   10.90
   4   2   2  523.25   11.10
  -4   2  -2  549.10   10.60
  -4   2  -3   21.33    1.80
   4   2   3   24.01    1.55
  -4   2  -3   23.53    1.30
  -4   2  -4  214.20    6.95
   4   2   4  215.37    5.97
  -4   2  -4  224.98    5.49
  -4   2  -4  222.01    5.98
   4   2   4  221.34    6.23
  -4   2  -5   54.88    3.29
  -4   2  -5   57.79    2.65
  -4   2  -5   59.06    2.63
   4   2   5   58.95    2.77
  -4   2  -5   65.25    2.91
   4   2   5   56.98    2.86
  -4   2  -6  144.45    4.71
  -4   2  -6  134.38    4.69
   4   2   6  135.97    4.60
   4   2   6  128.41    4.87
   4   2   6  132.19    4.33
   4   2   6  129.69    4.66
  -4   2  -7   33.31    2.09
  -4   2  -7   34.40    2.09
   4   2   7   29.81    2.04
   4   2   7   32.15    2.03
  -4   2  -8  146.69    4.44
  -4   2  -8  148.00    4.61
   4   2   8  147.81    4.36
  -4   2  -9   63.90    2.29
  -4   3   9  381.06    7.67
   4   3  -9  379.86    8.54
  -4   3   9  375.93    8.00
  -4   3   8  273.80    6.74
   4   3  -8  282.50    7.68
  -4   3   8  281.69    6.84
   4   3  -8  277.43    7.51
   4   3  -7    0.67    0.43
  -4   3   7    0.12    0.30
   4   3  -7    0.46    0.41
   4   3  -6   60.27    3.41
  -4   3   6   63.67    2.77
   4   3  -6   63.48    3.25
  -4   3   5  272.56    6.81
   4   3  -5  286.48    8.45
   4   3  -5  285.14    7.69
   4   3  -5  273.80    8.13
   4   3  -5  276.45    8.55
   4   3  -5  272.82    7.66
  -4   3   4  333.25    7.99
   4   3  -4  335.93    8.65
   4   3  -4  339.30    9.05
   4   3  -4  337.03    9.32
  -4   3   4  348.16    8.11
   4   3  -4  340.76    8.50
   4   3  -4  341.29    9.10
  -4   3   3  275.12    6.91
   4   3  -3  274.29    7.42
  -4   3   3  296.48    6.83
   4   3  -3  299.75    7.87
  -4   3   3  287.82    7.14
   4   3  -2  104.89    3.80
   4   3  -2  112.15    3.65
  -4   3   2  106.95    3.69
  -4   3   2  104.98    3.48
   4   3  -1   10.87    1.08
  -4   3   1   11.01    0.94
   4   3  -1   11.04    1.16
   4   3   0  126.53    4.10
  -4   3   0  131.08    3.63
   4   3   0  120.44    4.05
   4   3   0  121.99    4.27
  -4   3  -1   67.43    2.24
  -4   3  -1   60.52    2.91
  -4   3  -1   63.08    2.72
   4   3   1   57.92    2.63
  -4   3  -1   61.75    2.37
   4   3   1   61.37    2.87
  -4   3  -2   99.91    4.05
   4   3   2   94.68    3.40
  -4   3  -2  106.09    3.51
   4   3   2   91.76    3.47
  -4   3  -2  100.81    3.09
  -4   3  -3   46.83    2.84
   4   3   3   46.25    2.36
  -4   3  -3   50.86    2.02
   4   3   3   43.74    2.37
  -4   3  -4  313.59    9.13
  -4   3  -4  326.12    8.19
   4   3   4  330.57    8.08
   4   3   4  306.93    8.11
  -4   3  -5  342.05    8.43
   4   3   5  327.86    8.35
  -4   3  -5  334.90    8.68
   4   3   5  326.86    8.50
  -4   3  -6   64.34    2.94
   4   3   6   62.56    2.90
   4   3   6   60.29    3.22
   4   3   6   60.22    2.76
   4   3   6   67.47    3.06
  -4   3  -7   41.27    2.15
  -4   3  -7   44.80    2.29
   4   3   7   43.08    2.45
   4   3   7   39.71    2.00
   4   3   7   43.77    2.22
  -4   3  -8   44.34    2.08
  -4   3  -8   46.61    2.11
   4   3   8   41.00    1.69
   4   3   8   44.97    1.86
   4   4  -9   84.84    2.74
  -4   4   9   81.73    2.39
  -4   4   8   57.08    2.30
   4   4  -8   58.10    2.76
  -4   4   8   58.71    2.31
   4   4  -8   57.51    2.59
   4   4  -7   11.40    1.35
  -4   4   7   10.53    1.02
   4   4  -7   10.75    1.22
  -4   4   6  218.77    5.80
   4   4  -6  224.34    7.19
  -4   4   6  237.27    6.20
   4   4  -6  224.66    6.70
  -4   4   5  165.77    5.08
   4   4  -5  170.61    5.90
   4   4  -5  177.74    6.13
   4   4  -5  178.31    5.63
  -4   4   4   64.79    2.92
   4   4  -4   68.33    3.41
   4   4  -4   68.48    3.42
  -4   4   4   68.11    2.88
   4   4  -4   73.84    3.70
  -4   4   3   52.27    2.57
   4   4  -3   58.28    3.05
   4   4  -3   61.38    3.04
   4   4  -3   61.69    3.22
  -4   4   2  163.92    4.95
   4   4  -2  162.16    5.39
   4   4  -2  176.31    5.38
  -4   4   1  246.49    6.37
   4   4  -1  246.91    6.94
  -4   4   1  257.08    6.74
   4   4  -1  258.80    7.35
   4   4   0   98.19    3.78
  -4   4   0  102.13    3.33
   4   4   0   97.07    3.86
   4   4   0  103.30    4.10
  -4   4  -1   55.84    2.87
   4   4   1   52.08    2.47
  -4   4  -1   57.85    2.79
   4   4   1   52.03    2.68
  -4   4  -1   56.87    2.18
  -4   4  -1   52.38    2.34
   4   4   1   58.54    2.96
  -4   4  -2   25.30    1.98
   4   4   2   25.63    1.85
  -4   4  -2   26.78    1.77
   4   4   2   23.76    1.75
  -4   4  -2   25.18    1.47
   4   4   3   62.49    2.95
  -4   4  -3   64.13    2.37
   4   4   3   59.73    2.90
  -4   4  -4  325.99    8.42
   4   4   4  312.37    8.12
   4   4   4  315.69    8.25
   4   4   5  154.29    4.99
   4   4   5  150.99    4.98
   4   4   6  432.16    9.92
   4   4   6  443.48   10.73
   4   4   6  445.70    9.93
  -4   4  -7  146.34    4.26
   4   4   7  141.06    4.66
   4   4   7  138.38    4.11
   4   4   7  154.96    4.24
  -4   4  -8   15.09    1.06
   4   4   8   14.77    0.85
  -4   5   8   35.94    1.55
  -4   5   8   37.78    1.57
   4   5  -8   38.20    1.86
   4   5  -7    5.08    0.81
  -4   5   7    5.84    0.69
   4   5  -7    5.80    0.78
   4   5  -6   27.55    2.06
  -4   5   6   33.69    1.83
   4   5  -6   30.45    1.93
   4   5  -5   62.02    3.28
   4   5  -5   58.79    3.16
  -4   5   5   59.83    2.74
   4   5  -4  444.45   11.28
   4   5  -4  438.58   10.83
  -4   5   4  461.26    9.96
  -4   5   3   50.63    2.64
   4   5  -3   56.85    3.16
  -4   5   2  251.65    6.80
   4   5  -2  246.35    7.37
   4   5  -2  248.13    7.72
  -4   5   1  165.70    5.00
   4   5  -1  168.39    5.63
   4   5  -1  166.88    5.44
   4   5  -1  175.49    6.03
   4   5   0  185.91    5.91
  -4   5   0  192.64    5.25
   4   5   0  186.20    6.11
   4   5   0  193.39    6.36
   4   5   1  241.44    7.55
   4   5   1  252.30    6.69
  -4   5  -1  261.58    7.27
   4   5   1  249.14    7.27
  -4   5  -1  256.55    6.55
  -4   5  -2  231.27    7.17
   4   5   2  250.01    7.48
  -4   5  -2  281.02    7.21
   4   5   2  258.12    7.34
  -4   5  -2  273.27    6.46
   4   5   3  681.79   14.78
   4   5   3  657.71   14.63
   4   5   4  463.41   10.62
   4   5   4  436.43   10.45
   4   5   5  286.64    7.44
   4   5   5  300.50    7.46
  -4   5  -6   45.88    2.01
   4   5   6   38.08    2.29
   4   5   6   38.90    2.04
   4   5   6   40.54    1.92
  -4   5  -7   84.20    2.55
   4   5   7   91.80    3.14
   4   5   7   90.96    2.78
  -4   6   7   13.26    0.90
   4   6  -7   13.17    0.96
  -4   6   7   14.61    0.89
   4   6  -6    8.87    0.94
  -4   6   6   10.69    0.88
   4   6  -4   27.27    2.21
  -4   6   3  148.54    4.79
   4   6  -3  149.31    5.46
   4   6  -3  157.04    5.79
  -4   6   2  100.69    3.76
   4   6  -2  108.03    4.45
   4   6  -2  110.51    4.70
  -4   6   1  107.64    3.80
   4   6  -1  113.85    4.49
   4   6  -1  110.58    4.58
   4   6  -1  113.77    4.71
  -4   6   0  344.13    7.95
   4   6   0  333.05    9.13
   4   6   0  346.41    9.38
   4   6   1  139.42    5.09
  -4   6  -1  142.68    4.32
   4   6   2  115.73    4.39
   4   6   3  121.89    4.36
   4   6   3  126.86    4.33
   4   6   4   46.01    2.37
   4   6   4   47.46    2.30
   4   6   5    5.29    0.65
   4   6   5    4.83    0.79
   4   6   6   10.43    0.96
   4   6   6   11.09    0.90
  -4   7   6   14.41    0.80
   4   7  -6   16.39    1.00
  -4   7   6   14.66    0.76
   4   7  -5   74.80    2.75
  -4   7   5   81.55    2.35
   4   7  -4   11.24    1.04
   4   7  -3   45.23    2.18
   4   7  -2   45.75    2.65
   4   7  -1  109.83    4.30
   4   7   0    3.13    0.71
  -4   7   0    2.81    0.51
   4   7   1   19.47    1.60
   4   7   2   24.14    1.66
   4   7   2   22.74    1.56
   4   7   3   29.88    1.63
   4   7   4   22.23    1.44
   4   7   5   46.17    1.82
   4   7   5   45.36    1.79
   4   8  -3   26.96    1.28
   4   8  -2   34.94    1.49
   4   8   1   28.60    1.42
   4   8   2   79.59    2.35
  -5  -8   2   43.07    1.71
  -5  -8   1   49.43    1.80
  -5  -7   5   42.86    1.92
   5  -7  -4   16.90    0.91
   5  -7  -4   13.60    0.98
  -5  -7   4   14.23    1.23
  -5  -7   3   73.18    3.15
  -5  -7   3   79.01    3.01
   5  -7  -3   75.13    2.72
  -5  -7   2  126.93    4.41
  -5  -7   2  127.06    4.50
   5  -7  -2  130.96    3.96
  -5  -7   1   14.32    1.28
   5  -7  -1   16.89    1.15
  -5  -7   1   14.68    1.45
   5  -7  -1   15.66    1.17
   5  -7   0   19.50    1.22
  -5  -7   0   16.55    1.34
  -5  -7   0   16.09    1.53
  -5  -7   0   13.93    1.16
   5  -7   0   16.64    1.18
   5  -7   0   15.09    1.13
  -5  -7  -1  112.78    4.07
   5  -7   1  125.86    3.58
   5  -7   1  115.08    3.65
  -5  -7  -2  147.34    4.73
   5  -7   2  144.96    4.13
  -5  -7  -3  100.48    3.51
   5  -7   3   97.91    2.94
   5  -7   4   54.13    1.83
   5  -6  -6   89.35    3.10
  -5  -6   6   86.29    3.23
   5  -6  -5   11.65    1.19
  -5  -6   5   12.12    1.28
   5  -6  -4  137.18    4.82
  -5  -6   4  127.47    4.95
   5  -6  -4  138.41    3.82
  -5  -6   3   46.83    2.84
   5  -6  -3   49.88    2.21
  -5  -6   3   49.32    2.78
  -5  -6   2    6.44    1.06
   5  -6  -2    8.53    0.93
  -5  -6   2    7.31    1.17
   5  -6  -2    6.64    0.93
  -5  -6   1  120.47    4.68
  -5  -6   1  128.88    5.15
   5  -6  -1  117.55    4.33
  -5  -6   0  222.14    7.09
  -5  -6   0  235.69    6.76
  -5  -6   0  244.65    7.72
   5  -6   0  239.99    6.65
  -5  -6  -1  256.04    7.87
   5  -6   1  272.59    6.96
  -5  -6  -2  328.03    8.69
  -5  -6  -2  332.52    9.34
  -5  -6  -2  353.15    9.36
  -5  -6  -3  267.64    7.73
   5  -6   3  283.66    6.77
   5  -6   3  264.55    6.73
  -5  -6  -4    1.43    0.50
  -5  -6  -4    1.18    0.45
   5  -6   4    1.45    0.39
   5  -6   4    1.05    0.35
  -5  -6  -5    0.87    0.40
  -5  -6  -5    1.08    0.36
   5  -6   5    1.41    0.31
   5  -5  -7   15.92    1.27
  -5  -5   7   15.24    1.30
   5  -5  -6   31.97    2.13
  -5  -5   6   33.24    2.26
   5  -5  -5   19.85    1.81
  -5  -5   5   17.09    1.77
   5  -5  -4  103.73    4.51
  -5  -5   4  107.32    4.79
   5  -5  -4  109.64    3.47
  -5  -5   4  104.88    4.25
   5  -5  -3   73.82    3.71
  -5  -5   3   70.70    3.82
  -5  -5   3   72.24    3.65
   5  -5  -3   72.71    2.88
   5  -5  -2  710.99   16.07
  -5  -5   2  687.54   16.13
   5  -5  -2  741.65   14.67
  -5  -5   2  686.82   16.17
  -5  -5   1   78.99    3.78
   5  -5  -1   85.56    3.24
  -5  -5   1   86.71    3.93
  -5  -5   1   84.61    4.16
  -5  -5   0   54.72    3.20
  -5  -5   0   55.89    3.33
   5  -5   0   59.21    2.55
   5  -5   0   49.27    2.70
  -5  -5  -1   77.48    4.02
   5  -5   1   87.76    3.16
  -5  -5  -1   78.55    3.98
  -5  -5  -1   79.31    3.76
   5  -5   1   78.00    3.42
  -5  -5  -2   45.89    3.06
  -5  -5  -2   42.33    2.79
  -5  -5  -2   43.28    2.82
   5  -5   2   46.16    2.52
  -5  -5  -3    1.33    0.69
  -5  -5  -3    2.39    0.69
  -5  -5  -3    1.73    0.71
   5  -5   3    1.76    0.51
  -5  -5  -3    1.00    0.54
  -5  -5  -4    5.30    0.99
  -5  -5  -4    3.63    0.84
   5  -5   4    4.18    0.74
  -5  -5  -4    4.41    0.96
   5  -5   4    3.25    0.64
  -5  -5  -5   96.76    3.82
   5  -5   5   95.01    3.45
   5  -5   5   95.64    3.11
  -5  -5  -6   81.42    3.22
   5  -5   6   74.60    2.69
   5  -4  -8    9.46    0.95
  -5  -4   8    9.89    0.97
   5  -4  -7   29.41    2.06
  -5  -4   7   31.53    2.18
   5  -4  -6   20.01    1.87
  -5  -4   6   26.09    2.19
   5  -4  -5    6.96    1.16
  -5  -4   5    6.10    1.11
   5  -4  -4    2.45    0.78
  -5  -4   4    3.76    0.87
  -5  -4   4    3.30    0.71
  -5  -4   3  367.08    9.90
   5  -4  -3  359.09    9.92
  -5  -4   3  383.58   10.42
   5  -4  -3  374.00    8.40
  -5  -4   3  350.65    9.65
   5  -4  -2  135.49    5.21
  -5  -4   2  141.94    5.41
   5  -4  -2  146.06    4.35
  -5  -4   2  133.94    5.18
   5  -4  -2  136.91    5.06
  -5  -4   2  134.25    5.11
   5  -4  -1   64.82    3.33
  -5  -4   1   61.91    3.26
  -5  -4   1   65.64    3.35
   5  -4  -1   68.38    2.74
   5  -4  -1   67.93    3.22
  -5  -4   1   64.90    3.44
   5  -4  -1   66.22    3.30
  -5  -4   1   65.64    3.28
   5  -4   0  168.44    4.68
  -5  -4   0  156.85    5.72
   5  -4   0  163.23    5.49
  -5  -4   0  152.95    5.65
  -5  -4   0  166.71    5.29
   5  -4   0  141.11    4.98
   5  -4   0  149.52    5.32
  -5  -4  -1   88.64    4.16
   5  -4   1   84.24    3.82
  -5  -4  -1   81.30    3.92
   5  -4   1   91.67    3.19
  -5  -4  -1   76.60    3.60
   5  -4   1   77.75    3.42
   5  -4   1   75.27    3.50
  -5  -4  -2    8.07    1.30
   5  -4   2    9.21    1.24
  -5  -4  -2    8.36    1.18
  -5  -4  -2   10.58    1.38
   5  -4   2    8.67    1.10
  -5  -4  -2    7.36    1.14
  -5  -4  -3  158.47    6.06
  -5  -4  -3  157.37    5.52
  -5  -4  -3  157.41    6.01
  -5  -4  -3  157.61    5.90
   5  -4   3  161.60    5.28
  -5  -4  -4   82.28    4.06
  -5  -4  -4   80.50    4.18
  -5  -4  -4   81.52    4.08
   5  -4   4   80.56    3.54
   5  -4   4   83.69    3.55
  -5  -4  -5   43.48    2.64
  -5  -4  -5   47.85    3.05
  -5  -4  -5   51.67    3.06
   5  -4   5   43.65    2.46
   5  -4   5   40.94    2.03
   5  -4   5   43.40    2.44
  -5  -4  -6  150.90    4.55
  -5  -4  -6  146.55    5.29
   5  -4   6  141.37    4.62
   5  -4   6  139.97    4.56
  -5  -4  -7   35.06    1.94
   5  -4   7   37.83    1.81
   5  -3  -9   39.75    1.75
   5  -3  -8   14.16    1.33
  -5  -3   8   12.25    1.16
   5  -3  -7  138.43    5.20
  -5  -3   7  130.86    4.86
   5  -3  -6  118.69    5.09
  -5  -3   6  122.62    4.93
   5  -3  -5  138.16    5.56
  -5  -3   5  145.12    4.89
  -5  -3   5  127.55    5.19
  -5  -3   4   50.64    3.09
   5  -3  -4   49.20    3.07
  -5  -3   4   55.03    3.16
   5  -3  -4   50.90    3.01
   5  -3  -3  101.35    4.35
  -5  -3   3  102.01    4.09
  -5  -3   3   97.01    4.20
   5  -3  -3  105.00    4.30
  -5  -3   3   98.97    4.29
   5  -3  -2   66.89    3.32
   5  -3  -2   67.75    3.17
   5  -3  -2   67.11    2.57
  -5  -3   2   64.34    3.16
  -5  -3   2   70.51    3.36
  -5  -3   2   68.09    3.33
   5  -3  -2   66.27    3.29
   5  -3  -1  277.04    7.86
   5  -3  -1  294.82    7.94
  -5  -3   1  285.05    7.92
   5  -3  -1  283.21    7.90
   5  -3   0   92.07    3.89
  -5  -3   0   97.14    3.99
  -5  -3   0   92.51    3.53
   5  -3   0   85.93    3.53
   5  -3   0   96.69    3.89
   5  -3   1   58.53    3.02
  -5  -3  -1   56.26    2.94
   5  -3   1   55.65    2.76
  -5  -3  -1   54.57    2.74
   5  -3   1   53.88    2.68
  -5  -3  -1   52.29    2.55
   5  -3   1   55.29    2.78
   5  -3   2  137.65    5.15
  -5  -3  -2  143.50    5.09
   5  -3   2  142.58    4.96
  -5  -3  -2  143.74    5.07
   5  -3   2  144.18    4.83
  -5  -3  -2  142.73    4.79
   5  -3   2  138.14    4.76
  -5  -3  -3  192.45    6.58
   5  -3   3  184.49    6.35
   5  -3   3  192.50    6.14
  -5  -3  -3  194.67    6.41
   5  -3   3  208.29    6.09
   5  -3   3  185.94    5.82
  -5  -3  -4   55.54    3.26
  -5  -3  -4   57.35    3.27
   5  -3   4   64.91    3.14
   5  -3   4   54.51    2.89
  -5  -3  -5   88.49    3.99
  -5  -3  -5   97.05    4.62
  -5  -3  -5   91.42    4.26
   5  -3   5   93.92    3.95
   5  -3   5   87.40    3.82
  -5  -3  -6   13.58    1.30
  -5  -3  -6   11.53    1.47
  -5  -3  -6   12.49    1.42
   5  -3   6   11.57    1.29
   5  -3   6   10.87    1.21
  -5  -3  -7  106.33    3.61
  -5  -3  -7  118.02    4.33
   5  -3   7  107.94    3.78
   5  -3   8   76.52    2.51
   5  -2  -9   27.24    1.58
  -5  -2   9   26.03    1.40
   5  -2  -8   43.76    2.55
  -5  -2   8   45.90    2.44
   5  -2  -7  369.23   10.07
  -5  -2   7  366.43    9.60
   5  -2  -6  155.07    5.98
  -5  -2   6  158.89    5.08
  -5  -2   6  158.01    5.71
  -5  -2   5  393.98   10.65
   5  -2  -5  396.65   10.70
  -5  -2   5  393.91    9.48
  -5  -2   5  394.39   10.28
  -5  -2   5  402.54    9.68
   5  -2  -5  382.21   10.35
   5  -2  -4   79.25    3.84
  -5  -2   4   80.64    3.45
   5  -2  -4   83.26    3.68
  -5  -2   4   83.27    3.39
  -5  -2   4   79.22    3.67
   5  -2  -4   81.50    3.81
  -5  -2   4   80.27    3.84
   5  -2  -3  101.06    4.21
  -5  -2   3  105.00    3.97
  -5  -2   3  111.02    3.95
  -5  -2   3  115.75    4.30
  -5  -2   3  106.23    4.32
   5  -2  -3  106.79    4.18
   5  -2  -3  107.51    4.31
  -5  -2   2   36.75    2.31
   5  -2  -2   37.75    2.32
  -5  -2   1   49.20    2.09
  -5  -2   1   49.11    2.33
   5  -2  -1   50.14    2.60
  -5  -2   0  305.44    7.20
  -5  -2   0  313.48    7.37
   5  -2   0  303.24    7.84
  -5  -2  -1   49.02    2.32
   5  -2   1   46.21    2.40
   5  -2   2  306.29    8.33
  -5  -2  -2  290.38    7.66
   5  -2   2  321.91    8.20
   5  -2   2  320.47    7.93
  -5  -2  -2  327.92    8.02
  -5  -2  -2  312.35    7.83
   5  -2   2  304.91    7.79
   5  -2   3    5.86    0.90
   5  -2   3    3.91    0.71
   5  -2   3    3.74    0.79
  -5  -2  -3    4.53    0.73
  -5  -2  -3    3.42    0.74
   5  -2   3    3.28    0.74
   5  -2   3    4.01    0.79
  -5  -2  -3    3.70    0.74
  -5  -2  -3    4.01    0.79
  -5  -2  -4   22.02    1.90
  -5  -2  -4   19.17    1.58
  -5  -2  -4   16.36    1.60
   5  -2   4   18.66    1.68
   5  -2   4   20.64    1.72
  -5  -2  -4   19.01    1.74
   5  -2   4   21.78    1.76
  -5  -2  -5   40.84    2.54
  -5  -2  -5   37.55    2.29
  -5  -2  -5   32.69    2.20
   5  -2   5   39.39    2.52
  -5  -2  -5   37.42    2.53
   5  -2   5   34.19    2.31
  -5  -2  -6   50.04    2.70
  -5  -2  -6   51.43    3.18
   5  -2   6   47.01    2.78
  -5  -2  -6   49.29    2.87
   5  -2   6   48.46    2.72
  -5  -2  -7   44.30    2.39
  -5  -2  -7   50.72    2.84
   5  -2   7   47.66    2.46
  -5  -2  -8    6.49    0.74
  -5  -2  -8    5.51    0.73
   5  -2   8    5.82    0.71
   5  -1  -9   39.97    1.99
  -5  -1   9   38.04    1.86
   5  -1  -8   33.94    2.27
  -5  -1   8   39.86    2.29
  -5  -1   7   73.87    3.04
   5  -1  -7   73.24    3.75
  -5  -1   7   72.45    3.49
   5  -1  -6  178.96    6.41
  -5  -1   6  186.41    5.65
  -5  -1   6  184.54    5.30
   5  -1  -6  179.94    6.03
   5  -1  -5   77.52    3.81
  -5  -1   5   84.03    3.99
   5  -1  -5   80.27    3.90
  -5  -1   5   80.08    3.40
   5  -1  -5   74.90    3.64
  -5  -1   5   84.47    3.26
  -5  -1   5   78.63    3.49
   5  -1  -4  387.18    9.88
   5  -1  -4  381.69    9.83
  -5  -1   4  380.91    9.18
   5  -1  -4  387.17    9.86
  -5  -1   4  381.50    8.89
  -5  -1   4  365.17    9.15
  -5  -1   4  401.55   10.05
   5  -1  -3 1052.71   21.04
  -5  -1   3 1030.23   20.37
  -5  -1   3 1058.94   21.17
  -5  -1   2 1238.30   21.99
  -5  -1   2 1206.74   23.25
   5  -1  -2 1198.82   23.64
  -5  -1   1  192.16    4.67
  -5  -1   1  190.52    5.33
   5  -1  -1  189.75    5.53
  -5  -1   0   42.13    2.14
  -5  -1   0   44.89    1.90
   5  -1   0   41.48    2.18
  -5  -1  -1   66.87    2.78
  -5  -1  -1   60.87    2.45
   5  -1   1   61.81    2.67
  -5  -1  -2  437.98    9.77
   5  -1   2  444.81    9.86
   5  -1   3   28.28    2.05
  -5  -1  -3   26.45    1.72
  -5  -1  -3   28.79    1.84
   5  -1   3   27.32    1.96
   5  -1   3   28.96    1.89
  -5  -1  -3   28.14    1.84
  -5  -1  -3   25.70    1.78
   5  -1   3   30.34    1.76
   5  -1   3   27.64    1.83
  -5  -1  -4  351.68    8.64
  -5  -1  -4  336.30    8.76
   5  -1   4  344.99    9.00
  -5  -1  -4  335.74    8.30
   5  -1   4  362.70    9.02
  -5  -1  -4  360.47    8.95
  -5  -1  -4  327.90    8.69
   5  -1   4  353.32    8.87
  -5  -1  -5  435.83   10.23
  -5  -1  -5  417.73   10.37
  -5  -1  -5  423.28   10.59
   5  -1   5  433.38   10.57
   5  -1   5  439.48   10.78
  -5  -1  -5  419.86   10.60
   5  -1   5  444.93   10.69
  -5  -1  -6   61.08    3.04
  -5  -1  -6   61.62    3.09
   5  -1   6   62.41    3.26
  -5  -1  -6   61.25    3.16
   5  -1   6   65.47    3.20
  -5  -1  -7   16.69    1.48
  -5  -1  -7   18.19    1.68
   5  -1   7   18.92    1.56
  -5  -1  -8   49.10    2.30
  -5  -1  -8   53.19    2.36
   5  -1   8   52.59    2.30
   5   0  -9    1.23    0.36
  -5   0   9    1.26    0.38
   5   0  -8   71.78    3.29
  -5   0   8   70.69    2.70
   5   0  -8   77.51    3.20
   5   0  -7  138.99    5.24
  -5   0   7  137.19    4.54
   5   0  -7  146.28    5.24
  -5   0   7  143.16    4.88
   5   0  -6   17.14    1.73
  -5   0   6   15.05    1.39
   5   0  -6   13.51    1.54
  -5   0   6   13.82    1.36
   5   0  -5    4.26    0.87
  -5   0   5    3.75    0.73
   5   0  -5    2.89    0.72
  -5   0   5    3.44    0.71
  -5   0   5    3.56    0.80
   5   0  -4  239.43    7.12
   5   0  -4  239.64    6.59
  -5   0   4  242.88    6.54
  -5   0   4  242.67    6.20
   5   0  -4  248.38    7.32
  -5   0   4  236.25    6.40
  -5   0   4  254.13    7.24
   5   0  -3  878.02   17.95
   5   0  -3  877.20   17.20
  -5   0   3  869.28   17.69
  -5   0   3  876.46   18.07
   5   0  -2  112.90    4.00
  -5   0   2  109.78    3.89
  -5   0   2  120.36    3.22
  -5   0   1  425.29    9.78
  -5   0   1  451.57    8.89
   5   0  -1  420.08    9.70
   5   0   0    0.06    0.18
  -5   0   0    0.21    0.23
  -5   0   0    0.13    0.26
  -5   0  -1   56.62    2.19
   5   0   1   55.77    2.37
   5   0   2    3.88    0.54
  -5   0  -2    3.59    0.58
  -5   0  -3  729.01   15.10
   5   0   3  757.30   15.96
  -5   0  -3  776.13   15.31
   5   0   3  750.87   15.85
   5   0   3  750.44   14.89
   5   0   3  738.77   15.30
  -5   0  -3  767.76   15.16
  -5   0  -3  755.99   15.43
   5   0   3  760.48   15.56
   5   0   4    2.20    0.61
  -5   0  -4    2.22    0.54
   5   0   4    2.36    0.68
  -5   0  -4    3.08    0.77
   5   0   4    1.88    0.47
   5   0   4    2.04    0.56
  -5   0  -4    3.41    0.71
  -5   0  -4    1.99    0.53
  -5   0  -5   94.59    3.83
  -5   0  -5   95.05    3.84
   5   0   5   93.27    3.84
  -5   0  -5   93.19    3.63
   5   0   5   87.83    3.85
  -5   0  -5   94.58    3.80
  -5   0  -5   90.24    3.75
   5   0   5   92.63    3.89
   5   0   6    9.21    1.14
  -5   0  -6    8.52    1.08
  -5   0  -6    8.43    1.12
  -5   0  -6    7.34    1.03
   5   0   6    6.22    1.00
  -5   0  -7  140.44    4.73
  -5   0  -7  136.29    4.74
   5   0   7  146.10    4.79
  -5   0  -8   14.18    1.20
   5   0   8   13.08    1.09
   5   1  -9   36.99    1.75
  -5   1   9   38.88    1.87
  -5   1   8   39.59    1.95
   5   1  -8   35.00    2.19
  -5   1   8   39.76    2.14
  -5   1   7   74.05    3.12
   5   1  -7   70.72    3.57
  -5   1   7   71.55    2.71
  -5   1   7   74.01    3.22
  -5   1   6  179.62    5.57
  -5   1   6  191.12    5.21
   5   1  -6  182.96    6.23
  -5   1   6  180.55    5.55
   5   1  -6  178.09    6.34
   5   1  -5   76.21    3.67
  -5   1   5   77.80    3.31
   5   1  -5   80.23    3.71
   5   1  -5   80.65    3.91
  -5   1   5   80.83    3.05
   5   1  -5   84.46    3.72
  -5   1   5   76.49    3.19
   5   1  -4  378.54    9.65
  -5   1   4  378.58    9.13
   5   1  -4  385.65   10.08
  -5   1   4  396.43    8.74
  -5   1   4  384.40    8.88
   5   1  -4  369.90    9.42
   5   1  -3 1030.19   20.63
  -5   1   3 1037.62   20.11
   5   1  -3 1039.63   21.14
  -5   1   3 1044.16   19.71
   5   1  -3 1029.36   20.39
  -5   1   3 1054.04   20.60
  -5   1   3 1038.92   19.29
  -5   1   3 1071.09   20.77
   5   1  -2 1195.77   23.06
  -5   1   2 1177.81   23.15
  -5   1   2 1194.50   22.11
   5   1  -2 1260.85   22.74
  -5   1   1  197.41    5.02
  -5   1   1  187.23    5.56
  -5   1   1  196.41    4.86
   5   1  -1  206.18    5.37
   5   1  -1  198.15    5.36
  -5   1   0   43.29    1.86
  -5   1   0   43.91    1.85
   5   1   0   45.68    2.05
  -5   1  -1   64.99    2.37
   5   1   1   67.79    2.44
  -5   1  -1   64.16    2.36
   5   1   2  430.09    9.44
  -5   1  -2  458.76    9.44
  -5   1  -3   30.77    1.70
  -5   1  -3   25.04    2.04
   5   1   3   28.01    1.91
   5   1   3   29.98    1.76
  -5   1  -3   28.57    1.78
  -5   1  -3   27.18    1.61
   5   1   3   28.41    1.88
  -5   1  -4  351.90    9.60
  -5   1  -4  356.29    8.45
   5   1   4  352.86    8.86
   5   1   4  346.71    8.33
  -5   1  -4  358.53    8.35
  -5   1  -4  349.17    8.51
   5   1   4  352.31    8.82
  -5   1  -5  443.81   10.39
  -5   1  -5  428.84   10.11
   5   1   5  436.79   10.29
   5   1   5  427.04   10.02
  -5   1  -5  447.09   10.13
  -5   1  -5  434.68   10.12
   5   1   5  461.73   10.64
  -5   1  -6   63.62    2.96
  -5   1  -6   59.51    2.98
  -5   1  -6   60.73    2.91
   5   1   6   64.09    3.08
  -5   1  -7   17.80    1.46
  -5   1  -7   16.14    1.43
   5   1   7   18.58    1.50
  -5   1  -8   53.17    2.36
   5   1   8   51.18    2.20
  -5   2   9   26.08    1.17
   5   2  -9   26.18    1.46
  -5   2   8   44.87    2.09
   5   2  -8   46.73    2.51
  -5   2   8   44.48    2.19
  -5   2   7  372.51    8.92
   5   2  -7  370.76    9.85
  -5   2   7  373.64    8.29
  -5   2   7  373.31    8.94
  -5   2   6  152.02    5.00
   5   2  -6  148.87    5.71
  -5   2   6  154.43    4.56
  -5   2   6  150.99    4.83
  -5   2   5  382.50    9.43
   5   2  -5  394.27   10.38
   5   2  -5  393.39   10.49
  -5   2   5  398.61    9.18
   5   2  -5  382.41   10.07
  -5   2   4   81.39    2.93
   5   2  -4   76.34    3.49
  -5   2   4   78.50    3.26
   5   2  -4   76.59    3.75
  -5   2   4   79.63    3.04
  -5   2   4   77.75    2.88
   5   2  -4   78.83    3.64
   5   2  -4   81.28    3.47
  -5   2   3  111.69    3.50
   5   2  -3  102.50    3.87
   5   2  -3  107.31    3.73
  -5   2   3  107.11    3.76
   5   2  -3  109.41    4.33
  -5   2   3  113.95    3.52
   5   2  -3  106.70    4.11
  -5   2   3  107.43    4.01
  -5   2   3  100.37    3.44
   5   2  -3  104.65    3.95
  -5   2   2   41.81    1.91
   5   2  -2   35.14    1.97
   5   2  -2   34.98    1.96
  -5   2   2   35.13    2.12
  -5   2   2   36.53    1.87
   5   2  -2   38.45    2.18
  -5   2   1   44.02    2.20
   5   2  -1   48.86    2.17
  -5   2   1   51.37    2.59
  -5   2   1   47.52    2.10
   5   2  -1   48.24    2.41
  -5   2   0  294.64    7.25
   5   2   0  314.29    7.25
  -5   2   0  307.57    7.00
  -5   2  -1   45.96    2.11
   5   2   1   45.30    2.15
  -5   2  -1   47.83    2.03
  -5   2  -2  307.92    8.60
   5   2   2  314.76    7.84
   5   2   2  300.95    7.40
  -5   2  -2  314.91    7.05
   5   2   2  296.48    7.68
   5   2   3    2.83    0.65
   5   2   3    2.76    0.62
   5   2   3    3.10    0.63
  -5   2  -3    3.54    0.59
  -5   2  -4   20.44    1.53
  -5   2  -4   17.52    1.85
   5   2   4   19.35    1.58
   5   2   4   19.77    1.55
  -5   2  -4   18.61    1.46
  -5   2  -4   19.31    1.41
   5   2   4   18.90    1.62
  -5   2  -5   36.90    2.06
  -5   2  -5   39.47    2.33
  -5   2  -5   36.90    2.12
   5   2   5   34.81    2.10
   5   2   5   32.97    2.22
   5   2   5   34.98    2.25
  -5   2  -6   53.04    2.60
  -5   2  -6   49.91    2.61
  -5   2  -6   48.87    2.45
   5   2   6   47.07    2.46
   5   2   6   49.99    2.61
   5   2   6   49.32    2.60
  -5   2  -7   51.69    2.46
  -5   2  -7   48.40    2.41
   5   2   7   48.99    2.39
  -5   2  -8    4.86    0.55
   5   2   8    5.02    0.60
   5   3  -9   36.79    1.65
  -5   3   9   39.08    1.55
  -5   3   8   14.69    1.10
   5   3  -8   13.21    1.25
   5   3  -8   12.57    1.04
  -5   3   8   12.71    1.05
  -5   3   7  141.77    4.49
   5   3  -7  139.62    5.12
  -5   3   7  139.44    3.98
  -5   3   7  137.62    4.36
  -5   3   6  118.44    4.28
   5   3  -6  125.99    5.04
  -5   3   6  121.08    4.10
   5   3  -6  115.75    4.61
  -5   3   5  133.70    4.13
   5   3  -5  136.40    5.33
  -5   3   5  132.42    4.33
   5   3  -5  133.37    4.91
   5   3  -4   49.92    2.64
   5   3  -4   50.98    3.01
  -5   3   4   54.89    2.43
  -5   3   4   53.16    2.42
   5   3  -4   50.74    3.02
  -5   3   3  100.73    3.51
   5   3  -3   98.96    3.87
   5   3  -3  100.04    4.19
   5   3  -3  100.97    4.25
  -5   3   3  106.70    3.98
   5   3  -3   95.54    4.06
  -5   3   2   66.44    2.65
   5   3  -2   60.28    2.88
   5   3  -2   63.89    3.08
  -5   3   2   63.19    3.00
   5   3  -2   60.12    3.06
   5   3  -1  285.51    7.49
   5   3  -1  284.75    7.77
   5   3  -1  276.00    7.28
  -5   3   1  288.59    7.73
  -5   3   1  308.53    6.95
  -5   3   1  279.26    7.04
   5   3  -1  283.14    7.76
   5   3   0   97.00    3.84
   5   3   0   94.74    3.59
  -5   3   0   92.04    3.59
   5   3   0   86.89    3.43
  -5   3   0   98.83    3.37
   5   3   0   92.19    3.83
   5   3   1   59.73    2.92
   5   3   1   53.61    2.61
  -5   3  -1   56.69    2.62
   5   3   1   50.77    2.51
  -5   3  -1   53.32    2.29
  -5   3  -2  144.73    5.46
   5   3   2  145.05    4.72
  -5   3  -2  152.56    4.58
   5   3   2  135.88    4.53
  -5   3  -2  142.42    4.13
   5   3   2  127.97    4.58
  -5   3  -3  187.58    6.69
   5   3   3  206.56    5.87
   5   3   3  190.63    5.69
  -5   3  -3  199.72    5.21
   5   3   3  183.37    5.82
  -5   3  -4   60.12    2.89
   5   3   4   55.30    2.74
   5   3   4   59.61    2.97
  -5   3  -5   98.24    3.50
   5   3   5   91.06    3.62
   5   3   5   97.05    3.86
  -5   3  -6   13.24    1.22
  -5   3  -6   12.06    1.19
   5   3   6   10.94    1.12
   5   3   6   12.60    1.30
   5   3   6   11.52    1.17
  -5   3  -7  120.85    3.82
  -5   3  -7  116.49    3.67
   5   3   7  115.66    3.75
   5   3   7  114.27    3.66
  -5   3  -8   84.87    2.65
  -5   4   8    9.65    0.81
   5   4  -8    9.14    0.93
   5   4  -8    8.74    0.82
  -5   4   8    9.31    0.80
  -5   4   7   33.88    1.85
   5   4  -7   36.37    2.22
  -5   4   7   29.78    1.52
  -5   4   7   32.34    1.74
  -5   4   6   22.35    1.64
   5   4  -6   23.98    1.97
  -5   4   6   22.33    1.51
  -5   4   5    6.78    0.84
   5   4  -5    6.21    1.05
  -5   4   5    5.77    0.79
   5   4  -5    5.58    1.04
  -5   4   4    2.87    0.59
   5   4  -4    2.99    0.70
   5   4  -4    2.94    0.76
  -5   4   4    3.49    0.62
   5   4  -4    2.78    0.73
  -5   4   3  361.80    8.65
   5   4  -3  359.51    9.38
   5   4  -3  372.69    9.51
   5   4  -3  357.77    9.85
   5   4  -3  360.93    9.82
   5   4  -2  131.85    4.83
  -5   4   2  140.37    4.38
   5   4  -2  128.18    4.93
   5   4  -2  134.98    5.18
  -5   4   1   65.58    2.67
   5   4  -1   62.43    3.06
   5   4  -1   59.37    3.06
   5   4  -1   57.22    2.93
  -5   4   1   61.26    3.02
  -5   4   1   59.54    2.75
   5   4  -1   62.12    3.28
  -5   4   0  170.70    4.62
   5   4   0  159.31    5.31
   5   4   0  145.37    4.94
  -5   4   0  156.44    5.29
   5   4   0  143.41    5.04
  -5   4   0  160.84    4.81
   5   4   0  161.56    5.61
   5   4   1   75.70    3.25
  -5   4  -1   85.22    3.50
   5   4   1   73.72    3.31
  -5   4  -1   79.59    3.02
   5   4   2    7.65    1.02
   5   4   2    7.34    0.97
  -5   4  -2    8.05    0.99
   5   4   2    6.74    0.96
  -5   4  -2    7.33    0.82
  -5   4  -3  166.27    5.51
   5   4   3  158.81    5.19
  -5   4  -3  166.37    4.58
   5   4   3  158.35    5.30
   5   4   4   79.32    3.35
   5   4   4   80.56    3.48
  -5   4  -5   49.92    2.40
   5   4   5   46.68    2.42
   5   4   5   46.44    2.45
  -5   4  -6  164.09    4.61
  -5   4  -6  159.12    4.45
   5   4   6  148.91    4.85
   5   4   6  146.14    4.16
   5   4   6  155.98    4.59
  -5   4  -7   37.95    1.72
   5   4   7   40.05    1.85
   5   4   7   39.38    1.66
  -5   5   7   15.19    1.07
   5   5  -7   15.24    1.22
  -5   5   7   15.34    0.93
   5   5  -7   16.18    1.26
  -5   5   7   16.10    1.04
  -5   5   6   31.28    1.76
   5   5  -6   31.44    2.00
  -5   5   6   29.93    1.61
   5   5  -5   18.06    1.60
  -5   5   5   19.46    1.32
   5   5  -4  107.47    4.18
  -5   5   4   97.90    3.63
  -5   5   4  109.91    3.50
   5   5  -4  102.03    4.54
  -5   5   3   69.85    2.99
   5   5  -3   67.66    3.39
   5   5  -3   69.55    3.67
   5   5  -2  688.41   15.43
  -5   5   2  693.30   14.44
   5   5  -2  695.88   15.47
   5   5  -2  714.47   16.08
   5   5  -1   80.25    3.68
   5   5  -1   81.91    3.65
  -5   5   1   87.02    3.23
  -5   5   1   76.19    3.65
   5   5  -1   81.31    3.72
  -5   5   1   78.33    3.31
   5   5  -1   83.44    3.98
  -5   5   0   57.46    2.43
   5   5   0   56.89    2.86
   5   5   0   52.33    2.69
  -5   5   0   53.74    2.93
   5   5   0   49.19    2.80
  -5   5   0   53.35    2.55
   5   5   1   79.51    3.31
  -5   5  -1   76.55    3.36
   5   5   1   73.19    3.42
  -5   5  -1   78.58    3.03
   5   5   2   43.67    2.48
  -5   5  -2   46.96    2.12
   5   5   2   43.43    2.50
   5   5   3    0.46    0.34
   5   5   3    1.54    0.51
   5   5   4    4.51    0.75
   5   5   4    3.99    0.72
   5   5   5   94.53    3.78
   5   5   5  100.35    3.46
  -5   5  -6   86.29    2.74
   5   5   6   88.14    3.14
   5   5   6   85.09    2.65
   5   5   6   89.27    2.77
  -5   6   6   75.85    2.46
   5   6  -6   82.66    2.97
  -5   6   6   78.58    2.34
  -5   6   5   12.01    0.96
   5   6  -5   11.52    1.15
  -5   6   5   11.29    0.84
   5   6  -4  128.98    4.55
   5   6  -3   47.07    2.59
   5   6  -3   45.88    2.64
   5   6  -2    6.27    0.92
   5   6  -2    6.82    1.04
  -5   6   2    5.82    0.81
   5   6  -2    7.63    1.12
   5   6  -1  118.83    4.24
   5   6  -1  126.14    4.71
  -5   6   1  115.67    4.02
   5   6  -1  131.59    5.02
   5   6   0  235.26    6.33
   5   6   0  228.72    6.77
  -5   6   0  222.84    5.96
   5   6   1  266.73    6.62
   5   6   1  245.87    7.07
  -5   6  -1  254.86    6.24
   5   6   2  358.79    8.66
   5   6   2  330.66    8.43
   5   6   3  269.58    7.04
   5   6   3  282.80    7.05
   5   6   4    1.22    0.40
   5   6   5    1.10    0.31
   5   6   5    1.63    0.44
   5   6   5    0.84    0.32
   5   7  -5   40.50    1.62
   5   7  -5   39.78    1.65
   5   7  -4   13.49    1.00
   5   7  -3   74.40    2.64
   5   7  -2  120.93    3.81
   5   7  -1   15.47    1.17
   5   7   1  109.44    3.65
   5   7   2  142.00    4.12
   5   7   3   98.04    2.97
   5   7   4   49.12    1.92
   5   8   0  137.22    3.54
   5   8   1   81.72    2.35
  -6  -7   3  150.81    4.04
   6  -7  -3  159.25    3.87
  -6  -7   2    3.56    0.49
  -6  -7   2    4.76    0.69
   6  -7  -2    3.88    0.51
  -6  -7   1   25.43    1.65
   6  -7  -1   24.85    1.31
  -6  -7   0   24.19    1.61
   6  -7   0   25.66    1.29
   6  -7   0   23.16    1.20
   6  -7   1    5.09    0.56
   6  -7   1    5.13    0.56
  -6  -7  -2   65.45    2.41
   6  -7   2   63.24    2.07
  -6  -6   5  107.74    3.54
   6  -6  -5  103.36    3.20
  -6  -6   4   30.87    1.89
  -6  -6   4   30.75    1.72
   6  -6  -4   28.56    1.66
  -6  -6   3   12.12    1.21
  -6  -6   3   12.31    1.26
   6  -6  -3   11.50    1.09
  -6  -6   2   31.50    1.96
  -6  -6   2   37.07    2.34
   6  -6  -2   32.77    1.93
  -6  -6   1    0.87    0.52
   6  -6  -1    1.09    0.42
  -6  -6   0   14.10    1.36
  -6  -6   0   13.54    1.49
   6  -6   0   17.02    1.34
  -6  -6  -1   39.73    2.41
  -6  -6  -1   41.20    2.48
   6  -6   1   43.53    2.15
  -6  -6  -2  122.28    4.46
  -6  -6  -2  127.87    4.36
   6  -6   2  127.56    3.89
   6  -6   2  114.48    3.74
  -6  -6  -3    9.70    0.92
  -6  -6  -3   11.97    1.20
   6  -6   3   10.93    0.93
   6  -6   3   11.28    0.94
  -6  -6  -4   97.69    3.21
   6  -6   4   89.80    2.69
   6  -6   4   98.51    2.68
   6  -5  -7    3.19    0.46
  -6  -5   7    3.13    0.48
   6  -5  -6   19.15    1.40
  -6  -5   6   16.32    1.36
   6  -5  -5   67.56    3.11
  -6  -5   5   65.98    3.20
   6  -5  -4   72.95    3.41
  -6  -5   4   67.07    3.38
  -6  -5   4   63.38    3.10
   6  -5  -3   69.93    3.45
  -6  -5   3   62.12    3.28
   6  -5  -3   73.91    2.57
  -6  -5   3   62.12    3.31
  -6  -5   2    3.22    0.77
   6  -5  -2    3.54    0.59
  -6  -5   2    3.00    0.79
   6  -5  -2    2.70    0.67
  -6  -5   1   30.63    2.19
  -6  -5   1   27.57    2.28
   6  -5  -1   29.69    2.03
  -6  -5   0  161.85    5.84
  -6  -5   0  166.84    6.01
   6  -5   0  159.05    5.24
  -6  -5  -1   79.83    3.97
  -6  -5  -1   85.04    3.98
   6  -5   1   84.34    3.47
  -6  -5  -2   81.05    3.93
  -6  -5  -2   77.81    3.61
  -6  -5  -2   75.55    3.67
   6  -5   2   81.38    3.32
  -6  -5  -3   72.97    3.59
  -6  -5  -3   72.42    3.15
  -6  -5  -3   73.99    3.35
   6  -5   3   77.63    3.13
  -6  -5  -4  189.75    5.71
   6  -5   4  185.09    5.12
   6  -5   4  175.01    4.71
  -6  -5  -5    3.24    0.61
  -6  -5  -5    4.53    0.67
   6  -5   5    3.65    0.56
   6  -5   5    5.10    0.50
   6  -4  -7   22.58    1.52
  -6  -4   7   21.34    1.56
   6  -4  -6   28.85    2.00
  -6  -4   6   25.02    1.99
   6  -4  -5   39.12    2.57
  -6  -4   5   43.84    2.83
  -6  -4   5   47.61    2.53
   6  -4  -4   21.81    1.95
  -6  -4   4   22.13    2.06
  -6  -4   4   22.94    1.91
   6  -4  -3    1.32    0.59
  -6  -4   3    2.06    0.61
  -6  -4   3    1.64    0.58
   6  -4  -2  122.88    4.91
  -6  -4   2  126.64    4.91
   6  -4  -2  136.02    4.02
   6  -4  -2  124.57    4.60
  -6  -4   2  117.36    4.98
  -6  -4   1  148.49    5.43
   6  -4  -1  150.59    5.20
  -6  -4   1  132.12    5.33
   6  -4  -1  129.60    4.78
  -6  -4   0   61.08    3.44
   6  -4   0   61.63    3.24
  -6  -4   0   63.08    3.48
   6  -4   0   58.57    2.98
  -6  -4  -1   10.60    1.46
   6  -4   1   10.46    1.32
  -6  -4  -1    9.49    1.32
  -6  -4  -1    9.52    1.26
   6  -4   1    8.99    1.14
  -6  -4  -2  307.36    9.00
  -6  -4  -2  287.63    8.25
  -6  -4  -2  304.98    8.53
  -6  -4  -2  279.43    8.39
   6  -4   2  293.76    7.86
  -6  -4  -3   18.46    1.85
  -6  -4  -3   20.05    1.90
  -6  -4  -3   18.72    1.85
   6  -4   3   18.85    1.58
  -6  -4  -4   19.17    1.75
  -6  -4  -4   18.57    1.78
  -6  -4  -4   19.45    1.82
   6  -4   4   20.86    1.62
  -6  -4  -5   77.80    3.24
  -6  -4  -5   75.79    3.52
   6  -4   5   79.28    3.15
   6  -4   5   80.03    2.56
  -6  -4  -6  161.98    4.81
   6  -4   6  153.91    3.93
   6  -3  -8   47.08    2.05
  -6  -3   8   47.79    2.21
   6  -3  -7    1.19    0.46
  -6  -3   7    1.33    0.45
   6  -3  -6  153.00    5.48
  -6  -3   6  165.85    5.68
   6  -3  -5  139.58    5.31
  -6  -3   5  141.48    4.95
  -6  -3   5  135.42    5.28
   6  -3  -4  203.91    6.78
  -6  -3   4  213.55    6.65
  -6  -3   4  214.73    6.96
   6  -3  -3    7.03    1.09
   6  -3  -3    8.12    1.11
  -6  -3   3    7.06    1.12
  -6  -3   3    7.70    1.15
   6  -3  -2   58.55    3.14
   6  -3  -2   57.43    3.07
  -6  -3   2   56.84    3.16
  -6  -3   2   54.77    3.22
   6  -3  -1  118.49    4.62
  -6  -3   1  111.44    4.58
   6  -3  -1  100.11    4.03
  -6  -3   1  109.02    4.66
   6  -3  -1  111.49    4.58
   6  -3   0   20.24    1.83
  -6  -3   0   22.19    1.90
  -6  -3   0   20.44    1.66
   6  -3   0   18.75    1.62
   6  -3   0   22.63    1.88
   6  -3   1  136.56    5.19
  -6  -3  -1  133.40    5.06
   6  -3   1  131.70    4.69
  -6  -3  -1  130.55    4.85
   6  -3   1  135.46    4.72
  -6  -3  -1  131.54    4.57
   6  -3   2   14.99    1.63
  -6  -3  -2   13.06    1.44
   6  -3   2   15.04    1.48
  -6  -3  -2   14.26    1.50
   6  -3   2   17.42    1.55
  -6  -3  -3   54.46    3.27
  -6  -3  -3   54.95    3.17
   6  -3   3   56.05    2.88
  -6  -3  -4  241.73    7.47
  -6  -3  -4  248.09    7.88
  -6  -3  -4  245.04    7.56
   6  -3   4  251.06    7.02
   6  -3   4  236.45    6.62
  -6  -3  -5  133.51    4.73
  -6  -3  -5  142.50    5.39
   6  -3   5  141.30    4.77
   6  -3   5  131.19    4.44
  -6  -3  -6    5.30    0.90
   6  -3   6    6.50    0.85
   6  -3   6    5.75    0.75
  -6  -3  -7    3.70    0.58
   6  -3   7    3.31    0.47
   6  -2  -8    1.61    0.43
  -6  -2   8    1.57    0.45
   6  -2  -7  108.44    4.17
  -6  -2   7  111.34    4.27
   6  -2  -6  135.36    5.16
  -6  -2   6  147.45    4.69
  -6  -2   6  142.94    5.30
   6  -2  -5  299.95    8.62
   6  -2  -5  311.32    8.34
  -6  -2   5  294.46    7.97
  -6  -2   5  293.67    8.54
   6  -2  -4  159.34    5.69
   6  -2  -4  157.24    5.60
  -6  -2   4  166.49    5.47
  -6  -2   4  160.99    5.72
  -6  -2   3  151.77    4.81
   6  -2  -3  155.90    5.41
   6  -2  -3  155.92    5.55
  -6  -2   3  150.56    5.22
  -6  -2   3  150.04    5.33
  -6  -2   3  152.10    5.72
   6  -2  -3  152.33    5.66
   6  -2  -2  104.27    4.15
  -6  -2   2  101.30    3.74
   6  -2  -2  100.16    4.28
  -6  -2   2  102.35    4.09
  -6  -2   2  104.60    4.13
  -6  -2   2  106.71    3.90
  -6  -2   2  102.94    4.47
   6  -2  -2  100.76    4.33
  -6  -2   1  145.24    4.77
  -6  -2   1  137.51    4.65
   6  -2  -1  135.97    5.13
  -6  -2   1  137.14    4.89
   6  -2  -1  146.90    4.95
  -6  -2   1  142.50    4.38
   6  -2  -1  143.02    5.16
  -6  -2   0  186.39    5.79
   6  -2   0  200.34    6.40
  -6  -2   0  197.04    6.08
   6  -2   0  197.65    5.91
   6  -2   0  189.87    5.75
  -6  -2   0  190.90    5.60
  -6  -2   0  198.58    5.58
   6  -2   0  199.94    6.20
   6  -2   1   72.68    3.56
  -6  -2  -1   68.98    3.27
  -6  -2  -1   67.79    2.98
   6  -2   1   67.18    3.22
   6  -2   1   67.15    3.08
  -6  -2  -1   67.58    3.08
  -6  -2  -1   67.87    3.02
   6  -2   1   69.61    3.24
   6  -2   2   14.26    1.54
  -6  -2  -2   14.00    1.37
   6  -2   2   13.28    1.42
   6  -2   2   13.60    1.36
  -6  -2  -2   14.06    1.42
  -6  -2  -2   14.23    1.38
   6  -2   2   15.27    1.43
   6  -2   3  192.65    6.48
  -6  -2  -3  190.16    6.11
   6  -2   3  190.61    6.22
   6  -2   3  206.55    6.14
  -6  -2  -3  195.09    6.32
  -6  -2  -3  192.64    6.07
  -6  -2  -4  110.84    4.57
  -6  -2  -4  101.33    3.91
   6  -2   4  111.69    4.43
   6  -2   4  112.40    4.32
  -6  -2  -4  108.73    4.53
   6  -2   4  104.77    4.08
  -6  -2  -5  157.21    5.18
   6  -2   5  152.01    5.15
  -6  -2  -5  150.41    5.41
   6  -2   5  146.50    4.94
  -6  -2  -6    5.67    0.98
   6  -2   6    5.58    0.85
   6  -2   6    5.26    0.78
  -6  -2  -7    2.66    0.58
   6  -2   7    2.26    0.46
  -6  -1   9    1.62    0.33
   6  -1  -8   13.83    1.15
  -6  -1   8   13.65    1.22
   6  -1  -7    4.49    0.80
   6  -1  -7    4.71    0.76
  -6  -1   7    4.02    0.78
   6  -1  -6   46.32    2.74
  -6  -1   6   47.87    2.57
   6  -1  -6   43.61    2.65
  -6  -1   6   43.10    2.31
  -6  -1   6   46.02    2.78
   6  -1  -5  311.21    8.63
  -6  -1   5  306.95    8.31
   6  -1  -5  316.30    8.90
  -6  -1   5  319.48    8.11
  -6  -1   5  324.08    8.81
  -6  -1   4  801.56   16.01
  -6  -1   4  786.37   16.74
   6  -1  -4  790.66   17.50
  -6  -1   4  789.53   16.50
  -6  -1   4  807.79   17.15
  -6  -1   4  784.88   17.69
  -6  -1   3  212.00    5.97
  -6  -1   3  217.29    6.42
  -6  -1   3  222.11    5.78
   6  -1  -3  220.70    6.96
  -6  -1   3  207.49    6.14
  -6  -1   3  222.69    6.50
  -6  -1   3  211.10    6.93
   6  -1  -3  219.29    6.96
  -6  -1   2  166.93    5.05
  -6  -1   2  167.59    5.32
  -6  -1   2  162.25    4.81
   6  -1  -2  168.97    5.81
  -6  -1   2  167.21    5.20
  -6  -1   2  172.43    5.50
   6  -1  -2  164.98    5.66
  -6  -1   1   54.27    2.55
  -6  -1   1   50.01    2.39
   6  -1  -1   47.04    2.79
  -6  -1   1   48.70    2.49
   6  -1  -1   50.13    2.53
   6  -1  -1   46.38    2.36
  -6  -1   1   48.99    2.18
  -6  -1   1   49.40    2.60
   6  -1  -1   49.22    2.71
  -6  -1   0   44.09    2.32
  -6  -1   0   40.75    2.20
   6  -1   0   41.82    2.60
  -6  -1   0   41.02    2.26
  -6  -1   0   44.59    2.10
   6  -1   0   39.10    2.30
   6  -1   0   39.50    2.18
  -6  -1   0   42.11    2.19
  -6  -1   0   43.53    2.42
   6  -1   0   38.55    2.33
  -6  -1  -1    5.34    0.84
   6  -1   1    6.31    0.92
  -6  -1  -1    4.45    0.75
   6  -1   1    3.99    0.82
  -6  -1  -1    4.36    0.76
  -6  -1  -1    4.97    0.79
   6  -1   1    4.89    0.86
   6  -1   1    5.60    0.85
  -6  -1  -1    5.91    0.83
  -6  -1  -1    5.21    0.78
  -6  -1  -1    5.41    0.86
  -6  -1  -2   98.15    3.89
   6  -1   2  105.49    4.36
  -6  -1  -2  110.83    3.96
   6  -1   2  107.62    4.28
   6  -1   2  112.63    4.04
  -6  -1  -2  109.69    4.02
  -6  -1  -2  109.65    4.02
   6  -1   3   44.59    2.72
  -6  -1  -3   42.02    2.29
  -6  -1  -3   41.20    2.41
   6  -1   3   43.68    2.64
   6  -1   3   45.03    2.51
  -6  -1  -3   41.54    2.46
  -6  -1  -3   40.72    2.41
   6  -1   3   43.83    2.40
  -6  -1  -4   43.52    2.25
  -6  -1  -4   39.98    2.30
  -6  -1  -4   36.88    2.37
   6  -1   4   39.11    2.48
   6  -1   4   40.41    2.44
  -6  -1  -4   39.08    2.48
  -6  -1  -4   38.13    2.38
   6  -1   4   40.31    2.39
  -6  -1  -5   65.58    2.93
  -6  -1  -5   62.39    3.01
   6  -1   5   64.97    3.13
   6  -1   5   65.96    3.22
  -6  -1  -5   68.91    3.36
   6  -1   5   64.40    3.09
  -6  -1  -6   33.91    1.98
  -6  -1  -6   36.74    2.13
   6  -1   6   35.09    2.18
   6  -1   6   37.00    2.15
  -6  -1  -7   27.53    1.60
  -6  -1  -7   30.81    1.92
   6  -1   7   28.38    1.65
  -6   0   9    4.76    0.56
  -6   0   8   86.40    2.87
   6   0  -8   85.20    3.08
  -6   0   8   91.50    3.37
  -6   0   7    4.55    0.75
   6   0  -7    5.48    0.90
  -6   0   7    5.22    0.69
  -6   0   6    1.74    0.56
   6   0  -6    1.39    0.53
  -6   0   6    0.93    0.42
  -6   0   5    9.14    1.13
   6   0  -5   10.49    1.41
  -6   0   5   10.47    1.11
  -6   0   5    9.56    1.17
   6   0  -4  281.53    8.42
  -6   0   4  298.87    7.89
   6   0  -4  300.03    8.68
  -6   0   4  295.09    7.52
  -6   0   4  285.17    7.67
  -6   0   4  303.77    8.64
  -6   0   3  229.80    6.56
  -6   0   3  237.74    5.94
   6   0  -3  224.73    7.17
  -6   0   3  229.98    6.28
   6   0  -3  239.70    6.86
  -6   0   3  242.99    7.30
   6   0  -3  223.94    7.01
  -6   0   2  853.09   17.19
  -6   0   2  872.00   17.54
  -6   0   2  904.10   16.97
   6   0  -2  840.35   18.36
  -6   0   2  879.26   17.27
   6   0  -2  873.33   18.07
   6   0  -2  870.55   17.41
  -6   0   2  862.58   16.46
  -6   0   2  851.78   17.91
   6   0  -2  832.39   17.99
  -6   0   1  297.45    7.37
  -6   0   1  293.63    7.46
  -6   0   1  310.98    7.20
   6   0  -1  289.56    8.14
  -6   0   1  287.76    7.25
   6   0  -1  304.47    7.69
  -6   0   1  284.19    7.81
  -6   0   1  299.28    6.88
   6   0  -1  283.50    7.71
  -6   0   0  722.21   14.85
  -6   0   0  737.61   14.63
   6   0   0  726.19   15.75
  -6   0   0  722.50   14.70
   6   0   0  745.39   15.37
  -6   0   0  680.25   15.36
  -6   0   0  733.31   14.39
   6   0   0  721.94   15.12
  -6   0  -1   54.03    2.55
  -6   0  -1   52.25    2.43
   6   0   1   54.01    2.89
   6   0   1   53.53    2.77
  -6   0  -1   51.15    2.80
  -6   0  -1   53.38    2.37
  -6   0  -2   92.79    3.59
  -6   0  -2   96.26    3.57
   6   0   2   96.09    4.01
  -6   0  -2  100.54    3.60
   6   0   2   96.05    3.96
   6   0   2   95.31    3.51
  -6   0  -2   88.52    3.41
  -6   0  -2   92.41    3.61
   6   0   2   97.27    3.63
  -6   0  -3   22.59    1.66
   6   0   3   25.38    1.97
  -6   0  -3   23.40    1.71
   6   0   3   20.59    1.79
   6   0   3   24.05    1.72
  -6   0  -3   26.88    1.84
  -6   0  -3   22.30    1.71
   6   0   3   22.52    1.73
  -6   0  -4   19.66    1.49
  -6   0  -4   17.33    1.51
  -6   0  -4   17.31    1.55
   6   0   4   18.00    1.65
   6   0   4   16.64    1.49
  -6   0  -4   17.97    1.55
  -6   0  -4   17.04    1.53
   6   0   4   18.62    1.61
  -6   0  -5  351.79    8.42
  -6   0  -5  335.61    8.63
  -6   0  -5  335.03    8.75
   6   0   5  341.53    8.72
   6   0   5  324.50    8.65
  -6   0  -5  334.75    8.75
  -6   0  -5  343.57    8.69
   6   0   5  350.39    8.82
  -6   0  -6    7.16    0.92
  -6   0  -6    7.22    0.98
   6   0   6    7.57    0.98
  -6   0  -7  124.83    3.93
  -6   0  -7  134.82    4.35
   6   0   7  121.80    3.90
  -6   1   9    1.36    0.30
  -6   1   8   12.70    1.00
   6   1  -8   12.51    1.13
  -6   1   7    4.62    0.75
   6   1  -7    3.39    0.71
  -6   1   7    4.91    0.66
  -6   1   7    4.70    0.77
  -6   1   6   42.54    2.39
   6   1  -6   42.43    2.77
  -6   1   6   42.69    2.18
  -6   1   6   41.63    2.37
  -6   1   5  316.16    8.27
   6   1  -5  321.35    9.21
  -6   1   5  317.03    7.83
   6   1  -5  329.42    8.54
  -6   1   5  295.01    7.98
  -6   1   4  774.78   16.28
   6   1  -4  779.89   17.40
  -6   1   4  785.67   15.77
   6   1  -4  784.30   16.83
  -6   1   4  773.90   15.96
   6   1  -4  760.18   16.56
   6   1  -3  212.09    6.58
  -6   1   3  219.22    6.19
   6   1  -3  217.00    6.95
  -6   1   3  219.96    5.90
   6   1  -3  221.17    6.70
   6   1  -3  209.64    6.04
   6   1  -3  204.36    6.24
  -6   1   3  217.75    5.35
  -6   1   3  211.79    6.55
  -6   1   3  219.67    6.75
  -6   1   2  171.81    5.13
   6   1  -2  172.60    5.84
  -6   1   2  171.61    4.90
   6   1  -2  171.40    5.68
   6   1  -2  164.37    5.19
  -6   1   2  158.74    5.47
  -6   1   2  167.24    4.54
   6   1  -2  170.35    5.45
  -6   1   1   48.73    2.36
   6   1  -1   53.01    2.88
  -6   1   1   50.51    2.27
   6   1  -1   50.86    2.81
   6   1  -1   53.15    2.64
  -6   1   1   48.91    2.73
  -6   1   1   51.54    2.17
   6   1  -1   44.80    2.41
  -6   1   0   43.19    2.17
   6   1   0   42.18    2.50
  -6   1   0   39.98    2.00
   6   1   0   41.30    2.35
  -6   1   0   42.30    2.57
  -6   1   0   44.32    2.03
   6   1   1    5.40    0.83
  -6   1  -1    4.49    0.73
  -6   1  -1    5.90    0.78
   6   1   1    4.23    0.80
   6   1   1    5.22    0.84
  -6   1  -1    5.32    0.73
  -6   1  -2  113.60    3.88
  -6   1  -2  108.53    3.73
   6   1   2  112.43    4.26
   6   1   2  104.79    4.18
  -6   1  -2  113.70    3.78
   6   1   2  109.68    4.01
  -6   1  -3   45.79    2.30
  -6   1  -3   46.92    2.40
   6   1   3   41.94    2.54
   6   1   3   46.87    2.26
  -6   1  -3   43.89    2.31
  -6   1  -3   44.46    2.42
   6   1   3   42.14    2.42
  -6   1  -4   41.33    2.33
   6   1   4   41.84    2.49
   6   1   4   39.73    2.15
  -6   1  -4   38.96    2.25
  -6   1  -4   41.39    2.36
   6   1   4   39.56    2.39
  -6   1  -5   65.83    2.91
  -6   1  -5   69.39    3.13
  -6   1  -5   61.98    2.96
   6   1   5   67.61    3.06
  -6   1  -5   67.40    3.07
  -6   1  -5   65.87    3.00
   6   1   5   66.30    3.11
  -6   1  -6   38.18    2.08
  -6   1  -6   39.15    2.21
  -6   1  -6   37.09    2.11
   6   1   6   38.18    2.17
  -6   1  -7   28.32    1.63
  -6   1  -7   28.46    1.69
  -6   1  -7   31.68    1.81
   6   1   7   30.55    1.69
  -6   2   8    1.36    0.35
   6   2  -8    1.15    0.42
  -6   2   7  115.47    3.86
   6   2  -7  113.83    4.35
  -6   2   7  112.75    3.45
   6   2  -7  108.97    3.69
  -6   2   7  103.65    3.72
  -6   2   6  143.97    4.78
   6   2  -6  137.98    5.34
  -6   2   6  146.08    4.40
   6   2  -6  143.64    4.93
  -6   2   6  145.29    4.67
  -6   2   5  289.16    7.79
   6   2  -5  300.27    8.72
  -6   2   5  309.65    7.44
   6   2  -5  277.81    8.11
  -6   2   5  283.44    7.47
  -6   2   4  167.00    5.29
   6   2  -4  164.56    5.98
  -6   2   4  166.37    4.95
   6   2  -4  164.05    5.77
   6   2  -4  156.17    5.07
  -6   2   4  166.09    4.97
   6   2  -3  144.47    5.15
  -6   2   3  158.36    4.98
   6   2  -3  152.20    5.57
  -6   2   3  153.89    4.66
   6   2  -3  154.25    5.50
   6   2  -3  151.11    5.00
   6   2  -3  144.58    5.25
  -6   2   3  153.26    4.46
  -6   2   3  161.06    5.47
  -6   2   2  105.74    3.75
   6   2  -2  103.30    4.30
  -6   2   2  106.70    3.57
   6   2  -2  102.24    4.28
   6   2  -2   97.62    3.87
  -6   2   2  103.55    4.23
  -6   2   2   98.11    3.39
   6   2  -2  109.56    4.04
   6   2  -1  137.99    4.99
  -6   2   1  142.63    4.22
   6   2  -1  143.60    5.16
   6   2  -1  142.69    4.82
  -6   2   1  134.49    4.32
  -6   2   1  142.75    5.14
  -6   2   1  149.68    4.34
   6   2   0  192.31    5.99
   6   2   0  207.00    6.39
   6   2   0  196.71    5.96
  -6   2   0  202.48    5.44
  -6   2   0  192.91    6.39
  -6   2   0  204.81    5.33
   6   2   0  192.15    5.64
  -6   2  -1   69.93    2.84
   6   2   1   69.44    3.21
   6   2   1   70.62    2.79
  -6   2  -1   71.84    2.78
   6   2   1   66.29    3.02
  -6   2  -2   15.19    1.23
   6   2   2   13.72    1.40
   6   2   2   13.55    1.20
  -6   2  -2   14.64    1.21
   6   2   2   13.64    1.34
   6   2   3  194.88    6.04
   6   2   3  198.02    5.61
  -6   2  -3  193.55    5.71
  -6   2  -3  195.06    5.48
   6   2   3  185.64    5.84
  -6   2  -4  109.45    3.93
   6   2   4  104.28    4.05
   6   2   4  106.26    3.81
  -6   2  -4  108.62    3.85
  -6   2  -4  109.52    3.97
   6   2   4  107.14    4.14
  -6   2  -5  157.58    4.99
  -6   2  -5  148.09    4.73
   6   2   5  148.54    4.68
   6   2   5  141.58    4.58
  -6   2  -5  157.91    4.75
   6   2   5  150.76    4.95
   6   2   6    5.67    0.79
  -6   2  -6    5.32    0.74
  -6   2  -6    5.81    0.83
  -6   2  -6    4.07    0.64
  -6   2  -7    2.52    0.48
  -6   2  -7    2.08    0.45
   6   2   7    1.68    0.40
  -6   3   8   50.64    1.91
   6   3  -8   51.49    2.20
  -6   3   8   48.15    1.92
  -6   3   7    2.54    0.52
   6   3  -7    1.50    0.48
  -6   3   7    1.70    0.38
   6   3  -7    1.94    0.49
  -6   3   7    1.32    0.38
  -6   3   6  159.37    4.95
   6   3  -6  163.47    5.64
  -6   3   6  170.86    4.67
   6   3  -6  153.40    5.23
  -6   3   6  149.89    4.68
  -6   3   5  131.26    4.55
   6   3  -5  137.13    5.28
  -6   3   5  141.71    4.34
   6   3  -5  135.09    5.08
   6   3  -5  127.68    4.37
  -6   3   5  131.73    4.28
  -6   3   4  211.87    6.14
   6   3  -4  206.66    6.81
   6   3  -4  206.12    6.76
  -6   3   4  219.04    5.78
  -6   3   4  201.48    5.57
  -6   3   3    7.51    0.96
   6   3  -3    7.22    1.13
   6   3  -3    7.17    1.10
  -6   3   3    7.48    0.90
   6   3  -3    9.97    1.21
  -6   3   2   57.58    2.61
   6   3  -2   59.13    3.09
   6   3  -2   53.61    3.07
   6   3  -2   55.29    2.87
  -6   3   2   55.34    2.84
  -6   3   2   60.54    3.12
  -6   3   2   57.28    2.60
   6   3  -2   56.95    3.00
  -6   3   1  120.92    3.73
   6   3  -1  109.91    4.51
   6   3  -1  110.91    4.26
  -6   3   1  111.52    4.11
  -6   3   1  111.31    4.55
  -6   3   1  116.97    3.90
   6   3   0   22.48    1.88
   6   3   0   20.52    1.69
  -6   3   0   23.33    1.66
   6   3   0   22.84    1.60
  -6   3   0   19.94    1.86
  -6   3   0   27.77    1.67
   6   3   1  139.27    4.84
  -6   3  -1  147.56    4.61
   6   3   1  140.67    4.51
  -6   3  -1  149.36    4.37
  -6   3  -2   16.12    1.21
   6   3   2   14.29    1.40
   6   3   2   13.45    1.27
  -6   3  -2   14.34    1.19
   6   3   2   14.88    1.42
  -6   3  -3   57.60    2.83
   6   3   3   55.93    2.80
   6   3   3   51.76    2.56
  -6   3  -3   56.89    2.66
  -6   3  -3   55.34    2.47
   6   3   3   54.29    2.83
  -6   3  -4  258.02    6.66
   6   3   4  257.02    6.84
   6   3   4  239.04    6.63
  -6   3  -4  269.73    6.72
   6   3   4  249.57    7.00
  -6   3  -5  148.29    4.62
  -6   3  -5  137.29    4.29
   6   3   5  138.28    4.36
   6   3   5  133.19    4.51
   6   3   5  146.89    4.64
   6   3   6    5.36    0.73
  -6   3  -6    7.49    0.83
  -6   3  -6    6.11    0.77
  -6   3  -6    6.29    0.71
   6   3   6    6.72    0.76
   6   3   7    3.34    0.47
  -6   3  -7    4.00    0.54
  -6   4   7   22.17    1.31
   6   4  -7   22.83    1.52
  -6   4   7   21.76    1.15
   6   4  -7   22.94    1.43
  -6   4   7   24.06    1.31
  -6   4   6   27.87    1.68
   6   4  -6   27.27    1.91
  -6   4   6   25.87    1.47
   6   4  -6   25.67    1.82
   6   4  -6   24.86    1.47
  -6   4   6   25.90    1.51
  -6   4   5   42.53    2.23
   6   4  -5   36.74    2.39
   6   4  -5   40.38    2.51
  -6   4   5   40.60    2.00
  -6   4   4   20.38    1.56
   6   4  -4   20.63    1.79
   6   4  -4   22.17    1.92
  -6   4   4   19.45    1.44
   6   4  -4   19.77    1.78
  -6   4   3    1.98    0.53
   6   4  -3    2.22    0.63
   6   4  -3    1.58    0.58
  -6   4   3    1.28    0.43
   6   4  -3    2.58    0.73
   6   4  -2  118.66    4.74
   6   4  -2  111.36    4.32
  -6   4   2  115.59    4.08
   6   4  -2  120.60    4.75
  -6   4   1  158.90    4.36
   6   4  -1  145.68    5.29
   6   4  -1  137.05    4.92
  -6   4   1  145.88    5.11
   6   4  -1  139.62    4.76
  -6   4   1  144.91    4.64
   6   4   0   60.36    3.14
   6   4   0   59.32    2.97
  -6   4   0   59.35    2.92
   6   4   0   58.99    2.83
  -6   4   0   64.19    2.73
   6   4   1    9.93    1.16
   6   4   1    9.90    1.12
  -6   4  -1    9.52    0.98
   6   4   1    9.41    1.13
   6   4   2  300.97    7.79
   6   4   2  291.39    7.62
  -6   4  -2  312.92    7.28
   6   4   2  284.75    7.82
   6   4   3   18.03    1.43
   6   4   3   16.14    1.39
  -6   4  -3   16.86    1.29
  -6   4  -3   16.82    1.27
   6   4   3   16.75    1.48
  -6   4  -4   21.47    1.43
   6   4   4   20.15    1.47
   6   4   4   18.09    1.48
  -6   4  -5   84.91    3.03
  -6   4  -5   86.74    2.83
   6   4   5   82.64    3.10
  -6   4  -6  166.09    4.29
  -6   4  -6  160.95    4.09
   6   4   6  162.08    4.28
   6   4   6  165.77    4.30
  -6   5   7    2.12    0.32
   6   5  -7    3.10    0.43
  -6   5   6   16.99    1.11
   6   5  -6   17.52    1.24
  -6   5   6   17.05    1.03
   6   5  -6   17.18    1.31
   6   5  -6   16.65    1.08
  -6   5   6   16.76    1.00
  -6   5   5   63.96    2.51
   6   5  -5   66.38    2.80
  -6   5   5   67.69    2.46
   6   5  -5   63.99    2.99
   6   5  -5   60.36    2.61
  -6   5   5   63.11    2.26
  -6   5   4   64.09    2.58
   6   5  -4   64.59    3.16
   6   5  -3   60.37    3.11
  -6   5   3   56.26    2.60
   6   5  -3   61.99    3.22
   6   5  -2    3.75    0.81
   6   5  -2    3.33    0.70
   6   5  -2    3.66    0.75
  -6   5   2    3.18    0.63
   6   5  -2    3.69    0.84
   6   5  -1   29.06    2.07
   6   5  -1   24.87    1.83
   6   5  -1   25.98    1.86
  -6   5   1   28.36    1.75
   6   5   0  161.44    5.17
   6   5   0  159.12    5.14
  -6   5   0  165.44    4.79
   6   5   1   80.40    3.29
   6   5   1   80.76    3.33
  -6   5  -1   85.48    3.03
   6   5   1   73.34    3.27
   6   5   2   86.55    3.24
   6   5   2   81.93    3.30
  -6   5  -2   84.21    2.93
   6   5   2   80.34    3.36
   6   5   3   71.10    2.91
   6   5   3   70.61    3.00
  -6   5  -4  197.71    4.76
   6   5   4  186.90    5.21
   6   5   5    4.18    0.57
  -6   5  -5    4.78    0.52
   6   5   5    4.17    0.63
  -6   6   5  102.81    2.79
   6   6  -5  109.89    3.40
   6   6  -5  112.70    3.21
  -6   6   4   28.40    1.37
   6   6  -4   28.46    1.73
   6   6  -4   29.33    1.66
   6   6  -3   11.81    1.14
   6   6  -3   11.98    1.10
  -6   6   2   35.25    1.55
   6   6  -2   35.71    2.02
   6   6  -2   34.96    1.99
   6   6  -1    0.96    0.40
   6   6   0   15.17    1.23
   6   6   1   42.75    1.99
   6   6   1   40.31    2.14
   6   6   2  128.64    4.04
   6   6   3   13.03    1.06
   6   6   4   91.87    3.00
   6   6   4  103.28    2.84
   6   7  -4  148.59    3.61
   6   7  -3  159.34    4.05
   6   7  -2    5.72    0.62
   6   7  -1   23.80    1.26
   6   7   0   25.24    1.43
   6   7   1    5.63    0.64
   6   7   2   62.55    2.13
   7  -6  -4   23.68    1.19
  -7  -6   3    0.94    0.35
   7  -6  -3    0.13    0.20
  -7  -6   2   31.82    1.87
   7  -6  -2   32.41    1.63
  -7  -6   1    0.53    0.33
   7  -6  -1    0.64    0.32
  -7  -6   0   43.75    2.01
  -7  -6   0   43.80    2.25
   7  -6   0   49.75    2.05
  -7  -6  -1   30.36    1.70
  -7  -6  -1   30.21    1.71
   7  -6   1   35.47    1.63
   7  -6   1   29.34    1.46
  -7  -6  -2  247.65    5.98
   7  -6   2  253.03    5.55
  -7  -5   5   31.43    1.65
   7  -5  -5   30.39    1.53
  -7  -5   4  103.61    3.53
  -7  -5   4  102.70    3.61
   7  -5  -4  101.44    3.42
  -7  -5   3  184.88    5.22
  -7  -5   3  190.05    5.79
   7  -5  -3  195.77    5.40
  -7  -5   2   52.31    2.85
   7  -5  -2   51.72    2.48
  -7  -5   1   13.66    1.29
  -7  -5   1   13.45    1.44
   7  -5  -1   11.72    1.16
  -7  -5   0   43.33    2.51
  -7  -5   0   46.93    2.67
   7  -5   0   44.99    2.28
  -7  -5  -1   94.42    3.91
  -7  -5  -1   87.52    3.64
   7  -5   1   98.47    3.46
  -7  -5  -2   10.54    1.20
  -7  -5  -2   12.75    1.16
   7  -5   2   10.47    1.01
  -7  -5  -3   44.08    2.30
   7  -5   3   48.59    2.08
   7  -5   3   44.04    1.85
  -7  -5  -4    1.14    0.38
   7  -5   4    1.35    0.34
   7  -5   4    0.88    0.21
   7  -4  -6   50.29    2.17
  -7  -4   6   46.60    2.23
   7  -4  -5   33.11    1.97
  -7  -4   5   31.38    2.00
  -7  -4   5   33.25    1.90
   7  -4  -4    7.87    1.03
  -7  -4   4    5.80    0.91
  -7  -4   4    5.89    0.92
  -7  -4   3   68.17    3.12
  -7  -4   3   68.26    3.40
   7  -4  -3   65.17    2.98
   7  -4  -2   26.18    1.86
  -7  -4   2   26.40    2.12
   7  -4  -2   26.22    1.84
  -7  -4   1  116.57    4.61
   7  -4  -1  116.34    4.41
  -7  -4   1  120.21    4.84
   7  -4  -1  112.81    4.18
  -7  -4   0  164.10    5.87
   7  -4   0  166.76    5.60
  -7  -4   0  166.42    5.83
   7  -4   0  169.94    5.29
  -7  -4  -1  172.03    6.01
   7  -4   1  167.76    5.63
  -7  -4  -1  163.20    5.59
   7  -4   1  170.56    5.26
  -7  -4  -2  212.10    6.76
  -7  -4  -2  199.17    5.99
   7  -4   2  213.93    5.95
  -7  -4  -3   60.65    3.10
  -7  -4  -3   63.70    2.95
   7  -4   3   61.87    2.70
  -7  -4  -4   19.28    1.49
  -7  -4  -4   18.35    1.45
   7  -4   4   21.81    1.44
   7  -4   4   18.75    1.09
  -7  -4  -5   18.55    1.12
  -7  -4  -5   17.36    1.22
   7  -4   5   17.49    1.15
   7  -3  -7   79.28    2.61
  -7  -3   7   78.14    2.94
   7  -3  -6  100.12    3.60
  -7  -3   6  110.16    4.04
  -7  -3   6  104.65    3.41
   7  -3  -5   19.39    1.58
  -7  -3   5   19.96    1.71
  -7  -3   5   19.65    1.60
   7  -3  -4   38.10    2.35
  -7  -3   4   34.83    2.36
   7  -3  -4   36.98    2.19
  -7  -3   4   31.44    2.20
   7  -3  -3  125.34    4.66
   7  -3  -3  124.38    4.65
  -7  -3   3  120.02    4.79
   7  -3  -2  273.23    7.80
  -7  -3   2  280.33    8.07
   7  -3  -2  257.55    7.25
   7  -3  -1    1.00    0.53
  -7  -3   1    1.08    0.50
   7  -3  -1    1.31    0.49
   7  -3   0   -0.26    0.45
  -7  -3   0   -0.20    0.45
   7  -3   0    0.70    0.39
   7  -3   1    5.79    1.01
  -7  -3  -1    6.25    1.01
   7  -3   1    6.89    0.96
   7  -3   1    6.71    0.97
  -7  -3  -1    4.70    0.91
  -7  -3  -2  265.22    8.09
   7  -3   2  263.06    7.79
  -7  -3  -2  265.64    7.77
   7  -3   2  272.65    7.25
  -7  -3  -3   42.56    2.67
  -7  -3  -3   38.93    2.54
  -7  -3  -3   39.36    2.56
   7  -3   3   39.63    2.26
  -7  -3  -4   91.05    3.72
  -7  -3  -4   89.21    3.84
   7  -3   4   86.61    3.36
  -7  -3  -5   20.99    1.38
  -7  -3  -5   21.84    1.63
   7  -3   5   18.57    1.34
  -7  -3  -6   65.80    2.47
   7  -2  -7   41.41    1.85
  -7  -2   7   40.26    2.10
   7  -2  -6   11.87    1.15
  -7  -2   6   10.61    1.06
  -7  -2   6   12.03    1.26
   7  -2  -5    6.90    0.96
   7  -2  -5    8.04    1.04
  -7  -2   5    9.79    1.13
  -7  -2   5    9.29    1.18
   7  -2  -4   50.32    2.71
   7  -2  -4   47.25    2.78
  -7  -2   4   54.12    2.89
  -7  -2   4   49.44    2.84
  -7  -2   3   46.67    2.50
   7  -2  -3   52.78    2.76
   7  -2  -3   52.35    3.04
  -7  -2   3   51.80    2.90
  -7  -2   3   53.03    2.88
   7  -2  -2   37.84    2.56
  -7  -2   2   38.32    2.48
   7  -2  -2   34.04    2.12
   7  -2  -1   93.68    4.20
  -7  -2   1   88.58    3.92
   7  -2  -1   89.62    3.62
   7  -2   0  202.84    6.68
  -7  -2   0  197.33    6.31
   7  -2   0  208.99    6.18
   7  -2   0  195.67    5.92
  -7  -2   0  198.61    6.01
  -7  -2   0  210.00    5.90
   7  -2   1   55.65    3.16
  -7  -2  -1   55.33    2.94
  -7  -2  -1   58.49    2.79
   7  -2   1   52.85    2.87
   7  -2   1   62.24    2.91
  -7  -2  -1   53.71    2.89
  -7  -2  -1   54.78    2.75
   7  -2   2  102.83    4.39
  -7  -2  -2   93.01    3.83
   7  -2   2   99.84    4.10
   7  -2   2  105.71    3.97
  -7  -2  -2  100.77    4.19
  -7  -2  -2   99.22    3.97
  -7  -2  -3   63.52    3.35
   7  -2   3   57.96    3.11
   7  -2   3   57.90    2.99
   7  -2   3   61.45    2.91
  -7  -2  -3   55.57    3.07
  -7  -2  -4  393.35    9.85
   7  -2   4  400.33    9.52
  -7  -2  -4  396.63   10.05
  -7  -2  -5    2.17    0.52
  -7  -2  -5    2.35    0.61
   7  -2   5    1.76    0.48
   7  -2   5    1.57    0.41
  -7  -2  -6    9.55    1.00
   7  -2   6    9.54    0.79
  -7  -1   8   23.78    1.34
   7  -1  -7   13.98    1.09
  -7  -1   7   12.91    0.98
  -7  -1   7   14.50    1.27
   7  -1  -6   16.22    1.45
  -7  -1   6   15.89    1.33
  -7  -1   6   18.00    1.57
   7  -1  -5   10.43    1.30
  -7  -1   5    9.63    1.15
  -7  -1   5    9.21    1.19
   7  -1  -4  142.10    5.36
  -7  -1   4  137.08    4.86
  -7  -1   4  136.50    4.97
  -7  -1   4  139.55    4.50
  -7  -1   3  379.28    8.99
   7  -1  -3  385.73   10.33
  -7  -1   3  379.88    9.63
  -7  -1   3  373.08    9.21
  -7  -1   3  401.76    9.70
  -7  -1   2  286.25    7.64
  -7  -1   2  281.52    7.38
   7  -1  -2  290.07    8.47
  -7  -1   2  280.23    7.72
  -7  -1   1   64.10    3.08
  -7  -1   1   65.65    3.03
   7  -1  -1   65.11    3.48
  -7  -1   1   64.95    3.15
   7  -1  -1   70.17    3.18
   7  -1  -1   65.38    2.90
  -7  -1   1   65.48    2.81
  -7  -1   1   67.76    2.86
  -7  -1   0  242.76    6.87
  -7  -1   0  233.22    6.73
   7  -1   0  232.61    7.33
  -7  -1   0  234.95    6.80
   7  -1   0  244.01    7.02
   7  -1   0  246.77    6.54
  -7  -1   0  243.70    6.63
  -7  -1   0  233.51    6.53
  -7  -1  -1  193.79    6.03
   7  -1   1  193.60    6.51
  -7  -1  -1  197.49    5.76
   7  -1   1  200.86    6.34
   7  -1   1  212.31    5.91
  -7  -1  -1  206.34    6.09
  -7  -1  -1  196.82    5.92
   7  -1   2  218.17    6.89
  -7  -1  -2  211.51    6.30
   7  -1   2  222.62    6.85
   7  -1   2  232.54    6.39
  -7  -1  -2  224.73    6.62
  -7  -1  -2  226.32    6.52
   7  -1   3  220.63    6.85
  -7  -1  -3  234.78    6.22
  -7  -1  -3  211.46    6.47
   7  -1   3  227.91    6.84
   7  -1   3  234.99    6.48
  -7  -1  -3  221.85    6.74
  -7  -1  -3  227.93    6.62
  -7  -1  -4   18.81    1.62
  -7  -1  -4   14.15    1.25
  -7  -1  -4   14.50    1.41
   7  -1   4   15.09    1.43
   7  -1   4   15.90    1.42
  -7  -1  -4   16.03    1.55
  -7  -1  -4   15.14    1.42
   7  -1   4   15.40    1.34
  -7  -1  -5   13.06    1.17
   7  -1   5   11.98    1.16
   7  -1   5   13.09    1.16
  -7  -1  -6   30.39    1.89
   7  -1   6   29.50    1.57
  -7   0   8    4.27    0.59
   7   0  -7    5.22    0.75
  -7   0   7    5.04    0.64
  -7   0   7    6.22    0.84
  -7   0   6    5.29    0.82
   7   0  -6    4.57    0.84
  -7   0   6    3.99    0.67
  -7   0   6    4.26    0.79
  -7   0   5   87.11    3.19
  -7   0   5   84.86    3.59
   7   0  -5   86.06    4.01
  -7   0   5   86.21    3.46
  -7   0   5   79.76    3.57
  -7   0   4   -0.10    0.27
  -7   0   4    0.14    0.39
  -7   0   4   -0.05    0.31
   7   0  -4    0.73    0.48
  -7   0   4    0.32    0.36
  -7   0   4    0.27    0.39
  -7   0   3   42.30    2.34
  -7   0   3   41.86    2.49
  -7   0   3   46.68    2.28
   7   0  -3   43.10    2.84
  -7   0   3   44.10    2.45
  -7   0   2  142.24    4.81
  -7   0   2  145.84    4.97
  -7   0   2  148.64    4.65
   7   0  -2  144.85    5.53
  -7   0   2  148.85    4.89
   7   0  -2  157.92    5.04
  -7   0   2  146.55    4.30
  -7   0   1  247.28    6.86
  -7   0   1  254.08    6.72
   7   0  -1  239.79    7.51
  -7   0   1  245.40    6.80
   7   0  -1  255.12    7.15
  -7   0   1  250.48    6.40
  -7   0   0  777.71   16.05
  -7   0   0  749.03   15.78
   7   0   0  777.58   16.87
  -7   0   0  780.17   15.90
   7   0   0  786.18   16.50
  -7   0   0  735.13   15.45
  -7   0  -1  474.50   11.08
  -7   0  -1  470.32   10.96
   7   0   1  479.01   11.72
  -7   0  -1  506.17   10.86
   7   0   1  487.75   11.65
  -7   0  -1  495.59   10.98
  -7   0  -1  462.35   10.94
  -7   0  -2  764.32   16.43
   7   0   2  805.02   17.17
  -7   0  -2  797.56   16.37
   7   0   2  798.47   17.12
  -7   0  -2  819.12   16.58
  -7   0  -2  794.54   16.59
   7   0   3   29.74    2.09
  -7   0  -3   27.00    1.81
  -7   0  -3   28.07    1.93
   7   0   3   27.75    2.07
  -7   0  -3   29.65    2.01
  -7   0  -3   26.48    1.91
   7   0   3   28.25    1.87
  -7   0  -4   38.01    1.95
  -7   0  -4   34.56    2.05
  -7   0  -4   36.16    2.20
   7   0   4   34.05    2.19
   7   0   4   40.04    2.18
  -7   0  -4   37.36    2.28
  -7   0  -4   40.08    2.29
   7   0   4   37.23    2.15
  -7   0  -5   69.20    2.72
  -7   0  -5   69.91    2.93
  -7   0  -5   70.02    3.05
   7   0   5   74.65    3.02
   7   0   5   76.39    3.02
  -7   0  -6   14.63    1.05
  -7   0  -6   13.76    1.10
   7   0   6   15.14    1.13
   7   1  -8   23.48    1.23
  -7   1   8   25.17    1.34
  -7   1   7   12.21    1.06
   7   1  -7   11.75    1.15
  -7   1   7   12.66    0.97
  -7   1   7   13.63    1.17
  -7   1   6   14.34    1.29
  -7   1   6   17.14    1.17
   7   1  -6   15.86    1.54
  -7   1   6   15.76    1.24
  -7   1   6   13.56    1.31
  -7   1   5    9.91    1.17
  -7   1   5   12.39    1.13
   7   1  -5   10.20    1.33
  -7   1   5    9.61    1.05
   7   1  -5    7.92    1.01
  -7   1   4  139.87    4.83
  -7   1   4  140.63    4.17
   7   1  -4  137.42    5.36
  -7   1   4  133.51    4.53
   7   1  -4  136.64    5.01
  -7   1   3  394.67    9.65
  -7   1   3  399.43    9.01
   7   1  -3  395.37   10.52
  -7   1   3  379.17    9.31
   7   1  -3  401.69   10.26
   7   1  -3  394.84    9.48
  -7   1   2  289.02    7.55
  -7   1   2  289.99    7.62
  -7   1   2  295.28    7.26
   7   1  -2  280.54    8.34
  -7   1   2  283.68    7.40
   7   1  -2  292.92    7.80
  -7   1   2  292.57    6.96
  -7   1   1   68.03    2.97
  -7   1   1   66.96    2.84
   7   1  -1   60.48    3.27
  -7   1   1   64.91    2.86
   7   1  -1   66.73    3.20
  -7   1   1   61.87    2.89
  -7   1   1   66.20    2.70
  -7   1   0  234.84    6.58
  -7   1   0  246.18    6.50
   7   1   0  246.62    7.28
   7   1   0  252.73    7.18
  -7   1   0  238.80    6.30
  -7   1  -1  202.24    5.91
  -7   1  -1  201.93    5.78
   7   1   1  211.19    6.42
   7   1   1  208.50    6.42
  -7   1  -1  204.69    5.71
  -7   1  -2  214.57    6.13
   7   1   2  223.63    6.58
  -7   1  -2  237.87    6.32
   7   1   2  216.94    6.71
  -7   1  -2  221.26    6.37
  -7   1  -2  216.78    6.15
   7   1   2  228.04    6.33
  -7   1  -3  233.73    6.41
   7   1   3  225.95    6.76
  -7   1  -3  228.92    6.47
  -7   1  -3  226.37    6.48
   7   1   3  232.07    6.48
  -7   1  -4   15.33    1.22
  -7   1  -4   18.70    1.48
  -7   1  -4   16.19    1.41
   7   1   4   16.59    1.47
  -7   1  -4   16.23    1.42
  -7   1  -4   16.69    1.42
   7   1   4   16.99    1.42
  -7   1  -5   12.23    1.05
  -7   1  -5   12.02    1.14
  -7   1  -5   13.19    1.20
   7   1   5   12.65    1.12
   7   1   5   10.83    1.07
  -7   1  -6   26.50    1.45
  -7   1  -6   28.04    1.59
   7   1   6   29.95    1.59
  -7   2   7   40.09    1.88
   7   2  -7   39.19    2.08
  -7   2   7   37.57    1.65
  -7   2   7   40.85    1.94
  -7   2   6   10.54    1.06
   7   2  -6   10.74    1.23
  -7   2   6    9.46    0.93
   7   2  -6   10.27    1.03
  -7   2   5    8.22    1.01
   7   2  -5    9.39    1.24
  -7   2   5    8.17    0.95
   7   2  -5    7.87    1.08
  -7   2   5    8.44    0.94
  -7   2   4   49.38    2.58
   7   2  -4   46.42    2.89
  -7   2   4   46.69    2.38
   7   2  -4   51.09    2.89
   7   2  -4   48.15    2.44
  -7   2   3   54.04    2.68
   7   2  -3   49.00    2.95
  -7   2   3   50.70    2.48
   7   2  -3   49.62    2.96
   7   2  -3   49.96    2.64
  -7   2   3   52.49    2.24
  -7   2   2   37.32    2.14
   7   2  -2   33.74    2.40
  -7   2   2   38.26    2.09
   7   2  -2   41.12    2.65
   7   2  -2   38.29    2.36
  -7   2   2   39.44    2.00
  -7   2   1   88.49    3.51
   7   2  -1   93.80    4.00
  -7   2   1   91.95    3.35
   7   2  -1   91.73    3.87
  -7   2   1   90.95    3.29
  -7   2   0  203.57    5.83
  -7   2   0  205.32    5.68
   7   2   0  211.87    6.36
   7   2   0  196.58    6.22
  -7   2   0  211.58    5.67
   7   2   0  204.63    5.83
  -7   2  -1   57.32    2.65
  -7   2  -1   58.77    2.63
   7   2   1   55.53    2.95
  -7   2  -1   57.75    2.58
   7   2   1   57.97    2.76
  -7   2  -2  100.38    3.60
   7   2   2  109.70    4.25
  -7   2  -2  105.75    3.91
  -7   2  -2  102.15    3.68
   7   2   2  102.88    3.90
  -7   2  -3   62.47    2.63
  -7   2  -3   63.63    2.80
   7   2   3   56.85    2.89
  -7   2  -3   61.94    2.76
  -7   2  -3   60.78    2.82
   7   2   3   58.00    2.81
  -7   2  -4  419.57    9.48
  -7   2  -4  404.68    9.30
   7   2   4  377.74    9.28
  -7   2  -4  408.71    9.32
   7   2   4  397.44    9.37
   7   2   5    1.44    0.37
  -7   2  -5    1.61    0.43
  -7   2  -5    1.60    0.45
  -7   2  -5    1.44    0.43
   7   2   5    1.71    0.37
  -7   2  -6    9.92    0.83
  -7   2  -6   10.17    0.89
   7   2   6    9.95    0.86
  -7   3   7   76.18    2.16
  -7   3   7   81.49    2.61
   7   3  -7   81.77    2.88
  -7   3   7   76.28    2.34
   7   3  -7   74.53    2.37
  -7   3   7   78.55    2.53
  -7   3   6  105.07    3.48
   7   3  -6  103.95    3.85
  -7   3   6  105.26    3.26
   7   3  -6  102.84    3.56
  -7   3   6   99.66    3.22
  -7   3   5   19.97    1.47
   7   3  -5   20.00    1.68
  -7   3   5   20.13    1.39
   7   3  -5   19.66    1.64
   7   3  -5   20.77    1.38
  -7   3   5   18.94    1.30
  -7   3   4   35.22    2.05
   7   3  -4   33.35    2.30
  -7   3   4   35.73    1.93
   7   3  -4   31.56    2.23
   7   3  -4   34.84    2.05
  -7   3   3  124.45    4.18
   7   3  -3  121.62    4.69
  -7   3   3  124.90    4.06
   7   3  -3  124.63    4.86
   7   3  -3  122.17    4.41
  -7   3   3  119.19    3.80
   7   3  -2  272.14    7.66
  -7   3   2  278.31    6.86
   7   3  -2  274.78    8.01
   7   3  -2  271.64    7.54
  -7   3   2  274.65    6.82
   7   3  -1    1.20    0.42
  -7   3   1    1.16    0.41
   7   3  -1    1.46    0.56
  -7   3   1    1.17    0.40
   7   3   0    0.32    0.29
  -7   3   0    0.26    0.36
   7   3   0    0.44    0.42
  -7   3   0    0.17    0.25
   7   3   1    7.71    0.98
  -7   3  -1    5.16    0.76
   7   3   1    5.29    0.87
  -7   3  -1    6.81    0.85
  -7   3  -2  264.23    6.49
   7   3   2  261.86    7.17
  -7   3  -2  273.09    6.95
  -7   3  -2  253.10    6.58
   7   3   2  254.03    6.97
  -7   3  -3   42.86    2.16
   7   3   3   39.77    2.22
  -7   3  -3   37.59    2.05
  -7   3  -3   42.08    2.12
   7   3   3   39.66    2.21
  -7   3  -4   89.95    3.18
   7   3   4   85.76    3.11
  -7   3  -4   90.26    3.09
   7   3   4   88.67    3.28
  -7   3  -5   20.98    1.28
  -7   3  -5   22.11    1.38
  -7   3  -5   20.52    1.28
   7   3   5   21.97    1.39
  -7   3  -6   64.62    2.15
  -7   3  -6   69.01    2.19
   7   3   6   65.29    2.18
  -7   4   6   46.75    1.91
   7   4  -6   48.22    2.16
  -7   4   6   46.47    1.82
   7   4  -6   50.73    2.16
  -7   4   5   32.87    1.73
   7   4  -5   32.99    1.94
  -7   4   5   32.69    1.64
   7   4  -5   32.43    1.98
   7   4  -5   32.97    1.70
  -7   4   4    6.09    0.75
   7   4  -4    5.33    0.82
  -7   4   4    6.65    0.76
   7   4  -4    6.37    0.97
   7   4  -4    5.84    0.80
  -7   4   3   69.51    2.68
   7   4  -3   69.38    3.04
  -7   4   3   68.05    2.68
   7   4  -3   66.30    3.26
   7   4  -3   66.42    3.00
  -7   4   3   68.71    2.67
  -7   4   2   28.39    1.61
   7   4  -2   29.05    2.12
   7   4  -2   26.99    1.89
  -7   4   2   27.68    1.66
   7   4  -1  114.77    4.26
  -7   4   1  120.70    3.84
   7   4  -1  107.77    3.88
  -7   4   0  177.51    4.83
   7   4   0  173.94    5.43
  -7   4   0  175.11    4.89
  -7   4  -1  181.90    4.83
   7   4   1  168.41    5.32
  -7   4  -1  184.35    4.99
   7   4   1  168.53    5.22
   7   4   2  198.92    5.77
  -7   4  -2  217.88    5.63
   7   4   2  209.17    5.87
  -7   4  -3   65.73    2.54
   7   4   3   60.21    2.51
  -7   4  -3   62.22    2.39
   7   4   3   61.01    2.64
  -7   4  -4   20.31    1.30
  -7   4  -4   21.33    1.27
   7   4   4   19.18    1.29
   7   4   4   21.78    1.39
  -7   4  -5   19.12    1.08
  -7   4  -5   19.55    1.09
   7   4   5   17.63    1.09
  -7   5   5   27.99    1.25
  -7   5   5   30.01    1.35
   7   5  -5   33.86    1.73
   7   5  -5   31.65    1.47
  -7   5   4  100.52    3.00
   7   5  -4  105.73    3.68
   7   5  -4  101.21    3.34
  -7   5   3  193.38    4.80
   7   5  -3  200.11    5.75
   7   5  -3  193.78    5.41
  -7   5   2   51.34    1.98
   7   5  -2   51.59    2.47
  -7   5   1   10.89    0.90
   7   5  -1   11.89    1.16
   7   5  -1    9.90    1.00
   7   5   0   42.20    2.20
   7   5   0   42.39    2.14
  -7   5  -1  103.27    2.99
   7   5   1   96.21    3.40
   7   5   1   98.57    3.47
   7   5   2   10.63    0.92
  -7   5  -2   10.84    0.83
   7   5   2   10.93    1.01
  -7   5  -3   47.56    1.85
   7   5   3   50.72    2.12
   7   5   4    1.29    0.32
  -7   5  -4    1.15    0.26
   7   5   4    1.16    0.31
   7   6  -4   22.46    1.16
   7   6  -3   -0.22    0.21
  -7   6   3    0.23    0.16
   7   6  -3    0.34    0.24
   7   6  -2   32.46    1.63
  -7   6   2   29.13    1.18
   7   6  -2   28.62    1.43
   7   6  -1    0.57    0.29
   7   6  -1    0.23    0.24
  -7   6   0   46.34    1.59
   7   6   0   46.40    1.93
   7   6   0   47.38    2.01
   7   6   1   31.67    1.38
   7   6   1   29.76    1.52
   7   6   2  247.97    5.65
  -8  -5   3   25.64    1.46
   8  -5  -3   25.25    1.28
  -8  -5   2   16.81    1.28
   8  -5  -2   18.40    1.14
  -8  -5   1   27.05    1.65
   8  -5  -1   28.13    1.46
  -8  -5   0   61.38    2.40
  -8  -5   0   61.46    2.50
   8  -5   0   68.78    2.39
  -8  -5  -1    5.22    0.68
  -8  -5  -1    5.82    0.64
   8  -5   1    7.14    0.70
  -8  -5  -2  173.52    4.43
   8  -5   2  181.94    4.18
  -8  -4   4   17.74    1.31
   8  -4  -4   16.21    1.07
  -8  -4   3   41.62    2.27
   8  -4  -3   40.99    1.93
   8  -4  -2   48.05    2.21
  -8  -4   2   49.22    2.56
   8  -4  -2   47.87    2.18
  -8  -4   1   14.23    1.27
   8  -4  -1   13.80    1.22
  -8  -4   1   14.67    1.38
   8  -4  -1   13.50    1.13
  -8  -4   0   81.38    3.42
  -8  -4   0   81.53    3.33
   8  -4   0   89.29    3.12
  -8  -4  -1   84.07    3.47
  -8  -4  -1   87.77    3.20
   8  -4   1   91.17    3.11
  -8  -4  -2   59.25    2.69
   8  -4   2   58.19    2.31
  -8  -4  -3   70.81    2.67
   8  -4   3   71.25    2.43
   8  -4   3   65.21    2.01
  -8  -3   5   26.93    1.47
  -8  -3   5   29.60    1.67
   8  -3  -5   27.70    1.34
   8  -3  -4   20.56    1.37
  -8  -3   4   21.52    1.59
   8  -3  -4   17.26    1.20
   8  -3  -3   18.90    1.48
  -8  -3   3   19.15    1.61
   8  -3  -3   18.80    1.34
  -8  -3   2   48.16    2.49
   8  -3  -2   44.10    2.47
  -8  -3   2   45.07    2.60
   8  -3  -2   45.42    2.23
  -8  -3   1   21.84    1.78
   8  -3  -1   24.47    1.84
  -8  -3   1   23.47    1.85
   8  -3  -1   22.48    1.53
  -8  -3   0  109.32    4.33
   8  -3   0  107.63    4.17
  -8  -3   0  100.08    3.97
   8  -3   0  108.59    3.71
  -8  -3  -1   19.53    1.73
   8  -3   1   18.83    1.63
  -8  -3  -1   19.22    1.49
   8  -3   1   21.52    1.48
  -8  -3  -2    7.42    1.05
   8  -3   2    8.44    0.90
  -8  -3  -3   22.55    1.62
  -8  -3  -3   24.09    1.54
   8  -3   3   22.27    1.39
  -8  -3  -4  106.20    3.24
  -8  -3  -4   96.84    3.15
   8  -3   4  102.49    3.09
  -8  -2   6   32.42    1.64
  -8  -2   6   36.31    1.65
  -8  -2   5   56.77    2.47
   8  -2  -5   57.80    2.45
  -8  -2   5   54.84    2.52
   8  -2  -4    2.17    0.57
  -8  -2   4    2.54    0.62
   8  -2  -3   47.15    2.64
  -8  -2   3   48.63    2.67
   8  -2  -3   46.36    2.17
   8  -2  -2   84.51    3.78
  -8  -2   2   81.74    3.68
   8  -2  -2   87.92    3.22
   8  -2  -1   22.15    1.86
  -8  -2   1   24.37    1.90
   8  -2  -1   24.19    1.60
   8  -2   0    5.93    1.01
  -8  -2   0    5.25    0.90
   8  -2   0    6.46    0.89
   8  -2   0    6.84    0.85
  -8  -2   0    5.67    0.79
   8  -2   1  134.77    4.87
   8  -2   1  130.92    4.45
   8  -2   1  141.84    4.34
  -8  -2  -1  129.56    4.64
  -8  -2  -1  123.91    4.22
  -8  -2  -2   32.30    2.20
   8  -2   2   29.29    2.02
   8  -2   2   28.65    1.86
   8  -2   2   29.77    1.77
  -8  -2  -3  128.19    4.47
   8  -2   3  129.27    4.00
  -8  -2  -4    7.08    0.82
  -8  -2  -4    6.82    0.87
   8  -2   4    5.24    0.65
  -8  -2  -5   25.13    1.41
   8  -1  -6    8.67    0.85
  -8  -1   6    7.83    0.82
  -8  -1   6    8.28    0.86
   8  -1  -5  175.38    5.32
  -8  -1   5  177.86    5.18
  -8  -1   5  174.21    5.08
  -8  -1   4  223.89    5.86
   8  -1  -4  220.07    6.61
  -8  -1   4  214.00    6.25
  -8  -1   4  228.16    6.14
  -8  -1   3   47.86    2.43
   8  -1  -3   50.44    2.87
  -8  -1   3   47.19    2.61
  -8  -1   2    4.81    0.82
  -8  -1   2    3.95    0.73
   8  -1  -2    6.79    1.06
  -8  -1   2    5.85    0.92
   8  -1  -1  222.79    6.88
  -8  -1   1  213.94    6.40
   8  -1  -1  221.04    6.25
  -8  -1   1  218.03    5.87
   8  -1   0    2.40    0.69
  -8  -1   0    1.38    0.43
   8  -1   0    1.94    0.65
  -8  -1   0    1.63    0.48
  -8  -1   0    1.85    0.53
   8  -1   1   41.83    2.55
  -8  -1  -1   42.56    2.20
   8  -1   1   39.98    2.38
  -8  -1  -1   43.24    2.42
  -8  -1  -1   41.33    2.26
   8  -1   2  114.28    4.31
  -8  -1  -2  109.54    3.92
   8  -1   2  113.97    4.22
   8  -1   2  115.05    3.75
  -8  -1  -2  116.65    4.27
  -8  -1  -2  113.37    4.02
  -8  -1  -3   80.69    3.44
   8  -1   3   86.44    3.40
   8  -1   3   84.86    3.04
  -8  -1  -3   80.19    3.22
  -8  -1  -4  221.59    5.63
   8  -1   4  197.98    5.14
  -8  -1  -5   66.65    2.65
   8   0  -6   64.27    2.67
  -8   0   6   63.83    2.46
  -8   0   6   63.93    2.51
  -8   0   5   10.89    0.93
   8   0  -5   10.62    1.19
  -8   0   5   11.43    1.11
  -8   0   5   10.98    1.06
  -8   0   4  206.25    5.63
   8   0  -4  207.93    6.44
  -8   0   4  202.78    5.90
  -8   0   3  111.84    4.02
  -8   0   3  114.28    3.86
   8   0  -3  116.01    4.62
  -8   0   3  121.03    4.29
  -8   0   2    1.57    0.53
  -8   0   2    0.59    0.39
   8   0  -2    1.14    0.58
  -8   0   2    0.78    0.49
   8   0  -2    1.84    0.52
  -8   0   2    1.19    0.45
  -8   0   1   89.39    3.64
  -8   0   1   86.03    3.50
   8   0  -1   88.33    3.96
  -8   0   1   87.13    3.54
   8   0  -1   93.38    3.75
  -8   0   1   90.44    3.38
  -8   0   1   91.05    3.42
  -8   0   0  385.52    9.39
  -8   0   0  380.05    9.31
   8   0   0  399.70    9.96
  -8   0   0  395.51    9.19
  -8   0   0  381.50    8.75
   8   0   0  377.03    9.55
  -8   0   0  381.00    9.08
  -8   0   0  373.35    9.05
  -8   0  -1   36.61    2.19
   8   0   1   37.38    2.36
  -8   0  -1   36.85    2.03
   8   0   1   40.47    2.44
  -8   0  -1   36.94    2.18
  -8   0  -1   36.94    2.14
   8   0   2  188.30    5.74
  -8   0  -2  192.26    5.17
  -8   0  -2  180.39    5.38
   8   0   2  192.29    5.88
  -8   0  -2  191.77    5.72
  -8   0  -2  189.38    5.57
  -8   0  -3  202.58    5.31
  -8   0  -3  190.53    5.54
   8   0   3  202.86    5.82
  -8   0  -3  201.50    5.66
  -8   0  -4  213.85    5.44
  -8   0  -4  212.89    5.72
   8   0   4  216.86    5.74
   8   0   4  224.97    5.40
  -8   0  -5   17.75    1.07
   8   0   5   17.05    1.00
  -8   1   6    8.59    0.68
   8   1  -6    8.59    0.94
  -8   1   6    8.74    0.82
  -8   1   6    7.81    0.78
  -8   1   5  174.72    4.70
  -8   1   5  175.30    5.10
   8   1  -5  182.71    5.54
  -8   1   5  172.70    4.95
  -8   1   4  217.69    5.87
  -8   1   4  222.64    6.15
  -8   1   4  216.43    5.50
   8   1  -4  227.48    6.73
  -8   1   4  219.41    6.02
  -8   1   3   48.79    2.46
  -8   1   3   48.79    2.29
   8   1  -3   47.72    2.79
  -8   1   3   47.22    2.43
   8   1  -3   50.27    2.40
  -8   1   2    7.31    0.94
  -8   1   2    5.40    0.80
   8   1  -2    4.78    0.89
  -8   1   2    6.09    0.86
   8   1  -2    5.11    0.82
  -8   1   2    4.95    0.70
  -8   1   1  218.95    6.20
  -8   1   1  218.69    6.04
   8   1  -1  212.60    6.59
  -8   1   1  220.07    6.02
   8   1  -1  219.49    6.44
  -8   1   1  210.14    5.73
  -8   1   0    2.62    0.65
  -8   1   0    1.70    0.51
   8   1   0    2.45    0.66
  -8   1   0    2.00    0.49
   8   1   0    1.57    0.57
  -8   1   0    1.33    0.45
  -8   1   0    1.58    0.49
  -8   1  -1   39.48    2.19
   8   1   1   41.21    2.35
  -8   1  -1   43.21    2.17
   8   1   1   41.59    2.46
  -8   1  -1   41.69    2.23
  -8   1  -1   40.67    2.25
   8   1   2  126.18    4.12
  -8   1  -2  116.46    3.94
   8   1   2  113.58    4.24
  -8   1  -2  117.37    4.10
  -8   1  -2  119.31    4.09
  -8   1  -3   82.77    3.03
  -8   1  -3   81.77    3.14
   8   1   3   79.22    3.25
  -8   1  -3   83.97    3.21
   8   1   3   82.28    2.97
  -8   1  -4  212.62    5.41
  -8   1  -4  209.01    5.55
   8   1   4  212.99    5.52
  -8   1  -4  208.47    5.48
   8   1   4  216.54    5.33
  -8   1  -5   64.68    2.25
   8   1   5   63.45    2.15
  -8   2   6   40.17    1.54
  -8   2   6   40.55    1.81
   8   2  -6   35.58    1.86
  -8   2   6   38.53    1.70
  -8   2   5   56.41    2.25
  -8   2   5   58.60    2.45
   8   2  -5   55.52    2.66
  -8   2   5   54.36    2.30
  -8   2   4    2.15    0.48
  -8   2   4    2.34    0.54
  -8   2   4    2.50    0.46
   8   2  -4    2.45    0.63
  -8   2   4    2.43    0.54
   8   2  -4    2.06    0.45
  -8   2   3   46.13    2.32
  -8   2   3   48.10    2.33
  -8   2   3   47.50    2.16
   8   2  -3   45.35    2.61
  -8   2   3   48.01    2.33
   8   2  -3   46.55    2.34
  -8   2   2   85.11    3.30
  -8   2   2   85.77    3.15
   8   2  -2   83.96    3.62
  -8   2   2   82.40    3.15
   8   2  -2   79.62    3.35
  -8   2   2   79.78    2.92
  -8   2   1   24.50    1.67
  -8   2   1   26.74    1.69
   8   2  -1   25.54    1.84
  -8   2   1   25.89    1.60
   8   2  -1   23.26    1.76
  -8   2   1   24.97    1.57
  -8   2   0    5.08    0.79
  -8   2   0    6.25    0.83
   8   2   0    6.95    0.90
   8   2   0    5.24    0.87
  -8   2   0    5.44    0.76
  -8   2  -1  138.00    4.23
  -8   2  -1  126.71    4.14
   8   2   1  132.77    4.62
  -8   2  -1  133.89    4.25
  -8   2  -1  131.83    4.32
  -8   2  -2   28.92    1.70
  -8   2  -2   29.42    1.73
   8   2   2   28.87    1.90
  -8   2  -2   30.57    1.82
   8   2   2   32.09    1.75
  -8   2  -3  130.32    3.61
  -8   2  -3  130.10    3.97
  -8   2  -3  126.25    3.95
   8   2   3  122.50    4.06
  -8   2  -3  130.51    4.03
   8   2   3  130.83    3.91
  -8   2  -4    6.86    0.65
  -8   2  -4    7.26    0.77
  -8   2  -4    6.92    0.76
   8   2   4    7.03    0.73
  -8   2  -4    6.97    0.73
   8   2   4    6.16    0.68
  -8   2  -5   25.36    1.25
   8   2   5   24.08    1.16
  -8   3   6   16.62    0.97
   8   3  -6   16.13    1.05
  -8   3   6   16.10    0.94
  -8   3   5   29.72    1.47
  -8   3   5   29.51    1.51
  -8   3   5   30.62    1.27
   8   3  -5   28.96    1.68
  -8   3   5   30.45    1.52
  -8   3   4   20.24    1.34
  -8   3   4   21.45    1.34
  -8   3   4   20.07    1.19
   8   3  -4   21.46    1.53
  -8   3   4   18.45    1.26
   8   3  -4   19.41    1.28
  -8   3   3   19.31    1.38
  -8   3   3   19.60    1.28
   8   3  -3   19.30    1.49
  -8   3   3   18.94    1.31
   8   3  -3   19.44    1.42
  -8   3   2   44.61    2.19
  -8   3   2   45.49    2.10
   8   3  -2   41.73    2.22
  -8   3   2   44.79    2.05
   8   3  -2   46.87    2.38
  -8   3   1   22.61    1.51
  -8   3   1   24.97    1.54
   8   3  -1   22.93    1.68
  -8   3   0  111.21    3.60
  -8   3   0  112.37    3.62
   8   3   0  109.84    4.00
  -8   3  -1   19.54    1.32
   8   3   1   21.02    1.57
  -8   3  -1   20.46    1.43
   8   3   1   21.17    1.39
  -8   3  -2    7.97    0.78
  -8   3  -2    8.21    0.86
   8   3   2    6.49    0.83
  -8   3  -2    7.63    0.82
   8   3   2    7.76    0.82
  -8   3  -3   24.77    1.42
   8   3   3   23.98    1.42
  -8   3  -3   24.10    1.36
   8   3   3   23.43    1.37
  -8   3  -4  102.27    2.85
  -8   3  -4  111.76    3.17
  -8   3  -4  109.05    3.12
   8   3   4  106.78    3.05
  -8   4   5   31.69    1.32
  -8   4   5   30.09    1.30
  -8   4   4   16.95    1.08
  -8   4   4   16.58    0.97
   8   4  -4   16.78    1.07
  -8   4   4   15.65    1.00
   8   4  -4   16.62    1.08
  -8   4   3   41.22    1.85
  -8   4   3   41.78    1.78
  -8   4   3   41.12    1.74
   8   4  -3   40.90    1.97
  -8   4   2   50.21    2.10
  -8   4   2   53.12    2.11
  -8   4   2   49.42    1.91
   8   4  -2   50.79    2.34
  -8   4   1   14.87    1.06
  -8   4   1   14.29    1.06
   8   4  -1   14.19    1.22
  -8   4   0   86.12    2.82
   8   4   0   86.58    3.21
   8   4   0   84.14    2.84
  -8   4  -1   88.18    2.74
   8   4   1   83.66    3.06
  -8   4  -1   88.91    2.93
   8   4   1   85.16    2.87
  -8   4  -2   62.03    2.24
   8   4   2   57.95    2.26
  -8   4  -2   57.73    2.11
   8   4   2   56.99    2.19
  -8   4  -3   72.12    2.37
  -8   4  -3   74.26    2.34
   8   4   3   72.05    2.35
  -8   5   3   24.02    1.09
  -8   5   3   25.06    1.13
   8   5  -3   26.60    1.33
  -8   5   2   15.53    0.86
  -8   5   2   17.56    0.98
   8   5  -2   17.66    1.15
  -8   5   1   26.49    1.23
   8   5  -1   26.39    1.44
  -8   5   0   59.24    1.92
   8   5   0   64.68    2.32
  -8   5   0   62.19    2.06
   8   5   0   61.42    2.08
   8   5   1    6.25    0.63
  -8   5  -1    5.87    0.52
   8   5   1    6.42    0.62
  -8   5  -2  173.32    3.93
   8   5   2  174.44    4.03
  -9  -3   3   78.38    2.79
   9  -3  -2    0.36    0.26
  -9  -3   2    0.38    0.32
  -9  -3   1   11.66    1.00
   9  -3  -1   12.69    1.06
  -9  -3   1   12.82    1.06
   9  -3  -1   11.88    0.83
  -9  -3   0    9.66    0.95
  -9  -3   0   10.68    0.88
   9  -3   0   10.94    0.80
  -9  -3  -1   32.81    1.74
   9  -3   1   31.68    1.37
  -9  -3  -2   24.74    1.36
   9  -2  -4    5.83    0.64
  -9  -2   4    7.05    0.79
   9  -2  -3    5.70    0.74
  -9  -2   3    5.48    0.75
  -9  -2   2   19.91    1.36
   9  -2  -2   21.11    1.50
  -9  -2   2   20.75    1.47
  -9  -2   1   60.77    2.68
   9  -2  -1   62.47    2.73
  -9  -2   1   58.05    2.53
  -9  -2   0   15.16    1.31
   9  -2   0   15.33    1.29
  -9  -2   0   14.07    1.10
  -9  -2  -1   99.73    3.56
   9  -2   1   96.87    3.40
  -9  -2  -2   41.73    2.02
   9  -1  -5  131.38    3.53
  -9  -1   5  135.64    3.67
   9  -1  -4   21.41    1.40
  -9  -1   4   22.43    1.43
   9  -1  -3   14.11    1.25
  -9  -1   3   15.90    1.27
   9  -1  -2   50.45    2.50
  -9  -1   2   47.31    2.31
   9  -1  -1   87.35    3.42
  -9  -1   1   80.53    3.08
   9  -1   0   26.38    1.73
   9  -1   0   23.16    1.43
  -9  -1   0   22.37    1.34
   9  -1   1    0.31    0.31
   9  -1   1   -0.01    0.21
  -9  -1  -1    0.28    0.25
  -9  -1  -2  102.20    3.49
   9  -1   2   97.82    3.17
  -9  -1  -3   17.37    1.10
   9   0  -5   11.91    0.94
  -9   0   5   11.03    0.88
   9   0  -4   36.43    1.93
  -9   0   4   36.28    1.84
   9   0  -3    2.13    0.52
  -9   0   3    1.35    0.42
   9   0  -2   12.17    1.19
  -9   0   2   12.74    1.12
   9   0  -1   82.21    3.27
  -9   0   1   78.55    2.92
   9   0  -1   77.06    2.88
  -9   0   1   74.84    2.69
   9   0   0   46.45    2.33
   9   0   0   46.52    2.21
  -9   0   0   44.05    2.04
   9   0   1  273.96    6.72
  -9   0  -1  266.14    6.25
   9   0   1  282.47    6.82
  -9   0  -1  272.00    6.54
   9   0   2  205.70    5.22
  -9   0  -2  197.86    5.06
   9   0   3    3.14    0.49
   9   1  -5  140.45    3.82
  -9   1   5  137.12    3.67
  -9   1   4   22.42    1.27
   9   1  -4   23.02    1.47
  -9   1   4   21.01    1.32
  -9   1   3   14.49    1.11
  -9   1   3   15.06    1.06
   9   1  -3   15.34    1.27
  -9   1   3   15.84    1.19
  -9   1   2   49.59    2.23
  -9   1   2   45.12    2.07
   9   1  -2   50.30    2.40
  -9   1   2   46.88    2.12
   9   1  -2   49.97    2.13
  -9   1   2   45.83    1.93
  -9   1   1   81.91    3.01
   9   1  -1   84.03    3.20
   9   1  -1   83.29    3.07
  -9   1   1   81.31    2.85
  -9   1   0   24.95    1.53
   9   1   0   24.12    1.53
  -9   1   0   24.17    1.33
   9   1   0   25.16    1.61
  -9   1   0   24.54    1.47
   9   1   1    0.50    0.33
  -9   1  -1    0.17    0.23
   9   1   1    0.28    0.27
  -9   1  -1   -0.10    0.26
  -9   1  -2   96.28    2.74
  -9   1  -2   88.74    2.92
   9   1   2   93.25    3.13
  -9   1  -2   99.57    3.11
  -9   1  -3   15.60    1.00
   9   1   3   17.20    1.06
  -9   2   4    6.65    0.66
  -9   2   4    5.99    0.53
   9   2  -4    6.72    0.73
  -9   2   4    6.71    0.67
  -9   2   3    5.48    0.64
  -9   2   3    5.59    0.63
   9   2  -3    5.19    0.69
  -9   2   3    5.49    0.65
   9   2  -3    5.83    0.63
  -9   2   3    6.25    0.60
  -9   2   2   22.44    1.37
  -9   2   2   20.51    1.27
   9   2  -2   19.73    1.33
  -9   2   2   19.22    1.19
   9   2  -2   20.75    1.32
  -9   2   2   20.44    1.21
  -9   2   1   62.58    2.43
  -9   2   1   61.43    2.41
   9   2  -1   62.36    2.40
   9   2  -1   61.28    2.52
  -9   2   1   61.30    2.36
  -9   2   0   15.50    1.13
  -9   2   0   15.41    1.01
   9   2   0   15.73    1.21
  -9   2   0   16.14    1.15
  -9   2  -1   94.28    2.93
   9   2   1   96.72    3.24
  -9   2  -1   99.87    3.13
  -9   2  -2   40.67    1.62
  -9   2  -2   42.08    1.75
   9   2   2   40.42    1.81
  -9   2  -2   43.86    1.81
  -9   2  -3  164.55    3.97
  -9   3   4   35.59    1.39
  -9   3   3   79.31    2.45
  -9   3   3   74.98    2.30
   9   3  -3   70.64    2.26
  -9   3   3   76.39    2.24
  -9   3   2    0.39    0.24
  -9   3   2    0.40    0.23
   9   3  -2   -0.35    0.28
  -9   3   2    0.44    0.25
  -9   3   1   12.83    0.90
  -9   3   1   11.74    0.89
  -9   3   1   12.47    0.80
   9   3  -1   12.16    0.98
  -9   3   1   12.28    0.92
  -9   3   0   10.45    0.83
  -9   3   0    9.97    0.76
   9   3   0   11.05    0.94
  -9   3   0   11.02    0.87
  -9   3  -1   34.75    1.48
   9   3   1   34.42    1.61
  -9   3  -1   35.78    1.55
  -9   3  -2   23.91    1.14
   9   4  -1   20.19    1.09
  -9   4   1   18.65    0.96
   0   0   0    0.00    0.00


TITL FJJ20180815 in P2(1)
REM P2(1) (#4 in standard setting)
CELL 1.54184   8.005385   7.731391   8.688438  90.0000  95.2493  90.0000
ZERR   10.00   0.000087   0.000107   0.000103   0.0000   0.0011   0.0000
LATT -1
SYMM -x, y+1/2,-z
SFAC C H N O
UNIT 10.00 10.00 10.00 10.00
TREF
HKLF 4
END
_computing_structure_solution     'SHELXT 2014/5 (Sheldrick, 2014)'
;
_shelx_hkl_checksum              41556
_olex2_submission_special_instructions 'No special instructions were received'
_oxdiff_exptl_absorpt_empirical_details
;
Empirical correction (ABSPACK) includes:
- Absorption correction using spherical harmonics
- Frame scaling
;
_oxdiff_exptl_absorpt_empirical_full_max 1.429
_oxdiff_exptl_absorpt_empirical_full_min 0.599
loop_
_space_group_symop_operation_xyz
'x, y, z'
'-x, y+1/2, -z'
loop_
_atom_site_label
_atom_site_type_symbol
_atom_site_fract_x
_atom_site_fract_y
_atom_site_fract_z
_atom_site_U_iso_or_equiv
_atom_site_adp_type
_atom_site_occupancy
_atom_site_site_symmetry_order
_atom_site_calc_flag
_atom_site_refinement_flags_posn
O14 O 0.98805(14) 0.71115(17) 0.54751(13) 0.0176(3) Uani 1 1 d .
O15 O 0.48483(15) 0.68632(18) 0.32337(15) 0.0198(3) Uani 1 1 d .
N10 N 0.88865(17) 0.5373(2) 0.34697(16) 0.0138(3) Uani 1 1 d .
H10 H 0.930059 0.440246 0.387309 0.017 Uiso 1 1 calc R
C9 C 0.6196(2) 0.4541(2) 0.21137(19) 0.0141(4) Uani 1 1 d .
C13 C 0.91318(19) 0.6898(2) 0.41744(19) 0.0146(4) Uani 1 1 d .
C4 C 0.6243(2) 0.2832(2) 0.16226(19) 0.0160(4) Uani 1 1 d .
C2 C 0.8625(2) 0.4271(2) 0.0761(2) 0.0168(4) Uani 1 1 d .
H2A H 0.831392 0.470736 -0.029809 0.020 Uiso 1 1 calc R
H2B H 0.986379 0.424531 0.094489 0.020 Uiso 1 1 calc R
C1 C 0.7870(2) 0.5432(2) 0.19644(19) 0.0141(4) Uani 1 1 d .
C6 C 0.3535(2) 0.2338(3) 0.2472(2) 0.0201(4) Uani 1 1 d .
H6 H 0.262514 0.158290 0.261326 0.024 Uiso 1 1 calc R
C8 C 0.4785(2) 0.5169(2) 0.27745(19) 0.0154(4) Uani 1 1 d .
C5 C 0.4918(2) 0.1700(3) 0.1805(2) 0.0198(4) Uani 1 1 d .
H5 H 0.496215 0.052848 0.148285 0.024 Uiso 1 1 calc R
C7 C 0.3441(2) 0.4063(3) 0.2941(2) 0.0186(4) Uani 1 1 d .
H7 H 0.246787 0.447655 0.337065 0.022 Uiso 1 1 calc R
C3 C 0.7893(2) 0.2456(2) 0.0961(2) 0.0175(4) Uani 1 1 d .
H3A H 0.771005 0.184716 -0.004258 0.021 Uiso 1 1 calc R
H3B H 0.863876 0.174931 0.168298 0.021 Uiso 1 1 calc R
C12 C 0.8367(2) 0.8303(2) 0.3131(2) 0.0175(4) Uani 1 1 d .
H12A H 0.918680 0.923908 0.300539 0.021 Uiso 1 1 calc R
H12B H 0.736519 0.880184 0.355397 0.021 Uiso 1 1 calc R
C11 C 0.7885(2) 0.7392(2) 0.1590(2) 0.0169(4) Uani 1 1 d .
H11A H 0.871451 0.764802 0.084328 0.020 Uiso 1 1 calc R
H11B H 0.676457 0.777633 0.114384 0.020 Uiso 1 1 calc R
C16 C 0.3431(2) 0.7534(3) 0.3921(2) 0.0224(4) Uani 1 1 d .
H16A H 0.243364 0.745300 0.318114 0.034 Uiso 1 1 calc GR
H16B H 0.363413 0.874760 0.420555 0.034 Uiso 1 1 calc GR
H16C H 0.325118 0.686255 0.484816 0.034 Uiso 1 1 calc GR
loop_
_atom_site_aniso_label
_atom_site_aniso_U_11
_atom_site_aniso_U_22
_atom_site_aniso_U_33
_atom_site_aniso_U_23
_atom_site_aniso_U_13
_atom_site_aniso_U_12
O14 0.0157(6) 0.0185(7) 0.0178(6) -0.0015(5) -0.0025(5) -0.0015(5)
O15 0.0152(6) 0.0200(7) 0.0249(6) -0.0053(5) 0.0063(5) 0.0009(5)
N10 0.0128(7) 0.0134(8) 0.0148(7) 0.0017(6) -0.0009(5) 0.0009(6)
C9 0.0132(7) 0.0176(9) 0.0111(7) 0.0009(6) -0.0010(6) -0.0003(7)
C13 0.0097(7) 0.0163(9) 0.0183(8) -0.0005(7) 0.0040(6) -0.0007(6)
C4 0.0158(8) 0.0189(10) 0.0125(7) -0.0002(7) -0.0025(6) 0.0017(7)
C2 0.0152(8) 0.0189(10) 0.0165(8) 0.0003(7) 0.0036(6) 0.0017(7)
C1 0.0128(7) 0.0164(9) 0.0130(8) 0.0013(7) 0.0009(6) 0.0018(7)
C6 0.0175(8) 0.0244(11) 0.0178(8) 0.0011(8) -0.0021(6) -0.0069(7)
C8 0.0152(8) 0.0181(10) 0.0125(8) -0.0003(7) -0.0010(6) 0.0006(7)
C5 0.0224(9) 0.0181(10) 0.0178(8) -0.0010(7) -0.0035(7) -0.0028(7)
C7 0.0134(8) 0.0269(11) 0.0155(8) 0.0001(7) 0.0008(6) -0.0004(7)
C3 0.0179(8) 0.0164(10) 0.0181(8) -0.0024(7) 0.0019(6) 0.0018(7)
C12 0.0168(8) 0.0151(9) 0.0201(9) -0.0001(7) -0.0004(7) -0.0005(7)
C11 0.0175(8) 0.0160(10) 0.0173(8) 0.0023(7) 0.0020(6) -0.0006(7)
C16 0.0186(9) 0.0265(11) 0.0229(9) -0.0046(8) 0.0059(7) 0.0049(8)
loop_
_atom_type_symbol
_atom_type_description
_atom_type_scat_dispersion_real
_atom_type_scat_dispersion_imag
_atom_type_scat_source
C C 0.0181 0.0091 'International Tables Vol C Tables 4.2.6.8 and 6.1.1.4'
H H 0.0000 0.0000 'International Tables Vol C Tables 4.2.6.8 and 6.1.1.4'
N N 0.0311 0.0180 'International Tables Vol C Tables 4.2.6.8 and 6.1.1.4'
O O 0.0492 0.0322 'International Tables Vol C Tables 4.2.6.8 and 6.1.1.4'
loop_
_geom_angle_atom_site_label_1
_geom_angle_atom_site_label_2
_geom_angle_atom_site_label_3
_geom_angle
C8 O15 C16 117.40(14)
C13 N10 H10 122.4
C13 N10 C1 115.15(14)
C1 N10 H10 122.4
C4 C9 C1 110.80(15)
C4 C9 C8 120.06(16)
C8 C9 C1 128.86(16)
O14 C13 N10 125.01(16)
O14 C13 C12 125.96(17)
N10 C13 C12 109.03(14)
C9 C4 C5 121.25(16)
C9 C4 C3 110.33(15)
C5 C4 C3 128.40(17)
H2A C2 H2B 108.7
C1 C2 H2A 110.5
C1 C2 H2B 110.5
C3 C2 H2A 110.5
C3 C2 H2B 110.5
C3 C2 C1 106.09(14)
N10 C1 C9 109.18(13)
N10 C1 C2 111.36(14)
N10 C1 C11 101.64(14)
C9 C1 C2 101.35(14)
C9 C1 C11 118.93(14)
C2 C1 C11 114.56(14)
C5 C6 H6 119.1
C5 C6 C7 121.79(17)
C7 C6 H6 119.1
O15 C8 C9 116.22(15)
O15 C8 C7 124.45(15)
C7 C8 C9 119.32(17)
C4 C5 H5 121.0
C6 C5 C4 118.00(18)
C6 C5 H5 121.0
C6 C7 H7 120.2
C8 C7 C6 119.55(16)
C8 C7 H7 120.2
C4 C3 C2 102.88(14)
C4 C3 H3A 111.2
C4 C3 H3B 111.2
C2 C3 H3A 111.2
C2 C3 H3B 111.2
H3A C3 H3B 109.1
C13 C12 H12A 110.9
C13 C12 H12B 110.9
C13 C12 C11 104.49(15)
H12A C12 H12B 108.9
C11 C12 H12A 110.9
C11 C12 H12B 110.9
C1 C11 H11A 110.6
C1 C11 H11B 110.6
C12 C11 C1 105.82(14)
C12 C11 H11A 110.6
C12 C11 H11B 110.6
H11A C11 H11B 108.7
O15 C16 H16A 109.5
O15 C16 H16B 109.5
O15 C16 H16C 109.5
H16A C16 H16B 109.5
H16A C16 H16C 109.5
H16B C16 H16C 109.5
loop_
_geom_bond_atom_site_label_1
_geom_bond_atom_site_label_2
_geom_bond_distance
O14 C13 1.241(2)
O15 C8 1.369(2)
O15 C16 1.427(2)
N10 H10 0.8800
N10 C13 1.335(2)
N10 C1 1.476(2)
C9 C4 1.391(3)
C9 C1 1.523(2)
C9 C8 1.400(2)
C13 C12 1.508(3)
C4 C5 1.395(3)
C4 C3 1.516(2)
C2 H2A 0.9900
C2 H2B 0.9900
C2 C1 1.543(2)
C2 C3 1.537(3)
C1 C11 1.550(3)
C6 H6 0.9500
C6 C5 1.386(3)
C6 C7 1.398(3)
C8 C7 1.392(2)
C5 H5 0.9500
C7 H7 0.9500
C3 H3A 0.9900
C3 H3B 0.9900
C12 H12A 0.9900
C12 H12B 0.9900
C12 C11 1.531(2)
C11 H11A 0.9900
C11 H11B 0.9900
C16 H16A 0.9800
C16 H16B 0.9800
C16 H16C 0.9800
loop_
_geom_torsion_atom_site_label_1
_geom_torsion_atom_site_label_2
_geom_torsion_atom_site_label_3
_geom_torsion_atom_site_label_4
_geom_torsion
O14 C13 C12 C11 170.52(15)
O15 C8 C7 C6 -178.08(15)
N10 C13 C12 C11 -9.06(17)
N10 C1 C11 C12 -19.21(16)
C9 C4 C5 C6 1.0(2)
C9 C4 C3 C2 -13.41(18)
C9 C1 C11 C12 100.60(17)
C9 C8 C7 C6 1.1(2)
C13 N10 C1 C9 -111.59(16)
C13 N10 C1 C2 137.33(15)
C13 N10 C1 C11 14.90(17)
C13 C12 C11 C1 17.65(17)
C4 C9 C1 N10 -96.34(17)
C4 C9 C1 C2 21.24(17)
C4 C9 C1 C11 147.79(15)
C4 C9 C8 O15 179.64(14)
C4 C9 C8 C7 0.4(2)
C2 C1 C11 C12 -139.41(14)
C1 N10 C13 O14 176.43(15)
C1 N10 C13 C12 -3.99(18)
C1 C9 C4 C5 173.04(15)
C1 C9 C4 C3 -5.16(19)
C1 C9 C8 O15 6.3(2)
C1 C9 C8 C7 -173.01(15)
C1 C2 C3 C4 26.38(17)
C8 C9 C4 C5 -1.5(2)
C8 C9 C4 C3 -179.65(14)
C8 C9 C1 N10 77.5(2)
C8 C9 C1 C2 -164.88(16)
C8 C9 C1 C11 -38.3(2)
C5 C4 C3 C2 168.56(16)
C5 C6 C7 C8 -1.6(3)
C7 C6 C5 C4 0.6(3)
C3 C4 C5 C6 178.82(16)
C3 C2 C1 N10 87.14(17)
C3 C2 C1 C9 -28.85(16)
C3 C2 C1 C11 -158.22(14)
C16 O15 C8 C9 -179.59(14)
C16 O15 C8 C7 -0.4(2)
