#------------------------------------------------------------------------------
#$Date: 2019-11-08 02:18:31 +0200 (Fri, 08 Nov 2019) $
#$Revision: 224717 $
#$URL: file:///home/coder/svn-repositories/cod/cif/4/03/46/4034692.cif $
#------------------------------------------------------------------------------
#
# This file is available in the Crystallography Open Database (COD),
# http://www.crystallography.net/
#
# All data on this site have been placed in the public domain by the
# contributors.
#
data_4034692
loop_
_publ_author_name
'Yuan, Yumeng'
'Pan, Guoshuai'
'Zhang, Xiaofeng'
'Li, Buhong'
'Xiang, Shengchang'
'Huang, Qiufeng'
_publ_section_title
;
 Synthesis of seven-membered azepino[3,2,1-hi]indoles via
 rhodium-catalyzed regioselectively C-H activation/DBU-catalyzed
 intramolecualr amidation of 7-phenylindoles in one pot.
;
_journal_name_full               'The Journal of organic chemistry'
_journal_paper_doi               10.1021/acs.joc.9b02289
_journal_year                    2019
_chemical_formula_moiety         'C18 H12 F N O3'
_chemical_formula_sum            'C18 H12 F N O3'
_chemical_formula_weight         309.29
_chemical_name_systematic        116
_space_group_crystal_system      triclinic
_space_group_IT_number           2
_space_group_name_Hall           '-P 1'
_space_group_name_H-M_alt        'P -1'
_atom_sites_solution_hydrogens   geom
_atom_sites_solution_primary     dual
_audit_creation_date             2019-05-16
_audit_creation_method
;
Olex2 1.2
(compiled 2018.05.29 svn.r3508 for OlexSys, GUI svn.r5506)
;
_cell_angle_alpha                98.873(4)
_cell_angle_beta                 94.769(5)
_cell_angle_gamma                106.281(6)
_cell_formula_units_Z            2
_cell_length_a                   7.5278(5)
_cell_length_b                   7.5377(5)
_cell_length_c                   13.1321(6)
_cell_measurement_reflns_used    2662
_cell_measurement_temperature    295.11(10)
_cell_measurement_theta_max      72.7700
_cell_measurement_theta_min      6.1890
_cell_volume                     700.40(8)
_computing_cell_refinement       'CrysAlisPro 1.171.39.46e (Rigaku OD, 2018)'
_computing_data_collection       'CrysAlisPro 1.171.39.46e (Rigaku OD, 2018)'
_computing_data_reduction        'CrysAlisPro 1.171.39.46e (Rigaku OD, 2018)'
_computing_molecular_graphics    'Olex2 (Dolomanov et al., 2009)'
_computing_publication_material  'Olex2 (Dolomanov et al., 2009)'
_computing_structure_refinement  'ShelXL (Sheldrick, 2015)'
_computing_structure_solution    'ShelXT (Sheldrick, 2015)'
_diffrn_ambient_environment      air
_diffrn_ambient_temperature      295.11(10)
_diffrn_detector                 'CCD plate'
_diffrn_detector_area_resol_mean 10.5148
_diffrn_detector_type            Atlas
_diffrn_measured_fraction_theta_full 0.981
_diffrn_measured_fraction_theta_max 0.952
_diffrn_measurement_details
;
List of Runs (angles in degrees, time in seconds):

  # Type    Start    End  Width  t~exp~   \w     \q     \k     \f   Frames
--------------------------------------------------------------------------
  1  \w    -59.00  27.00   1.00    1.00    --  -40.32  38.00 120.00   86
  2  \w    -64.00  27.00   1.00    1.00    --  -40.32  57.00-120.00   91
  3  \w   -111.00 -17.00   1.00    1.00    --  -40.32 -38.00 -60.00   94
  4  \w     65.00  95.00   1.00    1.00    --   40.32-125.00 -90.00   30
  5  \w      2.00  31.00   1.00    1.00    --   40.32 -99.00-150.00   29
  6  \w     37.00 127.00   1.00    1.00    --  103.24 -45.00 -30.00   90
  7  \w     92.00 117.00   1.00    1.00    --  103.24-125.00 -90.00   25
  8  \w     49.00  75.00   1.00    1.00    --  103.24-125.00 -90.00   26
  9  \w     32.00 115.00   1.00    1.00    --  103.24-125.00  30.00   83
 10  \w     83.00 112.00   1.00    1.00    --  103.24-125.00-150.00   29
 11  \w     98.00 174.00   1.00    1.00    --  103.24 125.00  60.00   76
 12  \w     40.00 125.00   1.00    1.00    --  103.24 -61.00 150.00   85
 13  \w     60.00 135.00   1.00    1.00    --  103.24 -77.00  30.00   75
 14  \w     75.00 171.00   1.00    1.00    --  103.24  30.00 150.00   96
 15  \w     54.00 173.00   1.00    1.00    --  103.24  15.00-120.00  119
;
_diffrn_measurement_device       'four-circle diffractometer'
_diffrn_measurement_device_type  'SuperNova, Dual, Cu at home/near, Atlas'
_diffrn_measurement_method       '\w scans'
_diffrn_orient_matrix_type
'CrysAlisPro convention (1999,Acta A55,543-557)'
_diffrn_orient_matrix_UB_11      -0.1994384000
_diffrn_orient_matrix_UB_12      -0.0020972000
_diffrn_orient_matrix_UB_13      0.0196653000
_diffrn_orient_matrix_UB_21      0.0294484000
_diffrn_orient_matrix_UB_22      0.1895445000
_diffrn_orient_matrix_UB_23      -0.0365962000
_diffrn_orient_matrix_UB_31      -0.0750566000
_diffrn_orient_matrix_UB_32      -0.1049806000
_diffrn_orient_matrix_UB_33      -0.1123682000
_diffrn_radiation_monochromator  mirror
_diffrn_radiation_probe          x-ray
_diffrn_radiation_type           CuK\a
_diffrn_radiation_wavelength     1.54184
_diffrn_reflns_av_R_equivalents  0.0185
_diffrn_reflns_av_unetI/netI     0.0180
_diffrn_reflns_Laue_measured_fraction_full 0.981
_diffrn_reflns_Laue_measured_fraction_max 0.952
_diffrn_reflns_limit_h_max       8
_diffrn_reflns_limit_h_min       -9
_diffrn_reflns_limit_k_max       9
_diffrn_reflns_limit_k_min       -8
_diffrn_reflns_limit_l_max       14
_diffrn_reflns_limit_l_min       -16
_diffrn_reflns_number            4401
_diffrn_reflns_point_group_measured_fraction_full 0.981
_diffrn_reflns_point_group_measured_fraction_max 0.952
_diffrn_reflns_theta_full        67.684
_diffrn_reflns_theta_max         72.478
_diffrn_reflns_theta_min         3.437
_diffrn_source                   'micro-focus sealed X-ray tube'
_diffrn_source_type              'SuperNova (Cu) X-ray Source'
_exptl_absorpt_coefficient_mu    0.916
_exptl_absorpt_correction_T_max  1.00000
_exptl_absorpt_correction_T_min  0.53677
_exptl_absorpt_correction_type   multi-scan
_exptl_absorpt_process_details
;
CrysAlisPro 1.171.39.46e (Rigaku Oxford Diffraction, 2018)
Empirical absorption correction using spherical harmonics,
 implemented in SCALE3 ABSPACK scaling algorithm.
;
_exptl_crystal_colour            'clear light colourless'
_exptl_crystal_colour_lustre     clear
_exptl_crystal_colour_modifier   light
_exptl_crystal_colour_primary    colourless
_exptl_crystal_density_diffrn    1.467
_exptl_crystal_description       block
_exptl_crystal_F_000             320
_exptl_crystal_size_max          0.1
_exptl_crystal_size_mid          0.1
_exptl_crystal_size_min          0.1
_refine_diff_density_max         0.225
_refine_diff_density_min         -0.250
_refine_diff_density_rms         0.050
_refine_ls_extinction_method     none
_refine_ls_goodness_of_fit_ref   1.042
_refine_ls_hydrogen_treatment    constr
_refine_ls_matrix_type           full
_refine_ls_number_parameters     209
_refine_ls_number_reflns         2638
_refine_ls_number_restraints     0
_refine_ls_restrained_S_all      1.042
_refine_ls_R_factor_all          0.0512
_refine_ls_R_factor_gt           0.0488
_refine_ls_shift/su_max          0.000
_refine_ls_shift/su_mean         0.000
_refine_ls_structure_factor_coef Fsqd
_refine_ls_weighting_details
'w=1/[\s^2^(Fo^2^)+(0.0889P)^2^+0.0974P] where P=(Fo^2^+2Fc^2^)/3'
_refine_ls_weighting_scheme      calc
_refine_ls_wR_factor_gt          0.1280
_refine_ls_wR_factor_ref         0.1314
_reflns_Friedel_coverage         0.000
_reflns_number_gt                2446
_reflns_number_total             2638
_reflns_threshold_expression     'I > 2\s(I)'
_cod_data_source_file            jo9b02289_si_006.cif
_cod_data_source_block           zh-yym116
_cod_database_code               4034692
_shelx_shelxl_version_number     2014/7
_chemical_oxdiff_formula         'C1 H1 O1 N1'
_shelx_space_group_comment
;
The symmetry employed for this shelxl refinement is uniquely defined
by the following loop, which should always be used as a source of
symmetry information in preference to the above space-group names.
They are only intended as comments.
;
_shelx_estimated_absorpt_t_max   0.914
_shelx_estimated_absorpt_t_min   0.914
_reflns_odcompleteness_completeness 99.96
_reflns_odcompleteness_iscentric 1
_reflns_odcompleteness_theta     66.97
_olex2_refinement_description
;
1. Fixed Uiso
 At 1.2 times of:
  All C(H) groups
 At 1.5 times of:
  All C(H,H,H) groups
2.a Ternary CH refined with riding coordinates:
 C008(H008)
2.b Aromatic/amide H refined with riding coordinates:
 C00C(H00C), C00F(H00F), C00G(H00G), C00H(H00H), C00I(H00I), C00J(H00J),
 C00L(H00L), C00M(H00M)
2.c Idealised Me refined as rotating group:
 C00K(H00A,H00B,H00D)
;
_shelx_res_file
;
    zh-yym116.res created by SHELXL-2014/7

TITL zh-yym116_a.res in P-1
REM Old TITL ZH-YYM116 in P-1
REM SHELXT solution in P-1
REM R1 0.190, Rweak 0.013, Alpha 0.048, Orientation as input
REM Formula found by SHELXT: C18 N2 O3
CELL 1.54184 7.5278 7.5377 13.1321 98.873 94.769 106.281
ZERR 2 0.0005 0.0005 0.0006 0.004 0.005 0.006
LATT 1
SFAC C H F N O
UNIT 36 24 2 2 6

L.S. 10
PLAN  20
SIZE 0.1 0.1 0.1
list 4
fmap 2 53
acta
OMIT 0 2 0
OMIT 0 1 2
OMIT 2 -2 2
OMIT -2 1 2
OMIT 0 1 0
OMIT -2 0 1
OMIT 2 0 0
OMIT 1 -1 1
OMIT 2 -5 1
OMIT 3 2 1
OMIT 1 -2 1
OMIT 4 -2 3
OMIT 0 3 3
OMIT -1 0 4
OMIT 0 -2 5
OMIT -1 -3 3
OMIT -1 1 1
OMIT 3 -3 6
OMIT -2 -2 7
OMIT 3 6 2
OMIT 4 2 6
OMIT 3 3 7
OMIT -1 2 1
OMIT -1 2 5
OMIT -5 -3 1
OMIT -7 7 0
OMIT -3 4 0
OMIT 0 -5 1
OMIT 0 0 4
OMIT -2 5 3
OMIT 0 -8 8
OMIT -3 -1 2
OMIT 0 0 3
OMIT -1 2 2
OMIT -1 0 8
OMIT -3 2 7
OMIT 1 0 0
OMIT 0 -2 4
OMIT -1 2 0
OMIT -3 -2 1
OMIT 2 2 3
OMIT 1 3 8
REM <olex2.extras>
REM <HklSrc "%.\\ZH-YYM116.hkl">
REM </olex2.extras>

WGHT    0.088900    0.097400
FVAR       1.89980
O001  5    0.048032    0.533074    0.868600    11.00000    0.03638    0.03832 =
         0.07222    0.01660    0.01189    0.00998
O002  5    0.384513    0.345093    0.900907    11.00000    0.07601    0.03998 =
         0.05502    0.02148   -0.00126    0.01562
N003  4    0.348200    0.382085    0.733866    11.00000    0.04155    0.02674 =
         0.04601    0.01075    0.00857    0.01124
F004  3    0.214597    0.659740    0.385587    11.00000    0.13476    0.08890 =
         0.04585    0.02833    0.00363    0.04128
O005  5    0.156331    0.810176    0.820005    11.00000    0.05657    0.05827 =
         0.11071    0.04784    0.02854    0.02987
C006  1    0.528362    0.794596    0.841727    11.00000    0.03628    0.02752 =
         0.04684    0.01011    0.00959    0.01103
C007  1    0.181960    0.676623    0.848791    11.00000    0.04113    0.03367 =
         0.03916    0.00855    0.01165    0.01236
C008  1    0.372893    0.650125    0.875867    11.00000    0.03884    0.03196 =
         0.03590    0.00958    0.00738    0.00938
AFIX  13
H008  2    0.396475    0.673961    0.951993    11.00000   -1.20000
AFIX   0
C009  1    0.535314    0.806763    0.736594    11.00000    0.04338    0.02818 =
         0.04782    0.01150    0.01581    0.01429
C00A  1    0.371270    0.447224    0.840495    11.00000    0.03586    0.03191 =
         0.04536    0.01454    0.00491    0.00890
C00B  1    0.401760    0.672415    0.651689    11.00000    0.04507    0.03651 =
         0.04190    0.01362    0.01628    0.01704
C00C  1    0.665031    0.919613    0.917820    11.00000    0.04621    0.03244 =
         0.05259    0.00593    0.00621    0.01048
AFIX  43
H00C  2    0.658849    0.911596    0.987468    11.00000   -1.20000
AFIX   0
C00D  1    0.327682    0.481172    0.653352    11.00000    0.03836    0.03530 =
         0.03973    0.00995    0.01093    0.01430
C00E  1    0.236572    0.347238    0.563919    11.00000    0.04490    0.04158 =
         0.04624    0.00537    0.00843    0.01579
C00F  1    0.277683    0.188672    0.691757    11.00000    0.04792    0.02850 =
         0.06024    0.01002    0.00957    0.01206
AFIX  43
H00F  2    0.277978    0.092211    0.728143    11.00000   -1.20000
AFIX   0
C00G  1    0.682561    0.947352    0.711574    11.00000    0.05742    0.03388 =
         0.05877    0.01385    0.02550    0.01111
AFIX  43
H00G  2    0.689132    0.958024    0.642277    11.00000   -1.20000
AFIX   0
C00H  1    0.210293    0.164725    0.591622    11.00000    0.05152    0.03453 =
         0.05776    0.00126    0.00674    0.01047
AFIX  43
H00H  2    0.155630    0.049695    0.547248    11.00000   -1.20000
AFIX   0
C00I  1    0.356781    0.726259    0.557970    11.00000    0.06555    0.04538 =
         0.04649    0.01942    0.01838    0.02300
AFIX  43
H00I  2    0.396020    0.852611    0.552734    11.00000   -1.20000
AFIX   0
C00J  1    0.809858    1.055568    0.890891    11.00000    0.04707    0.03486 =
         0.07275    0.00190    0.00729    0.00297
AFIX  43
H00J  2    0.901788    1.137139    0.942043    11.00000   -1.20000
AFIX   0
C00K  1   -0.139383    0.549683    0.859176    11.00000    0.03641    0.05468 =
         0.07764    0.00864    0.01083    0.01340
AFIX 137
H00A  2   -0.159369    0.605539    0.799963    11.00000   -1.50000
H00B  2   -0.154918    0.627419    0.920895    11.00000   -1.50000
H00D  2   -0.228130    0.427104    0.850421    11.00000   -1.50000
AFIX   0
C00L  1    0.817155    1.069517    0.787034    11.00000    0.05230    0.03380 =
         0.08145    0.00995    0.02665    0.00319
AFIX  43
H00L  2    0.913316    1.161710    0.768563    11.00000   -1.20000
AFIX   0
C00M  1    0.196371    0.405007    0.470937    11.00000    0.06442    0.05944 =
         0.04186    0.00418    0.00584    0.02248
AFIX  43
H00M  2    0.133557    0.319940    0.411105    11.00000   -1.20000
AFIX   0
C00N  1    0.255382    0.595010    0.473491    11.00000    0.07441    0.06459 =
         0.03977    0.01974    0.01194    0.03012
HKLF 4

REM  zh-yym116_a.res in P-1
REM R1 =  0.0488 for    2446 Fo > 4sig(Fo)  and  0.0512 for all    2638 data
REM    209 parameters refined using      0 restraints

END

WGHT      0.0890      0.0967

REM Highest difference peak  0.225,  deepest hole -0.250,  1-sigma level  0.050
Q1    1  -0.2219  0.4551  0.7822  11.00000  0.05    0.22
Q2    1   0.2847  0.6564  0.8595  11.00000  0.05    0.19
Q3    1   0.1666  0.4959  0.4862  11.00000  0.05    0.18
Q4    1  -0.2009  0.4737  0.9227  11.00000  0.05    0.18
Q5    1  -0.1374  0.6794  0.8714  11.00000  0.05    0.18
Q6    1   0.3843  0.5568  0.8549  11.00000  0.05    0.17
Q7    1   0.2973  0.5620  0.6590  11.00000  0.05    0.17
Q8    1   0.1631  0.2435  0.5821  11.00000  0.05    0.16
Q9    1   0.3236  0.1594  0.7963  11.00000  0.05    0.16
Q10   1   0.3235  0.5228  0.4723  11.00000  0.05    0.16
Q11   1   0.8698  1.2971  1.0229  11.00000  0.05    0.16
Q12   1   0.8138  1.2017  0.7187  11.00000  0.05    0.15
Q13   1   0.2260  0.1742  0.8644  11.00000  0.05    0.15
Q14   1   0.1886  0.1512  0.8412  11.00000  0.05    0.15
Q15   1   0.0305  0.0213  0.5209  11.00000  0.05    0.15
Q16   1   0.4163  0.5812  0.6527  11.00000  0.05    0.15
Q17   1   0.4331  0.8615  0.9958  11.00000  0.05    0.14
Q18   1   0.2764  0.4105  0.6044  11.00000  0.05    0.14
Q19   1   0.4520  0.7238  0.8589  11.00000  0.05    0.14
Q20   1   0.3953  0.3051  0.7232  11.00000  0.05    0.14
;
_shelx_res_checksum              12133
_shelx_hkl_file
;
   0   0  -1    7.01    0.32
   0   0  -2 1865.40    5.67
   0   0  -2 1864.47    6.99
   0   0  -3 7363.46   13.29
   0   0  -3 7436.80   15.12
   0   0  -4 7628.31   18.41
   0   0  -4 7657.97   19.83
   0   0  -5 1487.10    9.50
   0   0  -5 1495.08    7.93
   0   0  -6   14.20    0.87
   0   0  -6   11.97    1.00
   0   0  -7 1784.08   10.54
   0   0  -7 1764.12   12.63
   0   0  -8  429.84    6.65
   0   0  -9   16.35    1.74
   0   0  -9   15.09    1.66
   0   0  -9   15.15    1.32
   0   0 -10  152.71    5.50
   0   0 -10  154.77    4.60
   0   0 -10  153.33    5.49
   0   0 -11   99.27    4.48
   0   0 -11  109.41    3.97
   0   0 -11   96.03    4.40
   0   0 -12    1.91    0.93
   0   0 -12    1.07    0.85
   0   0 -12    3.18    0.80
   0   0 -12    1.35    0.76
   0   0 -13    3.74    0.86
   0   0 -13    1.64    0.72
   0   0 -13    4.26    0.82
   0   0 -14    3.62    0.77
   0   0 -14    5.51    0.85
   0   0 -15   10.37    0.85
   0   0 -15   10.04    0.92
   0   1 -16   18.68    1.05
   0   1 -15    1.66    0.56
   0   1 -14    0.55    0.60
   0   1 -13   51.47    2.71
   0   1 -13   45.98    2.98
   0   1 -12   48.34    3.21
   0   1 -11  321.39    7.85
   0   1 -11  316.84    8.17
   0   1 -10  663.47   10.80
   0   1 -10  664.16   11.54
   0   1  -9  429.78    8.87
   0   1  -8  706.39    8.22
   0   1  -7  540.00    6.77
   0   1  -6 2533.97   13.48
   0   1  -5  307.45    4.47
   0   1  -5  330.23    3.98
   0   1  -4 1073.25    7.66
   0   1  -3 1476.51    5.26
   0   1  -3 1415.87    8.34
   0   1  -2 1867.27    8.11
   0   1  -1 2699.09    8.67
   0   1   0 4516.65    9.43
   0   1   1    5.30    0.29
   0  -1  -1    5.31    0.33
   0  -1  -2 5110.86   12.09
   0  -1  -3 2917.49   11.25
   0   1   3 2962.60    6.12
   0   1   4 5372.93    8.53
   0  -1  -4 5283.39   17.88
   0  -1  -5 2070.05   11.88
   0  -1  -6  170.21    3.85
   0  -1  -6  303.09    5.19
   0  -1  -7 1859.26   13.07
   0  -1  -7 1844.94   14.05
   0  -1  -8 1056.65   11.72
   0  -1  -9  492.11    9.81
   0  -1  -9  496.95    8.62
   0  -1 -10  540.08    9.62
   0  -1 -10  554.33   10.80
   0  -1 -10  528.11    8.81
   0  -1 -11  281.07    7.78
   0  -1 -11  279.16    6.89
   0  -1 -11  277.15    6.77
   0  -1 -12    1.30    0.83
   0  -1 -12    2.01    0.79
   0  -1 -12    1.04    0.77
   0  -1 -12    0.71    0.61
   0  -1 -13   49.56    2.65
   0  -1 -13   48.70    2.53
   0  -1 -13   50.41    2.48
   0  -1 -14    6.54    0.88
   0  -1 -15   67.20    2.03
   0   2 -16    2.28    0.43
   0   2 -15    7.83    1.00
   0   2 -14  141.64    4.66
   0   2 -13   81.57    3.95
   0   2 -12   31.39    2.57
   0   2 -11   26.75    2.42
   0   2 -11   25.28    2.13
   0   2 -10 1328.06   16.45
   0   2 -10 1265.40   14.80
   0   2  -9    0.36    0.48
   0   2  -9    0.61    0.35
   0   2  -8  692.55    9.21
   0   2  -7  759.80    9.03
   0   2  -6  417.24    6.54
   0   2  -5   32.85    1.75
   0   2  -4   15.00    1.12
   0   2  -3  349.96    4.90
   0   2  -3  370.96    5.14
   0   2  -2  168.13    3.14
   0   2  -1 2959.63   12.26
   0   2   0   14.26    0.81
   0   2   1  187.78    2.63
   0  -2  -1  200.02    2.80
   0  -2  -2  178.79    2.77
   0   2   2  168.34    2.40
   0  -2  -3    9.90    0.76
   0   2   3    7.58    0.49
   0  -2  -4   93.75    2.62
   0  -2  -5 3538.06   17.78
   0  -2  -6   79.74    2.95
   0  -2  -6   50.04    2.40
   0  -2  -7    1.03    0.52
   0  -2  -7   -0.24    0.56
   0  -2  -8   15.84    1.77
   0  -2  -8   17.32    1.70
   0  -2  -8   17.40    1.91
   0  -2  -9  177.75    5.67
   0  -2  -9  169.16    5.91
   0  -2  -9  172.83    6.01
   0  -2 -10  633.14   10.59
   0  -2 -10  651.99   11.88
   0  -2 -11   19.24    2.10
   0  -2 -11   15.08    1.75
   0  -2 -11   17.75    1.88
   0  -2 -12  174.66    5.76
   0  -2 -12  167.75    5.03
   0  -2 -12  169.05    5.13
   0  -2 -13   35.80    2.13
   0  -2 -13   36.87    2.10
   0  -2 -14   18.58    1.24
   0  -2 -14   19.87    1.32
   0   3 -15    4.45    0.75
   0   3 -14    7.10    1.06
   0   3 -13   17.65    1.79
   0   3 -13   19.41    1.73
   0   3 -12  383.23    8.26
   0   3 -12  393.88    8.62
   0   3 -11  399.48    8.88
   0   3 -11  392.11    8.78
   0   3 -10  215.79    6.35
   0   3 -10  213.79    6.46
   0   3 -10  209.23    6.49
   0   3  -9   25.09    2.23
   0   3  -9   29.43    2.32
   0   3  -9   23.33    2.10
   0   3  -9   33.07    2.38
   0   3  -8  251.18    6.39
   0   3  -8  261.67    6.77
   0   3  -7  240.23    5.87
   0   3  -6 2295.63   17.43
   0   3  -5  737.17    9.36
   0   3  -4  691.87    8.51
   0   3  -3  730.09    8.52
   0   3  -3  710.37    8.19
   0   3  -2 1596.74   11.71
   0   3  -2 1562.47   11.12
   0   3  -1 2484.69   13.87
   0   3   0  393.14    5.24
   0  -3  -1  388.26    5.04
   0   3   1  379.64    4.58
   0  -3  -2  911.87    7.83
   0   3   2  966.08    7.82
   0  -3  -3   13.38    1.04
   0  -3  -4 1679.10   12.60
   0  -3  -5   20.67    1.53
   0  -3  -6  311.04    6.97
   0  -3  -6  267.80    6.15
   0  -3  -7   27.85    2.05
   0  -3  -7   28.39    2.18
   0  -3  -7   28.98    2.40
   0  -3  -7   29.97    2.33
   0  -3  -7   29.53    2.39
   0  -3  -7   26.80    1.92
   0  -3  -8   88.89    4.27
   0  -3  -8   92.34    4.37
   0  -3  -8   93.62    4.18
   0  -3  -8   85.19    3.67
   0  -3  -9  178.64    5.46
   0  -3  -9  184.09    6.21
   0  -3  -9  182.23    6.21
   0  -3 -10    2.21    1.05
   0  -3 -10    4.17    1.13
   0  -3 -10    1.01    0.78
   0  -3 -11   -1.00    0.91
   0  -3 -11    0.21    0.58
   0  -3 -12    0.85    0.65
   0  -3 -12    2.09    0.73
   0  -3 -13    0.31    0.37
   0  -3 -13   -0.08    0.37
   0   4 -15   24.29    1.26
   0   4 -14   54.95    2.39
   0   4 -14   53.83    2.44
   0   4 -13   15.81    1.51
   0  -4  13   13.59    1.47
   0   4 -13   15.40    1.58
   0   4 -12   11.85    1.43
   0   4 -12   10.44    1.48
   0   4 -11  258.90    7.27
   0   4 -11  273.23    6.90
   0   4 -10   78.90    4.13
   0   4 -10   78.15    3.69
   0   4  -9    8.29    1.35
   0   4  -9    7.91    1.17
   0   4  -9    6.21    1.32
   0   4  -9    6.68    1.24
   0   4  -8   92.84    4.35
   0   4  -8   97.93    4.44
   0   4  -8   96.40    4.14
   0   4  -7  704.16   11.16
   0   4  -7  744.19   11.75
   0   4  -7  734.97   11.18
   0   4  -6  430.06    8.39
   0   4  -5   69.09    3.16
   0   4  -4  650.47    9.19
   0   4  -3    9.14    1.10
   0   4  -2 2858.39   17.43
   0   4  -1    0.99    0.36
   0   4  -1    0.23    0.39
   0   4   0 1125.62   11.22
   0   4   0 1159.37   10.06
   0   4   1  269.95    5.39
   0  -4  -1  253.51    4.81
   0  -4  -2  528.88    7.12
   0  -4  -3    5.65    0.82
   0  -4  -4  792.24   11.12
   0  -4  -4  852.60   10.71
   0  -4  -5   63.52    2.76
   0  -4  -5   65.86    3.28
   0  -4  -5   62.88    3.00
   0  -4  -5   61.84    3.32
   0  -4  -6  303.34    7.11
   0  -4  -6  301.23    7.32
   0  -4  -6  300.78    6.63
   0  -4  -6  286.83    7.36
   0  -4  -6  298.49    6.26
   0  -4  -7   88.91    4.30
   0  -4  -7   95.02    4.15
   0  -4  -7   93.91    4.23
   0  -4  -7   91.11    3.68
   0  -4  -7   93.15    4.27
   0  -4  -7   84.13    3.47
   0  -4  -8   76.58    3.28
   0  -4  -8   74.88    3.74
   0  -4  -8   74.05    3.27
   0  -4  -8   75.79    4.01
   0  -4  -9   44.90    3.04
   0  -4  -9   43.40    2.50
   0  -4  -9   42.73    2.78
   0  -4 -10   22.44    1.91
   0  -4 -10   22.66    1.77
   0  -4 -11    4.13    0.87
   0  -4 -11    3.56    0.73
   0  -4 -12   18.63    1.38
   0  -5  14    9.53    0.97
   0  -5  13   -0.34    0.55
   0   5 -13   -0.08    0.46
   0   5 -12   13.34    1.58
   0   5 -11  162.22    5.73
   0   5 -10    2.40    1.05
   0   5  -9 1000.59   14.50
   0   5  -9 1048.32   15.13
   0   5  -8   39.04    2.90
   0   5  -8   36.62    2.85
   0   5  -7   42.80    3.03
   0   5  -7   45.16    3.05
   0   5  -7   39.82    2.91
   0   5  -6   71.48    3.67
   0   5  -6   67.10    3.48
   0   5  -5  326.98    7.67
   0   5  -5  332.72    7.58
   0   5  -5  347.96    8.05
   0   5  -4 1173.01   14.38
   0   5  -4 1153.81   13.47
   0  -5   4 1131.02   13.14
   0  -5   3   60.05    3.00
   0   5  -3   60.68    3.20
   0   5  -3   58.30    2.99
   0  -5   2 1002.92   11.86
   0   5  -2  932.30   11.42
   0  -5   1    3.59    0.83
   0  -5   0   68.98    3.03
   0  -5   0   68.77    2.94
   0  -5  -1  380.86    7.06
   0  -5  -1  373.74    7.46
   0  -5  -1  361.24    7.28
   0  -5  -2    8.66    1.26
   0  -5  -2    7.54    1.16
   0  -5  -3  479.39    8.62
   0  -5  -3  449.59    8.80
   0  -5  -3  461.76    8.25
   0  -5  -4  355.98    8.24
   0  -5  -4  349.25    7.46
   0  -5  -4  349.68    7.41
   0  -5  -5  382.99    8.10
   0  -5  -5  375.45    7.71
   0  -5  -5  352.25    7.51
   0  -5  -5  378.81    8.67
   0  -5  -6   94.69    3.26
   0  -5  -6   90.59    4.38
   0  -5  -6   96.18    3.87
   0  -5  -7  295.06    7.78
   0  -5  -7  285.84    5.69
   0  -5  -7  291.02    6.54
   0  -5  -8   46.20    2.45
   0  -5  -8   43.15    2.87
   0  -5  -9    2.58    0.78
   0  -5 -10    7.25    0.95
   0  -5 -11   -0.02    0.32
   0  -6  13    8.87    1.03
   0  -6  12    7.96    1.17
   0   6 -12    9.33    1.20
   0   6 -11   66.43    3.34
   0   6 -10  160.88    5.50
   0   6  -9    0.90    0.83
   0   6  -9   -0.18    0.79
   0   6  -8  305.80    7.95
   0   6  -8  316.64    8.43
   0   6  -7  310.29    8.33
   0   6  -7  306.03    7.89
   0   6  -6  234.41    6.79
   0   6  -6  234.26    7.22
   0   6  -5   19.00    1.90
   0   6  -5   17.05    2.02
   0   6  -4  948.59   14.00
   0   6  -4  992.89   13.05
   0   6  -4  972.26   14.07
   0  -6   4  929.51   13.26
   0   6  -3   22.17    2.15
   0  -6   3   21.29    2.07
   0  -6   2   42.65    2.80
   0   6  -2   39.23    2.70
   0  -6   2   45.22    2.81
   0  -6   2   42.92    2.60
   0  -6   1   24.56    2.12
   0  -6   1   24.61    2.00
   0  -6   1   25.05    2.05
   0   6  -1   24.73    2.08
   0  -6   0  382.57    8.14
   0  -6   0  374.57    7.98
   0  -6  -1   -0.16    0.68
   0  -6  -1    3.38    0.90
   0  -6  -2   18.60    1.90
   0  -6  -2   19.25    1.90
   0  -6  -3  292.64    7.60
   0  -6  -3  294.41    7.11
   0  -6  -4  348.81    7.63
   0  -6  -4  363.92    8.39
   0  -6  -5   65.52    3.21
   0  -6  -5   64.98    3.52
   0  -6  -6   12.67    1.54
   0  -6  -6   11.52    1.34
   0  -6  -7    1.13    0.55
   0  -6  -7    1.81    0.60
   0  -6  -8    0.54    0.42
   0  -6  -8    0.34    0.35
   0  -6  -8   -0.18    0.44
   0  -6  -9   -0.05    0.30
   0  -7  12    3.82    0.63
   0  -7  11   89.22    3.18
   0  -7  10  114.63    3.97
   0  -7   9  155.79    4.80
   0   7  -8   44.47    3.05
   0   7  -7    4.86    1.20
   0   7  -6    2.21    0.92
   0   7  -5   29.86    2.54
   0  -7   4   38.77    2.48
   0   7  -4   34.00    2.68
   0  -7   3  225.66    5.95
   0   7  -3  225.38    6.58
   0  -7   3  229.59    6.60
   0   7  -2  571.75   10.06
   0  -7   2  568.43    9.64
   0  -7   2  578.43   10.50
   0  -7   1   -0.96    0.83
   0  -7   1    1.34    0.89
   0  -7   0  727.94   11.53
   0  -7   0  696.76   10.72
   0  -7  -1  351.62    7.62
   0  -7  -1  369.29    8.07
   0  -7  -2    0.21    0.52
   0  -7  -2    0.75    0.77
   0  -7  -3  105.21    4.05
   0  -7  -3  108.16    4.08
   0  -7  -4   34.02    2.24
   0  -7  -4   35.54    2.24
   0  -7  -5  141.42    4.09
   0  -7  -5  141.84    4.14
   0  -7  -6   63.17    2.47
   0  -8   8   11.67    1.04
   0  -8   7    1.50    0.51
   0  -8   6   21.98    1.58
   0  -8   5   83.78    3.16
   0  -8   4   66.04    2.85
   0  -8   3   32.67    2.03
   0  -8   2    3.18    0.72
   0  -8   1  170.08    4.48
   0  -8   0  430.80    6.97
   0  -8   0  431.12    7.59
   0  -8  -1    2.58    0.58
   0  -8  -1    3.73    0.82
   0  -8  -2  326.55    6.01
   0  -8  -3   50.56    2.22
   1  -8  -5   32.14    1.60
   1  -8  -4    3.32    0.65
   1  -8  -3   62.78    2.72
   1  -8  -2   50.19    2.58
   1  -8  -1   28.73    2.06
   1  -8   0    1.99    0.67
   1  -8   1   -0.10    0.57
  -1   8  -2  103.11    3.87
   1  -8   2   96.99    3.83
  -1   8  -3    1.44    0.65
  -1   8  -4   53.11    2.99
  -1   8  -5  205.89    5.86
  -1   8  -6   23.24    2.00
   1  -8   7   47.24    2.21
  -1   8  -7   43.64    2.66
   1  -8   8   15.58    1.27
   1  -8   9   43.28    1.97
   1  -7  -7   21.90    1.45
   1  -7  -6   19.84    1.55
   1  -7  -5    1.40    0.61
   1  -7  -4   12.22    1.44
   1  -7  -3   -0.15    0.79
   1  -7  -2  215.80    6.06
   1  -7  -1   23.92    2.10
   1  -7   0  133.77    4.87
   1  -7   1    7.61    1.32
  -1   7  -1   11.40    1.49
   1  -7   2  166.29    5.52
  -1   7  -2  161.97    5.67
   1  -7   2  175.15    4.92
  -1   7  -3  332.54    8.28
   1  -7   3  343.55    7.92
   1  -7   3  359.98    6.95
  -1   7  -4  108.21    4.80
   1  -7   4  122.26    4.03
  -1   7  -5  484.45   10.21
  -1   7  -6    0.39    0.48
  -1   7  -6   -0.04    0.82
  -1   7  -7   39.48    2.64
  -1   7  -7   40.47    3.06
  -1   7  -8   14.96    1.64
  -1   7  -8   15.40    1.85
  -1   7  -9   21.78    1.89
  -1   7  -9   26.69    2.31
  -1   7 -10   12.62    1.39
  -1   7 -11    0.49    0.48
   1  -7  12   15.66    1.26
   1  -6 -10    2.52    0.48
   1  -6  -9    1.40    0.43
   1  -6  -8   16.77    1.46
   1  -6  -7   63.02    3.04
   1  -6  -6   26.32    2.13
   1  -6  -6   27.44    2.28
   1  -6  -5  114.80    4.47
   1  -6  -5  116.97    4.67
   1  -6  -4   87.12    3.93
   1  -6  -4   94.50    4.19
   1  -6  -3   63.87    3.40
   1  -6  -3   65.11    3.42
   1  -6  -2   58.35    3.17
   1  -6  -2   57.68    3.18
   1  -6  -1  404.08    8.37
   1  -6  -1  379.62    8.09
   1  -6   0    0.59    0.60
   1  -6   0    0.78    0.55
  -1   6   0    0.43    0.52
   1  -6   0   -0.01    0.49
   1  -6   1    1.06    0.49
   1  -6   1    0.59    0.55
   1  -6   1    0.63    0.54
  -1   6  -1    1.45    0.70
   1  -6   2   25.83    2.09
  -1   6  -2   28.33    2.40
   1  -6   2   28.81    2.26
   1  -6   3  366.80    7.80
  -1   6  -3  365.37    8.70
  -1   6  -4  387.66    9.12
   1  -6   4  374.79    7.92
  -1   6  -4  371.74    8.05
  -1   6  -5   85.00    4.03
  -1   6  -5   84.13    4.25
  -1   6  -5   77.59    3.82
  -1   6  -6  226.97    7.07
  -1   6  -6  218.10    6.63
  -1   6  -7  862.88   13.77
  -1   6  -7  886.28   13.64
  -1   6  -8 1195.53   15.89
  -1   6  -8 1185.47   16.13
  -1   6  -9  494.37   10.19
  -1   6  -9  496.51   10.27
  -1   6 -10    0.07    0.58
  -1   6 -10    1.14    0.84
  -1   6 -11   22.01    2.04
  -1   6 -12   43.54    2.56
   1  -6  13  120.51    3.68
  -1   6 -13  127.89    3.75
   1  -5 -11   -0.04    0.46
   1  -5 -10   72.21    2.70
   1  -5 -10   68.93    2.47
   1  -5  -9    5.19    0.92
   1  -5  -9    3.07    0.64
   1  -5  -8  108.28    4.21
   1  -5  -8  100.07    4.01
   1  -5  -8   96.70    3.39
   1  -5  -7   24.18    2.09
   1  -5  -7   22.90    1.69
   1  -5  -7   23.71    2.08
   1  -5  -7   21.82    2.20
   1  -5  -6  189.82    5.84
   1  -5  -6  182.65    6.10
   1  -5  -6  186.17    5.72
   1  -5  -5  123.68    4.57
   1  -5  -5  115.58    4.51
   1  -5  -5  121.11    4.94
   1  -5  -4  343.16    7.57
   1  -5  -4  336.30    7.30
   1  -5  -4  342.20    7.96
   1  -5  -4  362.65    7.83
   1  -5  -3  321.78    6.97
   1  -5  -3  315.46    7.14
   1  -5  -2    1.80    0.68
   1  -5  -2    2.71    0.75
   1  -5  -1  329.76    6.70
   1  -5  -1  332.56    6.91
   1  -5   0   28.65    1.91
   1  -5   1  156.43    4.48
  -1   5  -2  149.53    4.33
  -1   5  -3   40.06    2.34
  -1   5  -4  317.60    6.77
  -1   5  -4  384.33    8.27
  -1   5  -5   90.00    3.80
  -1   5  -5  103.26    4.40
  -1   5  -5   97.47    4.18
  -1   5  -6 1580.66   17.46
  -1   5  -6 1547.98   16.45
  -1   5  -7  684.57   11.63
  -1   5  -7  691.39   12.14
  -1   5  -7  716.49   11.71
  -1   5  -8  272.86    7.47
  -1   5  -8  274.99    7.50
  -1   5  -8  283.65    7.96
  -1   5  -9  183.68    6.12
  -1   5  -9  185.79    6.54
  -1   5 -10    7.05    1.37
  -1   5 -10    8.41    1.37
  -1   5 -11   13.43    1.75
  -1   5 -12   56.41    3.24
  -1   5 -12   57.41    2.69
  -1   5 -13    8.36    0.93
  -1   5 -13    8.52    1.17
   1  -5  14    0.65    0.39
  -1   5 -14    1.20    0.45
   1  -4 -13   85.31    2.36
   1  -4 -12    9.06    1.00
   1  -4 -12    9.61    1.09
   1  -4 -11   57.52    2.71
   1  -4 -10  261.20    6.03
   1  -4 -10  254.70    6.14
   1  -4  -9    3.25    0.90
   1  -4  -9    4.57    0.95
   1  -4  -9    3.10    0.85
   1  -4  -9    2.57    0.80
   1  -4  -8   21.06    1.96
   1  -4  -8   16.87    1.67
   1  -4  -8   21.06    2.18
   1  -4  -8   19.62    1.84
   1  -4  -8   19.68    1.93
   1  -4  -7  105.16    3.97
   1  -4  -7  113.85    4.51
   1  -4  -7  110.42    4.41
   1  -4  -7  114.96    4.87
   1  -4  -6  807.52   10.58
   1  -4  -6  895.44   12.21
   1  -4  -6  830.99   11.76
   1  -4  -6  902.24   13.12
   1  -4  -5 1141.76   14.17
   1  -4  -5 1106.13   13.16
   1  -4  -5 1145.41   13.05
   1  -4  -4  341.63    6.70
   1  -4  -3    5.25    0.84
   1  -4  -2  850.07    9.19
   1  -4  -1 3595.29   18.24
  -1   4   0  610.08    6.87
   1  -4   0  630.69    7.65
  -1   4  -1    5.78    0.78
  -1   4  -2  192.21    4.40
  -1   4  -3  225.58    5.02
  -1   4  -4  142.54    4.16
  -1   4  -5  365.35    7.15
  -1   4  -6    7.36    1.13
  -1   4  -7    3.46    0.92
  -1   4  -7    3.83    0.86
  -1   4  -7    3.09    0.76
  -1   4  -8   81.44    3.74
  -1   4  -8   80.65    4.13
  -1   4  -8   80.94    3.74
  -1   4  -8   82.06    3.90
  -1   4  -9  131.41    5.14
  -1   4  -9  135.06    4.92
  -1   4  -9  129.84    5.02
  -1   4  -9  125.14    5.36
  -1   4 -10    0.11    0.48
  -1   4 -10    0.89    0.65
  -1   4 -11  197.07    6.56
  -1   4 -11  202.52    6.37
  -1   4 -12   65.05    3.60
  -1   4 -12   67.69    3.55
  -1   4 -13    8.52    1.25
  -1   4 -13    8.32    1.20
  -1   4 -14   12.62    1.21
  -1   4 -14   12.62    1.27
  -1   4 -15    0.35    0.27
   1  -3 -14    8.01    0.76
   1  -3 -13   95.08    3.06
   1  -3 -13  110.14    3.46
   1  -3 -12    4.18    0.96
   1  -3 -12    3.46    0.81
   1  -3 -11  677.60   10.95
   1  -3 -10  280.39    7.43
   1  -3 -10  280.31    6.73
   1  -3 -10  277.65    7.23
   1  -3  -9 1571.06   17.51
   1  -3  -9 1554.69   17.25
   1  -3  -9 1547.99   17.77
   1  -3  -9 1569.26   16.06
   1  -3  -8  301.01    7.49
   1  -3  -8  283.95    7.20
   1  -3  -8  274.31    6.91
   1  -3  -8  288.87    6.80
   1  -3  -8  288.43    7.48
   1  -3  -7  156.05    4.96
   1  -3  -7  139.96    4.61
   1  -3  -7  144.12    4.91
   1  -3  -7  151.19    5.21
   1  -3  -7  135.71    4.61
   1  -3  -6 1559.63   15.03
   1  -3  -5    1.70    0.57
   1  -3  -4 1261.30   11.25
   1  -3  -3   15.61    1.17
   1  -3  -2 2529.93   13.45
   1  -3  -1  732.77    6.91
  -1   3   1  770.02    5.59
  -1   3   0  126.40    2.75
  -1   3  -1  735.67    6.91
  -1   3  -2 1645.03   11.03
  -1   3  -3  285.79    4.88
  -1   3  -4  335.11    5.72
  -1   3  -5  775.77    9.47
  -1   3  -6 2371.43   16.94
  -1   3  -7  133.84    4.28
  -1   3  -8  157.39    5.50
  -1   3  -8  146.11    4.72
  -1   3  -9    7.82    1.32
  -1   3  -9    7.70    1.32
  -1   3 -10   62.28    3.46
  -1   3 -10   62.23    3.63
  -1   3 -10   58.57    3.50
  -1   3 -11  142.82    5.65
  -1   3 -11  132.66    5.19
  -1   3 -12  593.78   11.15
  -1   3 -12  567.56   10.43
  -1   3 -13   12.97    1.44
  -1   3 -13   12.67    1.64
  -1   3 -14   13.30    1.47
  -1   3 -15   -0.26    0.46
   1  -2 -15   56.07    1.78
   1  -2 -14   14.02    1.06
   1  -2 -14   16.46    1.33
   1  -2 -13   37.66    2.39
   1  -2 -13   35.13    2.06
   1  -2 -12   49.40    3.06
   1  -2 -12   44.50    2.65
   1  -2 -11   60.39    3.54
   1  -2 -10   29.18    2.39
   1  -2 -10   30.65    2.54
   1  -2  -9  153.42    5.51
   1  -2  -9  144.49    4.99
   1  -2  -9  145.97    4.73
   1  -2  -9  139.04    4.64
   1  -2  -8  395.89    7.82
   1  -2  -8  431.67    8.82
   1  -2  -8  420.47    8.21
   1  -2  -8  431.69    8.49
   1  -2  -8  401.74    7.73
   1  -2  -7  171.10    4.81
   1  -2  -6 2054.63   15.46
   1  -2  -5  221.66    4.74
   1  -2  -4 2596.45   14.90
   1  -2  -3 1504.70    9.82
   1  -2  -2 5012.01   16.19
   1  -2  -2 5071.47   18.06
  -1   2   1 5591.35   11.56
   1  -2  -1 5631.57   15.52
  -1   2   0 2840.80   10.27
   1  -2   0 2829.01    9.85
  -1   2  -1 9628.69   21.79
   1  -2   1 9757.17   14.67
  -1   2  -2 3353.78   13.63
  -1   2  -3   16.42    1.08
  -1   2  -4 1425.49   10.02
  -1   2  -5 2833.39   15.34
  -1   2  -6 3112.45   17.14
  -1   2  -7  384.86    6.37
  -1   2  -8  689.12    9.12
  -1   2  -9   22.60    1.78
  -1   2  -9   20.03    1.91
  -1   2 -10   14.79    1.85
  -1   2 -10   15.87    1.81
  -1   2 -10   14.85    1.60
  -1   2 -11  218.66    7.04
  -1   2 -11  209.03    6.18
  -1   2 -11  228.61    6.26
  -1   2 -12  110.12    4.92
  -1   2 -13   12.49    1.69
  -1   2 -14   19.92    1.83
  -1   2 -15    0.60    0.41
   1  -1 -15    1.01    0.39
   1  -1 -14    1.55    0.46
   1  -1 -14    0.91    0.51
   1  -1 -13  325.22    7.30
   1  -1 -13  335.97    6.25
   1  -1 -13  333.33    6.40
   1  -1 -12  930.72   11.42
   1  -1 -12  944.05   12.10
   1  -1 -11  150.48    5.04
   1  -1 -11  168.56    5.83
   1  -1 -10  305.37    7.12
   1  -1 -10  308.84    6.88
   1  -1  -9  120.62    4.23
   1  -1  -9  121.72    4.21
   1  -1  -9  124.53    4.75
   1  -1  -8  323.13    6.30
   1  -1  -8  328.44    6.56
   1  -1  -7  428.89    7.35
   1  -1  -6 1356.88   11.35
   1  -1  -5  894.46    8.63
   1  -1  -5  865.62    8.79
   1  -1  -4 4496.72    7.63
   1  -1  -4 4566.15   17.58
   1  -1  -3 2141.59   10.80
   1  -1  -2   27.16    0.45
   1  -1  -2   30.50    1.10
  -1   1   1 3873.35    7.76
   1  -1  -1 3907.04   10.52
  -1   1   0    0.26    0.12
  -1   1  -1 6765.92   14.34
  -1   1  -2  817.74    5.51
  -1   1  -3 2045.19    9.58
  -1   1  -4   52.62    1.69
  -1   1  -5  657.86    6.48
  -1   1  -6  377.81    5.33
  -1   1  -7  225.22    4.51
  -1   1  -8  308.69    5.66
  -1   1  -9   62.03    2.81
  -1   1  -9   52.61    3.08
  -1   1 -10   25.13    1.89
  -1   1 -10   22.01    1.75
  -1   1 -10   22.40    2.22
  -1   1 -10   22.39    2.12
  -1   1 -11  875.98   10.99
  -1   1 -11  802.24   13.37
  -1   1 -11  805.61   12.87
  -1   1 -11  892.03   11.34
  -1   1 -12   21.85    2.22
  -1   1 -12   21.36    2.13
  -1   1 -12   23.98    1.80
  -1   1 -13    0.34    0.55
  -1   1 -14    0.18    0.56
  -1   1 -15   61.32    2.46
   1   0 -15    3.25    0.58
   1   0 -15    4.42    0.68
   1   0 -14    0.67    0.49
   1   0 -14    1.66    0.62
   1   0 -13  114.17    4.28
   1   0 -12  750.26   11.86
   1   0 -11  190.22    6.09
   1   0 -10  155.58    5.35
   1   0 -10  165.48    5.52
   1   0  -9   34.30    2.41
   1   0  -9   31.60    1.88
   1   0  -9   32.51    2.32
   1   0  -8  371.14    6.13
   1   0  -7  378.37    4.97
   1   0  -7  373.82    6.23
   1   0  -7  371.30    5.62
   1   0  -6 1481.44    9.27
   1   0  -6 1468.20   11.74
   1   0  -6 1453.15   11.37
   1   0  -5 4501.46   15.30
   1   0  -5 4469.73   17.61
   1   0  -4   13.84    0.94
   1   0  -4   13.80    0.66
   1   0  -4   15.59    1.04
   1   0  -3 2765.68   12.19
   1   0  -3 2813.12    8.36
   1   0  -2 1248.84    7.23
   1   0  -2 1203.90    5.26
   1   0  -1 1615.08    5.69
   1   0  -1 1587.31    6.63
   1   0   0 2717.79    6.05
   1   0   0 2710.14    7.64
  -1   0  -1 2730.74    8.06
  -1   0  -2  225.93    2.57
  -1   0  -3 1316.43    6.91
  -1   0  -4  479.59    4.63
  -1   0  -4  507.10    5.30
  -1   0  -5   28.87    1.40
  -1   0  -5   31.13    1.28
  -1   0  -6  162.20    3.52
  -1   0  -6  177.24    3.27
  -1   0  -7  155.71    3.22
  -1   0  -7  140.05    3.46
  -1   0  -8  283.03    5.28
  -1   0  -9   21.92    2.04
  -1   0  -9   24.73    2.23
  -1   0  -9   26.23    1.89
  -1   0 -10  931.64   11.90
  -1   0 -10  932.97   11.76
  -1   0 -10  906.85   14.12
  -1   0 -11 1660.01   18.44
  -1   0 -11 1673.86   16.40
  -1   0 -11 1656.24   19.07
  -1   0 -11 1722.78   16.17
  -1   0 -12   33.98    2.58
  -1   0 -12   35.39    2.40
  -1   0 -12   34.97    2.73
  -1   0 -12   33.97    2.27
  -1   0 -13    0.47    0.58
  -1   0 -13    1.49    0.59
  -1   0 -13    0.88    0.52
  -1   0 -14    2.95    0.57
  -1   0 -14    2.14    0.57
  -1   0 -15    7.78    0.72
   1   1 -16    2.30    0.41
   1   1 -15   30.11    1.73
   1   1 -14    0.46    0.38
   1   1 -14    0.71    0.62
   1   1 -13   35.73    2.56
   1   1 -12  107.15    4.61
   1   1 -11   21.01    2.11
   1   1 -10   -0.32    0.62
   1   1  -9   61.90    3.25
   1   1  -8    0.86    0.40
   1   1  -7 2646.71   16.41
   1   1  -7 2670.98   12.04
   1   1  -6  160.06    3.32
   1   1  -6  166.85    3.99
   1   1  -5  936.07    7.99
   1   1  -5  919.96    7.61
   1   1  -4  327.62    4.49
   1   1  -4  340.68    2.63
   1   1  -3 1180.12    7.55
   1   1  -2 4962.91   14.56
   1   1  -1 2034.06    8.95
  -1  -1   0    1.63    0.19
   1   1   0    4.05    0.41
  -1  -1  -1 1855.75    7.29
  -1  -1  -1 1842.99    5.15
  -1  -1  -2 5583.80   10.50
  -1  -1  -2 5617.47   14.73
  -1  -1  -3   51.50    1.15
   1   1   3   52.88    1.61
  -1  -1  -4 3420.29   14.66
  -1  -1  -4 3429.89   10.39
  -1  -1  -5 2756.98   14.77
  -1  -1  -5 2759.55   10.39
  -1  -1  -6 1338.43   11.36
  -1  -1  -7  177.79    4.46
  -1  -1  -8  176.53    4.71
  -1  -1  -8  188.42    5.06
  -1  -1  -8  187.50    6.13
  -1  -1  -8  189.45    5.95
  -1  -1  -9  158.15    5.27
  -1  -1  -9  163.92    6.03
  -1  -1  -9  161.57    4.84
  -1  -1  -9  151.82    4.56
  -1  -1 -10  129.78    4.84
  -1  -1 -10  125.90    5.49
  -1  -1 -10  130.07    4.64
  -1  -1 -10  126.59    4.44
  -1  -1 -11   67.18    3.26
  -1  -1 -11   67.86    3.42
  -1  -1 -11   65.81    3.95
  -1  -1 -11   70.04    3.50
  -1  -1 -12  242.70    5.83
  -1  -1 -12  253.60    6.26
  -1  -1 -12  234.04    5.84
  -1  -1 -12  244.70    7.24
  -1  -1 -13    0.66    0.57
  -1  -1 -13    0.70    0.66
  -1  -1 -13    0.37    0.42
  -1  -1 -14   14.14    1.09
   1   2 -16    3.20    0.48
   1   2 -15   30.11    1.74
   1   2 -14   -0.10    0.58
   1   2 -13  475.25    8.96
   1   2 -12    7.31    1.34
   1   2 -11  328.70    7.49
   1   2 -11  338.67    8.08
   1   2 -10    2.61    0.81
   1   2 -10    1.49    0.53
   1   2  -9  117.08    4.44
   1   2  -9  125.14    4.66
   1   2  -8  162.04    4.90
   1   2  -7 1759.62   15.49
   1   2  -6  286.57    5.97
   1   2  -5  350.59    5.92
   1   2  -4    4.94    0.73
   1   2  -3 2928.07   14.94
   1   2  -2  868.48    7.65
   1   2  -1 1846.43   10.84
   1   2   0  902.99    7.37
   1   2   1 1387.69    9.08
   1   2   2   44.30    1.67
  -1  -2  -2   51.05    1.36
  -1  -2  -3 4620.48   17.70
  -1  -2  -3 4788.66   15.01
  -1  -2  -4  564.28    5.51
   1   2   4  453.38    5.22
  -1  -2  -5  343.62    5.86
  -1  -2  -6   18.74    1.54
  -1  -2  -7   26.92    1.87
  -1  -2  -7   25.65    1.94
  -1  -2  -7   31.65    2.48
  -1  -2  -7   25.35    2.32
  -1  -2  -8  169.72    6.01
  -1  -2  -8  169.05    6.18
  -1  -2  -8  155.86    4.66
  -1  -2  -8  160.02    5.03
  -1  -2  -9  669.64   12.53
  -1  -2  -9  666.14   12.19
  -1  -2  -9  642.09    9.77
  -1  -2  -9  652.74   10.18
  -1  -2 -10  348.02    7.79
  -1  -2 -10  342.93    8.97
  -1  -2 -10  324.15    7.16
  -1  -2 -10  331.50    8.89
  -1  -2 -11    1.26    0.89
  -1  -2 -11    0.19    0.83
  -1  -2 -11    1.37    0.74
  -1  -2 -12    1.07    0.75
  -1  -2 -12    0.77    0.65
  -1  -2 -12    0.59    0.54
  -1  -2 -13    2.35    0.59
  -1  -2 -13    3.18    0.79
  -1  -2 -13    2.34    0.64
   1   3 -15    1.16    0.41
   1   3 -14   23.28    1.68
   1   3 -13  240.20    5.82
   1   3 -13  231.41    5.78
   1   3 -12   96.40    4.05
   1   3 -12  101.23    4.11
  -1  -3  12   96.46    4.26
   1   3 -11   47.51    3.03
   1   3 -11   50.34    3.01
   1   3 -10   85.09    4.33
   1   3 -10   76.42    3.86
   1   3 -10   73.39    3.59
   1   3  -9    4.79    0.98
   1   3  -9    3.86    0.85
   1   3  -9    5.00    1.05
   1   3  -8  511.61    9.54
   1   3  -8  507.50    9.78
   1   3  -7   42.15    2.76
   1   3  -6  380.91    7.68
   1   3  -5    8.55    1.14
   1   3  -4   13.11    1.31
   1   3  -3   36.22    2.07
   1   3  -2 1035.54   10.34
   1   3  -1  490.54    6.75
   1   3   0 2781.18   15.59
   1   3   1 2001.17   13.31
  -1  -3  -1 1974.24   10.69
   1   3   2  349.85    5.54
  -1  -3  -2  371.83    4.70
   1   3   3   14.65    1.13
  -1  -3  -3   17.54    1.29
  -1  -3  -4  487.94    7.13
  -1  -3  -5 1079.83   11.58
  -1  -3  -5 1039.03   13.22
  -1  -3  -6   10.49    1.47
  -1  -3  -6   11.42    1.24
  -1  -3  -6   12.29    1.65
  -1  -3  -6   13.83    1.48
  -1  -3  -7  124.02    4.09
  -1  -3  -7  133.12    4.70
  -1  -3  -7  133.35    5.44
  -1  -3  -7  121.47    5.16
  -1  -3  -8  102.36    4.17
  -1  -3  -8   96.26    4.72
  -1  -3  -8   92.05    4.59
  -1  -3  -8   93.35    3.68
  -1  -3  -9   23.18    2.40
  -1  -3  -9   26.83    2.02
  -1  -3  -9   22.17    2.35
  -1  -3 -10   82.77    3.72
  -1  -3 -10   74.64    4.10
  -1  -3 -10   79.02    3.38
  -1  -3 -10   75.71    4.01
  -1  -3 -11   52.07    3.07
  -1  -3 -11   53.49    2.80
  -1  -3 -11   52.09    2.56
  -1  -3 -12   37.93    2.32
  -1  -3 -12   38.11    2.07
  -1  -3 -13    3.18    0.56
  -1  -4  14    1.32    0.47
   1   4 -14    1.82    0.48
   1   4 -13   21.57    1.80
  -1  -4  13   26.82    2.07
   1   4 -13   23.11    1.58
   1   4 -12    6.59    1.20
  -1  -4  12    7.06    1.27
   1   4 -12    6.36    0.97
   1   4 -11  448.67    7.92
   1   4 -11  422.28    9.12
   1   4 -10    7.56    1.07
   1   4 -10    1.81    0.85
   1   4  -9    4.13    1.15
   1   4  -9    6.15    1.39
   1   4  -8 2060.53   21.73
   1   4  -8 1994.28   19.98
   1   4  -7  317.53    7.81
   1   4  -7  301.49    7.46
   1   4  -7  307.00    8.06
   1   4  -6   88.76    3.85
   1   4  -6   93.45    4.09
   1   4  -6   91.59    4.19
   1   4  -5  179.57    5.71
   1   4  -5  189.69    5.98
   1   4  -4  454.28    8.68
   1   4  -4  430.75    8.22
   1   4  -3  626.69    9.75
   1   4  -2   58.85    2.91
   1   4  -1    4.21    0.89
   1   4   0 1796.96   15.88
   1   4   1  390.78    7.28
  -1  -4  -2  353.21    5.91
   1   4   2  384.81    7.07
  -1  -4  -3  109.66    3.49
  -1  -4  -3  114.93    4.30
  -1  -4  -3  118.05    3.92
  -1  -4  -4  696.10    9.82
  -1  -4  -4  680.19    9.26
  -1  -4  -4  675.23   11.01
  -1  -4  -4  680.28    8.46
  -1  -4  -4  694.24    9.63
  -1  -4  -5  286.03    6.16
  -1  -4  -5  278.71    7.57
  -1  -4  -5  281.30    6.41
  -1  -4  -5  278.41    5.73
  -1  -4  -6   68.03    3.84
  -1  -4  -6   63.61    2.86
  -1  -4  -6   68.50    3.35
  -1  -4  -6   68.95    3.03
  -1  -4  -6   70.33    3.81
  -1  -4  -7  390.64    9.47
  -1  -4  -7  383.10    7.02
  -1  -4  -7  403.76    9.11
  -1  -4  -8    0.89    0.50
  -1  -4  -8   -0.02    0.73
  -1  -4  -8    0.34    0.61
  -1  -4  -9   42.93    3.02
  -1  -4  -9   42.73    2.82
  -1  -4  -9   41.98    2.52
  -1  -4 -10    2.19    0.72
  -1  -4 -10    2.50    0.72
  -1  -4 -10    2.17    0.86
  -1  -4 -11    5.53    0.83
  -1  -4 -11    5.41    0.83
  -1  -4 -12   32.90    1.51
  -1  -5  14  105.51    3.04
  -1  -5  13  154.35    4.47
  -1  -5  12   19.38    1.87
   1   5 -12   19.40    1.80
  -1  -5  11    2.83    0.85
   1   5 -11    4.16    1.09
   1   5 -10  385.17    8.92
   1   5  -9 3607.44   27.25
   1   5  -8  572.44   10.86
   1   5  -8  569.68   11.28
   1   5  -7   27.14    2.60
   1   5  -7   25.15    2.32
   1   5  -7   28.78    2.57
   1   5  -6  908.43   14.31
   1   5  -6  900.39   12.94
   1   5  -6  913.87   13.97
   1   5  -5  311.85    7.36
   1   5  -5  331.57    8.24
   1   5  -5  327.05    8.38
  -1  -5   4   14.77    1.66
   1   5  -4   16.35    1.90
   1   5  -4   15.66    1.62
   1   5  -4   15.86    1.81
   1   5  -3  382.32    8.58
  -1  -5   3  387.56    8.19
   1   5  -3  379.44    8.26
   1   5  -2  374.99    8.26
   1   5  -2  344.75    7.57
  -1  -5   2  360.52    7.79
   1   5  -2  363.46    8.85
   1   5  -1  308.28    8.03
  -1  -5   1  303.15    7.03
  -1  -5   1  326.92    7.13
  -1  -5   0   86.39    3.72
  -1  -5   0   90.67    3.86
   1   5   0   91.21    4.30
  -1  -5  -1   81.61    3.60
  -1  -5  -1   78.40    3.76
  -1  -5  -2  535.43    9.23
  -1  -5  -2  527.62   10.08
  -1  -5  -3   62.11    3.59
  -1  -5  -3   76.65    3.49
  -1  -5  -4  218.20    5.83
  -1  -5  -4  228.40    7.01
  -1  -5  -5  312.14    6.81
  -1  -5  -5  314.28    8.30
  -1  -5  -6   96.99    4.66
  -1  -5  -6   97.87    3.63
  -1  -5  -7  243.34    7.17
  -1  -5  -8   42.18    2.83
  -1  -5  -8   42.02    2.21
  -1  -5  -9   13.77    1.21
  -1  -5  -9   12.94    1.47
  -1  -5 -10   27.19    1.44
  -1  -6  13   37.92    1.91
  -1  -6  12   43.68    2.36
  -1  -6  11   13.01    1.50
  -1  -6  10   19.03    1.87
   1   6  -9  237.04    6.69
  -1  -6   9  236.59    6.56
  -1  -6   8    2.34    0.90
   1   6  -8    1.28    0.76
   1   6  -7   53.04    3.54
   1   6  -7   50.07    3.16
   1   6  -6  958.57   14.74
  -1  -6   5 1315.33   14.62
   1   6  -5 1366.61   17.28
   1   6  -4   46.25    3.17
   1   6  -3 1046.44   14.27
  -1  -6   3 1055.27   14.52
  -1  -6   2  340.12    8.16
  -1  -6   2  364.15    8.10
   1   6  -2  341.41    7.81
  -1  -6   1  761.48   12.06
  -1  -6   1  790.29   12.08
  -1  -6   0   70.13    3.67
  -1  -6   0   68.24    3.70
  -1  -6  -1 1727.90   17.58
  -1  -6  -1 1749.56   18.85
  -1  -6  -2  522.66    9.50
  -1  -6  -2  545.64   10.65
  -1  -6  -3   18.67    2.10
  -1  -6  -3   19.30    1.82
  -1  -6  -4  128.64    4.40
  -1  -6  -4  142.11    5.37
  -1  -6  -5    7.56    1.06
  -1  -6  -5    6.15    1.21
  -1  -6  -6   62.18    2.67
  -1  -6  -6   63.58    3.34
  -1  -6  -7    0.01    0.43
  -1  -6  -8   -0.02    0.36
  -1  -7  11   19.83    1.36
  -1  -7  10    9.98    1.10
  -1  -7   9    5.59    0.89
  -1  -7   8   85.32    3.32
  -1  -7   7   27.87    1.94
  -1  -7   6  135.13    4.16
  -1  -7   5  411.50    7.95
  -1  -7   4   85.67    3.74
  -1  -7   3   23.22    2.02
  -1  -7   2   28.98    2.30
  -1  -7   1  120.78    4.72
  -1  -7   1  117.48    4.59
  -1  -7   0   78.15    3.70
  -1  -7   0   76.91    3.70
  -1  -7  -1  203.61    5.75
  -1  -7  -1  209.74    6.02
  -1  -7  -2   82.19    3.73
  -1  -7  -2   80.37    3.46
  -1  -7  -3  107.19    3.74
  -1  -7  -3  109.38    4.14
  -1  -7  -4    3.67    0.80
  -1  -7  -4    3.22    0.67
  -1  -7  -5    2.53    0.62
  -1  -8   8    3.17    0.53
  -1  -8   7   83.61    2.72
  -1  -8   6   36.55    1.94
  -1  -8   5  160.51    4.21
  -1  -8   4   10.45    1.15
  -1  -8   3    1.69    0.58
  -1  -8   2   -0.36    0.43
  -1  -8   1    9.92    1.11
  -1  -8   0    5.29    0.82
  -1  -8  -1   18.58    1.34
  -2   9  -4   20.42    1.41
  -2   9  -5   21.46    1.47
   2  -8  -5    5.67    0.77
   2  -8  -4   38.94    2.09
   2  -8  -3   42.89    2.32
   2  -8  -2    3.41    0.84
   2  -8  -1  168.86    4.93
   2  -8   0  186.51    5.25
   2  -8   1   69.62    3.21
  -2   8  -1   69.63    3.24
   2  -8   2   42.06    2.47
  -2   8  -2   42.55    2.66
  -2   8  -3    9.92    1.39
  -2   8  -4   52.32    3.06
  -2   8  -5    8.19    1.27
  -2   8  -6   29.97    2.30
  -2   8  -7    1.82    0.73
  -2   8  -8  263.92    6.18
  -2   8  -9    4.92    0.86
   2  -8  10  157.77    3.57
   2  -7  -8   26.04    1.46
   2  -7  -7    5.30    0.83
   2  -7  -6   95.42    3.69
   2  -7  -6   92.56    3.52
   2  -7  -5   21.75    1.89
   2  -7  -5   23.02    1.95
   2  -7  -4   19.47    1.85
   2  -7  -4   16.23    1.71
   2  -7  -3   40.65    2.71
   2  -7  -3   35.43    2.54
   2  -7  -2   44.06    2.83
   2  -7  -2   39.01    2.65
   2  -7  -1  247.76    6.56
   2  -7  -1  264.65    6.78
   2  -7   0   52.68    3.02
  -2   7   0   49.33    3.11
   2  -7   1   53.40    3.02
  -2   7  -1   54.05    3.35
   2  -7   2   45.06    2.74
  -2   7  -2   43.15    3.06
   2  -7   3  823.39   11.42
  -2   7  -3  781.05   13.12
  -2   7  -4  293.09    8.04
  -2   7  -5   33.53    2.78
  -2   7  -6  129.98    4.80
  -2   7  -6  129.22    5.37
  -2   7  -7  753.18   11.73
  -2   7  -7  758.35   12.69
  -2   7  -8   64.19    3.42
  -2   7  -8   71.21    3.81
  -2   7  -9   56.96    3.09
  -2   7  -9   60.97    3.31
  -2   7 -10  211.30    5.57
  -2   7 -10  229.13    5.93
  -2   7 -11   29.62    1.93
  -2   7 -12    1.21    0.40
   2  -6 -10    0.55    0.31
   2  -6  -9    1.69    0.53
   2  -6  -8   59.24    2.86
   2  -6  -7  211.52    5.88
   2  -6  -7  213.96    6.41
   2  -6  -6  202.71    6.03
   2  -6  -6  207.62    6.56
   2  -6  -5  266.01    7.00
   2  -6  -5  269.42    7.70
   2  -6  -4  846.88   13.71
   2  -6  -4  810.54   12.18
   2  -6  -3    3.57    0.97
   2  -6  -2   32.50    2.41
   2  -6  -2   34.88    2.59
  -2   6   1    0.98    0.58
   2  -6  -1    0.85    0.57
   2  -6   0  314.60    7.26
  -2   6   0  306.44    8.06
   2  -6   0  289.86    6.88
   2  -6   1  330.53    7.33
   2  -6   1  310.75    7.00
  -2   6  -1  319.30    8.34
   2  -6   2  214.77    5.73
  -2   6  -2  225.85    7.15
   2  -6   3  750.27   11.20
  -2   6  -3  655.10   12.31
  -2   6  -4  639.88   12.01
  -2   6  -4  620.92   10.48
  -2   6  -5    0.57    0.79
  -2   6  -5    1.37    0.69
  -2   6  -5    0.26    0.50
  -2   6  -6   15.63    1.92
  -2   6  -6   18.10    2.15
  -2   6  -7    1.60    0.84
  -2   6  -7    1.26    0.84
  -2   6  -8  738.42   12.87
  -2   6  -8  748.57   12.66
  -2   6  -9  117.19    4.88
  -2   6  -9  106.82    4.91
  -2   6 -10  122.24    5.05
  -2   6 -10  132.22    4.92
  -2   6 -11  129.90    4.87
  -2   6 -12   54.22    2.83
  -2   6 -13    2.17    0.56
   2  -5 -12    4.45    0.57
   2  -5 -11   29.99    1.43
   2  -5 -11   32.79    1.67
   2  -5 -10  163.32    3.93
   2  -5 -10  174.29    4.73
   2  -5  -9  162.93    5.57
   2  -5  -9  162.21    5.13
   2  -5  -9  153.39    4.21
   2  -5  -8  137.70    5.06
   2  -5  -8  126.46    3.98
   2  -5  -8  135.17    5.29
   2  -5  -7    0.94    0.71
   2  -5  -7    0.58    0.64
   2  -5  -6  304.21    7.78
   2  -5  -6  298.21    8.23
   2  -5  -5  866.81   13.82
   2  -5  -5  876.92   12.90
   2  -5  -4  168.72    5.57
   2  -5  -4  157.82    5.37
   2  -5  -3   11.14    1.43
   2  -5  -3    6.64    1.18
   2  -5  -2  872.48   11.52
   2  -5  -2  842.97   11.63
   2  -5  -1   26.84    2.02
   2  -5  -1  167.90    4.77
   2  -5   0  149.16    4.38
   2  -5   1  355.74    6.75
  -2   5  -2  651.30    9.22
  -2   5  -3    5.76    1.17
  -2   5  -3    7.71    1.13
  -2   5  -4  122.87    4.37
  -2   5  -4  143.66    5.44
  -2   5  -5  227.74    6.14
  -2   5  -5  235.73    6.85
  -2   5  -6  119.22    4.60
  -2   5  -6  113.21    4.95
  -2   5  -6  119.58    4.88
  -2   5  -7  223.16    7.20
  -2   5  -7  226.95    6.79
  -2   5  -7  231.86    6.64
  -2   5  -8   96.38    4.39
  -2   5  -8  101.23    4.92
  -2   5  -9    4.79    1.11
  -2   5  -9    8.56    1.35
  -2   5 -10   22.37    2.39
  -2   5 -10   21.96    2.02
  -2   5 -10   22.69    2.07
  -2   5 -11   18.39    2.07
  -2   5 -11   20.32    1.90
  -2   5 -12  176.61    5.74
  -2   5 -12  183.97    5.09
  -2   5 -13   12.26    1.37
  -2   5 -13   11.47    1.14
  -2   5 -14   16.58    1.26
   2  -4 -13    0.97    0.36
   2  -4 -13    0.69    0.32
   2  -4 -12   13.12    1.21
   2  -4 -11  124.01    4.11
   2  -4 -11  132.23    4.27
   2  -4 -10  211.10    6.13
   2  -4 -10  203.74    5.70
   2  -4  -9   56.65    3.45
   2  -4  -9   53.00    3.06
   2  -4  -9   60.33    3.47
   2  -4  -8  214.47    6.49
   2  -4  -8  217.14    6.77
   2  -4  -7  695.47   11.42
   2  -4  -7  737.15   12.54
   2  -4  -6    4.69    1.11
   2  -4  -6    5.51    1.07
   2  -4  -6    4.52    0.98
   2  -4  -5   14.15    1.55
   2  -4  -5   14.67    1.57
   2  -4  -4    2.39    0.71
   2  -4  -3  330.31    6.44
   2  -4  -2  199.00    4.68
   2  -4  -1  348.77    5.91
  -2   4   0 1759.10   11.79
   2  -4   0 1624.48   12.43
  -2   4  -1  573.02    7.42
  -2   4  -2    1.66    0.49
  -2   4  -3  357.46    6.59
  -2   4  -4   47.21    2.48
  -2   4  -5  647.03    9.51
  -2   4  -6 1321.21   14.22
  -2   4  -7   35.58    2.45
  -2   4  -7   39.29    2.61
  -2   4  -7   36.43    2.85
  -2   4  -8  159.22    6.15
  -2   4  -8  149.97    4.99
  -2   4  -9   66.18    4.08
  -2   4  -9   72.84    3.84
  -2   4 -10  355.36    8.80
  -2   4 -10  364.55    9.34
  -2   4 -11  297.33    8.06
  -2   4 -11  289.12    8.13
  -2   4 -12   39.72    2.84
  -2   4 -12   46.75    3.06
  -2   4 -13    2.71    0.79
  -2   4 -13    2.33    0.70
  -2   4 -14   28.32    1.87
  -2   4 -14   26.78    1.67
  -2   4 -15   21.94    1.23
   2  -3 -14   45.38    1.85
   2  -3 -13    5.92    0.94
   2  -3 -13    6.17    0.82
   2  -3 -12   39.09    2.59
   2  -3 -11   65.81    3.35
   2  -3 -10    2.34    0.82
   2  -3  -9    2.56    0.91
   2  -3  -9    2.09    0.82
   2  -3  -9    1.93    0.75
   2  -3  -9    1.46    0.81
   2  -3  -8   61.74    3.44
   2  -3  -8   62.50    3.55
   2  -3  -8   63.28    3.40
   2  -3  -7 1095.18   12.85
   2  -3  -7 1115.60   14.27
   2  -3  -7 1089.27   13.55
   2  -3  -7 1075.89   13.55
   2  -3  -6  554.97    9.51
   2  -3  -5  173.82    4.86
   2  -3  -4  422.84    6.99
   2  -3  -3  880.51   10.16
   2  -3  -3  946.20    9.50
   2  -3  -2  424.89    5.98
   2  -3  -2  418.77    6.50
   2  -3  -1  430.02    5.59
  -2   3   1  434.89    4.49
   2  -3   0 6139.75   20.52
   2  -3   0 6129.21   19.48
  -2   3  -1 2050.27   12.48
   2  -3   1 2135.08   10.27
   2  -3   2   56.68    1.32
  -2   3  -2   63.18    2.30
  -2   3  -3    8.70    0.96
  -2   3  -4   20.45    1.48
  -2   3  -5   21.15    1.60
  -2   3  -6 1402.55   13.27
  -2   3  -7    5.58    1.05
  -2   3  -8  285.35    7.92
  -2   3  -8  269.62    6.50
  -2   3  -9  253.15    7.64
  -2   3  -9  264.09    6.78
  -2   3 -10  156.49    6.04
  -2   3 -10  160.89    5.37
  -2   3 -11  262.01    7.78
  -2   3 -11  247.79    7.45
  -2   3 -12   47.31    3.31
  -2   3 -12   52.41    3.19
  -2   3 -13   80.33    3.49
  -2   3 -13   81.36    3.96
  -2   3 -14    0.25    0.48
  -2   3 -15   36.62    1.86
   2  -2 -15    0.25    0.24
   2  -2 -14   14.96    1.34
   2  -2 -13   26.55    1.65
   2  -2 -12   14.09    1.27
   2  -2 -11  196.99    5.99
   2  -2 -11  196.56    4.89
   2  -2 -10   13.36    1.57
   2  -2 -10   14.72    1.38
   2  -2 -10   14.90    1.76
   2  -2  -9    4.18    0.97
   2  -2  -9    4.08    1.02
   2  -2  -9    1.43    0.51
   2  -2  -9    0.30    0.53
   2  -2  -9    1.71    0.77
   2  -2  -8   78.92    3.61
   2  -2  -8   72.00    2.79
   2  -2  -8   76.16    3.50
   2  -2  -7 1033.27   13.11
   2  -2  -6   19.87    1.66
   2  -2  -6   18.39    1.72
   2  -2  -5    3.34    0.82
   2  -2  -5    1.94    0.65
   2  -2  -4 2529.00   16.70
   2  -2  -4 2686.07   16.07
   2  -2  -3   37.01    1.73
   2  -2  -3   35.65    1.90
   2  -2  -2  377.01    5.58
   2  -2  -2  391.79    4.99
  -2   2   1   31.45    1.11
   2  -2  -1   29.38    1.25
  -2   2   0 2332.21   10.44
   2  -2   0 2370.10   10.28
  -2   2  -1 1172.38    8.16
  -2   2  -2   43.73    1.69
  -2   2  -3  184.53    3.72
  -2   2  -4    1.68    0.50
  -2   2  -5 1827.93   13.07
  -2   2  -6 1861.31   13.88
  -2   2  -7  181.83    4.63
  -2   2  -8    1.84    0.63
  -2   2  -8    5.79    1.19
  -2   2  -9  499.22    8.45
  -2   2  -9  493.84   10.20
  -2   2 -10  394.98    9.15
  -2   2 -11    4.71    1.02
  -2   2 -11    6.00    1.32
  -2   2 -11    6.04    1.14
  -2   2 -12   11.83    1.77
  -2   2 -13   11.11    1.56
  -2   2 -14    4.77    0.96
  -2   2 -15   32.03    1.75
   2  -1 -15    1.02    0.32
   2  -1 -15    0.46    0.31
   2  -1 -14    5.65    0.75
   2  -1 -14    6.78    1.06
   2  -1 -13   63.37    2.77
   2  -1 -12   76.85    3.29
   2  -1 -11   35.62    2.63
   2  -1 -11   32.59    2.28
   2  -1 -10   67.17    3.18
   2  -1  -9   18.29    1.59
   2  -1  -9   16.97    1.57
   2  -1  -9   17.20    1.74
   2  -1  -8  282.09    5.68
   2  -1  -8  308.23    6.91
   2  -1  -7   48.81    2.52
   2  -1  -7   51.54    2.75
   2  -1  -6  786.37    9.45
   2  -1  -6  752.16    9.57
   2  -1  -5  666.99    8.00
   2  -1  -5  656.35    8.60
   2  -1  -4   94.94    3.04
   2  -1  -4   93.42    1.48
   2  -1  -3  622.31    4.28
   2  -1  -3  637.84    6.51
   2  -1  -2 9180.95   22.64
   2  -1  -2 9301.33   16.03
   2  -1   0 2396.97    8.70
  -2   1   0 2432.74    9.84
   2  -1   1  201.73    2.24
  -2   1  -1  192.50    2.96
  -2   1  -2  875.52    6.79
  -2   1  -3 1939.07   10.90
  -2   1  -4  649.55    6.71
  -2   1  -5  198.51    3.96
  -2   1  -6    1.13    0.36
  -2   1  -7  364.33    6.10
  -2   1  -8  160.50    4.18
  -2   1  -8  178.01    4.70
  -2   1  -9  280.17    6.25
  -2   1  -9  271.45    7.43
  -2   1 -10 1140.95   13.13
  -2   1 -10 1158.43   11.62
  -2   1 -11   29.77    2.71
  -2   1 -11   30.14    2.60
  -2   1 -12    4.06    0.98
  -2   1 -12    2.85    1.05
  -2   1 -13    7.51    1.25
  -2   1 -13    6.19    1.09
  -2   1 -14    3.88    0.79
  -2   1 -15   43.47    1.79
   2   0 -15    4.06    0.66
   2   0 -15    4.65    0.65
   2   0 -14   10.60    1.17
   2   0 -13   80.95    3.42
   2   0 -12  257.55    6.60
   2   0 -11    1.57    0.71
   2   0 -10   22.59    2.03
   2   0  -9  384.84    7.82
   2   0  -8  227.52    5.84
   2   0  -7   86.83    2.53
   2   0  -7   89.38    3.27
   2   0  -7   89.74    2.85
   2   0  -6    9.67    1.08
   2   0  -6   12.72    1.23
   2   0  -5  198.01    4.49
   2   0  -5  169.05    3.01
   2   0  -4  248.60    3.52
   2   0  -4  268.52    4.52
   2   0  -3 1298.76    7.95
   2   0  -3 1382.03    9.18
   2   0  -2 1228.55    7.59
   2   0  -2 1360.61    8.33
   2   0  -1 9999.00   19.76
   2   0  -1 9722.42   20.26
   2   0   0 8485.87   18.26
   2   0   0 8483.05   14.09
   2   0   1  125.09    2.44
  -2   0  -2  201.31    3.11
  -2   0  -3 1406.99    8.67
  -2   0  -4   71.82    2.06
  -2   0  -5    1.40    0.36
  -2   0  -6  426.09    5.70
  -2   0  -7  228.95    4.34
  -2   0  -8  832.66   13.20
  -2   0  -8  859.34   10.21
  -2   0  -8  857.99   12.77
  -2   0  -9  157.42    4.76
  -2   0  -9  162.95    4.65
  -2   0  -9  158.02    6.06
  -2   0 -10  221.60    7.27
  -2   0 -10  216.89    6.84
  -2   0 -10  231.31    5.57
  -2   0 -11   22.57    2.36
  -2   0 -11   17.56    2.01
  -2   0 -11   20.64    1.71
  -2   0 -11   20.16    1.90
  -2   0 -12    9.64    1.53
  -2   0 -12    8.58    1.36
  -2   0 -12   10.23    1.13
  -2   0 -13   28.57    2.04
  -2   0 -13   26.29    2.13
  -2   0 -14   21.36    1.40
   2   1 -16   34.01    1.34
   2   1 -15   29.88    1.64
   2   1 -14   35.55    2.12
   2   1 -13   78.72    3.50
   2   1 -12    7.63    1.29
   2   1 -11  554.03    9.97
   2   1 -10  129.45    4.80
   2   1  -9 1423.93   15.20
   2   1  -8  238.59    5.57
   2   1  -8  223.80    5.59
   2   1  -7  419.90    6.80
   2   1  -6  308.87    5.42
   2   1  -6  312.33    5.38
   2   1  -5  464.75    6.27
   2   1  -4    2.96    0.50
   2   1  -3  864.26    7.77
   2   1  -2 4040.30   16.81
   2   1  -1   66.69    2.05
   2   1   0 1866.34   11.20
   2   1   1  293.18    4.59
  -2  -1  -2  131.15    2.49
   2   1   2  158.98    3.47
  -2  -1  -3   42.42    1.57
   2   1   3   51.24    1.97
  -2  -1  -4  943.94    7.90
   2   1   4 1027.48    9.19
  -2  -1  -5   46.78    1.95
   2   1   5   63.38    2.43
  -2  -1  -6    5.69    0.77
  -2  -1  -7   17.38    1.46
  -2  -1  -7   17.53    1.85
  -2  -1  -7   20.72    2.10
  -2  -1  -7   19.37    1.56
  -2  -1  -8    7.54    1.07
  -2  -1  -8    6.50    1.03
  -2  -1  -8    6.86    1.32
  -2  -1  -8    6.27    1.36
  -2  -1  -9  197.38    5.52
  -2  -1  -9  196.99    6.78
  -2  -1  -9  194.85    5.24
  -2  -1  -9  185.60    6.85
  -2  -1 -10  190.45    5.59
  -2  -1 -10  174.00    5.05
  -2  -1 -10  183.35    6.76
  -2  -1 -11   22.88    2.46
  -2  -1 -11   25.80    2.16
  -2  -1 -11   22.01    1.80
  -2  -1 -12   71.31    3.74
  -2  -1 -12   80.97    3.48
  -2  -1 -12   76.72    2.89
  -2  -1 -13   53.01    2.86
   2   2 -16   79.37    1.96
   2   2 -15   49.64    2.01
   2   2 -14    1.54    0.59
   2   2 -13   89.63    3.56
   2   2 -12  431.18    8.41
  -2  -2  11  551.06   10.13
   2   2 -11  570.01    9.74
   2   2 -11  559.11    9.66
  -2  -2  10   48.81    3.08
   2   2 -10   45.63    2.80
   2   2 -10   46.07    2.85
  -2  -2   9  317.50    7.67
   2   2  -9  308.57    6.95
   2   2  -9  309.47    7.19
   2   2  -9  290.70    7.42
   2   2  -8    2.03    0.79
   2   2  -8    3.23    0.89
   2   2  -7  459.20    8.25
   2   2  -6  434.61    7.58
   2   2  -5  268.13    5.72
   2   2  -4 1881.67   14.12
   2   2  -3 2446.53   15.78
   2   2  -2 3141.71   17.34
   2   2  -1  440.80    6.43
   2   2   0  241.34    4.81
  -2  -2   0  235.33    2.84
  -2  -2  -1  407.63    4.64
   2   2   1  418.84    6.57
  -2  -2  -2  795.08    7.30
   2   2   2  853.85    9.54
  -2  -2  -3  558.36    6.64
   2   2   3  607.62    8.29
  -2  -2  -4   80.81    2.71
   2   2   4   91.92    3.22
  -2  -2  -5  555.21    7.52
  -2  -2  -6   37.70    2.86
  -2  -2  -6   37.70    2.15
  -2  -2  -6   33.12    2.51
  -2  -2  -6   28.86    1.83
  -2  -2  -7   26.62    1.84
  -2  -2  -7   30.95    2.75
  -2  -2  -7   30.64    2.08
  -2  -2  -7   29.38    2.54
  -2  -2  -7   32.51    2.08
  -2  -2  -8  281.12    6.61
  -2  -2  -8  284.71    8.56
  -2  -2  -8  278.31    8.02
  -2  -2  -8  279.23    6.16
  -2  -2  -9   11.13    1.73
  -2  -2  -9   16.57    1.73
  -2  -2  -9   15.92    2.08
  -2  -2  -9   13.77    1.47
  -2  -2 -10    2.50    0.92
  -2  -2 -10    1.38    0.95
  -2  -2 -10    3.86    0.92
  -2  -2 -10    5.27    1.38
  -2  -2 -11    8.91    1.32
  -2  -2 -11    7.48    1.42
  -2  -2 -12    0.86    0.62
  -2  -2 -12    1.55    0.64
  -2  -2 -13   28.09    1.85
   2   3 -15  126.96    2.79
   2   3 -14   48.85    2.13
   2   3 -13   15.12    1.40
  -2  -3  13   12.99    1.46
  -2  -3  12  425.12    8.83
   2   3 -12  419.86    7.51
   2   3 -11  303.21    6.68
   2   3 -11  309.41    7.64
  -2  -3  11  321.85    8.17
  -2  -3  10  263.16    7.55
   2   3 -10  250.85    6.09
   2   3 -10  242.39    6.92
   2   3  -9  274.30    8.00
   2   3  -9  284.37    6.25
   2   3  -9  287.93    7.48
   2   3  -8 1223.68   15.16
   2   3  -8 1237.89   16.71
   2   3  -7 1979.63   18.19
   2   3  -7 1955.15   19.66
   2   3  -7 1971.58   20.23
   2   3  -6   89.09    4.01
   2   3  -5   61.66    3.21
   2   3  -4  279.63    6.54
   2   3  -3 3647.31   22.56
   2   3  -2  225.23    5.51
   2   3  -1 1368.72   13.60
   2   3   0    4.05    0.85
  -2  -3  -1  818.26    7.36
   2   3   1  788.98   10.69
   2   3   2  686.94    9.91
  -2  -3  -2  690.34    7.66
  -2  -3  -3   19.70    1.44
   2   3   3   20.87    1.75
  -2  -3  -4  121.52    3.68
  -2  -3  -4  124.85    4.91
  -2  -3  -4  128.62    4.77
  -2  -3  -5   42.84    2.31
  -2  -3  -5   44.57    3.13
  -2  -3  -5   45.27    3.00
  -2  -3  -5   44.53    2.28
  -2  -3  -6    8.69    1.56
  -2  -3  -6    6.38    0.98
  -2  -3  -6    8.08    1.43
  -2  -3  -6    8.51    1.08
  -2  -3  -7   71.54    4.26
  -2  -3  -7   69.65    3.27
  -2  -3  -7   76.54    4.27
  -2  -3  -7   71.66    3.07
  -2  -3  -8   -0.22    0.62
  -2  -3  -8    0.28    0.78
  -2  -3  -8    2.28    0.71
  -2  -3  -8    0.30    0.77
  -2  -3  -9    5.19    1.04
  -2  -3  -9    5.01    1.28
  -2  -3  -9    6.17    1.38
  -2  -3 -10    3.34    0.85
  -2  -3 -10    2.62    0.90
  -2  -3 -10    1.56    0.84
  -2  -3 -11   21.29    1.59
  -2  -3 -11   20.72    1.85
  -2  -3 -12    7.69    0.97
  -2  -4  14   18.65    1.34
  -2  -4  13   73.85    3.24
   2   4 -13   75.93    2.38
  -2  -4  12    6.95    1.22
   2   4 -12    8.42    0.94
  -2  -4  11   79.53    4.04
  -2  -4  10  527.43   10.63
   2   4 -10  520.20   10.25
  -2  -4   9  241.28    7.22
   2   4  -9  231.94    6.92
   2   4  -8   29.73    2.82
   2   4  -8   28.32    2.46
   2   4  -7  271.08    7.20
   2   4  -7  293.88    8.75
   2   4  -6   29.94    2.33
   2   4  -6   27.76    2.59
   2   4  -6   32.31    2.76
   2   4  -5   54.40    2.99
   2   4  -5   57.92    3.57
  -2  -4   4  413.37    7.69
   2   4  -4  421.84    9.31
   2   4  -3   20.59    2.07
  -2  -4   2    0.86    0.56
   2   4  -2    2.07    0.72
  -2  -4   1  999.09   12.35
   2   4  -1  983.18   14.06
  -2  -4   0  512.75    8.76
   2   4   0  506.77    9.94
  -2  -4   0  497.74    8.44
  -2  -4  -1  999.51   12.06
  -2  -4  -1  985.38   12.47
  -2  -4  -2  763.18   10.41
  -2  -4  -2  754.45   11.55
  -2  -4  -3  396.41    7.43
  -2  -4  -3  390.12    8.60
  -2  -4  -4  119.13    4.99
  -2  -4  -4  119.38    4.02
  -2  -4  -4  119.44    5.00
  -2  -4  -5   35.67    2.85
  -2  -4  -5   35.85    2.87
  -2  -4  -6  903.82   14.24
  -2  -4  -6  871.24   10.65
  -2  -4  -6  882.89   14.11
  -2  -4  -7   15.71    1.53
  -2  -4  -7   17.83    2.19
  -2  -4  -7   13.31    1.79
  -2  -4  -8  130.47    4.10
  -2  -4  -8  135.11    5.45
  -2  -4  -8  129.57    5.10
  -2  -4  -9    1.04    0.52
  -2  -4  -9    3.00    0.68
  -2  -4  -9    1.83    0.86
  -2  -4 -10   12.45    1.28
  -2  -4 -10   12.53    1.14
  -2  -5  13    7.15    0.97
  -2  -5  12   46.00    2.61
  -2  -5  11    1.54    0.74
  -2  -5  10   24.86    2.32
  -2  -5   9   81.91    4.10
  -2  -5   8   14.93    1.86
  -2  -5   7   40.58    2.82
  -2  -5   6   90.15    4.03
  -2  -5   5    0.20    0.42
   2   5  -5    2.15    1.01
   2   5  -4   31.01    2.92
  -2  -5   4   33.06    2.25
   2   5  -4   34.14    3.15
   2   5  -3   12.22    1.81
   2   5  -3   16.88    2.19
   2   5  -2  431.27   10.71
  -2  -5   2  425.14    8.61
  -2  -5   2  407.29    8.81
   2   5  -2  431.63   10.22
  -2  -5   1   43.49    2.89
   2   5  -1   53.39    3.76
  -2  -5   1   48.99    3.01
  -2  -5   0  152.70    5.30
   2   5   0  168.02    6.54
  -2  -5   0  162.00    5.59
  -2  -5  -1  247.42    6.63
  -2  -5  -1  280.98    7.61
  -2  -5  -2 1303.21   14.90
  -2  -5  -2 1364.51   16.88
  -2  -5  -3    4.52    0.97
  -2  -5  -3    4.24    1.13
  -2  -5  -4  205.53    5.51
  -2  -5  -4  228.63    7.22
  -2  -5  -5   59.26    2.78
  -2  -5  -5   64.23    3.81
  -2  -5  -6   72.79    3.99
  -2  -5  -7    0.00    0.35
  -2  -5  -7    0.15    0.61
  -2  -5  -8    8.83    0.85
  -2  -5  -8    7.85    1.20
  -2  -5  -9   11.05    1.23
  -2  -6  12    1.73    0.53
  -2  -6  11  164.80    4.56
  -2  -6  10    6.75    1.08
  -2  -6   9    0.47    0.58
  -2  -6   8   83.07    3.66
  -2  -6   7  112.43    4.24
  -2  -6   6  176.78    5.25
  -2  -6   5  118.79    4.23
  -2  -6   4 1370.31   15.73
  -2  -6   3    7.16    1.34
  -2  -6   2  159.44    5.57
  -2  -6   1  143.86    5.45
  -2  -6   0  162.93    5.50
  -2  -6   0  175.84    6.14
  -2  -6  -1   -0.56    0.79
  -2  -6  -1    0.96    0.89
  -2  -6  -2   30.88    2.25
  -2  -6  -2   41.33    3.06
  -2  -6  -3   32.00    2.16
  -2  -6  -3   40.72    2.99
  -2  -6  -4    1.01    0.54
  -2  -6  -4    1.40    0.78
  -2  -6  -5   70.82    3.56
  -2  -6  -6   38.88    2.45
  -2  -6  -7    0.39    0.45
  -2  -7  10    7.36    0.78
  -2  -7  10    8.27    0.82
  -2  -7   9    2.79    0.56
  -2  -7   9    3.47    0.64
  -2  -7   8    0.22    0.30
  -2  -7   8    0.32    0.37
  -2  -7   7   68.56    2.61
  -2  -7   7   75.64    3.02
  -2  -7   6    0.60    0.57
  -2  -7   5    7.41    1.13
  -2  -7   4   81.11    3.59
  -2  -7   3    2.69    0.88
  -2  -7   2   49.02    2.92
  -2  -7   1   84.82    3.78
  -2  -7   0  152.70    5.08
  -2  -7  -1    4.89    1.03
  -2  -7  -2    1.45    0.63
  -2  -7  -3   42.30    2.41
  -2  -7  -4    0.99    0.43
  -2  -8   6    0.50    0.29
  -2  -8   5   32.14    1.63
  -2  -8   4   20.75    1.37
  -2  -8   3    3.09    0.59
  -2  -8   2   19.63    1.36
  -2  -8   1    0.06    0.27
  -3   9  -3   12.88    1.18
  -3   9  -4   54.80    2.41
  -3   9  -5  101.09    3.23
  -3   9  -6    3.36    0.66
   3  -8  -6   19.04    1.18
   3  -8  -5    2.21    0.52
   3  -8  -4    0.56    0.38
   3  -8  -4    0.07    0.40
   3  -8  -3   21.05    1.56
   3  -8  -3   18.68    1.57
   3  -8  -2    7.76    1.01
   3  -8  -2    6.48    1.01
   3  -8  -1   25.53    1.88
   3  -8   0  167.83    4.79
  -3   8   0  155.57    4.79
  -3   8  -1   56.40    3.06
   3  -8   1   60.68    2.82
  -3   8  -2   75.28    3.66
  -3   8  -3  111.29    4.46
  -3   8  -4    0.51    0.59
  -3   8  -5    3.34    0.92
  -3   8  -6   10.89    1.44
  -3   8  -7   37.44    2.43
  -3   8  -8  176.93    4.85
  -3   8  -9    2.52    0.61
   3  -7  -8    0.49    0.37
   3  -7  -7    1.08    0.58
   3  -7  -7    0.47    0.50
   3  -7  -6   33.48    2.30
   3  -7  -6   31.17    2.13
   3  -7  -5    0.55    0.66
   3  -7  -5    2.21    0.80
   3  -7  -4   43.95    2.74
   3  -7  -4   45.65    3.00
   3  -7  -3  177.57    6.03
   3  -7  -3  168.66    5.42
   3  -7  -2  124.46    4.65
  -3   7   1  137.38    5.31
   3  -7  -1  140.04    4.92
   3  -7   0   53.40    2.97
  -3   7   0   56.13    3.58
   3  -7   1    2.80    0.78
  -3   7  -1    8.80    1.51
  -3   7  -2  287.55    8.23
  -3   7  -3  504.48   10.83
  -3   7  -4    2.09    1.03
  -3   7  -5 1111.46   15.87
  -3   7  -6   36.09    2.61
  -3   7  -6   36.53    2.92
  -3   7  -7   31.60    2.45
  -3   7  -7   29.07    2.45
  -3   7  -8   -0.26    0.64
  -3   7  -8    0.01    0.49
  -3   7  -9   22.54    1.95
  -3   7  -9   25.38    2.06
  -3   7 -10   19.65    1.68
  -3   7 -10   20.97    1.67
  -3   7 -11   29.66    1.86
   3  -6 -10   17.31    1.21
   3  -6  -9   80.51    3.07
   3  -6  -8  276.32    6.82
   3  -6  -8  274.65    6.38
   3  -6  -7   26.08    2.25
   3  -6  -7   24.79    2.38
   3  -6  -6   53.41    3.30
   3  -6  -6   49.61    3.44
   3  -6  -5  192.94    6.77
   3  -6  -5  195.02    6.21
   3  -6  -4  248.25    7.02
   3  -6  -3   78.41    3.84
   3  -6  -2   62.98    3.41
  -3   6   2   71.03    4.03
   3  -6  -1  105.92    4.48
   3  -6  -1   94.04    4.02
  -3   6   1  101.14    4.91
  -3   6   0    1.21    0.75
   3  -6   0    0.49    0.44
  -3   6  -1    9.00    1.60
   3  -6   1    4.21    0.86
   3  -6   1    6.61    1.19
  -3   6  -2  102.94    5.11
   3  -6   2  104.52    4.20
  -3   6  -3  204.84    7.19
   3  -6   3  192.67    5.63
  -3   6  -4  238.67    6.66
  -3   6  -4  240.92    7.77
  -3   6  -5 1550.44   18.02
  -3   6  -5 1501.37   19.33
  -3   6  -6  136.31    5.54
  -3   6  -6  132.40    5.55
  -3   6  -7  646.09   12.12
  -3   6  -7  643.91   11.94
  -3   6  -8   22.58    2.27
  -3   6  -8   25.73    2.32
  -3   6  -9  315.39    8.31
  -3   6  -9  335.03    7.86
  -3   6 -10   47.31    3.12
  -3   6 -10   52.13    2.83
  -3   6 -11   40.54    2.66
  -3   6 -12   20.40    1.68
  -3   6 -13  124.11    3.38
   3  -5 -11  143.78    3.77
   3  -5 -10   79.29    3.38
   3  -5 -10   74.65    2.63
   3  -5  -9   29.62    2.38
   3  -5  -9   30.70    2.36
   3  -5  -8   24.92    2.31
   3  -5  -8   24.28    2.36
   3  -5  -7   25.97    2.44
   3  -5  -7   25.59    2.55
   3  -5  -6  130.07    5.22
   3  -5  -5  222.28    6.67
   3  -5  -5  241.00    7.14
   3  -5  -4   18.66    2.01
   3  -5  -4   14.75    1.72
   3  -5  -3  141.45    5.00
   3  -5  -3  139.01    5.01
  -3   5   3  136.09    5.31
   3  -5  -2  573.83    9.64
   3  -5  -2  553.97    9.66
  -3   5   2  565.40   10.79
   3  -5  -1   27.00    2.06
  -3   5   1   28.02    2.43
  -3   5   0  302.87    7.98
   3  -5   0  274.72    6.28
   3  -5   1   60.12    2.89
  -3   5  -1   66.33    3.80
  -3   5  -2  226.73    7.08
  -3   5  -2  224.58    5.71
  -3   5  -3    5.07    0.97
  -3   5  -3    2.41    0.88
   3  -5   3    3.78    0.89
  -3   5  -4  122.65    4.66
  -3   5  -4  117.62    4.89
  -3   5  -4  129.13    5.47
  -3   5  -5  835.21   13.68
  -3   5  -5  874.35   14.18
  -3   5  -6  153.48    5.46
  -3   5  -6  136.80    5.70
  -3   5  -6  148.20    5.79
  -3   5  -7  116.75    5.40
  -3   5  -7  119.57    5.00
  -3   5  -8  171.80    6.60
  -3   5  -8  180.53    5.97
  -3   5  -9    5.07    1.30
  -3   5 -10  110.92    5.14
  -3   5 -10  111.66    4.68
  -3   5 -11   46.54    2.91
  -3   5 -11   44.91    3.11
  -3   5 -12    9.96    1.29
  -3   5 -12    7.90    1.24
  -3   5 -13    0.93    0.42
  -3   5 -13    0.11    0.35
   3  -4 -13   71.79    2.07
   3  -4 -12   69.41    2.72
   3  -4 -12   65.28    2.58
   3  -4 -11    3.98    0.89
   3  -4 -11    3.63    0.80
   3  -4 -10  117.68    4.61
   3  -4 -10  124.86    4.81
   3  -4  -9  116.96    4.90
   3  -4  -9  111.20    4.70
   3  -4  -8   96.32    4.51
   3  -4  -8   93.34    4.50
   3  -4  -7  179.89    6.18
   3  -4  -7  181.79    6.11
   3  -4  -6   93.14    4.41
   3  -4  -6   84.74    4.10
   3  -4  -5   53.28    3.12
   3  -4  -5   50.21    3.05
   3  -4  -4   50.41    2.88
   3  -4  -4   45.05    2.74
   3  -4  -3   96.65    3.66
   3  -4  -2   61.26    2.78
   3  -4  -2   60.39    2.94
   3  -4  -1 3788.48   21.25
   3  -4  -1 3918.11   20.85
   3  -4   0   43.61    2.19
  -3   4   0   42.47    1.90
   3  -4   0   41.74    2.05
  -3   4  -1  774.85    9.05
   3  -4   1  697.57    8.35
  -3   4  -2  565.45    8.32
   3  -4   2  552.13    7.77
  -3   4  -3    1.85    0.65
  -3   4  -4 1674.29   15.81
  -3   4  -5  298.59    6.94
  -3   4  -6   13.88    1.60
  -3   4  -6   13.18    1.76
  -3   4  -6   12.48    1.59
  -3   4  -7   71.57    3.68
  -3   4  -7   72.35    4.25
  -3   4  -7   71.45    3.62
  -3   4  -8   47.23    3.06
  -3   4  -8   40.65    3.31
  -3   4  -9    3.39    1.09
  -3   4 -10  115.99    5.50
  -3   4 -11  246.88    7.35
  -3   4 -11  244.46    7.50
  -3   4 -12    6.45    1.24
  -3   4 -12    5.76    1.12
  -3   4 -13    4.54    0.94
  -3   4 -13    3.87    0.81
  -3   4 -14    0.42    0.39
   3  -3 -14    0.47    0.31
   3  -3 -13   33.37    1.78
   3  -3 -13   33.88    2.07
   3  -3 -12    3.65    0.80
   3  -3 -11   15.62    1.75
   3  -3 -10   32.11    2.42
   3  -3 -10   39.63    2.86
   3  -3  -9   32.08    2.51
   3  -3  -9   36.92    2.86
   3  -3  -8    1.11    0.70
   3  -3  -8    1.85    0.86
   3  -3  -7  630.42   10.92
   3  -3  -7  609.04   10.89
   3  -3  -6  446.27    8.93
   3  -3  -5   72.45    3.34
   3  -3  -5   67.73    3.59
   3  -3  -4  327.82    6.75
   3  -3  -4  283.01    6.61
   3  -3  -3  503.74    7.50
   3  -3  -3  491.55    8.19
   3  -3  -2  421.07    6.37
   3  -3  -2  418.51    7.25
   3  -3  -1 2114.27   13.44
  -3   3   1 2096.81   11.56
  -3   3   0  835.20    7.79
   3  -3   0  826.45    8.07
  -3   3  -1 3875.49   18.04
   3  -3   1 3979.50   16.72
  -3   3  -2   31.47    1.77
   3  -3   2   15.24    1.12
  -3   3  -3   25.60    1.71
  -3   3  -4 2641.59   17.78
  -3   3  -5  464.05    7.76
  -3   3  -6    5.45    1.00
  -3   3  -7  416.70    8.01
  -3   3  -7  410.01    9.76
  -3   3  -8  113.02    4.25
  -3   3  -8  113.25    5.35
  -3   3  -9  166.21    6.61
  -3   3  -9  161.03    5.19
  -3   3 -10    5.94    1.38
  -3   3 -11  445.80   10.20
  -3   3 -12    3.59    1.07
  -3   3 -12    4.39    1.02
  -3   3 -13    1.02    0.67
  -3   3 -13    0.92    0.46
  -3   3 -14   12.25    1.26
   3  -2 -14   51.05    2.40
   3  -2 -13  154.11    4.40
   3  -2 -13  158.93    3.55
   3  -2 -12  221.65    6.24
   3  -2 -12  225.07    4.78
   3  -2 -11    9.33    1.46
   3  -2 -11   11.36    1.19
   3  -2 -10  129.31    4.59
   3  -2 -10  124.30    3.85
   3  -2  -9   24.04    2.00
   3  -2  -9   25.99    1.75
   3  -2  -9   29.23    2.49
   3  -2  -8    4.69    0.75
   3  -2  -8    5.17    0.98
   3  -2  -8    6.80    1.15
   3  -2  -7  138.20    4.83
   3  -2  -7  129.32    5.21
   3  -2  -6 2380.17   18.63
   3  -2  -6 2311.34   20.46
   3  -2  -5  204.76    5.28
   3  -2  -5  187.33    5.52
   3  -2  -4  286.44    5.68
   3  -2  -4  273.17    6.24
   3  -2  -3    7.65    0.97
   3  -2  -3    6.28    0.52
   3  -2  -2 3347.75   16.38
   3  -2  -1 1010.46    8.23
   3  -2   0  460.98    5.28
  -3   2   0  474.15    5.51
   3  -2   1 2958.60   12.61
  -3   2  -1 2986.32   14.54
  -3   2  -2   15.64    1.13
   3  -2   2   23.61    1.07
  -3   2  -3    8.12    0.90
   3  -2   3    9.05    0.70
  -3   2  -4   87.41    2.94
  -3   2  -5  775.95    9.11
  -3   2  -6  119.47    3.71
  -3   2  -7   98.69    4.59
  -3   2  -7   84.18    3.27
  -3   2  -8    9.89    1.22
  -3   2  -8   12.20    1.73
  -3   2  -9    7.65    1.19
  -3   2  -9   10.24    1.67
  -3   2 -10  666.76   12.60
  -3   2 -11    1.69    0.72
  -3   2 -12    1.61    0.89
  -3   2 -13   -0.09    0.55
  -3   2 -14   64.88    2.78
   3  -1 -15   14.13    0.86
   3  -1 -15   14.03    1.08
   3  -1 -14   40.23    1.84
   3  -1 -13  935.03    9.97
   3  -1 -13  971.85   11.82
   3  -1 -12   88.46    3.41
   3  -1 -12   85.92    4.05
   3  -1 -11    2.00    0.72
   3  -1 -10  124.11    4.17
   3  -1  -9   27.44    2.25
   3  -1  -9   27.85    1.91
   3  -1  -8  416.15    9.17
   3  -1  -8  417.52    6.82
   3  -1  -8  429.72    8.61
   3  -1  -7   52.06    3.05
   3  -1  -7   61.46    3.17
   3  -1  -6  932.99   12.24
   3  -1  -6  906.76   10.47
   3  -1  -5 1142.58   11.82
   3  -1  -4  103.28    3.14
   3  -1  -4  108.51    2.45
   3  -1  -3  304.32    4.27
   3  -1  -3  325.79    5.22
   3  -1  -2 3751.54   16.15
   3  -1  -2 3785.89   14.13
   3  -1  -1 4568.86   15.87
   3  -1  -1 4575.72   15.95
   3  -1   0 1833.22    9.20
  -3   1  -1 2989.89   14.26
   3  -1   1 2986.21   10.07
   3  -1   2  737.50    4.40
  -3   1  -2  743.33    7.45
  -3   1  -3  304.58    4.84
  -3   1  -4  245.29    4.62
  -3   1  -5  232.72    4.70
  -3   1  -6  192.22    4.51
  -3   1  -7  271.86    5.74
  -3   1  -7  250.59    5.40
  -3   1  -7  257.50    7.08
  -3   1  -8    7.73    1.38
  -3   1  -8    8.20    1.07
  -3   1  -8    9.68    1.48
  -3   1  -9 1445.57   17.71
  -3   1  -9 1396.90   18.02
  -3   1 -10  642.92   12.19
  -3   1 -11   29.54    2.63
  -3   1 -11   30.08    2.59
  -3   1 -12   21.75    2.13
  -3   1 -12   22.31    2.05
  -3   1 -13   20.52    1.68
  -3   1 -13   20.13    1.80
  -3   1 -14    3.98    0.67
   3   0 -15    2.34    0.47
   3   0 -14   94.92    3.04
   3   0 -13  102.79    3.66
   3   0 -12    7.23    1.16
   3   0 -11   31.91    2.28
   3   0 -10   24.08    1.95
   3   0  -9    6.78    1.04
   3   0  -9   10.14    1.45
   3   0  -8  597.40    8.51
   3   0  -8  524.43    9.63
   3   0  -7   90.08    3.87
   3   0  -7   77.70    3.22
   3   0  -6   25.65    1.76
   3   0  -5 1267.94   10.11
   3   0  -5 1275.35   11.63
   3   0  -4    8.54    0.82
   3   0  -4   21.06    1.41
   3   0  -3  447.42    5.76
   3   0  -3  519.96    6.53
   3   0  -2  541.85    6.42
   3   0  -2  625.81    6.46
   3   0  -1  759.00    7.16
   3   0  -1  865.65    6.44
   3   0   0   13.35    0.98
   3   0   0   15.95    0.64
   3   0   1  807.62    7.50
   3   0   2  572.05    6.34
   3   0   3 4581.35   18.82
   3   0   4    8.41    0.91
   3   0   5 2387.29   14.99
   3   0   6  225.74    4.92
  -3   0  -7   68.61    3.92
  -3   0  -7   66.98    2.88
  -3   0  -7   73.17    3.68
  -3   0  -7   73.27    2.91
  -3   0  -8  363.98    9.45
  -3   0  -8  355.24    6.98
  -3   0  -8  402.23    9.19
  -3   0  -8  391.65    6.88
  -3   0  -9  561.31   12.00
  -3   0  -9  574.41    9.28
  -3   0 -10   66.69    4.11
  -3   0 -11  317.24    7.93
  -3   0 -11  312.26    8.47
  -3   0 -12    1.03    0.68
  -3   0 -12    1.39    0.60
  -3   0 -13   17.57    1.54
  -3   0 -13   20.81    1.47
   3   1 -15   42.17    1.74
   3   1 -14    8.96    1.03
   3   1 -13    4.59    0.88
   3   1 -12   96.53    3.87
   3   1 -11   67.94    3.32
  -3  -1  10  177.98    5.54
   3   1 -10  185.43    5.36
  -3  -1   9   71.43    3.52
   3   1  -9   75.24    3.34
  -3  -1   8 1819.67   16.81
   3   1  -8 1880.74   15.46
   3   1  -8 1843.13   16.93
   3   1  -7  134.58    4.44
   3   1  -6    2.07    0.58
   3   1  -5    2.86    0.62
   3   1  -4  435.45    6.68
   3   1  -3 6016.33   24.10
   3   1  -2   22.17    1.51
   3   1  -1 1182.11   10.39
   3   1   0  581.18    7.51
   3   1   1 1266.65   11.51
   3   1   2 2424.48   16.24
   3   1   3  366.49    6.46
   3   1   4   93.86    3.41
   3   1   5   12.97    1.35
  -3  -1  -6    0.08    0.63
  -3  -1  -6    0.76    0.46
  -3  -1  -6    0.58    0.52
  -3  -1  -6    1.31    0.50
  -3  -1  -7  220.31    7.49
  -3  -1  -7  219.12    5.39
  -3  -1  -7  230.36    6.97
  -3  -1  -7  233.49    5.46
  -3  -1  -8   78.68    4.62
  -3  -1  -8   78.65    3.44
  -3  -1  -8   84.42    4.39
  -3  -1  -8   79.90    3.29
  -3  -1  -9    9.94    1.77
  -3  -1  -9   10.93    1.41
  -3  -1  -9   10.37    1.66
  -3  -1 -10    3.52    1.17
  -3  -1 -10    6.65    1.24
  -3  -1 -11  171.44    6.15
  -3  -1 -12    7.66    1.19
  -3  -1 -13   24.55    1.67
   3   2 -15   65.09    2.03
   3   2 -14    5.10    0.76
   3   2 -13  151.92    4.20
   3   2 -12  243.11    5.75
  -3  -2  12  227.36    6.16
  -3  -2  11    8.49    1.40
   3   2 -11    8.46    1.23
  -3  -2  10    2.86    0.94
   3   2 -10    2.79    0.81
   3   2  -9 1714.30   19.75
   3   2  -9 1713.93   15.13
  -3  -2   8  200.09    6.06
   3   2  -8  190.66    4.79
  -3  -2   7    5.35    1.01
   3   2  -7    3.24    0.67
   3   2  -7    3.25    0.84
   3   2  -6  382.63    8.01
   3   2  -5  456.21    8.20
   3   2  -4    3.19    0.79
   3   2  -3  150.04    4.50
   3   2  -2  623.47    9.00
   3   2  -1   15.79    1.47
   3   2   0 1474.94   14.04
   3   2   1   35.00    2.22
   3   2   2  493.15    8.48
   3   2   3    6.05    1.05
  -3  -2  -4  529.62   10.48
   3   2   4  535.93    9.05
  -3  -2  -4  525.94    9.54
  -3  -2  -5   28.72    2.61
  -3  -2  -5   33.25    2.04
  -3  -2  -5   28.99    2.38
  -3  -2  -6    3.56    1.13
  -3  -2  -6    3.51    0.77
  -3  -2  -6    2.79    0.90
  -3  -2  -7   98.56    3.79
  -3  -2  -7   98.73    4.81
  -3  -2  -7   94.86    5.10
  -3  -2  -8  121.48    5.85
  -3  -2  -8  118.30    4.21
  -3  -2  -8  119.37    5.31
  -3  -2  -9  312.24    9.10
  -3  -2  -9  313.93    6.80
  -3  -2  -9  318.87    8.55
  -3  -2 -10   41.78    2.45
  -3  -2 -10   36.98    2.96
  -3  -2 -11   -0.43    0.67
  -3  -2 -12   25.99    1.83
   3   3 -14   18.18    1.12
  -3  -3  13  278.69    6.08
   3   3 -13  277.15    4.99
  -3  -3  12    6.64    1.21
   3   3 -12    8.06    0.97
  -3  -3  11   77.19    4.03
   3   3 -11   74.66    2.99
  -3  -3  10   56.31    3.52
   3   3 -10   53.12    2.53
  -3  -3   9  490.27   10.31
   3   3  -9  444.69    7.09
  -3  -3   8   60.14    3.57
   3   3  -8   56.56    3.83
  -3  -3   7  370.46    8.49
   3   3  -7  338.56    8.67
  -3  -3   6  180.50    5.68
   3   3  -6  169.42    6.02
  -3  -3   5   63.09    3.17
   3   3  -5   58.97    3.47
  -3  -3   4    4.60    0.91
   3   3  -4    2.75    0.83
   3   3  -3   76.88    3.73
   3   3  -2  543.26    9.89
   3   3  -1    3.44    0.86
   3   3   0   10.82    1.49
  -3  -3  -1  216.01    6.04
   3   3   1  234.68    6.71
  -3  -3  -1  227.36    5.78
   3   3   2 1046.09   14.02
  -3  -3  -2 1025.69   12.96
  -3  -3  -3    2.92    0.89
   3   3   3    2.88    0.97
  -3  -3  -3    2.78    0.86
  -3  -3  -4  194.16    6.73
  -3  -3  -4  209.19    6.53
  -3  -3  -5    0.42    0.66
  -3  -3  -5    0.33    0.45
  -3  -3  -5    0.50    0.68
  -3  -3  -6  164.78    6.62
  -3  -3  -6  172.84    4.80
  -3  -3  -6  170.35    6.20
  -3  -3  -7   18.65    2.29
  -3  -3  -7   18.06    1.59
  -3  -3  -7   20.04    2.29
  -3  -3  -8    3.39    1.10
  -3  -3  -8    2.89    0.78
  -3  -3  -8    3.59    1.15
  -3  -3  -9   12.73    1.28
  -3  -3  -9   11.47    1.60
  -3  -3  -9   12.42    1.68
  -3  -3 -10    4.47    0.97
  -3  -3 -11    6.44    0.94
  -3  -4  13    2.64    0.65
  -3  -4  12   33.29    2.27
  -3  -4  11   75.69    3.75
  -3  -4  10 1383.51   16.90
  -3  -4   9   38.03    2.92
  -3  -4   8  235.92    6.94
  -3  -4   7   79.92    4.01
  -3  -4   6  130.82    4.90
   3   4  -6  136.12    5.95
  -3  -4   5   72.36    3.50
   3   4  -5   75.11    4.37
  -3  -4   4   38.02    2.48
   3   4  -4   39.45    3.24
  -3  -4   3   22.03    1.84
   3   4  -3   26.21    2.60
   3   4  -2  181.80    6.68
   3   4  -1  347.92    9.20
  -3  -4   1  335.97    7.36
   3   4   0    1.06    0.88
  -3  -4   0   -0.27    0.76
  -3  -4  -1 2453.51   22.09
  -3  -4  -1 2591.16   21.05
   3   4   1 2608.47   24.92
  -3  -4  -1 2492.94   21.70
  -3  -4  -2   22.11    2.23
  -3  -4  -2   26.19    2.09
  -3  -4  -2   26.51    2.42
  -3  -4  -3    5.13    1.16
  -3  -4  -3    5.23    1.20
  -3  -4  -4   20.56    2.23
  -3  -4  -4   28.31    2.57
  -3  -4  -5  110.00    5.13
  -3  -4  -5  115.71    5.10
  -3  -4  -6  230.94    7.27
  -3  -4  -6  242.63    7.34
  -3  -4  -7   -0.15    0.55
  -3  -4  -7    0.86    0.48
  -3  -4  -7    0.49    0.71
  -3  -4  -8    7.35    1.24
  -3  -4  -8    6.94    1.15
  -3  -4  -9   12.16    1.39
  -3  -4  -9   10.36    1.16
  -3  -5  13   -0.24    0.37
  -3  -5  12   -0.25    0.53
  -3  -5  11    6.45    1.06
  -3  -5  10  134.98    4.76
  -3  -5   9  167.16    5.46
  -3  -5   8   92.95    4.13
  -3  -5   7   41.18    2.76
  -3  -5   6  313.58    7.33
  -3  -5   5    0.10    0.50
  -3  -5   4  395.16    7.72
  -3  -5   3    3.83    0.90
  -3  -5   2    9.25    1.36
  -3  -5   1  542.07   10.18
  -3  -5   0  377.58    8.80
  -3  -5  -1  187.86    6.25
  -3  -5  -2  156.10    5.83
  -3  -5  -3   76.32    4.11
  -3  -5  -4    0.25    0.72
  -3  -5  -5   31.67    2.57
  -3  -5  -6    3.77    1.00
  -3  -5  -7   15.22    1.54
  -3  -5  -8    9.62    1.07
  -3  -6  11   19.37    1.34
  -3  -6  10   79.61    2.93
  -3  -6   9   65.78    2.82
  -3  -6   8    0.68    0.49
  -3  -6   7    1.42    0.58
  -3  -6   6   38.72    2.26
  -3  -6   6   38.72    2.43
  -3  -6   5    4.83    1.08
  -3  -6   4   32.02    2.37
  -3  -6   3   20.24    1.97
  -3  -6   2   22.10    2.10
  -3  -6   1   -0.37    0.86
  -3  -6   0   33.75    2.62
  -3  -6  -1   11.82    1.63
  -3  -6  -2   13.65    1.66
  -3  -6  -3    1.25    0.68
  -3  -6  -4    8.99    1.26
  -3  -6  -5    8.33    1.08
  -3  -6  -6   70.71    2.59
  -3  -7   8   82.40    2.50
  -3  -7   7  211.18    4.33
  -3  -7   6   20.55    1.48
  -3  -7   5  162.06    4.26
  -3  -7   4   78.44    3.13
  -3  -7   3    2.51    0.67
  -3  -7   2   22.09    1.72
  -3  -7   1   34.56    2.16
  -3  -7   0   11.83    1.28
  -3  -7  -1    7.70    1.00
  -3  -7  -2    4.31    0.72
  -4   9  -2    3.67    0.65
  -4   9  -3   47.54    2.22
  -4   9  -4  261.80    5.21
  -4   9  -5    1.89    0.48
   4  -8  -5    2.20    0.50
   4  -8  -5    2.66    0.55
   4  -8  -4   54.98    2.41
   4  -8  -4   57.06    2.45
   4  -8  -3   93.36    3.41
   4  -8  -3  101.58    3.42
   4  -8  -2   15.93    1.52
   4  -8  -2   15.95    1.40
   4  -8  -1   90.00    3.19
  -4   8   1   81.58    3.36
  -4   8   0   25.26    2.05
  -4   8  -1  166.85    5.45
  -4   8  -2   39.15    2.71
  -4   8  -3  127.63    4.86
  -4   8  -4    3.23    0.98
  -4   8  -5    7.57    1.20
  -4   8  -6  106.56    4.04
  -4   8  -7   20.26    1.69
  -4   8  -8    1.42    0.53
   4  -7  -8   16.39    1.17
   4  -7  -7  201.42    4.90
   4  -7  -7  202.58    4.65
   4  -7  -6  116.59    4.19
   4  -7  -6  121.06    4.05
   4  -7  -5  190.48    5.81
   4  -7  -5  197.63    5.54
   4  -7  -4   12.36    1.64
   4  -7  -4   14.64    1.62
   4  -7  -3    0.64    0.57
  -4   7   2   48.80    3.26
   4  -7  -2   53.75    3.01
  -4   7   1  153.57    6.08
   4  -7  -1  156.75    4.97
  -4   7   0   45.98    3.47
  -4   7  -1  140.71    6.00
  -4   7  -2   89.10    4.81
  -4   7  -3  150.68    6.16
  -4   7  -4   55.30    3.72
  -4   7  -5    0.24    0.74
  -4   7  -6    2.40    0.86
  -4   7  -6    3.67    0.93
  -4   7  -7  104.44    4.36
  -4   7  -7   92.06    4.14
  -4   7  -8   48.16    2.90
  -4   7  -8   48.44    2.81
  -4   7  -9   14.03    1.50
  -4   7  -9   13.24    1.35
  -4   7 -10   11.56    1.26
  -4   7 -11    5.42    0.74
   4  -6 -10  126.65    3.09
   4  -6  -9   13.30    1.31
   4  -6  -9   13.82    1.30
   4  -6  -8   72.35    3.40
   4  -6  -8   72.17    3.25
   4  -6  -7  404.04    8.46
   4  -6  -7  397.14    8.80
   4  -6  -6  169.96    6.16
   4  -6  -6  170.58    5.86
   4  -6  -5   25.57    2.41
   4  -6  -4  167.37    5.87
  -4   6   3   85.17    4.59
   4  -6  -3   87.64    4.20
  -4   6   2    3.32    1.11
   4  -6  -2    5.61    1.08
   4  -6  -1    2.97    0.77
  -4   6   1   16.30    2.17
  -4   6   0  153.75    6.52
  -4   6  -1   18.27    2.35
  -4   6  -2  225.54    7.90
  -4   6  -3   22.74    2.58
  -4   6  -4  463.13   10.00
  -4   6  -4  476.43   11.31
  -4   6  -5  201.50    6.87
  -4   6  -5  194.09    7.07
  -4   6  -6  163.19    6.28
  -4   6  -6  159.51    6.19
  -4   6  -7    6.18    1.37
  -4   6  -7    7.59    1.43
  -4   6  -8   22.11    2.28
  -4   6  -8   21.53    2.04
  -4   6  -9   19.20    2.06
  -4   6 -10   -0.10    0.53
  -4   6 -11   24.23    1.92
  -4   6 -12    0.77    0.38
   4  -5 -11   47.83    2.18
   4  -5 -10   70.98    3.12
   4  -5  -9    0.61    0.58
   4  -5  -9    0.59    0.66
   4  -5  -8  233.10    6.78
   4  -5  -8  250.89    7.09
   4  -5  -7  129.69    5.36
   4  -5  -7  140.20    5.48
   4  -5  -6    0.83    0.76
   4  -5  -5   11.31    1.65
  -4   5   4   27.91    2.59
   4  -5  -4   31.05    2.58
  -4   5   3   48.11    3.44
   4  -5  -3   52.47    3.23
   4  -5  -3   48.73    3.09
   4  -5  -2  138.17    4.98
   4  -5  -2  137.55    4.92
  -4   5   2  139.29    5.83
   4  -5  -1  612.46   10.07
  -4   5   1  608.19   12.07
   4  -5   0  332.93    7.31
  -4   5   0  319.84    8.82
   4  -5   1   41.66    2.52
  -4   5  -1   41.97    3.23
  -4   5  -2    3.79    1.08
   4  -5   2    3.75    0.88
  -4   5  -2    4.49    0.89
  -4   5  -3  123.48    5.15
  -4   5  -3  127.25    4.61
   4  -5   3  122.82    4.28
  -4   5  -3  126.11    5.66
   4  -5   4    9.50    1.20
  -4   5  -4    9.79    1.57
  -4   5  -4   12.91    1.59
  -4   5  -4   10.98    1.74
  -4   5  -5  447.84   10.64
  -4   5  -5  485.16    9.48
  -4   5  -5  467.40   10.86
  -4   5  -6  198.33    6.87
  -4   5  -6  183.34    6.99
  -4   5  -7   -0.14    0.67
  -4   5  -7   -0.03    0.54
  -4   5  -8   13.87    2.00
  -4   5  -9  324.31    9.03
  -4   5 -10   -0.43    0.99
  -4   5 -11    7.12    1.16
  -4   5 -11    7.07    1.25
  -4   5 -12    7.36    1.00
  -4   5 -12    6.08    1.00
  -4   5 -13    0.50    0.31
   4  -4 -12   10.63    1.09
   4  -4 -12    9.63    0.94
   4  -4 -11    8.14    1.16
   4  -4 -10   40.69    2.51
   4  -4 -10   42.96    2.81
   4  -4  -9    0.11    0.53
   4  -4  -9    1.82    0.98
   4  -4  -8  611.99   11.14
   4  -4  -8  645.35   11.81
   4  -4  -7    0.79    0.82
   4  -4  -6   79.41    4.20
   4  -4  -6   78.59    4.16
   4  -4  -5  104.34    4.60
   4  -4  -5  100.10    4.67
  -4   4   5   91.45    4.34
   4  -4  -4  294.96    7.24
   4  -4  -4  304.46    7.82
   4  -4  -4  289.75    7.83
   4  -4  -3  367.39    7.81
   4  -4  -3  375.80    8.15
  -4   4   3  352.84    8.39
   4  -4  -2  897.44   11.28
  -4   4   2  907.65   13.29
   4  -4  -2  879.46   12.14
   4  -4  -1 1373.33   13.35
   4  -4  -1 1462.10   14.61
  -4   4   0 2107.06   14.71
   4  -4   0 2088.81   16.59
   4  -4   1 1080.59   11.05
  -4   4  -1 1141.69   11.74
  -4   4  -2   15.74    1.50
   4  -4   2   18.82    1.56
  -4   4  -3    6.12    1.04
   4  -4   3    7.31    0.94
  -4   4  -3    6.90    1.30
  -4   4  -4  222.99    7.03
  -4   4  -4  240.57    6.18
  -4   4  -4  237.04    7.23
   4  -4   4  235.63    5.15
  -4   4  -5  946.94   15.06
  -4   4  -5  975.13   12.82
  -4   4  -6  229.82    7.77
  -4   4  -6  250.99    6.62
  -4   4  -6  245.52    7.19
  -4   4  -7  133.98    6.06
  -4   4  -7  140.78    5.03
  -4   4  -8  143.32    6.35
  -4   4  -9  213.29    7.73
  -4   4 -10   90.44    4.85
  -4   4 -11    6.14    1.29
  -4   4 -12    0.17    0.53
  -4   4 -12    0.29    0.46
  -4   4 -13    2.87    0.69
  -4   4 -13    2.84    0.61
   4  -3 -13    0.87    0.40
   4  -3 -12    1.55    0.63
   4  -3 -11    0.53    0.57
   4  -3 -10    3.33    0.83
   4  -3 -10    3.62    1.04
   4  -3  -9   96.98    4.14
   4  -3  -9  103.12    3.36
   4  -3  -9   96.89    4.57
   4  -3  -8  114.01    3.53
   4  -3  -8  103.55    4.40
   4  -3  -8  112.61    4.98
   4  -3  -7    2.05    0.97
   4  -3  -7    2.41    0.60
   4  -3  -7    1.61    0.82
   4  -3  -6  610.75    7.84
   4  -3  -6  596.82   11.45
  -4   3   5    0.58    0.62
   4  -3  -5    0.17    0.53
   4  -3  -5   -0.28    0.39
   4  -3  -5    0.68    0.59
   4  -3  -4  854.84   11.33
   4  -3  -4  831.13   12.66
   4  -3  -3   82.88    3.84
   4  -3  -3   79.90    3.28
   4  -3  -2   57.91    2.97
   4  -3  -2   58.91    2.67
   4  -3  -2   54.30    2.01
   4  -3  -1   55.00    2.41
   4  -3   0   14.57    1.21
   4  -3   1  341.74    5.55
  -4   3  -1  338.20    5.99
  -4   3  -2  477.98    7.41
   4  -3   2  453.95    6.11
  -4   3  -3    0.74    0.53
   4  -3   3    0.44    0.35
  -4   3  -4   98.82    3.64
  -4   3  -5 1545.26   14.79
  -4   3  -5 1569.83   18.54
  -4   3  -6  220.43    5.78
  -4   3  -6  218.93    7.38
  -4   3  -7  153.34    4.99
  -4   3  -7  155.36    6.48
  -4   3  -8   12.25    1.96
  -4   3  -9  436.57   10.92
  -4   3 -10   27.28    2.73
  -4   3 -11   98.90    4.66
  -4   3 -12   33.19    2.54
  -4   3 -12   31.05    2.26
  -4   3 -13   28.67    2.01
  -4   3 -14   20.99    1.32
   4  -2 -13   25.17    1.42
   4  -2 -13   25.23    1.82
   4  -2 -12  170.19    4.06
   4  -2 -12  160.96    5.22
   4  -2 -11   37.24    2.75
   4  -2 -11   41.20    2.17
   4  -2 -10    7.49    1.02
   4  -2  -9    2.49    0.63
   4  -2  -8    4.36    1.23
   4  -2  -8    3.78    0.72
   4  -2  -8    4.47    1.17
  -4   2   7  332.55    7.60
   4  -2  -7  339.17    5.81
   4  -2  -7  362.03    8.00
   4  -2  -7  346.17    9.08
   4  -2  -6   21.39    2.21
  -4   2   6   19.16    1.92
   4  -2  -6   18.96    1.35
   4  -2  -6   20.78    2.01
   4  -2  -5   81.20    3.96
   4  -2  -5   89.02    3.62
   4  -2  -4 1694.53   15.14
   4  -2  -3 3268.69   15.32
   4  -2  -3 3287.93   19.82
   4  -2  -2  245.48    4.22
   4  -2  -2  293.51    5.43
   4  -2  -1   14.25    1.17
   4  -2  -1   10.46    0.93
   4  -2   0   19.13    1.22
   4  -2   1  892.73    7.59
  -4   2  -2  998.44   10.12
  -4   2  -3   23.00    1.64
  -4   2  -4  320.40    6.14
  -4   2  -5 1817.88   15.12
  -4   2  -6    9.57    1.21
  -4   2  -6    8.12    1.47
  -4   2  -7   40.73    3.24
  -4   2  -7   41.27    2.49
  -4   2  -8  307.19    6.84
  -4   2  -8  317.46    9.17
  -4   2  -9 1587.07   20.45
  -4   2 -10  463.33   10.61
  -4   2 -11   11.69    1.58
  -4   2 -12  104.37    4.36
  -4   2 -13   64.60    2.93
   4  -1 -14    0.65    0.39
   4  -1 -14   -0.52    0.37
   4  -1 -13   87.11    2.93
   4  -1 -13   79.47    3.38
   4  -1 -12    6.47    1.01
   4  -1 -11    7.86    1.13
   4  -1 -10    3.22    0.80
   4  -1  -9   26.65    1.87
   4  -1  -9   21.67    2.08
   4  -1  -9   22.52    2.39
   4  -1  -8   50.35    2.42
   4  -1  -8   51.75    3.02
   4  -1  -8   49.06    3.39
   4  -1  -7  189.73    6.42
   4  -1  -7  183.06    4.36
   4  -1  -6   41.12    2.84
   4  -1  -6   50.91    2.84
   4  -1  -5  201.79    4.97
   4  -1  -4 1458.15   11.37
   4  -1  -4 1442.32   12.54
   4  -1  -3 2866.37   16.24
   4  -1  -3 3001.96   17.89
   4  -1  -2 5002.00   20.67
   4  -1  -2 4993.18   20.38
   4  -1  -1 3612.84   15.63
   4  -1  -1 3575.51   17.31
   4  -1   0 1160.84   10.01
   4  -1   1   67.23    2.51
   4  -1   2  102.37    3.25
   4  -1   3  639.65    8.49
   4  -1   4  152.20    4.31
   4  -1   5    0.08    0.43
  -4   1  -6  300.23    7.95
   4  -1   6  282.75    6.29
  -4   1  -7   22.68    2.33
   4  -1   7   20.32    1.72
  -4   1  -7   20.87    2.26
  -4   1  -8   38.59    3.11
  -4   1  -8   39.23    3.14
  -4   1  -9   51.11    3.56
  -4   1  -9   48.57    3.41
  -4   1 -10   19.02    2.13
  -4   1 -11   12.41    1.64
  -4   1 -11   12.44    1.59
  -4   1 -12   24.71    2.00
  -4   1 -12   25.23    1.86
  -4   1 -13   17.08    1.32
   4   0 -15   27.11    1.23
   4   0 -14    0.09    0.36
   4   0 -14   -0.46    0.41
   4   0 -13   55.37    2.50
   4   0 -12    8.13    1.18
   4   0 -11  186.14    5.13
   4   0 -10   12.00    1.43
  -4   0   9  649.08   10.25
   4   0  -9  702.76    9.67
   4   0  -8   32.26    2.69
  -4   0   8   33.61    2.38
   4   0  -8   37.86    2.22
   4   0  -7  187.67    6.07
  -4   0   7  186.86    5.32
   4   0  -7  204.96    4.77
   4   0  -6   55.01    2.65
   4   0  -5  144.26    4.02
   4   0  -5  134.28    3.86
   4   0  -4  576.57    8.03
   4   0  -4  572.39    7.41
   4   0  -3  293.26    5.64
   4   0  -3  311.31    4.98
   4   0  -2   51.29    2.27
   4   0  -2   59.70    1.94
   4   0  -1 4023.48   21.26
   4   0   0  939.41   10.26
   4   0   1  118.72    3.41
   4   0   2  182.03    4.36
   4   0   3   32.29    1.92
   4   0   4  216.82    5.21
  -4   0  -5   36.23    2.81
   4   0   5   29.19    1.99
  -4   0  -6  125.14    5.46
   4   0   6  119.45    4.26
  -4   0  -7   10.33    1.74
  -4   0  -7   13.43    1.68
  -4   0  -7   10.64    1.55
  -4   0  -8   48.23    3.63
  -4   0  -9   43.68    3.44
  -4   0 -10   17.75    2.11
  -4   0 -11    0.50    0.58
  -4   0 -11    0.07    0.45
  -4   0 -12    2.65    0.69
   4   1 -15   30.79    1.30
   4   1 -14   19.56    1.29
   4   1 -13    0.63    0.50
   4   1 -12   37.60    2.22
   4   1 -11   21.35    1.81
  -4  -1  11   20.86    1.92
   4   1 -10  821.57   10.66
  -4  -1  10  782.53   12.13
  -4  -1   9  142.73    5.18
   4   1  -9  150.56    4.49
  -4  -1   8  432.95    8.72
   4   1  -8  444.89    7.43
  -4  -1   7   32.93    2.33
   4   1  -7   33.99    1.97
  -4  -1   6  275.77    6.38
   4   1  -6  285.32    5.32
   4   1  -6  268.40    6.32
   4   1  -5   73.57    3.32
   4   1  -4  182.70    5.06
   4   1  -3  352.23    6.82
   4   1  -2  128.75    4.18
   4   1  -1  147.52    4.41
   4   1   0   31.93    1.99
   4   1   1    1.45    0.55
   4   1   2  203.69    5.47
  -4  -1  -3    1.64    0.72
   4   1   3   -0.34    0.51
  -4  -1  -4  384.37    9.26
  -4  -1  -4  393.47    8.06
  -4  -1  -5   15.71    2.04
   4   1   5   13.01    1.45
  -4  -1  -5   15.16    1.76
  -4  -1  -6    1.20    0.77
  -4  -1  -6    0.83    0.56
  -4  -1  -7  301.86    9.17
  -4  -1  -7  329.48    8.38
  -4  -1  -8    1.76    1.06
  -4  -1  -8    1.47    0.88
  -4  -1  -9   21.21    2.45
  -4  -1 -10   26.17    2.43
  -4  -1 -11    0.80    0.62
  -4  -1 -12   13.49    1.26
   4   2 -14    2.01    0.47
   4   2 -13  197.74    4.22
  -4  -2  12    1.55    0.64
   4   2 -12    0.56    0.45
  -4  -2  11    9.16    1.45
   4   2 -11    9.49    1.15
  -4  -2  10  169.94    5.94
   4   2 -10  160.68    4.52
  -4  -2   9   18.53    2.05
   4   2  -9   16.55    1.49
  -4  -2   8  293.31    7.77
   4   2  -8  273.56    5.62
  -4  -2   7    0.79    0.54
   4   2  -7    0.15    0.32
  -4  -2   6   82.95    3.85
   4   2  -6   73.53    2.68
   4   2  -6   75.41    3.84
  -4  -2   5  926.23   12.34
   4   2  -5  860.77   12.43
  -4  -2   4    7.25    1.11
   4   2  -4    5.13    1.09
  -4  -2   3   74.17    3.33
   4   2  -3   91.42    3.98
   4   2  -2  526.60    9.38
   4   2  -1  813.87   11.72
   4   2   0  258.21    6.67
   4   2   1   20.32    1.96
  -4  -2  -1   21.15    1.83
  -4  -2  -2  541.83   10.70
   4   2   2  538.40   10.07
  -4  -2  -2  572.81    9.53
  -4  -2  -3  149.94    5.92
   4   2   3  142.45    5.24
  -4  -2  -3  155.44    5.32
  -4  -2  -4    4.27    1.15
   4   2   4    4.17    1.05
  -4  -2  -4    3.82    1.01
  -4  -2  -5   -0.29    1.09
  -4  -2  -5    1.09    0.54
  -4  -2  -5   -0.08    0.72
  -4  -2  -6    8.90    1.76
  -4  -2  -6    6.68    1.35
  -4  -2  -7   21.59    2.63
  -4  -2  -7   26.28    2.45
  -4  -2  -8    7.42    1.61
  -4  -2  -8    8.31    1.40
  -4  -2  -9    8.90    1.55
  -4  -2 -10    6.05    1.13
  -4  -2 -11    0.18    0.37
  -4  -3  13    2.11    0.57
   4   3 -13    2.29    0.43
  -4  -3  12   16.12    1.62
   4   3 -12   15.90    1.15
  -4  -3  11  388.69    8.41
   4   3 -11  345.12    5.65
  -4  -3  10   -0.01    0.77
   4   3 -10    8.59    0.97
  -4  -3   9   20.92    2.21
  -4  -3   8   13.85    1.82
  -4  -3   7   59.38    3.52
  -4  -3   6   64.19    3.51
   4   3  -6   59.77    3.86
  -4  -3   5   15.31    1.67
   4   3  -5   15.50    1.96
  -4  -3   4   81.19    3.73
   4   3  -4   75.79    4.12
  -4  -3   3  396.31    8.07
   4   3  -3  381.29    9.11
  -4  -3   2  334.91    7.21
   4   3  -2  334.23    8.59
  -4  -3   2  340.98    6.79
   4   3  -1   46.73    3.30
  -4  -3   1   43.82    2.56
   4   3   0  802.07   13.46
  -4  -3   0  804.35   11.41
  -4  -3  -1  762.03   12.87
   4   3   1  748.93   12.94
  -4  -3  -1  747.18   11.43
  -4  -3  -2  198.30    7.03
   4   3   2  199.04    6.67
  -4  -3  -2  195.60    6.07
  -4  -3  -3    4.79    1.18
  -4  -3  -3    5.76    1.15
  -4  -3  -4   14.00    2.03
  -4  -3  -4   15.28    1.89
  -4  -3  -5  467.10   11.30
  -4  -3  -5  485.37   10.21
  -4  -3  -6  326.22    9.31
  -4  -3  -6  345.18    8.56
  -4  -3  -7   50.21    3.53
  -4  -3  -7   49.31    3.14
  -4  -3  -8   29.86    2.27
  -4  -3  -8   28.29    2.45
  -4  -3  -9   21.14    1.88
  -4  -3 -10   19.15    1.46
  -4  -4  13    1.56    0.43
  -4  -4  12    5.80    0.90
  -4  -4  11  412.64    7.93
  -4  -4  10    3.13    1.08
  -4  -4   9   84.22    4.03
  -4  -4   8   13.26    1.75
  -4  -4   7   17.40    1.90
  -4  -4   6   35.68    2.58
  -4  -4   5   48.97    2.94
  -4  -4   4   48.32    2.88
  -4  -4   4   50.00    2.72
  -4  -4   3   37.07    2.45
  -4  -4   3   36.96    2.38
  -4  -4   2   68.37    3.34
  -4  -4   1   52.23    3.22
  -4  -4   1   51.37    3.02
  -4  -4   0  525.30   10.67
  -4  -4   0  511.88    9.72
  -4  -4  -1  360.34    9.14
  -4  -4  -1  348.87    8.12
  -4  -4  -2   20.40    2.26
  -4  -4  -2    4.85    1.12
  -4  -4  -3  418.37    9.98
  -4  -4  -3  416.66    9.19
  -4  -4  -4    0.55    0.60
  -4  -4  -4    1.83    0.88
  -4  -4  -5  152.55    5.83
  -4  -4  -5  152.29    5.41
  -4  -4  -6    0.52    0.57
  -4  -4  -6   -0.02    0.61
  -4  -4  -7    3.64    0.86
  -4  -4  -7    3.59    0.85
  -4  -4  -8    1.75    0.49
  -4  -4  -8    2.97    0.65
  -4  -5  12    6.58    0.74
  -4  -5  11    0.41    0.44
  -4  -5  10    0.89    0.54
  -4  -5   9    1.39    0.64
  -4  -5   8    1.34    0.67
  -4  -5   7   85.62    3.61
  -4  -5   6  391.23    7.65
  -4  -5   6  404.84    7.27
  -4  -5   5  304.06    6.62
  -4  -5   5  310.89    6.57
  -4  -5   4  363.22    7.35
  -4  -5   3   23.25    1.98
  -4  -5   2    0.39    0.67
  -4  -5   1    3.86    0.94
  -4  -5   0   23.37    2.09
  -4  -5  -1   11.64    1.59
  -4  -5  -2   22.57    2.08
  -4  -5  -3   60.78    3.22
  -4  -5  -4   25.31    2.02
  -4  -5  -5   56.21    2.75
  -4  -5  -6   14.28    1.24
  -4  -6   9    3.17    0.53
  -4  -6   9    2.85    0.47
  -4  -6   8   13.64    1.08
  -4  -6   8   13.48    1.07
  -4  -6   7    0.75    0.34
  -4  -6   7    1.04    0.42
  -4  -6   6    1.37    0.53
  -4  -6   5  175.32    4.55
  -4  -6   4   30.72    2.00
  -4  -6   3   -0.34    0.58
  -4  -6   2   15.67    1.50
  -4  -6   1    7.63    1.11
  -4  -6   0   14.60    1.48
  -4  -6  -1   82.26    3.26
  -4  -6  -2    0.30    0.43
  -4  -6  -3    2.35    0.59
   5  -8  -4   79.90    2.73
   5  -8  -3   25.59    1.72
   5  -8  -2   52.34    2.57
  -5   8   1   23.83    1.87
  -5   8   0    3.23    0.81
  -5   8  -1    1.63    0.76
  -5   8  -2  154.72    5.26
  -5   8  -3   38.38    2.63
  -5   8  -4  221.61    6.00
  -5   8  -5   27.11    2.02
  -5   8  -6    8.62    1.08
  -5   8  -7   27.67    1.68
   5  -7  -7   19.18    1.38
   5  -7  -7   22.45    1.42
   5  -7  -6   27.37    1.90
   5  -7  -6   30.72    1.92
   5  -7  -5  189.02    5.33
   5  -7  -5  220.85    5.41
   5  -7  -4   17.82    1.63
   5  -7  -3   92.64    3.60
  -5   7   3   84.17    4.14
  -5   7   2   87.02    4.58
  -5   7   1  134.32    5.93
  -5   7   0   59.96    4.11
  -5   7  -1    5.57    1.43
  -5   7  -2   20.60    2.47
  -5   7  -3   41.43    3.33
  -5   7  -4  564.35   11.54
  -5   7  -5  265.33    7.40
  -5   7  -6   52.64    2.98
  -5   7  -6   44.16    2.85
  -5   7  -7   21.09    1.87
  -5   7  -7   20.10    1.78
  -5   7  -8   46.98    2.65
  -5   7  -8   46.56    2.34
  -5   7  -9   22.15    1.66
   5  -6  -9    0.71    0.39
   5  -6  -9    0.86    0.44
   5  -6  -8    3.17    0.76
   5  -6  -8    2.90    0.77
   5  -6  -7    0.22    0.55
   5  -6  -7    0.26    0.59
   5  -6  -6  101.98    4.45
   5  -6  -6  119.44    4.74
   5  -6  -5   25.78    2.33
  -5   6   4  326.34    9.08
   5  -6  -4  354.45    8.48
   5  -6  -3  118.53    4.74
  -5   6   3  114.04    5.73
   5  -6  -2   79.27    3.65
  -5   6   2   81.50    5.01
  -5   6   1  867.33   16.29
  -5   6   0  838.14   16.05
  -5   6  -1    2.28    1.29
  -5   6  -2  322.81    9.79
  -5   6  -3  205.93    7.70
  -5   6  -4 1637.85   19.59
  -5   6  -4 1511.86   20.35
  -5   6  -5  145.00    6.00
  -5   6  -5  142.69    5.98
  -5   6  -6    4.21    1.19
  -5   6  -6    7.59    1.45
  -5   6  -7  281.44    8.11
  -5   6  -7  275.81    7.11
  -5   6  -8   72.15    3.93
  -5   6  -9    2.87    0.84
  -5   6 -10    2.37    0.74
  -5   6 -11    7.03    0.92
   5  -5 -11   20.63    1.28
   5  -5 -10    1.66    0.54
   5  -5  -9   74.69    3.12
   5  -5  -9   78.33    3.47
   5  -5  -8    7.21    1.20
   5  -5  -8    8.43    1.40
   5  -5  -7  203.11    6.39
   5  -5  -7  237.48    7.00
   5  -5  -6  466.58   10.14
  -5   5   6  378.54    9.22
  -5   5   5    1.64    0.96
   5  -5  -5    2.41    0.99
   5  -5  -4  280.36    7.78
  -5   5   4  267.93    8.75
   5  -5  -3   10.80    1.57
  -5   5   3   11.64    2.07
  -5   5   2 1749.95   22.90
   5  -5  -1  272.86    7.16
  -5   5   1  289.62    9.25
   5  -5   0  841.65   12.18
  -5   5   0  876.85   15.76
   5  -5   1 1432.29   15.57
  -5   5  -1 1479.63   20.20
  -5   5  -2  392.32    8.16
  -5   5  -2  388.58   10.40
  -5   5  -3  733.89   13.73
  -5   5  -3  704.86   13.98
  -5   5  -4  454.99   11.18
  -5   5  -4  455.04   11.04
  -5   5  -5   90.70    5.11
  -5   5  -5   96.83    5.02
  -5   5  -6    7.09    1.60
  -5   5  -6    7.32    1.39
  -5   5  -7  405.39   10.58
  -5   5  -8   81.08    4.65
  -5   5  -9   45.50    3.34
  -5   5 -10  183.13    6.01
  -5   5 -11   94.12    3.52
  -5   5 -11   92.24    3.74
  -5   5 -12    0.57    0.33
   5  -4 -12    0.01    0.34
   5  -4 -11    0.84    0.51
   5  -4 -10   27.23    1.76
   5  -4 -10   25.42    2.05
   5  -4  -9   79.33    3.42
   5  -4  -9   78.96    3.92
   5  -4  -8  159.37    5.39
   5  -4  -8  175.77    6.13
   5  -4  -7  198.03    6.77
  -5   4   7  149.20    5.65
   5  -4  -6  109.38    5.09
  -5   4   6   93.18    4.69
   5  -4  -5  321.58    8.81
   5  -4  -5  296.01    8.69
  -5   4   5  304.55    8.83
   5  -4  -4   16.72    1.89
   5  -4  -4   15.84    1.98
  -5   4   4   18.01    2.23
   5  -4  -3  119.25    4.65
   5  -4  -3  132.71    5.12
  -5   4   3  130.50    5.82
   5  -4  -3  111.95    4.92
  -5   4   2   65.92    3.81
   5  -4  -2   63.22    3.26
  -5   4   2   69.91    4.23
   5  -4  -2   62.56    3.59
  -5   4   1    4.64    1.20
   5  -4  -1    4.09    1.01
  -5   4   1    3.37    1.08
   5  -4  -1    3.69    0.87
  -5   4   0  339.65    8.85
   5  -4   0  351.44    7.09
  -5   4   0  349.91    9.12
  -5   4  -1   60.20    3.78
   5  -4   1   68.00    3.03
  -5   4  -1   70.15    3.98
  -5   4  -1   66.25    3.93
  -5   4  -2  711.68   12.96
  -5   4  -2  673.06   12.63
  -5   4  -3  489.64    9.08
  -5   4  -3  468.93   10.89
  -5   4  -3  466.47   10.56
  -5   4  -4    1.46    0.81
  -5   4  -4    1.06    0.63
  -5   4  -4    1.10    0.87
  -5   4  -5  214.51    7.79
  -5   4  -5  247.73    7.64
  -5   4  -6    2.73    1.05
  -5   4  -7    6.13    1.58
  -5   4  -8  287.23    9.12
  -5   4  -9  419.66   10.52
  -5   4 -10   76.00    4.15
  -5   4 -11   73.15    3.56
  -5   4 -12   44.25    2.39
  -5   4 -12   40.45    2.16
   5  -3 -13   68.88    2.27
   5  -3 -12   44.01    2.29
   5  -3 -11   29.29    2.18
   5  -3 -10   65.52    3.52
   5  -3  -9  106.35    4.72
  -5   3   8   59.22    3.36
  -5   3   7  745.31   12.61
   5  -3  -6   95.64    4.58
   5  -3  -6   91.68    4.87
  -5   3   6   80.92    4.36
   5  -3  -5   41.21    2.78
  -5   3   5   33.99    2.84
   5  -3  -5   33.36    2.85
   5  -3  -4    9.73    1.63
   5  -3  -4   11.32    1.46
  -5   3   4   10.76    1.68
   5  -3  -3  744.50   12.31
  -5   3   3  752.70   12.17
   5  -3  -3  797.45   11.32
  -5   3   3  810.70   13.39
  -5   3   2  368.73    8.39
   5  -3  -2  367.02    7.22
  -5   3   2  371.86    8.84
  -5   3   1  156.48    5.54
   5  -3  -1  175.00    4.78
  -5   3   1  169.82    5.75
  -5   3   0  121.92    4.91
   5  -3   0  109.05    3.65
  -5   3   0  117.84    4.71
  -5   3  -1  161.58    5.71
  -5   3  -1  162.57    5.56
  -5   3  -2  209.32    6.73
  -5   3  -2  219.56    6.53
  -5   3  -3    6.05    1.28
  -5   3  -3    8.68    1.39
  -5   3  -4  692.71   13.36
  -5   3  -5   27.85    2.20
  -5   3  -5   25.21    2.67
  -5   3  -6  150.26    6.45
  -5   3  -7   13.43    2.06
  -5   3  -8   10.61    1.91
  -5   3  -9  205.28    7.44
  -5   3 -10   10.99    1.71
  -5   3 -11   83.58    3.82
  -5   3 -12    0.22    0.41
  -5   3 -12   -0.02    0.35
   5  -2 -13   34.09    1.91
   5  -2 -12    1.16    0.62
   5  -2 -11   -0.63    0.55
   5  -2 -11   -0.18    0.68
   5  -2 -10    2.07    0.64
   5  -2  -9   37.41    2.20
  -5   2   9   31.99    2.40
   5  -2  -8   16.80    1.49
  -5   2   8   15.10    1.71
   5  -2  -7   95.44    3.34
   5  -2  -7  113.34    4.82
   5  -2  -7  110.33    5.32
  -5   2   7   94.89    4.46
  -5   2   6  217.68    6.79
   5  -2  -6  196.95    4.74
   5  -2  -6  211.18    6.05
  -5   2   5    0.45    0.58
   5  -2  -5    2.12    0.87
  -5   2   5    0.40    0.54
   5  -2  -5    1.47    0.65
  -5   2   4  604.37   11.04
  -5   2   4  593.91   10.20
   5  -2  -4  620.29   10.01
  -5   2   3  763.38   11.37
   5  -2  -3  775.47   10.18
  -5   2   3  790.66   12.08
   5  -2  -2 2883.27   18.23
  -5   2   2 2951.00   22.17
   5  -2  -1    1.59    0.59
   5  -2   0  448.15    7.22
  -5   2  -1  451.00    8.88
   5  -2   1  405.24    7.07
  -5   2  -2   14.98    1.73
   5  -2   2   13.19    1.38
  -5   2  -3  177.67    6.03
   5  -2   3  166.84    4.92
  -5   2  -4   31.46    2.68
   5  -2   4   31.72    2.23
   5  -2   5   34.18    2.39
   5  -2   6    3.72    0.83
  -5   2  -6    5.41    1.42
  -5   2  -7   20.63    2.45
  -5   2  -8  159.61    6.67
  -5   2  -9  202.82    7.19
  -5   2 -10   -0.52    0.75
  -5   2 -11   12.41    1.38
  -5   2 -12    4.28    0.79
   5  -1 -13   32.73    2.01
   5  -1 -12    2.02    0.63
   5  -1 -11   18.25    1.56
   5  -1 -10   10.85    1.31
  -5   1  10    8.60    1.28
   5  -1  -9   22.95    1.83
   5  -1  -8   22.89    1.75
   5  -1  -7  104.63    5.17
  -5   1   7   97.42    4.05
   5  -1  -7   93.72    3.36
   5  -1  -7   90.55    3.90
  -5   1   6    8.34    1.26
   5  -1  -6    8.35    1.07
   5  -1  -6    7.59    1.15
  -5   1   5  483.77    8.94
   5  -1  -5  484.78    7.49
   5  -1  -5  481.93    8.30
  -5   1   4  456.18    8.38
   5  -1  -4  453.87    7.61
   5  -1  -4  457.24    7.63
  -5   1   3    5.33    1.03
   5  -1  -3    5.16    0.84
   5  -1  -2   49.64    2.62
   5  -1  -1   97.09    3.68
   5  -1   0    1.74    0.52
  -5   1  -1    8.53    1.24
   5  -1   1    7.20    1.01
  -5   1  -2  412.63    8.45
   5  -1   2  379.71    7.26
  -5   1  -3  339.38    7.96
  -5   1  -3  349.67    8.00
  -5   1  -4  234.98    6.89
   5  -1   4  225.78    5.94
  -5   1  -5  230.91    7.28
   5  -1   5  211.88    5.89
  -5   1  -6    2.28    0.80
  -5   1  -7  301.62    8.75
  -5   1  -7  298.68    8.81
  -5   1  -8  233.40    7.59
  -5   1  -8  227.97    7.58
  -5   1  -9  139.24    5.55
  -5   1  -9  144.20    5.62
  -5   1 -10   39.14    2.65
  -5   1 -11   21.15    1.75
  -5   1 -11   22.12    1.67
   5   0 -13   33.51    1.78
   5   0 -12   25.43    1.76
   5   0 -11  149.03    4.48
  -5   0  10  226.40    6.01
   5   0 -10  251.28    5.92
  -5   0   9  572.89   10.10
   5   0  -9  617.89    9.18
   5   0  -8  144.47    4.37
  -5   0   8  130.97    4.87
   5   0  -7   15.22    1.92
  -5   0   7   15.54    1.70
   5   0  -7   16.09    1.52
  -5   0   6    3.44    0.83
   5   0  -6    2.29    0.66
  -5   0   5   85.90    3.71
   5   0  -5   87.90    3.22
   5   0  -5   86.36    3.60
  -5   0   4 1215.84   13.66
   5   0  -4 1190.42   13.31
  -5   0   3 1228.25   13.76
   5   0  -3 1223.20   13.74
  -5   0   2  187.70    5.34
   5   0  -2  161.23    4.84
  -5   0   1  244.65    6.13
   5   0  -1  210.23    5.42
  -5   0   0  831.53   11.43
   5   0   0  780.87   11.21
  -5   0  -1  192.38    5.53
   5   0   1  190.58    5.64
  -5   0  -2  192.55    5.66
   5   0   2  196.60    5.81
  -5   0  -3   60.80    3.24
  -5   0  -3   65.10    3.67
   5   0   3   64.14    3.44
  -5   0  -4   92.84    4.69
   5   0   4   96.45    4.28
  -5   0  -5   57.68    3.82
   5   0   5   57.11    3.38
  -5   0  -6   17.94    2.26
  -5   0  -7    9.74    1.74
  -5   0  -7   10.23    1.59
  -5   0  -8    6.71    1.42
  -5   0  -8    4.90    1.15
  -5   0  -9   23.89    2.37
  -5   0 -10   70.93    3.55
  -5   0 -11    9.33    1.10
   5   1 -13   79.92    2.60
   5   1 -12    5.67    0.87
  -5  -1  11   30.54    2.24
   5   1 -11   30.13    1.97
  -5  -1  10  369.21    8.30
   5   1 -10  372.65    6.97
  -5  -1   9  294.69    7.60
   5   1  -9  296.82    6.22
   5   1  -8  135.49    4.18
  -5  -1   8  140.65    5.26
  -5  -1   7   57.03    3.32
   5   1  -7   54.72    2.64
  -5  -1   6  204.85    6.03
   5   1  -6  181.06    4.66
  -5  -1   5  237.79    6.36
   5   1  -5  236.74    6.65
   5   1  -4   11.00    1.45
  -5  -1   4   20.68    1.89
  -5  -1   3  114.56    4.41
   5   1  -3  107.46    4.36
  -5  -1   2  112.63    4.36
   5   1  -2  134.36    4.89
  -5  -1   1   84.35    3.76
   5   1  -1   74.84    3.71
  -5  -1   0  677.49   10.49
   5   1   0  662.76   10.99
  -5  -1  -1  184.38    5.39
   5   1   1  180.97    5.79
  -5  -1  -2    3.11    1.06
   5   1   2    1.52    0.78
  -5  -1  -3  171.41    6.45
   5   1   3  154.40    5.33
  -5  -1  -4   57.25    3.97
  -5  -1  -5   80.51    4.71
  -5  -1  -6    0.50    0.86
  -5  -1  -7  403.84   10.44
  -5  -1  -8   18.96    2.18
  -5  -1  -9   24.47    2.24
  -5  -1 -10    3.09    0.77
  -5  -1 -11   -0.08    0.30
  -5  -2  13   82.75    2.51
  -5  -2  12   15.20    1.41
  -5  -2  11   32.47    2.34
  -5  -2  10   16.02    1.81
   5   2 -10   14.39    1.31
  -5  -2   9    1.96    0.94
   5   2  -9    2.37    0.66
  -5  -2   8  138.23    5.42
  -5  -2   7   18.91    2.08
  -5  -2   6   51.27    3.24
  -5  -2   5   27.65    2.37
   5   2  -5   28.25    2.49
  -5  -2   4  250.06    6.75
   5   2  -4  231.41    7.14
  -5  -2   3   88.60    3.99
   5   2  -3   87.07    4.39
  -5  -2   2  125.89    4.68
   5   2  -2  114.55    4.89
  -5  -2   1  488.66    9.07
   5   2  -1  476.08    9.99
  -5  -2   0  499.75    8.83
   5   2   0  474.97    9.98
  -5  -2  -1  845.38   14.27
  -5  -2  -2  913.36   15.25
  -5  -2  -3   13.52    2.07
  -5  -2  -4   10.83    1.86
  -5  -2  -4   14.06    1.69
  -5  -2  -5    6.03    1.50
  -5  -2  -5    6.49    1.17
  -5  -2  -6  110.18    5.49
  -5  -2  -6  112.31    4.42
  -5  -2  -7   27.24    2.65
  -5  -2  -7   27.47    2.11
  -5  -2  -8   10.55    1.57
  -5  -2  -9   85.16    3.59
  -5  -2 -10    5.84    0.79
  -5  -3  12   12.51    1.20
  -5  -3  11  166.83    4.86
  -5  -3  10   94.07    4.06
  -5  -3   9  151.80    5.42
  -5  -3   8   41.39    3.00
  -5  -3   7    0.03    0.75
  -5  -3   6    3.93    1.00
  -5  -3   5  297.65    7.45
  -5  -3   4  116.22    4.58
  -5  -3   3    6.98    1.16
  -5  -3   2   66.42    3.34
  -5  -3   1    4.57    0.97
  -5  -3   0 1890.39   21.47
  -5  -3   0 1933.41   17.66
  -5  -3  -1  259.97    8.22
  -5  -3  -1  227.61    6.34
  -5  -3  -2   55.71    3.92
  -5  -3  -2   47.47    2.96
  -5  -3  -3   97.15    5.15
  -5  -3  -3   96.98    4.18
  -5  -3  -4  132.95    5.90
  -5  -3  -4  133.87    4.92
  -5  -3  -5  128.75    5.63
  -5  -3  -5  126.33    4.55
  -5  -3  -6  104.89    4.75
  -5  -3  -6  100.93    3.78
  -5  -3  -7   45.04    2.83
  -5  -3  -7   43.77    2.25
  -5  -3  -8    3.81    0.77
  -5  -4  11  156.70    3.99
  -5  -4  10   86.38    3.32
  -5  -4   9   55.52    2.85
  -5  -4   8    6.07    1.08
  -5  -4   7   20.84    1.87
  -5  -4   7   19.23    1.42
  -5  -4   6   11.58    1.42
  -5  -4   6   11.57    1.17
  -5  -4   5   48.51    2.74
  -5  -4   5   50.12    2.47
  -5  -4   4    3.51    0.82
  -5  -4   4    4.27    0.84
  -5  -4   3  258.94    5.95
  -5  -4   3  263.90    6.11
  -5  -4   2  125.86    4.96
  -5  -4   2  116.45    4.14
  -5  -4   1    8.05    1.38
  -5  -4   1   12.35    1.42
  -5  -4   0  230.22    7.13
  -5  -4   0  211.30    5.84
  -5  -4  -1   28.84    2.56
  -5  -4  -1   25.76    2.11
  -5  -4  -2    7.43    1.37
  -5  -4  -2    8.35    1.22
  -5  -4  -3   37.80    2.80
  -5  -4  -3   33.59    2.26
  -5  -4  -4  339.51    7.84
  -5  -4  -4  328.15    6.63
  -5  -4  -5   21.28    1.83
  -5  -4  -5   17.69    1.44
  -5  -4  -6   94.14    2.77
  -5  -4  -6   99.16    3.31
  -5  -5   9    0.82    0.38
  -5  -5   8   13.37    1.15
  -5  -5   7    0.34    0.36
  -5  -5   7    0.72    0.40
  -5  -5   6   28.23    1.71
  -5  -5   6   33.98    1.78
  -5  -5   5   37.05    1.89
  -5  -5   5   36.37    1.94
  -5  -5   4  171.47    4.33
  -5  -5   3   20.63    1.58
  -5  -5   2   25.21    1.77
  -5  -5   1    0.34    0.39
  -5  -5   0   33.09    2.02
  -5  -5  -1    3.90    0.74
  -5  -5  -2   33.21    1.87
  -5  -5  -3    6.85    0.81
   6  -8  -3   45.39    1.93
   6  -8  -2   43.85    2.06
  -6   8   1    5.95    0.94
  -6   8   0   25.54    2.00
  -6   8  -1  104.77    4.07
  -6   8  -2  162.89    4.97
  -6   8  -3   34.38    2.21
  -6   8  -4    1.41    0.56
  -6   8  -5    0.27    0.31
   6  -7  -6   16.78    1.24
   6  -7  -5  103.04    3.43
   6  -7  -5   97.44    2.69
  -6   7   4   37.22    2.30
  -6   7   3   29.48    2.43
  -6   7   2  137.27    5.67
  -6   7   1  122.64    5.68
  -6   7   0  509.03   11.63
  -6   7  -1   10.33    1.87
  -6   7  -2  229.93    7.49
  -6   7  -3   54.49    3.50
  -6   7  -4   44.09    2.98
  -6   7  -5   82.65    3.66
  -6   7  -6    2.83    0.69
  -6   7  -7    4.96    0.80
  -6   7  -7    5.16    0.73
   6  -6  -8   37.22    1.72
   6  -6  -8   42.94    1.91
   6  -6  -7    1.48    0.53
   6  -6  -7    0.73    0.48
   6  -6  -6   90.17    3.59
   6  -6  -6  104.71    3.75
   6  -6  -5   58.70    2.93
  -6   6   5   54.28    3.37
  -6   6   4    0.68    0.81
   6  -6  -4    0.93    0.64
  -6   6   3  289.36    9.26
  -6   6   2    6.74    1.81
  -6   6   1  173.98    7.60
  -6   6   0   77.19    5.11
  -6   6  -1  111.44    5.93
  -6   6  -2   70.41    4.58
  -6   6  -3    4.79    1.38
  -6   6  -4    2.66    1.03
  -6   6  -4    3.84    1.07
  -6   6  -5    1.59    0.82
  -6   6  -5    2.22    0.85
  -6   6  -6    4.43    1.09
  -6   6  -6    9.45    1.32
  -6   6  -7    3.65    0.96
  -6   6  -8    5.29    1.02
  -6   6  -9    2.86    0.73
  -6   6 -10    0.54    0.35
   6  -5 -10   14.35    1.09
   6  -5  -9   77.02    2.96
   6  -5  -8    3.05    0.66
   6  -5  -8    5.62    0.99
   6  -5  -7   42.85    2.55
   6  -5  -7   47.42    2.84
   6  -5  -6   31.37    2.42
  -6   5   6   30.22    2.67
  -6   5   5    5.17    1.31
   6  -5  -5    5.56    1.13
   6  -5  -4   11.72    1.52
  -6   5   4   14.71    2.28
  -6   5   3  194.30    7.98
  -6   5   2   34.96    3.51
  -6   5   1    5.48    1.62
  -6   5   0  117.24    6.06
  -6   5  -1    0.68    0.88
  -6   5  -2  256.39    8.62
  -6   5  -3  121.41    5.89
  -6   5  -3  102.53    5.35
  -6   5  -4  117.81    5.88
  -6   5  -4  226.96    7.69
  -6   5  -5  276.38    8.82
  -6   5  -5  289.12    8.17
  -6   5  -6  161.46    6.59
  -6   5  -7   49.56    3.56
  -6   5  -8   80.60    4.24
  -6   5  -9   49.34    3.02
  -6   5 -10   91.60    3.53
   6  -4 -11   15.55    1.18
   6  -4 -10    9.24    1.11
   6  -4  -9   27.33    2.07
   6  -4  -8   80.67    3.78
  -6   4   8   61.60    3.30
  -6   4   7    2.14    0.85
   6  -4  -7    3.10    0.99
   6  -4  -6  117.07    5.03
  -6   4   6  113.86    5.43
   6  -4  -5   84.76    4.23
  -6   4   5   82.48    4.85
   6  -4  -4   10.69    1.49
  -6   4   4   14.18    2.17
  -6   4   3    3.43    1.29
  -6   4   3    3.48    1.04
  -6   4   2    2.13    1.11
  -6   4   2    5.80    1.34
  -6   4   1   16.83    2.21
  -6   4   1   20.11    2.45
  -6   4   0    3.54    1.16
  -6   4   0    4.64    1.22
  -6   4  -1   56.46    4.03
  -6   4  -1   70.85    4.41
  -6   4  -1   61.23    4.07
  -6   4  -2    2.90    1.00
  -6   4  -2   -0.53    0.79
  -6   4  -3   93.56    5.28
  -6   4  -3   92.16    4.91
  -6   4  -4   18.86    2.46
  -6   4  -4   16.78    2.09
  -6   4  -5   32.18    3.15
  -6   4  -6    0.53    0.81
  -6   4  -7    3.99    1.33
  -6   4  -8    6.04    1.46
  -6   4  -9   62.06    3.65
  -6   4 -10   14.09    1.57
  -6   4 -11    7.30    0.95
  -6   4 -11    7.54    0.92
   6  -3 -12    1.17    0.42
   6  -3 -11    7.77    1.02
   6  -3 -10    0.37    0.57
   6  -3  -9   29.77    2.36
  -6   3   9   22.71    1.97
   6  -3  -8   92.01    4.29
  -6   3   8   84.29    4.09
  -6   3   7   10.21    1.60
  -6   3   6   -0.20    0.77
  -6   3   5  157.28    5.71
  -6   3   5  153.57    6.27
  -6   3   4    0.81    0.80
  -6   3   4    1.36    0.76
   6  -3  -3   71.45    4.10
  -6   3   3   74.37    4.16
  -6   3   3   71.79    4.24
  -6   3   2   52.55    3.51
  -6   3   2   49.02    3.40
  -6   3   1   13.85    1.87
  -6   3   1   10.85    1.66
  -6   3   0   13.62    1.88
   6  -3   0   12.30    1.40
  -6   3   0   17.37    2.03
  -6   3  -1  172.14    6.55
   6  -3   1  151.58    4.81
  -6   3  -1  168.48    6.14
  -6   3  -2   16.65    2.18
   6  -3   2   18.16    1.72
  -6   3  -2   21.53    2.26
  -6   3  -3   25.58    2.72
  -6   3  -3   27.23    2.51
  -6   3  -4  939.89   16.40
  -6   3  -5    3.62    1.32
  -6   3  -6  100.28    5.50
  -6   3  -7  202.94    7.61
  -6   3  -8  256.33    8.09
  -6   3  -9  166.92    6.01
  -6   3 -10    0.85    0.56
  -6   3 -11   21.73    1.59
  -6   3 -11   19.99    1.41
   6  -2 -12    4.87    0.79
   6  -2 -11   46.90    2.59
  -6   2  10   37.18    2.35
  -6   2   9  125.96    4.69
  -6   2   8   22.04    2.15
  -6   2   7   64.24    3.72
  -6   2   6    1.22    0.82
  -6   2   6    3.10    0.86
  -6   2   5  254.69    6.95
  -6   2   5  251.41    7.28
  -6   2   4 1510.48   16.83
  -6   2   4 1514.15   17.53
  -6   2   3  895.35   13.19
  -6   2   3  883.51   13.10
  -6   2   2    0.68    0.58
  -6   2   2    0.27    0.56
   6  -2  -2    1.24    0.65
  -6   2   1  112.00    4.71
   6  -2  -1  112.11    4.35
  -6   2   1  109.82    4.60
  -6   2   0   14.26    1.78
   6  -2   0   15.38    1.61
  -6   2  -1   51.66    3.42
   6  -2   1   56.80    2.99
  -6   2  -1   53.57    3.22
  -6   2  -2   58.01    3.72
   6  -2   2   54.74    3.01
  -6   2  -3    0.33    0.66
  -6   2  -4   13.91    1.94
  -6   2  -5   84.14    4.96
  -6   2  -6   17.09    2.32
  -6   2  -7   22.95    2.64
  -6   2  -8  153.66    6.11
  -6   2  -9   13.37    1.69
  -6   2 -10    4.19    0.84
  -6   2 -11   31.71    1.73
   6  -1 -13    2.37    0.50
   6  -1 -12    9.30    1.10
  -6   1  11   18.96    1.57
  -6   1  10  535.77    9.07
  -6   1   9   95.21    4.16
  -6   1   8  231.81    6.81
  -6   1   8  240.25    6.28
  -6   1   7  484.76    9.90
  -6   1   7  465.08    9.00
  -6   1   6  189.57    5.79
  -6   1   5   96.75    4.14
  -6   1   4  255.00    6.64
  -6   1   3   40.39    2.72
  -6   1   3   37.07    2.60
   6  -1  -3   38.05    2.57
  -6   1   2  931.75   12.87
   6  -1  -2  917.26   12.31
  -6   1   1   63.43    3.45
   6  -1  -1   56.99    3.10
  -6   1   1   55.09    3.02
  -6   1   0   26.07    2.29
   6  -1   0   32.63    2.52
  -6   1   0   27.30    2.17
  -6   1  -1   41.60    2.92
   6  -1   1   47.03    3.09
  -6   1  -2    2.74    0.90
   6  -1   2    1.50    0.71
  -6   1  -3   22.08    2.26
  -6   1  -3   27.04    2.52
  -6   1  -4    3.23    0.97
  -6   1  -4    5.02    1.31
  -6   1  -5  180.49    6.69
  -6   1  -6   52.53    3.63
  -6   1  -6   50.90    3.74
  -6   1  -7    0.81    0.71
  -6   1  -7    0.51    0.67
  -6   1  -8   32.17    2.51
  -6   1  -8   29.95    2.52
  -6   1  -9    7.64    1.14
  -6   1  -9    7.66    1.12
  -6   1 -10    7.00    0.90
   6   0 -13   18.78    1.25
  -6   0  12    0.65    0.35
  -6   0  11  222.37    5.38
  -6   0  10   20.82    1.95
  -6   0  10   21.58    1.77
  -6   0   9  403.70    8.11
  -6   0   8  307.23    7.43
  -6   0   7  140.89    5.07
  -6   0   6  493.89    9.40
  -6   0   5   73.11    3.60
  -6   0   4   39.07    2.68
  -6   0   3  496.24    9.32
   6   0  -3  489.66    9.59
  -6   0   2 1025.00   13.46
   6   0  -2 1061.93   14.54
  -6   0   1  116.72    4.33
  -6   0   1  117.55    4.67
   6   0  -1  125.57    5.03
  -6   0   0  520.52    9.89
   6   0   0  497.23    9.71
  -6   0  -1 1164.14   15.13
  -6   0  -2   15.54    1.83
  -6   0  -2   15.66    2.02
  -6   0  -3    8.00    1.36
  -6   0  -3   10.26    1.71
  -6   0  -4   93.68    4.94
  -6   0  -5   82.53    4.61
  -6   0  -6  138.82    5.84
  -6   0  -6  133.34    5.63
  -6   0  -7   11.05    1.69
  -6   0  -7   10.48    1.52
  -6   0  -8  135.29    5.11
  -6   0  -9    3.58    0.77
  -6  -1  12   73.02    2.56
  -6  -1  11    6.07    0.98
  -6  -1  11    5.71    0.87
  -6  -1  10   38.74    2.46
  -6  -1   9   24.26    2.13
  -6  -1   8   46.82    3.04
  -6  -1   7   84.14    4.10
  -6  -1   6  404.97    8.85
  -6  -1   5  369.81    8.38
  -6  -1   4  364.68    8.22
  -6  -1   3   94.73    4.22
  -6  -1   2  558.66   10.11
  -6  -1   1  911.23   12.92
  -6  -1   0  346.03    7.90
  -6  -1  -1  191.32    5.89
  -6  -1  -1  198.17    6.86
  -6  -1  -2  876.77   14.57
  -6  -1  -3  347.29    9.64
  -6  -1  -4   11.10    1.83
  -6  -1  -5    8.96    1.62
  -6  -1  -6  189.78    6.64
  -6  -1  -6  192.41    5.78
  -6  -1  -7    0.71    0.64
  -6  -1  -8    9.07    1.26
  -6  -1  -9   -0.07    0.35
  -6  -2  12  108.71    2.89
  -6  -2  11    1.00    0.47
  -6  -2  10   12.84    1.41
  -6  -2   9   -0.15    0.84
  -6  -2   8   36.43    2.66
  -6  -2   7  129.45    5.07
  -6  -2   6    1.10    0.77
  -6  -2   5   41.38    2.86
  -6  -2   4  459.65    9.16
  -6  -2   3   40.34    2.71
  -6  -2   2  224.03    6.17
  -6  -2   1    6.93    1.20
  -6  -2   0  127.69    4.46
  -6  -2   0  145.24    5.92
  -6  -2  -1   69.02    4.19
  -6  -2  -2   -0.51    0.92
  -6  -2  -3  121.66    5.59
  -6  -2  -4   -0.12    0.85
  -6  -2  -5  169.38    6.13
  -6  -2  -6   36.80    2.68
  -6  -2  -7    0.69    0.51
  -6  -2  -8    4.02    0.70
  -6  -3  11   61.61    2.20
  -6  -3  10   29.67    1.84
  -6  -3   9   24.18    1.85
  -6  -3   8  173.39    5.06
  -6  -3   7    0.74    0.66
  -6  -3   6   59.12    3.09
  -6  -3   5   25.58    2.02
  -6  -3   4    9.15    1.23
  -6  -3   3   16.47    1.57
  -6  -3   2   -0.07    0.58
  -6  -3   2    0.38    0.44
  -6  -3   1   23.12    2.27
  -6  -3   0   20.34    2.23
  -6  -3  -1  169.03    6.18
  -6  -3  -2   17.41    2.03
  -6  -3  -3   42.66    2.97
  -6  -3  -4    4.22    1.03
  -6  -3  -5   29.13    2.16
  -6  -3  -6   18.86    1.50
  -6  -4   9    5.34    0.69
  -6  -4   8    8.02    0.91
  -6  -4   7  106.11    3.21
  -6  -4   6    0.92    0.47
  -6  -4   5   98.70    3.13
  -6  -4   5  113.54    3.63
  -6  -4   4    5.43    0.76
  -6  -4   4    5.15    0.87
  -6  -4   3   15.82    1.55
  -6  -4   2    1.89    0.67
  -6  -4   1   68.26    3.26
  -6  -4   0   23.02    1.89
  -6  -4  -1   21.10    1.77
  -6  -4  -2   36.50    2.18
  -6  -4  -3   16.30    1.33
   7  -7  -4   29.09    1.56
  -7   7   3    1.20    0.60
  -7   7   2   78.08    3.77
  -7   7   1  105.52    4.56
  -7   7   0   13.88    1.76
  -7   7  -1   68.58    3.61
  -7   7  -2    2.70    0.94
  -7   7  -3  506.80    8.53
  -7   7  -4   39.90    2.16
   7  -6  -6    0.67    0.35
  -7   6   5   91.64    3.88
  -7   6   4   77.11    4.05
  -7   6   3   21.73    2.40
  -7   6   2  160.64    6.54
  -7   6   1    3.73    1.31
  -7   6   0   98.24    5.10
  -7   6  -1   61.70    3.89
  -7   6  -2    8.49    1.55
  -7   6  -3   98.13    4.46
  -7   6  -4    5.91    1.10
  -7   6  -5    6.97    1.10
  -7   6  -5    6.19    0.94
  -7   6  -6   71.56    3.11
  -7   6  -7   38.24    2.08
   7  -5  -8   27.59    1.47
  -7   5   7    2.21    0.67
   7  -5  -7   -0.09    0.36
  -7   5   6   -0.33    0.67
   7  -5  -6    0.97    0.41
   7  -5  -6    1.00    0.43
  -7   5   5    2.21    0.99
  -7   5   4   17.78    2.31
  -7   5   3   25.91    2.88
  -7   5   2   23.99    2.75
  -7   5   1    9.00    1.77
  -7   5   0   13.11    2.04
  -7   5  -1   51.70    3.71
  -7   5  -2  128.02    5.65
  -7   5  -3    0.59    0.68
  -7   5  -3    1.18    0.60
  -7   5  -4    3.29    0.89
  -7   5  -4    4.12    1.12
  -7   5  -5    8.89    1.51
  -7   5  -6    3.43    0.97
  -7   5  -7    0.29    0.57
  -7   5  -8  177.82    4.91
  -7   5  -9    0.26    0.36
   7  -4 -10    0.12    0.26
   7  -4  -9    4.99    0.73
   7  -4  -8  140.29    3.95
  -7   4   8  138.56    4.47
  -7   4   7    1.12    0.69
   7  -4  -7    1.50    0.58
  -7   4   6    0.56    0.64
   7  -4  -6    0.10    0.44
  -7   4   5   15.48    2.06
  -7   4   4  177.94    6.15
  -7   4   4  186.84    6.96
  -7   4   3    0.57    0.95
  -7   4   3    0.09    0.73
  -7   4   2   41.63    3.36
  -7   4   2   42.43    3.41
  -7   4   1    6.64    1.49
  -7   4   1    5.73    1.36
  -7   4   0    2.09    0.93
  -7   4  -1   15.06    2.04
  -7   4  -1   14.69    1.95
  -7   4  -2  139.04    6.12
  -7   4  -2  132.68    5.70
  -7   4  -3  172.74    6.85
  -7   4  -3  184.23    6.41
  -7   4  -4   55.57    3.86
  -7   4  -5   14.30    1.99
  -7   4  -6   17.79    2.12
  -7   4  -7    2.81    0.95
  -7   4  -8   90.61    3.92
  -7   4  -9    3.90    0.76
   7  -3 -10   37.41    1.90
   7  -3  -9   39.66    2.20
  -7   3   9   39.89    2.36
   7  -3  -8  339.95    6.82
  -7   3   8  337.11    7.54
   7  -3  -7   62.78    3.06
  -7   3   7   65.60    3.62
   7  -3  -6   49.88    2.76
  -7   3   6   49.65    3.28
  -7   3   5   33.81    2.60
   7  -3  -5   33.86    2.24
  -7   3   5   35.63    2.98
  -7   3   4   86.95    4.34
  -7   3   4   88.17    4.53
  -7   3   3  553.01   11.16
  -7   3   3  565.95   11.26
  -7   3   2   31.03    2.74
  -7   3   2   29.80    2.67
  -7   3   1   92.42    4.74
  -7   3   1   91.76    4.54
  -7   3   0   82.42    4.55
  -7   3   0  108.59    4.89
  -7   3  -1   57.21    3.91
  -7   3  -1   58.90    3.69
  -7   3  -2   85.41    4.80
  -7   3  -2   89.51    4.92
  -7   3  -2   94.86    4.59
  -7   3  -3   33.76    3.09
  -7   3  -4    1.88    1.01
  -7   3  -5    4.84    1.31
  -7   3  -6    2.04    1.07
  -7   3  -7   18.85    2.10
  -7   3  -8  159.89    5.35
  -7   3  -9    0.42    0.36
   7  -2 -11    1.59    0.46
   7  -2 -10   92.45    3.24
  -7   2  10   88.70    3.24
  -7   2   9  180.26    5.15
  -7   2   8    8.26    1.33
  -7   2   7  266.81    6.44
  -7   2   7  281.76    7.23
  -7   2   6   73.60    3.61
  -7   2   6   75.59    3.91
  -7   2   5   53.93    3.19
  -7   2   5   56.97    3.41
  -7   2   4    0.00    0.76
  -7   2   4   -0.50    0.73
  -7   2   3  107.10    4.56
  -7   2   3  104.75    4.54
  -7   2   2   78.58    4.00
  -7   2   2   74.32    3.81
  -7   2   1    4.89    1.08
  -7   2   1    6.42    1.32
  -7   2   0    1.69    0.80
  -7   2   0    1.41    0.81
  -7   2  -1    1.08    0.62
  -7   2  -1    1.10    0.83
  -7   2  -1    1.53    0.72
  -7   2  -2    7.91    1.53
  -7   2  -3    2.06    0.88
  -7   2  -4   53.64    3.88
  -7   2  -5    0.93    0.95
  -7   2  -6  111.41    5.16
  -7   2  -7   74.05    3.90
  -7   2  -8   29.63    2.22
  -7   2  -9    3.91    0.69
   7  -1 -11   83.73    2.81
  -7   1  11   75.03    2.57
  -7   1  10   19.33    1.60
  -7   1   9    1.60    0.68
  -7   1   9    1.01    0.48
  -7   1   8    2.88    0.88
  -7   1   8    3.91    0.84
  -7   1   7    8.11    1.23
  -7   1   7    8.92    1.39
  -7   1   6   83.07    3.72
  -7   1   6   80.90    3.84
  -7   1   5   58.49    3.18
  -7   1   5   54.27    3.11
  -7   1   4  228.50    6.30
  -7   1   4  215.54    6.09
  -7   1   3   11.70    1.57
  -7   1   3   10.82    1.44
  -7   1   2    0.38    0.46
  -7   1   2    0.33    0.64
  -7   1   1    2.26    0.77
  -7   1   1    1.46    0.83
  -7   1   0  124.91    5.18
  -7   1  -1  146.17    5.70
  -7   1  -1  152.51    5.81
  -7   1  -2  131.48    5.53
  -7   1  -2  140.50    5.71
  -7   1  -3    9.48    1.51
  -7   1  -3   12.30    1.76
  -7   1  -4    9.02    1.53
  -7   1  -5    6.03    1.21
  -7   1  -5    7.43    1.45
  -7   1  -6   91.13    4.03
  -7   1  -6   88.79    4.27
  -7   1  -7   -0.21    0.42
  -7   1  -7    0.62    0.51
  -7   1  -8   41.52    2.19
  -7   0  11    0.26    0.31
  -7   0  10    3.41    0.76
  -7   0  10    2.31    0.57
  -7   0   9   56.65    2.69
  -7   0   9   56.61    2.88
  -7   0   8   48.67    2.68
  -7   0   8   46.25    2.81
  -7   0   7   95.07    4.09
  -7   0   7   90.48    3.81
  -7   0   6   43.63    2.78
  -7   0   6   44.77    2.78
  -7   0   5   78.56    3.65
  -7   0   5   81.25    3.79
  -7   0   4   68.76    3.36
  -7   0   4   75.01    3.66
  -7   0   3   49.48    3.02
  -7   0   3   44.14    2.67
  -7   0   2    9.97    1.46
  -7   0   2    9.33    1.28
  -7   0   1  109.59    4.64
  -7   0   0  216.53    6.53
  -7   0  -1   76.79    3.92
  -7   0  -1   82.90    4.29
  -7   0  -2   51.57    3.20
  -7   0  -2   59.62    3.70
  -7   0  -3    9.96    1.37
  -7   0  -3    9.53    1.59
  -7   0  -4    2.94    0.93
  -7   0  -5   15.32    1.86
  -7   0  -5   18.37    1.94
  -7   0  -6   79.94    3.71
  -7   0  -6   76.52    3.48
  -7   0  -7    2.07    0.63
  -7   0  -7    2.93    0.64
  -7  -1  10    3.17    0.62
  -7  -1  10    3.71    0.72
  -7  -1   9    6.02    0.99
  -7  -1   9    6.01    0.93
  -7  -1   8    4.78    0.98
  -7  -1   8    5.01    0.95
  -7  -1   7    0.58    0.61
  -7  -1   6   27.05    2.15
  -7  -1   5    0.08    0.52
  -7  -1   5    0.46    0.68
  -7  -1   4    1.38    0.66
  -7  -1   4    4.40    0.97
  -7  -1   3  112.73    4.38
  -7  -1   3  104.15    3.85
  -7  -1   2    2.30    0.83
  -7  -1   1  226.62    6.21
  -7  -1   0   12.00    1.47
  -7  -1   0   11.99    1.74
  -7  -1  -1  121.65    4.40
  -7  -1  -1  124.03    5.27
  -7  -1  -2   13.61    1.83
  -7  -1  -3   13.71    1.78
  -7  -1  -4    8.56    1.37
  -7  -1  -5    1.44    0.67
  -7  -1  -5    1.97    0.60
  -7  -1  -6    0.72    0.53
  -7  -2  10    2.17    0.49
  -7  -2   9    0.43    0.39
  -7  -2   9    0.50    0.39
  -7  -2   8    4.12    0.79
  -7  -2   8    2.98    0.70
  -7  -2   7   29.04    1.98
  -7  -2   6    3.97    0.89
  -7  -2   5   40.68    2.27
  -7  -2   5   44.31    2.50
  -7  -2   4   10.77    1.16
  -7  -2   4   10.26    1.25
  -7  -2   3   10.03    1.24
  -7  -2   2   68.97    3.05
  -7  -2   2   80.33    3.81
  -7  -2   1  163.98    4.52
  -7  -2   1  178.01    5.74
  -7  -2   0   30.60    2.50
  -7  -2  -1    0.03    0.65
  -7  -2  -2    2.37    0.82
  -7  -2  -3    0.60    0.56
  -7  -2  -4   47.78    2.67
  -7  -2  -5    0.77    0.42
  -7  -3   8    1.79    0.44
  -7  -3   7    5.26    0.66
  -7  -3   7    5.46    0.74
  -7  -3   7    5.27    0.71
  -7  -3   6    1.25    0.39
  -7  -3   6    1.83    0.49
  -7  -3   6    1.34    0.44
  -7  -3   5   13.68    1.15
  -7  -3   5   14.54    1.31
  -7  -3   4    9.80    0.97
  -7  -3   4   11.93    1.24
  -7  -3   3    2.66    0.55
  -7  -3   3    3.45    0.75
  -7  -3   2   12.61    1.41
  -7  -3   1  124.04    4.21
  -7  -3   0    2.44    0.71
  -7  -3  -1   24.09    1.81
  -7  -3  -2    0.32    0.41
  -8   6   4    0.86    0.43
  -8   6   3   78.27    3.32
  -8   6   2   27.66    2.05
  -8   6   1   31.64    2.22
  -8   6   0   35.86    2.33
  -8   6  -1   52.95    2.70
  -8   6  -2  233.50    5.19
  -8   5   6    0.69    0.42
  -8   5   5    2.51    0.71
  -8   5   4   14.67    1.64
  -8   5   3   -0.35    0.73
  -8   5   2    1.26    0.72
  -8   5   1   34.88    2.56
  -8   5   0   71.40    3.56
  -8   5  -1    4.93    1.01
  -8   5  -2   18.02    1.67
  -8   5  -3   17.62    1.53
  -8   5  -4   29.82    1.94
  -8   5  -5    8.03    0.98
  -8   4   7   57.50    2.69
  -8   4   6    9.20    1.25
  -8   4   5   22.36    2.00
  -8   4   4   87.58    3.98
  -8   4   3   25.54    2.25
  -8   4   2   48.43    3.04
  -8   4   1   17.02    1.85
  -8   4   0   -0.27    0.62
  -8   4  -1   13.13    1.56
  -8   4  -1   13.70    1.60
  -8   4  -2    9.40    1.35
  -8   4  -2   20.01    1.81
  -8   4  -3  114.36    4.46
  -8   4  -4    1.58    0.70
  -8   4  -5   95.58    3.77
  -8   4  -6   13.08    1.33
  -8   3   8  123.96    3.80
  -8   3   7   20.37    1.76
  -8   3   6  126.47    4.45
  -8   3   5  128.79    4.37
  -8   3   5  136.42    4.76
  -8   3   4  108.06    4.27
  -8   3   4  114.53    4.43
  -8   3   3   23.98    2.11
  -8   3   3   25.06    2.13
  -8   3   2   31.36    2.45
  -8   3   2   22.90    2.04
  -8   3   1   36.45    2.73
  -8   3   1   40.08    2.69
  -8   3   1   39.50    2.67
  -8   3   0    0.85    0.66
  -8   3   0   -0.16    0.74
  -8   3   0    0.46    0.52
  -8   3  -1   36.08    2.64
  -8   3  -1   39.54    2.57
  -8   3  -2    5.91    1.16
  -8   3  -3   11.16    1.52
  -8   3  -4    0.55    0.58
  -8   3  -5   34.38    2.44
  -8   3  -6   59.92    2.93
  -8   3  -7   24.72    1.64
  -8   2   9    0.46    0.35
   8  -2  -8   15.85    1.09
  -8   2   8   18.85    1.58
  -8   2   7   12.74    1.25
  -8   2   7   14.15    1.48
  -8   2   6   67.47    3.04
  -8   2   6   78.02    3.42
  -8   2   5   78.50    3.44
  -8   2   5   85.12    3.62
  -8   2   4  141.20    4.75
  -8   2   4  145.43    4.75
  -8   2   3   30.54    2.31
  -8   2   3   31.64    2.28
  -8   2   2    7.61    1.31
  -8   2   2    8.12    1.22
  -8   2   1    2.04    0.67
  -8   2   1    1.57    0.79
  -8   2   1    1.99    0.67
  -8   2   0   52.75    3.26
  -8   2  -1   92.35    4.32
  -8   2  -2    1.46    0.85
  -8   2  -3   84.47    4.05
  -8   2  -4    6.99    1.21
  -8   2  -5   76.48    3.58
  -8   2  -6    3.42    0.78
  -8   1   9   43.55    2.11
  -8   1   8    0.04    0.38
  -8   1   8    0.03    0.35
   8  -1  -8    0.04    0.30
  -8   1   7    7.23    0.99
  -8   1   7    9.55    1.20
  -8   1   6    4.12    0.85
  -8   1   6    5.16    0.95
  -8   1   5    1.87    0.68
  -8   1   5    2.49    0.75
  -8   1   4    3.06    0.78
  -8   1   4    2.76    0.85
  -8   1   3   87.84    3.79
  -8   1   3   89.09    3.57
  -8   1   2   51.47    3.00
  -8   1   2   50.55    2.69
  -8   1   1   79.70    3.83
  -8   1   1   84.32    3.74
  -8   1   0  416.55    8.72
  -8   1   0  431.42    8.43
  -8   1  -1   -0.08    0.62
  -8   1  -1    0.15    0.54
  -8   1  -2   27.60    2.14
  -8   1  -3   34.52    2.26
  -8   1  -3   36.02    2.61
  -8   1  -4   19.14    1.56
  -8   1  -4   21.79    1.94
  -8   1  -5    0.87    0.48
  -8   0   9    0.25    0.32
  -8   0   8    3.77    0.67
  -8   0   8    4.80    0.77
  -8   0   7    0.96    0.46
  -8   0   7    1.14    0.49
  -8   0   6    3.09    0.72
  -8   0   6    2.75    0.72
  -8   0   5   53.50    2.74
  -8   0   5   51.98    2.56
  -8   0   4   17.85    1.64
  -8   0   4   17.18    1.50
  -8   0   3    7.35    1.14
  -8   0   3    6.28    0.92
  -8   0   2   16.71    1.65
  -8   0   2   18.82    1.77
  -8   0   1   47.18    2.68
  -8   0   1   47.05    2.77
  -8   0   0    4.00    0.88
  -8   0   0    4.95    1.00
  -8   0  -1   24.70    1.91
  -8   0  -1   27.35    2.16
  -8   0  -2   83.98    3.61
  -8   0  -3    8.74    1.14
  -8   0  -3    9.64    1.25
  -8   0  -4    7.71    0.99
  -8   0  -4    7.54    0.99
  -8  -1   7   23.94    1.55
  -8  -1   7   22.50    1.43
  -8  -1   6   80.68    2.96
  -8  -1   6   74.99    2.66
  -8  -1   5    1.45    0.46
  -8  -1   5    2.93    0.70
  -8  -1   4    7.62    1.00
  -8  -1   4    8.86    1.12
  -8  -1   3   11.01    1.20
  -8  -1   3   12.28    1.32
  -8  -1   2    7.19    0.99
  -8  -1   2    7.18    1.08
  -8  -1   1   57.78    2.54
  -8  -1   1   68.46    3.10
  -8  -1   0    2.76    0.60
  -8  -1   0    3.72    0.83
  -8  -1  -1    5.52    0.91
  -8  -1  -2    2.66    0.66
  -8  -1  -3    0.64    0.33
  -8  -2   5    3.80    0.61
  -8  -2   4   39.49    1.91
  -8  -2   3   78.92    2.82
  -8  -2   2   11.29    1.14
  -8  -2   1  148.01    3.90
  -8  -2   0   17.94    1.33
  -9   4   3   -0.06    0.31
  -9   4   2    1.31    0.43
  -9   3   5    7.60    0.89
  -9   3   4    7.65    0.92
  -9   3   3   42.03    2.07
  -9   3   2   15.66    1.26
  -9   3  -1   32.57    1.73
  -9   2   5    7.15    0.86
  -9   2   4   12.63    1.16
  -9   2   4   12.38    1.10
  -9   2   3   22.32    1.61
  -9   2   3   21.08    1.40
  -9   2   2    6.30    0.92
  -9   2   1  113.01    3.32
  -9   2   0    0.74    0.44
  -9   2  -1  101.27    3.21
  -9   2  -2   13.24    1.16
  -9   1   4  136.94    3.64
  -9   1   3    2.07    0.57
  -9   1   2    8.12    0.98
  -9   1   1   81.34    2.87
  -9   1   0   57.13    2.41
  -9   1  -1   20.76    1.41
   0   0   0    0.00    0.00


TITL ZH-YYM116 in P-1
REM P-1 (#2 in standard setting)
CELL 1.54184   7.527756   7.537709  13.132081  98.8735  94.7688 106.2813
ZERR   13.00   0.000532   0.000458   0.000580   0.0043   0.0046   0.0058
LATT  1
SFAC C H N O
UNIT 13.00 13.00 13.00 13.00
TREF
HKLF 4
END
_computing_structure_solution     'SHELXT 2014/5 (Sheldrick, 2014)'
;
_shelx_hkl_checksum              94644
_olex2_submission_special_instructions 'No special instructions were received'
_oxdiff_exptl_absorpt_empirical_details
;
Empirical correction (ABSPACK) includes:
- Absorption correction using spherical harmonics
- Frame scaling
;
_oxdiff_exptl_absorpt_empirical_full_max 1.618
_oxdiff_exptl_absorpt_empirical_full_min 0.543
loop_
_space_group_symop_operation_xyz
'x, y, z'
'-x, -y, -z'
loop_
_atom_site_label
_atom_site_type_symbol
_atom_site_fract_x
_atom_site_fract_y
_atom_site_fract_z
_atom_site_U_iso_or_equiv
_atom_site_adp_type
_atom_site_occupancy
_atom_site_site_symmetry_order
_atom_site_calc_flag
_atom_site_refinement_flags_posn
O001 O 0.04803(14) 0.53307(14) 0.86860(9) 0.0482(3) Uani 1 1 d .
O002 O 0.38451(18) 0.34509(15) 0.90091(9) 0.0565(3) Uani 1 1 d .
N003 N 0.34820(16) 0.38209(15) 0.73387(9) 0.0373(3) Uani 1 1 d .
F004 F 0.2146(2) 0.65974(19) 0.38559(8) 0.0869(4) Uani 1 1 d .
O005 O 0.15633(17) 0.81018(18) 0.82001(12) 0.0679(4) Uani 1 1 d .
C006 C 0.52836(18) 0.79460(17) 0.84173(10) 0.0360(3) Uani 1 1 d .
C007 C 0.18196(18) 0.67662(18) 0.84879(10) 0.0372(3) Uani 1 1 d .
C008 C 0.37289(18) 0.65013(18) 0.87587(10) 0.0353(3) Uani 1 1 d .
H008 H 0.3965 0.6740 0.9520 0.042 Uiso 1 1 calc R
C009 C 0.53531(19) 0.80676(18) 0.73659(11) 0.0380(3) Uani 1 1 d .
C00A C 0.37127(18) 0.44722(18) 0.84049(10) 0.0372(3) Uani 1 1 d .
C00B C 0.40176(19) 0.67242(19) 0.65169(10) 0.0388(3) Uani 1 1 d .
C00C C 0.6650(2) 0.91961(19) 0.91782(12) 0.0442(3) Uani 1 1 d .
H00C H 0.6588 0.9116 0.9875 0.053 Uiso 1 1 calc R
C00D C 0.32768(18) 0.48117(19) 0.65335(10) 0.0364(3) Uani 1 1 d .
C00E C 0.2366(2) 0.3472(2) 0.56392(11) 0.0438(3) Uani 1 1 d .
C00F C 0.2777(2) 0.18867(19) 0.69176(12) 0.0451(3) Uani 1 1 d .
H00F H 0.2780 0.0922 0.7281 0.054 Uiso 1 1 calc R
C00G C 0.6826(2) 0.9474(2) 0.71157(13) 0.0489(4) Uani 1 1 d .
H00G H 0.6891 0.9580 0.6423 0.059 Uiso 1 1 calc R
C00H C 0.2103(2) 0.1647(2) 0.59162(13) 0.0493(4) Uani 1 1 d .
H00H H 0.1556 0.0497 0.5472 0.059 Uiso 1 1 calc R
C00I C 0.3568(2) 0.7263(2) 0.55797(12) 0.0493(4) Uani 1 1 d .
H00I H 0.3960 0.8526 0.5527 0.059 Uiso 1 1 calc R
C00J C 0.8099(2) 1.0556(2) 0.89089(14) 0.0544(4) Uani 1 1 d .
H00J H 0.9018 1.1371 0.9420 0.065 Uiso 1 1 calc R
C00K C -0.1394(2) 0.5497(3) 0.85918(15) 0.0565(4) Uani 1 1 d .
H00A H -0.1594 0.6055 0.8000 0.085 Uiso 1 1 calc GR
H00B H -0.1549 0.6274 0.9209 0.085 Uiso 1 1 calc GR
H00D H -0.2281 0.4271 0.8504 0.085 Uiso 1 1 calc GR
C00L C 0.8172(2) 1.0695(2) 0.78703(15) 0.0569(4) Uani 1 1 d .
H00L H 0.9133 1.1617 0.7686 0.068 Uiso 1 1 calc R
C00M C 0.1964(2) 0.4050(3) 0.47094(12) 0.0551(4) Uani 1 1 d .
H00M H 0.1336 0.3199 0.4111 0.066 Uiso 1 1 calc R
C00N C 0.2554(3) 0.5950(3) 0.47349(12) 0.0563(4) Uani 1 1 d .
loop_
_atom_site_aniso_label
_atom_site_aniso_U_11
_atom_site_aniso_U_22
_atom_site_aniso_U_33
_atom_site_aniso_U_23
_atom_site_aniso_U_13
_atom_site_aniso_U_12
O001 0.0364(5) 0.0383(6) 0.0722(7) 0.0166(5) 0.0119(4) 0.0100(4)
O002 0.0760(8) 0.0400(6) 0.0550(6) 0.0215(5) -0.0013(5) 0.0156(5)
N003 0.0416(6) 0.0267(5) 0.0460(6) 0.0107(4) 0.0086(4) 0.0112(4)
F004 0.1348(12) 0.0889(9) 0.0459(6) 0.0283(5) 0.0036(6) 0.0413(8)
O005 0.0566(7) 0.0583(7) 0.1107(11) 0.0478(7) 0.0285(7) 0.0299(6)
C006 0.0363(6) 0.0275(6) 0.0468(7) 0.0101(5) 0.0096(5) 0.0110(5)
C007 0.0411(7) 0.0337(7) 0.0392(6) 0.0085(5) 0.0116(5) 0.0124(5)
C008 0.0388(7) 0.0320(6) 0.0359(6) 0.0096(5) 0.0074(5) 0.0094(5)
C009 0.0434(7) 0.0282(6) 0.0478(7) 0.0115(5) 0.0158(6) 0.0143(5)
C00A 0.0359(6) 0.0319(6) 0.0454(7) 0.0145(5) 0.0049(5) 0.0089(5)
C00B 0.0451(7) 0.0365(7) 0.0419(7) 0.0136(5) 0.0163(5) 0.0170(6)
C00C 0.0462(7) 0.0324(7) 0.0526(8) 0.0059(6) 0.0062(6) 0.0105(6)
C00D 0.0384(6) 0.0353(7) 0.0397(6) 0.0100(5) 0.0109(5) 0.0143(5)
C00E 0.0449(7) 0.0416(8) 0.0462(7) 0.0054(6) 0.0084(6) 0.0158(6)
C00F 0.0479(8) 0.0285(7) 0.0602(8) 0.0100(6) 0.0096(6) 0.0121(6)
C00G 0.0574(9) 0.0339(7) 0.0588(9) 0.0139(6) 0.0255(7) 0.0111(6)
C00H 0.0515(8) 0.0345(7) 0.0578(8) 0.0013(6) 0.0067(6) 0.0105(6)
C00I 0.0656(9) 0.0454(8) 0.0465(8) 0.0194(6) 0.0184(7) 0.0230(7)
C00J 0.0471(8) 0.0349(8) 0.0728(10) 0.0019(7) 0.0073(7) 0.0030(6)
C00K 0.0364(7) 0.0547(9) 0.0776(11) 0.0086(8) 0.0108(7) 0.0134(7)
C00L 0.0523(9) 0.0338(7) 0.0815(11) 0.0099(7) 0.0267(8) 0.0032(6)
C00M 0.0644(10) 0.0594(10) 0.0419(8) 0.0042(7) 0.0058(7) 0.0225(8)
C00N 0.0744(11) 0.0646(10) 0.0398(7) 0.0197(7) 0.0119(7) 0.0301(9)
loop_
_atom_type_symbol
_atom_type_description
_atom_type_scat_dispersion_real
_atom_type_scat_dispersion_imag
_atom_type_scat_source
C C 0.0181 0.0091 'International Tables Vol C Tables 4.2.6.8 and 6.1.1.4'
H H 0.0000 0.0000 'International Tables Vol C Tables 4.2.6.8 and 6.1.1.4'
F F 0.0727 0.0534 'International Tables Vol C Tables 4.2.6.8 and 6.1.1.4'
N N 0.0311 0.0180 'International Tables Vol C Tables 4.2.6.8 and 6.1.1.4'
O O 0.0492 0.0322 'International Tables Vol C Tables 4.2.6.8 and 6.1.1.4'
loop_
_geom_angle_atom_site_label_1
_geom_angle_atom_site_label_2
_geom_angle_atom_site_label_3
_geom_angle
C007 O001 C00K 116.37(12)
C00A N003 C00D 127.98(11)
C00A N003 C00F 121.14(11)
C00D N003 C00F 107.69(11)
C009 C006 C008 121.58(12)
C00C C006 C008 118.31(12)
C00C C006 C009 120.10(12)
O001 C007 C008 109.99(11)
O005 C007 O001 124.64(13)
O005 C007 C008 125.25(13)
C006 C008 C007 112.38(10)
C006 C008 C00A 114.35(10)
C00A C008 C007 111.79(11)
C006 C009 C00B 122.94(12)
C006 C009 C00G 118.01(13)
C00G C009 C00B 118.96(13)
O002 C00A N003 120.80(13)
O002 C00A C008 122.42(13)
N003 C00A C008 116.75(10)
C00D C00B C009 123.52(12)
C00D C00B C00I 115.08(13)
C00I C00B C009 121.04(13)
C00J C00C C006 120.70(14)
N003 C00D C00E 107.29(11)
C00B C00D N003 129.33(12)
C00B C00D C00E 122.85(13)
C00D C00E C00H 106.78(13)
C00M C00E C00D 120.25(14)
C00M C00E C00H 132.93(14)
C00H C00F N003 109.67(13)
C00L C00G C009 121.52(15)
C00F C00H C00E 108.49(13)
C00N C00I C00B 120.91(14)
C00C C00J C00L 119.60(15)
C00G C00L C00J 120.07(14)
C00N C00M C00E 115.70(14)
F004 C00N C00I 117.19(16)
F004 C00N C00M 118.15(15)
C00M C00N C00I 124.65(14)
loop_
_geom_bond_atom_site_label_1
_geom_bond_atom_site_label_2
_geom_bond_distance
O001 C007 1.3318(16)
O001 C00K 1.4478(18)
O002 C00A 1.2043(17)
N003 C00A 1.3898(18)
N003 C00D 1.4074(17)
N003 C00F 1.4077(17)
F004 C00N 1.3652(18)
O005 C007 1.1865(17)
C006 C008 1.5099(17)
C006 C009 1.4020(19)
C006 C00C 1.393(2)
C007 C008 1.5265(18)
C008 C00A 1.5246(18)
C009 C00B 1.474(2)
C009 C00G 1.4032(19)
C00B C00D 1.3966(19)
C00B C00I 1.399(2)
C00C C00J 1.383(2)
C00D C00E 1.4075(19)
C00E C00H 1.441(2)
C00E C00M 1.396(2)
C00F C00H 1.336(2)
C00G C00L 1.373(2)
C00I C00N 1.375(2)
C00J C00L 1.388(3)
C00M C00N 1.370(3)
