#------------------------------------------------------------------------------
#$Date: 2019-11-04 15:20:55 +0200 (Mon, 04 Nov 2019) $
#$Revision: 223133 $
#$URL: file:///home/coder/svn-repositories/cod/cif/4/03/46/4034656.cif $
#------------------------------------------------------------------------------
#
# This file is available in the Crystallography Open Database (COD),
# http://www.crystallography.net/
#
# All data on this site have been placed in the public domain by the
# contributors.
#
data_4034656
loop_
_publ_author_name
'Achar, Tapas Kumar'
'Biswas, Jyoti Prasad'
'Porey, Sandip'
'Pal, Tapas'
'Ramakrishna, Kankanala'
'Maiti, Siddhartha'
'Maiti, Debabrata'
_publ_section_title
;
 Palladium-Catalyzed Template Directed C-5 Selective Olefination of
 Thiazoles.
;
_journal_issue                   12
_journal_name_full               'The Journal of organic chemistry'
_journal_page_first              8315
_journal_page_last               8321
_journal_paper_doi               10.1021/acs.joc.9b01074
_journal_volume                  84
_journal_year                    2019
_chemical_formula_moiety         '1.33(C7 H6 N2 S)'
_chemical_formula_sum            'C9.33 H8 N2.67 S1.33'
_chemical_formula_weight         200.26
_space_group_crystal_system      monoclinic
_space_group_IT_number           14
_space_group_name_Hall           '-P 2ybc'
_space_group_name_H-M_alt        'P 1 21/c 1'
_atom_sites_solution_hydrogens   geom
_atom_sites_solution_primary     direct
_audit_creation_date             2019-02-25
_audit_creation_method
;
Olex2 1.2-alpha
(compiled 2018.07.26 svn.r3523 for OlexSys, GUI svn.r5532)
;
_cell_angle_alpha                90
_cell_angle_beta                 97.120(9)
_cell_angle_gamma                90
_cell_formula_units_Z            3
_cell_length_a                   3.9295(4)
_cell_length_b                   18.2181(16)
_cell_length_c                   10.2470(10)
_cell_measurement_reflns_used    1396
_cell_measurement_temperature    150
_cell_measurement_theta_max      29.4850
_cell_measurement_theta_min      2.3020
_cell_volume                     727.91(12)
_computing_cell_refinement       'CrysAlisPro 1.171.39.46 (Rigaku OD, 2018)'
_computing_data_collection       'CrysAlisPro 1.171.39.46 (Rigaku OD, 2018)'
_computing_data_reduction        'CrysAlisPro 1.171.39.46 (Rigaku OD, 2018)'
_computing_molecular_graphics    'Olex2 (Dolomanov et al., 2009)'
_computing_publication_material  'Olex2 (Dolomanov et al., 2009)'
_computing_structure_refinement  'ShelXL (Sheldrick, 2015)'
_computing_structure_solution    'ShelXT (Sheldrick, 2015)'
_diffrn_ambient_temperature      150
_diffrn_detector                 'CCD plate'
_diffrn_detector_area_resol_mean 28.5714
_diffrn_detector_type            'Rigaku Saturn724+'
_diffrn_measured_fraction_theta_full 0.999
_diffrn_measured_fraction_theta_max 0.999
_diffrn_measurement_details
;
List of Runs (angles in degrees, time in seconds):

  # Type    Start    End  Width  t~exp~   \w     \q     \k     \f   Frames
--------------------------------------------------------------------------
  1  \w   -110.00  70.00   0.50    8.00    --  -20.00   0.00-180.00  360
  2  \w    -59.00   0.50   0.50    8.00    --  -20.00  72.00 108.00  119
  3  \w    -78.00 -61.50   0.50    8.00    --  -20.00 -72.00  36.00   33
;
_diffrn_measurement_device       'abstract diffractometer'
_diffrn_measurement_device_type
'dtrek-CrysAlisPro-abstract goniometer imported rigaku-d*trek images'
_diffrn_measurement_method       '\w scans'
_diffrn_measurement_specimen_support 'Mitegen 50um'
_diffrn_orient_matrix_type
'CrysAlisPro convention (1999,Acta A55,543-557)'
_diffrn_orient_matrix_UB_11      -0.1217427000
_diffrn_orient_matrix_UB_12      0.0040168000
_diffrn_orient_matrix_UB_13      -0.0567315000
_diffrn_orient_matrix_UB_21      0.0769702000
_diffrn_orient_matrix_UB_22      0.0337424000
_diffrn_orient_matrix_UB_23      -0.0146603000
_diffrn_orient_matrix_UB_31      0.1112094000
_diffrn_orient_matrix_UB_32      -0.0189791000
_diffrn_orient_matrix_UB_33      -0.0378465000
_diffrn_radiation_collimation    0.3
_diffrn_radiation_monochromator  graphite
_diffrn_radiation_probe          x-ray
_diffrn_radiation_type           MoK\a
_diffrn_radiation_wavelength     0.71073
_diffrn_reflns_av_R_equivalents  0.0468
_diffrn_reflns_av_unetI/netI     0.0578
_diffrn_reflns_Laue_measured_fraction_full 0.999
_diffrn_reflns_Laue_measured_fraction_max 0.999
_diffrn_reflns_limit_h_max       4
_diffrn_reflns_limit_h_min       -3
_diffrn_reflns_limit_k_max       21
_diffrn_reflns_limit_k_min       -18
_diffrn_reflns_limit_l_max       12
_diffrn_reflns_limit_l_min       -12
_diffrn_reflns_number            3279
_diffrn_reflns_point_group_measured_fraction_full 0.999
_diffrn_reflns_point_group_measured_fraction_max 0.999
_diffrn_reflns_theta_full        24.991
_diffrn_reflns_theta_max         24.991
_diffrn_reflns_theta_min         2.236
_diffrn_source                   'fine-focus sealed X-ray tube'
_diffrn_source_current           24.0
_diffrn_source_power             1.2
_diffrn_source_target            Mo
_diffrn_source_type              'Enhance (Mo) X-ray Source'
_diffrn_source_voltage           50.0
_exptl_absorpt_coefficient_mu    0.360
_exptl_absorpt_correction_T_max  1.00000
_exptl_absorpt_correction_T_min  0.74542
_exptl_absorpt_correction_type   multi-scan
_exptl_absorpt_process_details
;
CrysAlisPro 1.171.39.46 (Rigaku Oxford Diffraction, 2018)
Empirical absorption correction using spherical harmonics,
 implemented in SCALE3 ABSPACK scaling algorithm.
;
_exptl_crystal_colour            'clear light colourless'
_exptl_crystal_colour_lustre     clear
_exptl_crystal_colour_modifier   light
_exptl_crystal_colour_primary    colourless
_exptl_crystal_density_diffrn    1.371
_exptl_crystal_description       block
_exptl_crystal_F_000             312
_exptl_crystal_size_max          0.21
_exptl_crystal_size_mid          0.092
_exptl_crystal_size_min          0.084
_refine_diff_density_max         0.613
_refine_diff_density_min         -0.325
_refine_diff_density_rms         0.096
_refine_ls_extinction_method     none
_refine_ls_goodness_of_fit_ref   1.156
_refine_ls_hydrogen_treatment    constr
_refine_ls_matrix_type           full
_refine_ls_number_parameters     92
_refine_ls_number_reflns         1288
_refine_ls_number_restraints     0
_refine_ls_restrained_S_all      1.156
_refine_ls_R_factor_all          0.0867
_refine_ls_R_factor_gt           0.0734
_refine_ls_shift/su_max          0.000
_refine_ls_shift/su_mean         0.000
_refine_ls_structure_factor_coef Fsqd
_refine_ls_weighting_details
'w=1/[\s^2^(Fo^2^)+(0.0580P)^2^+1.7962P] where P=(Fo^2^+2Fc^2^)/3'
_refine_ls_weighting_scheme      calc
_refine_ls_wR_factor_gt          0.1698
_refine_ls_wR_factor_ref         0.1772
_reflns_Friedel_coverage         0.000
_reflns_number_gt                1100
_reflns_number_total             1288
_reflns_threshold_expression     'I > 2\s(I)'
_cod_data_source_file            jo9b01074_si_005.cif
_cod_data_source_block           dm-ta-367-e2_mo
_cod_original_cell_volume        727.90(13)
_cod_database_code               4034656
_shelx_shelxl_version_number     2018/3
_shelx_space_group_comment
;
The symmetry employed for this shelxl refinement is uniquely defined
by the following loop, which should always be used as a source of
symmetry information in preference to the above space-group names.
They are only intended as comments.
;
_shelx_estimated_absorpt_t_max   0.970
_shelx_estimated_absorpt_t_min   0.928
_reflns_odcompleteness_completeness 90.39
_reflns_odcompleteness_iscentric 1
_reflns_odcompleteness_theta     30.92
_olex2_refinement_description
;
1. Fixed Uiso
 At 1.2 times of:
  All C(H) groups
 At 1.5 times of:
  All C(H,H,H) groups
2.a Aromatic/amide H refined with riding coordinates:
 C004(H004), C00A(H00D), C2(H2)
2.b Idealised Me refined as rotating group:
 C009(H00A,H00B,H00C)
;
_shelx_res_file
;
TITL dm-ta-367-e2_mo_a.res in P2(1)/c
    dm-ta-367-e2_mo.res
    created by SHELXL-2018/3 at 11:28:07 on 25-Feb-2019
REM Old TITL DM-TA-367-E2_Mo in P21/c #14
REM SHELXT solution in P2(1)/c
REM R1 0.584, Rweak 0.473, Alpha 0.075, Orientation as input
REM Formula found by SHELXT: C8 N Cl
CELL 0.71073 3.929452 18.218092 10.246986 90 97.12 90
ZERR 3 0.000423 0.001615 0.001014 0 0.0092 0
LATT 1
SYMM -X,0.5+Y,0.5-Z
SFAC C H N S
UNIT 28 24 8 4

L.S. 100 0 0
PLAN  20
SIZE 0.084 0.092 0.21
TEMP -123.15
BOND $H
LIST 6
MORE -1
CONF
fmap 2 53
acta 52
OMIT -3 50
OMIT 0 2 1
REM <olex2.extras>
REM <HklSrc "%.\\DM-TA-367-E2_Mo.hkl">
REM </olex2.extras>

WGHT    0.058000    1.796200
FVAR       4.40000
S01   4    0.311344    0.770261    0.395832    11.00000    0.02856    0.03730 =
         0.03254    0.00093   -0.00322    0.00088
C002  1    0.531032    0.825336    0.516392    11.00000    0.02255    0.04280 =
         0.02881   -0.00343   -0.00237   -0.00174
N003  3    0.018051    0.462113    0.286783    11.00000    0.05020    0.04066 =
         0.05427   -0.00038   -0.01519   -0.00318
C004  1    0.157580    0.598569    0.338945    11.00000    0.02993    0.03691 =
         0.03525    0.00160   -0.00286    0.00271
AFIX  43
H004  2    0.058818    0.635152    0.279913    11.00000   -1.20000
AFIX   0
C006  1    0.455684    0.693065    0.485545    11.00000    0.02642    0.03830 =
         0.03338    0.00057    0.00388    0.00230
C008  1    0.081456    0.522650    0.311327    11.00000    0.02980    0.04448 =
         0.03606    0.00510   -0.00579    0.00587
C009  1    0.528180    0.906657    0.505089    11.00000    0.03655    0.04184 =
         0.04183    0.00081   -0.00427   -0.00096
AFIX 137
H00A  2    0.752654    0.923674    0.485175    11.00000   -1.50000
H00B  2    0.479097    0.928280    0.588313    11.00000   -1.50000
H00C  2    0.350907    0.921648    0.434326    11.00000   -1.50000
AFIX   0
C00A  1    0.365620    0.618690    0.446604    11.00000    0.02676    0.03196 =
         0.03721    0.00394    0.00486    0.00391
AFIX  43
H00D  2    0.462772    0.580517    0.502432    11.00000   -1.20000
AFIX   0
N1    3    0.696480    0.789196    0.615484    11.00000    0.03327    0.03865 =
         0.03600   -0.00148   -0.00072   -0.00131
C2    1    0.653125    0.715582    0.596818    11.00000    0.03363    0.03587 =
         0.03646    0.00131   -0.00109    0.00366
AFIX  43
H2    2    0.756972    0.681226    0.659224    11.00000   -1.20000
AFIX   0
HKLF 4




REM  dm-ta-367-e2_mo_a.res in P2(1)/c
REM wR2 = 0.1772, GooF = S = 1.156, Restrained GooF = 1.156 for all data
REM R1 = 0.0734 for 1100 Fo > 4sig(Fo) and 0.0867 for all 1288 data
REM 92 parameters refined using 0 restraints

END

WGHT      0.0575      1.7978

REM Highest difference peak  0.613,  deepest hole -0.325,  1-sigma level  0.096
Q1    1   0.3113  0.7111  0.4079  11.00000  0.05    0.61
Q2    1   0.3177  0.8290  0.4069  11.00000  0.05    0.56
Q3    1   0.5575  0.9182  0.4176  11.00000  0.05    0.48
Q4    1   0.2789  0.7677  0.2966  11.00000  0.05    0.42
Q5    1   0.7190  0.9044  0.6394  11.00000  0.05    0.38
Q6    1   0.5339  0.9814  0.5193  11.00000  0.05    0.34
Q7    1   0.0127  0.4013  0.2974  11.00000  0.05    0.33
Q8    1   0.5000  1.0000  0.5000  10.50000  0.05    0.33
Q9    1   0.7383  0.8378  0.6663  11.00000  0.05    0.30
Q10   1   0.5368  0.8711  0.5209  11.00000  0.05    0.29
Q11   1   0.3109  0.9202  0.5230  11.00000  0.05    0.28
Q12   1   0.6155  0.9393  0.5354  11.00000  0.05    0.27
Q13   1   0.1404  0.9053  0.3185  11.00000  0.05    0.27
Q14   1   0.6319  0.6999  0.5030  11.00000  0.05    0.27
Q15   1  -0.0258  0.5010  0.2214  11.00000  0.05    0.25
Q16   1   0.4451  0.6220  0.5311  11.00000  0.05    0.25
Q17   1   0.6477  0.7567  0.6320  11.00000  0.05    0.24
Q18   1   0.1605  0.6024  0.4245  11.00000  0.05    0.24
Q19   1   0.5660  0.7604  0.5234  11.00000  0.05    0.23
Q20   1   0.4552  0.6980  0.5628  11.00000  0.05    0.23
;
_shelx_res_checksum              45003
_shelx_hkl_file
;
   0   0   1-3.84504 9.24924   1
   0   0   1 8.22518 11.6440   2
   0   0  -1-2.51498 6.03485   2
   0   0   2 67098.7 709.020   1
   0   0  -2 67191.2 709.294   1
   0   0  -3 160.270 70.0222   1
   0   0   3 7.73101 29.9779   2
   0   0   3 198.929 76.9652   1
   0   0  -3 187.063 69.8429   2
   0   0  -4 4635.64 253.568   1
   0   0   4 4814.66 265.751   1
   0   0   5 839.617 169.220   1
   0   0  -5 946.885 154.804   1
   0   0  -6 56.7796 50.6949   1
   0   0  -7 1065.36 188.855   1
   0   0  -8 5320.34 408.079   1
   0   0  -9 748.709 176.465   1
   0   0 -10 14023.6 736.378   1
   0   0 -11 301.463 156.578   1
   0   0 -12 95.7796 129.187   1
   0   0  13 85.2250 142.498   3
   0   0  14 2730.93 504.945   3
   0   1  -1-2.68807 6.48007   1
   0   1   1-0.48455 6.35930   1
   0   1  -1 1.81101 6.17691   2
   0  -1   1-4.87413 7.98611   2
   0  -1   2 11864.5 292.494   1
   0   1   2 12297.1 318.970   2
   0  -1  -2 11476.3 273.514   1
   0   1  -2 11816.2 289.777   1
   0   1   2 11314.4 270.213   1
   0   1   3 38930.1 654.747   1
   0   1  -3 39010.1 669.498   1
   0   1  -3 39680.2 649.903   2
   0  -1  -3 37625.1 640.728   1
   0  -1   3 39022.2 677.719   1
   0   1  -4 3327.48 274.107   1
   0  -1  -4 2900.54 211.147   1
   0   1   4 2638.93 214.961   2
   0   1   4 2870.56 216.009   1
   0  -1   4 2842.76 225.744   1
   0   1  -4 2901.59 216.601   2
   0  -1   5 8509.66 401.417   1
   0  -1  -5 8414.51 387.314   1
   0   1  -5 8478.46 390.749   1
   0   1   5 8397.30 401.121   1
   0   1  -6 2534.83 281.171   1
   0  -1  -6 343.408 102.271   1
   0   1  -7 5611.57 380.913   1
   0  -1  -7 3167.15 280.147   1
   0   1  -8 5287.59 421.034   1
   0  -1  -8 2364.60 272.316   1
   0  -1  -9 1884.84 257.469   1
   0   1  -9 2784.65 321.444   1
   0   1 -10 2460.64 333.229   1
   0  -1 -10 6196.41 506.898   1
   0   1 -11 344.702 168.769   1
   0  -1 -11 208.511 128.317   1
   0   1 -12 265.193 157.941   1
   0  -1  13 114.019 157.290   3
   0   1  13-7.24585 128.829   3
   0   1 -13 76.1469 146.797   1
   0  -1  14 369.603 237.791   3
   0   1  14 395.619 227.028   3
   0  -2   0 88403.0 543.030   1
   0   2   0-5.95718 8.02294   1
   0   2  -1-8.27689 8.31345   2
   0   2  -1 8.28272 9.59215   1
   0  -2   1 6.05286 10.2154   2
   0  -2  -1-3.56198 8.13596   1
   0   2   1 13.3225 15.6089   1
   0  -2   2 75229.6 769.379   1
   0   2   2 74444.4 740.364   1
   0   2  -2 75565.3 667.947   2
   0   2  -2 73029.2 754.352   1
   0   2   2 72007.5 720.714   1
   0  -2   3 4262.75 228.687   1
   0   2   3 4217.86 234.250   2
   0  -2  -3 4293.40 214.331   1
   0  -2   3 4556.62 222.244   2
   0   2  -3 4119.13 222.575   1
   0   2   3 4067.18 206.871   1
   0   2   4 49436.5 844.491   1
   0   2  -4 46955.1 811.342   2
   0   2  -4 50671.5 903.510   1
   0  -2   4 50278.3 849.574   2
   0   2   4 45730.5 907.068   2
   0  -2  -4 46981.4 803.989   1
   0  -2   4 49110.8 888.257   1
   0   2   5 500.223 135.007   1
   0   2  -5 336.008 79.9999   2
   0   2  -5 281.034 77.2829   1
   0   2  -6 15004.1 592.049   1
   0  -2  -6 14104.4 542.604   1
   0  -2  -7 9623.31 492.836   1
   0   2  -7 8075.49 462.500   1
   0  -2  -8 12919.6 609.269   1
   0   2  -8 13224.5 614.516   1
   0  -2  -9 2954.71 322.552   1
   0   2  -9 2449.17 298.034   1
   0   2 -10 7009.32 530.667   1
   0  -2 -10 7947.44 562.712   1
   0   2 -11 399.146 167.860   1
   0   2 -12 584.651 208.353   1
   0   2  12 280.739 192.853   1
   0   2 -13 268.187 192.562   1
   0   2  13 30.1932 153.196   3
   0  -2  13 161.031 168.439   3
   0   2  13-8.83489 163.246   1
   0   2 -14 1259.66 324.567   1
   0   2  14 2122.85 427.345   3
   0  -3   0-14.0230 16.9904   1
   0   3   0-1.58518 11.4443   1
   0  -3  -1-4.71137 12.0419   1
   0   3  -1-11.5229 15.7528   1
   0   3   1 5095.73 162.345   1
   0  -3   1 6006.38 202.262   1
   0   3   2 642.500 73.2832   1
   0   3  -2 619.413 78.9002   1
   0   3  -2 679.228 69.3491   2
   0  -3   2 765.737 76.4620   2
   0  -3  -2 623.343 78.0657   1
   0  -3   2 692.277 84.3730   1
   0   3  -3 12660.5 404.002   1
   0   3   3 13650.5 395.699   1
   0   3   3 12220.8 368.988   1
   0  -3   3 14188.9 392.982   2
   0   3  -3 12662.1 352.332   2
   0  -3   3 13155.3 422.302   1
   0   3  -4 1365.97 133.553   2
   0   3   4 1483.31 145.978   1
   0   3   4 1577.72 163.016   1
   0   3   4 1386.06 160.885   2
   0  -3   4 1396.04 151.715   1
   0   3  -4 1495.51 153.101   1
   0  -3   4 1974.89 197.645   2
   0   3  -5 217.712 67.5409   1
   0   3   5 223.852 73.1959   1
   0   3  -5 114.098 44.3373   2
   0  -3   5 342.066 104.168   2
   0   3  -6 901.182 144.972   2
   0   3  -6 994.498 171.139   1
   0   3  -7 42.4928 89.7721   1
   0   3  -8 6043.71 434.091   1
   0   3  -9 2764.08 314.709   1
   0   3  10 2069.86 341.595   1
   0   3 -10 2661.23 344.615   1
   0   3 -11 339.224 153.613   1
   0   3  11 615.061 221.603   1
   0   3  12 1580.17 343.011   1
   0   3 -12 1643.13 310.325   1
   0   3 -13 497.636 211.287   1
   0   3  13 437.077 211.768   3
   0   3  13 274.106 201.298   1
   0  -3  13 579.683 235.954   3
   0   3  14 470.299 243.163   3
   0   3 -14 762.557 286.524   1
   0  -4   0 10.0361 15.7762   1
   0   4   0 38243.2 500.570   1
   0   4  -1 2327.84 142.389   1
   0   4   1 2475.29 131.869   1
   0  -4  -1 2185.86 129.515   1
   0  -4   1 2385.43 145.919   1
   0   4  -2 11590.4 357.236   1
   0  -4  -2 12017.6 329.663   1
   0   4  -2 12006.3 272.792   2
   0   4   2 12223.6 321.928   1
   0  -4   3 8804.06 311.955   2
   0  -4   3 8117.16 339.916   1
   0   4  -3 8146.84 341.787   1
   0   4   3 7925.18 304.382   1
   0   4  -3 8166.76 278.462   2
   0   4   4 35315.3 836.112   2
   0   4  -4 35703.8 792.042   1
   0   4   4 35566.7 726.414   1
   0  -4   4 38070.8 736.311   2
   0   4  -4 35933.5 705.207   2
   0   4   4 36420.5 746.962   1
   0  -4   4 36475.0 812.640   1
   0   4   5 3805.48 259.129   1
   0   4   5 4390.81 287.314   1
   0   4  -5 3745.34 268.189   1
   0  -4   5 4620.07 291.083   2
   0   4  -5 4069.66 261.802   2
   0   4   6 13883.8 560.511   1
   0   4  -6 12973.0 505.475   2
   0   4  -6 14562.1 601.756   1
   0   4  -7 1926.23 233.560   1
   0   4   7 1792.67 232.485   1
   0   4   8 1485.08 251.428   1
   0   4  -8 1790.63 255.237   1
   0   4   9 2941.75 352.355   1
   0   4  -9 2460.48 313.066   1
   0   4 -10 9283.32 600.757   1
   0   4  10 9379.91 622.358   1
   0   4 -11 226.865 141.320   1
   0   4  11 620.074 196.534   1
   0   4  12 165.053 178.577   1
   0   4  12 147.102 132.658   3
   0  -4  13 414.003 219.653   3
   0   4  13 274.660 200.443   3
   0   4 -13 76.1781 143.428   1
   0   4  14 1850.49 390.759   3
   0   4 -14 1086.77 315.622   1
   0   5   0 5.17120 20.8521   1
   0  -5   0 1.74676 17.2818   1
   0  -5  -1 4973.42 211.755   1
   0   5   1 5467.52 208.117   1
   0   5  -1 5125.84 227.011   1
   0  -5  -2 6307.25 260.318   1
   0   5   2 6302.52 247.130   1
   0   5  -2 6148.84 273.727   1
   0  -5   2 6452.31 288.205   1
   0   5  -2 6536.87 214.793   2
   0  -5  -3 10661.1 371.328   1
   0  -5   3 10741.2 413.390   1
   0  -5   3 11545.3 351.388   2
   0   5  -3 10657.2 404.208   1
   0   5  -3 10543.3 317.090   2
   0   5   3 11038.3 365.755   1
   0   5   4 1126.16 133.107   1
   0   5   4 793.307 109.151   1
   0   5  -4 915.819 109.687   2
   0  -5   4 1011.30 125.034   2
   0   5  -4 901.341 123.662   1
   0  -5   5 23501.3 669.791   2
   0   5  -5 24033.2 726.511   1
   0   5   5 23591.3 654.009   1
   0   5  -5 22151.2 607.937   2
   0   5   5 22612.6 671.847   1
   0   5   6 5628.91 363.418   1
   0   5  -6 4805.26 307.614   2
   0   5  -6 5324.86 366.660   1
   0   5  -7-111.232 71.3225   2
   0   5   7 141.563 78.0527   1
   0   5  -7-86.6149 94.6741   1
   0   5   8 446.651 137.111   1
   0   5  -8 586.095 158.041   1
   0   5  -9 33.0349 89.9584   1
   0   5   9 26.7509 109.244   1
   0   5 -10 342.073 144.341   1
   0   5  10 289.459 186.588   1
   0   5  11 292.022 163.167   1
   0   5 -11 175.229 130.649   1
   0   5  12 1541.48 299.548   3
   0   5  12 2353.79 389.954   1
   0   5 -12 2247.40 372.658   1
   0  -5  13 755.531 258.410   3
   0   5  13 475.444 221.394   3
   0   5 -13 869.853 272.771   1
   0   5 -14 403.273 226.140   1
   0   5  14 393.350 237.649   3
   0  -6   0 31858.9 572.084   1
   0   6   0 30939.5 554.105   1
   0   6   1 23596.7 473.964   1
   0  -6  -1 24266.7 508.724   1
   0   6  -1 23839.0 520.650   1
   0  -6   2 4812.79 266.141   1
   0   6  -2 4086.19 233.471   1
   0  -6  -2 4402.96 225.157   1
   0   6  -2 4372.00 181.041   2
   0   6   2 4468.29 219.332   1
   0  -6   3 7794.21 369.890   1
   0   6  -3 7015.20 333.291   1
   0  -6  -3 7351.56 322.582   1
   0   6   3 7717.43 312.279   1
   0   6  -4 19850.8 622.251   1
   0  -6   4 20984.0 549.353   2
   0   6   4 20595.2 555.834   1
   0   6  -5 1337.83 173.583   1
   0   6   5 1310.19 157.891   1
   0   6  -5 1511.96 163.225   2
   0   6   5 995.663 147.447   1
   0  -6   5 1223.08 163.809   2
   0   6  -6 4299.70 291.891   2
   0   6   6 4912.89 331.404   1
   0   6  -6 4018.46 318.951   1
   0   6  -7 4078.06 357.228   1
   0   6   7 3888.95 331.705   1
   0   6  -7 3521.29 284.056   2
   0   6  -8 986.976 192.690   1
   0   6   8 1208.24 206.150   1
   0   6   9 1420.40 247.539   1
   0   6  -9 1498.59 249.263   1
   0   6  10 505.615 174.422   1
   0   6 -10 776.472 190.330   1
   0   6  11 193.301 136.267   1
   0   6 -11 47.1259 88.6459   1
   0   6  12 493.040 227.201   1
   0   6 -12 456.199 192.694   1
   0   6  12 59.8319 149.477   3
   0   6 -13 279.071 202.837   1
   0  -6  13 233.145 162.785   3
   0   6  13-63.0191 152.432   3
   0   6 -14 651.524 259.863   1
   0   6  14 381.234 231.072   3
   0   7   0 34.8504 44.8545   1
   0  -7   0 12.3011 31.4759   1
   0   7  -1 21777.7 529.512   1
   0  -7  -1 22343.8 521.676   1
   0   7   1 22142.4 491.758   1
   0   7  -2 36246.4 740.985   1
   0  -7  -2 36615.5 686.560   1
   0   7   2 37346.3 654.989   1
   0   7  -2 36682.3 544.594   2
   0   7   3 4745.23 254.367   1
   0   7  -3 4369.65 276.900   1
   0   7  -3 4142.73 201.898   2
   0  -7  -3 3893.59 241.046   1
   0   7  -4 1387.80 168.692   1
   0   7   4 1595.28 161.931   1
   0   7  -4 1459.36 137.857   2
   0  -7  -4 1109.72 146.075   1
   0  -7   5 9193.17 417.569   2
   0   7  -5 9603.01 470.792   1
   0   7  -5 8884.08 381.274   2
   0   7   5 8151.46 417.926   1
   0   7   5 9552.70 421.000   1
   0   7  -6 466.144 120.127   1
   0   7   6 312.633 103.988   1
   0   7  -6 341.623 89.5462   2
   0   7   7 171.314 73.7985   1
   0   7  -7 275.591 91.4719   2
   0   7  -7 288.858 85.2941   1
   0   7  -8 1257.11 221.357   1
   0   7   8 1459.67 227.405   1
   0   7   9 2306.72 296.109   1
   0   7  -9 2025.09 292.936   1
   0   7 -10 347.958 160.770   1
   0   7  10 492.801 185.431   1
   0   7  11-70.4328 114.047   3
   0   7 -11 222.469 136.854   1
   0   7 -12 114.473 119.789   1
   0   7  12 421.796 217.124   3
   0   7  13 265.306 191.406   3
   0  -7  13 415.381 226.739   3
   0  -8   0 117.824 55.9873   1
   0   8   0 150.676 54.3245   1
   0  -8   1 130.968 67.1144   1
   0   8   1 161.268 50.0234   1
   0   8  -1 85.6512 48.0581   1
   0  -8  -1 157.427 64.1002   1
   0   8  -2 3184.69 233.559   1
   0  -8  -2 2913.17 209.549   1
   0   8   2 2889.89 193.068   1
   0   8  -3 12295.3 352.055   2
   0  -8  -3 13151.1 468.799   1
   0   8   3 13363.2 436.949   1
   0   8  -3 12770.3 498.676   1
   0   8   4 9082.46 392.008   1
   0   8  -4 8546.16 437.744   1
   0  -8  -4 7970.07 388.844   1
   0   8  -4 7996.39 314.076   2
   0   8   5 64.6143 56.2724   1
   0   8  -5 162.850 74.5830   1
   0   8  -5 32.2746 31.7011   2
   0   8   6 3934.08 303.042   1
   0   8  -6 4098.68 283.792   2
   0   8  -6 4129.60 354.198   1
   0   8  -7 4485.12 370.233   1
   0   8   7 4839.42 369.898   1
   0   8  -7 4852.34 333.575   2
   0   8   8 1048.30 207.530   1
   0   8  -8 762.287 154.130   2
   0   8  -8 1057.40 209.866   1
   0   8   9 2085.74 285.370   1
   0   8  -9 2258.67 311.436   1
   0   8  10-7.05244 108.757   1
   0   8  10-51.7200 84.3046   3
   0   8 -10 41.0830 107.819   1
   0   8 -11 1576.21 300.670   1
   0   8  11 1455.16 270.642   3
   0   8  11 1478.63 293.585   1
   0   8 -12 109.358 153.617   1
   0   8  12 294.174 176.537   3
   0   8 -13 1239.59 307.927   1
   0   8  13 989.504 269.359   3
   0  -8  13 1543.09 370.568   3
   0  -9   0 15.3081 34.4624   1
   0   9   0-20.7045 35.1733   1
   0   9  -1 1074.71 134.222   1
   0   9   1 1253.18 133.897   1
   0  -9  -1 1170.26 137.162   1
   0  -9  -2 9441.47 388.170   1
   0   9   2 10073.2 380.269   1
   0   9  -2 9877.41 429.216   1
   0   9   3 4907.48 276.855   1
   0   9  -3 4460.98 220.052   2
   0   9  -3 4532.97 311.451   1
   0  -9  -3 4741.36 300.906   1
   0   9  -4 2989.17 201.948   2
   0   9   4 2950.03 227.284   1
   0   9  -4 2756.14 253.841   1
   0   9  -5 7521.33 339.484   2
   0   9  -5 8582.41 473.323   1
   0   9   5 8546.06 414.786   1
   0   9  -6 1608.81 227.097   1
   0   9   6 1737.72 203.859   1
   0   9  -6 1685.46 195.053   2
   0   9  -7-8.03064 63.7173   1
   0   9   7 78.1469 88.6750   1
   0   9  -7 24.8641 52.1710   2
   0   9  -8 1411.19 234.766   1
   0   9  -8 1265.97 185.215   2
   0   9   8 1360.91 209.572   1
   0   9   9 6926.28 482.168   3
   0   9   9 8157.54 546.350   1
   0   9  -9 8062.25 598.547   1
   0   9  10 124.211 126.902   3
   0   9  10 84.3423 128.211   1
   0   9 -10 69.8547 112.881   1
   0   9 -11 546.698 209.617   1
   0   9  11 364.373 183.841   1
   0   9  11 302.919 161.418   3
   0  -9  12 479.227 216.222   3
   0   9  12 516.000 203.011   3
   0   9 -12 888.282 258.323   1
   0   9 -13 584.950 232.514   1
   0  10   0 18208.5 562.925   1
   0  10   1 3889.81 247.599   1
   0  10  -1 4202.11 274.698   1
   0 -10   1 4264.84 214.399   3
   0  10  -2 8501.34 417.239   1
   0  10   2 8687.35 371.840   1
   0  10  -3 7674.35 294.944   2
   0  10  -3 8120.68 429.046   1
   0  10   3 8816.15 385.248   1
   0  10  -4-3.06664 34.5896   2
   0  10  -4 121.578 83.2840   1
   0  10   4 134.936 59.0675   1
   0  10  -5 134.709 72.0819   1
   0  10  -5 21.5857 46.8836   2
   0  10   5 105.244 57.0633   3
   0  10   5-31.2067 72.8275   1
   0  10  -6 2972.22 254.050   2
   0  10   6 3068.09 279.082   1
   0  10  -6 2842.83 300.134   1
   0  10   6 2727.60 214.425   3
   0  10  -7 7124.36 512.826   1
   0  10   7 7203.35 439.822   1
   0  10   7 6831.63 386.074   3
   0  10  -7 7039.18 398.863   2
   0  10  -8 98.9096 58.8280   2
   0  10   8 232.912 104.797   3
   0  10  -8 189.295 110.051   1
   0  10   8 321.277 121.886   1
   0  10   9 33.0767 81.4651   3
   0  10  -9 218.379 134.805   1
   0  10   9-17.1353 84.2038   1
   0  10  10 163.844 123.797   3
   0  10 -10 172.111 124.379   1
   0  10  10 238.677 146.104   1
   0  10  11 1867.99 303.513   3
   0  10 -11 2231.00 369.854   1
   0  10 -12 621.441 225.248   1
   0 -10  12 677.964 259.497   3
   0  10 -13 1994.52 368.698   1
   0  11   0 66.7113 65.1065   1
   0  11   1 2525.22 216.319   1
   0 -11   1 2484.32 165.401   3
   0  11  -1 2497.56 221.942   1
   0  11   2 489.351 97.8769   1
   0  11  -2 628.416 129.058   1
   0  11  -3 7727.14 306.766   2
   0  11  -3 8063.12 438.819   1
   0  11   3 8165.82 390.778   1
   0  11  -4 357.045 114.710   1
   0  11  -4 261.258 87.4056   2
   0  11   4 320.498 91.9020   1
   0  11   5 14569.6 570.856   1
   0  11  -5 13169.7 460.033   2
   0  11  -5 13993.7 643.219   1
   0  11  -6 4192.52 357.634   1
   0  11   6 4295.55 325.873   1
   0  11  -6 4089.63 288.936   2
   0  11   6 3875.26 247.301   3
   0  11  -7 241.801 97.6035   2
   0  11  -7 381.240 131.423   1
   0  11   7 263.937 96.9883   3
   0  11   7 229.983 104.726   1
   0  11  -8 3109.37 353.744   1
   0  11  -8 3126.24 285.831   2
   0  11   8 3074.34 280.599   3
   0  11   8 3058.61 311.326   1
   0  11   9 807.057 180.694   1
   0  11  -9 706.022 194.685   1
   0  11   9 693.614 170.683   3
   0  11  10 323.163 141.442   1
   0  11 -10 105.274 106.225   1
   0 -11  11 257.173 170.998   3
   0  11 -11 199.855 174.117   1
   0 -11  12 101.983 156.698   3
   0  11 -12 63.9684 145.839   1
   0  12   0 5051.28 321.230   1
   0  12   1 13761.6 519.655   1
   0  12  -1 13879.9 547.534   1
   0  12   2 1390.86 165.974   1
   0  12  -2 992.777 152.691   1
   0 -12   2 1216.06 147.991   3
   0  12  -3 15124.1 624.670   1
   0  12  -3 14976.1 446.566   2
   0  12   3 15951.0 561.268   1
   0  12  -4 1097.84 170.242   1
   0  12   4 1449.09 181.591   1
   0  12  -5 113.664 64.0418   2
   0  12  -5 134.122 70.1656   1
   0  12   5 175.477 70.0675   1
   0  12   6 2378.85 248.036   1
   0  12  -6 2589.10 292.327   1
   0  12  -6 2747.16 241.984   2
   0  12   7 735.298 152.004   1
   0  12  -7 775.982 185.903   1
   0  12  -7 797.898 141.792   2
   0  12  -8 119.850 89.0693   2
   0  12   8 139.928 105.551   1
   0  12   8 283.267 109.080   3
   0  12  -8 111.715 89.8759   1
   0  12  -9 186.347 141.081   1
   0  12   9 354.106 141.700   1
   0  12 -10 92.2578 132.334   1
   0  12 -11 1815.38 344.632   1
   0 -12  11 1174.16 309.749   3
   0 -12  12 345.835 230.853   3
   0  12 -12 614.275 233.127   1
   0  13   0 121.930 93.9555   1
   0  13   1 23612.4 734.720   1
   0  13  -1 22960.1 741.814   1
   0 -13   2 4838.36 284.248   3
   0  13  -2 4547.20 342.793   1
   0  13   2 5184.03 332.396   1
   0  13   3 453.677 112.637   1
   0  13  -3 684.695 105.118   2
   0 -13   3 821.981 144.249   3
   0  13  -3 451.016 102.690   1
   0  13  -4 999.844 141.460   2
   0  13   4 927.943 157.357   1
   0  13  -4 844.287 166.136   1
   0  13  -5 1091.79 197.170   1
   0  13  -5 1029.93 136.044   2
   0  13   5 1126.63 184.292   1
   0  13  -6 691.908 167.885   1
   0  13  -6 755.878 134.144   2
   0  13  -7 224.963 88.9246   2
   0  13   7 382.541 125.355   1
   0  13  -7 258.626 125.563   1
   0  13  -8 346.560 117.212   2
   0  13  -8 256.374 144.659   1
   0  13   8 485.698 150.676   1
   0  13  -9 2143.07 327.819   1
   0  13   9 1903.46 274.199   1
   0  13 -10 434.740 208.578   1
   0 -13  10 425.944 194.885   3
   0 -13  11 192.614 162.486   3
   0  13 -11 530.211 222.155   1
   0 -13  12 8.29277 185.247   3
   0  14   0 631.186 125.429   1
   0  14  -1 1522.42 205.343   1
   0  14   1 1465.18 210.293   1
   0  14   2 44.5421 49.4201   1
   0  14  -2 197.957 96.3342   1
   0  14   3 12944.0 558.826   1
   0  14  -3 11865.4 592.166   1
   0 -14   3 13050.4 548.946   3
   0  14  -3 11684.7 412.711   2
   0  14  -4 6710.77 342.993   2
   0  14  -4 6136.61 439.913   1
   0 -14   4 6433.01 429.366   3
   0  14   4 6025.38 381.558   1
   0  14   5 409.977 115.899   1
   0  14  -5 372.551 127.286   1
   0  14  -5 262.469 83.8579   2
   0  14  -6 3417.64 263.973   2
   0  14   6 3520.56 310.189   1
   0  14  -6 3739.81 373.516   1
   0  14   7 4428.91 368.924   1
   0  14  -7 4578.43 448.893   1
   0  14  -7 4451.27 324.457   2
   0  14  -8 362.182 112.754   2
   0  14  -8 410.831 179.856   1
   0 -14   8 811.204 213.522   3
   0  14   8 378.563 159.437   1
   0 -14   9 370.567 214.978   3
   0  14  -9 201.139 153.864   1
   0 -14  10 506.687 242.674   3
   0  14 -10 710.288 232.730   1
   0 -14  11 1066.36 329.234   3
   0  14 -11 1021.42 272.242   1
   0  15   0 74.6502 96.4489   1
   0  15  -1 7498.25 460.163   1
   0  15   1 7767.11 463.359   1
   0  15  -2 100.519 96.3010   1
   0  15   2 93.8451 78.5439   1
   0  15   3 2961.02 273.677   1
   0  15  -3 2980.27 310.901   1
   0 -15   3 3186.26 275.781   3
   0  15  -3 3209.70 222.303   2
   0  15   4 1596.94 208.202   1
   0 -15   4 1942.76 247.563   3
   0  15  -4 1563.19 232.667   1
   0  15  -4 1462.79 171.849   2
   0  15   5 1727.88 218.019   1
   0 -15   5 2901.14 330.444   3
   0  15  -5 2054.25 190.605   2
   0  15  -5 2561.20 315.098   1
   0 -15   6 6.33574 80.8298   3
   0  15  -6 33.2217 68.3775   2
   0  15  -6 244.407 133.809   1
   0  15   6 5.57295 79.7363   1
   0  15   7 444.078 145.703   1
   0  15  -7 295.357 147.434   1
   0 -15   7 392.871 181.388   3
   0 -15   8 6.26129 104.544   3
   0  15   8 224.427 127.523   1
   0  15  -8-50.4327 104.591   1
   0  15  -9 2972.45 406.450   1
   0 -15   9 3097.17 432.980   3
   0  15 -10 426.061 227.581   1
   0 -15  10 194.616 171.758   3
   0  15 -11 931.021 272.504   1
   0 -15  11 692.209 272.591   3
   0  16   0 9099.88 507.506   1
   0  16   1 4023.66 336.497   1
   0  16  -1 4210.35 364.817   1
   0  16  -2 653.857 156.732   1
   0  16   2 822.222 171.950   1
   0  16  -3 1094.10 136.479   2
   0  16  -3 1239.57 219.517   1
   0  16   3 1332.62 203.262   1
   0  16   4 3129.45 317.051   1
   0  16  -4 2698.90 303.960   1
   0 -16   4 3451.51 323.915   3
   0  16  -4 2910.62 240.564   2
   0 -16   5 378.503 158.476   3
   0  16  -5 423.854 146.751   1
   0  16  -5 265.645 89.9492   2
   0  16   5 308.022 115.580   1
   0  16   6 287.224 113.645   1
   0  16  -6 96.8104 106.510   1
   0 -16   6 170.013 124.696   3
   0 -16   7 3620.09 416.544   3
   0  16   7 2533.74 294.476   1
   0  16  -7 3271.42 401.394   1
   0  16  -8 219.230 140.057   1
   0 -16   8 430.802 190.584   3
   0 -16   9 1021.17 268.096   3
   0  16  -9 596.399 208.117   1
   0 -16  10 2278.38 434.952   3
   0  16 -10 1196.34 301.302   1
   0 -16  11 977.429 296.851   3
   0  17   0 77.6338 94.5865   1
   0  17   1 1488.51 216.720   1
   0  17  -1 1791.06 252.580   1
   0  17  -2 210.223 115.450   1
   0  17   2 245.539 105.822   1
   0  17  -3 1761.88 260.938   1
   0  17   3 1758.27 233.420   1
   0  17  -3 1346.98 153.447   2
   0  17   4 30.9953 75.2662   1
   0  17  -4-23.7130 69.0006   1
   0 -17   4 184.381 102.946   3
   0  17   5 473.864 153.183   1
   0  17  -5 405.792 150.727   1
   0 -17   5 449.668 158.590   3
   0 -17   6 1172.55 229.397   3
   0  17  -6 1288.19 250.407   1
   0  17   6 1160.75 202.251   1
   0  17   7 237.794 136.954   1
   0 -17   7 203.058 154.964   3
   0  17  -7 211.721 144.912   1
   0  17  -8 326.487 188.273   1
   0 -17   8-61.8398 141.918   3
   0 -17   9 1025.83 297.354   3
   0  17  -9 930.344 255.688   1
   0  17 -10 25.5138 149.814   1
   0 -17  10 399.343 223.713   3
   0 -17  11 903.129 315.394   3
   0  18   0 1267.61 216.121   1
   0  18  -1 515.307 158.940   1
   0  18   1 410.260 131.098   1
   0  18   2 517.770 142.671   1
   0  18  -2 654.283 177.496   1
   0  18   3 2658.81 309.620   1
   0  18  -3 2566.32 322.953   1
   0  18   4 3254.98 320.136   1
   0  18  -4 3486.35 380.910   1
   0 -18   5 1801.05 263.315   3
   0  18   5 1720.31 250.075   1
   0  18  -5 1721.32 285.486   1
   0  18  -6 1900.05 303.313   1
   0  18   6 2077.69 277.385   1
   0 -18   6 2104.18 308.973   3
   0  18  -7 2199.87 349.902   1
   0 -18   7 2038.41 317.919   3
   0  18  -8 140.567 139.100   1
   0 -18   8 408.338 199.924   3
   0 -18   9-8.02213 147.115   3
   0  18  -9 45.1792 120.340   1
   0 -18  10 290.355 220.184   3
   0  19   0 79.5312 85.7080   1
   0  19   1 951.958 185.334   1
   0  19  -1 1101.40 210.167   1
   0  19   2 1732.52 244.002   1
   0  19  -2 1737.96 266.833   1
   0  19   3 103.706 92.8627   1
   0  19  -3 17.3775 93.1661   1
   0  19  -4 388.684 153.932   1
   0  19   4 166.484 121.741   1
   0  19   5 1623.73 252.343   1
   0  19  -5 1735.90 305.929   1
   0 -19   6 88.8618 129.548   3
   0  19  -6 100.780 103.904   1
   0  19  -7 211.937 164.614   1
   0 -19   7 79.4216 149.184   3
   0 -19   8 1919.46 350.786   3
   0  19  -8 1543.40 343.183   1
   0 -19   9-43.1015 166.317   3
   0 -19  10-126.420 208.730   3
   0  20   0 2642.10 329.973   1
   0  20  -1 1536.69 256.530   1
   0  20   1 1201.31 229.727   1
   0  20  -2 335.264 152.572   1
   0  20   2 300.101 131.842   1
   0  20  -3 484.317 168.036   1
   0  20   3 349.853 130.038   1
   0  20   4 918.592 226.604   1
   0  20  -4 477.918 177.739   1
   0  20  -5 49.7742 114.204   1
   0  20   5 81.2412 108.043   1
   0  20  -6 874.599 228.755   1
   0  20  -7 402.501 223.680   1
   0  20  -8 61.5405 161.513   1
   0  21   0 227.564 135.591   1
   0  21  -1 336.038 134.867   1
   0  21   1 614.533 192.880   1
   0  21   2 826.524 193.273   1
   0  21  -2 900.302 215.915   1
   0  21  -3 102.379 116.845   1
   0  21   3-56.6015 88.7593   1
   0  21   4 622.387 186.817   1
   0  21  -4 786.080 213.806   1
   0  21  -5 625.944 221.762   1
   0  21  -6 1784.78 327.196   1
   0  21  -7 283.746 222.394   1
   0  22   0 1486.25 267.561   1
   0  22   1-145.028 125.550   1
   0  22  -1 317.355 142.033   1
   0  22  -2 376.632 179.047   1
   0  22   2 401.438 167.130   1
   0  22  -3 59.1895 100.385   1
   0  22   3 430.768 160.329   1
   0  22  -4 281.185 175.071   1
   0  22   4 71.0015 101.137   1
   0  22  -5 83.2380 122.720   1
   0  22  -6 192.581 176.330   1
   0  23   0 145.251 149.803   1
   0  23   1 488.388 190.564   1
   0  23  -1 164.285 136.154   1
   0  23  -2 2743.70 382.767   1
   0  23   2 2359.35 348.706   1
   0  23  -3 608.146 204.152   1
   0  23   3 698.654 222.935   1
   0  23  -4 139.105 163.936   1
   0  23  -5 894.086 263.938   1
   0  24   0 649.672 212.408   1
   0  24   1 9.07350 129.407   1
   0  24  -1 5.08195 124.387   1
   0  24   2 110.094 153.122   1
   0  24  -2 104.780 149.264   1
   0  24  -3 285.128 169.867   1
   0  24  -4 747.570 252.921   1
   0  25   0-62.8654 127.075   1
   0  25  -1 386.494 205.030   1
   0  25   1 169.080 154.449   1
   0  25  -2 1850.45 333.994   1
   0  25  -3 734.873 250.497   1
   0  26   0 637.393 251.582   1
   0  26  -1 228.969 197.179   1
   1   0 -12 5240.59 474.638   1
   1   0 -11 540.637 164.178   1
   1   0 -10 4887.28 395.572   1
   1   0  -9 156.579 101.879   2
   1   0  -9 342.727 120.693   1
   1   0  -8 498.325 139.390   2
   1   0  -8 372.911 105.061   1
   1   0  -7 199.051 103.694   2
   1   0  -7 475.352 117.223   1
  -1   0   6 8234.59 363.727   1
   1   0  -6 8321.50 369.712   1
   1   0  -6 8470.81 444.178   2
   1   0  -5 520.084 126.022   2
   1   0  -5 859.631 118.038   1
  -1   0   5 752.655 114.802   1
  -1   0   4 17635.3 588.022   2
   1   0  -4 18072.0 543.800   2
   1   0  -4 16601.0 389.525   1
  -1   0   3 52.7938 45.6302   2
   1   0  -3 52.4976 45.6878   2
   1   0  -3 113.258 40.9211   1
  -1   0   3 75.6811 35.3289   1
   1   0  -2 991812. 3279.92   2
  -1   0   2 999999. 2373.85   1
   1   0  -2 998020. 2292.14   1
   1   0  -1 27.8399 28.9259   1
  -1   0   1 12.1942 18.2752   1
   1   0   0 82842.3 848.738   1
  -1   0   0 80380.5 860.255   1
   1   0   1 7.51006 26.0067   1
   1   0   1 5.58860 34.0610   1
   1   0   2 176.895 64.0117   1
  -1   0  -3 64.1036 50.4888   3
  -1   0  -3 92.4812 70.0133   1
   1   0   3-7.84793 32.2426   1
  -1   0  -4 4259.28 311.999   1
  -1   0  -5 2482.78 271.582   1
   1   0   5 1491.87 222.330   3
  -1   0  -6 5416.29 401.786   1
   1   0   6 4813.69 371.091   3
  -1   0  -7 642.128 177.362   1
   1   0   7 353.482 126.676   3
   1   0   8 24688.4 950.022   3
  -1   0  -8 25383.9 981.207   1
   1   0   9 376.134 163.487   3
  -1   0  -9 265.533 138.872   1
   1   0  10 723.513 212.074   3
  -1   0 -10 1081.40 256.933   1
   1   0  11 120.727 140.591   3
   1   0  12 3560.60 484.486   3
   1   0  13 202.258 203.703   1
   1  -1 -12 1837.45 296.492   1
   1   1 -12 1499.89 292.635   1
   1   1 -11 1803.97 271.645   1
   1  -1 -11 1229.32 226.207   1
   1  -1 -10 2077.90 258.765   1
   1   1 -10 1937.00 307.032   2
   1   1  -9 1713.29 232.432   1
   1   1  -9 1535.19 252.083   2
   1  -1  -9 521.936 143.398   2
   1  -1  -9 833.411 163.371   1
   1  -1  -8 604.355 133.383   1
   1  -1  -8 521.999 136.282   2
   1   1  -7 2409.61 269.542   2
   1  -1  -7 1988.24 190.996   1
   1   1  -7 2389.42 224.318   1
   1  -1  -7 2103.59 238.678   2
  -1   1   7 1867.04 184.677   1
   1   1  -6 2416.20 255.754   2
  -1  -1   6 2767.12 240.798   1
  -1   1   6 2297.46 203.580   1
   1  -1  -6 2700.41 287.073   2
   1  -1  -6 2602.35 212.306   1
   1  -1  -5 10084.6 444.755   2
   1   1  -5 9833.15 365.867   1
  -1  -1   5 10207.9 368.180   1
   1   1  -5 9807.50 431.009   2
  -1   1   5 9726.47 334.569   1
   1  -1  -5 9990.93 340.189   1
   1  -1  -4 6319.09 322.900   2
   1   1  -4 5546.02 239.900   1
  -1  -1   4 7468.95 298.795   1
  -1   1   4 6232.81 342.124   2
   1   1  -4 7653.64 413.933   2
  -1  -1   4 5449.96 325.572   2
  -1   1   4 6655.87 215.701   1
   1  -1  -4 6565.45 224.736   1
   1   1  -3 6914.68 242.488   1
  -1   1   3 7084.65 182.308   1
  -1   1   3 6765.23 314.931   2
  -1  -1   3 7406.31 251.595   1
   1  -1  -3 6286.11 173.857   1
   1  -1  -2 6946.94 181.844   1
  -1  -1   2 1733.84 146.298   1
   1   1  -2 2355.69 166.312   1
   1  -1  -2 6481.07 297.215   2
  -1   1   2 3392.93 135.907   1
   1   1  -2 2916.76 202.026   2
  -1   1   1 784.521 70.0471   1
  -1  -1   1 811.731 83.5786   1
   1   1  -1 671.087 72.8618   1
   1  -1  -1 859.031 67.1459   1
  -1  -1   0 18447.3 432.416   1
   1  -1   0 19076.4 401.192   1
   1  -1   0 19234.0 399.365   1
   1   1   0 18935.5 427.148   1
  -1   1  -1 40512.1 699.763   1
   1   1   1 40909.2 717.074   1
  -1  -1  -1 38966.7 718.867   1
  -1   1  -2 2261.37 190.946   1
   1   1   2 1964.25 178.807   1
   1   1   2 2035.65 180.058   1
  -1  -1  -3 9788.33 423.635   3
   1  -1   3 11027.4 461.840   1
  -1   1  -3 10627.0 446.288   3
   1   1   3 10264.1 458.099   1
  -1   1  -3 10345.2 435.375   1
  -1   1  -4 1875.14 271.484   1
  -1   1  -5 11767.5 547.322   1
   1  -1   5 11106.2 537.345   3
   1   1   6 1696.90 232.546   3
  -1   1  -6 4497.88 391.443   1
   1  -1   6 4084.47 359.477   3
  -1  -1  -6 2587.51 307.575   1
  -1  -1  -7 2041.41 274.122   1
   1  -1   7 2167.05 274.568   3
   1   1   7 1557.79 224.216   3
   1  -1   8 3223.30 369.780   3
  -1   1  -8 3852.35 414.139   1
   1  -1   9 265.789 120.885   3
  -1   1  -9 536.580 173.857   1
   1   1   9 593.372 166.730   3
   1   1  10 1337.66 264.757   3
  -1   1 -10 1300.59 277.438   1
   1  -1  10 1034.30 240.624   3
  -1   1 -11-79.1624 136.323   1
   1  -1  11-48.5887 126.274   3
   1   1  11 227.473 153.622   3
   1   1  11 80.6637 128.547   1
   1  -1  12 797.701 263.936   3
   1   1  12 918.444 274.217   3
   1   1  12 942.238 347.520   1
   1   1  13 350.973 238.048   1
   1   1  14 777.844 352.008   1
   1   2 -13 156.270 152.964   1
   1   2 -12 2885.43 375.503   1
   1  -2 -11 1394.68 232.742   1
   1   2 -11 1438.80 248.167   1
   1  -2 -10 7735.48 474.551   1
   1   2 -10 8630.29 529.965   1
   1   2 -10 7364.93 528.145   2
   1   2  -9 3325.84 346.154   2
   1  -2  -9 3754.68 315.422   1
   1   2  -9 3462.27 322.619   1
   1  -2  -8 5712.70 355.115   1
   1   2  -8 5530.59 377.653   1
   1  -2  -8 5328.37 418.731   2
   1   2  -8 5136.61 393.056   2
   1   2  -7 184.931 82.4979   2
  -1   2   7 345.890 103.081   1
   1  -2  -7 342.842 122.260   2
   1  -2  -7 557.825 113.511   1
   1   2  -7 266.786 84.3221   1
   1  -2  -6 15154.2 603.376   2
   1  -2  -6 15129.4 456.705   1
   1   2  -6 16060.8 551.157   1
  -1   2   6 14186.3 451.215   1
   1   2  -6 15332.4 577.664   2
   1   2  -5 604.805 106.803   2
   1  -2  -5 761.930 99.5009   1
   1  -2  -5 943.963 166.384   2
  -1  -2   5 758.523 118.846   1
  -1   2   5 806.747 103.618   1
   1   2  -5 618.178 108.115   1
  -1   2   4 14114.4 501.572   2
   1  -2  -4 14964.9 313.437   1
   1   2  -4 14050.8 407.983   1
   1   2  -4 15039.5 494.515   2
  -1   2   4 14980.0 295.293   1
   1  -2  -4 14678.5 483.747   2
  -1   2   3 183.697 24.1387   1
  -1   2   3 123.177 43.0285   2
   1   2  -3 174.886 47.3345   1
   1  -2  -3 260.249 32.9491   1
   1   2  -3 208.035 62.4044   2
  -1  -2   3 157.870 42.6632   1
   1  -2  -3 281.414 64.8403   2
  -1   2   2 54076.7 769.391   2
   1   2  -2 54472.1 681.329   1
   1  -2  -2 56092.0 734.237   2
  -1  -2   2 55810.2 708.457   1
   1  -2  -1 11257.1 233.245   1
   1   2  -1 11400.3 323.825   1
   1  -2  -1 10932.0 287.783   2
  -1  -2   1 11277.0 328.012   1
   1  -2  -1 11586.0 237.366   1
  -1  -2   0 143362. 1277.24   1
  -1   2   0 144268. 1115.71   1
   1   2   0 143980. 1224.02   1
   1  -2   0 143673. 1065.04   1
  -1   2  -1 8578.87 323.497   1
  -1  -2  -1 7854.51 333.760   1
   1  -2   1 8550.50 317.118   1
   1   2   1 8359.66 337.016   1
   1   2   2 78482.2 1154.38   1
  -1   2  -2 79951.3 1128.27   1
  -1   2  -2 80827.1 1133.56   3
  -1   2  -3 851.665 132.989   1
   1   2   3 697.662 124.808   1
  -1  -2  -3 788.071 118.561   3
   1  -2   3 874.215 139.366   1
  -1   2  -3 644.187 113.005   3
   1   2   3 626.836 122.199   1
  -1   2  -4 22979.2 727.689   1
   1   2   4 24746.4 761.806   1
  -1   2  -5 15710.0 646.628   1
   1  -2   5 15877.2 637.015   3
   1   2   5 17074.1 704.802   1
   1  -2   6 14231.9 641.802   3
  -1   2  -6 13590.8 653.236   1
   1   2   6 12343.8 578.146   3
   1   2   6 13211.6 663.779   1
  -1   2  -7 5220.77 441.447   1
   1  -2   7 4257.59 392.957   3
  -1   2  -8 11104.4 642.900   1
   1  -2   8 11569.0 669.694   3
   1   2   8 12064.5 730.462   1
   1   2   8 11266.0 635.707   3
   1  -2   9 31.5034 106.811   3
   1   2   9 195.183 129.320   3
   1   2   9 81.2322 141.858   1
  -1   2  -9 229.515 140.505   1
  -1   2 -10 1131.27 256.621   1
   1   2  10 711.311 210.559   3
   1  -2  10 932.194 237.158   3
   1   2  10 685.225 243.193   1
   1  -2  11 26.0201 107.574   3
  -1   2 -11 327.216 182.597   1
   1   2  11 316.039 162.493   3
   1   2  11 242.512 186.512   1
   1   2  12 2986.83 486.415   1
  -1   2 -12 3637.94 482.258   1
   1  -2  12 4063.66 518.768   3
   1   2  13 140.732 270.157   1
   1   2  14 795.813 336.950   1
   1   3 -13 49.4946 139.034   1
   1   3 -12 1483.53 266.492   1
   1   3 -11 1260.87 235.877   1
   1   3 -10 3167.73 353.529   2
   1   3 -10 3333.22 346.326   1
   1   3  -9 20.0833 69.1828   2
   1   3  -9 355.816 129.040   1
   1   3  -8 1084.94 197.019   1
   1  -3  -8 1558.35 199.875   1
   1   3  -8 1113.34 206.185   2
   1  -3  -7 86.3705 80.2734   2
   1  -3  -7 114.456 71.0105   1
   1   3  -7 57.3899 67.8881   1
  -1   3   7 33.4417 55.4885   1
   1   3  -7 4.57461 50.4793   2
   1  -3  -6 796.428 121.659   1
  -1   3   6 612.627 107.057   1
   1   3  -6 711.945 126.313   1
   1  -3  -6 810.401 180.169   2
   1   3  -6 629.011 129.550   2
   1  -3  -5 6985.61 253.595   1
   1   3  -5 8237.07 427.042   2
   1  -3  -5 7153.47 380.068   2
  -1   3   5 6177.28 232.980   1
  -1  -3   5 7272.87 360.617   1
   1   3  -5 7475.99 348.210   1
   1  -3  -4-23.0877 34.4595   2
  -1   3   4 13.9419 34.9146   2
   1   3  -4 62.5976 49.8501   1
  -1  -3   4 81.6251 46.9562   1
   1   3  -4-56.6237 44.6600   2
  -1   3   4-3.34222 19.4192   1
   1   3  -3 5984.37 299.387   2
  -1   3   3 5592.14 277.104   2
   1  -3  -3 5680.59 262.773   2
  -1  -3   3 6203.78 274.331   1
   1   3  -3 5145.80 235.879   1
  -1   3   2-15.0145 25.3378   2
  -1  -3   2 43.5703 35.0635   1
   1  -3  -2-48.5737 38.3900   2
   1   3  -2 6.01619 27.3537   1
  -1  -3   1 1822.85 143.513   1
   1   3  -1 1592.39 127.329   1
   1  -3  -1 1635.67 110.176   2
  -1   3   1 1771.03 93.8750   1
   1  -3  -1 1612.59 86.7039   1
  -1  -3   0 701.142 98.5083   1
   1  -3   0 651.397 79.2484   1
   1   3   0 817.159 99.9973   1
  -1   3   0 676.245 78.4310   1
   1  -3   1 6945.96 301.399   1
  -1   3  -1 6151.63 265.654   1
   1   3   1 6312.12 296.780   1
  -1  -3  -1 6344.82 303.060   1
   1   3   2 4816.55 288.907   1
  -1   3  -2 4310.50 253.694   1
  -1  -3  -2 4357.61 273.222   1
  -1   3  -2 4925.60 282.624   3
   1   3   3 353.307 98.9903   1
   1  -3   3 114.408 73.4579   1
  -1  -3  -3 440.878 93.3157   3
   1   3   3 406.871 109.661   1
  -1   3  -3 537.807 98.0658   1
   1  -3   4 834.239 120.686   2
   1   3   4 1096.44 194.092   1
  -1   3  -4 933.917 167.815   1
  -1   3  -5 662.896 134.372   1
   1   3   5 910.262 203.978   1
   1  -3   5 606.465 125.761   3
   1  -3   6 8316.17 492.150   3
   1   3   6 8856.17 535.740   1
  -1   3  -6 8041.11 495.736   1
   1  -3   7 8050.01 529.683   3
   1   3   7 7868.10 537.210   1
   1   3   7 8445.95 512.123   3
  -1   3  -7 8518.30 547.921   1
   1   3   8 3740.45 441.345   1
   1  -3   8 3560.62 388.651   3
   1   3   8 4087.26 392.325   3
  -1   3  -9 617.460 202.767   1
   1   3   9 556.475 189.229   1
   1   3   9 654.369 179.555   3
   1  -3   9 562.624 176.912   3
  -1   3 -10 2592.10 376.450   1
   1   3  10 2727.06 358.281   3
   1   3  10 2710.57 392.712   1
   1  -3  10 3272.03 412.464   3
   1   3  11 721.808 255.173   1
   1  -3  11 956.355 252.668   3
  -1   3 -11 818.604 244.732   1
   1  -3  12 818.517 277.396   3
  -1   3 -12 953.325 272.653   1
   1   3  12 995.022 324.340   1
   1   3  13 208.040 187.572   1
  -1   3 -13 331.835 216.396   1
   1  -3  13 228.620 190.573   3
   1   3  14 267.246 274.510   1
   1   4 -13 188.630 159.292   1
   1   4 -12 3958.30 427.725   1
   1   4 -11 948.893 220.321   2
   1   4 -11 872.983 206.811   1
   1   4 -10 1050.82 209.650   1
  -1   4  10 1591.21 259.845   1
   1   4 -10 993.191 205.032   2
   1   4  -9 1392.92 216.706   2
   1   4  -9 1820.00 241.467   1
   1   4  -8 4362.56 348.172   1
   1   4  -8 4766.15 393.247   2
   1   4  -7 1609.11 198.898   1
  -1   4   7 1555.22 157.502   1
   1   4  -7 1445.16 193.534   2
   1   4  -6 21225.5 655.568   1
   1   4  -6 21040.2 674.237   2
  -1   4   6 18723.2 482.403   1
   1  -4  -6 19313.1 679.065   2
  -1   4   5 2527.81 155.274   1
  -1   4   5 2245.51 133.621   1
   1   4  -5 2278.76 194.230   1
   1  -4  -5 2316.98 222.115   2
  -1  -4   4 6726.02 328.276   1
   1   4  -4 6350.37 307.241   1
  -1   4   4 5647.46 145.282   1
   1   4  -4 6253.61 327.933   2
  -1   4   4 6479.06 169.111   1
   1  -4  -4 6176.53 325.642   2
   1   4  -3 1925.93 172.627   2
   1  -4  -3 2016.22 174.437   2
   1   4  -3 1549.35 137.864   1
  -1   4   3 1963.15 172.256   2
  -1  -4   3 1723.91 161.487   1
   1   4  -2 21975.1 508.431   1
   1  -4  -2 22864.4 468.739   2
  -1   4   2 22831.5 489.165   2
  -1  -4   2 22693.4 543.437   1
   1  -4  -1 1779.11 114.659   2
   1   4  -1 1508.03 136.764   1
  -1  -4   1 1431.93 137.991   1
   1  -4  -1 1478.47 87.4072   1
  -1   4   1 1626.43 97.5434   1
   1  -4   0 4432.18 139.468   2
   1   4   0 4272.08 237.014   1
   1  -4   0 4152.97 187.953   1
  -1  -4   0 3949.98 230.850   1
  -1   4   0 4439.92 210.154   1
   1   4   1 11188.3 405.509   1
   1  -4   1 12311.2 408.338   1
  -1   4  -1 11699.5 398.537   1
   1   4   2 28959.4 720.508   1
  -1  -4  -2 28283.7 725.165   1
  -1   4  -2 30849.3 718.073   1
  -1   4  -2 29808.0 708.618   3
  -1  -4  -3 5892.21 310.651   3
   1   4   3 6096.36 361.449   1
  -1   4  -3 5889.17 341.398   1
  -1   4  -4 32188.3 869.843   1
   1   4   4 33832.7 912.449   1
   1  -4   4 32919.8 705.435   2
   1   4   5 1192.02 190.087   1
   1  -4   5 1170.00 181.942   3
   1  -4   5 1597.45 193.286   2
  -1   4  -5 1088.46 167.045   1
   1   4   6 1830.75 271.205   1
  -1   4  -6 1516.21 213.004   1
   1  -4   6 1166.79 197.171   3
   1  -4   7 6062.62 462.986   3
   1   4   7 5848.22 475.504   1
  -1   4  -7 6086.01 455.543   1
  -1   4  -8 16438.4 807.492   1
   1  -4   8 16539.2 816.070   3
   1   4   8 16969.1 852.942   1
  -1   4  -9 779.531 216.232   1
   1   4   9 796.904 225.207   1
   1  -4   9 853.432 215.845   3
  -1   4 -10 446.675 212.328   1
   1  -4  10 484.609 212.159   3
   1   4  10 280.739 182.284   1
   1  -4  11 535.794 227.664   3
   1   4  11 311.103 201.377   1
  -1   4 -11 384.882 200.340   1
   1  -4  12 2426.22 424.805   3
  -1   4 -12 2194.82 386.671   1
   1   4  12 2344.77 433.573   1
   1   4  13 264.699 243.882   1
   1  -4  13 595.741 264.466   3
  -1   4 -13-53.6460 174.754   1
   1   5 -14 697.273 255.954   1
   1   5 -13 207.400 166.794   1
   1   5 -12-86.6111 122.568   1
   1   5 -11 95.1838 118.258   2
   1   5 -11 104.177 126.424   1
  -1   5  10 433.887 161.239   1
   1   5 -10 541.435 163.559   2
   1   5 -10 442.683 148.847   1
  -1   5   9 33.2486 83.8346   1
   1   5  -9 72.0443 74.1119   1
   1   5  -9-43.1231 73.0628   2
  -1   5   8 2568.52 239.220   1
   1   5  -8 2694.30 284.793   1
   1   5  -8 2383.89 269.872   2
  -1   5   7 9312.62 403.273   1
   1   5  -7 8734.59 464.351   1
   1   5  -7 8741.57 476.547   2
   1   5  -6 491.690 103.467   1
   1   5  -6 484.739 105.626   2
  -1   5   6 477.332 85.3973   1
  -1   5   6 299.955 59.4402   1
  -1   5   5 3478.59 168.347   1
   1  -5  -5 3296.57 269.154   2
   1   5  -5 3449.43 255.281   1
  -1   5   5 3202.38 155.872   1
   1   5  -5 3603.55 275.314   2
  -1   5   4 3243.86 108.127   1
   1   5  -4 3237.78 246.937   2
   1   5  -4 3846.45 251.395   1
  -1   5   4 3194.04 114.624   1
   1  -5  -4 3447.88 246.482   2
   1  -5  -3 2835.28 203.506   2
  -1  -5   3 2847.94 216.840   1
   1   5  -3 2569.84 191.692   1
  -1   5   2 813.345 52.3707   1
   1  -5  -2 623.076 44.4274   1
  -1  -5   2 749.236 111.268   1
   1   5  -2 684.440 98.2336   1
  -1   5   2 644.869 81.0550   2
   1  -5  -2 806.371 96.5220   2
  -1   5   1 8666.15 243.070   2
  -1  -5   1 8784.82 358.595   1
   1   5  -1 8948.17 345.822   1
  -1   5   1 9074.12 236.494   1
   1  -5  -1 8727.84 226.247   1
   1  -5  -1 9636.51 257.125   2
  -1   5   0 7584.53 277.038   1
   1   5   0 7018.95 318.965   1
  -1  -5   0 7009.18 323.035   1
   1  -5   0 7561.50 269.629   1
   1  -5   0 7790.02 165.183   2
   1   5   1 14315.6 479.571   1
  -1  -5  -1 14614.1 502.190   1
  -1   5  -1 15007.4 459.952   1
   1  -5   1 15312.1 459.000   1
   1  -5   2 839.881 124.675   1
   1   5   2 868.300 130.287   1
  -1   5  -2 741.443 116.181   3
  -1   5  -2 875.620 122.275   1
  -1   5  -3 34783.8 857.032   1
   1   5   3 34025.5 870.983   1
  -1  -5  -3 34307.3 736.199   3
   1  -5   3 36546.2 584.440   2
  -1   5  -4 6511.09 403.098   1
   1   5   4 5897.31 386.525   1
   1  -5   4 6859.57 317.978   2
  -1   5  -5 15.7904 50.0505   1
   1  -5   5 10.6971 42.1615   2
   1   5   5 56.5822 54.4582   1
   1  -5   5-22.4734 49.7827   3
   1   5   6 681.984 150.926   1
  -1   5  -6 765.046 159.433   1
   1  -5   6 658.590 149.256   3
   1   5   7 96.1214 109.692   1
   1  -5   7-90.1469 95.3013   3
  -1   5  -7-110.708 96.3339   1
  -1   5  -8-4.22919 69.8309   1
   1   5   8 224.365 178.139   1
   1  -5   8 19.8449 89.5574   3
   1   5   9 27.7501 94.0986   1
  -1   5  -9 275.232 135.878   1
   1  -5   9 132.894 130.757   3
   1   5  10 4654.07 515.766   1
   1  -5  10 5040.08 519.860   3
  -1   5 -10 4205.48 486.170   1
   1   5  11 450.252 198.796   1
  -1   5 -11 663.962 211.934   1
   1  -5  11 1126.52 287.617   3
  -1   5 -12 371.242 213.598   1
   1   5  12 472.752 217.377   1
   1  -5  12 12.5165 129.316   3
   1   5  13 1076.45 443.626   1
  -1   5 -13 884.590 277.887   1
   1   6 -14-64.9243 156.567   1
   1   6 -13 336.062 190.601   1
   1   6 -12 287.500 174.943   1
   1   6 -11 512.123 169.239   2
   1   6 -11 479.823 179.727   1
   1   6 -10 581.353 167.039   2
  -1   6  10 877.331 183.035   1
   1   6 -10 865.577 201.566   1
   1   6  -9 1969.53 267.976   1
  -1   6   9 2151.57 248.838   1
   1   6  -9 2333.49 308.500   2
   1   6  -8 2058.40 256.817   1
  -1   6   8 1693.50 186.117   1
   1   6  -8 1875.16 241.489   2
   1   6  -7-8.84448 57.4427   2
  -1   6   7 49.3285 51.5222   1
  -1   6   7-76.8217 62.1336   1
   1   6  -7 152.642 75.1898   1
   1   6  -6 11320.8 534.753   2
   1   6  -6 10112.2 484.816   1
  -1   6   6 9726.58 336.556   1
  -1   6   6 11133.9 348.888   1
  -1   6   5 3898.61 176.268   1
  -1   6   5 4361.13 175.532   1
   1   6  -5 4681.52 309.999   1
   1   6  -5 4323.64 292.666   2
   1   6  -4 129.459 59.2352   2
   1   6  -4 145.549 58.6197   1
  -1   6   4 92.9373 27.6083   1
  -1   6   4 64.9286 23.5847   1
  -1   6   3 9948.34 175.713   1
   1   6  -3 10744.1 415.439   1
  -1   6   3 10099.1 398.502   2
   1  -6  -3 10287.9 392.018   2
  -1   6   2 15083.5 272.224   1
   1  -6  -2 14385.7 270.554   1
  -1  -6   2 14572.4 497.590   1
   1   6  -2 14425.9 471.379   1
   1  -6  -2 14485.5 399.185   2
  -1   6   1 14713.4 321.303   1
  -1   6   1 14481.5 312.750   2
   1   6  -1 15057.1 470.666   1
  -1  -6   1 14069.0 479.720   1
   1  -6  -1 14559.3 326.549   1
   1   6   0 5296.15 291.814   1
  -1   6   0 5766.29 261.801   1
   1  -6   0 5567.43 242.834   1
  -1  -6   0 5031.56 296.011   1
  -1  -6  -1 7520.57 370.222   1
   1   6   1 8410.65 384.038   1
   1  -6   1 8759.27 357.138   1
  -1   6  -1 7614.80 327.303   1
   1  -6   2 22918.8 292.970   2
   1  -6   2 24133.8 654.940   1
  -1   6  -2 24507.6 674.297   3
  -1   6  -2 23704.2 659.084   1
   1   6   3 3857.39 291.085   1
  -1   6  -3 4433.97 304.955   1
   1  -6   3 4379.07 187.636   2
  -1  -6  -3 3709.37 237.081   3
   1  -6   4 6926.60 290.551   2
  -1   6  -4 6796.88 413.769   1
   1   6   4 6961.38 426.929   1
   1   6   5 6342.72 435.788   1
   1  -6   5 5932.41 415.137   3
  -1   6  -5 6888.28 444.651   1
   1  -6   5 6651.49 334.097   2
  -1   6  -6 719.549 146.725   1
   1   6   6 764.301 175.613   1
   1  -6   6 681.451 155.093   3
   1   6   7 2480.20 316.153   1
   1  -6   7 2279.26 302.315   3
  -1   6  -7 2281.95 286.181   1
   1   6   8 1533.94 273.725   1
   1  -6   8 1566.63 268.835   3
  -1   6  -8 1362.24 239.467   1
   1  -6   9 282.641 141.315   3
   1   6   9 107.925 122.114   1
  -1   6  -9 227.816 122.229   1
   1  -6  10 573.112 189.051   3
  -1   6 -10 454.980 179.465   1
   1   6  10 435.666 191.466   1
   1  -6  11 157.634 141.238   3
   1   6  11 235.815 194.382   1
  -1   6 -11 214.490 154.560   1
   1  -6  12 252.309 160.280   3
   1   6  12 901.239 278.195   1
  -1   6 -12 877.475 259.699   1
   1   6  13 191.587 228.678   1
  -1   6 -13-150.791 179.041   1
   1   7 -14 269.643 201.945   1
   1   7 -13 6.65738 132.960   1
   1   7 -12 294.723 151.235   1
   1   7 -11 410.346 149.623   2
   1   7 -11 907.139 215.912   1
   1   7 -10 350.329 143.404   2
   1   7 -10 468.544 165.862   1
   1   7  -9-16.0575 84.4105   2
   1   7  -9-10.4334 69.5125   1
  -1   7   9 69.5393 111.830   1
   1   7  -8 431.479 128.067   1
   1   7  -8 283.965 102.831   2
  -1   7   8 260.562 86.0273   1
   1   7  -7 3910.64 337.618   1
  -1   7   7 3973.34 239.312   1
  -1   7   7 3339.49 229.569   1
   1   7  -7 3475.50 306.927   2
   1   7  -6 506.474 134.416   2
  -1   7   6 531.677 86.2470   1
  -1   7   6 453.453 72.2226   1
   1   7  -6 763.432 137.191   1
   1   7  -5 3586.25 282.690   1
  -1   7   5 3359.52 153.638   1
   1   7  -5 3369.24 262.698   2
  -1   7   5 2882.87 169.827   1
  -1   7   4 18745.2 352.715   1
   1   7  -4 20108.2 627.610   1
  -1   7   4 18710.0 308.852   1
   1   7  -4 20011.6 625.008   2
  -1   7   3 6972.95 183.196   1
   1   7  -3 7604.48 366.621   1
   1  -7  -3 7812.94 219.261   1
  -1   7   3 7265.40 329.725   2
  -1   7   2 28.8471 38.6465   2
   1   7  -2-22.7188 35.5922   1
  -1   7   2 42.9128 31.6877   1
   1  -7  -2 14.9283 20.7008   1
  -1   7   1 14201.1 310.238   2
   1   7  -1 15252.2 503.305   1
   1  -7  -1 14685.9 356.550   1
  -1   7   1 15700.2 376.836   1
   1   7   0 25312.8 660.483   1
  -1   7   0 25085.8 546.767   1
   1   7   1 3171.87 241.814   1
  -1   7  -1 3025.29 221.914   3
   1  -7   1 3342.38 223.886   1
  -1   7  -1 3056.74 221.271   1
  -1   7  -2 3122.44 230.570   1
   1   7   2 3222.96 267.483   1
   1   7   3 13409.3 542.356   1
  -1   7  -3 14519.4 568.986   1
   1  -7   3 13576.0 301.977   2
   1   7   4 794.730 150.514   1
  -1   7  -4 680.839 129.628   1
   1  -7   5 1505.85 176.104   2
   1   7   5 1167.25 195.332   1
   1  -7   5 1229.33 204.267   3
  -1   7  -5 1013.66 168.645   1
   1   7   6 3115.51 333.690   1
   1  -7   6 2979.19 320.029   3
  -1   7  -6 2551.41 283.837   1
   1   7   7 3789.48 381.146   1
   1  -7   7 3889.23 385.244   3
  -1   7  -7 4108.12 390.037   1
   1  -7   8-38.7907 89.7862   3
   1   7   8 82.0339 82.6267   1
  -1   7  -8 209.136 105.290   1
   1   7   9 545.183 191.267   1
  -1   7  -9 406.659 158.108   1
   1  -7   9 178.674 112.912   3
   1  -7  10 92.3342 140.411   3
   1   7  10 327.992 190.036   1
  -1   7 -10 102.157 123.894   1
   1   7  11 1403.60 321.887   1
  -1   7 -11 1517.76 314.882   1
   1  -7  11 2337.78 406.932   3
   1   7  12 165.418 176.494   1
   1  -7  12 509.735 231.243   3
  -1   7 -12 359.253 209.310   1
   1   7  13 12.8704 201.551   1
   1   8 -14 290.384 205.262   1
   1   8 -13 823.664 260.503   1
   1   8 -12 115.234 123.565   2
   1   8 -12 311.184 167.339   1
   1   8 -11 388.394 148.671   2
   1   8 -11 904.808 236.159   1
   1   8 -10 311.562 131.102   2
   1   8 -10 518.408 177.257   1
  -1   8   9 2679.61 254.181   1
   1   8  -9 3293.41 359.528   1
   1   8  -9 3450.42 359.283   2
  -1   8   8 1406.74 163.271   1
   1   8  -8 2020.21 268.299   1
   1   8  -8 1683.47 227.672   2
   1   8  -7 100.264 75.1587   2
  -1   8   7 27.3724 54.5727   1
  -1   8   7 41.0442 43.2814   1
   1   8  -7 58.6304 64.0550   1
  -1   8   6 4049.12 203.964   1
  -1   8   6 3267.82 202.586   1
   1   8  -6 3954.79 306.262   1
  -1   8   5 5703.00 208.427   1
   1   8  -5 6371.87 383.964   1
  -1   8   5 5350.03 229.790   1
   1   8  -5 6289.12 366.375   2
   1   8  -4 630.254 121.562   2
  -1   8   4 407.434 54.1562   1
   1   8  -4 537.626 117.976   1
   1   8  -3 1506.61 170.319   1
   1  -8  -3 1631.37 117.390   1
  -1   8   3 1565.86 105.148   1
  -1   8   3 1605.22 163.541   2
   1   8  -2 93.7903 61.6703   1
  -1   8   2 62.5312 37.8401   2
  -1   8   2 162.666 45.7687   1
   1  -8  -2 131.306 46.8033   1
  -1   8   1 177.315 53.2987   2
   1   8  -1 92.5693 51.4335   1
  -1   8   1 149.201 47.0739   1
   1  -8  -1 168.494 48.0136   1
   1  -8   0 3117.09 201.968   1
   1   8   0 3060.02 240.643   1
  -1   8   0 2904.51 200.782   1
  -1   8  -1 13777.6 484.889   3
   1   8   1 14289.8 546.249   1
   1  -8   1 14875.6 500.983   1
  -1   8  -1 13421.9 473.700   1
   1   8   2 11734.2 504.287   1
  -1   8  -2 11686.5 483.642   1
  -1   8  -3 207.207 76.2006   1
   1   8   3 87.5100 72.0992   1
   1  -8   4 6912.10 267.422   2
   1   8   4 6734.58 422.906   1
  -1   8  -4 6975.31 436.292   1
  -1   8  -5 4901.64 383.774   1
   1   8   5 4988.56 390.125   1
   1  -8   5 5703.37 425.542   3
   1  -8   5 5114.39 273.697   2
   1   8   6 1646.74 246.737   1
   1  -8   6 1491.26 228.977   3
  -1   8  -6 1712.49 243.934   1
  -1   8  -7 4891.96 440.294   1
   1   8   7 5447.73 462.147   1
   1  -8   7 4525.69 426.117   3
  -1   8  -8 1.10143 77.7583   1
   1   8   8-68.6936 86.2024   1
   1  -8   8 164.000 130.683   3
   1   8   9 2008.66 327.861   1
   1  -8   9 2325.61 345.106   3
  -1   8  -9 1997.58 314.485   1
   1   8  10 120.767 117.293   1
   1  -8  10 198.705 137.767   3
  -1   8 -10-49.8346 104.149   1
   1   8  11 2565.13 416.560   1
  -1   8 -11 2081.00 362.868   1
   1  -8  11 2224.94 390.586   3
  -1   8 -12 808.860 278.479   1
   1   8  12 437.430 259.703   1
   1  -8  12 755.149 279.287   3
   1   8  13 359.540 269.055   1
   1   9 -13-7.30942 142.380   1
   1   9 -12-57.3166 118.264   2
   1   9 -12 443.603 215.246   1
   1   9 -11 3325.94 381.706   2
   1   9 -11 3033.83 398.467   1
   1   9 -10 459.005 145.693   2
   1   9 -10 654.422 189.284   1
   1   9  -9-1.85682 83.4548   2
   1   9  -9 31.5286 88.2207   1
  -1   9   8 1014.47 144.349   1
   1   9  -8 812.495 179.320   1
   1   9  -8 1127.75 182.361   2
  -1   9   7 4172.51 237.052   1
   1   9  -7 4455.46 346.366   2
   1   9  -7 4283.32 370.140   1
  -1   9   6 382.076 79.4067   1
  -1   9   6 778.506 91.0877   1
   1   9  -6 927.315 170.874   1
   1   9  -6 1317.43 211.114   2
  -1   9   5 3219.78 193.630   1
  -1   9   5 3195.05 163.515   1
   1   9  -5 3514.10 298.575   1
   1   9  -5 3679.23 291.863   2
   1  -9  -4 4603.91 226.314   1
   1   9  -4 4874.54 318.917   2
   1   9  -4 4754.51 336.492   1
  -1   9   4 4395.15 188.226   1
   1  -9  -3 517.607 80.7281   1
  -1   9   3 564.053 102.894   2
  -1   9   3 554.138 73.8955   1
   1   9  -3 740.818 127.005   1
  -1   9   2 479.593 78.1546   2
   1  -9  -2 494.291 81.0746   1
   1   9  -2 572.499 114.940   1
  -1   9   2 491.076 74.6312   1
  -1   9   1 1944.53 125.619   2
   1  -9  -1 2041.06 161.076   1
   1   9  -1 2185.62 216.208   1
  -1   9   1 2014.98 157.465   1
   1   9   0 9663.77 446.372   1
  -1   9   0 10015.8 385.445   1
  -1   9   0 9744.49 379.237   3
  -1   9  -1 2303.89 203.851   3
   1   9   1 2146.51 211.226   1
  -1   9  -1 2078.17 183.596   1
   1   9   2 4608.07 322.982   1
  -1   9  -2 4895.23 322.297   1
   1   9   3 13935.7 590.884   1
  -1   9  -3 12515.5 547.594   1
   1   9   4 1489.24 205.790   1
  -1   9  -4 1501.79 197.767   1
   1  -9   5 7.95737 41.6160   2
   1   9   5-19.7825 89.8060   1
  -1   9  -5 5.78620 69.3398   1
  -1   9  -6 2902.16 319.672   1
   1  -9   6 2570.49 232.555   2
   1   9   6 2667.02 306.044   1
   1  -9   6 3048.97 340.292   3
   1   9   7 12265.2 681.243   1
   1  -9   7 13211.1 745.982   3
  -1   9  -7 11958.1 695.169   1
  -1   9  -8 217.887 135.645   1
   1  -9   8-24.0989 83.0633   3
   1   9   8-33.0353 91.9430   1
  -1   9  -9 678.847 192.754   1
   1  -9   9 1094.75 256.896   3
   1   9   9 533.512 168.721   1
   1   9  10 1699.86 341.497   1
  -1   9 -10 2198.23 347.176   1
   1  -9  10 2354.23 380.094   3
   1   9  11 373.770 196.234   1
  -1   9 -11 865.900 241.141   1
   1  -9  11 776.778 259.578   3
   1   9  12 344.988 214.830   1
  -1   9 -12 432.573 238.899   1
   1  10 -13 1123.00 312.163   1
   1  10 -12 155.961 144.564   2
   1  10 -12-19.4886 133.321   1
   1  10 -11 48.9849 105.611   2
   1  10 -11 8.36645 122.566   1
   1  10 -10 114.350 101.023   1
   1  10 -10 191.206 110.965   2
   1  10  -9 3904.14 371.247   2
   1  10  -9 3969.49 421.590   1
  -1  10   8 1101.88 143.049   1
   1  10  -8 1266.42 199.801   2
   1  10  -8 1230.79 211.440   1
   1  10  -7 92.0716 82.6982   2
  -1  10   7 21.1349 48.6451   1
   1  10  -7-42.1275 74.3482   1
   1  10  -6 287.412 105.430   2
  -1  10   6 161.821 66.8584   1
   1  10  -6 197.398 108.032   1
  -1  10   6 126.512 55.2758   1
  -1  10   5 4103.09 201.707   1
   1  10  -5 4338.62 313.789   2
   1  10  -5 4439.10 345.000   1
   1  10  -4 3252.60 269.939   2
   1 -10  -4 2524.87 180.807   1
  -1  10   4 3262.09 187.576   1
   1  10  -4 2850.63 272.640   1
  -1  10   3 3785.82 195.824   1
   1  10  -3 3694.68 284.936   1
   1 -10  -3 3664.65 207.803   1
  -1  10   3 3183.54 233.111   2
   1  10  -2 10055.2 493.326   1
   1 -10  -2 9457.06 360.152   1
  -1  10   2 9865.63 336.890   1
  -1  10   2 8809.14 338.767   2
   1 -10  -1 1805.36 162.273   1
   1  10  -1 1534.95 182.382   1
  -1  10   1 1978.33 166.559   1
  -1  10   1 1498.91 111.856   2
   1  10   0 7821.74 414.049   1
   1 -10   0 8712.67 379.288   1
  -1  10   0 8078.02 365.857   1
  -1  10   0 7592.62 342.362   3
   1  10   1 9764.05 469.825   1
  -1  10  -1 10002.6 438.179   1
  -1  10  -2 104.875 74.0942   1
   1  10   2 15.1963 78.4006   1
   1  10   3 771.040 153.156   1
  -1  10  -3 824.803 146.172   1
  -1  10  -4 4317.81 342.221   1
   1  10   4 4566.34 366.542   1
  -1  10  -5 8724.29 534.718   1
   1  10   5 8619.95 526.209   1
   1  10   6 208.071 112.520   1
  -1  10  -6 222.456 116.121   1
   1 -10   6 329.073 120.774   3
   1 -10   7 182.571 105.688   3
   1  10   7-16.5046 98.4336   1
  -1  10  -7 126.036 84.2210   1
   1  10   8-29.4507 84.2575   1
   1 -10   8 221.044 154.133   3
  -1  10  -8 205.528 138.952   1
   1 -10   9 2906.74 400.005   3
   1  10   9 2540.71 354.462   1
  -1  10  -9 3253.79 405.612   1
  -1  10 -10 662.466 209.566   1
   1  10  10 365.235 176.370   1
   1 -10  10 734.926 231.707   3
   1 -10  11 4492.25 564.659   3
   1  10  11 2940.46 426.965   1
  -1  10 -11 4477.31 510.751   1
   1  10  12 270.900 219.461   1
  -1  10 -12 147.200 183.267   1
   1  11 -13 143.488 192.415   1
   1  11 -12 185.108 144.898   2
   1  11 -12 253.415 193.867   1
   1  11 -11 280.322 146.910   2
   1  11 -11 811.388 245.426   1
   1  11 -10 1330.56 269.240   1
   1  11 -10 1788.76 274.112   2
   1  11  -9 133.621 102.261   2
   1  11  -9 288.582 141.555   1
   1  11  -8 2541.66 314.585   1
   1  11  -8 2772.81 299.830   2
  -1  11   7 6043.56 286.801   1
   1  11  -7 7213.94 511.525   1
   1  11  -7 7536.55 468.220   2
   1  11  -6 16.4527 49.0647   2
   1  11  -6 121.149 89.4261   1
  -1  11   6 71.0328 60.2207   1
   1  11  -5 4817.44 337.353   2
  -1  11   5 4195.36 220.765   1
   1  11  -5 4991.85 376.966   1
   1  11  -4 623.593 132.045   2
  -1  11   4 434.346 75.0238   1
   1 -11  -4 463.361 93.3729   1
   1  11  -4 604.773 137.719   1
   1 -11  -3 746.535 107.957   1
   1  11  -3 821.976 150.800   1
  -1  11   3 893.416 108.049   1
  -1  11   3 684.576 119.152   2
  -1  11   2 385.326 77.9916   2
   1  11  -2 435.475 121.844   1
  -1  11   2 358.163 75.0095   1
   1 -11  -2 361.140 85.2296   1
   1 -11  -1 3924.93 254.029   1
   1  11  -1 4146.18 314.904   1
  -1  11   1 4225.33 257.551   1
  -1  11   1 3358.36 172.904   2
  -1  11   0 259.664 76.9896   1
  -1  11   0 186.369 27.7307   2
   1  11   0 167.529 73.3106   1
  -1  11  -1 8316.75 418.496   1
   1  11   1 8409.98 450.497   1
   1  11   2 837.130 149.630   1
  -1  11  -2 935.429 147.334   1
   1  11   3 18775.2 730.892   1
  -1  11  -3 18789.1 723.404   1
   1  11   4 5780.09 417.008   1
  -1  11  -4 5735.46 404.989   1
  -1  11  -5 138.445 101.708   1
   1  11   5 180.177 93.0091   1
   1  11   6 4908.61 423.037   1
  -1  11  -6 4526.39 417.734   1
  -1  11  -7 1096.97 237.407   1
   1  11   7 625.340 176.939   1
   1 -11   7 1062.60 237.999   3
   1  11   8 253.780 140.927   1
  -1  11  -8 148.957 118.600   1
   1 -11   8 554.248 187.296   3
  -1  11  -9 1102.02 258.573   1
   1  11   9 984.632 239.783   1
   1 -11   9 1422.06 300.180   3
  -1  11 -10 44.2740 108.719   1
   1  11  10 10.8560 126.896   1
   1 -11  10 230.777 159.392   3
   1  11  11 592.000 247.570   1
  -1  11 -11 558.453 222.725   1
   1  12 -12 149.486 138.545   2
   1  12 -12 171.369 173.433   1
   1  12 -11 66.1107 121.832   1
   1  12 -11 90.7805 115.774   2
   1  12 -10-83.5287 90.4407   2
   1  12 -10 307.881 151.681   1
   1  12  -9 791.584 183.399   2
   1  12  -9 546.061 174.040   1
   1  12  -8 706.682 165.731   2
   1  12  -8 730.065 189.681   1
   1  12  -7 328.240 122.303   2
   1  12  -7 376.402 133.316   1
  -1  12   7 352.651 85.0455   1
   1  12  -6 1136.61 174.191   2
  -1  12   6 1007.62 120.708   1
   1  12  -6 799.239 174.174   1
  -1  12   5 7936.19 320.769   1
   1  12  -5 8458.11 509.651   1
   1  12  -5 8861.87 467.627   2
   1  12  -4 360.269 104.542   2
  -1  12   4 261.739 70.2312   1
   1 -12  -4 271.708 85.6530   1
   1  12  -4 382.680 118.548   1
  -1  12   3 9437.17 372.696   1
   1 -12  -3 7985.22 356.354   1
   1  12  -3 8503.55 474.233   1
  -1  12   2 2761.84 200.030   2
   1 -12  -2 2977.92 228.151   1
  -1  12   2 3694.65 240.320   1
   1  12  -2 4042.20 364.609   1
  -1  12   1 10376.6 424.879   1
  -1  12   1 10022.9 365.579   3
   1  12  -1 11110.0 536.371   1
   1  12   0 491.740 123.667   1
  -1  12   0 602.806 107.427   1
  -1  12   0 441.922 46.7633   2
   1  12   1 17189.7 672.250   1
  -1  12  -1 17165.1 615.919   1
   1  12   2 1016.75 178.859   1
  -1  12  -2 857.511 141.691   1
  -1  12  -3 126.836 85.3434   1
   1  12   3 39.4727 90.3401   1
  -1  12  -4 7313.06 484.008   1
   1  12   4 6149.18 439.272   1
  -1  12  -5 928.421 178.670   1
   1  12   5 755.224 169.047   1
  -1  12  -6 418.527 138.085   1
   1  12   6 438.256 158.065   1
   1  12   7 888.459 194.563   1
  -1  12  -7 958.860 212.309   1
   1  12   8 3406.66 420.813   1
  -1  12  -8-6.14947 92.9468   1
   1  12   9 1531.57 299.492   1
  -1  12  -9 2417.83 378.596   1
  -1  12 -10 940.846 262.757   1
   1  12  10 598.801 216.916   1
   1  12  11 2298.39 379.454   1
  -1  12 -11 3452.73 474.666   1
   1  13 -12 240.432 164.175   2
   1  13 -12 210.339 192.723   1
   1  13 -11 1121.26 241.842   2
   1  13 -11 1403.41 303.297   1
   1  13 -10 312.646 155.883   2
   1  13 -10 275.279 157.798   1
   1  13  -9-59.5513 96.1196   2
   1  13  -9 7.12396 105.063   1
   1  13  -8 842.851 195.799   1
   1  13  -8 1208.28 207.818   2
   1  13  -7 662.996 159.458   2
   1  13  -7 251.611 116.908   1
  -1  13   6 702.390 108.238   1
   1  13  -6 769.341 153.598   2
   1  13  -5 636.114 142.615   2
   1  13  -5 883.322 165.213   1
  -1  13   5 997.399 137.897   1
   1 -13  -4 3240.36 248.746   1
   1  13  -4 3314.77 290.853   2
  -1  13   4 2878.99 201.416   1
   1  13  -4 3355.66 327.104   1
   1  13  -3 13710.9 628.203   1
  -1  13   3 13869.0 472.621   1
  -1  13   2 131.437 65.6178   2
   1  13  -2-15.6452 53.5530   1
  -1  13   2 67.4362 58.9867   1
  -1  13   2 68.6893 42.6833   3
   1  13  -1 16500.6 679.962   1
  -1  13   1 15150.1 539.587   1
   1  13   0 2706.75 277.478   1
  -1  13   0 2911.06 239.669   1
  -1  13   0 2320.65 105.741   2
   1  13   1 180.079 88.9754   1
  -1  13  -1 243.165 81.7153   1
   1  13   2 1027.44 178.781   1
  -1  13  -2 842.387 161.660   1
   1  13   3 1895.47 249.174   1
  -1  13  -3 1758.36 233.493   1
   1  13   4 717.638 174.861   1
  -1  13  -4 976.245 190.595   1
   1  13   5 1134.29 221.225   1
  -1  13  -5 879.968 189.654   1
  -1  13  -6 776.323 197.881   1
   1  13   6 683.008 185.842   1
   1  13   7 3480.93 397.975   1
  -1  13  -7 3143.12 384.155   1
   1  13   8 577.773 206.400   1
  -1  13  -8 767.553 209.104   1
   1  13   9 366.546 175.063   1
  -1  13  -9 657.191 226.627   1
  -1  13 -10 488.811 216.189   1
   1  13  10 33.2312 139.970   1
  -1  13 -11 180.874 187.176   1
   1  13  11 614.573 250.044   1
   1  14 -11-56.1828 131.615   2
   1  14 -11-78.5941 136.435   1
   1  14 -10 461.251 180.899   2
   1  14 -10 404.278 190.801   1
   1  14  -9 2361.37 360.208   1
   1  14  -9 2031.17 288.862   2
   1  14  -8 2108.19 266.083   2
   1  14  -8 2464.26 338.821   1
   1  14  -7 268.647 119.318   2
   1  14  -7 182.909 119.133   1
   1  14  -6 3022.30 289.030   2
  -1  14   6 2624.82 210.907   1
   1  14  -6 3397.57 366.151   1
   1  14  -5 5422.41 386.265   2
  -1  14   5 5042.76 288.249   1
   1  14  -5 5405.13 435.234   1
   1  14  -4 274.370 107.860   2
  -1  14   4 160.845 70.5736   1
   1  14  -4 243.922 106.496   1
   1  14  -3 1711.88 239.569   1
  -1  14   3 1539.38 169.890   1
  -1  14   2 352.720 93.1500   2
   1  14  -2 456.117 134.991   1
  -1  14   2 600.079 114.596   1
   1  14  -1 592.428 156.386   1
  -1  14   1 324.441 64.3157   2
  -1  14   1 571.433 116.309   1
  -1  14   0 686.630 122.794   1
   1  14   0 688.890 156.107   1
  -1  14   0 645.322 59.0086   2
   1  14   1 16121.9 689.297   1
  -1  14  -1 15638.9 633.999   1
   1  14   2 6612.15 451.013   1
  -1  14  -2 6324.25 422.430   1
  -1  14  -3 752.577 146.092   1
   1  14   3 685.820 160.106   1
   1  14   4 3882.24 363.008   1
  -1  14  -4 5055.52 435.512   1
   1  14   5 6722.08 506.061   1
  -1  14  -5 7020.68 516.849   1
  -1  14  -6 432.666 162.343   1
   1  14   6 54.2573 102.246   1
  -1  14  -7 500.296 179.862   1
   1  14   7 316.178 165.019   1
   1  14   8 568.085 210.023   1
  -1  14  -8 300.396 138.645   1
   1  14   9 1267.37 275.314   1
  -1  14  -9 1074.81 274.049   1
   1  14  10 387.228 229.992   1
  -1  14 -10 182.237 186.763   1
   1  15 -11 1320.87 299.720   1
   1  15 -10 166.219 164.024   1
   1  15 -10 118.149 126.495   2
   1  15  -9 391.388 172.877   1
   1  15  -9 474.057 160.034   2
   1  15  -8 126.898 98.3939   2
   1  15  -8-69.6826 86.1020   1
   1  15  -7 1295.32 215.245   2
   1  15  -7 1434.06 265.171   1
   1  15  -6 471.755 133.866   2
   1  15  -6 707.482 177.135   1
   1  15  -5 1492.28 210.142   2
  -1  15   5 1485.45 160.902   1
   1  15  -5 1738.44 263.137   1
   1  15  -4 58.6232 56.7582   2
  -1  15   4 60.5145 66.7768   1
   1  15  -4-42.5599 68.2834   1
   1  15  -3 3396.70 345.013   1
  -1  15   3 3476.62 266.709   1
   1  15  -2-14.9093 70.7361   1
  -1  15   2 80.8316 70.4095   1
   1  15  -1 10407.6 605.715   1
  -1  15   1 9127.14 461.623   1
   1  15   0 192.578 107.728   1
  -1  15   0 251.442 101.203   1
   1  15   1 3704.67 351.344   1
  -1  15  -1 3219.24 305.201   1
   1  15   2 1987.67 259.184   1
  -1  15  -2 2651.12 287.400   1
   1  15   3 2583.53 304.798   1
  -1  15  -3 2676.55 296.307   1
  -1  15  -4 128.553 109.600   1
   1  15   4 65.4207 108.540   1
  -1  15  -5 307.626 139.867   1
   1  15   5 265.152 111.492   1
  -1  15  -6 130.582 135.488   1
   1  15   6 168.099 124.473   1
  -1  15  -7 4349.23 475.954   1
   1  15   7 3395.16 413.178   1
   1  15   8 168.403 137.993   1
  -1  15  -8-23.7218 110.120   1
   1  15   9 1631.89 315.355   1
   1  15  10-91.3737 164.420   1
  -1  15 -10 132.677 185.245   1
   1  16 -10 146.673 154.418   1
   1  16  -9 1624.64 301.086   1
   1  16  -8 175.113 153.871   1
   1  16  -8 98.0393 98.0861   2
   1  16  -7 633.992 154.241   2
   1  16  -7 539.636 182.767   1
   1  16  -6 3549.48 396.480   1
   1  16  -6 2880.37 295.626   2
  -1  16   5 759.967 131.760   1
   1  16  -5 1107.81 221.270   1
   1  16  -5 1048.67 182.114   2
  -1  16   4 545.087 128.850   1
   1  16  -4 654.697 173.943   1
   1  16  -4 599.355 145.071   2
   1  16  -3 3191.71 349.222   1
  -1  16   3 3205.91 271.343   1
   1  16  -2 5289.59 421.833   1
  -1  16   2 6210.53 381.966   1
   1  16  -1 2657.97 321.982   1
  -1  16   1 2269.69 245.733   1
   1  16   0 452.878 154.204   1
  -1  16   0 433.235 129.003   1
   1  16   1 1648.49 243.267   1
  -1  16  -1 1616.55 224.417   1
   1  16   2 1736.72 254.347   1
  -1  16  -2 1792.85 237.190   1
  -1  16  -3 179.340 110.149   1
   1  16   3 77.9220 98.0223   1
  -1  16  -4 577.926 160.642   1
   1  16   4 633.387 182.278   1
   1  16   5 4318.08 419.820   1
  -1  16  -5 5053.48 465.838   1
  -1  16  -6 321.271 157.749   1
   1  16   6 201.133 122.620   1
  -1  16  -7 1199.15 245.596   1
   1  16   7 838.560 256.080   1
  -1  16  -8 2408.61 383.449   1
   1  16   8 1830.97 328.194   1
   1  16   9 1456.65 304.425   1
  -1  16  -9 1834.94 374.893   1
   1  17 -10 87.1514 150.123   1
   1  17  -9 138.844 131.435   1
   1  17  -8 185.353 152.404   1
   1  17  -7 459.032 162.844   2
   1  17  -7 547.715 191.621   1
   1  17  -6 125.229 92.7075   2
   1  17  -6 202.962 134.352   1
   1  17  -5 1791.33 239.796   2
   1  17  -5 1524.57 254.158   1
   1  17  -4 101.048 86.6844   2
  -1  17   4 213.850 94.0389   1
   1  17  -3 2110.04 303.804   1
  -1  17   3 1345.15 190.550   1
   1  17  -2 227.817 116.791   1
  -1  17   2 39.5736 76.0336   1
   1  17  -1 1740.34 265.376   1
  -1  17   1 1253.86 196.045   1
   1  17   0 313.197 135.706   1
  -1  17   0 379.682 116.282   1
   1  17   1 722.014 180.691   1
  -1  17  -1 866.697 170.833   1
  -1  17  -2-85.7633 108.138   1
   1  17   2 138.049 113.284   1
   1  17   3 325.809 146.126   1
  -1  17  -3 395.693 148.623   1
   1  17   4 1764.92 285.174   1
  -1  17  -4 2085.49 300.410   1
  -1  17  -5 189.007 120.654   1
   1  17   5 210.322 147.862   1
  -1  17  -6 125.156 159.655   1
   1  17   6 170.259 154.854   1
  -1  17  -7 1998.46 350.314   1
   1  17   7 960.619 239.318   1
  -1  17  -8 217.768 178.830   1
   1  17   8 324.679 183.584   1
   1  17   9 629.725 231.668   1
  -1  17  -9 1092.78 326.929   1
   1  18  -9 2031.04 377.172   1
   1  18  -8 1340.18 301.914   1
   1  18  -7 944.476 246.956   1
   1  18  -6 1605.79 295.389   1
   1  18  -6 1501.43 223.675   2
   1  18  -5 717.994 161.992   2
   1  18  -5 792.313 207.834   1
   1  18  -4 158.884 101.565   2
   1  18  -4 41.6110 105.983   1
  -1  18   3 632.794 139.299   1
   1  18  -3 1184.67 225.307   1
  -1  18   2 997.235 179.904   1
   1  18  -2 1265.03 245.957   1
   1  18  -1 374.384 139.587   1
  -1  18   1 108.590 88.9049   1
   1  18   0 1162.07 249.489   1
  -1  18   0 836.526 175.273   1
   1  18   1 2776.97 335.350   1
  -1  18  -1 3402.80 351.627   1
   1  18   2 3613.42 385.570   1
  -1  18  -2 4206.37 400.649   1
   1  18   3 1722.02 269.148   1
  -1  18  -3 1633.54 249.701   1
   1  18   4 2568.02 335.833   1
  -1  18  -4 3204.56 388.393   1
  -1  18  -5 2467.45 352.582   1
   1  18   5 1882.09 296.679   1
  -1  18  -6 2.28954 116.114   1
   1  18   6 162.030 135.539   1
  -1  18  -7 143.800 151.287   1
   1  18   7 134.949 139.122   1
  -1  18  -8 422.561 219.480   1
   1  18   8-118.113 152.379   1
   1  19  -8 543.873 234.122   1
   1  19  -7 607.916 223.312   1
   1  19  -6 386.619 184.288   1
   1  19  -5 22.5749 117.224   1
   1  19  -4 969.760 190.287   2
   1  19  -4 821.948 191.997   1
   1  19  -3 158.262 133.470   1
  -1  19   3 496.412 140.161   1
   1  19  -2 51.4906 77.4837   1
  -1  19   2 64.9906 94.8037   1
   1  19  -1 959.861 221.433   1
  -1  19   1 1429.51 232.984   1
   1  19   0 1051.61 221.722   1
  -1  19   0 1333.00 224.360   1
   1  19   1 137.426 131.639   1
  -1  19  -1 133.632 108.955   1
   1  19   2 295.326 139.905   1
  -1  19  -2 623.492 171.252   1
   1  19   3 1794.39 292.961   1
  -1  19  -3 1639.14 268.092   1
  -1  19  -4 215.278 166.697   1
   1  19   4 102.749 118.590   1
  -1  19  -5 81.2946 131.769   1
   1  19   5 66.2151 117.969   1
   1  19   6 1975.08 325.668   1
  -1  19  -6 2525.36 370.158   1
  -1  19  -7 325.381 188.753   1
   1  19   7 106.383 141.899   1
  -1  19  -8 8.72860 143.388   1
   1  20  -8 343.912 219.394   1
   1  20  -7 83.1703 132.957   1
   1  20  -6 374.734 185.514   1
   1  20  -5 455.307 175.753   1
   1  20  -4 178.636 153.122   1
   1  20  -3 877.005 215.495   1
   1  20  -2 1544.56 277.932   1
  -1  20   2 1760.76 255.304   1
  -1  20   1 1115.07 210.647   1
   1  20  -1 893.260 208.962   1
   1  20   0 272.577 126.266   1
  -1  20   0 327.400 161.272   1
   1  20   1 645.101 218.364   1
  -1  20  -1 399.241 156.998   1
   1  20   2 483.032 178.050   1
  -1  20  -2 770.096 210.221   1
  -1  20  -3 141.277 149.748   1
   1  20   3 86.2408 138.373   1
   1  20   4 2120.77 330.844   1
  -1  20  -4 2090.16 333.661   1
  -1  20  -5 1052.63 250.043   1
   1  20   5 947.715 237.792   1
  -1  20  -6 46.4931 141.611   1
   1  20   6-15.3984 117.374   1
  -1  20  -7 283.288 196.364   1
   1  20   7 333.702 188.174   1
   1  21  -7 196.365 169.828   1
   1  21  -6 403.042 198.549   1
   1  21  -5 188.828 158.748   1
   1  21  -4 468.000 205.863   1
   1  21  -3 134.883 121.327   1
   1  21  -2 120.262 123.924   1
  -1  21   2 358.770 153.038   1
   1  21  -1 741.877 226.570   1
  -1  21   1 476.460 158.016   1
   1  21   0 910.151 232.531   1
  -1  21   0 1004.33 214.458   1
   1  21   1 178.521 150.697   1
  -1  21  -1 233.651 140.643   1
  -1  21  -2 786.743 211.063   1
   1  21   2 732.462 213.891   1
  -1  21  -3 490.460 201.432   1
   1  21   3 298.876 155.847   1
  -1  21  -4 1941.68 330.949   1
   1  21   4 1345.08 269.361   1
  -1  21  -5 838.155 243.918   1
   1  21   5 498.589 212.392   1
  -1  21  -6 1586.14 319.086   1
   1  21   6 913.722 241.991   1
  -1  21  -7 305.929 212.814   1
   1  22  -6 90.1367 166.148   1
   1  22  -5 174.424 171.905   1
   1  22  -4 179.472 167.915   1
   1  22  -3 221.959 157.973   1
   1  22  -2 1505.52 307.957   1
   1  22  -1 254.556 157.144   1
  -1  22   1 197.906 142.678   1
   1  22   0 475.443 192.426   1
  -1  22   0 473.760 175.668   1
   1  22   1 399.372 192.298   1
  -1  22  -1 373.781 166.856   1
  -1  22  -2 311.336 164.983   1
   1  22   2-0.29841 125.451   1
   1  22   3 202.276 156.367   1
  -1  22  -3 57.2765 157.935   1
   1  22   4 198.870 171.707   1
  -1  22  -4 152.471 158.682   1
  -1  22  -5 521.500 214.320   1
   1  22   5 193.989 177.749   1
  -1  22  -6 581.812 235.647   1
   1  22   6 608.838 221.038   1
   1  23  -5 305.031 221.053   1
   1  23  -4 2483.61 399.049   1
   1  23  -3 311.250 197.422   1
   1  23  -2 405.113 198.042   1
   1  23  -1 454.859 208.025   1
   1  23   0 1784.10 321.361   1
  -1  23   0 1736.00 291.557   1
   1  23   1 331.044 157.285   1
  -1  23  -1 255.084 157.080   1
   1  23   2 247.420 179.906   1
  -1  23  -2 239.454 182.657   1
  -1  23  -3 1512.93 304.431   1
   1  23   3 1242.60 310.628   1
   1  23   4 416.896 208.349   1
  -1  23  -4 602.395 236.642   1
   1  23   5 298.521 197.429   1
  -1  23  -5 349.235 203.875   1
   1  24  -3 101.920 138.992   1
   1  24  -2 824.574 258.732   1
   1  24  -1 425.383 209.591   1
   1  24   0 158.133 165.460   1
   1  24   1 249.141 175.314   1
  -1  24  -1 372.816 189.012   1
  -1  24  -2 667.998 223.590   1
   1  24   2 287.647 164.251   1
  -1  24  -3 423.774 222.927   1
   1  24   3 179.575 170.451   1
   1  24   4 244.684 215.473   1
  -1  24  -4 158.902 191.958   1
   1  25  -1 460.832 241.329   1
   1  25   0 1813.04 375.486   1
   1  25   1 416.554 186.101   1
  -1  25  -2 934.519 252.321   1
   1  25   2 824.803 254.801   1
  -1  25  -3 237.104 210.640   1
   1  25   3 67.7047 159.524   1
   2   0 -12 2051.83 345.618   2
   2   0 -11 41.7958 108.140   2
   2   0 -10 563.302 175.883   2
   2   0 -10 854.859 164.279   1
   2   0  -9-3.90077 72.6557   2
   2   0  -9 207.403 99.8891   1
   2   0  -8 4759.69 314.450   1
   2   0  -8 4688.78 402.654   2
   2   0  -7 240.762 82.7589   1
  -2   0   7 225.265 82.5692   1
   2   0  -7 233.277 110.265   2
  -2   0   6 4434.71 251.668   1
   2   0  -6 4265.73 240.624   1
   2   0  -6 4699.16 373.068   2
   2   0  -5 31.9206 68.6281   2
  -2   0   5-53.1222 35.4581   1
  -2   0   4 189316. 1486.57   1
   2   0  -4 187106. 2014.87   2
   2   0  -3-21.5809 41.0466   2
  -2   0   3 66.2240 50.8610   1
   2   0  -3 68.8107 41.5638   1
  -2   0   2 30371.5 658.273   1
   2   0  -2 30891.3 603.004   1
  -2   0   1 33.0380 46.8122   1
   2   0  -1 124.407 58.6445   1
   2   0   0 196.534 75.1814   1
   2   0   1 145.683 80.7807   1
   2   0   2 13711.5 595.113   1
   2   0   3 1136.36 224.362   1
   2   0   4 3193.54 329.002   1
   2   0   5 529.051 164.216   1
   2   0   6 29088.0 1104.95   1
   2   0   7 134.883 129.679   1
   2   0   8 2070.49 348.793   1
   2   0   9 133.262 149.296   1
   2   0  10 2928.65 456.235   1
   2   0  11 61.9713 150.632   1
   2   0  12 2562.22 606.120   1
   2   1 -12 596.108 212.622   2
   2  -1 -12 983.306 274.725   2
   2   1 -11 507.410 204.350   2
   2  -1 -11 198.676 145.262   2
   2   1 -10 697.868 165.712   1
   2  -1 -10 377.247 157.412   2
   2   1 -10 518.541 190.809   2
   2  -1  -9 235.912 91.6188   1
   2   1  -9 218.904 118.256   2
   2  -1  -9 128.226 80.8051   2
   2   1  -9 488.488 128.543   1
   2  -1  -8 1459.41 243.211   2
   2   1  -8 1521.46 190.174   1
   2  -1  -8 1580.81 182.509   1
   2   1  -8 1152.53 212.930   2
   2  -1  -7 1519.05 217.679   2
  -2   1   7 1568.59 159.004   1
   2   1  -7 2058.45 191.450   1
   2  -1  -7 1730.75 171.900   1
   2   1  -7 1949.13 241.862   2
  -2   1   6 3532.99 216.863   1
  -2  -1   6 3205.41 233.116   1
   2   1  -6 3097.89 215.773   1
   2  -1  -6 3692.20 210.478   1
   2  -1  -6 3300.98 300.527   2
  -2   1   5 3128.31 183.320   1
  -2  -1   5 3080.82 218.946   1
   2   1  -5 2566.77 185.376   1
   2  -1  -5 2700.93 159.161   1
   2   1  -5 2691.46 259.471   2
   2   1  -4 2542.81 272.058   2
   2  -1  -4 8256.19 457.072   2
  -2   1   4 3862.78 223.178   1
  -2  -1   4 1273.60 154.837   1
   2   1  -4 2428.01 227.736   1
   2  -1  -4 10235.6 316.588   1
  -2   1   3 1204.92 118.782   1
  -2  -1   3 1397.08 144.328   1
   2  -1  -3 1226.50 103.699   1
   2   1  -3 1213.64 123.130   1
   2   1  -3 1332.38 178.893   2
   2  -1  -3 1158.77 156.385   2
  -2   1   2 11279.4 389.234   1
  -2  -1   2 12258.6 443.705   1
   2  -1  -2 11978.4 363.680   1
   2   1  -2 12787.0 421.281   1
  -2  -1   1 7375.79 371.652   1
   2  -1  -1 7790.12 328.503   1
   2   1  -1 7507.82 344.230   1
   2  -1   0 1547.04 170.008   1
  -2  -1   0 1293.13 165.161   1
   2  -1   0 1691.11 178.842   1
   2   1   0 1799.09 186.145   1
   2  -1   1 5239.89 333.941   1
   2   1   1 4740.72 325.568   1
   2  -1   2 351.585 161.784   1
   2   1   2 539.225 171.011   1
   2  -1   3 10064.8 548.064   1
   2   1   3 8886.50 514.592   1
   2  -1   4 2343.04 308.615   1
   2   1   4 1854.92 259.017   1
   2   1   5 1621.36 250.364   1
   2   1   6 8496.98 637.945   1
   2   1   7 821.417 203.291   1
   2   1   8 1472.73 305.624   1
   2  -1   9 98.3544 136.624   1
   2   1   9 60.3975 135.027   1
   2  -1  10 1406.10 407.876   1
   2   1  10 529.262 250.137   1
   2  -1  11 307.030 221.083   1
   2   1  11-7.39648 142.185   1
   2  -1  12 962.348 369.854   1
   2   1  12 1168.43 369.878   1
   2   2 -13 403.141 210.928   2
   2   2 -12 3653.62 443.704   2
   2   2 -11 1189.60 218.007   1
   2   2 -11 810.990 205.933   2
   2  -2 -11 1350.51 304.698   2
   2   2 -10 1518.91 237.412   1
   2   2 -10 1532.15 279.081   2
   2  -2 -10 1339.14 256.681   2
   2   2  -9 64.6472 65.2388   2
   2  -2  -9 136.768 101.905   2
   2   2  -9 344.201 112.886   1
   2  -2  -9 417.387 111.111   1
   2   2  -8 4887.67 340.423   1
   2   2  -8 4508.41 392.324   2
   2  -2  -8 4963.25 432.822   2
   2  -2  -8 4753.91 270.088   1
   2   2  -7 53.6177 80.9137   2
   2  -2  -7 154.615 93.8858   2
  -2   2   7 66.7697 48.9200   1
   2  -2  -7 311.117 76.2394   1
   2   2  -7 129.902 89.4504   1
  -2   2   6 707.865 91.8765   1
   2  -2  -6 983.174 105.738   1
   2   2  -6 880.608 127.252   1
   2   2  -6 928.641 191.902   2
   2  -2  -6 1074.50 181.660   2
   2   2  -5 143.910 77.5293   2
   2  -2  -5 178.375 85.6941   2
   2   2  -5 42.3742 49.7128   1
  -2   2   5 92.6362 39.8999   1
  -2  -2   5 259.421 89.2645   1
   2  -2  -5 181.403 45.0149   1
  -2   2   4 22480.4 423.944   1
  -2  -2   4 24987.8 642.423   1
   2   2  -4 23901.3 751.372   2
   2   2  -4 25826.1 628.285   1
   2  -2  -4 21392.0 371.247   1
   2  -2  -4 22499.7 678.774   2
  -2   2   3 4324.83 196.884   1
   2  -2  -3 4592.57 177.378   1
   2   2  -3 4981.99 258.731   1
   2  -2  -3 4789.86 301.969   2
   2  -2  -2 66155.7 858.209   1
  -2  -2   2 66518.7 1074.74   1
   2  -2  -2 67415.7 805.486   1
   2   2  -2 67047.0 991.910   1
   2  -2  -2 63680.0 1058.55   2
   2  -2  -1 2674.51 191.324   1
  -2  -2   1 2622.07 224.297   1
   2  -2  -1 2865.78 199.576   1
   2   2  -1 2927.36 223.139   1
   2  -2   0 37262.1 816.206   1
   2  -2   0 38619.7 823.334   1
   2   2   0 35753.2 823.455   1
   2  -2   1 617.495 116.859   1
   2   2   1 648.860 137.491   1
   2  -2   2 21261.5 732.629   1
   2   2   2 20902.4 731.234   1
   2   2   3 16162.5 688.978   1
  -2   2  -4 7452.20 506.231   1
   2   2   4 5807.20 444.773   1
   2   2   5 2350.04 310.677   1
  -2   2  -5 4569.10 435.041   1
  -2   2  -6 15609.3 798.946   1
   2   2   6 14243.5 778.139   1
   2   2   7 272.211 154.934   1
  -2   2  -7 209.705 115.893   1
  -2   2  -8 2333.74 374.520   1
   2   2   8 1688.51 314.470   1
   2   2   9-24.1101 104.446   1
   2   2  10 5899.91 642.331   1
   2   2  11 76.3462 169.873   1
   2  -2  11 305.484 226.280   1
   2   2  12 1924.74 449.781   1
   2  -2  12 1465.51 391.825   1
   2   3 -13 679.938 237.069   2
   2   3 -12 1265.55 285.436   2
   2   3 -11-46.9334 118.782   2
   2   3 -11 37.6334 94.9992   1
   2  -3 -10 742.631 212.973   2
   2   3 -10 740.506 209.146   2
   2   3 -10 669.452 171.687   1
   2   3  -9 119.165 91.0132   2
   2  -3  -9 143.214 105.079   2
   2   3  -9 379.817 124.665   1
   2   3  -8 482.550 150.272   2
   2   3  -8 524.673 148.261   1
   2  -3  -8 532.059 90.3668   1
  -2   3   7 2348.93 149.576   1
   2   3  -7 2325.29 230.123   1
   2   3  -7 3050.40 323.559   2
   2  -3  -7 2365.95 280.982   2
   2  -3  -7 2332.64 145.121   1
   2   3  -6 382.669 111.441   2
   2  -3  -6 264.598 89.9704   2
  -2   3   6 339.087 52.5588   1
   2   3  -6 446.158 100.416   1
   2  -3  -6 476.882 56.0366   1
  -2   3   5 1660.59 81.6646   1
   2   3  -5 1878.69 174.378   1
   2  -3  -5 1606.24 76.9549   1
   2   3  -5 2082.93 232.238   2
   2  -3  -5 2007.46 217.694   2
   2   3  -4 35.8370 45.5795   2
   2  -3  -4 134.209 117.347   2
   2   3  -4 104.057 72.7920   1
   2  -3  -4 186.798 35.2328   1
   2  -3  -3 409.348 53.4048   1
   2  -3  -3 405.697 90.1208   2
  -2  -3   3 522.740 105.304   1
   2  -3  -3 401.249 48.0708   1
   2   3  -3 681.223 107.757   1
   2  -3  -2 61.1330 65.8401   2
   2  -3  -2 187.964 62.3120   1
  -2  -3   2 62.1205 56.8017   1
   2  -3  -2 135.636 52.3321   1
   2   3  -2 53.6948 60.4568   1
   2  -3  -1 356.258 77.0245   1
   2  -3  -1 198.674 60.7596   1
   2   3  -1 326.414 87.5197   1
   2  -3   0 5246.17 300.709   1
   2   3   0 5504.35 330.975   1
   2  -3   0 5143.08 290.405   1
   2   3   1 97.9479 79.7824   1
   2   3   2 1481.34 232.147   1
  -2   3  -2 1895.99 246.808   1
  -2   3  -3 750.089 157.305   1
   2   3   3 865.099 212.985   1
   2   3   4 7238.35 501.631   1
  -2   3  -4 6837.73 470.038   1
  -2   3  -5 11772.7 654.423   1
   2   3   5 10494.8 626.567   1
   2   3   6 5498.52 524.640   1
  -2   3  -6 5782.44 505.481   1
  -2   3  -7 999.873 238.792   1
   2   3   7 549.501 210.893   1
  -2   3  -8 3280.23 417.430   1
   2   3   8 4199.54 498.192   1
  -2   3  -9 1005.14 264.145   1
   2   3   9 772.145 233.150   1
   2   3  10 2538.53 486.913   1
   2   3  11 330.630 229.584   1
   2  -3  12 343.320 262.685   1
   2   3  12 635.341 315.873   1
   2   4 -13 274.449 174.144   2
   2   4 -12 922.963 246.116   2
   2   4 -11 774.147 209.155   2
   2   4 -11 842.885 207.542   1
   2  -4 -10 1131.60 232.705   2
   2   4 -10 872.766 198.125   1
   2   4 -10 1227.34 239.324   2
   2   4  -9 884.000 174.345   1
   2   4  -9 645.492 160.940   2
   2  -4  -9 655.054 175.676   2
   2   4  -8 9514.11 484.339   1
   2   4  -8 8931.04 547.850   2
   2  -4  -8 8926.32 568.856   2
  -2   4   7 549.710 54.2733   1
  -2   4   7 466.284 45.9079   1
   2  -4  -7 1142.06 202.282   2
   2   4  -7 805.421 143.768   1
   2   4  -7 1123.54 218.438   2
   2   4  -6 2434.97 266.118   2
   2   4  -6 2078.45 207.001   1
   2  -4  -6 2266.06 254.787   2
   2   4  -5 1451.25 162.296   1
   2   4  -5 1479.32 206.038   2
   2  -4  -5 1400.20 188.267   2
   2   4  -4 8579.90 398.748   1
   2   4  -4 7840.54 435.639   2
   2  -4  -4 7663.59 404.184   2
   2  -4  -3 611.445 114.300   2
   2  -4  -3 448.711 39.6515   1
   2   4  -3 567.487 105.553   1
   2  -4  -3 445.543 46.1403   1
   2  -4  -2 8.75910 38.9109   2
   2  -4  -2 90.8434 36.4674   1
   2  -4  -2 21.7142 32.0791   1
   2   4  -2 130.041 73.2752   1
   2  -4  -1 3639.61 223.984   1
   2   4  -1 3758.17 267.721   1
   2  -4  -1 3839.54 223.904   1
   2  -4   0 9875.43 407.140   1
   2   4   0 9604.15 453.849   1
  -2   4  -1 3014.48 255.889   1
   2   4   1 2858.34 257.259   1
  -2   4  -2 37414.4 968.839   1
   2   4   2 33449.8 952.284   1
  -2   4  -3 580.085 135.439   1
   2   4   3 456.854 122.016   1
  -2   4  -4 1119.65 200.365   1
   2   4   4 1344.89 229.673   1
   2   4   5 8588.69 569.012   1
  -2   4  -5 8417.21 551.137   1
  -2   4  -6 19562.8 882.203   1
   2   4   6 17793.8 869.117   1
   2   4   7 636.947 193.653   1
  -2   4  -7 801.310 195.587   1
   2   4   8 129.693 174.016   1
  -2   4  -8 452.559 191.706   1
   2   4   9 471.996 232.301   1
  -2   4  -9 275.897 161.030   1
  -2   4 -10 3036.31 445.829   1
   2   4  10 3673.20 496.020   1
   2   4  11 311.417 198.488   1
  -2   4 -11 606.520 261.479   1
   2   4  12 994.322 351.637   1
   2   5 -13-48.4671 113.134   2
   2   5 -12-145.680 139.871   2
   2   5 -12 107.848 128.845   1
   2   5 -11 187.120 150.887   2
   2   5 -11-42.7295 113.839   1
   2   5 -10 874.110 191.926   1
   2   5 -10 1357.07 253.853   2
   2   5  -9 2727.87 298.143   1
   2   5  -9 2797.41 331.074   2
   2  -5  -9 3418.30 369.709   2
   2   5  -8 60.2838 70.3083   1
   2   5  -8-13.3582 80.6860   2
   2   5  -7 1828.85 217.901   1
   2   5  -7 2066.84 311.175   2
   2  -5  -7 1290.17 208.023   2
   2   5  -6 2242.50 223.358   1
   2   5  -6 2382.12 262.754   2
   2  -5  -6 2373.91 272.333   2
   2   5  -5 1129.67 155.148   1
   2   5  -5 1006.34 175.097   2
   2  -5  -5 759.811 136.054   2
   2   5  -4 565.668 132.950   2
   2  -5  -4 673.559 121.266   2
   2   5  -3 6582.19 353.298   1
   2  -5  -3 7214.66 378.331   2
   2  -5  -2 4370.75 191.638   1
   2  -5  -2 4215.75 251.888   2
   2   5  -2 4859.98 307.450   1
   2  -5  -2 4387.29 185.335   1
   2  -5  -1 5445.74 271.376   1
   2   5  -1 6148.99 359.472   1
   2  -5  -1 5210.23 246.006   1
   2  -5  -1 5911.73 282.711   2
  -2   5   0 457.411 96.1818   1
   2  -5   0 347.667 77.5400   1
   2   5   0 298.319 89.3907   1
  -2   5  -1 24162.0 709.679   1
   2   5   1 23383.2 752.357   1
  -2   5  -2 2665.86 255.672   1
   2   5   2 2686.28 269.364   1
   2   5   3 184.687 90.7332   1
  -2   5  -3 221.901 91.2337   1
  -2   5  -4 1109.31 190.245   1
   2   5   4 1271.85 214.190   1
   2   5   5-59.8556 80.9987   1
  -2   5  -5 8.99222 78.1422   1
   2   5   6 265.265 186.936   1
  -2   5  -6 143.327 88.6195   1
   2   5   7 224.342 146.348   1
  -2   5  -7 220.778 113.370   1
  -2   5  -8 5367.55 525.052   1
   2   5   8 5433.62 541.398   1
   2   5   9 604.854 213.075   1
  -2   5  -9 948.157 254.235   1
  -2   5 -10 485.395 206.081   1
   2   5  10 452.165 221.583   1
  -2   5 -11 1130.30 309.106   1
   2   5  11 1354.31 351.612   1
   2   5  12 498.288 273.338   1
   2   6 -13 120.879 156.845   2
   2   6 -12 312.808 164.250   2
   2   6 -12 381.666 183.370   1
   2   6 -11 811.033 232.474   2
   2   6 -11 684.158 200.406   1
   2   6 -10 229.008 108.579   2
   2   6 -10 589.133 178.948   1
   2   6  -9 128.647 101.435   1
   2   6  -9-29.4186 68.6868   2
   2  -6  -9 30.9606 92.0021   2
   2   6  -8 4665.96 363.543   1
   2   6  -8 4474.91 410.946   2
   2  -6  -8 4057.72 387.004   2
   2   6  -7 2082.01 235.267   1
   2  -6  -7 1662.89 241.185   2
   2   6  -6 223.474 86.8309   2
   2  -6  -6 100.086 70.9883   2
   2   6  -6 34.5510 50.0915   1
   2   6  -5 3348.80 269.490   1
   2   6  -5 3451.75 320.198   2
   2  -6  -5 3409.75 306.409   2
   2   6  -4 5705.28 356.649   1
   2  -6  -4 4623.46 310.248   2
   2   6  -3 4263.83 302.397   1
   2  -6  -3 4068.16 270.471   2
   2  -6  -2 1438.71 119.839   1
   2   6  -2 1684.49 187.802   1
   2  -6  -2 1463.28 104.639   1
   2  -6  -2 1919.38 186.137   2
   2   6  -1 5293.27 335.304   1
   2  -6  -1 5273.09 248.485   1
   2  -6  -1 5344.98 252.478   2
  -2   6   0 15661.5 535.042   1
   2   6   0 14875.2 588.495   1
   2  -6   0 15135.1 501.583   1
   2  -6   0 14943.5 395.427   2
  -2   6  -1 3508.44 273.062   1
   2   6   1 3585.52 310.521   1
  -2   6  -2 6562.61 417.246   1
   2   6   2 5773.61 403.139   1
  -2   6  -3 6762.15 450.978   1
   2   6   3 5562.11 420.731   1
   2   6   4 50.2036 86.5495   1
  -2   6  -4 69.4944 65.5533   1
  -2   6  -5 2510.03 305.277   1
   2   6   5 2685.90 327.777   1
  -2   6  -6 2109.77 303.122   1
   2   6   6 2380.00 328.673   1
   2   6   7 852.222 223.290   1
  -2   6  -7 834.960 193.707   1
   2   6   8 1294.71 298.541   1
  -2   6  -8 1205.74 255.862   1
   2   6   9 495.088 203.328   1
  -2   6  -9 73.1549 139.149   1
   2   6  10 777.935 249.759   1
  -2   6 -10 885.886 260.478   1
  -2   6 -11 115.411 170.534   1
   2   6  11 462.399 264.070   1
   2   6  12 718.378 317.225   1
   2   7 -13 484.786 206.985   2
   2   7 -12-37.0025 114.798   2
   2   7 -12 182.267 143.133   1
   2   7 -11 94.9418 129.867   1
   2   7 -11 34.9707 106.128   2
   2   7 -10 225.473 136.658   1
   2   7 -10 255.528 140.402   2
   2   7  -9 1006.81 203.068   2
   2   7  -9 1405.79 219.983   1
   2   7  -8-4.80957 83.1737   2
   2  -7  -8 324.768 126.113   2
   2   7  -8 209.533 105.192   1
   2   7  -7 1594.82 220.153   1
   2   7  -7 1584.09 230.824   2
   2  -7  -7 1479.62 221.501   2
   2   7  -6 6792.32 423.069   1
   2   7  -6 7481.40 486.848   2
   2  -7  -6 7263.36 468.831   2
   2   7  -5 2157.82 225.262   1
   2   7  -5 2074.18 255.852   2
   2  -7  -5 1945.19 222.107   2
   2   7  -4 99.0614 78.9299   1
   2  -7  -4 68.7922 61.0217   2
   2   7  -3 5698.89 349.429   1
   2  -7  -3 5760.10 320.438   2
   2  -7  -2 8625.83 353.931   2
   2   7  -2 8363.27 427.125   1
   2  -7  -2 7781.92 242.712   1
  -2   7   1 1221.40 137.305   1
   2   7  -1 1327.55 177.682   1
   2  -7  -1 1089.14 120.832   1
   2  -7  -1 1221.22 131.853   2
  -2   7   0 3846.82 267.573   1
   2   7   0 3564.81 298.801   1
   2  -7   0 3363.46 236.166   1
   2  -7   0 3499.95 179.013   2
   2   7   1 11473.7 558.419   1
  -2   7  -1 12974.5 538.523   1
  -2   7  -2 1315.22 185.616   1
   2   7   2 1047.37 184.822   1
  -2   7  -3 2422.81 264.309   1
   2   7   3 2510.29 284.831   1
  -2   7  -4 3538.29 342.018   1
   2  -7   4 2949.65 211.365   2
   2   7   4 3398.70 348.418   1
  -2   7  -5 5101.93 433.549   1
   2  -7   5 4633.11 296.112   2
   2   7   5 4934.24 450.594   1
   2   7   6 124.352 124.048   1
  -2   7  -6-25.9200 76.7589   1
  -2   7  -7 718.637 204.617   1
   2   7   7 707.768 203.748   1
   2   7   8 46.1575 126.705   1
  -2   7  -8-94.7251 86.4957   1
  -2   7  -9 1906.14 339.279   1
   2   7   9 1968.65 359.398   1
   2   7  10 898.484 300.580   1
  -2   7 -10 1081.14 286.520   1
   2   7  11 131.549 204.943   1
  -2   7 -11 220.862 200.804   1
   2   7  12 942.251 336.054   1
   2   8 -13 93.9292 141.087   2
   2   8 -12-31.9098 125.700   2
   2   8 -12 204.317 166.602   1
   2   8 -11 1415.14 281.367   2
   2   8 -11 1163.61 256.148   1
   2   8 -10 704.334 194.024   1
   2   8 -10 495.208 165.858   2
   2   8  -9-17.7065 81.7685   2
   2   8  -9 91.8206 95.3073   1
   2   8  -8 1952.98 262.523   1
   2   8  -8 2221.63 316.557   2
   2   8  -7 2229.69 262.053   1
   2   8  -7 2384.34 282.957   2
   2   8  -6 37.3091 62.0796   2
   2  -8  -6 135.904 83.6238   2
   2   8  -6 164.392 82.7243   1
   2   8  -5 1921.37 221.653   1
   2   8  -5 2028.98 256.972   2
   2  -8  -5 1968.24 230.270   2
   2   8  -4 437.775 123.849   1
   2  -8  -4 304.191 82.3611   2
   2   8  -3 175.626 91.5894   1
   2  -8  -3 168.954 81.7458   2
  -2   8   2 607.100 84.9673   1
   2   8  -2 692.287 136.625   1
   2  -8  -2 579.482 73.7927   1
   2  -8  -2 718.370 106.758   2
  -2   8   1 7447.38 340.793   1
   2   8  -1 7171.95 420.371   1
   2  -8  -1 6453.70 282.498   1
   2  -8  -1 6331.68 252.882   2
   2   8   0 7569.18 458.313   1
   2  -8   0 6620.70 335.981   1
   2  -8   0 6564.27 218.870   2
  -2   8   0 6891.81 361.073   1
  -2   8  -1 336.018 87.5353   1
   2   8   1 254.097 104.676   1
   2  -8   1 309.361 49.8480   2
   2   8   2 6082.10 439.274   1
  -2   8  -2 5643.13 378.295   1
   2   8   3 3895.96 363.376   1
  -2   8  -3 3753.28 330.797   1
   2   8   4 2227.95 292.401   1
   2  -8   4 2211.59 183.460   2
  -2   8  -4 2323.54 275.315   1
  -2   8  -5 7679.01 533.497   1
   2   8   5 6611.94 508.876   1
   2   8   6 179.364 137.454   1
  -2   8  -6 176.499 77.9498   1
  -2   8  -7 1715.01 296.801   1
   2   8   7 1967.39 328.281   1
  -2   8  -8-22.2545 120.603   1
   2   8   8 54.2482 109.225   1
  -2   8  -9 2502.11 378.372   1
   2   8   9 2118.58 372.219   1
   2   8  10 457.819 215.522   1
  -2   8 -10 363.357 189.169   1
  -2   8 -11-20.8030 143.607   1
   2   8  11 291.246 271.056   1
   2   8  12 125.698 239.839   1
   2   9 -12 542.672 210.982   2
   2   9 -12 109.507 150.403   1
   2   9 -11 131.092 135.200   2
   2   9 -11 169.724 129.383   1
   2   9 -10 523.625 194.042   1
   2   9 -10 493.690 148.842   2
   2   9  -9 1715.67 272.200   1
   2   9  -9 1860.58 274.084   2
   2   9  -8 109.107 104.802   2
   2   9  -8 356.200 133.765   1
   2   9  -7 2367.12 280.825   1
   2   9  -7 2223.51 286.815   2
   2   9  -6 2079.90 269.049   2
   2   9  -6 2198.50 261.137   1
   2   9  -5 273.725 116.288   2
   2  -9  -5 82.3668 72.7600   2
   2   9  -5 79.9044 78.2998   1
   2   9  -4 677.891 149.795   1
   2  -9  -4 615.878 123.070   2
   2  -9  -3 1602.94 78.3421   1
   2   9  -3 1970.18 230.895   1
   2  -9  -3 2162.52 201.676   2
   2   9  -2 4457.26 341.295   1
   2  -9  -2 3990.86 191.973   1
   2  -9  -2 4483.45 256.414   2
  -2   9   2 4055.11 226.869   1
   2  -9  -1 169.975 50.7915   2
  -2   9   1 252.860 69.4803   1
   2  -9  -1 170.173 60.5992   1
   2   9  -1 276.318 100.533   1
   2   9   0 3067.23 286.614   1
  -2   9   0 3170.28 244.215   1
   2   9   1 11281.1 579.803   1
  -2   9  -1 10877.2 498.520   1
  -2   9  -2 415.610 121.083   1
   2   9   2 532.165 141.619   1
  -2   9  -3 242.433 105.693   1
   2   9   3 138.430 97.8693   1
   2  -9   3 77.5824 28.1780   2
   2   9   4 3698.30 375.200   1
   2  -9   4 3173.31 176.440   2
  -2   9  -4 3823.92 350.130   1
   2   9   5 12401.8 714.436   1
  -2   9  -5 12454.2 676.304   1
   2   9   6 150.061 118.776   1
  -2   9  -6 153.923 112.529   1
   2   9   7 670.740 219.656   1
  -2   9  -7 984.760 237.756   1
  -2   9  -8 2090.49 346.990   1
   2   9   8 2010.66 370.756   1
  -2   9  -9 1155.83 280.332   1
   2   9   9 965.727 259.430   1
   2   9  10 398.638 225.909   1
  -2   9 -10 81.5349 129.370   1
   2   9  11 872.683 308.016   1
  -2   9 -11 1471.98 360.885   1
   2  10 -13 189.527 185.953   1
   2  10 -12 358.331 196.244   2
   2  10 -12 345.879 196.212   1
   2  10 -11 1446.65 293.156   1
   2  10 -11 1573.14 287.110   2
   2  10 -10 481.382 173.351   1
   2  10 -10 708.641 204.873   2
   2  10  -9 225.762 120.602   2
   2  10  -9 296.244 142.339   1
   2  10  -8 227.676 149.385   2
   2  10  -8 269.925 112.588   1
   2  10  -7 1996.83 261.981   1
   2  10  -7 2046.35 271.484   2
   2  10  -6 963.968 179.731   1
   2  10  -6 926.622 193.617   2
   2  10  -5 3036.51 304.531   1
   2  10  -5 2881.11 316.966   2
   2  10  -4 3306.72 314.424   1
   2  10  -3 376.372 109.924   1
   2 -10  -3 283.089 48.9451   1
  -2  10   3 338.681 59.2589   1
   2 -10  -2 2531.76 165.273   1
  -2  10   2 2554.19 180.858   1
   2  10  -1 7391.79 453.378   1
   2 -10  -1 6593.20 312.767   1
  -2  10   1 7167.47 351.999   1
   2  10   0 188.598 103.057   1
  -2  10   0 139.323 70.7730   1
   2  10   1 1324.58 219.776   1
  -2  10  -1 1266.44 183.646   1
   2  10   2 3031.42 323.789   1
  -2  10  -2 4151.52 346.293   1
   2  10   3 6194.09 474.768   1
  -2  10  -3 6623.87 461.555   1
  -2  10  -4 182.615 111.531   1
   2  10   4 12.9828 74.8773   1
  -2  10  -5 206.530 108.954   1
   2  10   5-103.821 121.004   1
  -2  10  -6 92.7495 104.695   1
   2  10   6 0.46650 97.4626   1
  -2  10  -7 1640.65 288.064   1
   2  10   7 2134.67 335.002   1
   2  10   8 527.891 185.995   1
  -2  10  -8 452.901 191.867   1
  -2  10  -9 6849.78 652.433   1
   2  10   9 5466.03 594.287   1
  -2  10 -10 68.2787 154.882   1
   2  10  10 22.3514 159.370   1
   2  10  11 1053.21 326.307   1
   2  11 -13 331.437 227.383   1
   2  11 -12 812.975 272.718   2
   2  11 -12 825.391 261.852   1
   2  11 -11 579.747 208.160   1
   2  11 -11 928.363 225.235   2
   2  11 -10 1299.96 257.888   1
   2  11 -10 1158.72 251.492   2
   2  11  -9 3107.31 373.669   1
   2  11  -9 2800.71 342.598   2
   2  11  -8 40.1261 119.299   2
   2  11  -8 13.8832 79.3089   1
   2  11  -7 2466.45 311.364   1
   2  11  -7 2960.24 330.218   2
   2  11  -6 460.658 143.416   2
   2  11  -6 273.031 130.130   1
   2  11  -5 196.369 103.470   2
   2  11  -5 312.787 120.392   1
   2  11  -4 1023.98 192.985   1
   2 -11  -3 3172.07 160.380   1
  -2  11   3 3386.08 174.960   1
  -2  11   2 64.3089 52.8165   1
   2 -11  -2 41.4376 40.1165   1
   2  11  -2 25.7049 61.9137   1
   2  11  -1 3627.33 330.331   1
   2 -11  -1 3820.77 269.233   1
  -2  11   1 3759.25 267.369   1
   2  11   0 1095.41 190.618   1
  -2  11   0 1570.72 196.443   1
   2  11   1 11742.8 609.496   1
  -2  11  -1 12321.2 575.607   1
   2  11   2 4636.10 412.347   1
  -2  11  -2 4688.75 382.674   1
  -2  11  -3 201.504 105.086   1
   2  11   3 8.40006 71.3881   1
   2  11   4 3730.02 402.421   1
  -2  11  -4 4066.56 390.799   1
  -2  11  -5 512.163 160.954   1
   2  11   5 369.917 146.304   1
  -2  11  -6 309.437 144.167   1
   2  11   6 141.156 125.013   1
   2  11   7 2093.00 323.508   1
  -2  11  -7 2044.96 317.663   1
   2  11   8 151.202 156.753   1
  -2  11  -8 94.0395 104.374   1
   2  11   9 836.862 249.866   1
  -2  11  -9 1230.69 274.094   1
  -2  11 -10 112.598 178.345   1
   2  11  10 473.703 222.284   1
   2  11  11 1656.26 386.516   1
   2  12 -12 257.277 193.201   2
   2  12 -12 242.635 181.662   1
   2  12 -11 303.821 182.385   1
   2  12 -11 258.524 159.002   2
   2  12 -10 337.607 170.208   1
   2  12 -10 244.003 142.725   2
   2  12  -9 441.326 155.899   2
   2  12  -9 222.265 129.455   1
   2  12  -8 652.072 227.613   2
   2  12  -8 382.114 133.908   1
   2  12  -7 3215.34 351.902   1
   2  12  -7 3733.76 368.209   2
   2  12  -6 225.583 108.953   2
   2  12  -6 222.899 112.758   1
   2  12  -5 4821.61 398.325   2
   2  12  -5 4828.30 407.143   1
   2  12  -4 1021.41 191.687   1
   2  12  -3 4986.74 405.563   1
  -2  12   3 5134.43 245.098   1
   2 -12  -2 68.6486 50.7179   1
   2  12  -2 23.9687 70.8691   1
   2  12  -1 10295.0 573.881   1
  -2  12   1 11018.6 474.696   1
  -2  12   0 499.414 123.498   1
   2  12   0 377.380 128.672   1
   2  12   1 220.244 105.146   1
  -2  12  -1 899.713 168.926   1
   2  12   2 7443.59 536.849   1
  -2  12  -2 8324.27 513.875   1
   2  12   3 332.153 153.312   1
  -2  12  -3 380.747 142.985   1
  -2  12  -4 426.812 154.532   1
   2  12   4 326.805 140.563   1
   2  12   5 1399.27 260.334   1
  -2  12  -5 1883.75 289.581   1
  -2  12  -6 70.9674 113.276   1
   2  12   6 54.7625 112.870   1
   2  12   7 2398.88 380.301   1
  -2  12  -7 2078.38 318.398   1
   2  12   8 424.969 218.280   1
  -2  12  -8 642.394 214.654   1
   2  12   9 3547.52 480.228   1
  -2  12  -9 5111.91 561.206   1
  -2  12 -10 1194.56 668.726   1
   2  12  10 252.800 206.634   1
   2  12  11 222.017 232.063   1
   2  13 -12-136.368 175.831   2
   2  13 -12 81.0923 139.326   1
   2  13 -11 30.4922 142.262   1
   2  13 -11 43.7614 117.364   2
   2  13 -10 199.636 152.493   2
   2  13 -10 492.428 185.267   1
   2  13  -9 311.461 148.221   2
   2  13  -9 277.447 146.153   1
   2  13  -8 685.844 223.699   2
   2  13  -8 294.910 154.367   1
   2  13  -7 315.082 121.601   2
   2  13  -7 444.339 157.628   1
   2  13  -6 1790.11 265.075   1
   2  13  -6 1867.91 269.869   2
   2  13  -5 6120.37 475.003   1
   2  13  -5 6645.54 487.459   2
   2  13  -4 122.668 97.4623   1
   2  13  -3 7622.10 528.268   1
  -2  13   3 7246.70 319.685   1
  -2  13   2 950.415 145.509   1
   2  13  -2 697.515 166.545   1
  -2  13   1-6.84797 64.2446   1
   2  13  -1-26.6336 66.3308   1
  -2  13   0 668.611 145.897   1
   2  13   0 599.850 160.966   1
   2  13   1 2280.26 291.609   1
  -2  13  -1 2665.61 281.505   1
   2  13   2 218.667 103.906   1
  -2  13  -2 105.468 77.3825   1
   2  13   3 1812.12 285.009   1
  -2  13  -3 1467.43 244.306   1
   2  13   4 1116.82 222.659   1
  -2  13  -4 1297.88 240.448   1
   2  13   5 2472.93 348.150   1
  -2  13  -5 3376.58 390.082   1
  -2  13  -6 704.487 184.748   1
   2  13   6 667.275 210.896   1
  -2  13  -7 1238.16 254.523   1
   2  13   7 565.985 205.468   1
  -2  13  -8 340.893 190.064   1
   2  13   8-9.16037 146.668   1
   2  13   9 199.596 150.159   1
  -2  13  -9 60.2534 142.199   1
   2  13  10-32.7194 156.037   1
   2  14 -12 245.458 213.792   2
   2  14 -11 555.232 199.024   2
   2  14 -11 880.416 268.302   1
   2  14 -10 614.376 195.784   2
   2  14 -10 496.707 189.650   1
   2  14  -9 9.24904 113.375   2
   2  14  -9 62.1568 129.541   1
   2  14  -8 1882.66 340.311   2
   2  14  -8 1704.09 292.406   1
   2  14  -7 1725.42 270.283   2
   2  14  -7 1893.59 297.451   1
   2  14  -6 582.185 176.777   2
   2  14  -6 697.975 185.006   1
   2  14  -5 1142.64 222.823   1
   2  14  -5 1693.08 260.899   2
   2  14  -4 198.442 114.919   1
   2  14  -3 150.457 111.729   1
  -2  14   3 277.358 101.109   1
   2  14  -2 901.601 195.664   1
  -2  14   2 1051.90 162.068   1
   2  14  -1 12778.2 686.298   1
  -2  14   1 12670.7 545.684   1
  -2  14   0 4809.45 370.137   1
   2  14   0 4591.61 413.472   1
   2  14   1 708.085 174.778   1
  -2  14  -1 1248.23 203.060   1
   2  14   2 2739.33 338.476   1
  -2  14  -2 3860.69 359.524   1
   2  14   3 5662.16 487.165   1
  -2  14  -3 6366.32 495.229   1
   2  14   4 95.8962 133.726   1
  -2  14  -4 94.7427 138.086   1
   2  14   5 717.113 208.904   1
  -2  14  -5 725.840 214.612   1
  -2  14  -6 752.250 228.410   1
   2  14   6 632.049 203.983   1
  -2  14  -7 883.137 231.153   1
   2  14   7 653.881 247.058   1
  -2  14  -8 86.3949 145.103   1
   2  14   8-4.93423 139.014   1
  -2  14  -9 817.527 256.853   1
   2  14   9 860.096 290.479   1
   2  14  10 500.404 233.252   1
   2  15 -11-28.2722 141.576   1
   2  15 -11 308.214 187.247   2
   2  15 -10 302.947 165.084   2
   2  15 -10 150.288 131.124   1
   2  15  -9 445.508 167.950   2
   2  15  -9 362.965 189.549   1
   2  15  -8-74.3941 148.342   2
   2  15  -8 21.2922 93.0799   1
   2  15  -7 298.009 128.467   2
   2  15  -7 579.853 179.722   1
   2  15  -6 139.818 118.315   2
   2  15  -6 175.770 131.477   1
   2  15  -5 1481.15 268.988   1
   2  15  -5 1080.05 210.870   2
   2  15  -4 78.4187 94.6827   1
   2  15  -3 8389.64 591.105   1
   2  15  -2 310.033 115.893   1
  -2  15   2 371.259 118.682   1
   2  15  -1 2245.99 293.983   1
  -2  15   1 1872.05 224.920   1
   2  15   0 1370.55 244.248   1
  -2  15   0 1806.83 241.991   1
  -2  15  -1 2366.24 284.243   1
   2  15   1 1731.72 272.967   1
  -2  15  -2 253.780 138.218   1
   2  15   2-0.21357 84.2981   1
  -2  15  -3 34.7100 83.8385   1
   2  15   3 36.8369 98.7620   1
   2  15   4 355.924 176.608   1
   2  15   5 2219.11 342.233   1
  -2  15  -5 3577.49 430.050   1
  -2  15  -6 88.2725 140.646   1
   2  15   6 88.2243 131.016   1
   2  15   7 1645.11 330.264   1
  -2  15  -7 2203.73 359.902   1
  -2  15  -8 74.4246 119.551   1
   2  15   8 61.8383 150.072   1
  -2  15  -9 420.499 227.438   1
   2  15   9 208.799 203.032   1
   2  15  10 116.497 222.679   1
   2  16 -10-30.5407 115.472   2
   2  16 -10 124.664 145.972   1
   2  16  -9 467.594 183.390   2
   2  16  -9 665.946 233.250   1
   2  16  -8 2169.68 345.150   1
   2  16  -8 1728.70 329.260   2
   2  16  -7 333.128 156.876   2
   2  16  -7 689.751 212.237   1
   2  16  -6 538.270 179.087   2
   2  16  -6 368.839 156.012   1
   2  16  -5 1805.72 293.058   1
   2  16  -5 1567.97 259.535   2
   2  16  -4 2505.65 326.800   1
   2  16  -3 765.212 209.314   1
   2  16  -2 23.8551 77.5055   1
  -2  16   2 153.354 97.8758   1
  -2  16   1 1131.23 183.028   1
   2  16  -1 1614.23 267.146   1
  -2  16   0 415.737 129.348   1
   2  16   0 709.757 192.626   1
  -2  16  -1 200.182 131.270   1
   2  16   1 107.356 109.684   1
   2  16   2 666.010 190.386   1
  -2  16  -2 1145.86 227.597   1
   2  16   3 4009.80 440.810   1
  -2  16  -3 5708.51 492.807   1
   2  16   4 128.656 116.482   1
  -2  16  -4 507.928 193.233   1
   2  16   5 832.117 227.308   1
  -2  16  -5 1500.04 286.272   1
   2  16   6 2250.92 390.288   1
  -2  16  -6 2839.21 410.864   1
   2  16   7 1500.45 304.147   1
  -2  16  -7 2713.66 416.243   1
  -2  16  -8 305.498 176.194   1
   2  16   8 368.480 201.343   1
   2  16   9 162.137 163.668   1
   2  17  -9 233.182 153.729   2
   2  17  -9 298.000 199.533   1
   2  17  -8 200.749 140.262   1
   2  17  -8 1659.49 428.317   2
   2  17  -7 889.724 232.539   1
   2  17  -7 1373.41 252.112   2
   2  17  -6 71.1206 115.343   2
   2  17  -6 281.933 151.035   1
   2  17  -5 925.895 213.152   2
   2  17  -5 760.489 211.889   1
   2  17  -4 94.2723 107.158   1
   2  17  -3 540.406 173.761   1
   2  17  -2 298.424 151.010   1
   2  17  -1 78.1918 100.050   1
  -2  17   1 211.033 110.609   1
  -2  17   0-2.17454 102.941   1
   2  17   0 203.057 142.376   1
  -2  17  -1 531.330 165.540   1
   2  17   1 228.355 142.563   1
   2  17   2 987.728 231.799   1
  -2  17  -2 1593.41 275.102   1
  -2  17  -3 382.491 165.871   1
   2  17   3 106.264 107.431   1
  -2  17  -4 114.407 106.828   1
   2  17   4 145.879 126.736   1
  -2  17  -5 1725.80 326.986   1
   2  17   5 1014.13 257.103   1
   2  17   6 376.761 184.921   1
  -2  17  -6 1096.38 290.627   1
  -2  17  -7 1077.58 280.003   1
   2  17   7 1178.27 315.102   1
  -2  17  -8 176.829 182.280   1
   2  17   8 278.025 213.371   1
   2  17   9 208.237 222.806   1
   2  18  -8 668.923 282.278   2
   2  18  -8 700.774 230.187   1
   2  18  -7 671.561 194.659   2
   2  18  -7 473.706 204.808   1
   2  18  -6 509.450 187.855   2
   2  18  -6 71.0451 116.097   1
   2  18  -5 390.528 167.411   2
   2  18  -5 518.266 197.001   1
   2  18  -4 1692.47 317.060   1
   2  18  -3 102.083 114.082   1
   2  18  -2 830.754 246.113   1
   2  18  -1 2115.99 349.246   1
   2  18   0 2142.35 336.065   1
  -2  18   0 2507.42 310.596   1
  -2  18  -1 1612.78 266.670   1
   2  18   1 1188.49 263.248   1
  -2  18  -2 2923.84 354.142   1
   2  18   2 1635.41 292.135   1
   2  18   3 1069.98 260.900   1
  -2  18  -3 1300.86 281.596   1
  -2  18  -4 105.494 135.967   1
   2  18   4 151.019 165.194   1
   2  18   5 352.070 176.136   1
   2  18   6 205.720 170.812   1
  -2  18  -6 1017.31 295.195   1
  -2  18  -7 233.891 195.506   1
   2  18   7 139.487 159.295   1
   2  18   8 240.014 229.648   1
   2  19  -8 208.115 159.190   1
   2  19  -7 162.029 137.229   2
   2  19  -7 156.330 156.665   1
   2  19  -6 674.368 195.312   2
   2  19  -6 400.555 192.012   1
   2  19  -5 336.990 160.487   2
   2  19  -5 320.558 177.361   1
   2  19  -4 132.391 100.489   1
   2  19  -3 321.787 154.923   1
   2  19  -2 471.610 182.687   1
   2  19  -1-15.9978 94.6163   1
  -2  19   0 953.581 205.847   1
   2  19   0 2144.70 385.144   1
  -2  19  -1 1426.16 268.939   1
   2  19   1 1041.70 252.143   1
  -2  19  -2 70.6009 134.135   1
   2  19   2 114.287 135.516   1
  -2  19  -3 277.059 170.840   1
   2  19   3 350.254 167.567   1
  -2  19  -4 2961.28 411.827   1
   2  19   4 1988.37 335.539   1
   2  19   5 144.867 158.535   1
   2  19   6 327.347 218.538   1
  -2  19  -6 341.450 209.946   1
  -2  19  -7 157.451 172.514   1
   2  19   7 513.470 238.977   1
   2  20  -7 125.471 158.581   1
   2  20  -6 151.170 139.837   2
   2  20  -6 18.3224 114.425   1
   2  20  -5 408.338 173.220   2
   2  20  -5 392.618 191.917   1
   2  20  -4 1167.43 294.639   1
   2  20  -3 402.080 168.502   1
   2  20  -2 183.645 150.792   1
   2  20  -1 753.996 261.447   1
   2  20   0 509.553 208.035   1
   2  20   1 42.5245 116.332   1
  -2  20  -1 34.1143 119.272   1
   2  20   2 2044.61 358.935   1
  -2  20  -2 2369.31 340.367   1
  -2  20  -3 1233.59 274.784   1
   2  20   3 1133.57 270.762   1
  -2  20  -4 131.709 152.409   1
   2  20   4 190.629 179.014   1
  -2  20  -5 402.064 203.982   1
   2  20   5-45.3006 133.432   1
   2  20   6 384.200 206.587   1
  -2  20  -6 1549.57 343.684   1
   2  20   7-18.4845 180.748   1
   2  21  -5 215.419 181.463   1
   2  21  -4 191.608 176.503   1
   2  21  -3 287.812 175.404   1
   2  21  -2 327.010 187.663   1
   2  21  -1 249.296 170.053   1
   2  21   0 627.667 229.874   1
   2  21   1 263.316 177.322   1
  -2  21  -2 1026.73 263.884   1
   2  21   2 1010.43 259.198   1
  -2  21  -3 1136.87 271.709   1
   2  21   3 702.579 244.336   1
  -2  21  -4 1071.91 276.035   1
   2  21   4 858.227 256.255   1
   2  21   5 146.045 155.324   1
  -2  21  -5 144.111 177.033   1
   2  21   6 201.846 226.347   1
  -2  21  -6 267.804 196.645   1
   2  22  -4 245.823 185.679   1
   2  22  -3 93.0152 157.266   1
   2  22  -2 588.409 238.042   1
   2  22  -1 332.381 210.949   1
   2  22   0 248.106 204.353   1
   2  22   1-134.153 133.156   1
   2  22   2 211.431 186.495   1
  -2  22  -3 429.110 204.973   1
   2  22   3 295.947 171.464   1
  -2  22  -4 800.195 280.805   1
   2  22   4 439.770 224.175   1
  -2  22  -5 324.537 239.309   1
   2  23  -2 652.693 251.005   1
   2  23  -1 243.344 194.171   1
   2  23   0 346.446 204.788   1
   2  23   1 826.753 270.495   1
   2  23   2 795.391 279.821   1
  -2  23  -4 1096.67 305.547   1
   3   0 -12 822.447 272.092   2
   3   0 -11 179.495 161.164   2
   3   0 -10 1926.21 313.461   2
   3   0  -9 113.054 119.635   2
   3   0  -8 1153.45 228.583   2
   3   0  -7 96.1952 100.777   2
   3   0  -7 87.1266 57.1032   1
   3   0  -6 35194.6 724.354   1
   3   0  -6 41090.7 1171.82   2
   3   0  -5 149.227 95.7522   2
   3   0  -5 179.631 77.4399   1
   3   0  -4 11664.0 425.930   1
   3   0  -4 12828.0 631.237   2
   3   0  -3 22.3335 51.3991   1
   3   0  -3 91.0134 80.2965   2
   3   0  -2 275.927 100.644   1
   3   0  -1 239.312 98.1484   1
   3   0   0 12353.4 577.953   1
   3   0   1 340.527 141.549   1
   3   0   2 817.284 192.649   1
   3   0   3 528.484 162.305   1
   3   0   4 21074.0 953.316   1
   3   0   5 292.168 165.962   1
   3   0   6 3708.69 455.825   1
   3   0   7 357.486 198.181   1
   3   0   8 2578.13 445.758   1
   3   0   9 51.4231 161.853   1
   3   0  10 1980.15 459.787   1
   3   1 -12 356.614 188.097   2
   3  -1 -12 399.958 200.443   2
   3   1 -11 134.211 151.016   2
   3  -1 -11 77.9421 141.294   2
   3   1 -10 450.926 193.839   2
   3  -1 -10 619.437 218.454   2
   3   1  -9 549.169 174.613   2
   3  -1  -9 385.391 152.242   2
   3   1  -8 1749.96 280.054   2
   3  -1  -8 2069.37 299.109   2
   3   1  -7 784.366 223.318   2
   3  -1  -7 728.434 181.159   2
   3   1  -7 727.031 121.305   1
   3   1  -6 1319.33 196.948   1
   3  -1  -6 4121.29 262.581   1
   3   1  -6 1293.69 229.902   2
   3  -1  -6 3554.36 412.235   2
   3  -1  -5 649.160 147.381   2
   3   1  -5 943.889 139.734   1
   3  -1  -5 670.331 96.0463   1
   3   1  -5 991.550 190.841   2
   3  -1  -4 5893.29 291.719   1
   3   1  -4 5608.11 320.858   1
   3   1  -4 6128.51 454.215   2
   3  -1  -4 5788.19 438.737   2
   3  -1  -3 952.328 125.318   1
   3   1  -3 903.230 140.354   1
   3  -1  -3 841.843 163.633   2
   3  -1  -2 1581.87 186.150   1
   3   1  -2 1414.72 182.416   1
   3  -1  -1 845.261 144.176   1
   3   1  -1 643.452 130.566   1
   3  -1   0 810.374 189.551   1
   3   1   0 958.946 205.366   1
   3  -1   1 4114.62 372.371   1
   3   1   1 3683.17 346.719   1
   3  -1   2 1937.09 261.816   1
   3   1   2 1919.60 269.850   1
   3  -1   3 1510.15 251.159   1
   3   1   3 1443.21 247.663   1
   3  -1   4 3845.43 465.366   1
   3   1   4 5586.12 520.186   1
   3  -1   5 1040.77 242.796   1
   3   1   5 1162.53 251.828   1
   3  -1   6 1630.64 325.388   1
   3   1   6 2372.84 393.317   1
   3  -1   7 91.3337 148.401   1
   3   1   7 28.8662 109.381   1
   3  -1   8 993.513 355.281   1
   3   1   8 324.202 239.112   1
   3  -1   9-10.5805 144.757   1
   3   1   9 1062.05 404.517   1
   3  -1  10 1665.07 436.842   1
   3   1  10 694.408 340.692   1
   3   2 -12 229.207 179.355   2
   3  -2 -12 59.7156 132.971   2
   3   2 -11 124.224 138.717   2
   3  -2 -11-20.6731 103.820   2
   3   2 -10 1049.03 234.462   2
   3  -2 -10 1626.67 313.091   2
   3   2  -9 240.682 130.828   2
   3  -2  -9 260.754 138.018   2
   3   2  -8 220.994 123.457   2
   3  -2  -8 205.653 127.673   2
   3   2  -8 88.1811 79.6261   1
   3   2  -7 197.953 117.625   2
   3  -2  -7 257.798 119.682   2
   3   2  -7 117.525 71.3093   1
   3   2  -6 8427.78 413.558   1
   3  -2  -6 6830.68 250.674   1
   3   2  -6 8056.98 541.667   2
   3   2  -5 2019.46 216.835   1
   3  -2  -5 1539.63 127.073   1
   3   2  -5 2022.29 276.462   2
   3  -2  -5 2135.07 259.645   2
   3  -2  -4 18384.3 468.630   1
   3   2  -4 19970.3 622.416   1
   3   2  -4 20087.1 801.849   2
   3  -2  -4 21169.1 782.276   2
   3  -2  -3 546.727 136.931   2
   3  -2  -3 510.954 93.4602   1
   3  -2  -3 435.440 100.664   1
   3   2  -3 480.287 112.917   1
   3  -2  -2 9344.93 421.454   1
   3   2  -2 8508.27 447.856   1
   3  -2  -1 414.573 104.423   1
   3   2  -1 423.825 117.780   1
   3  -2   0 11818.2 564.106   1
   3   2   0 10512.5 542.814   1
   3  -2   1 8621.98 508.444   1
   3   2   1 8322.23 518.132   1
   3  -2   2 1255.49 224.935   1
   3   2   2 1388.53 246.644   1
   3  -2   3 2272.91 323.444   1
   3   2   3 1710.75 273.582   1
   3  -2   4 11867.2 723.815   1
   3   2   4 13084.4 765.767   1
   3  -2   5 122.215 147.538   1
   3   2   5 376.963 177.972   1
   3  -2   6 2522.38 386.329   1
   3   2   6 1871.27 335.525   1
   3  -2   7 243.847 173.942   1
   3   2   7 175.261 161.559   1
   3  -2   8 4645.91 573.045   1
   3   2   8 4719.77 587.201   1
   3  -2   9 218.679 196.211   1
   3   2   9 279.244 209.479   1
   3  -2  10 1917.47 434.740   1
   3   2  10 2435.43 509.381   1
   3   3 -12 428.863 216.061   2
   3  -3 -12 225.096 186.250   2
   3   3 -11 207.441 154.355   2
   3  -3 -11 142.900 158.909   2
   3   3 -10 250.588 146.286   2
   3  -3 -10 75.0145 129.903   2
   3   3  -9 886.903 208.830   2
   3  -3  -9 770.043 213.865   2
   3   3  -8 381.531 167.057   2
   3  -3  -8 465.216 164.734   2
   3   3  -8 294.554 113.748   1
   3   3  -7 231.262 107.736   2
   3  -3  -7 354.205 130.739   2
   3   3  -7 271.236 85.3913   1
   3   3  -6 224.080 124.140   2
   3   3  -6 298.135 95.7361   1
   3   3  -5 106.139 89.8414   2
   3   3  -5 286.000 105.615   1
   3  -3  -5 190.899 47.6803   1
   3   3  -4 518.033 147.039   2
   3  -3  -4 1011.87 121.820   1
   3   3  -4 515.149 130.803   1
   3  -3  -4 744.555 161.197   2
   3  -3  -4 579.473 100.046   1
   3  -3  -3-21.1533 56.8555   2
   3  -3  -3 208.929 78.2392   1
   3  -3  -3 185.232 71.8910   1
   3   3  -3 85.8592 66.6824   1
   3  -3  -2 4152.02 270.190   1
   3   3  -2 4129.20 334.379   1
   3  -3  -2 3393.42 303.296   2
   3  -3  -2 3187.07 247.244   1
   3  -3  -1 10.7656 51.4214   1
   3   3  -1 72.7797 72.0625   1
   3  -3   0 1537.74 221.120   1
   3   3   0 1357.38 225.748   1
   3  -3   1 258.208 103.510   1
   3   3   1 600.133 183.599   1
   3  -3   2 4225.25 389.193   1
   3   3   2 3752.28 369.877   1
   3  -3   3 7890.52 554.981   1
   3   3   3 7380.95 553.972   1
   3  -3   4 3079.23 387.144   1
   3   3   4 3830.76 441.239   1
   3  -3   5 976.051 241.360   1
   3   3   5 692.291 209.454   1
   3  -3   6 3330.36 427.732   1
   3   3   6 3584.62 454.026   1
   3  -3   7 691.295 233.803   1
   3   3   7 385.422 201.947   1
   3  -3   8 1689.81 367.778   1
   3   3   8 2325.04 446.475   1
   3  -3   9 389.350 184.138   1
   3   3   9 206.050 199.398   1
   3  -3  10 361.361 233.701   1
   3   3  10 288.109 262.159   1
   3   4 -12 209.390 175.449   2
   3  -4 -12 495.444 214.689   2
   3   4 -11 49.1994 109.910   2
   3  -4 -11 605.786 221.355   2
   3   4 -10 3695.40 431.296   2
   3  -4 -10 2971.92 392.658   2
   3   4  -9 225.000 144.785   2
   3  -4  -9 392.736 180.207   2
   3   4  -9 214.950 108.302   1
   3   4  -8 1076.03 318.202   2
   3  -4  -8 954.385 214.363   2
   3   4  -8 932.991 167.905   1
   3   4  -7 788.107 179.445   2
   3  -4  -7 933.271 196.843   2
   3   4  -7 815.707 146.479   1
   3   4  -6 1737.84 207.380   1
   3   4  -6 2242.48 304.981   2
   3  -4  -6 1729.23 241.111   2
   3   4  -5 233.989 124.127   2
   3  -4  -5 425.355 151.730   2
   3   4  -5 429.948 128.390   1
   3  -4  -4 611.110 68.9693   1
   3   4  -4 1053.10 168.171   1
   3  -4  -4 572.572 79.1061   1
   3  -4  -4 931.686 169.841   2
   3  -4  -3 770.839 102.982   1
   3   4  -3 907.949 156.895   1
   3  -4  -3 487.312 89.7982   1
   3  -4  -3 843.401 153.824   2
   3  -4  -2 2122.16 186.804   1
   3   4  -2 2190.83 238.252   1
   3  -4  -2 1910.38 220.561   2
   3  -4  -2 1647.82 171.329   1
   3  -4  -1 719.074 137.431   1
   3   4  -1 487.007 133.069   1
   3  -4   0 17965.4 675.967   1
   3   4   0 19301.4 787.526   1
   3  -4   1 573.376 151.103   1
   3   4   1 256.024 117.972   1
   3  -4   2 458.440 137.943   1
   3   4   2 770.329 182.980   1
   3  -4   3 7757.31 536.719   1
   3   4   3 7502.80 559.513   1
   3  -4   4 13288.0 760.981   1
   3   4   4 13065.9 777.642   1
   3  -4   5 961.537 224.937   1
   3   4   5 476.043 147.497   1
   3  -4   6 431.312 244.330   1
   3   4   6 229.830 158.407   1
   3  -4   7 122.442 138.569   1
   3   4   7 370.437 180.097   1
   3  -4   8 2063.33 410.002   1
   3   4   8 3098.74 473.074   1
   3  -4   9 555.034 263.162   1
   3   4   9 112.210 197.304   1
   3  -4  10 1422.17 381.300   1
   3   4  10 1248.90 380.122   1
   3   5 -12 549.957 217.378   2
   3  -5 -12 514.711 224.410   2
   3   5 -11 265.555 151.160   2
   3  -5 -11 771.917 244.244   2
   3   5 -10 55.1866 112.231   2
   3  -5 -10 370.186 185.956   2
   3   5  -9 596.180 191.502   2
   3  -5  -9 606.754 185.692   2
   3   5  -9 431.447 137.988   1
   3   5  -8 989.307 177.633   1
   3   5  -8 1588.15 311.528   2
   3  -5  -8 1229.19 245.110   2
   3   5  -7 319.682 124.621   2
   3  -5  -7 132.843 112.533   2
   3   5  -7 471.039 130.447   1
   3   5  -6 437.740 155.606   2
   3  -5  -6 453.261 154.963   2
   3   5  -6 541.838 129.602   1
   3   5  -5 2674.35 279.095   1
   3   5  -5 2419.91 315.323   2
   3  -5  -5 2883.99 301.636   2
   3  -5  -4 669.439 55.4792   1
   3  -5  -4 540.229 49.3573   1
   3  -5  -3 1188.51 119.105   1
   3  -5  -3 1801.52 139.227   1
   3   5  -3 1402.68 195.560   1
   3  -5  -3 1760.42 211.399   2
   3  -5  -2 423.987 115.411   2
   3  -5  -2 311.797 81.3260   1
   3  -5  -2 617.976 106.619   1
   3   5  -2 513.636 126.465   1
   3  -5  -1 8538.07 423.396   1
   3   5  -1 8729.52 506.704   1
   3  -5  -1 8892.08 448.586   2
   3  -5   0 586.324 134.763   1
   3   5   0 666.011 147.824   1
   3  -5   1 498.657 143.400   1
   3   5   1 658.705 169.718   1
   3  -5   2 2205.16 281.901   1
   3   5   2 1657.34 253.047   1
   3  -5   3 51.8006 102.616   1
   3   5   3-122.987 96.8610   1
   3  -5   4 244.937 153.420   1
   3   5   4 329.176 182.821   1
   3   5   5 681.447 193.224   1
   3   5   6 5465.71 554.685   1
   3   5   7 306.581 172.229   1
   3  -5   8 191.542 143.031   1
   3   5   8 486.942 235.612   1
   3  -5   9 1804.02 376.772   1
   3   5   9 2063.47 441.853   1
   3  -5  10 174.108 230.721   1
   3   5  10 411.705 303.166   1
   3   6 -12 151.421 153.220   2
   3   6 -11 30.5623 113.788   2
   3  -6 -11 78.9351 132.848   2
   3  -6 -10 1311.92 274.224   2
   3   6 -10 1792.86 311.968   2
   3   6  -9 465.019 183.657   2
   3  -6  -9 712.539 210.785   2
   3   6  -9 585.301 169.839   1
   3   6  -8 170.464 143.732   2
   3  -6  -8 367.919 182.891   2
   3   6  -8 157.949 102.450   1
   3  -6  -7 841.499 200.189   2
   3   6  -7 1072.82 183.187   1
   3   6  -7 1063.05 222.978   2
   3   6  -6 1879.94 232.187   1
   3   6  -6 1727.04 278.927   2
   3  -6  -6 1493.81 223.681   2
   3   6  -5 304.293 119.259   2
   3   6  -5 579.769 144.863   1
   3  -6  -5 672.178 157.363   2
   3  -6  -4 752.943 158.930   2
   3   6  -4 745.010 154.877   1
   3  -6  -3 2868.83 161.994   1
   3   6  -3 3386.03 305.199   1
   3  -6  -3 3293.22 292.789   2
   3  -6  -2 5392.86 290.654   1
   3   6  -2 5552.94 405.256   1
   3  -6  -2 5119.75 341.893   2
   3  -6  -1 1394.56 172.138   1
   3   6  -1 1237.11 208.013   1
   3  -6  -1 1214.79 165.599   2
   3  -6   0 4006.81 324.220   1
   3   6   0 3878.95 363.503   1
   3  -6   1 3625.48 327.038   1
   3   6   1 3522.62 364.709   1
   3  -6   2 170.679 102.408   1
   3   6   2 25.9295 78.0139   1
   3   6   3 2291.41 314.228   1
   3   6   4 1502.35 267.296   1
   3   6   5 1280.73 268.055   1
   3   6   6 1116.03 271.065   1
   3   6   7 310.902 175.301   1
   3   6   8 1036.74 292.127   1
   3   6   9 51.9433 174.975   1
   3  -6  10 568.690 293.274   1
   3   6  10 258.247 248.302   1
   3   7 -11 84.9257 117.135   2
   3   7 -10 165.663 128.636   2
   3  -7 -10 45.4921 119.466   2
   3   7 -10 95.3110 116.958   1
   3   7  -9 832.028 224.497   2
   3  -7  -9 339.323 136.490   2
   3   7  -9 613.861 171.378   1
   3   7  -8 2132.91 284.328   1
   3   7  -8 2196.67 327.087   2
   3  -7  -8 2063.43 304.841   2
   3   7  -7 530.628 165.809   2
   3  -7  -7 643.575 186.671   2
   3   7  -7 513.851 147.021   1
   3   7  -6 109.585 101.066   2
   3  -7  -6-1.75930 69.1704   2
   3   7  -6 222.566 104.287   1
   3   7  -5 2305.82 310.053   2
   3  -7  -5 2079.29 247.357   2
   3   7  -4 2386.40 265.441   1
   3  -7  -4 2737.57 274.104   2
   3  -7  -3 50.9591 39.0778   1
   3   7  -3 48.2175 61.3476   1
   3  -7  -2 2145.57 191.047   1
   3   7  -2 2477.06 275.949   1
   3  -7  -2 1798.66 166.157   1
   3  -7  -2 1917.34 203.326   2
   3  -7  -1 6819.52 378.105   1
   3   7  -1 6788.56 467.354   1
   3  -7  -1 6145.72 345.956   2
   3  -7   0 1049.90 172.545   1
   3   7   0 857.708 188.741   1
   3  -7   0 1002.11 145.369   2
   3  -7   1 2061.46 253.457   1
   3   7   1 1461.42 235.149   1
   3   7   2 1863.50 277.773   1
   3   7   3 3922.82 407.820   1
   3   7   4 78.1349 117.615   1
  -3   7  -4 392.838 158.163   1
  -3   7  -5 1404.94 294.821   1
   3   7   5 1077.20 244.337   1
   3   7   6-56.0633 119.913   1
  -3   7  -6-62.7624 127.850   1
  -3   7  -7 1320.19 299.844   1
   3   7   7 1063.40 294.467   1
   3   7   8 686.239 237.692   1
  -3   7  -8 1577.37 355.002   1
   3   7   9 616.471 279.248   1
   3   8 -11 93.3692 142.649   2
   3   8 -10 870.834 228.328   2
   3   8 -10 582.297 183.081   1
   3  -8  -9 604.028 192.512   2
   3   8  -9 525.452 165.092   1
   3   8  -8 1.60167 94.4313   2
   3  -8  -8 329.752 155.325   2
   3   8  -8 104.789 103.476   1
   3   8  -7 1730.62 256.010   1
   3   8  -7 1518.91 280.087   2
   3  -8  -7 1565.16 259.186   2
   3   8  -6 150.146 101.703   2
   3  -8  -6 261.259 130.555   2
   3   8  -6 168.422 98.2065   1
   3   8  -5 40.9144 82.7081   2
   3   8  -5 21.5750 87.8811   1
   3  -8  -5 109.925 94.5996   2
   3   8  -4 322.417 118.778   1
   3  -8  -4 151.044 76.5467   2
   3  -8  -3 1943.02 115.550   1
   3   8  -3 2015.52 252.754   1
   3  -8  -2 2618.98 209.063   1
   3   8  -2 3214.67 325.423   1
   3  -8  -2 3394.43 279.843   2
   3  -8  -1 366.451 90.5109   2
   3  -8  -1 566.392 117.016   1
   3   8  -1 551.946 144.404   1
   3  -8   0 3783.49 325.729   1
   3   8   0 3985.58 384.051   1
   3  -8   0 3728.67 251.233   2
   3   8   1 2231.25 302.071   1
  -3   8  -2 1719.07 262.450   1
   3   8   2 1314.05 242.054   1
  -3   8  -3 6775.53 530.410   1
   3   8   3 5453.07 510.673   1
  -3   8  -4 77.5757 124.188   1
   3   8   4 109.166 129.560   1
  -3   8  -5 1230.25 269.018   1
   3   8   5 1223.08 279.607   1
   3   8   6 5.79983 104.488   1
  -3   8  -6 228.659 131.674   1
   3   8   7 1617.29 337.905   1
  -3   8  -7 1126.90 282.549   1
  -3   8  -8 313.231 185.139   1
   3   8   8 651.900 253.442   1
  -3   8  -9 202.007 200.699   1
   3   8   9 77.7380 172.820   1
   3   9 -11 1127.23 273.120   2
   3   9 -10-16.1341 104.962   2
   3   9 -10 270.479 151.666   1
   3   9  -9 1354.70 328.663   2
   3   9  -9 689.397 184.971   1
   3   9  -8 1068.63 237.299   2
   3  -9  -8 672.655 191.778   2
   3   9  -8 869.038 198.811   1
   3   9  -7-138.049 125.491   2
   3  -9  -7 17.3525 88.1682   2
   3   9  -7 93.8858 95.0214   1
   3   9  -6 176.255 125.901   2
   3  -9  -6 328.607 126.919   2
   3   9  -6 390.821 128.153   1
   3  -9  -5 959.048 200.509   2
   3   9  -5 1217.02 220.513   1
   3   9  -5 1047.30 224.950   2
   3   9  -4 1430.18 232.270   1
   3  -9  -4 1343.69 203.368   2
   3  -9  -3 125.372 87.9217   2
   3   9  -3 82.9048 98.7178   1
   3  -9  -2 1267.03 148.386   1
   3   9  -2 1643.36 239.420   1
   3  -9  -2 1455.46 171.444   2
   3  -9  -1 5970.31 367.318   1
   3   9  -1 6359.88 474.552   1
   3  -9  -1 5951.79 320.011   2
   3  -9   0 91.4503 58.4563   2
   3   9   0 82.1093 79.1542   1
  -3   9  -1 328.149 125.715   1
   3  -9   1 187.897 64.7468   2
   3   9   1 349.818 140.204   1
  -3   9  -2 4521.10 412.329   1
   3   9   2 3771.76 408.107   1
  -3   9  -3 8556.81 597.367   1
   3   9   3 6623.74 562.886   1
   3   9   4 162.148 135.935   1
  -3   9  -4 189.435 141.623   1
  -3   9  -5 1665.00 307.283   1
   3   9   5 799.109 218.287   1
  -3   9  -6 1864.41 320.454   1
   3   9   6 1635.45 334.371   1
   3   9   7 485.688 199.254   1
  -3   9  -7 561.836 222.886   1
   3   9   8 116.266 140.404   1
  -3   9  -8 160.954 169.988   1
  -3   9  -9 1955.87 426.427   1
   3   9   9 1601.62 382.364   1
   3  10 -11 478.628 209.638   2
   3  10 -10-52.3435 114.703   2
   3  10 -10 153.638 134.844   1
   3  10  -9 1331.20 373.312   2
   3  10  -9 246.015 134.779   1
   3  10  -8 255.357 133.474   2
   3  10  -8 380.322 157.640   1
   3  10  -7 1127.13 227.415   1
   3  10  -7 1204.41 253.913   2
   3 -10  -7 1343.80 245.714   2
   3 -10  -6 782.071 176.542   2
   3  10  -6 1227.00 218.507   1
   3  10  -6 1070.93 233.950   2
   3  10  -5 106.590 97.6111   1
   3 -10  -5 139.473 85.7891   2
   3  10  -4 768.525 178.624   1
   3 -10  -4 644.548 142.417   2
   3  10  -3 4651.34 414.495   1
   3 -10  -3 4352.93 344.711   2
   3 -10  -2 49.7604 59.6466   2
   3 -10  -2 202.593 90.9651   1
   3  10  -2 212.160 112.441   1
   3 -10  -1 1006.67 163.223   1
   3  10  -1 725.429 179.713   1
   3 -10  -1 707.188 107.202   2
   3  10   0 1265.75 224.939   1
   3 -10   0 1425.80 131.849   2
  -3  10  -1 2966.33 326.960   1
   3  10   1 2538.78 329.027   1
  -3  10  -2 123.786 98.0678   1
   3  10   2 56.5080 94.9777   1
  -3  10  -3 250.253 144.631   1
   3  10   3 94.5315 110.280   1
   3  10   4 146.026 136.782   1
  -3  10  -4-0.92553 90.0462   1
  -3  10  -5 918.399 240.479   1
   3  10   5 1078.67 244.429   1
  -3  10  -6 385.393 199.155   1
   3  10   6 199.690 148.556   1
  -3  10  -7 7109.30 664.019   1
   3  10   7 5465.71 604.179   1
   3  10   8-252.394 192.891   1
  -3  10  -8-6.39331 134.356   1
  -3  10  -9 1772.41 393.447   1
   3  10   9 1102.29 324.944   1
   3  11 -11 547.818 225.793   1
   3  11 -11 856.940 262.776   2
   3  11 -10-13.4098 121.537   2
   3  11 -10 166.731 149.557   1
   3  11  -9 1653.80 376.568   2
   3  11  -9 1108.18 237.238   1
   3  11  -8 63.7166 118.918   2
   3  11  -8 19.6657 98.5563   1
   3  11  -7 253.450 147.236   2
   3  11  -7 24.1856 85.8759   1
   3  11  -6 807.020 216.989   2
   3  11  -6 1029.45 211.454   1
   3  11  -5 1685.61 269.384   1
   3  11  -5 1467.44 275.963   2
   3 -11  -5 1606.01 225.273   2
   3  11  -4-112.831 88.2497   1
   3 -11  -4 3.41991 61.4204   2
   3  11  -3 1269.84 230.388   1
   3 -11  -3 1155.17 170.974   2
   3  11  -2 724.918 183.053   1
   3 -11  -2 786.581 125.176   2
   3  11  -1 4736.05 429.423   1
  -3  11   0 2205.80 265.122   1
   3  11   0 1918.79 286.477   1
  -3  11  -1 521.663 145.388   1
   3  11   1 369.952 161.146   1
  -3  11  -2 2267.80 307.343   1
   3  11   2 1672.85 287.524   1
   3  11   3 186.047 146.003   1
  -3  11  -3 511.811 173.195   1
   3  11   4-88.2144 110.078   1
  -3  11  -4 106.040 130.832   1
  -3  11  -5 2653.85 381.355   1
   3  11   5 1909.60 349.316   1
   3  11   6 268.707 183.836   1
  -3  11  -6 154.479 154.399   1
  -3  11  -7 1182.48 286.300   1
   3  11   7 472.817 206.650   1
  -3  11  -8 302.660 188.131   1
   3  11   8 96.5360 164.058   1
   3  12 -11-273.320 183.497   1
   3  12 -10 372.723 181.626   2
   3  12 -10 420.458 201.600   1
   3  12  -9 1543.95 356.539   2
   3  12  -9 876.614 242.004   1
   3  12  -8 218.660 149.148   2
   3  12  -8-173.237 145.046   1
   3  12  -7 1661.27 277.268   1
   3  12  -7 1970.53 322.333   2
   3  12  -6 370.503 168.926   2
   3  12  -6 190.512 114.761   1
   3  12  -5 2151.04 304.457   1
   3  12  -5 1744.38 299.933   2
   3  12  -4 12.9050 85.5366   1
   3  12  -3 4659.62 433.427   1
   3  12  -2 313.719 138.654   1
   3  12  -1 1127.32 230.713   1
  -3  12   0 4670.87 373.758   1
   3  12   0 4202.97 427.304   1
  -3  12  -1 282.081 136.666   1
   3  12   1 389.711 155.212   1
  -3  12  -2 132.626 109.735   1
   3  12   2 497.348 216.081   1
  -3  12  -3 2017.46 307.830   1
   3  12   3 1514.67 288.634   1
  -3  12  -4 94.0861 115.531   1
   3  12   4 180.627 157.184   1
  -3  12  -5 1929.51 327.355   1
   3  12   5 1253.03 288.782   1
   3  12   6 283.011 216.815   1
  -3  12  -6 16.9029 110.607   1
  -3  12  -7 4412.16 532.491   1
   3  12   7 3366.16 496.789   1
  -3  12  -8 111.025 172.058   1
   3  12   8 233.375 205.129   1
   3  13 -11 244.215 177.234   1
   3  13 -10 265.042 168.783   2
   3  13 -10 369.793 179.877   1
   3  13  -9 188.144 177.979   2
   3  13  -9 77.3679 133.946   1
   3  13  -8 479.802 180.131   2
   3  13  -8 455.939 180.202   1
   3  13  -7 1872.62 303.648   1
   3  13  -7 2541.13 361.026   2
   3  13  -6-26.7462 108.186   2
   3  13  -6 37.2311 104.025   1
   3  13  -5 2912.25 359.474   1
   3  13  -5 3201.45 408.350   2
   3  13  -4 233.295 140.391   1
   3  13  -3 363.505 157.273   1
   3  13  -2 442.056 177.183   1
   3  13  -1 1989.09 295.795   1
  -3  13   0 225.661 129.585   1
   3  13   0 45.0476 84.2517   1
  -3  13  -1 1081.77 204.754   1
   3  13   1 1274.43 262.971   1
  -3  13  -2 1177.25 243.742   1
   3  13   2 789.991 217.573   1
  -3  13  -3 1795.32 309.733   1
   3  13   3 1781.49 334.105   1
  -3  13  -4 1007.14 258.796   1
   3  13   4 355.015 189.423   1
  -3  13  -5 830.095 232.939   1
   3  13   5 430.263 201.493   1
  -3  13  -6 255.171 185.093   1
   3  13   6 194.907 187.542   1
   3  13   7 177.827 191.268   1
  -3  13  -7 179.831 163.430   1
   3  13   8-204.119 221.254   1
  -3  13  -8 103.665 167.869   1
   3  14 -10 701.630 252.448   2
   3  14 -10 213.826 186.453   1
   3  14  -9 739.597 268.503   2
   3  14  -9 419.044 199.978   1
   3  14  -8 529.389 187.061   2
   3  14  -8 861.752 229.216   1
   3  14  -7 705.494 212.627   2
   3  14  -7 751.109 217.967   1
   3  14  -6 375.758 180.396   2
   3  14  -6 106.939 119.639   1
   3  14  -5 30.0098 101.344   1
   3  14  -5-10.7977 101.148   2
   3  14  -4 191.533 145.789   1
   3  14  -3 6188.37 527.515   1
   3  14  -2 1533.03 284.953   1
   3  14  -1 572.918 192.285   1
  -3  14   0 2102.86 259.217   1
   3  14   0 1261.45 257.643   1
  -3  14  -1 3260.10 364.671   1
   3  14   1 2171.21 335.311   1
   3  14   2 19.0431 90.4695   1
  -3  14  -2 263.617 153.482   1
   3  14   3 811.423 254.217   1
  -3  14  -3 1003.72 239.290   1
  -3  14  -4 727.792 226.061   1
   3  14   4 455.096 202.342   1
  -3  14  -5 578.295 218.459   1
   3  14   5 404.719 194.140   1
  -3  14  -6 20.1030 129.769   1
   3  14   6 234.815 205.347   1
  -3  14  -7 1648.96 331.047   1
   3  14   7 651.476 277.488   1
   3  15  -9 341.997 244.179   2
   3  15  -9 55.4665 151.919   1
   3  15  -8 17.2648 114.860   2
   3  15  -8 418.566 189.820   1
   3  15  -7 384.516 185.551   2
   3  15  -7 414.344 172.887   1
   3  15  -6 420.788 195.213   2
   3  15  -6 299.100 156.468   1
   3  15  -5 3209.82 383.918   1
   3  15  -5 3553.12 436.645   2
   3  15  -4 210.004 159.917   1
   3  15  -3 958.999 231.587   1
   3  15  -2 987.116 233.453   1
   3  15  -1 1169.96 255.057   1
   3  15   0 114.807 122.580   1
   3  15   1 9.10015 93.5209   1
  -3  15  -1 229.137 146.719   1
   3  15   2-12.1296 122.420   1
  -3  15  -2 406.800 188.234   1
  -3  15  -3 2024.13 323.856   1
   3  15   3 1327.04 284.527   1
   3  15   4 284.021 167.075   1
  -3  15  -4 112.438 157.935   1
  -3  15  -5 2425.84 397.417   1
   3  15   5 1485.05 344.441   1
  -3  15  -6 371.468 221.010   1
   3  15   6 147.618 185.300   1
  -3  15  -7-4.74912 141.516   1
   3  15   7-258.115 210.336   1
   3  16  -9 308.733 227.779   2
   3  16  -9 328.838 193.404   1
   3  16  -8 290.242 172.864   2
   3  16  -8 266.296 181.665   1
   3  16  -7 611.844 226.232   2
   3  16  -7 464.678 198.608   1
   3  16  -6 901.103 253.144   2
   3  16  -6 1100.11 277.415   1
   3  16  -5 183.645 146.960   1
   3  16  -5 510.548 197.991   2
   3  16  -4 50.9901 133.104   1
   3  16  -3 693.438 222.139   1
   3  16  -2 410.366 172.577   1
   3  16  -1 301.479 173.254   1
   3  16   0 467.346 183.863   1
   3  16   1 2740.08 387.823   1
  -3  16  -2 356.765 174.914   1
   3  16   2 420.461 207.656   1
  -3  16  -3 962.023 252.413   1
   3  16   3 951.961 267.242   1
  -3  16  -4 1918.87 337.479   1
   3  16   4 1135.54 282.552   1
   3  16   5 1108.82 323.883   1
  -3  16  -5 1434.21 318.880   1
  -3  16  -6 699.212 266.378   1
   3  16   6 768.673 291.557   1
  -3  16  -7 876.120 325.499   1
   3  17  -8 212.655 158.404   2
   3  17  -8 70.0756 157.559   1
   3  17  -7 726.378 234.137   2
   3  17  -7 339.206 187.560   1
   3  17  -6-4.44612 119.546   2
   3  17  -6 328.130 184.728   1
   3  17  -5 297.917 175.067   1
   3  17  -5 474.232 204.779   2
   3  17  -4 180.848 141.342   1
   3  17  -3-15.0396 113.875   1
   3  17  -2 241.712 171.944   1
   3  17  -1 387.287 182.463   1
   3  17   0 610.683 207.291   1
   3  17   1 61.5937 144.839   1
   3  17   2 38.2352 123.493   1
  -3  17  -3 818.300 242.840   1
   3  17   3 1263.77 304.530   1
  -3  17  -4 864.099 241.528   1
   3  17   4 47.1391 142.628   1
   3  17   5 495.660 239.733   1
  -3  17  -5 1011.02 279.411   1
  -3  17  -6 407.283 229.319   1
   3  18  -8-33.7909 129.933   2
   3  18  -7 531.285 211.224   2
   3  18  -7 451.387 214.677   1
   3  18  -6 622.582 220.329   2
   3  18  -6 408.022 195.911   1
   3  18  -5 242.308 181.157   2
   3  18  -5-25.7852 110.885   1
   3  18  -4 610.974 213.283   1
   3  18  -3 1240.23 323.371   1
   3  18  -2 986.670 271.178   1
   3  18  -1 335.767 193.664   1
   3  18   0 1538.78 319.985   1
   3  18   1 561.858 218.198   1
   3  18   2 280.433 200.066   1
  -3  18  -3 682.379 235.758   1
   3  18   3 239.350 163.938   1
  -3  18  -4 206.694 172.667   1
   3  18   4 327.739 229.873   1
  -3  18  -5 410.194 224.922   1
  -3  18  -6 385.853 236.292   1
   3  19  -7 53.8924 142.599   2
   3  19  -6 81.4878 147.670   2
   3  19  -5 480.994 207.153   2
   3  19  -5 171.530 172.941   1
   3  19  -4 446.105 193.686   1
   3  19  -3 51.5011 142.715   1
   3  19  -2 610.445 243.046   1
   3  19  -1 53.8389 128.079   1
   3  19   0 228.653 205.003   1
   3  19   1-108.355 139.319   1
   3  19   2 1316.41 332.928   1
   3  19   3 353.116 226.892   1
  -3  19  -5 595.268 256.468   1
   3  20  -6 216.696 197.383   2
   3  20  -5 99.3628 144.569   2
   3  20  -3 209.991 205.607   1
   3  20  -2 760.415 306.029   1
   3  20  -1 281.424 222.283   1
   3  20   0 1184.08 322.307   1
   3  20   1 583.735 280.524   1
   3  21  -5 206.958 178.013   2
   4   0 -10 131.560 152.153   2
   4   0  -9 217.653 167.988   2
   4   0  -8 11138.1 787.105   2
   4   0  -7 210.463 177.183   2
   4   0  -6 4967.03 485.604   2
   4   0  -5-13.6566 86.2200   2
   4   0  -4 141.104 105.414   2
   4   0  -4 36.9146 76.1462   1
   4   0  -3 241.890 123.071   2
   4   0  -3 33.8223 72.7749   1
   4   0  -2 5228.44 392.045   1
   4   0  -1 670.429 182.865   1
   4   0   0 315.882 147.642   1
   4   0   1 330.298 159.318   1
   4   0   2 10470.9 690.800   1
   4   0   3 339.312 180.487   1
   4   0   4 4102.24 498.351   1
   4   0   5 22.5321 130.359   1
   4   0   6 1242.43 322.712   1
   4   0   7 268.788 235.886   1
   4   0   8 1511.05 400.703   1
   4   1 -10 195.080 154.786   2
   4  -1 -10 219.930 178.739   2
   4   1  -9 181.615 129.465   2
   4  -1  -9 409.023 177.611   2
   4   1  -8 885.729 284.797   2
   4  -1  -8 1048.18 262.050   2
   4   1  -7 584.217 201.199   2
   4  -1  -7 719.012 241.168   2
   4   1  -6 2109.18 323.834   2
   4  -1  -6 2531.47 346.060   2
   4   1  -5 366.805 164.436   2
   4  -1  -5 588.103 182.589   2
   4   1  -4 683.025 192.147   2
   4  -1  -4 979.825 210.319   2
   4  -1  -4 477.502 109.439   1
   4   1  -4 786.867 149.550   1
   4  -1  -3 78.3478 101.564   2
   4  -1  -3 245.979 96.8792   1
   4   1  -3 88.6725 93.7232   1
   4  -1  -2 781.116 189.765   1
   4   1  -2 909.546 212.701   1
   4  -1  -1 1539.39 242.760   1
   4   1  -1 1135.25 217.568   1
   4  -1   0 1452.10 241.369   1
   4   1   0 1320.17 238.358   1
   4  -1   1 1147.67 247.620   1
   4   1   1 680.212 183.067   1
   4  -1   2 1891.38 335.852   1
   4   1   2 2469.49 393.832   1
   4  -1   3 424.258 183.995   1
   4   1   3 594.760 218.778   1
   4  -1   4 1241.20 293.963   1
   4   1   4 1712.03 356.627   1
   4  -1   5 130.523 160.858   1
   4   1   5 136.964 153.375   1
   4  -1   6 903.988 307.629   1
   4   1   6 563.780 252.832   1
   4  -1   7 245.512 218.566   1
   4   1   7 365.088 240.808   1
   4  -1   8 891.855 324.700   1
   4   2 -10 73.5852 141.340   2
   4  -2 -10 174.288 161.664   2
   4   2  -9 11.3779 112.969   2
   4  -2  -9 612.255 229.878   2
   4   2  -8 3877.62 592.738   2
   4  -2  -8 2368.78 352.131   2
   4   2  -7 612.429 192.944   2
   4  -2  -7 1085.86 259.586   2
   4   2  -6 6087.77 550.347   2
   4  -2  -6 7688.46 623.030   2
   4   2  -5 53.1122 86.7285   1
   4   2  -5 144.642 133.257   2
   4   2  -4 1207.82 190.263   1
   4   2  -4 1136.04 247.882   2
   4  -2  -4 1388.29 256.644   2
   4  -2  -3 118.304 77.9384   2
   4  -2  -3 107.918 77.9712   1
   4   2  -3 191.360 101.004   1
   4  -2  -2 4146.81 335.736   1
   4   2  -2 4523.99 394.116   1
   4  -2  -1 3822.32 355.620   1
   4   2  -1 3276.58 347.731   1
   4  -2   0 431.073 156.950   1
   4   2   0 447.961 167.579   1
   4  -2   1 964.370 230.503   1
   4   2   1 997.937 223.911   1
   4  -2   2 6544.87 550.362   1
   4   2   2 6037.84 524.671   1
   4  -2   3 128.567 144.013   1
   4   2   3 383.715 199.900   1
   4  -2   4 1968.93 361.048   1
   4   2   4 2184.16 366.797   1
   4  -2   5 490.348 222.056   1
   4   2   5 46.2774 136.371   1
   4  -2   6 2221.76 406.434   1
   4   2   6 2501.60 451.825   1
   4  -2   7 1073.91 311.716   1
   4   2   7 41.1589 161.770   1
   4  -2   8 1518.53 390.765   1
   4   3 -10 77.0107 145.246   2
   4  -3 -10 383.461 208.157   2
   4   3  -9 4.38833 118.423   2
   4  -3  -9 97.4873 116.972   2
   4   3  -8 435.668 217.965   2
   4  -3  -8 277.723 160.721   2
   4   3  -7 141.822 130.422   2
   4  -3  -7 421.010 172.695   2
   4   3  -6 326.794 164.101   2
   4  -3  -6 300.211 194.709   2
   4   3  -5 271.985 109.699   1
   4   3  -5 309.209 153.893   2
   4  -3  -5 304.142 141.942   2
   4   3  -4 1656.64 223.659   1
   4   3  -4 1816.14 304.801   2
   4  -3  -4 1831.76 275.078   2
   4  -3  -3 158.086 108.393   2
   4  -3  -3 134.372 89.5144   1
   4   3  -3 131.583 98.5946   1
   4  -3  -2 684.257 176.035   2
   4  -3  -2 1086.01 198.733   1
   4   3  -2 968.099 216.754   1
   4  -3  -1 354.325 131.054   1
   4   3  -1 596.037 198.725   1
   4  -3   0 1328.38 232.436   1
   4   3   0 1133.71 232.085   1
   4  -3   1 3682.98 405.995   1
   4   3   1 3646.78 410.582   1
   4  -3   2 1800.29 313.588   1
   4   3   2 1903.07 324.094   1
   4  -3   3 1181.85 312.124   1
   4   3   3 724.461 210.604   1
   4  -3   4 2234.90 362.434   1
   4   3   4 2513.88 404.617   1
   4  -3   5 504.527 231.375   1
   4   3   5 41.2508 127.600   1
   4  -3   6 2052.35 413.374   1
   4   3   6 2060.48 423.111   1
   4  -3   7 770.777 294.363   1
   4   3   7 544.523 269.742   1
   4   4 -10 597.710 227.178   2
   4  -4 -10 511.333 220.067   2
   4   4  -9 95.2665 146.286   2
   4  -4  -9 150.317 140.876   2
   4   4  -8 454.846 207.768   2
   4  -4  -8 478.857 185.774   2
   4   4  -7 168.466 135.799   2
   4  -4  -7 87.2459 98.0984   2
   4  -4  -6 724.299 211.016   2
   4   4  -6 639.758 166.892   1
   4   4  -6 1038.77 272.971   2
   4   4  -5 311.044 167.916   2
   4   4  -5 148.292 108.669   1
   4  -4  -5 379.958 162.377   2
   4  -4  -4 336.269 130.358   2
   4   4  -4 548.488 154.068   1
   4   4  -4 98.1304 119.263   2
   4  -4  -3 90.3405 92.7676   2
   4   4  -3 359.887 146.400   1
   4  -4  -2 6762.85 413.588   1
   4   4  -2 5978.35 450.039   1
   4  -4  -2 6808.34 496.421   2
   4  -4  -1 312.254 133.145   1
   4   4  -1 755.387 199.633   1
   4  -4   0 153.550 112.806   1
   4   4   0 288.474 139.896   1
   4  -4   1 3958.16 411.052   1
   4   4   1 3447.74 407.827   1
   4  -4   2 6031.61 519.296   1
   4   4   2 5726.82 530.997   1
   4  -4   3 452.411 194.148   1
   4   4   3 365.328 159.521   1
   4  -4   4 605.548 251.550   1
   4   4   4 494.070 218.677   1
   4  -4   5 21.7693 150.851   1
   4   4   5 345.234 184.112   1
   4  -4   6 1978.26 384.419   1
   4   4   6 1428.42 352.070   1
   4  -4   7 344.818 238.771   1
   4   4   7 146.802 197.577   1
   4   5 -10 460.695 202.650   2
   4  -5 -10 565.929 224.730   2
   4   5  -9 314.211 213.279   2
   4  -5  -9 348.347 185.734   2
   4   5  -8 45.7891 111.967   2
   4  -5  -8 422.608 170.591   2
   4   5  -7 616.880 207.347   2
   4  -5  -7 675.661 197.513   2
   4   5  -6 673.903 232.668   2
   4  -5  -6 377.915 159.827   2
   4   5  -6 439.399 144.709   1
   4   5  -5 561.896 198.070   2
   4   5  -5 377.067 139.194   1
   4  -5  -5 545.959 189.971   2
   4  -5  -4 161.659 111.362   2
   4   5  -4 357.962 125.924   1
   4   5  -3 2829.52 318.184   1
   4  -5  -3 2514.96 306.495   2
   4  -5  -2 274.137 143.650   2
   4   5  -2 257.191 123.689   1
   4  -5  -1 554.557 152.487   2
   4  -5  -1 585.220 154.082   1
   4   5  -1 601.997 172.750   1
   4  -5   0 1836.28 263.864   1
   4   5   0 1242.21 247.389   1
   4  -5   1 253.745 145.699   1
   4   5   1 293.325 156.188   1
   4  -5   2 365.815 181.317   1
   4   5   2 441.643 183.475   1
   4  -5   3 1367.19 271.424   1
   4   5   3 464.088 181.635   1
   4  -5   4 3861.86 485.109   1
   4   5   4 2727.50 409.031   1
   4  -5   5 193.104 171.904   1
   4   5   5 192.642 185.666   1
   4  -5   6 17.6461 164.975   1
   4   5   6 439.726 230.913   1
   4  -5   7 1221.23 360.340   1
   4   5   7 515.875 295.697   1
   4  -6 -10 611.790 234.232   2
   4   6  -9 551.650 330.989   2
   4  -6  -9 446.301 222.124   2
   4   6  -8 168.008 160.693   2
   4  -6  -8 304.547 165.038   2
   4   6  -7 110.747 136.840   2
   4  -6  -7 195.555 127.252   2
   4   6  -6 172.336 132.760   2
   4  -6  -6 220.645 129.694   2
   4   6  -6 370.364 147.929   1
   4   6  -5 1246.73 230.285   1
   4   6  -5 1473.21 290.595   2
   4  -6  -5 1486.28 259.204   2
   4  -6  -4 1655.93 295.638   2
   4   6  -4 1317.34 226.202   1
   4  -6  -3 453.327 144.895   2
   4   6  -3 583.534 168.825   1
   4   6  -2 1659.88 257.443   1
   4  -6  -2 1946.88 259.594   2
   4  -6  -1 926.507 181.818   2
   4  -6  -1 1193.63 195.692   1
   4   6  -1 1226.44 243.327   1
   4  -6   0 231.223 139.237   1
   4   6   0 428.636 156.043   1
   4  -6   1 1702.67 271.050   1
   4   6   1 1429.27 273.530   1
   4  -6   2 858.141 231.726   1
   4   6   2 770.675 213.457   1
   4  -6   3 1619.53 301.055   1
   4   6   3 1214.79 294.755   1
   4  -6   4 1819.11 355.713   1
   4   6   4 1558.10 321.524   1
   4  -6   5 198.151 179.932   1
   4   6   5 474.622 214.344   1
   4  -6   6 783.275 286.017   1
   4   6   6 243.270 196.807   1
   4  -6   7 265.418 233.814   1
   4   6   7-10.9121 178.479   1
   4  -7 -10 832.356 273.998   2
   4   7  -9 378.946 245.556   2
   4  -7  -9 173.943 150.576   2
   4   7  -8 142.824 150.542   2
   4  -7  -8 341.850 175.746   2
   4   7  -7 731.910 224.199   2
   4  -7  -7 752.350 221.151   2
   4   7  -7 672.128 190.304   1
   4   7  -6 1080.79 267.228   2
   4  -7  -6 580.234 183.875   2
   4   7  -6 767.185 193.062   1
   4   7  -5 139.722 116.119   2
   4   7  -5 294.889 138.782   1
   4  -7  -5 268.927 130.316   2
   4  -7  -4 986.404 209.822   2
   4   7  -4 809.143 193.488   1
   4   7  -3 2514.45 321.820   1
   4  -7  -3 3236.39 366.477   2
   4  -7  -2 240.376 108.233   2
   4   7  -2 581.288 181.829   1
   4  -7  -1 980.283 174.716   2
   4   7  -1 1209.96 237.349   1
   4  -7   0 1034.67 181.625   2
   4  -7   0 1165.32 215.044   1
   4   7   0 1094.21 231.597   1
   4  -7   1 1240.55 235.128   1
   4   7   1 1519.54 277.554   1
   4  -7   2 657.069 224.875   1
   4   7   2 350.625 149.025   1
   4  -7   3 1134.30 256.753   1
   4   7   3 1564.58 309.764   1
   4  -7   4 202.059 160.723   1
   4   7   4 138.008 137.453   1
   4  -7   5 508.028 232.553   1
   4   7   5 266.905 212.633   1
   4  -7   6 1388.06 333.654   1
   4   7   6 1225.86 344.708   1
   4  -7   7 378.270 235.556   1
   4   7   7 81.6583 204.325   1
   4  -8 -10 54.4207 154.089   2
   4   8  -9 486.459 240.782   2
   4  -8  -9 442.708 199.145   2
   4   8  -8 82.7657 118.536   2
   4  -8  -8-63.2321 123.054   2
   4   8  -7-132.657 146.327   2
   4   8  -7 116.595 134.862   1
   4   8  -6 457.055 201.640   2
   4  -8  -6 449.032 173.784   2
   4   8  -6 83.5658 104.232   1
   4   8  -5 472.333 199.487   2
   4   8  -5 734.175 209.833   1
   4  -8  -5 727.047 188.796   2
   4  -8  -4 755.517 176.682   2
   4   8  -4 838.932 193.502   1
   4  -8  -3 695.898 179.424   2
   4   8  -3 462.780 147.321   1
   4   8  -2 1929.59 298.679   1
   4  -8  -2 2095.28 272.242   2
   4   8  -1 1217.30 232.717   1
   4  -8   0 1048.21 221.992   1
   4   8   0 765.669 215.200   1
   4  -8   1 3242.16 378.573   1
   4   8   1 2445.46 360.921   1
   4  -8   2 4920.81 468.826   1
   4   8   2 79.3568 127.192   1
   4  -8   3 379.332 176.562   1
   4   8   3 557.062 220.983   1
   4  -8   4 252.775 178.971   1
   4   8   4 92.7610 158.078   1
   4  -8   5 722.130 250.190   1
   4   8   5 500.098 214.012   1
   4  -8   6 235.302 207.724   1
   4   8   6-28.8791 147.382   1
   4  -8   7 335.486 244.578   1
   4  -9 -10 378.630 219.310   2
   4   9  -9 161.990 188.405   2
   4  -9  -9 326.914 202.113   2
   4   9  -8 440.657 197.572   2
   4  -9  -8 19.2970 134.292   2
   4   9  -7 714.024 252.798   2
   4  -9  -7 461.684 183.572   2
   4   9  -7 297.536 154.850   1
   4   9  -6 447.022 203.451   2
   4  -9  -6 46.1435 123.463   2
   4   9  -6 382.479 172.156   1
   4   9  -5 162.258 139.424   2
   4   9  -5 226.959 153.121   1
   4  -9  -5-219.891 128.982   2
   4  -9  -4 467.334 145.432   2
   4   9  -4 302.749 143.838   1
   4   9  -3 2583.22 336.197   1
   4   9  -2-37.3154 92.8649   1
   4   9  -1 264.689 172.348   1
   4   9   0 2074.31 340.852   1
   4  -9   1 2926.63 356.266   1
   4   9   1 2630.27 382.326   1
   4  -9   2 147.495 154.804   1
   4   9   2 67.0263 123.550   1
   4  -9   3 976.519 260.187   1
   4   9   3 612.017 235.758   1
   4  -9   4 983.014 261.469   1
   4   9   4 924.385 276.673   1
   4  -9   5 460.269 223.217   1
   4   9   5 308.724 191.806   1
   4  -9   6 595.756 261.473   1
   4   9   6 253.813 229.600   1
   4  -9   7 1107.81 361.408   1
   4 -10  -9 152.944 144.474   2
   4  10  -8 79.8513 117.212   2
   4 -10  -8 212.146 153.240   2
   4  10  -8 245.421 164.308   1
   4  10  -7 130.598 141.774   2
   4 -10  -7 80.0529 152.078   2
   4  10  -7 178.631 145.752   1
   4  10  -6 199.606 162.252   2
   4  10  -6 220.806 144.317   1
   4  10  -5 1541.17 280.146   1
   4  10  -5 1911.97 356.892   2
   4  10  -4 238.765 142.996   1
   4  10  -3 401.510 163.648   1
   4  10  -2 423.991 169.025   1
   4  10  -1 843.635 217.934   1
   4  10   0 166.703 118.123   1
   4 -10   1-60.1112 127.678   1
   4  10   1 134.235 141.397   1
   4 -10   2 198.841 147.444   1
   4  10   2 82.9432 127.765   1
   4 -10   3 464.062 195.895   1
   4  10   3 218.342 154.864   1
   4 -10   4 376.004 201.876   1
   4  10   4 63.0442 157.036   1
   4 -10   5 4122.80 539.339   1
   4  10   5 4951.08 616.550   1
   4 -10   6-49.6309 162.484   1
   4  10   6 128.871 206.436   1
   4  11  -8 558.748 228.308   2
   4  11  -8 472.507 204.909   1
   4  11  -7 881.626 272.160   2
   4  11  -7 318.729 171.973   1
   4  11  -6 89.6379 113.926   2
   4  11  -6 252.511 151.345   1
   4  11  -5 455.935 199.481   2
   4  11  -5 332.711 175.891   1
   4  11  -4 930.166 219.037   1
   4  11  -3 1414.39 267.379   1
   4  11  -2 584.541 195.871   1
   4  11  -1 467.796 189.393   1
   4  11   0 519.256 193.602   1
   4  11   1 33.6001 129.653   1
   4 -11   2 306.024 184.965   1
   4  11   2 41.5387 135.599   1
   4 -11   3 1304.21 295.011   1
   4  11   3 1223.43 312.514   1
   4 -11   4 146.054 166.982   1
   4  11   4 214.117 165.860   1
   4 -11   5 308.457 218.866   1
   4  11   5 678.961 281.960   1
   4 -11   6 416.305 248.619   1
   4  12  -8-138.496 159.877   1
   4  12  -7 205.720 165.346   2
   4  12  -7 578.247 226.078   1
   4  12  -6 251.509 152.672   2
   4  12  -6 332.676 171.777   1
   4  12  -5 1694.72 334.646   1
   4  12  -5 1652.37 340.072   2
   4  12  -4 50.2379 100.245   1
   4  12  -3 542.798 201.897   1
   4  12  -2 1806.10 315.384   1
   4  12  -1 665.208 203.624   1
   4  12   0 318.070 160.782   1
   4  12   1 818.806 230.661   1
   4  12   2 212.632 155.597   1
   4 -12   3 679.268 241.793   1
   4  12   3 774.275 265.356   1
   4 -12   4 537.139 246.167   1
   4  12   4 96.0320 174.592   1
   4 -12   5 2570.01 469.871   1
   4  12   5 1417.79 402.927   1
   4 -12   6 1675.78 479.328   1
   4  13  -8 96.6907 157.217   1
   4  13  -7 1331.01 336.951   2
   4  13  -7 935.869 271.842   1
   4  13  -6 742.003 261.780   2
   4  13  -6 384.592 190.860   1
   4  13  -5 203.923 154.158   1
   4  13  -5 220.784 183.706   2
   4  13  -4 159.867 133.367   1
   4  13  -3 411.716 168.970   1
   4  13  -2 124.493 128.475   1
   4  13  -1 704.272 226.599   1
   4  13   0 507.044 223.984   1
   4  13   1 250.379 175.959   1
   4  13   2 292.382 198.780   1
   4  13   3 720.386 269.715   1
   4  13   4-83.2502 154.685   1
   4  14  -8 8.90442 140.278   1
   4  14  -7 49.6936 147.972   1
   4  14  -6 196.199 182.556   2
   4  14  -6 72.1141 126.775   1
   4  14  -5 2309.60 410.546   1
   4  14  -5 2159.95 400.408   2
   4  14  -4 409.818 203.503   1
   4  14  -3 359.534 171.397   1
   4  14  -2 635.585 211.145   1
   4  14  -1 1088.09 268.044   1
   4  14   0 28.0128 127.913   1
   4  14   1 814.514 272.079   1
   4  14   2 499.953 235.583   1
   4  14   3 167.603 192.945   1
   4  15  -7 713.684 252.509   1
   4  15  -6-15.5521 128.210   1
   4  15  -5 321.026 213.600   1
   4  15  -5 453.406 203.727   2
   4  15  -4 595.817 247.400   1
   4  15  -3 490.191 213.546   1
   4  15  -2 133.136 150.603   1
   4  15  -1 183.471 167.056   1
   4  15   0 66.6464 140.376   1
   4  15   1 603.396 244.719   1
   4  15   2 203.357 191.292   1
   4  16  -5 426.472 220.151   1
   4  16  -4 328.473 215.553   1
   4  16  -3 645.924 239.898   1
   4  16  -2 151.073 165.965   1
   4  16  -1 308.980 181.483   1
   4  16   0-54.1044 133.555   1
   4  16   1 371.971 229.160   1
   5   0  -7 300.390 206.059   2
   5   0  -6 203.683 166.496   2
   5   0  -5-104.464 148.513   2
   5   0  -4 1485.91 313.827   2
   5   0  -3 319.186 181.898   2
   5   0  -2 16.7084 128.653   2
   5   0   0 2127.98 365.480   1
   5   0   1 274.170 191.607   1
   5   0   2 1641.94 347.120   1
   5   0   3-66.2113 152.492   1
   5   0   4 655.302 267.389   1
   5   1  -7 504.798 239.093   2
   5  -1  -7 240.745 222.935   2
   5   1  -6 485.839 211.363   2
   5  -1  -6 249.639 173.906   2
   5   1  -5 264.604 177.407   2
   5  -1  -5 136.488 153.846   2
   5   1  -4 32.5327 133.870   2
   5  -1  -4 138.054 166.075   2
   5   1  -3 484.929 198.336   2
   5  -1  -3 226.829 150.807   2
   5  -1  -2 1094.94 270.625   2
   5   1  -1 378.822 171.168   1
   5  -1   0 965.863 278.678   1
   5   1   0 670.447 244.284   1
   5  -1   1 390.369 211.212   1
   5   1   1 421.801 217.820   1
   5  -1   2 528.312 240.932   1
   5   1   2 896.458 293.150   1
   5  -1   3 82.7656 150.518   1
   5   1   3 478.869 240.338   1
   5  -1   4 147.348 191.437   1
   5   1   4 679.762 277.472   1
   5   2  -7 51.6819 138.151   2
   5  -2  -7 190.500 169.690   2
   5   2  -6 225.390 186.990   2
   5  -2  -6 19.6945 142.654   2
   5   2  -5 289.914 187.577   2
   5  -2  -5 167.072 154.726   2
   5   2  -4 1160.19 293.562   2
   5  -2  -4 1163.45 289.636   2
   5   2  -3 707.715 223.622   2
   5  -2  -3 519.369 201.811   2
   5  -2  -2-135.097 135.799   2
   5   2  -1 317.518 188.805   1
   5   2   0 1781.11 329.121   1
   5  -2   1 224.091 173.033   1
   5   2   1 414.192 212.616   1
   5  -2   2 981.919 283.893   1
   5   2   2 989.509 279.614   1
   5  -2   3 122.414 196.512   1
   5   2   3-96.1739 150.701   1
   5  -2   4 989.329 302.902   1
   5   2   4 632.392 261.801   1
   5  -3  -8 595.390 237.854   2
   5  -3  -7 130.518 170.684   2
   5   3  -6 549.991 227.460   2
   5  -3  -6 729.920 376.807   2
   5   3  -5-0.32955 130.253   2
   5  -3  -5 203.817 162.462   2
   5   3  -4 437.692 213.402   2
   5  -3  -4 72.4136 130.005   2
   5  -3  -3 181.396 163.998   2
   5   3  -3-83.4037 134.496   2
   5  -3  -2 402.338 186.079   2
   5   3  -2 260.011 153.608   1
   5   3  -1 867.171 256.054   1
   5  -3  -1 920.018 238.302   2
   5   3   0 947.233 275.351   1
   5   3   1 468.434 219.622   1
   5  -3   2 1136.01 302.130   1
   5   3   2 1123.50 333.490   1
   5  -3   3-32.9694 159.321   1
   5   3   3 56.5917 152.750   1
   5  -3   4 206.585 200.631   1
   5   3   4 735.008 293.436   1
   5  -4  -8 503.081 229.598   2
   5  -4  -7-66.9391 127.793   2
   5   4  -6-26.7563 150.456   2
   5  -4  -6 110.581 167.802   2
   5   4  -5 55.5949 128.452   2
   5  -4  -5-150.260 189.801   2
   5   4  -4 1335.30 318.647   2
   5  -4  -4 1491.03 286.907   2
   5  -4  -3 361.717 175.696   2
   5  -4  -2-94.1526 140.679   2
   5   4  -2 0.23520 121.325   1
   5   4  -1 1232.54 277.679   1
   5   4   0 1210.00 277.808   1
   5   4   1 433.774 226.391   1
   5  -4   2 288.528 210.057   1
   5   4   2 650.474 282.055   1
   5  -4   3 305.894 198.727   1
   5   4   3 195.524 214.754   1
   5  -4   4 658.726 283.787   1
   5  -5  -8 108.126 153.228   2
   5  -5  -7-33.5637 159.244   2
   5   5  -6 119.790 161.314   2
   5  -5  -6 239.019 192.643   2
   5   5  -5 625.222 240.537   2
   5  -5  -5 401.845 222.843   2
   5   5  -4-147.634 149.227   2
   5  -5  -4 107.317 140.507   2
   5   5  -2 491.395 214.210   1
   5   5  -1 346.226 177.847   1
   5   5   0 313.872 186.662   1
   5   5   1 375.774 200.705   1
   5   5   2 898.632 283.145   1
   5  -5   3-40.8285 189.467   1
   5   5   3 62.4172 187.021   1
   5  -5   4 180.838 201.286   1
   5  -6  -7 235.617 167.149   2
   5   6  -5 117.262 140.195   2
   5   6  -4 624.161 244.382   2
   5   6  -3 425.447 192.986   1
   5   6  -2 351.794 181.633   1
   5   6  -1 818.639 229.800   1
   5   6   0 427.323 213.069   1
   5   6   1 1089.15 320.469   1
   5   6   2 407.839 226.725   1
   5   6   3 337.917 230.753   1
   5  -6   4 429.915 265.559   1
   5   7  -5 590.395 251.352   2
   5   7  -4 425.806 221.862   2
   5   7  -3 346.829 183.199   1
   5   7  -2 525.402 214.476   1
   5   7  -1 426.119 204.723   1
   5   7   0 762.791 251.144   1
   5   7   1 482.105 229.040   1
   5   7   2 193.231 187.138   1
   5   8  -4 426.350 201.075   1
   5   8  -4 852.201 282.374   2
   5   8  -3 437.380 195.305   1
   5   8  -2 466.293 208.741   1
   5   8  -1 931.964 269.802   1
   5   8   0 700.626 239.930   1
   5   8   1 362.751 235.881   1
   5   8   2 356.221 218.411   1
   5   9  -4 139.431 179.667   1
   5   9  -3 77.9630 147.677   1
   5   9  -2 1153.18 289.207   1
   5   9  -1 722.127 264.932   1
   5   9   0 547.513 245.538   1
   5   9   1 184.517 198.393   1
   5  10  -4 242.711 190.245   1
   5  10  -3 468.036 212.873   1
   5  10  -2 88.1558 148.894   1
   5  10  -1 292.520 203.524   1
   5  10   0 68.6554 162.578   1
   5  11  -4 221.531 186.459   1
   5  11  -3 200.562 191.151   1
   5  11  -2 276.047 204.251   1
   5  11  -1 328.240 209.250   1
   0   0   0    0.00    0.00   0

TITL DM-TA-367-E2_Mo in P2(1)/m
REM P2(1)/m (#11 in standard setting)
CELL 0.71073   3.929452  18.218092  10.246986  90.0000  97.1200  90.0000
ZERR    3.00   0.000423   0.001615   0.001014   0.0000   0.0092   0.0000
LATT  1
SYMM -x, y+1/2,-z
SFAC C H N O
UNIT 33.00 30.00 3.00 3.00
TREF
HKLF 4
END
;
_shelx_hkl_checksum              98336
_olex2_submission_special_instructions 'No special instructions were received'
_oxdiff_exptl_absorpt_empirical_details
;
Empirical correction (ABSPACK) includes:
- Absorption correction using spherical harmonics
- Frame scaling
- Detector area scaling
;
_oxdiff_exptl_absorpt_empirical_full_max 1.709
_oxdiff_exptl_absorpt_empirical_full_min 0.786
loop_
_space_group_symop_operation_xyz
'x, y, z'
'-x, y+1/2, -z+1/2'
'-x, -y, -z'
'x, -y-1/2, z-1/2'
loop_
_atom_site_label
_atom_site_type_symbol
_atom_site_fract_x
_atom_site_fract_y
_atom_site_fract_z
_atom_site_U_iso_or_equiv
_atom_site_adp_type
_atom_site_occupancy
_atom_site_site_symmetry_order
_atom_site_calc_flag
_atom_site_refinement_flags_posn
S01 S 0.3113(3) 0.77026(6) 0.39583(11) 0.0334(4) Uani 1 1 d .
C002 C 0.5310(11) 0.8253(3) 0.5164(4) 0.0319(10) Uani 1 1 d .
N003 N 0.0181(11) 0.4621(2) 0.2868(4) 0.0502(12) Uani 1 1 d .
C004 C 0.1576(11) 0.5986(2) 0.3389(4) 0.0346(11) Uani 1 1 d .
H004 H 0.058818 0.635152 0.279913 0.042 Uiso 1 1 calc R
C006 C 0.4557(11) 0.6931(2) 0.4855(4) 0.0327(11) Uani 1 1 d .
C008 C 0.0815(12) 0.5227(3) 0.3113(5) 0.0376(11) Uani 1 1 d .
C009 C 0.5282(12) 0.9067(3) 0.5051(5) 0.0408(12) Uani 1 1 d .
H00A H 0.752654 0.923674 0.485175 0.061 Uiso 1 1 calc GR
H00B H 0.479097 0.928280 0.588313 0.061 Uiso 1 1 calc GR
H00C H 0.350907 0.921648 0.434326 0.061 Uiso 1 1 calc GR
C00A C 0.3656(11) 0.6187(2) 0.4466(5) 0.0319(10) Uani 1 1 d .
H00D H 0.462772 0.580517 0.502432 0.038 Uiso 1 1 calc R
N1 N 0.6965(10) 0.7892(2) 0.6155(4) 0.0364(9) Uani 1 1 d .
C2 C 0.6531(12) 0.7156(3) 0.5968(5) 0.0358(11) Uani 1 1 d .
H2 H 0.756972 0.681226 0.659224 0.043 Uiso 1 1 calc R
loop_
_atom_site_aniso_label
_atom_site_aniso_U_11
_atom_site_aniso_U_22
_atom_site_aniso_U_33
_atom_site_aniso_U_23
_atom_site_aniso_U_13
_atom_site_aniso_U_12
S01 0.0286(6) 0.0373(7) 0.0325(7) 0.0009(5) -0.0032(5) 0.0009(5)
C002 0.023(2) 0.043(3) 0.029(2) -0.003(2) -0.0024(19) -0.0017(19)
N003 0.050(3) 0.041(3) 0.054(3) 0.000(2) -0.015(2) -0.003(2)
C004 0.030(2) 0.037(3) 0.035(3) 0.002(2) -0.003(2) 0.003(2)
C006 0.026(2) 0.038(3) 0.033(3) 0.0006(19) 0.0039(19) 0.0023(19)
C008 0.030(2) 0.044(3) 0.036(3) 0.005(2) -0.006(2) 0.006(2)
C009 0.037(3) 0.042(3) 0.042(3) 0.001(2) -0.004(2) -0.001(2)
C00A 0.027(2) 0.032(2) 0.037(3) 0.0039(19) 0.005(2) 0.0039(18)
N1 0.033(2) 0.039(2) 0.036(2) -0.0015(17) -0.0007(17) -0.0013(17)
C2 0.034(2) 0.036(3) 0.036(3) 0.001(2) -0.001(2) 0.004(2)
loop_
_atom_type_symbol
_atom_type_description
_atom_type_scat_dispersion_real
_atom_type_scat_dispersion_imag
_atom_type_scat_source
C C 0.0033 0.0016 'International Tables Vol C Tables 4.2.6.8 and 6.1.1.4'
H H 0.0000 0.0000 'International Tables Vol C Tables 4.2.6.8 and 6.1.1.4'
N N 0.0061 0.0033 'International Tables Vol C Tables 4.2.6.8 and 6.1.1.4'
S S 0.1246 0.1234 'International Tables Vol C Tables 4.2.6.8 and 6.1.1.4'
loop_
_geom_angle_atom_site_label_1
_geom_angle_atom_site_label_2
_geom_angle_atom_site_label_3
_geom_angle
C002 S01 C006 89.4(2)
C009 C002 S01 121.5(3)
N1 C002 S01 114.5(4)
N1 C002 C009 124.0(4)
C008 C004 H004 119.4
C00A C004 H004 119.4
C00A C004 C008 121.1(4)
C00A C006 S01 124.1(4)
C2 C006 S01 108.3(3)
C2 C006 C00A 127.5(4)
N003 C008 C004 178.7(5)
C002 C009 H00A 109.5
C002 C009 H00B 109.5
C002 C009 H00C 109.5
H00A C009 H00B 109.5
H00A C009 H00C 109.5
H00B C009 H00C 109.5
C004 C00A C006 126.0(4)
C004 C00A H00D 117.0
C006 C00A H00D 117.0
C002 N1 C2 110.1(4)
C006 C2 N1 117.6(4)
C006 C2 H2 121.2
N1 C2 H2 121.2
loop_
_geom_bond_atom_site_label_1
_geom_bond_atom_site_label_2
_geom_bond_distance
S01 C002 1.736(4)
S01 C006 1.736(5)
C002 C009 1.486(6)
C002 N1 1.313(6)
N003 C008 1.152(6)
C004 H004 0.9500
C004 C008 1.436(7)
C004 C00A 1.340(6)
C006 C00A 1.444(6)
C006 C2 1.361(6)
C009 H00A 0.9800
C009 H00B 0.9800
C009 H00C 0.9800
C00A H00D 0.9500
N1 C2 1.362(6)
C2 H2 0.9500
loop_
_geom_torsion_atom_site_label_1
_geom_torsion_atom_site_label_2
_geom_torsion_atom_site_label_3
_geom_torsion_atom_site_label_4
_geom_torsion
S01 C002 N1 C2 0.4(5)
S01 C006 C00A C004 -1.1(7)
S01 C006 C2 N1 0.1(5)
C002 S01 C006 C00A 178.4(4)
C002 S01 C006 C2 0.1(3)
C002 N1 C2 C006 -0.3(6)
C006 S01 C002 C009 179.4(4)
C006 S01 C002 N1 -0.3(4)
C008 C004 C00A C006 -178.9(4)
C009 C002 N1 C2 -179.3(4)
C00A C006 C2 N1 -178.1(4)
C2 C006 C00A C004 176.8(5)
