#------------------------------------------------------------------------------
#$Date: 2019-11-04 12:32:34 +0200 (Mon, 04 Nov 2019) $
#$Revision: 222740 $
#$URL: file:///home/coder/svn-repositories/cod/cif/4/03/41/4034198.cif $
#------------------------------------------------------------------------------
#
# This file is available in the Crystallography Open Database (COD),
# http://www.crystallography.net/
#
# All data on this site have been placed in the public domain by the
# contributors.
#
data_4034198
loop_
_publ_author_name
'Seiler, Grant S.'
'Hughes, Chambers C.'
_publ_section_title
;
 Progress toward the Total Synthesis of Lymphostins: Preparation of a
 Functionalized Tetrahydropyrrolo[4,3,2-<i>de</i>]quinoline and Unusual
 Oxidative Dimerization.
;
_journal_issue                   14
_journal_name_full               'The Journal of organic chemistry'
_journal_page_first              9339
_journal_page_last               9343
_journal_paper_doi               10.1021/acs.joc.9b01041
_journal_volume                  84
_journal_year                    2019
_chemical_formula_moiety         'C12 H6 Br N3 O5'
_chemical_formula_sum            'C12 H6 Br N3 O5'
_chemical_formula_weight         352.11
_space_group_crystal_system      triclinic
_space_group_IT_number           2
_space_group_name_Hall           '-P 1'
_space_group_name_H-M_alt        'P -1'
_atom_sites_solution_hydrogens   mixed
_audit_creation_date             2016-04-07
_audit_creation_method
;
Olex2 1.2-beta
(compiled 2016.02.19 svn.r3266 for OlexSys, GUI svn.r5155)
;
_cell_angle_alpha                88.721(3)
_cell_angle_beta                 69.390(3)
_cell_angle_gamma                76.809(3)
_cell_formula_units_Z            2
_cell_length_a                   7.3227(6)
_cell_length_b                   9.1869(7)
_cell_length_c                   9.8318(7)
_cell_measurement_reflns_used    7415
_cell_measurement_temperature    100(2)
_cell_measurement_theta_max      26.14
_cell_measurement_theta_min      3.06
_cell_volume                     601.53(8)
_computing_cell_refinement       'SAINT v8.34A (Bruker, 2013)'
_computing_data_collection       'APEX2 v2013.6-2 (Bruker, 2013)'
_computing_data_reduction        'SAINT v8.34A (Bruker, 2013)'
_computing_molecular_graphics    'Olex2 (Dolomanov et al., 2009)'
_computing_publication_material  'Olex2 (Dolomanov et al., 2009)'
_computing_structure_refinement  'ShelXL (Sheldrick, 2015)'
_computing_structure_solution    'XT (Sheldrick, 2008)'
_diffrn_ambient_temperature      100.0
_diffrn_detector                 'Bruker APEX CCD'
_diffrn_detector_area_resol_mean 8.0
_diffrn_detector_type            'CCD Area Detector'
_diffrn_measured_fraction_theta_full 1.000
_diffrn_measured_fraction_theta_max 1.000
_diffrn_measurement_device       'Kappa Four-Circle Diffractometer'
_diffrn_measurement_device_type  'Bruker X8 APEX'
_diffrn_measurement_method       '\w and \f scans'
_diffrn_radiation_monochromator  graphite
_diffrn_radiation_probe          x-ray
_diffrn_radiation_type           MoK\a
_diffrn_radiation_wavelength     0.71073
_diffrn_reflns_av_R_equivalents  0.0375
_diffrn_reflns_av_unetI/netI     0.0285
_diffrn_reflns_Laue_measured_fraction_full 1.000
_diffrn_reflns_Laue_measured_fraction_max 1.000
_diffrn_reflns_limit_h_max       9
_diffrn_reflns_limit_h_min       -9
_diffrn_reflns_limit_k_max       10
_diffrn_reflns_limit_k_min       -11
_diffrn_reflns_limit_l_max       12
_diffrn_reflns_limit_l_min       -12
_diffrn_reflns_number            15457
_diffrn_reflns_point_group_measured_fraction_full 1.000
_diffrn_reflns_point_group_measured_fraction_max 1.000
_diffrn_reflns_theta_full        25.242
_diffrn_reflns_theta_max         26.014
_diffrn_reflns_theta_min         2.218
_diffrn_source                   'sealed tube'
_diffrn_source_type              fine-focus
_diffrn_standards_number         0
_exptl_absorpt_coefficient_mu    3.446
_exptl_absorpt_correction_T_max  0.4908
_exptl_absorpt_correction_T_min  0.3953
_exptl_absorpt_correction_type   multi-scan
_exptl_absorpt_process_details
;
SADABS-2014/5 (Bruker,2014/5) was used for absorption correction.
wR2(int) was 0.0860 before and 0.0453 after correction.
The Ratio of minimum to maximum transmission is 0.8054.
The \l/2 correction factor is 0.00150.
;
_exptl_crystal_colour            orange
_exptl_crystal_colour_primary    orange
_exptl_crystal_density_diffrn    1.944
_exptl_crystal_description       block
_exptl_crystal_F_000             348
_exptl_crystal_size_max          0.25
_exptl_crystal_size_mid          0.175
_exptl_crystal_size_min          0.15
_refine_diff_density_max         0.393
_refine_diff_density_min         -0.321
_refine_diff_density_rms         0.067
_refine_ls_extinction_method     none
_refine_ls_goodness_of_fit_ref   1.058
_refine_ls_hydrogen_treatment    mixed
_refine_ls_matrix_type           full
_refine_ls_number_parameters     216
_refine_ls_number_reflns         2361
_refine_ls_number_restraints     0
_refine_ls_restrained_S_all      1.058
_refine_ls_R_factor_all          0.0288
_refine_ls_R_factor_gt           0.0233
_refine_ls_shift/su_max          0.001
_refine_ls_shift/su_mean         0.000
_refine_ls_structure_factor_coef Fsqd
_refine_ls_weighting_details
'w=1/[\s^2^(Fo^2^)+(0.0262P)^2^+0.3025P] where P=(Fo^2^+2Fc^2^)/3'
_refine_ls_weighting_scheme      calc
_refine_ls_wR_factor_gt          0.0531
_refine_ls_wR_factor_ref         0.0553
_reflns_Friedel_coverage         0.000
_reflns_number_gt                2119
_reflns_number_total             2361
_reflns_threshold_expression     'I > 2\s(I)'
_cod_data_source_file            jo9b01041_si_003.cif
_cod_data_source_block           chamb_gs_093
_cod_depositor_comments
;
The following automatic conversions were performed:

data item '_diffrn_radiation_probe' value 'X-ray' was changed to
'x-ray' in accordance with the
/home/data/users/saulius/crontab/automatic-downloads/current/ACS/lib/dictionaries/cif_core.dic
dictionary named 'cif_core.dic' version 2.4.2 last updated on
2011-04-26.

Automatic conversion script
Id: cif_fix_values 6909 2019-04-08 15:41:33Z antanas 
;
_cod_database_code               4034198
_shelxl_version_number           2014-3
_shelx_space_group_comment
;
The symmetry employed for this shelxl refinement is uniquely defined
by the following loop, which should always be used as a source of
symmetry information in preference to the above space-group names.
They are only intended as comments.
;
_olex2_refinement_description
;
1. Fixed Uiso
 At 1.2 times of:
  All C(H) groups
 At 1.5 times of:
  All C(H,H,H) groups, All N(H) groups
2. Uiso/Uaniso restraints and constraints
Uanis(N3A) = Uanis(N3B)
3. Others
 Sof(O4B)=Sof(O5B)=Sof(N3B)=1-FVAR(1)
 Sof(O4A)=Sof(O5A)=Sof(N3A)=FVAR(1)
4.a Aromatic/amide H refined with riding coordinates:
 C3(H3), C7(H7)
4.b Idealised Me refined as rotating group:
 C12(H12A,H12B,H12C)
;
_shelx_res_file
;
TITL Chamb_GS_093 in P-1
CELL 0.71073 7.3227 9.1869 9.8318 88.721 69.39 76.809
ZERR 2 0.0006 0.0007 0.0007 0.003 0.003 0.003
LATT 1
SFAC C H Br N O
UNIT 24 12 2 6 10
EQIV $1 +X,+Y,1+Z
EADP N3A N3B

L.S. 10
PLAN  -3 0 0
TEMP -173.15
HTAB N1 O3_$1
BOND $H
fmap 2
acta
MORE -1
CONF
REM <olex2.extras>
REM <HklSrc "%.\\Chamb_GS_093.hkl">
REM </olex2.extras>

WGHT    0.026200    0.302500
FVAR       0.16283   0.48684
BR1   3    0.676998    0.694254    0.925308    11.00000    0.02815    0.02103 =
         0.01459    0.00898   -0.01024   -0.00461
O1    5    0.739298    1.274010    0.725216    11.00000    0.03785    0.01998 =
         0.01604    0.00098   -0.01344   -0.01178
O2    5    0.846068    1.231209    0.139885    11.00000    0.02714    0.01570 =
         0.00997    0.00436   -0.00851   -0.01021
O3    5    0.763586    1.036191    0.059304    11.00000    0.02364    0.01679 =
         0.01162    0.00202   -0.01022   -0.00662
PART -1
O4A   5    0.587322    0.508709    0.438492    21.00000    0.02878    0.02012 =
         0.02826    0.00523   -0.00730   -0.01588
PART 0
PART -2
O4B   5    0.876831    0.462556    0.373440   -21.00000    0.02777    0.01344 =
         0.03317   -0.00291   -0.00711   -0.00389
PART 0
PART -1
O5A   5    0.817007    0.583365    0.264068    21.00000    0.06198    0.02695 =
         0.01495   -0.00736    0.01017   -0.02663
PART 0
PART -2
O5B   5    0.687759    0.624301    0.284736   -21.00000    0.04032    0.02128 =
         0.01948    0.00318   -0.01559   -0.01282
PART 0
N1    4    0.719143    1.027889    0.778497    11.00000    0.02191    0.01933 =
         0.00734    0.00218   -0.00744   -0.00579
N2    4    0.759600    0.904373    0.316046    11.00000    0.01370    0.01474 =
         0.01074    0.00142   -0.00406   -0.00211
PART -1
N3A   4    0.705337    0.589647    0.392068    21.00000    0.01896    0.01143 =
         0.01689    0.00164   -0.00034   -0.00507
PART 0
H1    2    0.714441    1.030385    0.862373    11.00000   -1.50000
PART -2
N3B   4    0.773747    0.587928    0.371420   -21.00000    0.01896    0.01143 =
         0.01689    0.00164   -0.00034   -0.00507
PART 0
C1    1    0.734517    1.150158    0.690179    11.00000    0.01621    0.02021 =
         0.00962    0.00184   -0.00412   -0.00567
C2    1    0.746681    1.090296    0.544416    11.00000    0.01083    0.01660 =
         0.01188   -0.00002   -0.00456   -0.00419
C3    1    0.765917    1.147435    0.412067    11.00000    0.01421    0.01567 =
         0.01198    0.00264   -0.00407   -0.00607
AFIX  43
H3    2    0.775182    1.248083    0.394565    11.00000   -1.20000
AFIX   0
C4    1    0.771248    1.046796    0.301721    11.00000    0.00999    0.01530 =
         0.01056    0.00130   -0.00306   -0.00309
C5    1    0.744072    0.848660    0.448126    11.00000    0.01009    0.01495 =
         0.01228    0.00051   -0.00403   -0.00159
C6    1    0.732812    0.699646    0.488148    11.00000    0.02998    0.01254 =
         0.01688   -0.00063   -0.00961   -0.00336
C7    1    0.714935    0.657819    0.626126    11.00000    0.03889    0.01258 =
         0.02347    0.00621   -0.01497   -0.00400
AFIX  43
H7    2    0.707763    0.557692    0.648593    11.00000   -1.20000
AFIX   0
C8    1    0.706718    0.758890    0.737007    11.00000    0.01847    0.01708 =
         0.01377    0.00708   -0.00740   -0.00146
C9    1    0.719236    0.901922    0.703361    11.00000    0.01101    0.01745 =
         0.01059    0.00064   -0.00367   -0.00236
C10   1    0.736900    0.941777    0.560262    11.00000    0.00883    0.01522 =
         0.01060    0.00068   -0.00381   -0.00328
C11   1    0.792787    1.101893    0.152123    11.00000    0.01117    0.01349 =
         0.01090    0.00130   -0.00241   -0.00141
C12   1    0.877841    1.299101    0.001431    11.00000    0.02793    0.01987 =
         0.01129    0.00878   -0.00778   -0.01096
AFIX 137
H12A  2    0.996529    1.237473   -0.073325    11.00000   -1.50000
H12B  2    0.898467    1.399691    0.010118    11.00000   -1.50000
H12C  2    0.760008    1.306034   -0.026098    11.00000   -1.50000
AFIX   0
HKLF 4

REM  Chamb_GS_093 in P-1
REM R1 =  0.0233 for    2119 Fo > 4sig(Fo)  and  0.0288 for all    2361 data
REM    216 parameters refined using      0 restraints

END

WGHT      0.0262      0.3018

REM Highest difference peak  0.393,  deepest hole -0.321,  1-sigma level  0.067
Q1    1   0.7603  1.1154  0.6027  11.00000  0.05    0.39
Q2    1   0.7704  0.8919  0.5053  11.00000  0.05    0.38
Q3    1   0.7502  1.0112  0.5357  11.00000  0.05    0.34
;
_shelx_res_checksum              20136
_shelx_hkl_file
;
  -1   0   0    8.94    0.41
  -1   0   0    8.64    0.40
  -1   0   0    8.36    0.41
  -1   0   0    8.79    0.43
  -1   0   0    8.43    0.39
  -1   0   0    8.11    0.40
   1   0   0    8.25    0.40
   1   0   0    9.14    0.41
   1   0   0    7.95    0.41
   1   0   0    8.36    0.43
   1   0   0    8.02    0.38
   1   0   0    8.51    0.40
  -2   0   0  943.48   31.26
  -2   0   0  943.85   31.16
  -2   0   0  988.95   31.14
  -2   0   0  947.00   30.96
  -2   0   0 1000.00   31.02
  -2   0   0  966.97   30.91
  -2   0   0  932.62   30.94
   2   0   0  923.59   31.29
   2   0   0  943.48   30.95
   2   0   0  991.84   31.18
   2   0   0  967.05   30.97
   2   0   0  940.64   31.29
   2   0   0  952.02   30.92
   2   0   0  998.62   31.32
  -3   0   0   50.98    1.96
  -3   0   0   47.02    1.87
  -3   0   0   50.48    1.95
  -3   0   0   49.94    1.85
  -3   0   0   50.55    1.94
  -3   0   0   53.37    1.88
  -3   0   0   50.14    1.89
  -3   0   0   53.08    1.83
   3   0   0   48.73    1.87
   3   0   0   50.52    1.83
   3   0   0   51.91    1.95
   3   0   0   50.11    1.88
   3   0   0   49.62    1.90
   3   0   0   51.00    1.87
   3   0   0   48.20    1.93
  -4   0   0   51.52    2.06
  -4   0   0   54.68    2.17
  -4   0   0   51.75    2.01
  -4   0   0   54.45    2.09
  -4   0   0   51.22    2.16
  -4   0   0   54.20    2.05
   4   0   0   52.67    2.06
   4   0   0   52.77    2.04
   4   0   0   54.61    2.17
   4   0   0   54.53    2.07
   4   0   0   53.67    2.10
   4   0   0   51.63    2.14
   4   0   0   54.10    2.00
  -5   0   0   31.96    1.38
  -5   0   0   31.15    1.45
  -5   0   0   31.23    1.55
  -5   0   0   29.02    1.42
   5   0   0   31.39    1.47
   5   0   0   30.04    1.35
   5   0   0   33.10    1.46
   5   0   0   29.78    1.53
   5   0   0   31.24    1.44
   5   0   0   34.62    1.57
  -6   0   0    0.83    0.38
  -6   0   0    0.64    0.31
   6   0   0    0.92    0.40
   6   0   0    0.68    0.31
   6   0   0    0.56    0.28
   6   0   0    0.75    0.33
  -7   0   0    1.47    0.54
   7   0   0    1.81    0.51
   7   0   0    2.03    0.48
   7   0   0    2.00    0.47
  -8   0   0   -0.48    0.48
   8   0   0    0.06    0.33
   8   0   0   -0.09    0.41
   8   0   0   -0.46    0.36
   8  -1   0    2.90    0.76
   8  -1   0    2.49    0.59
  -8   1   0    1.69    0.67
   7  -1   0    7.75    0.71
   7  -1   0    8.24    0.77
   7  -1   0    7.62    1.00
  -7   1   0    8.28    0.91
   6  -1   0   35.46    1.56
   6  -1   0   33.49    1.79
   6  -1   0   34.90    1.61
   6  -1   0   34.36    1.66
  -6   1   0   38.62    1.90
  -6   1   0   34.94    1.74
   5  -1   0    0.16    0.22
   5  -1   0    0.31    0.22
   5  -1   0    0.53    0.21
   5  -1   0    0.35    0.22
   5  -1   0    0.12    0.24
   5  -1   0    0.35    0.29
  -5   1   0    0.13    0.21
  -5   1   0    0.41    0.27
  -5   1   0   -0.13    0.25
  -5   1   0    0.12    0.17
   4  -1   0  224.95    7.50
   4  -1   0  215.86    7.25
   4  -1   0  215.22    7.31
   4  -1   0  205.67    7.47
   4  -1   0  225.88    7.36
   4  -1   0  216.83    7.31
  -4   1   0  217.27    7.31
  -4   1   0  221.72    7.49
  -4   1   0  219.15    7.29
  -4   1   0  224.87    7.23
  -4   1   0  223.42    7.51
  -4   1   0  202.26    7.39
   3  -1   0   28.18    1.13
   3  -1   0   28.37    1.11
   3  -1   0   28.43    1.28
   3  -1   0   27.29    1.15
   3  -1   0   31.54    1.26
   3  -1   0   27.71    1.27
   3  -1   0   28.47    1.15
  -3   1   0   26.35    1.22
  -3   1   0   27.96    1.27
  -3   1   0   29.49    1.10
  -3   1   0   29.34    1.16
  -3   1   0   28.74    1.13
  -3   1   0   30.17    1.09
  -3   1   0   30.36    1.28
   2  -1   0  376.63   12.46
   2  -1   0  387.99   12.47
   2  -1   0  380.64   12.59
   2  -1   0  396.27   12.58
   2  -1   0  392.44   12.62
   2  -1   0  362.57   12.58
   2  -1   0  380.59   12.45
  -2   1   0  387.45   12.61
  -2   1   0  378.77   12.46
  -2   1   0  397.89   12.60
  -2   1   0  380.89   12.57
  -2   1   0  384.85   12.42
  -2   1   0  379.65   12.45
  -2   1   0  394.86   12.42
   1  -1   0   81.70    2.77
   1  -1   0   83.79    2.76
   1  -1   0   84.64    2.87
   1  -1   0   84.45    2.88
   1  -1   0   83.22    2.76
   1  -1   0   87.35    2.91
   1  -1   0   84.62    2.77
  -1   1   0   84.77    2.77
  -1   1   0   83.44    2.87
  -1   1   0   87.83    2.91
  -1   1   0   85.76    2.77
  -1  -1   0   39.09    1.32
  -1  -1   0   37.79    1.29
  -1  -1   0   35.96    1.32
  -1  -1   0   38.86    1.32
  -1  -1   0   37.06    1.34
  -1  -1   0   36.30    1.27
   1   1   0   35.83    1.32
   1   1   0   37.52    1.32
   1   1   0   37.51    1.32
   1   1   0   36.50    1.27
   1   1   0   36.72    1.33
   1   1   0   36.52    1.22
   1   1   0   36.48    1.29
   1   1   0   37.17    1.31
  -2  -1   0   22.69    0.88
  -2  -1   0   22.23    0.83
  -2  -1   0   23.47    0.94
  -2  -1   0   23.64    0.91
  -2  -1   0   21.71    0.94
  -2  -1   0   23.03    0.92
  -2  -1   0   22.63    0.92
   2   1   0   20.92    0.94
   2   1   0   20.30    0.91
   2   1   0   21.31    0.88
   2   1   0   21.98    0.91
   2   1   0   21.28    0.83
   2   1   0   22.18    0.90
   2   1   0   22.24    0.94
   2   1   0   22.99    0.94
  -3  -1   0    0.19    0.18
  -3  -1   0    0.05    0.12
  -3  -1   0    0.10    0.15
  -3  -1   0    0.10    0.12
  -3  -1   0    0.02    0.14
  -3  -1   0    0.19    0.17
  -3  -1   0    0.04    0.12
   3   1   0    0.05    0.13
   3   1   0    0.17    0.16
   3   1   0    0.32    0.19
   3   1   0    0.57    0.20
   3   1   0   -0.04    0.10
   3   1   0    0.16    0.17
   3   1   0    0.26    0.17
   3   1   0    0.19    0.15
  -4  -1   0    1.91    0.34
  -4  -1   0    2.41    0.39
  -4  -1   0    2.73    0.43
  -4  -1   0    2.26    0.33
  -4  -1   0    2.05    0.30
  -4  -1   0    2.69    0.41
  -4  -1   0    2.36    0.31
   4   1   0    2.36    0.32
   4   1   0    1.95    0.34
   4   1   0    2.56    0.32
   4   1   0    2.07    0.33
   4   1   0    2.65    0.40
   4   1   0    2.36    0.37
   4   1   0    1.29    0.30
  -5  -1   0   18.08    0.96
  -5  -1   0   19.65    1.01
  -5  -1   0   17.68    1.05
   5   1   0   18.44    1.07
   5   1   0   18.75    1.03
   5   1   0   21.94    1.14
   5   1   0   19.51    1.04
   5   1   0   18.98    1.08
   5   1   0   17.76    0.96
  -6  -1   0    3.23    0.55
  -6  -1   0    4.09    0.67
   6   1   0    3.65    0.60
   6   1   0    2.80    0.46
   6   1   0    2.78    0.53
   6   1   0    3.36    0.53
   6   1   0    2.85    0.49
   6   1   0    2.83    0.53
  -7  -1   0   15.48    1.23
   7   1   0   15.64    1.12
   7   1   0   15.43    1.01
   7   1   0   14.94    1.16
  -8  -1   0    6.90    0.97
   8   1   0    8.13    0.91
   8   1   0    5.83    0.78
   8   1   0    7.69    1.06
   7  -2   0    8.09    0.94
   7  -2   0    7.93    0.70
   7  -2   0    7.88    0.74
  -7   2   0    7.72    1.07
   6  -2   0   13.99    0.87
   6  -2   0   13.74    0.82
   6  -2   0   13.14    1.07
  -6   2   0   14.10    1.12
  -6   2   0   14.01    1.05
   5  -2   0   24.32    1.10
   5  -2   0   24.96    1.39
   5  -2   0   24.10    1.15
   5  -2   0   23.87    1.14
   5  -2   0   25.31    1.18
   5  -2   0   25.21    1.38
  -5   2   0   25.15    1.40
  -5   2   0   24.81    1.11
  -5   2   0   24.12    1.32
   4  -2   0    0.00    0.14
   4  -2   0   -0.07    0.13
   4  -2   0    0.16    0.14
   4  -2   0    0.11    0.22
   4  -2   0    0.01    0.21
   4  -2   0    0.24    0.16
  -4   2   0    0.16    0.22
  -4   2   0   -0.02    0.08
  -4   2   0    0.20    0.14
  -4   2   0   -0.07    0.23
  -4   2   0    0.05    0.09
   3  -2   0    1.30    0.29
   3  -2   0    1.43    0.20
   3  -2   0    1.82    0.21
   3  -2   0    1.90    0.23
   3  -2   0    1.14    0.29
   3  -2   0    1.86    0.20
   3  -2   0    1.25    0.30
   3  -2   0    1.37    0.30
  -3   2   0    1.57    0.19
  -3   2   0    1.46    0.18
  -3   2   0    1.44    0.12
  -3   2   0    1.64    0.32
  -3   2   0    1.39    0.33
  -3   2   0    1.62    0.12
   2  -2   0   49.08    1.71
   2  -2   0   49.13    1.71
   2  -2   0   51.33    1.90
   2  -2   0   50.22    1.91
   2  -2   0   48.28    1.69
   2  -2   0   48.83    1.70
   2  -2   0   49.68    1.89
   2  -2   0   50.55    1.96
  -2   2   0   51.01    1.91
  -2   2   0   49.47    1.67
  -2   2   0   50.73    1.68
  -2   2   0   50.00    1.96
   1  -2   0  101.28    3.25
   1  -2   0   98.25    3.23
   1  -2   0  103.25    3.42
   1  -2   0  100.93    3.51
   1  -2   0   96.19    3.36
   1  -2   0  102.41    3.23
   1  -2   0   99.30    3.26
  -1   2   0   96.97    3.41
  -1   2   0   99.86    3.50
   0  -2   0   38.72    1.33
   0  -2   0   38.26    1.32
   0  -2   0   38.73    1.34
   0  -2   0   39.29    1.36
   0  -2   0   38.12    1.37
   0  -2   0   40.29    1.31
   0  -2   0   37.21    1.38
   0   2   0   38.01    1.36
   0   2   0   38.76    1.31
   0   2   0   39.76    1.34
   0   2   0   38.27    1.30
   0   2   0   38.12    1.36
   0   2   0   39.83    1.37
   0   2   0   36.48    1.32
  -1  -2   0  207.16    6.74
  -1  -2   0  208.48    6.70
  -1  -2   0  211.32    6.75
  -1  -2   0  201.17    6.76
  -1  -2   0  202.87    6.73
  -1  -2   0  208.62    6.76
  -1  -2   0  201.85    6.65
   1   2   0  202.72    6.61
   1   2   0  211.17    6.74
   1   2   0  195.85    6.73
   1   2   0  204.22    6.75
   1   2   0  205.61    6.76
   1   2   0  201.84    6.66
   1   2   0  207.22    6.75
   1   2   0  200.17    6.70
  -2  -2   0    6.43    0.39
  -2  -2   0    6.51    0.42
  -2  -2   0    6.29    0.46
  -2  -2   0    6.15    0.42
  -2  -2   0    6.15    0.42
  -2  -2   0    6.04    0.44
   2   2   0    5.73    0.42
   2   2   0    5.94    0.43
   2   2   0    6.65    0.27
   2   2   0    5.72    0.36
   2   2   0    6.48    0.43
   2   2   0    6.26    0.39
   2   2   0    7.48    0.48
   2   2   0    6.62    0.43
   2   2   0    6.08    0.44
  -3  -2   0  114.03    4.02
  -3  -2   0  117.60    4.09
  -3  -2   0  110.91    4.11
  -3  -2   0  120.78    4.10
  -3  -2   0  119.07    4.02
  -3  -2   0  118.77    4.12
   3   2   0  114.17    3.89
   3   2   0  121.87    4.15
   3   2   0  112.92    4.09
   3   2   0  116.24    4.10
   3   2   0  119.73    4.10
   3   2   0  121.93    4.16
   3   2   0  114.43    4.02
   3   2   0  115.01    4.03
  -4  -2   0   36.50    1.62
  -4  -2   0   35.42    1.57
  -4  -2   0   38.05    1.57
  -4  -2   0   33.94    1.61
  -4  -2   0   38.70    1.53
   4   2   0   37.67    1.60
   4   2   0   37.51    1.42
   4   2   0   35.43    1.56
   4   2   0   37.80    1.54
   4   2   0   37.07    1.61
   4   2   0   37.72    1.65
   4   2   0   36.54    1.60
  -5  -2   0   10.01    0.73
  -5  -2   0    8.90    0.76
  -5  -2   0    9.18    0.71
   5   2   0    9.14    0.74
   5   2   0   12.20    0.84
   5   2   0    9.52    0.71
   5   2   0    9.35    0.58
   5   2   0    9.02    0.66
   5   2   0    9.02    0.70
   5   2   0    8.93    0.73
  -6  -2   0   19.16    1.23
   6   2   0   18.32    1.07
   6   2   0   18.89    1.19
   6   2   0   20.47    1.26
   6   2   0   19.87    1.18
   6   2   0   18.71    1.17
  -7  -2   0    1.60    0.52
  -7  -2   0    3.39    0.65
   7   2   0    4.58    0.65
   7   2   0    2.96    0.63
   7   2   0    2.67    0.61
  -8  -2   0    0.14    0.45
   8   2   0    1.21    0.59
   8   2   0    0.53    0.45
   8   2   0   -0.14    0.36
   7  -3   0    2.10    0.65
   7  -3   0    2.42    0.48
   7  -3   0    1.57    0.37
  -7   3   0    2.12    0.68
   6  -3   0    6.05    0.57
   6  -3   0    7.26    0.56
   6  -3   0    6.54    0.90
  -6   3   0    6.69    0.87
  -6   3   0    7.55    0.89
   5  -3   0    8.51    0.57
   5  -3   0    9.26    0.85
   5  -3   0    8.55    0.60
   5  -3   0    8.73    0.55
  -5   3   0    7.47    0.77
  -5   3   0    9.31    0.89
  -5   3   0    9.35    0.66
   4  -3   0    6.45    0.43
   4  -3   0    6.60    0.41
   4  -3   0    6.33    0.44
   4  -3   0    5.75    0.62
   4  -3   0    6.11    0.62
   4  -3   0    6.60    0.43
  -4   3   0    6.85    0.69
  -4   3   0    6.57    0.34
  -4   3   0    6.84    0.64
  -4   3   0    6.48    0.33
   3  -3   0   47.56    1.74
   3  -3   0   52.26    2.06
   3  -3   0   49.65    1.75
   3  -3   0   50.34    2.08
   3  -3   0   50.75    1.77
   3  -3   0   49.77    1.73
  -3   3   0   48.86    2.11
  -3   3   0   47.35    2.02
   2  -3   0    7.15    0.32
   2  -3   0    6.63    0.32
   2  -3   0    7.57    0.59
   2  -3   0    7.83    0.32
   2  -3   0    7.29    0.51
   2  -3   0    6.82    0.33
   2  -3   0    7.87    0.54
   2  -3   0    7.06    0.54
  -2   3   0    7.67    0.60
  -2   3   0    6.25    0.49
   1  -3   0   19.82    0.90
   1  -3   0   21.18    1.04
   1  -3   0   20.55    0.72
   1  -3   0   20.34    0.72
   1  -3   0   20.76    0.86
   1  -3   0   20.11    0.73
  -1   3   0   18.90    0.90
   0  -3   0  100.01    3.35
   0  -3   0   98.61    3.39
   0  -3   0   96.81    3.40
   0  -3   0   97.42    3.32
   0  -3   0   95.83    3.30
   0  -3   0  101.11    3.31
   0  -3   0   99.87    3.28
   0   3   0   97.07    3.35
   0   3   0   99.19    3.35
   0   3   0  100.90    3.35
   0   3   0   98.39    3.29
   0   3   0   98.80    3.31
   0   3   0  100.14    3.28
   0   3   0   99.14    3.26
  -1  -3   0    7.09    0.42
  -1  -3   0    7.44    0.35
  -1  -3   0    7.61    0.44
  -1  -3   0    7.37    0.42
  -1  -3   0    6.69    0.38
  -1  -3   0    6.45    0.43
  -1  -3   0    7.68    0.44
   1   3   0    7.16    0.45
   1   3   0    7.09    0.32
   1   3   0    7.44    0.41
   1   3   0    6.64    0.41
   1   3   0    8.26    0.47
   1   3   0    6.95    0.44
  -2  -3   0  126.16    4.32
  -2  -3   0  131.03    4.47
  -2  -3   0  131.66    4.47
  -2  -3   0  128.90    4.47
  -2  -3   0  130.75    4.40
  -2  -3   0  134.01    4.50
  -2  -3   0  127.67    4.50
   2   3   0  125.86    4.48
   2   3   0  129.29    4.40
   2   3   0  135.52    4.52
   2   3   0  129.18    4.46
   2   3   0  130.96    4.47
   2   3   0  130.80    4.34
   2   3   0  125.74    4.45
  -3  -3   0   52.19    2.12
  -3  -3   0   55.12    2.08
  -3  -3   0   50.42    1.94
  -3  -3   0   49.85    2.05
  -3  -3   0   53.96    2.10
  -3  -3   0   56.76    2.02
   3   3   0   55.89    2.10
   3   3   0   50.20    2.06
   3   3   0   52.74    2.07
   3   3   0   50.73    2.10
   3   3   0   50.28    1.95
   3   3   0   54.08    2.12
   3   3   0   55.76    2.08
   3   3   0   54.43    2.00
  -4  -3   0    8.41    0.64
  -4  -3   0    9.07    0.60
  -4  -3   0    8.67    0.70
  -4  -3   0    8.57    0.57
  -4  -3   0    7.15    0.62
   4   3   0    8.87    0.60
   4   3   0    8.67    0.66
   4   3   0    9.05    0.66
   4   3   0    8.68    0.69
   4   3   0   10.50    0.74
   4   3   0    8.34    0.65
   4   3   0    7.75    0.58
  -5  -3   0   32.05    1.48
  -5  -3   0   32.03    1.62
  -5  -3   0   33.15    1.55
   5   3   0   30.07    1.46
   5   3   0   30.41    1.45
   5   3   0   31.08    1.56
   5   3   0   32.15    1.55
   5   3   0   34.94    1.67
   5   3   0   33.42    1.56
  -6  -3   0   13.98    1.05
  -6  -3   0   15.73    1.30
   6   3   0   12.75    0.97
   6   3   0   14.15    1.03
   6   3   0   13.81    0.92
   6   3   0   13.46    0.94
   6   3   0   11.84    1.02
  -7  -3   0    1.78    0.52
   7   3   0    1.69    0.52
   7   3   0    2.84    0.55
   7   3   0    1.92    0.55
  -8  -3   0   11.47    1.18
   8   3   0   12.24    1.16
   8   3   0   12.49    1.17
   8   3   0   13.01    1.10
   6  -4   0    0.48    0.23
   6  -4   0    0.32    0.42
   6  -4   0    0.54    0.24
  -6   4   0   -0.04    0.41
  -6   4   0   -0.14    0.41
   5  -4   0   13.25    1.07
   5  -4   0   11.86    0.66
   5  -4   0   13.36    0.72
   5  -4   0   14.71    0.68
  -5   4   0   11.37    0.97
  -5   4   0   10.94    1.04
   4  -4   0    9.72    0.50
   4  -4   0   10.01    0.84
   4  -4   0   11.17    0.84
   4  -4   0    9.58    0.52
   4  -4   0    9.54    0.49
   4  -4   0    9.84    0.53
  -4   4   0   10.71    0.92
  -4   4   0    8.89    0.80
   3  -4   0    0.16    0.19
   3  -4   0    0.10    0.22
   3  -4   0   -0.04    0.18
   3  -4   0    0.00    0.07
   3  -4   0   -0.01    0.08
   3  -4   0   -0.02    0.08
   3  -4   0   -0.05    0.08
  -3   4   0   -0.27    0.19
  -3   4   0   -0.04    0.27
   2  -4   0   16.71    0.89
   2  -4   0   17.21    0.62
   2  -4   0   17.41    0.64
   2  -4   0   17.04    0.64
   2  -4   0   17.72    0.87
   2  -4   0   16.55    0.64
   2  -4   0   17.59    0.96
  -2   4   0   16.88    0.93
   1  -4   0   21.01    0.75
   1  -4   0   21.47    1.14
   1  -4   0   23.95    1.00
   1  -4   0   20.87    0.78
   1  -4   0   19.67    0.76
   1  -4   0   20.21    0.93
   1  -4   0   18.31    0.76
   1  -4   0   20.50    0.92
  -1   4   0   19.96    0.97
   0  -4   0    1.65    0.27
   0  -4   0    2.24    0.30
   0  -4   0    2.15    0.27
   0  -4   0    1.87    0.21
   0  -4   0    1.90    0.19
   0  -4   0    1.42    0.19
   0  -4   0    1.90    0.23
   0   4   0    1.99    0.21
   0   4   0    1.98    0.25
   0   4   0    1.90    0.22
   0   4   0    2.15    0.19
   0   4   0    1.67    0.17
   0   4   0    1.66    0.24
   0   4   0    1.43    0.23
  -1  -4   0   18.61    0.92
  -1  -4   0   20.51    0.79
  -1  -4   0   20.51    0.81
  -1  -4   0   19.72    0.92
  -1  -4   0   19.27    0.88
  -1  -4   0   19.31    0.88
  -1  -4   0   20.40    0.84
  -1  -4   0   19.87    0.92
   1   4   0   20.47    0.83
   1   4   0   19.94    0.93
   1   4   0   20.62    0.88
   1   4   0   20.53    0.87
   1   4   0   20.52    0.92
   1   4   0   19.63    0.78
   1   4   0   19.55    0.91
  -2  -4   0   65.86    2.34
  -2  -4   0   74.70    2.60
  -2  -4   0   68.49    2.45
  -2  -4   0   72.05    2.53
  -2  -4   0   66.69    2.51
  -2  -4   0   66.33    2.51
  -2  -4   0   66.97    2.54
   2   4   0   70.28    2.54
   2   4   0   69.17    2.51
   2   4   0   65.91    2.36
   2   4   0   63.96    2.43
   2   4   0   68.22    2.56
   2   4   0   62.88    2.49
   2   4   0   69.77    2.56
  -3  -4   0    0.25    0.22
  -3  -4   0    0.32    0.20
  -3  -4   0    0.06    0.19
  -3  -4   0    0.13    0.16
  -3  -4   0   -0.08    0.14
  -3  -4   0    0.03    0.11
  -3  -4   0    0.09    0.19
   3   4   0    0.61    0.26
   3   4   0    0.18    0.21
   3   4   0    0.17    0.19
   3   4   0    0.22    0.21
   3   4   0    0.06    0.16
   3   4   0   -0.02    0.18
   3   4   0    0.17    0.14
  -4  -4   0   93.43    3.34
  -4  -4   0   96.25    3.54
  -4  -4   0   90.70    3.58
  -4  -4   0   94.54    3.42
   4   4   0   93.15    3.57
   4   4   0   94.46    3.43
   4   4   0   95.09    3.36
   4   4   0   94.88    3.51
   4   4   0   87.65    3.49
  -5  -4   0    8.92    0.76
  -5  -4   0    8.88    0.65
  -5  -4   0   10.39    0.87
   5   4   0    9.34    0.83
   5   4   0    9.47    0.72
   5   4   0    9.10    0.67
   5   4   0   10.28    0.79
   5   4   0    9.94    0.82
   5   4   0    7.63    0.73
  -6  -4   0   15.67    1.09
  -6  -4   0   15.03    1.01
  -6  -4   0   17.11    1.19
   6   4   0   15.66    1.03
   6   4   0   18.06    1.24
   6   4   0   13.33    1.07
   6   4   0   15.86    1.11
   6   4   0   15.24    1.01
  -7  -4   0    4.86    0.82
   7   4   0    5.58    0.75
   7   4   0    6.06    0.84
   7   4   0    4.31    0.73
   8   4   0    0.02    0.44
   8   4   0   -0.32    0.39
   8   4   0   -0.05    0.39
   6  -5   0    1.16    0.62
   6  -5   0    0.69    0.23
   5  -5   0    8.53    0.50
   5  -5   0    8.40    0.45
   5  -5   0   10.18    0.59
   5  -5   0    9.58    1.01
   5  -5   0    9.42    0.96
  -5   5   0    9.19    0.93
   4  -5   0    0.38    0.13
   4  -5   0    0.52    0.10
   4  -5   0    0.22    0.29
   4  -5   0    0.42    0.16
   4  -5   0    0.44    0.35
   4  -5   0    0.36    0.10
   4  -5   0    0.75    0.30
  -4   5   0    0.17    0.33
   3  -5   0   12.93    0.90
   3  -5   0   15.05    0.89
   3  -5   0   13.81    0.99
   3  -5   0   13.79    0.58
   3  -5   0   14.10    0.58
   3  -5   0   14.40    0.50
  -3   5   0   14.81    0.97
   2  -5   0   22.96    0.84
   2  -5   0   22.92    0.83
   2  -5   0   20.85    0.83
   2  -5   0   22.10    1.08
   2  -5   0   22.59    0.81
   2  -5   0   24.67    1.17
   2  -5   0   24.40    1.11
  -2   5   0   22.22    1.16
   1  -5   0    1.25    0.18
   1  -5   0    1.18    0.15
   1  -5   0    1.59    0.28
   1  -5   0    1.30    0.32
   1  -5   0    1.04    0.17
   1  -5   0    1.56    0.27
   1  -5   0    0.87    0.13
  -1   5   0    1.23    0.10
  -1   5   0    1.92    0.33
  -1   5   0    1.06    0.09
   0  -5   0   91.01    3.30
   0  -5   0  100.39    3.40
   0  -5   0   91.80    3.44
   0  -5   0   97.73    3.27
   0  -5   0   93.08    3.46
   0  -5   0   95.86    3.31
   0  -5   0   93.28    3.33
   0   5   0  101.52    3.31
   0   5   0   93.04    3.36
   0   5   0   97.58    3.39
   0   5   0   96.48    3.27
   0   5   0   97.85    3.21
   0   5   0   98.12    3.36
   0   5   0   95.06    3.23
  -1  -5   0   63.65    2.27
  -1  -5   0   62.05    2.35
  -1  -5   0   63.06    2.39
  -1  -5   0   66.87    2.37
  -1  -5   0   62.12    2.40
  -1  -5   0   62.72    2.42
  -1  -5   0   63.80    2.29
   1   5   0   65.66    2.27
   1   5   0   63.31    2.25
   1   5   0   62.80    2.32
   1   5   0   61.90    2.39
   1   5   0   64.95    2.37
   1   5   0   65.57    2.32
   1   5   0   63.19    2.38
  -2  -5   0   40.31    1.69
  -2  -5   0   41.35    1.64
  -2  -5   0   41.21    1.72
  -2  -5   0   43.20    1.53
  -2  -5   0   41.56    1.73
  -2  -5   0   41.63    1.75
  -2  -5   0   41.55    1.76
   2   5   0   41.93    1.69
   2   5   0   39.95    1.74
   2   5   0   41.63    1.70
   2   5   0   42.68    1.74
   2   5   0   42.03    1.74
  -3  -5   0   52.04    2.16
  -3  -5   0   53.37    2.07
  -3  -5   0   55.95    2.18
  -3  -5   0   49.67    2.20
  -3  -5   0   50.38    2.15
  -3  -5   0   50.79    1.93
   3   5   0   52.63    2.14
   3   5   0   56.12    2.16
   3   5   0   52.20    2.06
   3   5   0   53.17    1.96
   3   5   0   51.28    2.18
   3   5   0   57.83    2.21
  -4  -5   0    0.38    0.29
  -4  -5   0    0.20    0.25
  -4  -5   0    0.17    0.21
  -4  -5   0    0.43    0.19
   4   5   0    0.57    0.29
   4   5   0    0.32    0.23
   4   5   0    0.62    0.22
   4   5   0    0.58    0.29
   4   5   0    0.53    0.31
  -5  -5   0    9.22    0.64
  -5  -5   0    7.92    0.82
  -5  -5   0   10.03    0.82
   5   5   0    8.86    0.79
   5   5   0    8.92    0.67
   5   5   0    8.95    0.73
   5   5   0    9.16    0.81
   5   5   0    8.30    0.81
  -6  -5   0    3.31    0.61
  -6  -5   0    3.81    0.73
  -6  -5   0    4.99    0.58
   6   5   0    3.29    0.53
   6   5   0    4.55    0.63
   6   5   0    3.91    0.69
   6   5   0    4.03    0.68
  -7  -5   0   -0.19    0.44
   7   5   0   -0.48    0.34
   7   5   0   -0.25    0.32
  -8  -5   0    0.16    0.52
   8   5   0   -0.10    0.46
   8   5   0    0.37    0.46
   5  -6   0    0.09    0.16
   5  -6   0    0.40    0.42
   5  -6   0    0.28    0.13
  -5   6   0   -0.10    0.38
   4  -6   0   15.40    1.06
   4  -6   0   15.63    0.63
   4  -6   0   14.06    0.60
   4  -6   0   13.51    1.13
  -4   6   0   15.73    1.16
   3  -6   0   17.20    0.71
   3  -6   0   16.18    1.17
   3  -6   0   18.24    0.69
   3  -6   0   17.88    1.04
   3  -6   0   20.11    1.17
   3  -6   0   20.06    1.09
  -3   6   0   18.07    1.15
   2  -6   0   16.87    0.70
   2  -6   0   16.92    0.64
   2  -6   0   17.09    0.95
   2  -6   0   16.28    0.95
   2  -6   0   18.08    1.00
   2  -6   0   16.78    0.68
   2  -6   0   17.24    0.67
  -2   6   0   17.37    1.04
   1  -6   0   42.58    1.85
   1  -6   0   42.53    1.64
   1  -6   0   44.35    1.60
   1  -6   0   45.74    1.64
   1  -6   0   45.47    1.62
   1  -6   0   43.21    1.84
  -1   6   0   46.84    1.89
   0  -6   0    0.04    0.19
   0  -6   0    0.09    0.14
   0  -6   0    0.18    0.15
   0  -6   0    0.18    0.20
   0  -6   0   -0.21    0.15
   0  -6   0    0.27    0.15
   0  -6   0    0.23    0.17
   0   6   0    0.14    0.13
   0   6   0    0.18    0.18
   0   6   0   -0.16    0.16
   0   6   0    0.12    0.15
  -1  -6   0    6.90    0.56
  -1  -6   0    5.88    0.52
  -1  -6   0    5.88    0.49
  -1  -6   0    6.03    0.44
  -1  -6   0    6.36    0.53
  -1  -6   0    6.55    0.44
  -1  -6   0    6.81    0.50
   1   6   0    6.32    0.53
   1   6   0    7.31    0.53
   1   6   0    6.54    0.44
   1   6   0    7.19    0.50
   1   6   0    6.94    0.44
  -2  -6   0   11.56    0.68
  -2  -6   0   12.50    0.76
  -2  -6   0   11.00    0.56
  -2  -6   0   13.24    0.80
  -2  -6   0   10.69    0.77
  -2  -6   0   12.62    0.80
  -2  -6   0   10.45    0.73
   2   6   0   11.60    0.67
   2   6   0   11.61    0.78
   2   6   0   12.60    0.79
   2   6   0   11.76    0.72
  -3  -6   0    3.84    0.43
  -3  -6   0    5.26    0.53
  -3  -6   0    4.32    0.55
  -3  -6   0    3.35    0.53
  -3  -6   0    3.40    0.53
  -3  -6   0    3.72    0.33
   3   6   0    3.34    0.51
   3   6   0    3.62    0.41
   3   6   0    3.00    0.46
  -4  -6   0    2.29    0.42
  -4  -6   0    3.11    0.55
  -4  -6   0    2.62    0.49
  -4  -6   0    1.78    0.45
  -4  -6   0    3.13    0.35
   4   6   0    1.82    0.44
   4   6   0    2.26    0.49
   4   6   0    1.89    0.38
   4   6   0    1.83    0.31
  -5  -6   0   11.72    0.76
  -5  -6   0   13.27    1.00
  -5  -6   0   12.93    1.07
  -5  -6   0   13.75    0.92
   5   6   0   13.52    1.01
   5   6   0   13.85    0.82
   5   6   0   13.14    0.90
   5   6   0   11.82    0.98
  -6  -6   0    0.28    0.27
  -6  -6   0   -0.40    0.32
  -6  -6   0    0.05    0.35
   6   6   0    0.31    0.30
   6   6   0    0.12    0.32
   6   6   0    0.70    0.43
  -7  -6   0    5.05    0.93
   7   6   0    5.86    0.92
   7   6   0    6.32    1.24
  -8  -6   0    1.88    0.73
   5  -7   0   10.56    1.18
   4  -7   0    2.27    0.60
   4  -7   0    2.75    0.54
   4  -7   0    3.71    0.63
  -4   7   0    1.94    0.59
   3  -7   0    7.93    0.72
   3  -7   0    7.44    0.38
   3  -7   0    6.43    0.89
   3  -7   0    8.14    0.78
   3  -7   0    7.19    0.73
   3  -7   0    7.26    0.34
  -3   7   0    7.59    0.81
   2  -7   0   24.81    0.96
   2  -7   0   25.37    0.96
   2  -7   0   26.86    1.34
   2  -7   0   25.51    1.33
   2  -7   0   24.88    1.29
   2  -7   0   25.57    1.00
   2  -7   0   23.66    0.91
  -2   7   0   25.21    1.37
   1  -7   0    0.56    0.28
   1  -7   0    0.58    0.18
   1  -7   0    0.63    0.19
   1  -7   0    0.69    0.17
   1  -7   0    0.25    0.24
   1  -7   0    0.39    0.15
  -1   7   0    0.27    0.25
   0  -7   0   14.33    0.91
   0  -7   0   15.05    0.77
   0  -7   0   14.69    0.73
   0  -7   0   15.21    0.79
   0  -7   0   13.30    0.88
   0  -7   0   15.65    0.82
   0   7   0   16.14    0.85
   0   7   0   15.50    0.86
  -1  -7   0    8.85    0.60
  -1  -7   0    6.29    0.50
  -1  -7   0    6.41    0.59
  -1  -7   0    6.00    0.54
  -1  -7   0    7.97    0.62
  -1  -7   0    7.52    0.63
  -1  -7   0    7.23    0.50
   1   7   0    6.59    0.51
   1   7   0    7.18    0.53
   1   7   0    6.51    0.56
   1   7   0    7.27    0.57
   1   7   0    7.54    0.46
  -2  -7   0    0.34    0.21
  -2  -7   0    0.36    0.24
  -2  -7   0    0.21    0.22
  -2  -7   0    0.23    0.25
  -2  -7   0    0.08    0.23
  -2  -7   0   -0.09    0.22
  -2  -7   0    0.01    0.13
   2   7   0    0.15    0.18
   2   7   0   -0.17    0.18
   2   7   0    0.00    0.20
   2   7   0    0.14    0.23
  -3  -7   0    5.19    0.70
  -3  -7   0    4.50    0.61
  -3  -7   0    5.04    0.65
  -3  -7   0    5.70    0.54
  -3  -7   0    5.13    0.38
   3   7   0    4.84    0.61
   3   7   0    5.83    0.66
  -4  -7   0    4.11    0.63
  -4  -7   0    4.49    0.58
  -4  -7   0    4.38    0.65
  -4  -7   0    4.74    0.41
  -4  -7   0    2.86    0.58
   4   7   0    3.81    0.41
   4   7   0    3.65    0.58
   4   7   0    3.05    0.48
   4   7   0    3.76    0.63
  -5  -7   0   -0.02    0.32
  -5  -7   0   -0.01    0.38
  -5  -7   0    0.34    0.22
   5   7   0   -0.41    0.29
   5   7   0    0.19    0.22
   5   7   0    0.12    0.32
  -6  -7   0    2.42    0.69
  -6  -7   0    3.16    0.66
   6   7   0    2.84    0.66
  -7  -7   0    7.94    1.17
   7   7   0    6.71    1.01
   4  -8   0    0.42    0.47
   3  -8   0    2.12    0.60
   3  -8   0    2.53    0.20
   3  -8   0    2.60    0.23
   3  -8   0    2.93    0.55
  -3   8   0    2.59    0.62
   2  -8   0    6.16    0.66
   2  -8   0    4.86    0.65
   2  -8   0    4.82    0.37
   2  -8   0    5.55    0.64
   2  -8   0    4.13    0.30
   2  -8   0    5.39    0.35
  -2   8   0    4.92    0.74
   1  -8   0    1.11    0.23
   1  -8   0    1.25    0.26
   1  -8   0    1.26    0.38
   1  -8   0    1.24    0.34
   1  -8   0    1.17    0.26
   1  -8   0    0.90    0.37
  -1   8   0    1.14    0.39
   0  -8   0   15.95    0.81
   0  -8   0   16.15    1.01
   0  -8   0   14.36    0.85
   0  -8   0   14.50    0.86
   0  -8   0   17.57    1.05
   0   8   0   16.32    0.91
   0   8   0   15.35    0.95
  -1  -8   0    2.56    0.42
  -1  -8   0    3.16    0.41
  -1  -8   0    3.35    0.41
  -1  -8   0    2.70    0.48
  -1  -8   0    3.44    0.51
  -1  -8   0    3.61    0.48
  -1  -8   0    2.50    0.45
   1   8   0    2.84    0.33
   1   8   0    2.96    0.40
   1   8   0    3.01    0.45
  -2  -8   0    6.50    0.65
  -2  -8   0    6.64    0.67
  -2  -8   0    5.78    0.69
  -2  -8   0    6.58    0.61
  -2  -8   0    6.73    0.46
  -2  -8   0    6.18    0.55
  -2  -8   0    5.41    0.70
   2   8   0    7.64    0.69
   2   8   0    5.94    0.60
  -3  -8   0   27.29    1.09
  -3  -8   0   25.79    1.41
  -3  -8   0   24.37    1.41
  -3  -8   0   26.16    1.50
   3   8   0   24.66    1.43
  -4  -8   0    0.23    0.21
  -4  -8   0    0.14    0.34
  -4  -8   0    1.04    0.42
  -4  -8   0    1.31    0.48
   4   8   0    0.71    0.39
   4   8   0    0.08    0.30
  -5  -8   0   28.27    1.76
  -5  -8   0   25.28    1.61
   5   8   0   29.10    1.72
   5   8   0   27.06    1.60
  -6  -8   0    4.18    0.87
  -6  -8   0    5.41    0.88
   6   8   0    5.87    0.88
  -7  -8   0    1.87    0.75
   7   8   0    2.86    0.75
   3  -9   0    2.85    0.22
   3  -9   0    2.40    0.19
   3  -9   0    1.62    0.60
   2  -9   0    7.57    0.50
   2  -9   0    8.09    0.47
   1  -9   0   23.21    1.09
   1  -9   0   22.23    1.06
   1  -9   0   23.33    1.04
   1  -9   0   21.98    1.32
   1  -9   0   25.39    1.73
   0  -9   0    0.48    0.33
   0  -9   0    0.23    0.26
   0  -9   0    0.52    0.25
   0  -9   0    0.40    0.24
   0  -9   0    1.19    0.38
  -1  -9   0   41.89    1.88
  -1  -9   0   36.78    1.75
  -1  -9   0   37.54    1.81
  -1  -9   0   41.81    1.89
   1   9   0   39.96    1.77
  -2  -9   0    3.64    0.61
  -2  -9   0    3.94    0.63
  -2  -9   0    3.69    0.58
  -2  -9   0    4.72    0.65
   2   9   0    3.58    0.57
  -3  -9   0   11.44    0.94
  -3  -9   0   12.93    0.94
  -3  -9   0   11.17    1.00
   3   9   0   10.16    0.90
   3   9   0   12.40    0.96
  -4  -9   0    2.80    0.64
  -4  -9   0    3.01    0.66
  -4  -9   0    2.23    0.59
   4   9   0    2.89    0.57
   4   9   0    3.54    0.65
  -5  -9   0    1.01    0.52
  -5  -9   0    1.19    0.53
   5   9   0   -0.19    0.38
  -6  -9   0    0.75    0.56
  -6  -9   0    0.61    0.56
   6   9   0    0.71    0.51
   2 -10   0    3.07    0.37
   1 -10   0    0.25    0.24
   0 -10   0    7.81    0.68
   0 -10   0    8.10    0.70
  -1 -10   0    4.49    0.63
  -1 -10   0    5.97    0.68
  -1 -10   0    4.53    0.65
  -2 -10   0    0.10    0.33
  -2 -10   0    0.19    0.36
  -2 -10   0    0.49    0.34
  -3 -10   0    8.20    0.94
  -3 -10   0    7.65    0.83
  -3 -10   0    7.40    0.82
  -4 -10   0    8.31    1.02
  -4 -10   0    8.55    0.90
  -4 -10   0    8.07    1.06
  -5 -10   0    0.61    0.51
  -5 -10   0    0.93    0.61
   0 -11   0    7.69    0.72
  -1 -11   0   -0.13    0.31
  -1 -11   0    0.20    0.31
  -2 -11   0   17.65    1.22
  -2 -11   0   17.30    1.27
  -3 -11   0    2.20    0.62
  -3 -11   0    1.26    0.50
  -3 -11   1    0.37    0.50
  -3 -11   1    0.98    0.55
  -3 -11   1    0.75    0.50
  -2 -11   1   12.41    1.06
  -2 -11   1   13.25    1.14
  -1 -11   1    1.54    0.46
  -1 -11   1    1.29    0.44
   0 -11   1    1.99    0.46
  -5 -10   1    7.52    1.05
  -5 -10   1    8.00    1.14
  -4 -10   1    0.33    0.45
  -4 -10   1    1.01    0.51
  -4 -10   1    0.30    0.42
   3  10  -1    7.21    0.86
  -3 -10   1    8.77    0.96
  -3 -10   1    8.24    1.05
  -3 -10   1    8.11    0.88
  -2 -10   1    4.48    0.70
  -2 -10   1    4.16    0.72
  -2 -10   1    4.81    0.74
  -2 -10   1    5.91    0.85
  -1 -10   1    0.01    0.31
  -1 -10   1    0.21    0.31
  -1 -10   1    1.24    0.48
   0 -10   1   20.77    1.13
   0 -10   1   17.73    1.07
   0 -10   1   20.58    1.33
   1 -10   1    3.14    0.46
   1 -10   1    1.94    0.36
   2 -10   1    8.65    0.55
   6   9  -1    4.29    0.86
  -6  -9   1    4.25    0.93
   5   9  -1    0.25    0.42
  -5  -9   1    1.22    0.53
  -5  -9   1    0.40    0.48
  -5  -9   1    0.09    0.48
   4   9  -1   17.57    1.25
  -4  -9   1   17.07    1.36
  -4  -9   1   19.98    1.36
  -4  -9   1   16.04    1.23
   3   9  -1   12.57    1.01
   3   9  -1   12.26    0.96
  -3  -9   1   10.55    0.99
  -3  -9   1   13.65    1.05
  -3  -9   1   12.93    1.09
  -3  -9   1   12.09    1.05
   2   9  -1   20.81    1.27
  -2  -9   1   21.31    1.33
  -2  -9   1   18.60    1.18
  -2  -9   1   17.57    1.22
  -2  -9   1   18.59    1.23
   1   9  -1   14.05    1.00
  -1  -9   1   14.90    0.96
  -1  -9   1   14.68    1.08
  -1  -9   1   16.19    1.14
  -1  -9   1   14.11    0.98
   0   9  -1   -0.02    0.27
   0  -9   1    0.10    0.33
   0  -9   1   -0.39    0.27
   0  -9   1    0.28    0.24
   0  -9   1   -0.08    0.21
   1  -9   1    2.42    0.34
   1  -9   1    1.89    0.54
   1  -9   1    2.84    0.37
   1  -9   1    2.92    0.62
   1  -9   1    2.03    0.34
   2  -9   1   12.07    0.62
   2  -9   1   10.36    1.00
   2  -9   1   12.16    0.60
   3  -9   1    2.37    0.69
   3  -9   1    1.67    0.60
   6   8  -1    1.95    0.67
  -6  -8   1    3.74    0.84
   5   8  -1   32.41    1.81
  -5  -8   1   32.38    1.87
  -5  -8   1   27.28    1.80
  -5  -8   1   31.30    1.79
   4   8  -1    1.58    0.52
   4   8  -1    0.65    0.41
  -4  -8   1    1.73    0.54
  -4  -8   1    1.42    0.47
  -4  -8   1    1.79    0.53
   3   8  -1   14.60    1.02
   3   8  -1   16.08    1.16
  -3  -8   1   15.41    1.09
  -3  -8   1   15.33    1.09
  -3  -8   1   16.26    1.13
  -3  -8   1   13.12    1.09
   2   8  -1   39.60    1.87
   2   8  -1   36.57    1.69
  -2  -8   1   35.51    1.80
  -2  -8   1   38.23    1.34
  -2  -8   1   39.57    1.80
  -2  -8   1   38.03    1.69
  -2  -8   1   40.20    1.94
  -2  -8   1   40.93    1.80
  -2  -8   1   36.26    1.86
   1   8  -1    0.54    0.24
   1   8  -1    0.16    0.29
   1   8  -1    0.09    0.27
  -1  -8   1    0.56    0.36
  -1  -8   1    0.16    0.23
  -1  -8   1    0.66    0.33
  -1  -8   1    0.21    0.27
  -1  -8   1    0.27    0.29
  -1  -8   1    0.18    0.14
  -1  -8   1    0.46    0.22
  -1  -8   1    0.41    0.15
   0   8  -1   34.11    1.59
   0  -8   1   34.92    1.71
   0  -8   1   33.19    1.46
   0  -8   1   34.05    1.73
   0  -8   1   32.90    1.40
   0  -8   1   34.38    1.39
   0  -8   1   30.77    1.46
   1  -8   1   12.72    0.97
   1  -8   1   10.94    0.71
   1  -8   1   11.03    0.90
   1  -8   1   10.99    0.60
   1  -8   1    9.38    0.61
   1  -8   1   10.91    0.62
   2  -8   1    0.21    0.08
   2  -8   1    0.25    0.32
   2  -8   1    0.16    0.12
   2  -8   1    0.48    0.33
   2  -8   1    0.01    0.14
   2  -8   1    0.61    0.31
   3  -8   1    5.63    0.69
   3  -8   1    5.51    0.75
   3  -8   1    6.57    0.83
   3  -8   1    6.58    0.91
   4  -8   1    3.98    0.72
   4  -8   1    4.17    0.81
   7   7  -1    8.15    1.11
  -7  -7   1    7.84    1.21
   6   7  -1    3.05    0.69
  -6  -7   1    2.39    0.67
   5   7  -1    0.01    0.36
   5   7  -1   -0.46    0.26
  -5  -7   1    0.35    0.39
  -5  -7   1    0.24    0.38
  -5  -7   1    0.61    0.43
   4   7  -1    5.64    0.44
   4   7  -1    7.16    0.76
   4   7  -1    8.46    0.83
   4   7  -1    7.31    0.65
  -4  -7   1    7.18    0.81
  -4  -7   1    7.24    0.79
  -4  -7   1    6.51    0.84
  -4  -7   1    6.56    0.45
   3   7  -1   13.49    0.92
   3   7  -1   13.42    0.84
   3   7  -1   12.29    0.98
  -3  -7   1   14.47    1.00
  -3  -7   1   12.45    0.83
  -3  -7   1   12.21    0.97
  -3  -7   1   14.45    1.03
  -3  -7   1   13.52    0.58
  -3  -7   1   14.79    0.97
   2   7  -1    3.14    0.46
   2   7  -1    2.95    0.37
   2   7  -1    2.32    0.47
  -2  -7   1    3.19    0.55
  -2  -7   1    1.45    0.38
  -2  -7   1    2.46    0.43
  -2  -7   1    2.77    0.39
  -2  -7   1    2.72    0.51
  -2  -7   1    2.22    0.19
  -2  -7   1    2.63    0.44
   1   7  -1    7.67    0.49
   1   7  -1    7.59    0.55
   1   7  -1    7.88    0.67
  -1  -7   1    8.21    0.52
  -1  -7   1    7.76    0.61
  -1  -7   1    6.79    0.66
  -1  -7   1    7.54    0.42
  -1  -7   1    7.59    0.71
  -1  -7   1    7.30    0.53
  -1  -7   1    8.19    0.64
  -1  -7   1    8.11    0.60
   0   7  -1   24.15    1.07
   0   7  -1   27.31    1.02
   0   7  -1   25.72    1.28
   0  -7   1   26.73    1.39
   0  -7   1   23.76    1.37
   0  -7   1   27.44    1.17
   0  -7   1   26.95    1.11
   0  -7   1   25.95    1.18
   0  -7   1   26.20    1.21
   0  -7   1   26.27    1.12
  -1   7  -1    2.86    0.43
   1  -7   1    2.04    0.28
   1  -7   1    2.72    0.30
   1  -7   1    2.37    0.27
   1  -7   1    1.56    0.31
   1  -7   1    2.20    0.27
   1  -7   1    2.22    0.44
   1  -7   1    2.34    0.44
   2  -7   1   10.33    0.42
   2  -7   1   11.47    0.88
   2  -7   1   10.99    0.42
   2  -7   1    9.80    0.49
   2  -7   1    9.75    0.47
   2  -7   1   11.44    0.85
   2  -7   1    9.91    0.72
   3  -7   1   17.19    1.11
   3  -7   1   16.06    1.19
   3  -7   1   18.05    1.11
   3  -7   1   16.29    1.11
   4  -7   1    0.42    0.38
   4  -7   1   -0.17    0.30
   4  -7   1    0.27    0.36
   5  -7   1   11.48    1.01
   5  -7   1    8.81    1.03
   7   6  -1    7.16    1.01
  -7  -6   1    5.20    0.96
   6   6  -1    2.71    0.68
   6   6  -1    4.21    0.62
   6   6  -1    3.07    0.59
  -6  -6   1    3.10    0.70
   5   6  -1    7.25    0.80
   5   6  -1    8.27    0.63
   5   6  -1    7.91    0.87
   5   6  -1    8.40    0.75
  -5  -6   1    8.74    0.94
  -5  -6   1    7.80    0.82
   4   6  -1   29.21    1.44
   4   6  -1   29.69    1.60
   4   6  -1   30.44    1.26
   4   6  -1   30.71    1.56
  -4  -6   1   29.51    1.23
  -4  -6   1   31.39    1.49
  -4  -6   1   28.13    1.58
  -4  -6   1   28.73    1.61
  -4  -6   1   30.67    1.56
   3   6  -1    7.29    0.70
   3   6  -1    7.92    0.70
   3   6  -1    7.23    0.43
   3   6  -1    6.90    0.56
  -3  -6   1    5.99    0.68
  -3  -6   1    6.68    0.67
  -3  -6   1    6.98    0.72
  -3  -6   1    8.58    0.64
  -3  -6   1    8.25    0.68
  -3  -6   1    7.43    0.40
   2   6  -1   25.54    1.17
   2   6  -1   26.20    1.27
   2   6  -1   28.03    1.40
  -2  -6   1   26.52    1.22
  -2  -6   1   27.03    1.38
  -2  -6   1   26.36    0.98
  -2  -6   1   28.58    1.42
  -2  -6   1   27.39    1.36
  -2  -6   1   27.97    1.32
  -2  -6   1   29.32    1.34
   1   6  -1   68.11    2.44
   1   6  -1   69.94    2.66
   1   6  -1   63.37    2.49
   1   6  -1   66.08    2.66
  -1  -6   1   67.05    2.32
  -1  -6   1   65.35    2.55
  -1  -6   1   71.14    2.58
  -1  -6   1   63.91    2.68
  -1  -6   1   67.42    2.73
  -1  -6   1   71.65    2.44
  -1  -6   1   66.11    2.60
  -1  -6   1   72.18    2.51
   0   6  -1    1.27    0.21
   0   6  -1    1.51    0.32
   0   6  -1    1.78    0.26
   0   6  -1    1.34    0.30
   0   6  -1    1.48    0.17
   0  -6   1    1.48    0.25
   0  -6   1    1.23    0.23
   0  -6   1    1.61    0.38
   0  -6   1    1.00    0.24
   0  -6   1    0.80    0.22
   0  -6   1    1.20    0.34
   0  -6   1    1.76    0.24
  -1   6  -1   55.83    2.20
   1  -6   1   53.14    2.00
   1  -6   1   56.07    1.97
   1  -6   1   58.44    2.33
   1  -6   1   56.04    2.30
   1  -6   1   56.93    1.99
   1  -6   1   55.66    2.13
   1  -6   1   55.64    2.01
   2  -6   1    1.95    0.18
   2  -6   1    0.82    0.31
   2  -6   1    2.58    0.39
   2  -6   1    1.89    0.16
   2  -6   1    1.70    0.38
   3  -6   1    6.34    0.63
   3  -6   1    3.78    0.54
   3  -6   1    3.72    0.55
   3  -6   1    4.09    0.63
   4  -6   1    2.65    0.56
   4  -6   1    3.38    0.59
   4  -6   1    3.23    0.59
   5  -6   1    3.34    0.71
   5  -6   1    3.66    0.23
   5  -6   1    4.30    0.22
   6  -6   1    0.05    0.11
   6  -6   1   -0.12    0.14
   6  -6   1    0.41    0.45
   7   5  -1   -0.10    0.37
   7   5  -1   -0.39    0.34
   7   5  -1   -0.56    0.40
  -7  -5   1    0.14    0.48
   6   5  -1    8.99    0.95
   6   5  -1    7.71    0.72
   6   5  -1    9.23    0.82
   6   5  -1   10.27    0.97
  -6  -5   1    7.86    1.01
   5   5  -1   19.17    1.10
   5   5  -1   17.00    1.16
   5   5  -1   17.95    1.25
   5   5  -1   20.21    1.03
   5   5  -1   21.07    1.23
  -5  -5   1   19.38    1.31
  -5  -5   1   17.65    1.19
   4   5  -1    0.23    0.17
   4   5  -1    0.18    0.26
   4   5  -1    0.08    0.25
   4   5  -1    0.18    0.21
   4   5  -1    0.25    0.28
  -4  -5   1    0.12    0.28
  -4  -5   1    0.24    0.23
  -4  -5   1    0.13    0.17
  -4  -5   1    0.04    0.21
  -4  -5   1    0.20    0.29
   3   5  -1   32.03    1.55
   3   5  -1   31.86    1.47
   3   5  -1   29.15    1.45
   3   5  -1   32.71    1.41
   3   5  -1   32.76    1.24
  -3  -5   1   32.70    1.50
  -3  -5   1   31.42    1.41
  -3  -5   1   29.31    1.53
  -3  -5   1   32.01    1.54
  -3  -5   1   33.10    1.22
  -3  -5   1   31.38    1.49
   2   5  -1   11.23    0.63
   2   5  -1    9.52    0.63
   2   5  -1    9.78    0.73
   2   5  -1   11.17    0.74
   2   5  -1   10.96    0.67
  -2  -5   1   10.31    0.44
  -2  -5   1   10.00    0.61
  -2  -5   1   10.57    0.72
  -2  -5   1    9.66    0.66
  -2  -5   1    9.92    0.73
  -2  -5   1   10.97    0.70
  -2  -5   1   10.41    0.73
   1   5  -1    1.36    0.22
   1   5  -1    1.55    0.33
   1   5  -1    1.97    0.31
   1   5  -1    1.86    0.34
   1   5  -1    1.47    0.26
   1   5  -1    2.00    0.30
  -1  -5   1    1.64    0.15
  -1  -5   1    1.31    0.25
  -1  -5   1    1.90    0.35
  -1  -5   1    1.43    0.29
  -1  -5   1    1.02    0.24
  -1  -5   1    1.64    0.21
  -1  -5   1    1.58    0.32
  -1  -5   1    1.46    0.24
   0   5  -1    7.32    0.42
   0   5  -1    7.17    0.37
   0   5  -1    7.55    0.41
   0   5  -1    8.50    0.55
   0   5  -1    6.77    0.54
   0   5  -1    6.94    0.43
   0  -5   1    8.02    0.46
   0  -5   1    6.91    0.45
   0  -5   1    6.26    0.45
   0  -5   1    7.62    0.48
   0  -5   1    7.36    0.59
   0  -5   1    6.83    0.41
   0  -5   1    6.91    0.56
  -1   5  -1   16.81    0.62
  -1   5  -1   16.53    0.87
   1  -5   1   19.64    0.93
   1  -5   1   17.12    0.72
   1  -5   1   17.77    0.69
   1  -5   1   16.89    0.82
   1  -5   1   18.96    0.98
   1  -5   1   18.63    0.96
   1  -5   1   17.74    0.71
   1  -5   1   17.04    0.73
  -2   5  -1    0.18    0.24
   2  -5   1    0.10    0.06
   2  -5   1    0.10    0.20
   2  -5   1    0.28    0.18
   2  -5   1    0.32    0.19
   2  -5   1    0.23    0.06
  -3   5  -1   26.65    1.39
   3  -5   1   25.76    1.41
   3  -5   1   27.95    1.35
   3  -5   1   26.95    1.34
  -4   5  -1   22.66    1.45
   4  -5   1   19.12    0.73
   4  -5   1   19.76    1.18
   4  -5   1   20.58    0.77
   4  -5   1   20.25    1.18
   4  -5   1   20.09    1.25
  -5   5  -1    1.50    0.58
   5  -5   1    1.92    0.24
   5  -5   1    1.57    0.52
   5  -5   1    1.35    0.19
  -6   5  -1   21.23    1.62
   6  -5   1   21.51    0.93
   6  -5   1   19.70    1.46
   6  -5   1   21.78    0.99
   8   4  -1    0.26    0.42
   8   4  -1   -0.03    0.45
   7   4  -1   10.81    1.04
   7   4  -1    8.93    0.88
   7   4  -1   12.71    1.11
  -7  -4   1    7.87    1.06
   6   4  -1    4.21    0.63
   6   4  -1    4.36    0.69
   6   4  -1    4.76    0.57
   6   4  -1    3.76    0.67
  -6  -4   1    3.91    0.71
   5   4  -1    7.56    0.77
   5   4  -1    4.65    0.60
   5   4  -1    6.86    0.72
   5   4  -1    5.28    0.68
   5   4  -1    5.60    0.70
   5   4  -1    6.03    0.54
  -5  -4   1    6.34    0.67
  -5  -4   1    5.13    0.72
   4   4  -1    0.75    0.31
   4   4  -1    0.54    0.29
   4   4  -1    0.71    0.22
   4   4  -1    0.73    0.27
   4   4  -1    0.93    0.32
   4   4  -1    0.70    0.31
  -4  -4   1    1.08    0.29
  -4  -4   1    0.53    0.28
  -4  -4   1    0.36    0.26
  -4  -4   1    1.56    0.41
  -4  -4   1    0.71    0.23
   3   4  -1    0.23    0.14
   3   4  -1    0.46    0.25
   3   4  -1    0.25    0.22
   3   4  -1    0.33    0.21
   3   4  -1    0.43    0.24
   3   4  -1    0.10    0.17
  -3  -4   1    0.26    0.21
  -3  -4   1    0.21    0.13
  -3  -4   1    0.38    0.19
  -3  -4   1    0.35    0.20
  -3  -4   1    0.71    0.25
  -3  -4   1    0.42    0.24
   2   4  -1   16.60    0.90
   2   4  -1   16.68    0.84
   2   4  -1   15.41    0.65
   2   4  -1   18.54    0.81
   2   4  -1   16.95    0.86
   2   4  -1   16.18    0.91
   2   4  -1   16.92    0.88
  -2  -4   1   16.14    0.89
  -2  -4   1   17.30    0.87
  -2  -4   1   17.92    0.93
  -2  -4   1   15.30    0.79
  -2  -4   1   16.31    0.65
  -2  -4   1   16.65    0.94
  -2  -4   1   15.53    0.90
  -2  -4   1   13.94    0.83
   1   4  -1    1.89    0.28
   1   4  -1    2.31    0.35
   1   4  -1    1.09    0.19
   1   4  -1    1.07    0.21
   1   4  -1    1.01    0.22
   1   4  -1    0.97    0.28
  -1  -4   1    1.62    0.31
  -1  -4   1    0.95    0.21
  -1  -4   1    1.21    0.23
  -1  -4   1    1.54    0.30
  -1  -4   1    1.33    0.21
  -1  -4   1    1.40    0.11
  -1  -4   1    1.33    0.27
  -1  -4   1    1.40    0.17
   0   4  -1   99.88    3.37
   0   4  -1  100.44    3.51
   0   4  -1  102.24    3.41
   0   4  -1  100.73    3.36
   0   4  -1   96.60    3.52
   0   4  -1  100.31    3.32
   0  -4   1   98.37    3.43
   0  -4   1   99.59    3.57
   0  -4   1  101.65    3.60
   0  -4   1   99.49    3.36
   0  -4   1   96.39    3.39
   0  -4   1  102.45    3.44
   0  -4   1   98.49    3.40
  -1   4  -1    3.47    0.35
  -1   4  -1    2.58    0.33
  -1   4  -1    3.11    0.14
  -1   4  -1    2.64    0.12
   1  -4   1    3.09    0.21
   1  -4   1    2.40    0.33
   1  -4   1    3.21    0.48
   1  -4   1    2.82    0.18
   1  -4   1    2.70    0.27
   1  -4   1    3.71    0.34
   1  -4   1    3.25    0.34
   1  -4   1    2.92    0.20
   1  -4   1    2.71    0.19
  -2   4  -1  115.32    4.10
   2  -4   1  115.52    4.07
   2  -4   1  116.90    4.09
   2  -4   1  112.46    4.03
  -3   4  -1   32.78    1.68
  -3   4  -1   32.29    1.54
   3  -4   1   33.19    1.15
   3  -4   1   35.40    1.52
   3  -4   1   33.33    1.13
   3  -4   1   35.33    1.54
   3  -4   1   32.94    1.55
  -4   4  -1   20.75    1.25
  -4   4  -1   22.11    1.37
   4  -4   1   22.47    1.28
   4  -4   1   23.18    0.90
   4  -4   1   24.87    1.27
   4  -4   1   21.73    0.86
   4  -4   1   24.21    1.28
   4  -4   1   22.93    0.84
   4  -4   1   22.58    0.86
  -5   4  -1   30.96    1.76
   5  -4   1   30.67    1.16
   5  -4   1   28.83    1.61
   5  -4   1   29.70    1.22
   5  -4   1   29.95    1.18
  -6   4  -1   -0.79    0.43
   6  -4   1   -0.13    0.15
   6  -4   1    0.17    0.40
   6  -4   1   -0.06    0.20
   6  -4   1   -0.07    0.16
  -7   4  -1    5.66    1.01
   7  -4   1    4.68    0.84
   7  -4   1    6.04    0.54
   8   3  -1    0.45    0.53
   8   3  -1    0.59    0.44
   8   3  -1    0.34    0.50
   7   3  -1    1.73    0.53
   7   3  -1    3.03    0.57
   7   3  -1    1.88    0.59
  -7  -3   1    1.88    0.61
   6   3  -1    1.46    0.44
   6   3  -1    1.33    0.46
   6   3  -1    1.41    0.42
   6   3  -1    1.59    0.42
  -6  -3   1    1.27    0.50
   5   3  -1    5.09    0.64
   5   3  -1    4.74    0.65
   5   3  -1    5.71    0.62
   5   3  -1    4.51    0.57
   5   3  -1    4.15    0.64
   5   3  -1    5.71    0.57
  -5  -3   1    4.93    0.62
  -5  -3   1    5.12    0.69
   4   3  -1   27.21    1.31
   4   3  -1   25.96    1.20
   4   3  -1   27.47    1.51
   4   3  -1   26.02    1.23
   4   3  -1   25.09    1.30
   4   3  -1   24.65    1.30
   4   3  -1   24.65    1.36
  -4  -3   1   25.38    1.34
  -4  -3   1   27.69    1.04
  -4  -3   1   28.37    1.25
  -4  -3   1   24.89    1.28
   3   3  -1    1.69    0.33
   3   3  -1    1.50    0.32
   3   3  -1    1.34    0.30
   3   3  -1    1.23    0.26
   3   3  -1    1.99    0.34
   3   3  -1    1.69    0.36
   3   3  -1    1.34    0.31
   3   3  -1    1.39    0.23
  -3  -3   1    1.17    0.31
  -3  -3   1    1.76    0.32
  -3  -3   1    1.12    0.25
  -3  -3   1    1.07    0.21
  -3  -3   1    1.30    0.15
  -3  -3   1    1.82    0.36
  -3  -3   1    1.68    0.32
  -3  -3   1    1.19    0.30
   2   3  -1   90.62    3.39
   2   3  -1   97.50    3.40
   2   3  -1   92.16    3.30
   2   3  -1   96.91    3.42
   2   3  -1   94.93    3.37
   2   3  -1   95.99    3.43
   2   3  -1   91.50    3.35
   2   3  -1   94.59    3.19
  -2  -3   1  102.80    3.40
  -2  -3   1   94.72    3.44
  -2  -3   1   98.56    3.41
  -2  -3   1   97.09    3.32
  -2  -3   1   93.82    3.19
  -2  -3   1   90.93    3.08
  -2  -3   1   93.27    3.42
  -2  -3   1   94.76    3.42
  -2  -3   1   92.99    3.37
   1   3  -1   82.38    2.83
   1   3  -1   79.11    2.81
   1   3  -1   79.97    2.90
   1   3  -1   76.43    2.91
   1   3  -1   86.16    2.86
  -1  -3   1   78.26    2.90
  -1  -3   1   79.52    2.78
  -1  -3   1   80.65    2.93
  -1  -3   1   79.38    2.67
  -1  -3   1   79.79    2.63
  -1  -3   1   81.79    2.87
  -1  -3   1   77.96    2.82
  -1  -3   1   86.80    2.89
  -1  -3   1   80.39    2.83
   0   3  -1   46.19    1.65
   0   3  -1   45.83    1.77
   0   3  -1   47.32    1.61
   0   3  -1   49.20    1.65
   0   3  -1   48.00    1.77
   0   3  -1   47.09    1.67
   0  -3   1   45.58    1.80
   0  -3   1   47.97    1.67
   0  -3   1   46.36    1.68
   0  -3   1   45.72    1.79
   0  -3   1   48.17    1.60
   0  -3   1   46.44    1.64
   0  -3   1   45.96    1.66
  -1   3  -1  132.62    4.55
   1  -3   1  132.43    4.37
   1  -3   1  135.68    4.58
   1  -3   1  131.63    4.37
   1  -3   1  132.46    4.56
   1  -3   1  139.62    4.57
   1  -3   1  139.93    4.74
   1  -3   1  132.91    4.36
   1  -3   1  130.04    4.48
   1  -3   1  133.12    4.35
  -2   3  -1   10.42    0.64
  -2   3  -1   12.09    0.77
   2  -3   1   11.39    0.66
   2  -3   1   11.61    0.64
   2  -3   1   12.28    0.79
   2  -3   1   11.80    0.64
  -3   3  -1   32.89    1.60
  -3   3  -1   32.72    1.48
   3  -3   1   34.21    1.17
   3  -3   1   33.38    1.19
   3  -3   1   32.55    1.17
   3  -3   1   33.75    1.47
   3  -3   1   35.25    1.49
   3  -3   1   33.81    1.19
  -4   3  -1   17.64    1.07
  -4   3  -1   18.75    1.18
   4  -3   1   18.27    1.06
   4  -3   1   19.36    0.79
   4  -3   1   19.66    0.82
   4  -3   1   20.12    1.11
   4  -3   1   19.31    0.82
   4  -3   1   20.11    0.81
  -5   3  -1    0.07    0.35
  -5   3  -1    0.11    0.08
   5  -3   1    0.01    0.14
   5  -3   1    0.43    0.29
   5  -3   1    0.11    0.17
   5  -3   1    0.00    0.15
   5  -3   1   -0.14    0.14
   5  -3   1    0.14    0.25
  -6   3  -1    2.54    0.63
   6  -3   1    1.81    0.34
   6  -3   1    1.49    0.29
   6  -3   1    0.92    0.45
   6  -3   1    1.61    0.31
  -7   3  -1    9.44    1.12
   7  -3   1   11.15    1.03
   7  -3   1    9.82    0.73
   7  -3   1   10.05    0.71
   8   2  -1    1.28    0.58
   8   2  -1    1.93    0.61
   8   2  -1    1.74    0.53
   7   2  -1    0.01    0.35
   7   2  -1    0.08    0.43
   7   2  -1    0.43    0.35
  -7  -2   1    0.26    0.69
  -7  -2   1    0.24    0.40
   6   2  -1   15.52    1.11
   6   2  -1   14.36    0.95
   6   2  -1   13.57    1.01
   6   2  -1   14.98    1.15
   6   2  -1   16.48    1.07
  -6  -2   1   13.00    1.07
  -6  -2   1   13.00    0.85
   5   2  -1    5.03    0.54
   5   2  -1    5.12    0.56
   5   2  -1    4.85    0.51
   5   2  -1    3.76    0.60
   5   2  -1    5.72    0.63
   5   2  -1    4.32    0.60
  -5  -2   1    5.12    0.45
  -5  -2   1    5.04    0.67
  -5  -2   1    4.31    0.58
   4   2  -1   25.86    1.18
   4   2  -1   24.02    1.28
   4   2  -1   23.52    1.14
   4   2  -1   23.57    1.25
   4   2  -1   24.64    1.22
   4   2  -1   26.71    1.28
   4   2  -1   25.50    1.22
  -4  -2   1   25.12    1.27
  -4  -2   1   23.05    1.17
  -4  -2   1   23.37    1.12
  -4  -2   1   24.06    1.04
   3   2  -1   18.32    0.89
   3   2  -1   20.11    1.00
   3   2  -1   19.09    1.00
   3   2  -1   18.07    0.97
   3   2  -1   17.80    0.99
   3   2  -1   19.97    0.89
   3   2  -1   18.41    0.96
   3   2  -1   18.85    0.94
  -3  -2   1   18.22    0.98
  -3  -2   1   19.85    0.99
  -3  -2   1   19.63    0.79
  -3  -2   1   19.51    0.90
  -3  -2   1   19.62    0.96
  -3  -2   1   19.51    0.96
   2   2  -1    0.25    0.16
   2   2  -1    0.10    0.13
   2   2  -1    0.17    0.11
   2   2  -1    0.33    0.17
   2   2  -1    0.15    0.16
   2   2  -1    0.18    0.13
   2   2  -1    0.26    0.15
   2   2  -1    0.29    0.16
  -2  -2   1    0.26    0.16
  -2  -2   1    0.24    0.17
  -2  -2   1    0.21    0.17
  -2  -2   1    0.07    0.08
  -2  -2   1    0.26    0.15
  -2  -2   1    0.42    0.18
  -2  -2   1    0.43    0.19
   1   2  -1    0.32    0.15
   1   2  -1    0.54    0.15
   1   2  -1    0.65    0.09
   1   2  -1    0.52    0.17
   1   2  -1    0.36    0.16
   1   2  -1    0.65    0.14
   1   2  -1    0.62    0.16
   1   2  -1    0.60    0.17
  -1  -2   1    0.39    0.16
  -1  -2   1    0.62    0.14
  -1  -2   1    0.44    0.16
  -1  -2   1    0.64    0.17
  -1  -2   1    0.50    0.19
  -1  -2   1    0.95    0.18
  -1  -2   1    0.62    0.18
   0   2  -1   70.65    2.42
   0   2  -1   70.26    2.51
   0   2  -1   71.08    2.52
   0   2  -1   72.59    2.43
   0   2  -1   71.43    2.42
   0   2  -1   73.62    2.39
   0  -2   1   71.34    2.54
   0  -2   1   72.09    2.42
   0  -2   1   70.40    2.52
   0  -2   1   72.64    2.44
   0  -2   1   72.74    2.43
   0  -2   1   71.98    2.40
   0  -2   1   70.22    2.34
  -1   2  -1   41.57    1.63
  -1   2  -1   41.71    1.53
   1  -2   1   41.67    1.37
   1  -2   1   41.46    1.49
   1  -2   1   44.11    1.54
   1  -2   1   40.33    1.54
   1  -2   1   41.41    1.39
   1  -2   1   41.14    1.63
   1  -2   1   41.07    1.39
   1  -2   1   41.21    1.37
  -2   2  -1    3.11    0.39
  -2   2  -1    3.34    0.34
   2  -2   1    3.23    0.18
   2  -2   1    3.45    0.16
   2  -2   1    3.30    0.17
   2  -2   1    3.28    0.30
   2  -2   1    3.26    0.17
   2  -2   1    3.09    0.30
   2  -2   1    2.96    0.36
   2  -2   1    3.39    0.32
  -3   2  -1   62.62    2.41
  -3   2  -1   63.09    2.14
  -3   2  -1   64.61    2.14
  -3   2  -1   62.05    2.49
   3  -2   1   62.74    2.19
   3  -2   1   62.77    2.38
   3  -2   1   62.23    2.18
   3  -2   1   61.47    2.39
   3  -2   1   65.59    2.53
   3  -2   1   67.36    2.42
   3  -2   1   60.44    2.15
   3  -2   1   64.40    2.18
  -4   2  -1    9.83    0.50
  -4   2  -1   10.06    0.36
  -4   2  -1   10.17    0.72
  -4   2  -1   10.07    0.50
  -4   2  -1   10.98    0.81
   4  -2   1    8.94    0.53
   4  -2   1    9.80    0.56
   4  -2   1    9.88    0.51
   4  -2   1    9.93    0.54
   4  -2   1    9.44    0.68
   4  -2   1   10.57    0.74
  -5   2  -1   37.49    1.89
   5  -2   1   40.29    1.64
   5  -2   1   38.29    1.55
   5  -2   1   42.47    1.63
   5  -2   1   40.69    1.61
   5  -2   1   38.10    1.82
   5  -2   1   41.37    1.89
  -6   2  -1    7.07    0.85
   6  -2   1    7.69    0.78
   6  -2   1   10.20    0.70
   6  -2   1    9.72    0.68
   6  -2   1    8.22    0.61
  -7   2  -1    4.75    0.85
   7  -2   1    3.69    0.70
   7  -2   1    3.90    0.52
   7  -2   1    4.38    0.58
   8   1  -1    1.33    0.50
   8   1  -1    2.25    0.63
   8   1  -1    0.57    0.60
   7   1  -1    7.74    0.86
   7   1  -1    7.77    0.81
   7   1  -1    8.19    0.94
  -7  -1   1   10.28    0.97
   6   1  -1    0.16    0.36
   6   1  -1    0.13    0.27
   6   1  -1    0.84    0.35
  -6  -1   1    0.11    0.36
  -6  -1   1    0.52    0.28
  -6  -1   1    0.97    0.41
   5   1  -1    8.28    0.68
   5   1  -1    7.02    0.70
   5   1  -1    7.90    0.63
   5   1  -1    9.28    0.76
   5   1  -1    7.83    0.67
   5   1  -1    7.02    0.66
  -5  -1   1    7.13    0.65
  -5  -1   1    7.40    0.58
  -5  -1   1    7.59    0.71
  -5  -1   1    8.45    0.65
   4   1  -1   38.50    1.68
   4   1  -1   40.73    1.77
   4   1  -1   40.15    1.69
   4   1  -1   36.04    1.59
   4   1  -1   39.32    1.67
   4   1  -1   40.67    1.73
  -4  -1   1   38.18    1.58
  -4  -1   1   41.98    1.74
   3   1  -1    0.05    0.13
   3   1  -1    0.10    0.15
   3   1  -1   -0.01    0.16
   3   1  -1    0.02    0.13
   3   1  -1   -0.07    0.14
   3   1  -1    0.08    0.18
   3   1  -1    0.01    0.14
  -3  -1   1    0.01    0.12
  -3  -1   1   -0.04    0.15
  -3  -1   1    0.24    0.21
  -3  -1   1    0.16    0.16
  -3  -1   1   -0.04    0.17
  -3  -1   1   -0.19    0.11
   2   1  -1   56.53    2.15
   2   1  -1   56.57    2.07
   2   1  -1   56.95    2.11
   2   1  -1   55.80    2.10
   2   1  -1   58.41    2.15
   2   1  -1   59.11    2.17
   2   1  -1   59.22    2.15
   2   1  -1   57.53    2.07
  -2  -1   1   59.55    2.02
  -2  -1   1   60.42    2.13
  -2  -1   1   58.56    2.07
  -2  -1   1   59.37    2.17
  -2  -1   1   58.17    2.14
  -2  -1   1   56.72    2.15
  -2  -1   1   57.86    2.11
   1   1  -1    1.82    0.20
   1   1  -1    1.51    0.22
   1   1  -1    1.46    0.20
   1   1  -1    1.62    0.22
   1   1  -1    1.69    0.22
   1   1  -1    1.56    0.18
   1   1  -1    1.19    0.19
  -1  -1   1    1.38    0.20
  -1  -1   1    1.58    0.21
  -1  -1   1    1.44    0.21
  -1  -1   1    1.58    0.21
  -1  -1   1    1.63    0.18
  -1  -1   1    1.56    0.20
  -1  -1   1    1.09    0.19
   0   1  -1    7.15    0.36
   0   1  -1    6.18    0.35
   0   1  -1    6.46    0.31
   0   1  -1    6.86    0.32
   0   1  -1    6.30    0.25
   0   1  -1    6.82    0.32
   0  -1   1    6.49    0.35
   0  -1   1    6.25    0.30
   0  -1   1    6.31    0.31
   0  -1   1    6.64    0.25
   0  -1   1    6.77    0.31
   0  -1   1    6.66    0.29
   0  -1   1    6.58    0.33
  -1   1  -1    0.48    0.13
  -1   1  -1    0.76    0.13
  -1   1  -1    0.83    0.07
  -1   1  -1    0.69    0.08
  -1   1  -1    0.65    0.06
   1  -1   1    0.82    0.14
   1  -1   1    0.75    0.08
   1  -1   1    0.96    0.09
   1  -1   1    0.68    0.08
   1  -1   1    0.69    0.12
   1  -1   1    0.63    0.08
   1  -1   1    0.73    0.16
  -2   1  -1   32.53    1.13
  -2   1  -1   31.38    1.10
  -2   1  -1   31.69    1.11
  -2   1  -1   32.32    1.21
  -2   1  -1   31.81    1.32
  -2   1  -1   33.14    1.27
   2  -1   1   33.07    1.15
   2  -1   1   31.56    1.12
   2  -1   1   31.69    1.22
   2  -1   1   32.95    1.26
   2  -1   1   32.93    1.15
   2  -1   1   32.96    1.33
   2  -1   1   31.50    1.26
   2  -1   1   31.80    1.16
  -3   1  -1    2.40    0.33
  -3   1  -1    2.15    0.35
  -3   1  -1    2.79    0.24
  -3   1  -1    2.21    0.20
  -3   1  -1    2.99    0.32
  -3   1  -1    2.43    0.19
  -3   1  -1    2.24    0.24
   3  -1   1    2.75    0.26
   3  -1   1    2.41    0.25
   3  -1   1    2.39    0.22
   3  -1   1    2.31    0.32
   3  -1   1    3.09    0.32
   3  -1   1    2.22    0.32
   3  -1   1    2.18    0.23
  -4   1  -1    0.37    0.14
  -4   1  -1    0.93    0.26
  -4   1  -1    0.27    0.17
  -4   1  -1    0.44    0.27
  -4   1  -1    0.52    0.17
  -4   1  -1    0.24    0.21
   4  -1   1    0.40    0.16
   4  -1   1    0.48    0.20
   4  -1   1    0.58    0.19
   4  -1   1    0.05    0.19
   4  -1   1    0.52    0.20
   4  -1   1    0.48    0.18
  -5   1  -1    6.68    0.71
  -5   1  -1    7.26    0.55
  -5   1  -1    7.70    0.48
   5  -1   1    6.76    0.61
   5  -1   1    7.21    0.56
   5  -1   1    8.39    0.61
   5  -1   1    8.79    0.71
   5  -1   1    7.39    0.55
   5  -1   1    7.95    0.52
  -6   1  -1   15.41    1.17
   6  -1   1   17.04    0.95
   6  -1   1   15.84    1.07
   6  -1   1   14.01    0.89
   6  -1   1   14.56    0.85
  -7   1  -1   12.08    1.13
   7  -1   1   11.90    0.88
   7  -1   1    9.90    0.93
   7  -1   1   11.65    0.81
  -8   1  -1   22.30    1.63
   8  -1   1   24.80    1.59
   8  -1   1   23.55    1.39
   8  -1   1   22.11    1.31
   7   0  -1   -0.17    0.32
   7   0  -1   -0.03    0.44
   7   0  -1    0.59    0.36
  -7   0   1   -0.01    0.39
  -7   0   1   -0.19    0.32
   6   0  -1    6.93    0.62
   6   0  -1    6.09    0.83
   6   0  -1    5.46    0.68
  -6   0   1    4.73    0.69
  -6   0   1    5.94    0.68
  -6   0   1    5.56    0.62
   5   0  -1    6.30    0.60
   5   0  -1    6.53    0.55
   5   0  -1    7.15    0.72
   5   0  -1    7.57    0.67
   5   0  -1    6.29    0.64
   5   0  -1    6.94    0.63
  -5   0   1    6.75    0.66
  -5   0   1    7.59    0.59
  -5   0   1    6.30    0.59
  -5   0   1    6.62    0.62
   4   0  -1    2.79    0.42
   4   0  -1    2.50    0.37
   4   0  -1    2.16    0.40
   4   0  -1    2.43    0.43
   4   0  -1    2.36    0.37
   4   0  -1    3.05    0.38
   4   0  -1    2.39    0.38
  -4   0   1    2.13    0.35
  -4   0   1    2.32    0.33
  -4   0   1    2.17    0.38
  -4   0   1    1.97    0.37
   3   0  -1    1.91    0.27
   3   0  -1    1.83    0.29
   3   0  -1    1.55    0.29
   3   0  -1    2.18    0.34
   3   0  -1    1.69    0.26
   3   0  -1    2.15    0.35
   3   0  -1    2.35    0.30
   3   0  -1    1.93    0.31
  -3   0   1    2.01    0.26
  -3   0   1    1.75    0.30
  -3   0   1    1.71    0.33
  -3   0   1    1.25    0.24
  -3   0   1    1.54    0.28
  -3   0   1    1.78    0.26
  -3   0   1    1.91    0.29
   2   0  -1   43.51    1.70
   2   0  -1   45.05    1.67
   2   0  -1   42.22    1.74
   2   0  -1   43.76    1.68
   2   0  -1   47.46    1.73
   2   0  -1   45.92    1.70
  -2   0   1   43.38    1.69
  -2   0   1   46.14    1.77
  -2   0   1   44.93    1.65
  -2   0   1   47.66    1.67
  -2   0   1   47.31    1.69
  -2   0   1   45.97    1.64
  -2   0   1   44.94    1.66
   1   0  -1    6.11    0.35
   1   0  -1    6.83    0.36
   1   0  -1    6.56    0.33
   1   0  -1    5.86    0.33
   1   0  -1    6.11    0.34
   1   0  -1    5.57    0.37
  -1   0   1    6.52    0.29
  -1   0   1    6.59    0.36
  -1   0   1    6.37    0.35
  -1   0   1    6.22    0.33
  -1   0   1    5.38    0.34
  -1   0   1    6.64    0.37
   0   0  -1    0.85    0.12
   0   0  -1    0.75    0.10
   0   0  -1    0.87    0.11
   0   0  -1    0.81    0.10
   0   0   1    0.93    0.10
   0   0   1    0.44    0.09
   0   0   1    0.77    0.09
   0   0   1    0.79    0.11
  -1   0  -1    9.54    0.40
  -1   0  -1    9.83    0.41
  -1   0  -1    9.38    0.42
  -1   0  -1    8.64    0.38
  -1   0  -1    9.26    0.38
  -1   0  -1    9.65    0.35
   1   0   1    9.98    0.40
   1   0   1    9.73    0.41
   1   0   1    9.09    0.41
   1   0   1    9.71    0.38
   1   0   1    9.96    0.40
   1   0   1    9.28    0.34
  -2   0  -1  154.90    5.22
  -2   0  -1  157.72    5.19
  -2   0  -1  154.98    5.28
  -2   0  -1  163.58    5.22
  -2   0  -1  158.82    5.25
  -2   0  -1  155.97    5.22
   2   0   1  156.12    5.23
   2   0   1  150.64    5.19
   2   0   1  158.49    5.25
   2   0   1  161.38    5.26
   2   0   1  157.47    5.22
   2   0   1  159.74    5.30
   2   0   1  166.59    5.24
  -3   0  -1   37.42    1.49
  -3   0  -1   39.02    1.55
  -3   0  -1   37.77    1.46
  -3   0  -1   39.20    1.50
  -3   0  -1   41.00    1.42
  -3   0  -1   39.40    1.45
   3   0   1   38.68    1.50
   3   0   1   38.40    1.50
   3   0   1   37.92    1.43
   3   0   1   39.80    1.57
   3   0   1   39.94    1.48
   3   0   1   35.90    1.48
   3   0   1   39.66    1.49
  -4   0  -1  206.34    6.90
  -4   0  -1  209.17    6.85
  -4   0  -1  212.33    7.00
  -4   0  -1  208.31    7.12
  -4   0  -1  202.83    7.03
  -4   0  -1  203.13    6.95
  -4   0  -1  199.44    6.86
   4   0   1  200.48    6.92
   4   0   1  195.59    6.96
   4   0   1  211.09    6.95
   4   0   1  208.55    7.08
   4   0   1  210.19    6.93
   4   0   1  207.56    6.97
   4   0   1  202.85    6.86
  -5   0  -1    7.23    0.58
  -5   0  -1    5.27    0.69
  -5   0  -1    4.09    0.56
  -5   0  -1    4.51    0.42
  -5   0  -1    4.29    0.48
   5   0   1    4.53    0.43
   5   0   1    5.71    0.54
   5   0   1    4.39    0.45
   5   0   1    5.28    0.54
   5   0   1    4.80    0.55
   5   0   1    4.68    0.48
  -6   0  -1   97.15    3.62
  -6   0  -1   94.60    3.83
   6   0   1   99.12    3.61
   6   0   1   94.05    3.52
   6   0   1   98.33    3.68
   6   0   1   94.12    3.60
   6   0   1   93.00    3.77
   6   0   1   97.08    3.70
  -7   0  -1    5.12    0.82
   7   0   1    5.89    0.77
   7   0   1    6.71    0.66
   7   0   1    6.34    0.70
  -8   0  -1   18.26    1.51
   8   0   1   18.98    1.28
   8   0   1   20.13    1.23
   8   0   1   19.15    1.38
   7  -1  -1    5.22    0.88
   7  -1  -1    5.66    0.74
   7  -1  -1    4.05    0.62
  -7   1   1    4.10    0.77
  -7   1   1    5.17    0.78
   6  -1  -1   17.99    1.29
   6  -1  -1   17.67    1.10
   6  -1  -1   16.65    1.02
  -6   1   1   20.84    1.22
  -6   1   1   20.65    1.25
   5  -1  -1    0.00    0.21
   5  -1  -1    0.41    0.29
   5  -1  -1    0.32    0.26
   5  -1  -1    0.17    0.21
   5  -1  -1    0.24    0.21
   5  -1  -1    0.46    0.35
  -5   1   1   -0.21    0.20
  -5   1   1   -0.25    0.16
  -5   1   1    0.10    0.26
  -5   1   1   -0.28    0.26
   4  -1  -1   44.16    1.94
   4  -1  -1   43.09    1.75
   4  -1  -1   42.50    1.88
   4  -1  -1   42.26    1.70
   4  -1  -1   44.37    1.79
   4  -1  -1   42.69    1.74
  -4   1   1   42.35    1.83
  -4   1   1   43.61    1.69
  -4   1   1   43.51    1.84
  -4   1   1   43.27    1.76
   3  -1  -1   11.79    0.69
   3  -1  -1   10.68    0.71
   3  -1  -1   11.15    0.62
   3  -1  -1   10.41    0.60
   3  -1  -1   12.91    0.66
   3  -1  -1   11.80    0.74
   3  -1  -1   11.53    0.59
  -3   1   1   11.73    0.57
  -3   1   1   11.75    0.63
  -3   1   1   11.30    0.58
  -3   1   1   11.82    0.73
  -3   1   1   10.89    0.67
  -3   1   1   11.47    0.68
  -3   1   1   12.41    0.66
   2  -1  -1   12.62    0.62
   2  -1  -1   12.39    0.61
   2  -1  -1   12.49    0.58
   2  -1  -1   13.23    0.66
   2  -1  -1   13.87    0.66
   2  -1  -1   12.30    0.71
   2  -1  -1   12.78    0.60
  -2   1   1   13.15    0.71
  -2   1   1   13.19    0.62
  -2   1   1   13.45    0.58
  -2   1   1   12.16    0.65
  -2   1   1   12.44    0.61
  -2   1   1   12.26    0.58
  -2   1   1   12.98    0.65
   1  -1  -1    9.25    0.45
   1  -1  -1    9.46    0.51
   1  -1  -1    8.35    0.42
   1  -1  -1    9.26    0.45
   1  -1  -1    8.71    0.45
   1  -1  -1    8.95    0.42
  -1   1   1    9.26    0.47
  -1   1   1    9.13    0.44
  -1   1   1    9.10    0.46
  -1   1   1    9.66    0.52
  -1   1   1    9.02    0.41
  -1   1   1    9.21    0.41
  -1   1   1    8.70    0.44
   0  -1  -1   45.92    1.50
   0  -1  -1   46.84    1.50
   0  -1  -1   45.23    1.58
   0  -1  -1   47.55    1.57
   0  -1  -1   44.66    1.56
   0   1   1   47.39    1.58
   0   1   1   45.44    1.56
   0   1   1   44.48    1.57
   0   1   1   45.00    1.58
  -1  -1  -1    0.14    0.09
  -1  -1  -1    0.07    0.10
  -1  -1  -1   -0.06    0.07
  -1  -1  -1    0.05    0.09
  -1  -1  -1    0.09    0.08
   1   1   1    0.04    0.10
   1   1   1   -0.08    0.08
   1   1   1    0.00    0.08
   1   1   1    0.08    0.08
   1   1   1    0.01    0.09
  -2  -1  -1  169.46    5.45
  -2  -1  -1  167.36    5.42
  -2  -1  -1  166.32    5.45
  -2  -1  -1  156.03    5.45
  -2  -1  -1  156.93    5.48
  -2  -1  -1  171.84    5.42
   2   1   1  166.53    5.46
   2   1   1  163.60    5.42
   2   1   1  158.33    5.45
   2   1   1  160.32    5.41
   2   1   1  166.78    5.50
   2   1   1  163.48    5.46
  -3  -1  -1   32.38    1.35
  -3  -1  -1   32.08    1.31
  -3  -1  -1   32.99    1.31
  -3  -1  -1   32.09    1.33
  -3  -1  -1   32.66    1.26
   3   1   1   31.29    1.33
   3   1   1   33.26    1.28
   3   1   1   32.91    1.33
   3   1   1   35.15    1.37
   3   1   1   31.47    1.31
   3   1   1   34.64    1.26
   3   1   1   32.94    1.30
  -4  -1  -1   25.86    1.16
  -4  -1  -1   23.66    1.03
  -4  -1  -1   24.20    1.16
  -4  -1  -1   24.38    1.10
  -4  -1  -1   23.23    1.13
  -4  -1  -1   24.08    1.08
   4   1   1   23.46    1.06
   4   1   1   23.73    1.04
   4   1   1   22.99    1.14
   4   1   1   27.41    1.20
   4   1   1   23.27    1.11
   4   1   1   23.36    1.10
   4   1   1   23.01    1.10
  -5  -1  -1   43.90    1.79
  -5  -1  -1   41.59    1.87
  -5  -1  -1   42.08    1.87
  -5  -1  -1   44.75    1.88
   5   1   1   45.05    1.77
   5   1   1   41.59    1.83
   5   1   1   44.15    1.84
   5   1   1   42.71    1.84
   5   1   1   44.34    1.91
   5   1   1   42.51    1.75
   5   1   1   42.59    1.87
  -6  -1  -1    2.23    0.53
  -6  -1  -1    1.35    0.40
  -6  -1  -1    0.78    0.29
  -6  -1  -1    1.32    0.39
   6   1   1    1.30    0.35
   6   1   1    0.52    0.31
   6   1   1    1.14    0.35
   6   1   1    0.96    0.35
   6   1   1    1.43    0.40
   6   1   1    1.16    0.34
  -7  -1  -1    9.53    0.98
   7   1   1    9.61    0.76
   7   1   1    7.99    0.85
   7   1   1    6.44    0.73
  -8  -1  -1    0.73    0.61
   8   1   1    1.09    0.46
   8   1   1    1.14    0.53
   8   1   1    1.33    0.52
   7  -2  -1    3.35    0.55
   7  -2  -1    5.91    0.70
   7  -2  -1    4.46    0.81
  -7   2   1    4.45    0.78
  -7   2   1    3.75    0.79
   6  -2  -1    2.23    0.44
   6  -2  -1    2.41    0.42
   6  -2  -1    2.28    0.60
  -6   2   1    1.73    0.51
  -6   2   1    1.55    0.53
   5  -2  -1    5.82    0.54
   5  -2  -1    6.42    0.51
   5  -2  -1    4.94    0.73
   5  -2  -1    5.88    0.55
   5  -2  -1    6.32    0.68
  -5   2   1    5.54    0.65
  -5   2   1    5.15    0.65
  -5   2   1    5.81    0.60
  -5   2   1    6.50    0.61
   4  -2  -1    3.51    0.40
   4  -2  -1    2.53    0.36
   4  -2  -1    2.70    0.46
   4  -2  -1    3.45    0.37
   4  -2  -1    2.44    0.51
   4  -2  -1    2.65    0.32
  -4   2   1    2.56    0.45
  -4   2   1    3.52    0.38
  -4   2   1    2.77    0.29
  -4   2   1    3.43    0.50
   3  -2  -1    4.04    0.36
   3  -2  -1    4.57    0.38
   3  -2  -1    4.54    0.35
   3  -2  -1    5.10    0.52
   3  -2  -1    4.93    0.48
   3  -2  -1    4.20    0.37
   3  -2  -1    5.10    0.49
  -3   2   1    4.67    0.45
  -3   2   1    4.92    0.37
  -3   2   1    4.61    0.36
  -3   2   1    4.37    0.30
  -3   2   1    5.34    0.53
  -3   2   1    4.17    0.48
   2  -2  -1   50.88    2.05
   2  -2  -1   53.84    2.04
   2  -2  -1   51.61    1.86
   2  -2  -1   51.40    1.86
   2  -2  -1   51.39    1.88
   2  -2  -1   55.66    1.91
   2  -2  -1   55.69    2.03
  -2   2   1   47.16    1.84
  -2   2   1   54.07    1.81
  -2   2   1   52.71    1.87
  -2   2   1   50.13    2.01
  -2   2   1   51.91    2.01
  -2   2   1   54.89    1.80
   1  -2  -1   91.49    3.19
   1  -2  -1   86.11    3.01
   1  -2  -1   90.00    3.05
   1  -2  -1   87.45    3.04
   1  -2  -1   93.28    3.13
   1  -2  -1   89.68    3.03
   1  -2  -1   95.97    3.20
  -1   2   1   87.51    3.13
  -1   2   1   91.76    3.02
  -1   2   1   91.27    2.98
  -1   2   1   85.90    2.97
   0  -2  -1   81.28    2.68
   0  -2  -1   83.72    2.75
   0  -2  -1   80.67    2.69
   0  -2  -1   82.34    2.77
   0  -2  -1   80.38    2.73
   0   2   1   81.88    2.75
   0   2   1   79.55    2.79
   0   2   1   82.15    2.74
   0   2   1   85.17    2.74
   0   2   1   81.06    2.76
  -1  -2  -1  100.17    3.47
  -1  -2  -1  105.70    3.47
  -1  -2  -1  103.88    3.41
  -1  -2  -1  107.02    3.49
  -1  -2  -1  102.17    3.51
  -1  -2  -1   99.02    3.45
   1   2   1  105.06    3.45
   1   2   1   98.05    3.47
   1   2   1  100.86    3.47
   1   2   1  105.46    3.43
   1   2   1  103.43    3.51
   1   2   1  104.79    3.42
   1   2   1  103.01    3.47
  -2  -2  -1   18.92    0.88
  -2  -2  -1   19.09    0.84
  -2  -2  -1   19.36    0.82
  -2  -2  -1   19.66    0.81
  -2  -2  -1   19.11    0.80
  -2  -2  -1   19.69    0.85
   2   2   1   18.71    0.80
   2   2   1   18.43    0.82
   2   2   1   17.80    0.80
   2   2   1   18.81    0.84
   2   2   1   20.16    0.86
   2   2   1   20.72    0.89
  -3  -2  -1   12.86    0.72
  -3  -2  -1   14.98    0.73
  -3  -2  -1   14.60    0.73
  -3  -2  -1   14.58    0.70
  -3  -2  -1   14.36    0.79
  -3  -2  -1   15.69    0.77
   3   2   1   13.68    0.70
   3   2   1   15.04    0.73
   3   2   1   16.09    0.78
   3   2   1   14.71    0.76
   3   2   1   15.57    0.79
   3   2   1   13.96    0.72
   3   2   1   14.40    0.61
   3   2   1   14.69    0.79
  -4  -2  -1   64.47    2.37
  -4  -2  -1   58.11    2.39
  -4  -2  -1   64.60    2.51
  -4  -2  -1   61.70    2.42
  -4  -2  -1   65.45    2.45
  -4  -2  -1   69.18    2.47
   4   2   1   63.79    2.43
   4   2   1   63.04    2.45
   4   2   1   63.62    2.51
   4   2   1   66.96    2.52
   4   2   1   63.17    2.43
   4   2   1   60.62    2.37
   4   2   1   62.60    2.45
   4   2   1   66.04    2.29
  -5  -2  -1    0.94    0.31
  -5  -2  -1    0.61    0.32
  -5  -2  -1    0.95    0.30
  -5  -2  -1    0.89    0.28
   5   2   1    0.46    0.27
   5   2   1    1.25    0.24
   5   2   1    0.41    0.25
   5   2   1    0.71    0.31
   5   2   1    0.69    0.30
   5   2   1    1.34    0.30
   5   2   1    0.95    0.29
  -6  -2  -1    9.91    0.85
  -6  -2  -1    9.41    0.79
   6   2   1    9.74    0.80
   6   2   1   10.18    0.75
   6   2   1   10.25    0.80
   6   2   1   10.30    0.83
   6   2   1    9.87    0.81
  -7  -2  -1    5.59    0.78
   7   2   1    5.05    0.72
   7   2   1    5.76    0.65
   7   2   1    7.50    0.76
  -8  -2  -1    1.18    0.62
   8   2   1    0.10    0.43
   8   2   1    0.59    0.42
   8   2   1    0.71    0.43
   7  -3  -1    0.10    0.29
   7  -3  -1   -0.58    0.39
  -7   3   1    0.46    0.53
  -7   3   1    0.96    0.55
   6  -3  -1    3.75    0.73
   6  -3  -1    2.63    0.42
   6  -3  -1    2.90    0.45
  -6   3   1    4.25    0.72
  -6   3   1    1.65    0.54
   5  -3  -1   14.00    1.14
   5  -3  -1   14.99    0.87
   5  -3  -1   15.36    0.83
   5  -3  -1   15.86    0.86
  -5   3   1   15.47    1.13
  -5   3   1   15.37    1.08
   4  -3  -1    4.49    0.62
   4  -3  -1    3.84    0.39
   4  -3  -1    4.07    0.42
   4  -3  -1    4.88    0.68
   4  -3  -1    5.07    0.41
   4  -3  -1    3.85    0.39
  -4   3   1    4.04    0.58
  -4   3   1    4.70    0.37
  -4   3   1    4.14    0.61
  -4   3   1    4.23    0.37
   3  -3  -1   44.27    1.71
   3  -3  -1   46.27    1.98
   3  -3  -1   47.82    2.03
   3  -3  -1   45.63    1.71
   3  -3  -1   47.14    1.76
   3  -3  -1   48.99    2.06
   3  -3  -1   44.87    1.69
  -3   3   1   42.08    1.95
  -3   3   1   46.19    1.66
  -3   3   1   47.56    1.66
  -3   3   1   42.23    1.93
   2  -3  -1   12.58    0.78
   2  -3  -1   11.61    0.70
   2  -3  -1   11.08    0.54
   2  -3  -1   12.23    0.58
   2  -3  -1   11.63    0.74
   2  -3  -1   10.46    0.56
   2  -3  -1   11.95    0.56
  -2   3   1   12.44    0.52
  -2   3   1   10.74    0.69
  -2   3   1   11.77    0.51
   1  -3  -1    9.34    0.44
   1  -3  -1    9.79    0.48
   1  -3  -1    9.70    0.45
   1  -3  -1   10.52    0.58
   1  -3  -1   10.47    0.66
   1  -3  -1    9.55    0.44
   1  -3  -1    9.84    0.48
  -1   3   1    9.49    0.43
  -1   3   1    9.23    0.37
  -1   3   1    9.41    0.37
  -1   3   1    8.82    0.56
   0  -3  -1  187.07    6.28
   0  -3  -1  188.04    6.29
   0  -3  -1  193.05    6.32
   0  -3  -1  194.95    6.31
   0  -3  -1  184.80    6.29
   0  -3  -1  195.16    6.34
   0   3   1  193.93    6.29
   0   3   1  199.67    6.33
   0   3   1  192.29    6.25
   0   3   1  181.01    6.29
   0   3   1  197.69    6.28
   0   3   1  193.62    6.38
  -1  -3  -1   11.78    0.56
  -1  -3  -1   11.62    0.59
  -1  -3  -1   12.97    0.61
  -1  -3  -1   12.92    0.54
  -1  -3  -1   12.82    0.64
  -1  -3  -1   12.97    0.56
   1   3   1   12.93    0.60
   1   3   1   12.40    0.56
   1   3   1   12.05    0.54
   1   3   1   11.66    0.59
   1   3   1   13.27    0.63
   1   3   1   12.34    0.56
  -2  -3  -1  102.31    3.56
  -2  -3  -1  100.60    3.47
  -2  -3  -1   94.67    3.49
  -2  -3  -1  101.59    3.51
  -2  -3  -1   98.73    3.43
  -2  -3  -1   98.60    3.45
   2   3   1  102.00    3.48
   2   3   1   99.33    3.50
   2   3   1  103.64    3.51
   2   3   1  106.94    3.56
   2   3   1   95.78    3.44
   2   3   1   98.34    3.43
   2   3   1  102.53    3.47
  -3  -3  -1    9.87    0.69
  -3  -3  -1   12.18    0.62
  -3  -3  -1   12.52    0.70
  -3  -3  -1   10.59    0.65
  -3  -3  -1   11.52    0.63
  -3  -3  -1   11.75    0.69
   3   3   1   12.73    0.70
   3   3   1   11.19    0.63
   3   3   1   11.14    0.69
   3   3   1   12.26    0.69
   3   3   1   11.33    0.62
   3   3   1   12.06    0.73
  -4  -3  -1    1.92    0.31
  -4  -3  -1    2.18    0.32
  -4  -3  -1    2.21    0.37
  -4  -3  -1    2.16    0.42
  -4  -3  -1    2.05    0.35
   4   3   1    2.07    0.21
   4   3   1    3.54    0.49
   4   3   1    1.91    0.34
   4   3   1    2.04    0.34
   4   3   1    2.63    0.41
   4   3   1    2.03    0.36
   4   3   1    2.74    0.42
   4   3   1    1.85    0.31
  -5  -3  -1    6.85    0.69
  -5  -3  -1    8.19    0.66
  -5  -3  -1    8.32    0.63
   5   3   1    7.59    0.64
   5   3   1    7.75    0.47
   5   3   1    7.15    0.61
   5   3   1    6.43    0.58
   5   3   1    8.59    0.69
   5   3   1    8.58    0.71
  -6  -3  -1   20.59    1.19
  -6  -3  -1   20.72    1.19
  -6  -3  -1   21.20    1.33
   6   3   1   20.42    0.98
   6   3   1   21.04    1.20
   6   3   1   19.57    1.19
   6   3   1   19.81    1.16
   6   3   1   22.35    1.28
   6   3   1   20.54    1.22
  -7  -3  -1    0.19    0.42
  -7  -3  -1    0.68    0.40
   7   3   1    0.18    0.32
   7   3   1    1.38    0.45
   7   3   1    0.56    0.42
   8   3   1    5.14    0.80
   8   3   1    5.47    0.77
   8   3   1    5.02    0.84
   6  -4  -1    2.16    0.39
   6  -4  -1    2.79    0.77
   6  -4  -1    2.16    0.38
  -6   4   1    4.11    0.83
  -6   4   1    2.51    0.66
   5  -4  -1    5.36    0.53
   5  -4  -1    5.27    0.82
   5  -4  -1    4.47    0.44
   5  -4  -1    4.70    0.45
  -5   4   1    4.90    0.79
  -5   4   1    4.33    0.79
   4  -4  -1   27.80    1.17
   4  -4  -1   24.96    1.14
   4  -4  -1   29.11    1.23
   4  -4  -1   29.39    1.22
   4  -4  -1   27.72    1.57
   4  -4  -1   29.99    1.56
  -4   4   1   27.17    1.50
   3  -4  -1   11.94    0.61
   3  -4  -1   12.35    0.90
   3  -4  -1   11.33    0.60
   3  -4  -1   11.37    0.83
   3  -4  -1   11.48    0.60
   3  -4  -1   11.18    0.58
  -3   4   1   12.31    0.86
   2  -4  -1   46.64    1.82
   2  -4  -1   50.01    1.80
   2  -4  -1   50.90    1.79
   2  -4  -1   49.14    2.13
   2  -4  -1   50.03    1.81
   2  -4  -1   51.02    1.93
  -2   4   1   52.81    1.69
  -2   4   1   49.28    2.06
  -2   4   1   50.97    1.68
   1  -4  -1   52.91    1.97
   1  -4  -1   58.81    2.15
   1  -4  -1   54.91    1.94
   1  -4  -1   55.39    2.00
   1  -4  -1   54.86    1.94
   1  -4  -1   55.20    2.00
   1  -4  -1   53.84    1.92
   1  -4  -1   58.52    2.32
  -1   4   1   56.38    1.95
  -1   4   1   54.83    1.91
  -1   4   1   54.28    2.12
   0  -4  -1    0.67    0.16
   0  -4  -1    0.88    0.18
   0  -4  -1    0.98    0.16
   0  -4  -1    1.22    0.18
   0  -4  -1    0.89    0.18
   0  -4  -1    0.94    0.18
   0   4   1    0.93    0.23
   0   4   1    1.07    0.16
   0   4   1    1.13    0.19
   0   4   1    0.94    0.17
   0   4   1    0.97    0.16
   0   4   1    0.92    0.15
  -1  -4  -1   16.14    0.84
  -1  -4  -1   19.03    0.78
  -1  -4  -1   17.85    0.78
  -1  -4  -1   18.34    0.77
  -1  -4  -1   17.86    0.83
  -1  -4  -1   19.07    0.83
   1   4   1   17.78    0.78
   1   4   1   15.82    0.79
   1   4   1   17.53    0.79
   1   4   1   17.44    0.76
   1   4   1   17.58    0.84
   1   4   1   18.21    0.77
   1   4   1   18.20    0.79
  -2  -4  -1   38.18    1.47
  -2  -4  -1   37.24    1.60
  -2  -4  -1   36.17    1.55
  -2  -4  -1   38.65    1.51
  -2  -4  -1   36.75    1.50
  -2  -4  -1   40.93    1.57
   2   4   1   38.87    1.36
   2   4   1   38.48    1.49
   2   4   1   41.28    1.54
   2   4   1   37.80    1.50
   2   4   1   40.62    1.56
   2   4   1   40.18    1.61
   2   4   1   38.85    1.56
   2   4   1   39.60    1.55
  -3  -4  -1    0.59    0.18
  -3  -4  -1    1.21    0.28
  -3  -4  -1    1.14    0.31
  -3  -4  -1    0.91    0.26
  -3  -4  -1    0.75    0.21
  -3  -4  -1    1.05    0.26
   3   4   1    0.66    0.21
   3   4   1    0.55    0.23
   3   4   1    0.83    0.27
   3   4   1    0.46    0.22
   3   4   1    0.65    0.24
   3   4   1    0.86    0.25
   3   4   1    0.74    0.20
  -4  -4  -1   19.21    1.04
  -4  -4  -1   19.36    0.97
  -4  -4  -1   18.22    1.09
  -4  -4  -1   17.46    0.91
  -4  -4  -1   20.81    1.07
   4   4   1   18.09    0.94
   4   4   1   19.76    1.07
   4   4   1   18.14    0.70
   4   4   1   19.18    1.04
   4   4   1   18.37    0.95
   4   4   1   18.71    1.04
  -5  -4  -1    6.86    0.72
  -5  -4  -1    5.99    0.61
  -5  -4  -1    6.53    0.57
   5   4   1    5.86    0.65
   5   4   1    6.29    0.65
   5   4   1    6.69    0.65
   5   4   1    5.84    0.57
   5   4   1    6.07    0.36
   5   4   1    6.02    0.55
  -6  -4  -1    0.63    0.30
  -6  -4  -1    1.28    0.42
  -6  -4  -1    0.41    0.37
   6   4   1    0.76    0.38
   6   4   1    0.95    0.36
   6   4   1    0.68    0.37
   6   4   1    1.33    0.39
   6   4   1    2.05    0.48
  -7  -4  -1    9.24    0.99
  -7  -4  -1   11.09    0.90
   7   4   1   10.92    0.90
   7   4   1   10.88    0.98
   7   4   1    8.45    0.86
  -8  -4  -1   12.25    1.20
   8   4   1   11.90    1.18
   8   4   1   13.91    1.18
   8   4   1   12.93    1.07
   6  -5  -1    2.67    0.40
   6  -5  -1    2.89    0.77
  -6   5   1    3.64    0.80
   5  -5  -1    8.47    0.57
   5  -5  -1    9.07    0.65
   5  -5  -1    8.71    0.55
   5  -5  -1   10.10    1.04
  -5   5   1    9.04    0.97
   4  -5  -1    0.00    0.24
   4  -5  -1    0.32    0.35
   4  -5  -1    0.05    0.15
   4  -5  -1    0.00    0.13
   4  -5  -1   -0.08    0.17
  -4   5   1   -0.05    0.25
   3  -5  -1    1.22    0.20
   3  -5  -1    2.04    0.46
   3  -5  -1    1.10    0.21
   3  -5  -1    1.46    0.24
   3  -5  -1    1.59    0.33
   3  -5  -1    1.39    0.43
   3  -5  -1    1.48    0.19
  -3   5   1    1.65    0.44
   2  -5  -1   18.57    1.14
   2  -5  -1   18.48    0.83
   2  -5  -1   18.38    0.80
   2  -5  -1   19.24    0.94
   2  -5  -1   19.49    0.77
  -2   5   1   17.08    1.04
   1  -5  -1   25.04    1.06
   1  -5  -1   25.36    1.08
   1  -5  -1   24.00    0.98
   1  -5  -1   22.83    0.95
   1  -5  -1   25.86    0.99
   1  -5  -1   24.02    1.00
  -1   5   1   24.41    0.96
  -1   5   1   22.37    1.16
  -1   5   1   24.74    0.92
   0  -5  -1   18.68    0.80
   0  -5  -1   17.89    0.82
   0  -5  -1   18.06    0.86
   0  -5  -1   19.54    0.83
   0  -5  -1   18.01    0.85
   0  -5  -1   16.97    0.85
   0   5   1   18.79    0.80
   0   5   1   20.91    0.85
   0   5   1   18.84    0.76
   0   5   1   19.05    0.77
   0   5   1   18.39    0.79
   0   5   1   17.76    0.89
  -1  -5  -1   64.45    2.39
  -1  -5  -1   67.42    2.35
  -1  -5  -1   63.57    2.34
  -1  -5  -1   65.30    2.36
  -1  -5  -1   64.41    2.42
  -1  -5  -1   61.38    2.42
  -1  -5  -1   66.53    2.40
   1   5   1   66.07    2.34
   1   5   1   67.59    2.34
   1   5   1   66.35    2.38
   1   5   1   66.00    2.42
   1   5   1   65.31    2.36
   1   5   1   66.12    2.35
   1   5   1   60.88    2.31
  -2  -5  -1    0.66    0.21
  -2  -5  -1    0.14    0.20
  -2  -5  -1    0.49    0.17
  -2  -5  -1    0.61    0.19
  -2  -5  -1    0.82    0.22
  -2  -5  -1    0.56    0.21
   2   5   1    0.55    0.14
   2   5   1    0.34    0.21
   2   5   1    0.65    0.22
   2   5   1    0.87    0.24
   2   5   1    0.74    0.22
   2   5   1    0.56    0.21
  -3  -5  -1   42.33    1.77
  -3  -5  -1   39.94    1.82
  -3  -5  -1   43.36    1.62
  -3  -5  -1   41.38    1.76
  -3  -5  -1   40.80    1.68
  -3  -5  -1   41.35    1.72
   3   5   1   40.51    1.66
   3   5   1   41.14    1.74
   3   5   1   42.23    1.64
   3   5   1   39.77    1.37
   3   5   1   38.29    1.72
   3   5   1   40.48    1.74
   3   5   1   43.16    1.74
  -4  -5  -1   37.66    1.60
  -4  -5  -1   38.15    1.76
  -4  -5  -1   39.41    1.85
  -4  -5  -1   40.04    1.69
   4   5   1   39.02    1.76
   4   5   1   41.11    1.69
   4   5   1   39.20    1.63
   4   5   1   38.19    1.76
   4   5   1   37.97    1.75
  -5  -5  -1    3.87    0.58
  -5  -5  -1    2.79    0.45
  -5  -5  -1    2.77    0.56
  -5  -5  -1    3.02    0.45
   5   5   1    2.61    0.46
   5   5   1    3.20    0.55
   5   5   1    2.54    0.49
   5   5   1    2.56    0.42
   5   5   1    3.04    0.55
  -6  -5  -1   34.06    1.88
  -6  -5  -1   32.22    1.60
  -6  -5  -1   34.98    1.78
   6   5   1   33.99    1.67
   6   5   1   32.38    2.06
   6   5   1   34.15    1.79
   6   5   1   35.32    1.66
   6   5   1   35.38    1.87
  -7  -5  -1    6.20    0.94
  -7  -5  -1    7.29    0.77
   7   5   1    5.41    0.83
   7   5   1    5.94    0.79
  -8  -5  -1    3.03    0.77
   8   5   1    3.10    0.70
   8   5   1    4.32    0.83
   5  -6  -1    2.32    0.32
   5  -6  -1    3.15    0.40
   5  -6  -1    3.23    0.74
  -5   6   1    1.84    0.62
   4  -6  -1   14.13    0.70
   4  -6  -1   15.80    1.25
   4  -6  -1   14.02    0.71
   4  -6  -1   14.63    1.00
   4  -6  -1   14.85    0.62
  -4   6   1   13.74    1.14
   3  -6  -1   23.38    0.92
   3  -6  -1   22.03    0.98
   3  -6  -1   24.29    0.91
   3  -6  -1   24.12    1.22
   3  -6  -1   22.50    1.43
   3  -6  -1   24.80    1.38
  -3   6   1   21.80    1.36
   2  -6  -1    1.58    0.24
   2  -6  -1    1.05    0.29
   2  -6  -1    0.80    0.19
   2  -6  -1    1.19    0.29
   2  -6  -1    0.98    0.16
   2  -6  -1    0.74    0.37
   2  -6  -1    0.92    0.17
  -2   6   1    0.43    0.32
   1  -6  -1   22.30    0.90
   1  -6  -1   22.11    1.05
   1  -6  -1   19.52    1.00
   1  -6  -1   21.75    0.92
   1  -6  -1   20.06    0.92
   1  -6  -1   20.91    0.90
  -1   6   1   21.19    0.84
  -1   6   1   20.60    1.12
  -1   6   1   21.46    0.81
   0  -6  -1   11.90    0.65
   0  -6  -1   13.85    0.65
   0  -6  -1   11.52    0.65
   0  -6  -1   12.48    0.70
   0  -6  -1   11.38    0.69
   0  -6  -1   12.63    0.72
   0   6   1   12.36    0.76
   0   6   1   12.09    0.62
   0   6   1   12.46    0.64
   0   6   1   13.56    0.58
   0   6   1   12.67    0.67
  -1  -6  -1    0.30    0.18
  -1  -6  -1    0.11    0.17
  -1  -6  -1   -0.13    0.16
  -1  -6  -1    0.00    0.15
  -1  -6  -1    0.10    0.15
  -1  -6  -1    0.13    0.14
  -1  -6  -1    0.23    0.16
   1   6   1    0.24    0.15
   1   6   1    0.16    0.17
   1   6   1    0.20    0.16
   1   6   1    0.17    0.18
   1   6   1    0.07    0.14
  -2  -6  -1   39.73    1.64
  -2  -6  -1   39.00    1.73
  -2  -6  -1   37.14    1.60
  -2  -6  -1   38.17    1.67
  -2  -6  -1   38.91    1.69
  -2  -6  -1   39.42    1.57
  -2  -6  -1   41.72    1.62
   2   6   1   40.21    1.48
   2   6   1   40.37    1.64
   2   6   1   39.88    1.66
   2   6   1   39.44    1.66
   2   6   1   38.98    1.58
  -3  -6  -1   20.28    1.15
  -3  -6  -1   23.26    1.14
  -3  -6  -1   25.83    1.15
  -3  -6  -1   23.60    1.21
  -3  -6  -1   23.36    1.03
  -3  -6  -1   21.25    1.22
   3   6   1   23.44    1.18
   3   6   1   20.56    1.07
   3   6   1   22.41    0.81
   3   6   1   22.60    1.15
   3   6   1   22.01    1.16
  -4  -6  -1    6.94    0.52
  -4  -6  -1    5.14    0.71
  -4  -6  -1    6.98    0.67
  -4  -6  -1    6.31    0.58
   4   6   1    5.69    0.52
   4   6   1    7.58    0.71
   4   6   1    7.25    0.60
   4   6   1    7.06    0.65
  -5  -6  -1   21.88    1.22
  -5  -6  -1   21.07    1.38
  -5  -6  -1   22.18    1.11
  -5  -6  -1   22.59    1.31
   5   6   1   20.71    1.29
   5   6   1   22.56    1.15
   5   6   1   23.40    1.36
   5   6   1   19.61    1.18
  -6  -6  -1    4.37    0.70
  -6  -6  -1    5.89    0.86
  -6  -6  -1    4.39    0.56
   6   6   1    4.89    0.66
   6   6   1    4.02    0.56
   6   6   1    3.76    0.67
   6   6   1    3.80    0.67
  -7  -6  -1    0.77    0.51
  -7  -6  -1    0.61    0.38
   7   6   1    0.71    0.49
   7   6   1    0.13    0.38
   7   6   1    0.46    0.40
  -8  -6  -1    4.45    0.91
   8   6   1    6.28    0.98
   4  -7  -1    1.59    0.45
   4  -7  -1    1.65    0.23
   4  -7  -1    2.32    0.65
   4  -7  -1    1.37    0.23
  -4   7   1    1.32    0.57
   3  -7  -1    1.93    0.17
   3  -7  -1    2.92    0.63
   3  -7  -1    1.98    0.28
   3  -7  -1    2.18    0.43
   3  -7  -1    2.05    0.42
   3  -7  -1    2.10    0.24
  -3   7   1    2.91    0.62
   2  -7  -1    4.38    0.75
   2  -7  -1    4.25    0.34
   2  -7  -1    5.01    0.40
   2  -7  -1    4.54    0.55
   2  -7  -1    3.88    0.52
   2  -7  -1    4.66    0.38
  -2   7   1    5.05    0.70
   1  -7  -1    9.96    0.70
   1  -7  -1   10.40    0.71
   1  -7  -1    9.48    0.55
   1  -7  -1    9.36    0.57
   1  -7  -1   10.06    0.59
   1  -7  -1    9.81    0.54
  -1   7   1    9.78    0.47
  -1   7   1    9.52    0.40
  -1   7   1    8.10    0.78
   0  -7  -1    0.09    0.17
   0  -7  -1   -0.23    0.14
   0  -7  -1   -0.05    0.12
   0  -7  -1    0.18    0.19
   0  -7  -1    0.00    0.17
   0  -7  -1    0.07    0.19
   0   7   1    0.42    0.29
  -1  -7  -1   31.31    1.38
  -1  -7  -1   31.82    1.41
  -1  -7  -1   32.51    1.48
  -1  -7  -1   31.28    1.45
  -1  -7  -1   31.14    1.41
  -1  -7  -1   32.54    1.40
  -1  -7  -1   30.84    1.36
   1   7   1   33.23    1.39
   1   7   1   33.27    1.30
   1   7   1   31.05    1.34
   1   7   1   31.66    1.36
   1   7   1   32.87    1.34
  -2  -7  -1   17.32    0.97
  -2  -7  -1   16.44    0.89
  -2  -7  -1   16.23    0.95
  -2  -7  -1   16.44    0.86
  -2  -7  -1   16.48    0.92
  -2  -7  -1   15.80    1.01
  -2  -7  -1   18.12    0.92
   2   7   1   15.39    0.92
   2   7   1   16.95    0.87
   2   7   1   18.26    0.80
   2   7   1   15.29    0.90
   2   7   1   18.00    0.93
  -3  -7  -1    3.11    0.47
  -3  -7  -1    3.47    0.52
  -3  -7  -1    3.05    0.37
  -3  -7  -1    3.81    0.58
  -3  -7  -1    2.95    0.50
  -3  -7  -1    3.83    0.51
   3   7   1    2.99    0.50
   3   7   1    2.70    0.48
   3   7   1    3.78    0.54
  -4  -7  -1   31.38    1.48
  -4  -7  -1   30.57    1.56
  -4  -7  -1   27.51    1.60
  -4  -7  -1   30.05    1.31
   4   7   1   29.80    1.53
   4   7   1   28.65    1.43
   4   7   1   28.30    1.52
  -5  -7  -1    4.52    0.76
  -5  -7  -1    4.95    0.73
  -5  -7  -1    5.12    0.50
   5   7   1    4.41    0.61
   5   7   1    4.64    0.69
   5   7   1    4.02    0.53
   5   7   1    3.96    0.68
  -6  -7  -1    5.21    0.79
  -6  -7  -1    6.30    0.63
  -6  -7  -1    5.33    0.86
   6   7   1    5.85    0.66
   6   7   1    5.94    0.84
  -7  -7  -1    4.73    0.91
   7   7   1    3.15    0.71
   4  -8  -1    1.02    0.17
   4  -8  -1    0.94    0.18
   4  -8  -1    0.78    0.58
  -4   8   1    0.41    0.51
   3  -8  -1    6.35    0.98
   3  -8  -1    6.71    0.48
   3  -8  -1    7.56    0.42
  -3   8   1    6.49    0.91
   2  -8  -1   -0.12    0.31
   2  -8  -1    0.13    0.16
   2  -8  -1    0.02    0.29
   2  -8  -1    0.20    0.14
   2  -8  -1   -0.49    0.30
   2  -8  -1    0.35    0.18
  -2   8   1    0.50    0.40
   1  -8  -1    1.53    0.30
   1  -8  -1    1.98    0.42
   1  -8  -1    1.41    0.28
   1  -8  -1    0.99    0.23
   1  -8  -1    1.71    0.39
  -1   8   1    2.01    0.48
   0  -8  -1    1.90    0.36
   0  -8  -1    1.53    0.32
   0  -8  -1    1.62    0.35
   0  -8  -1    2.20    0.33
   0  -8  -1    2.08    0.39
   0   8   1    1.75    0.41
  -1  -8  -1   11.10    0.68
  -1  -8  -1   11.15    1.05
  -1  -8  -1   11.27    0.74
  -1  -8  -1    8.92    0.70
  -1  -8  -1   10.58    0.75
  -1  -8  -1   10.52    0.77
  -1  -8  -1   10.58    0.70
   1   8   1   11.48    0.69
   1   8   1   10.32    0.70
   1   8   1    9.32    0.65
  -2  -8  -1    0.41    0.23
  -2  -8  -1    0.39    0.24
  -2  -8  -1    0.25    0.22
  -2  -8  -1    0.25    0.28
  -2  -8  -1    0.15    0.25
  -2  -8  -1    0.12    0.19
  -2  -8  -1    0.27    0.28
   2   8   1    0.35    0.24
   2   8   1   -0.01    0.20
   2   8   1    0.45    0.27
   2   8   1    0.03    0.19
  -3  -8  -1   14.54    0.99
  -3  -8  -1   15.24    0.81
  -3  -8  -1   14.14    0.93
  -3  -8  -1   13.25    1.05
   3   8   1   14.00    0.96
   3   8   1   16.57    1.00
  -4  -8  -1    7.83    0.60
  -4  -8  -1    9.78    0.85
  -4  -8  -1    6.92    0.82
  -4  -8  -1    7.80    0.73
   4   8   1    8.67    0.81
   4   8   1    8.81    0.82
  -5  -8  -1    1.19    0.47
  -5  -8  -1    1.45    0.44
  -5  -8  -1    0.51    0.43
   5   8   1    0.27    0.35
   5   8   1    0.45    0.39
  -6  -8  -1    8.86    0.97
  -6  -8  -1    8.57    1.14
   6   8   1    9.74    0.99
  -7  -8  -1    2.81    0.81
   7   8   1    4.21    0.81
   3  -9  -1    4.39    0.91
   3  -9  -1    2.96    0.30
   3  -9  -1    3.78    0.37
  -3   9   1    3.75    0.82
   2  -9  -1    0.74    0.21
   2  -9  -1    0.69    0.50
   2  -9  -1    0.33    0.22
  -2   9   1    0.69    0.47
   1  -9  -1   13.50    0.76
   1  -9  -1   12.71    0.78
   1  -9  -1   12.91    0.78
  -1   9   1   13.00    1.04
   0  -9  -1    3.20    0.48
   0  -9  -1    3.87    0.60
   0  -9  -1    3.08    0.46
   0   9   1    2.88    0.53
  -1  -9  -1    0.89    0.48
  -1  -9  -1    2.00    0.43
  -1  -9  -1    1.60    0.37
  -1  -9  -1    2.45    0.44
  -1  -9  -1    1.55    0.38
   1   9   1    1.16    0.34
  -2  -9  -1   11.43    0.84
  -2  -9  -1   12.35    0.83
  -2  -9  -1   11.07    0.87
  -2  -9  -1   13.53    0.80
  -2  -9  -1   12.95    0.97
   2   9   1   13.57    1.02
  -3  -9  -1    4.00    0.65
  -3  -9  -1    3.62    0.55
  -3  -9  -1    3.63    0.66
   3   9   1    2.06    0.48
   3   9   1    4.37    0.61
  -4  -9  -1    5.98    0.76
  -4  -9  -1    6.98    0.90
  -4  -9  -1    4.80    0.76
   4   9   1    5.26    0.74
   4   9   1    5.54    0.77
  -5  -9  -1    9.05    1.02
  -5  -9  -1    8.62    0.93
   5   9   1    9.55    0.99
   5   9   1    8.75    0.96
  -6  -9  -1    0.44    0.51
  -6  -9  -1    0.04    0.46
   6   9   1    0.04    0.41
   1 -10  -1    0.21    0.25
  -1  10   1    0.16    0.40
   0 -10  -1    4.66    0.59
   0 -10  -1    3.98    0.57
   0  10   1    3.04    0.58
  -1 -10  -1    0.85    0.34
  -1 -10  -1    1.34    0.43
  -2 -10  -1    0.73    0.39
  -2 -10  -1    1.04    0.43
  -3 -10  -1    1.29    0.47
  -3 -10  -1    0.55    0.40
  -3 -10  -1    0.70    0.41
  -4 -10  -1    7.15    0.93
  -4 -10  -1    7.87    1.04
  -5 -10  -1   -0.18    0.42
  -5 -10  -1    0.44    0.48
  -1 -11  -1    0.60    0.59
  -1 -11  -1    1.02    0.43
  -2 -11  -1    2.53    0.63
  -2 -11  -1    2.93    0.59
  -3 -11  -1    0.70    0.49
  -3 -11  -1    0.83    0.50
  -4 -11  -1    0.60    0.49
  -2 -11   2    6.54    0.89
  -2 -11   2    6.60    1.01
  -2 -11   2    8.20    1.03
  -1 -11   2    8.48    0.91
  -1 -11   2   11.27    1.14
  -4 -10   2    0.19    0.48
  -4 -10   2    0.03    0.42
  -4 -10   2    0.05    0.50
  -3 -10   2    1.75    0.59
  -3 -10   2    1.70    0.56
  -3 -10   2    1.79    0.62
  -2 -10   2   14.44    1.15
  -2 -10   2   16.42    1.29
  -2 -10   2   12.21    1.05
   1  10  -2    1.65    0.54
  -1 -10   2    1.98    0.60
  -1 -10   2    1.93    0.46
  -1 -10   2    2.50    0.54
   0 -10   2   15.22    1.21
   0 -10   2   14.04    0.94
   0 -10   2   12.44    0.93
   1 -10   2    7.67    0.63
   1 -10   2    6.81    0.59
   1 -10   2    9.37    1.01
   2 -10   2    0.22    0.19
   2 -10   2   -0.03    0.44
   5   9  -2   -0.65    0.40
  -5  -9   2    1.43    0.56
  -5  -9   2   -0.25    0.43
  -5  -9   2    0.67    0.58
   4   9  -2    6.40    0.88
  -4  -9   2    7.20    0.95
  -4  -9   2    6.00    0.93
  -4  -9   2    7.17    1.01
   3   9  -2    6.85    1.07
  -3  -9   2    6.13    0.83
  -3  -9   2    7.82    0.89
  -3  -9   2    7.50    1.00
   2   9  -2    0.04    0.30
  -2  -9   2    0.50    0.40
  -2  -9   2    0.37    0.34
  -2  -9   2    0.44    0.39
  -2  -9   2   -0.06    0.30
   1   9  -2    2.30    0.53
  -1  -9   2    1.71    0.46
  -1  -9   2    2.43    0.58
  -1  -9   2    2.71    0.49
  -1  -9   2    2.86    0.60
   0   9  -2   24.55    1.42
   0  -9   2   25.24    1.55
   0  -9   2   26.35    1.29
   0  -9   2   25.58    1.31
   0  -9   2   23.11    1.55
  -1   9  -2    0.84    0.40
   1  -9   2    1.50    0.53
   1  -9   2    0.87    0.26
   1  -9   2    0.81    0.27
   1  -9   2    1.13    0.50
   1  -9   2    1.15    0.28
   2  -9   2   26.75    1.62
   2  -9   2   25.44    1.08
   2  -9   2   26.54    1.11
   3  -9   2    8.43    0.98
   6   8  -2    1.57    0.65
  -6  -8   2    0.46    0.53
   5   8  -2    2.11    0.64
  -5  -8   2    2.56    0.69
  -5  -8   2    2.64    0.71
  -5  -8   2    2.33    0.69
   4   8  -2   20.94    1.38
  -4  -8   2   21.47    1.48
  -4  -8   2   21.34    1.40
  -4  -8   2   22.68    1.51
   3   8  -2    6.45    0.88
   3   8  -2    6.85    0.76
  -3  -8   2    7.30    0.79
  -3  -8   2    7.86    0.86
  -3  -8   2    6.77    0.91
  -3  -8   2    5.70    0.85
   2   8  -2   31.03    1.54
   2   8  -2   34.64    1.78
  -2  -8   2   32.90    1.83
  -2  -8   2   30.88    1.77
  -2  -8   2   34.39    1.72
  -2  -8   2   32.96    1.64
   1   8  -2   38.48    1.86
   1   8  -2   35.74    1.62
  -1  -8   2   39.86    1.67
  -1  -8   2   37.42    1.72
  -1  -8   2   37.33    1.77
  -1  -8   2   38.84    1.66
  -1  -8   2   37.06    1.92
  -1  -8   2   37.13    1.95
   0   8  -2    8.11    0.72
   0  -8   2    6.80    0.60
   0  -8   2    5.89    0.58
   0  -8   2    7.35    0.55
   0  -8   2    7.93    0.44
   0  -8   2    7.60    0.80
   0  -8   2    7.99    0.80
  -1   8  -2   40.38    1.89
   1  -8   2   41.58    1.62
   1  -8   2   41.54    1.68
   1  -8   2   39.46    1.66
   1  -8   2   41.94    2.07
   1  -8   2   43.22    2.13
   1  -8   2   43.10    1.68
   2  -8   2    5.07    0.53
   2  -8   2    3.73    0.25
   2  -8   2    2.89    0.62
   2  -8   2    3.01    0.32
   2  -8   2    3.40    0.30
   2  -8   2    3.10    0.63
   3  -8   2   12.77    0.93
   3  -8   2   13.92    1.08
   4  -8   2   13.04    1.15
   4  -8   2   12.86    1.17
   7   7  -2    0.97    0.61
  -7  -7   2    0.19    0.55
   6   7  -2   10.88    1.12
  -6  -7   2   12.04    1.24
   5   7  -2   17.74    1.30
  -5  -7   2   20.15    1.35
  -5  -7   2   17.77    1.38
  -5  -7   2   17.92    1.38
   4   7  -2    7.02    0.77
   4   7  -2    8.84    0.89
  -4  -7   2    6.41    0.82
  -4  -7   2    5.05    0.81
  -4  -7   2    7.15    0.82
   3   7  -2   34.64    1.70
   3   7  -2   33.19    1.56
   3   7  -2   38.40    1.91
  -3  -7   2   34.27    1.73
  -3  -7   2   33.38    1.83
  -3  -7   2   36.24    1.65
  -3  -7   2   34.72    1.82
  -3  -7   2   35.19    1.88
   2   7  -2    0.37    0.28
   2   7  -2    0.51    0.24
   2   7  -2    0.19    0.27
  -2  -7   2    0.18    0.26
  -2  -7   2    0.17    0.31
  -2  -7   2    0.09    0.24
  -2  -7   2    0.42    0.14
  -2  -7   2    0.48    0.34
  -2  -7   2    0.37    0.31
  -2  -7   2    0.43    0.23
   1   7  -2    7.37    0.50
   1   7  -2    6.85    0.55
   1   7  -2    6.92    0.70
  -1  -7   2    6.69    0.55
  -1  -7   2    6.90    0.76
  -1  -7   2    7.63    0.60
  -1  -7   2    6.22    0.63
  -1  -7   2    7.49    0.49
  -1  -7   2    7.47    0.62
  -1  -7   2    6.44    0.75
   0   7  -2   10.92    0.80
   0   7  -2   10.01    0.49
   0   7  -2    9.77    0.57
   0  -7   2    9.75    0.49
   0  -7   2   10.00    0.89
   0  -7   2   10.69    0.70
   0  -7   2   10.29    0.66
   0  -7   2    9.40    0.84
   0  -7   2   10.44    0.67
   0  -7   2   10.44    0.63
  -1   7  -2    5.78    0.29
  -1   7  -2    6.69    0.34
  -1   7  -2    7.68    0.65
   1  -7   2    6.62    0.45
   1  -7   2    6.75    0.74
   1  -7   2    6.32    0.48
   1  -7   2    5.85    0.42
   1  -7   2    7.01    0.48
   1  -7   2    6.18    0.46
   1  -7   2    5.99    0.69
   2  -7   2    8.29    0.78
   2  -7   2    7.82    0.39
   2  -7   2    7.62    0.44
   2  -7   2    7.55    0.74
   2  -7   2    8.17    0.41
   2  -7   2    8.10    0.43
   2  -7   2    9.26    0.66
   3  -7   2   19.96    1.25
   3  -7   2   18.40    1.22
   3  -7   2   18.78    1.10
   4  -7   2    0.48    0.41
   4  -7   2    0.90    0.46
   5  -7   2    2.43    0.62
   5  -7   2    5.16    0.85
   7   6  -2    7.27    1.08
  -7  -6   2    7.83    1.17
   6   6  -2    2.73    0.63
  -6  -6   2    1.65    0.61
   5   6  -2    0.56    0.23
   5   6  -2   -0.08    0.27
   5   6  -2    0.85    0.39
  -5  -6   2    0.28    0.38
  -5  -6   2    0.35    0.40
  -5  -6   2    1.05    0.48
   4   6  -2   10.18    0.58
   4   6  -2    8.89    0.91
   4   6  -2   10.51    0.79
   4   6  -2   10.54    0.89
  -4  -6   2   12.57    0.85
  -4  -6   2   11.92    1.00
  -4  -6   2    8.80    0.88
  -4  -6   2    9.92    0.87
   3   6  -2   21.09    1.12
   3   6  -2   22.10    1.23
   3   6  -2   23.40    0.88
   3   6  -2   24.86    1.40
  -3  -6   2   22.18    1.26
  -3  -6   2   23.06    1.39
  -3  -6   2   21.28    1.30
  -3  -6   2   23.36    1.37
  -3  -6   2   23.55    1.20
   2   6  -2   18.71    1.16
   2   6  -2   19.10    1.03
  -2  -6   2   18.27    1.15
  -2  -6   2   18.73    1.18
  -2  -6   2   17.06    1.06
  -2  -6   2   18.63    1.04
  -2  -6   2   20.62    1.08
  -2  -6   2   18.40    0.73
  -2  -6   2   18.26    0.97
   1   6  -2   65.38    2.38
   1   6  -2   66.06    2.68
   1   6  -2   65.30    2.47
  -1  -6   2   66.08    2.45
  -1  -6   2   68.03    2.35
  -1  -6   2   63.88    2.52
  -1  -6   2   66.81    2.75
  -1  -6   2   61.46    2.67
  -1  -6   2   64.42    2.51
  -1  -6   2   64.30    2.56
   0   6  -2    0.24    0.17
   0   6  -2   -0.14    0.19
   0   6  -2    0.28    0.13
   0   6  -2    0.28    0.16
   0  -6   2    0.12    0.18
   0  -6   2    0.17    0.16
   0  -6   2    0.24    0.24
   0  -6   2    0.10    0.16
   0  -6   2    0.21    0.17
   0  -6   2    0.25    0.19
   0  -6   2    0.16    0.26
   0  -6   2    0.11    0.09
  -1   6  -2   19.06    0.73
  -1   6  -2   18.62    1.04
  -1   6  -2   18.90    0.78
   1  -6   2   19.26    0.87
   1  -6   2   19.24    0.82
   1  -6   2   19.97    1.15
   1  -6   2   19.15    1.13
   1  -6   2   18.74    0.85
   1  -6   2   19.37    0.85
   1  -6   2   18.91    0.87
   2  -6   2   22.40    1.23
   2  -6   2   22.90    0.87
   2  -6   2   21.85    0.89
   2  -6   2   22.61    0.88
   2  -6   2   23.26    0.86
   2  -6   2   24.57    1.29
   2  -6   2   24.16    1.12
   3  -6   2    2.34    0.46
   3  -6   2    2.45    0.47
   3  -6   2    2.03    0.40
   4  -6   2   13.89    1.06
   4  -6   2   12.35    1.00
   4  -6   2   13.76    0.96
   4  -6   2   13.24    1.02
   5  -6   2    6.44    0.87
   6  -6   2    0.32    0.42
   7   5  -2    5.85    0.92
   7   5  -2    7.14    0.91
   7   5  -2    6.84    1.03
  -7  -5   2    4.27    0.90
   6   5  -2    1.21    0.38
   6   5  -2    1.50    0.54
   6   5  -2    1.94    0.54
   6   5  -2    1.48    0.48
  -6  -5   2    1.48    0.57
   5   5  -2   38.62    1.64
   5   5  -2   37.53    1.78
   5   5  -2   37.14    1.93
   5   5  -2   36.16    1.88
   5   5  -2   35.12    1.95
  -5  -5   2   37.80    1.89
  -5  -5   2   36.73    1.97
   4   5  -2    0.57    0.29
   4   5  -2    0.38    0.34
   4   5  -2    0.79    0.22
   4   5  -2    0.88    0.37
  -4  -5   2    1.06    0.33
  -4  -5   2    0.95    0.40
  -4  -5   2    0.88    0.41
  -4  -5   2    0.78    0.34
   3   5  -2   38.83    1.73
   3   5  -2   37.66    1.62
   3   5  -2   36.07    1.80
   3   5  -2   37.75    1.39
  -3  -5   2   35.15    1.70
  -3  -5   2   36.47    1.83
  -3  -5   2   38.21    1.65
  -3  -5   2   40.39    1.85
  -3  -5   2   35.39    1.77
   2   5  -2   30.08    1.52
   2   5  -2   30.36    1.31
   2   5  -2   30.94    1.40
  -2  -5   2   30.15    1.53
  -2  -5   2   30.36    1.09
  -2  -5   2   31.04    1.41
  -2  -5   2   29.90    1.34
  -2  -5   2   31.60    1.56
  -2  -5   2   30.00    1.41
  -2  -5   2   30.99    1.47
   1   5  -2    0.79    0.24
   1   5  -2    1.01    0.31
   1   5  -2    1.06    0.21
   1   5  -2    0.70    0.24
   1   5  -2    1.08    0.32
  -1  -5   2    0.99    0.18
  -1  -5   2    1.01    0.28
  -1  -5   2    0.55    0.30
  -1  -5   2    0.60    0.19
  -1  -5   2    0.73    0.23
  -1  -5   2    1.05    0.25
  -1  -5   2    0.84    0.29
  -1  -5   2    1.25    0.35
   0   5  -2   38.24    1.67
   0   5  -2   36.79    1.46
   0   5  -2   38.92    1.40
   0   5  -2   37.58    1.50
   0   5  -2   39.28    1.66
   0  -5   2   36.25    1.69
   0  -5   2   38.10    1.32
   0  -5   2   39.25    1.76
   0  -5   2   38.71    1.51
   0  -5   2   36.76    1.52
   0  -5   2   37.50    1.50
   0  -5   2   37.62    1.50
   0  -5   2   37.75    1.45
  -1   5  -2   31.32    1.40
  -1   5  -2   31.02    1.11
  -1   5  -2   30.80    1.16
   1  -5   2   33.34    1.38
   1  -5   2   29.60    1.18
   1  -5   2   29.87    1.18
   1  -5   2   29.35    1.43
   1  -5   2   30.96    1.16
   1  -5   2   29.47    1.20
   1  -5   2   30.75    1.21
   1  -5   2   30.89    1.46
   2  -5   2    0.25    0.09
   2  -5   2    0.26    0.09
   2  -5   2    0.32    0.21
   2  -5   2    0.31    0.21
   2  -5   2    0.07    0.09
   2  -5   2    0.27    0.17
   2  -5   2    0.14    0.08
  -3   5  -2   15.22    1.11
   3  -5   2   13.65    0.89
   3  -5   2   12.78    0.87
   3  -5   2   15.00    0.85
   3  -5   2   12.74    0.48
  -4   5  -2   15.34    1.20
   4  -5   2   16.08    0.99
   4  -5   2   13.96    0.55
   4  -5   2   14.55    0.99
   4  -5   2   15.78    1.04
  -5   5  -2    0.58    0.50
   5  -5   2    0.69    0.15
   5  -5   2    0.64    0.13
   5  -5   2    0.94    0.41
  -6   5  -2    6.19    1.04
   6  -5   2    3.54    0.72
   6  -5   2    4.80    0.40
   6  -5   2    4.92    0.37
   7   4  -2   10.08    0.95
   7   4  -2    9.43    1.01
   7   4  -2    7.25    1.05
  -7  -4   2    9.09    1.18
   6   4  -2   11.63    1.01
   6   4  -2    8.45    0.76
   6   4  -2    9.26    0.98
   6   4  -2    8.29    0.82
  -6  -4   2   12.27    1.11
   5   4  -2   -0.11    0.20
   5   4  -2    0.23    0.32
   5   4  -2   -0.21    0.30
   5   4  -2   -0.26    0.23
   5   4  -2    0.08    0.31
   5   4  -2    0.17    0.29
  -5  -4   2    0.18    0.15
  -5  -4   2    0.29    0.36
  -5  -4   2    0.05    0.27
   4   4  -2   17.44    0.89
   4   4  -2   18.18    1.01
   4   4  -2   20.33    1.11
   4   4  -2   17.27    1.14
   4   4  -2   17.86    1.09
   4   4  -2   16.99    1.11
  -4  -4   2   17.68    0.73
  -4  -4   2   18.78    1.19
  -4  -4   2   17.81    1.02
  -4  -4   2   16.63    1.13
  -4  -4   2   15.77    1.04
   3   4  -2   42.51    1.79
   3   4  -2   41.30    1.95
   3   4  -2   44.23    1.65
   3   4  -2   45.14    1.94
   3   4  -2   42.59    1.87
   3   4  -2   46.97    1.89
  -3  -4   2   44.57    2.00
  -3  -4   2   46.39    1.93
  -3  -4   2   43.87    1.82
  -3  -4   2   43.38    1.96
  -3  -4   2   42.97    1.52
   2   4  -2    0.22    0.23
   2   4  -2    0.16    0.18
   2   4  -2    0.28    0.17
   2   4  -2    0.21    0.19
   2   4  -2    0.07    0.21
   2   4  -2    0.16    0.09
   2   4  -2   -0.11    0.15
  -2  -4   2    0.32    0.24
  -2  -4   2   -0.09    0.20
  -2  -4   2   -0.14    0.13
  -2  -4   2    0.12    0.17
  -2  -4   2    0.09    0.19
  -2  -4   2   -0.07    0.19
  -2  -4   2   -0.28    0.15
   1   4  -2   60.87    2.15
   1   4  -2   55.01    2.29
   1   4  -2   56.10    2.15
   1   4  -2   56.45    2.18
   1   4  -2   60.84    2.31
  -1  -4   2   54.83    2.16
  -1  -4   2   60.48    2.25
  -1  -4   2   57.58    2.18
  -1  -4   2   54.47    2.19
  -1  -4   2   57.29    2.11
  -1  -4   2   55.99    2.31
  -1  -4   2   56.00    2.32
   0   4  -2   32.08    1.36
   0   4  -2   28.32    1.33
   0   4  -2   30.90    1.19
   0   4  -2   30.55    1.22
   0   4  -2   29.60    1.12
   0   4  -2   30.05    1.18
   0  -4   2   29.49    1.03
   0  -4   2   29.90    1.17
   0  -4   2   29.74    1.38
   0  -4   2   30.87    1.21
   0  -4   2   30.09    1.40
   0  -4   2   29.58    1.20
   0  -4   2   27.16    1.37
   0  -4   2   30.86    1.19
   0  -4   2   29.31    1.23
  -1   4  -2    5.47    0.48
  -1   4  -2    5.92    0.35
  -1   4  -2    5.91    0.22
  -1   4  -2    5.88    0.31
   1  -4   2    6.31    0.36
   1  -4   2    6.82    0.46
   1  -4   2    6.57    0.54
   1  -4   2    5.52    0.35
   1  -4   2    6.40    0.59
   1  -4   2    5.19    0.34
   1  -4   2    6.13    0.37
   1  -4   2    5.98    0.33
   1  -4   2    5.96    0.52
  -2   4  -2   15.84    1.01
   2  -4   2   16.73    0.80
   2  -4   2   15.19    0.61
   2  -4   2   15.74    0.60
   2  -4   2   15.50    0.86
   2  -4   2   15.40    0.60
   2  -4   2   15.64    0.88
   2  -4   2   15.86    0.61
  -3   4  -2    4.16    0.64
   3  -4   2    3.76    0.41
   3  -4   2    2.79    0.18
   3  -4   2    3.99    0.49
   3  -4   2    2.84    0.17
   3  -4   2    2.58    0.44
  -4   4  -2   -0.07    0.30
   4  -4   2    0.30    0.11
   4  -4   2    0.22    0.22
   4  -4   2    0.22    0.24
   4  -4   2    0.13    0.09
   4  -4   2    0.03    0.07
   4  -4   2   -0.02    0.19
  -5   4  -2    5.36    0.83
   5  -4   2    8.46    0.79
   5  -4   2    6.30    0.42
   5  -4   2    6.69    0.38
   5  -4   2    6.69    0.71
   5  -4   2    6.59    0.39
   5  -4   2    4.91    0.70
   5  -4   2    6.22    0.36
  -6   4  -2    7.76    1.14
   6  -4   2    7.94    0.48
   6  -4   2    6.90    0.89
   6  -4   2    7.73    0.50
   6  -4   2    7.59    0.55
  -7   4  -2   -0.37    0.52
   7  -4   2    0.00    0.21
   7  -4   2   -0.19    0.38
   7   3  -2    5.18    0.78
   7   3  -2    4.76    0.81
   7   3  -2    5.11    0.88
  -7  -3   2    5.64    0.88
  -7  -3   2    5.20    0.91
   6   3  -2    1.45    0.53
   6   3  -2    1.73    0.43
   6   3  -2    0.95    0.40
   6   3  -2    1.59    0.50
  -6  -3   2    1.06    0.47
  -6  -3   2    1.30    0.31
   5   3  -2    7.23    0.68
   5   3  -2    7.95    0.73
   5   3  -2    8.68    0.69
   5   3  -2    8.92    0.85
   5   3  -2    8.59    0.79
   5   3  -2    8.93    0.80
  -5  -3   2    9.01    0.77
  -5  -3   2    7.75    0.55
  -5  -3   2    8.73    0.83
   4   3  -2   42.11    1.91
   4   3  -2   36.68    1.78
   4   3  -2   40.46    1.86
   4   3  -2   39.59    1.64
   4   3  -2   38.01    1.68
   4   3  -2   41.23    1.79
  -4  -3   2   37.07    1.49
  -4  -3   2   40.00    1.72
  -4  -3   2   38.84    1.78
  -4  -3   2   39.40    1.87
  -4  -3   2   38.61    1.89
   3   3  -2    6.15    0.50
   3   3  -2    5.66    0.57
   3   3  -2    5.26    0.52
   3   3  -2    6.17    0.52
   3   3  -2    5.01    0.55
   3   3  -2    5.86    0.56
   3   3  -2    6.29    0.43
  -3  -3   2    5.92    0.55
  -3  -3   2    5.15    0.56
  -3  -3   2    5.99    0.58
  -3  -3   2    5.70    0.54
  -3  -3   2    5.89    0.36
  -3  -3   2    5.88    0.49
   2   3  -2   50.72    1.84
   2   3  -2   56.03    2.11
   2   3  -2   55.60    2.06
   2   3  -2   54.43    2.00
   2   3  -2   58.60    2.16
   2   3  -2   51.37    2.09
   2   3  -2   53.94    2.15
   2   3  -2   53.16    2.07
  -2  -3   2   53.72    2.12
  -2  -3   2   53.48    2.09
  -2  -3   2   49.59    2.15
  -2  -3   2   52.75    2.00
  -2  -3   2   47.18    2.10
  -2  -3   2   47.43    2.03
  -2  -3   2   52.26    2.07
   1   3  -2   80.57    2.94
   1   3  -2   77.75    2.56
   1   3  -2   75.03    2.74
   1   3  -2   77.03    2.81
   1   3  -2   80.18    2.80
   1   3  -2   78.28    2.83
   1   3  -2   79.52    2.95
  -1  -3   2   77.06    2.93
  -1  -3   2   76.45    2.95
  -1  -3   2   80.56    2.77
  -1  -3   2   83.74    2.84
  -1  -3   2   81.46    2.86
  -1  -3   2   74.77    2.81
   0   3  -2    3.18    0.28
   0   3  -2    3.35    0.36
   0   3  -2    2.67    0.37
   0   3  -2    2.54    0.22
   0   3  -2    2.44    0.25
   0   3  -2    2.59    0.29
   0  -3   2    2.56    0.28
   0  -3   2    2.66    0.39
   0  -3   2    2.73    0.27
   0  -3   2    2.51    0.35
   0  -3   2    3.07    0.27
   0  -3   2    2.27    0.13
   0  -3   2    3.01    0.41
   0  -3   2    2.37    0.24
  -1   3  -2   69.71    2.40
  -1   3  -2   69.15    2.29
  -1   3  -2   69.44    2.56
  -1   3  -2   65.01    2.63
  -1   3  -2   69.23    2.38
   1  -3   2   68.57    2.39
   1  -3   2   69.51    2.39
   1  -3   2   66.92    2.38
   1  -3   2   67.45    2.55
   1  -3   2   69.14    2.35
   1  -3   2   73.58    2.67
   1  -3   2   70.11    2.57
   1  -3   2   69.52    2.40
   1  -3   2   74.21    2.51
  -2   3  -2   15.38    0.76
  -2   3  -2   16.88    0.94
   2  -3   2   15.21    0.81
   2  -3   2   15.25    0.59
   2  -3   2   16.26    0.62
   2  -3   2   15.23    0.75
   2  -3   2   15.87    0.81
   2  -3   2   15.64    0.61
   2  -3   2   16.24    0.93
   2  -3   2   15.93    0.83
   2  -3   2   14.85    0.60
  -3   3  -2    9.06    0.74
   3  -3   2    8.85    0.41
   3  -3   2    9.12    0.64
   3  -3   2   10.10    0.63
   3  -3   2    9.10    0.39
   3  -3   2    8.70    0.60
   3  -3   2    9.29    0.41
   3  -3   2    9.54    0.40
  -4   3  -2   17.12    1.13
   4  -3   2   17.60    0.74
   4  -3   2   17.42    0.99
   4  -3   2   16.40    0.70
   4  -3   2   16.94    0.71
   4  -3   2   15.25    0.91
   4  -3   2   17.60    0.74
   4  -3   2   17.43    1.00
  -5   3  -2   14.62    1.09
   5  -3   2   10.94    0.58
   5  -3   2   11.71    0.63
   5  -3   2    9.81    0.57
   5  -3   2   11.05    0.82
   5  -3   2   11.37    0.89
   5  -3   2   11.46    0.62
  -6   3  -2    0.51    0.48
   6  -3   2    1.60    0.29
   6  -3   2    1.56    0.45
   6  -3   2    1.41    0.29
   6  -3   2    0.94    0.25
  -7   3  -2   15.34    1.42
   7  -3   2   17.82    0.96
   7  -3   2   16.67    0.93
   7  -3   2   17.83    1.24
   7   2  -2   -0.23    0.40
   7   2  -2    0.19    0.42
   7   2  -2    0.10    0.34
  -7  -2   2    0.20    0.33
   6   2  -2   15.91    1.14
   6   2  -2   13.44    1.15
   6   2  -2   15.43    1.03
  -6  -2   2   16.87    0.97
  -6  -2   2   13.62    1.12
  -6  -2   2   16.28    1.05
   5   2  -2   17.50    1.12
   5   2  -2   17.82    1.21
   5   2  -2   17.59    1.10
   5   2  -2   19.17    1.10
   5   2  -2   19.22    1.23
   5   2  -2   20.00    1.09
  -5  -2   2   19.98    0.99
  -5  -2   2   19.19    1.14
  -5  -2   2   17.48    1.19
   4   2  -2    0.30    0.23
   4   2  -2    0.79    0.29
   4   2  -2    0.42    0.28
   4   2  -2    0.50    0.23
   4   2  -2    0.56    0.24
   4   2  -2    0.63    0.27
   4   2  -2    0.26    0.26
  -4  -2   2    0.55    0.26
  -4  -2   2    1.01    0.35
  -4  -2   2    0.25    0.17
   3   2  -2   39.96    1.72
   3   2  -2   38.76    1.66
   3   2  -2   37.88    1.71
   3   2  -2   37.92    1.55
   3   2  -2   37.76    1.71
   3   2  -2   36.11    1.57
   3   2  -2   39.14    1.64
   3   2  -2   42.99    1.74
  -3  -2   2   39.58    1.60
  -3  -2   2   38.72    1.70
  -3  -2   2   37.11    1.69
  -3  -2   2   37.07    1.47
  -3  -2   2   40.86    1.67
  -3  -2   2   36.89    1.71
  -3  -2   2   40.24    1.68
   2   2  -2   24.70    1.08
   2   2  -2   25.21    1.12
   2   2  -2   23.32    0.95
   2   2  -2   22.43    1.09
   2   2  -2   21.20    1.05
   2   2  -2   22.88    1.01
   2   2  -2   24.44    1.11
   2   2  -2   23.37    1.12
  -2  -2   2   22.73    1.07
  -2  -2   2   23.96    1.08
  -2  -2   2   23.37    1.14
  -2  -2   2   22.01    1.08
  -2  -2   2   22.65    1.11
  -2  -2   2   21.64    1.09
  -2  -2   2   23.30    1.02
   1   2  -2   11.95    0.63
   1   2  -2   11.55    0.66
   1   2  -2   11.12    0.57
   1   2  -2   12.14    0.63
   1   2  -2   10.76    0.59
   1   2  -2   12.05    0.68
   1   2  -2   10.87    0.63
  -1  -2   2   10.81    0.57
  -1  -2   2   12.23    0.66
  -1  -2   2   10.55    0.61
  -1  -2   2   12.00    0.63
  -1  -2   2   12.39    0.70
  -1  -2   2   12.35    0.64
  -1  -2   2   11.68    0.68
   0   2  -2   49.19    1.79
   0   2  -2   49.02    1.78
   0   2  -2   48.72    1.65
   0   2  -2   48.96    1.89
   0   2  -2   49.44    1.81
   0   2  -2   50.98    1.90
   0   2  -2   46.72    1.73
   0  -2   2   46.70    1.78
   0  -2   2   52.04    1.80
   0  -2   2   49.69    1.81
   0  -2   2   49.46    1.75
   0  -2   2   50.47    1.82
   0  -2   2   48.08    1.88
   0  -2   2   49.90    1.79
   0  -2   2   49.71    1.91
  -1   2  -2    9.79    0.44
  -1   2  -2    9.11    0.37
  -1   2  -2    8.96    0.53
  -1   2  -2    8.88    0.56
  -1   2  -2    8.26    0.41
  -1   2  -2    8.47    0.42
   1  -2   2    9.72    0.54
   1  -2   2    8.48    0.51
   1  -2   2    9.63    0.56
   1  -2   2    8.48    0.43
   1  -2   2    9.16    0.45
   1  -2   2    8.67    0.45
   1  -2   2    9.13    0.41
   1  -2   2    8.58    0.42
  -2   2  -2    2.28    0.16
  -2   2  -2    2.35    0.26
  -2   2  -2    2.39    0.18
  -2   2  -2    2.22    0.34
   2  -2   2    2.32    0.18
   2  -2   2    2.30    0.35
   2  -2   2    1.91    0.17
   2  -2   2    1.76    0.16
   2  -2   2    2.29    0.31
   2  -2   2    2.38    0.28
   2  -2   2    2.40    0.26
  -3   2  -2   58.69    2.25
  -3   2  -2   56.14    2.01
  -3   2  -2   60.47    2.39
  -3   2  -2   57.99    1.99
   3  -2   2   59.19    2.26
   3  -2   2   57.98    2.04
   3  -2   2   58.50    2.02
   3  -2   2   57.59    2.25
   3  -2   2   63.96    2.43
   3  -2   2   60.37    2.05
   3  -2   2   58.90    2.07
   3  -2   2   57.90    2.17
  -4   2  -2   17.45    0.72
  -4   2  -2   16.47    1.05
  -4   2  -2   18.34    0.99
  -4   2  -2   16.78    0.70
   4  -2   2   17.16    0.73
   4  -2   2   16.02    0.87
   4  -2   2   15.90    0.77
   4  -2   2   16.25    0.76
   4  -2   2   16.23    0.75
   4  -2   2   17.45    0.98
  -5   2  -2   12.09    0.95
  -5   2  -2   11.20    0.58
  -5   2  -2   10.68    0.57
   5  -2   2   10.69    0.64
   5  -2   2   12.43    0.68
   5  -2   2   10.02    0.59
   5  -2   2   11.84    0.79
   5  -2   2   11.91    0.65
   5  -2   2    9.74    0.81
  -6   2  -2   15.99    1.21
   6  -2   2   16.32    0.85
   6  -2   2   16.29    0.89
   6  -2   2   17.05    1.06
   6  -2   2   16.87    0.93
  -7   2  -2    1.68    0.61
   7  -2   2    1.70    0.36
   7  -2   2    1.53    0.48
   7  -2   2    1.65    0.40
  -8   2  -2    2.32    0.74
   8  -2   2    1.94    0.46
   7   1  -2    4.88    0.86
   7   1  -2    6.20    0.86
   7   1  -2    5.92    0.80
  -7  -1   2    4.81    0.72
   6   1  -2   10.59    0.83
   6   1  -2   10.61    0.99
   6   1  -2   10.47    0.94
  -6  -1   2    9.60    0.90
  -6  -1   2    9.83    0.80
  -6  -1   2    9.56    0.82
   5   1  -2   -0.18    0.20
   5   1  -2    0.07    0.27
   5   1  -2    0.14    0.24
   5   1  -2    0.20    0.29
   5   1  -2   -0.07    0.25
   5   1  -2    0.39    0.33
   5   1  -2    0.22    0.27
  -5  -1   2   -0.35    0.25
  -5  -1   2    0.64    0.28
  -5  -1   2    0.39    0.26
  -5  -1   2   -0.04    0.26
   4   1  -2   19.04    1.06
   4   1  -2   20.16    1.02
   4   1  -2   19.88    1.06
   4   1  -2   19.95    1.11
   4   1  -2   19.53    1.14
   4   1  -2   19.07    1.15
   4   1  -2   20.85    1.08
  -4  -1   2   18.75    0.96
  -4  -1   2   20.21    0.98
  -4  -1   2   17.18    1.07
   3   1  -2   18.65    0.90
   3   1  -2   15.94    0.97
   3   1  -2   18.96    0.98
   3   1  -2   16.83    0.91
   3   1  -2   17.05    0.97
   3   1  -2   16.80    0.89
   3   1  -2   16.91    0.93
   3   1  -2   18.67    0.97
  -3  -1   2   18.89    1.02
  -3  -1   2   18.75    0.89
  -3  -1   2   18.22    0.94
  -3  -1   2   19.73    0.97
  -3  -1   2   17.99    0.86
  -3  -1   2   17.99    0.97
   2   1  -2    0.22    0.16
   2   1  -2    0.23    0.18
   2   1  -2    0.43    0.19
   2   1  -2    0.55    0.22
   2   1  -2    0.06    0.15
   2   1  -2    0.24    0.17
   2   1  -2   -0.08    0.13
  -2  -1   2    0.03    0.13
  -2  -1   2    0.17    0.18
  -2  -1   2    0.09    0.18
  -2  -1   2    0.55    0.19
  -2  -1   2    0.39    0.20
  -2  -1   2    0.25    0.18
   1   1  -2  124.35    4.22
   1   1  -2  120.56    4.16
   1   1  -2  116.37    4.17
   1   1  -2  123.41    4.19
   1   1  -2  123.57    4.20
   1   1  -2  119.57    4.13
   1   1  -2  125.71    4.21
  -1  -1   2  118.38    4.20
  -1  -1   2  123.89    4.19
  -1  -1   2  122.07    4.22
  -1  -1   2  123.98    4.14
  -1  -1   2  120.58    4.20
  -1  -1   2  123.87    4.18
  -1  -1   2  125.94    4.20
   0   1  -2   64.68    2.29
   0   1  -2   64.14    2.33
   0   1  -2   65.52    2.33
   0   1  -2   67.56    2.28
   0   1  -2   65.66    2.38
   0   1  -2   67.01    2.36
   0   1  -2   64.99    2.37
   0   1  -2   66.74    2.29
   0   1  -2   66.79    2.25
   0  -1   2   68.67    2.26
   0  -1   2   64.19    2.36
   0  -1   2   69.29    2.36
   0  -1   2   64.15    2.38
   0  -1   2   68.44    2.30
   0  -1   2   67.49    2.35
   0  -1   2   71.12    2.30
   0  -1   2   63.54    2.33
  -1   1  -2  103.03    3.54
  -1   1  -2  104.97    3.51
  -1   1  -2  107.13    3.56
  -1   1  -2  110.51    3.63
  -1   1  -2  106.24    3.52
  -1   1  -2  106.17    3.61
   1  -1   2  102.59    3.54
   1  -1   2  108.76    3.48
   1  -1   2  102.02    3.59
   1  -1   2  105.47    3.53
   1  -1   2  105.59    3.54
   1  -1   2  102.67    3.56
   1  -1   2  108.75    3.58
   1  -1   2  106.60    3.62
   1  -1   2  109.17    3.62
  -2   1  -2  137.51    4.57
  -2   1  -2  138.15    4.54
  -2   1  -2  136.37    4.75
  -2   1  -2  137.86    4.51
  -2   1  -2  143.80    4.54
  -2   1  -2  131.41    4.64
   2  -1   2  137.76    4.56
   2  -1   2  138.74    4.65
   2  -1   2  136.64    4.53
   2  -1   2  136.51    4.53
   2  -1   2  137.40    4.67
   2  -1   2  135.86    4.58
   2  -1   2  139.30    4.56
  -3   1  -2    2.35    0.19
  -3   1  -2    2.38    0.25
  -3   1  -2    2.51    0.21
  -3   1  -2    2.53    0.39
  -3   1  -2    2.31    0.32
  -3   1  -2    2.50    0.23
   3  -1   2    2.53    0.33
   3  -1   2    1.80    0.29
   3  -1   2    2.95    0.26
   3  -1   2    2.25    0.26
   3  -1   2    2.32    0.24
   3  -1   2    2.15    0.21
   3  -1   2    2.45    0.24
  -4   1  -2   14.89    0.87
  -4   1  -2   14.99    0.76
  -4   1  -2   17.04    0.71
  -4   1  -2   16.78    0.74
  -4   1  -2   15.35    0.98
  -4   1  -2   16.37    0.81
   4  -1   2   15.29    0.79
   4  -1   2   16.37    0.92
   4  -1   2   14.19    0.74
   4  -1   2   16.20    0.80
   4  -1   2   17.57    0.79
   4  -1   2   15.40    0.72
  -5   1  -2    9.46    0.74
  -5   1  -2    8.11    0.49
  -5   1  -2    8.25    0.78
  -5   1  -2    8.72    0.57
  -5   1  -2    8.60    0.62
   5  -1   2    7.75    0.52
   5  -1   2    7.39    0.56
   5  -1   2    9.07    0.74
   5  -1   2    7.82    0.60
   5  -1   2    9.04    0.59
   5  -1   2    8.21    0.61
  -6   1  -2    0.83    0.37
  -6   1  -2    0.64    0.22
  -6   1  -2    0.55    0.25
  -6   1  -2    0.41    0.40
   6  -1   2    0.88    0.27
   6  -1   2    0.87    0.29
   6  -1   2    0.35    0.29
   6  -1   2    1.00    0.30
  -7   1  -2    2.00    0.63
   7  -1   2    2.24    0.46
   7  -1   2    3.10    0.53
   7  -1   2    2.68    0.45
  -8   1  -2    1.69    0.65
   8  -1   2    1.56    0.43
   8  -1   2    1.48    0.46
   8  -1   2    0.51    0.41
   7   0  -2    1.21    0.58
   7   0  -2    1.78    0.47
   7   0  -2    1.64    0.52
  -7   0   2    1.67    0.52
   6   0  -2    0.08    0.37
   6   0  -2    0.23    0.34
   6   0  -2    0.45    0.35
  -6   0   2    0.86    0.39
  -6   0   2    0.85    0.37
   5   0  -2    9.57    0.87
   5   0  -2   11.92    0.79
   5   0  -2   10.18    0.92
   5   0  -2   10.87    0.88
   5   0  -2   10.99    0.80
   5   0  -2   10.72    0.85
   5   0  -2    9.64    0.80
  -5   0   2   11.48    0.80
  -5   0   2   10.47    0.79
  -5   0   2   11.28    1.12
  -5   0   2   10.24    0.84
   4   0  -2    5.49    0.55
   4   0  -2    4.76    0.47
   4   0  -2    4.84    0.65
   4   0  -2    5.65    0.51
   4   0  -2    5.44    0.59
   4   0  -2    5.24    0.53
  -4   0   2    4.86    0.48
  -4   0   2    5.51    0.53
  -4   0   2    5.46    0.55
  -4   0   2    5.88    0.51
   3   0  -2    5.58    0.53
   3   0  -2    5.90    0.50
   3   0  -2    7.71    0.58
   3   0  -2    6.86    0.49
   3   0  -2    7.00    0.55
   3   0  -2    6.42    0.53
   3   0  -2    5.98    0.52
   3   0  -2    6.40    0.49
  -3   0   2    6.71    0.50
  -3   0   2    6.33    0.58
  -3   0   2    6.33    0.50
  -3   0   2    6.45    0.45
  -3   0   2    6.47    0.46
  -3   0   2    5.15    0.46
  -3   0   2    6.11    0.52
   2   0  -2   31.23    1.30
   2   0  -2   30.01    1.22
   2   0  -2   29.98    1.28
   2   0  -2   31.22    1.28
   2   0  -2   29.36    1.24
   2   0  -2   30.38    1.33
   2   0  -2   29.90    1.27
  -2   0   2   28.96    1.23
  -2   0   2   30.19    1.34
  -2   0   2   29.50    1.28
  -2   0   2   31.30    1.23
  -2   0   2   31.82    1.29
  -2   0   2   29.49    1.13
   1   0  -2   16.98    0.77
   1   0  -2   14.34    0.74
   1   0  -2   16.21    0.77
   1   0  -2   15.71    0.72
   1   0  -2   14.74    0.72
   1   0  -2   17.00    0.73
   1   0  -2   15.79    0.73
  -1   0   2   16.69    0.77
  -1   0   2   15.03    0.73
  -1   0   2   14.96    0.70
  -1   0   2   16.86    0.74
  -1   0   2   15.37    0.75
  -1   0   2   15.71    0.57
  -1   0   2   16.61    0.74
  -1   0   2   17.11    0.78
   0   0  -2    9.50    0.48
   0   0  -2    8.85    0.45
   0   0  -2    9.56    0.51
   0   0  -2    9.45    0.46
   0   0  -2    9.10    0.48
   0   0  -2    9.55    0.47
   0   0  -2    9.59    0.50
   0   0   2    9.84    0.50
   0   0   2    9.08    0.46
   0   0   2    9.02    0.46
   0   0   2    8.87    0.46
   0   0   2    9.73    0.50
   0   0   2    8.33    0.50
   0   0   2   10.17    0.46
  -1   0  -2   50.80    1.73
  -1   0  -2   49.65    1.75
  -1   0  -2   50.88    1.64
  -1   0  -2   49.62    1.77
  -1   0  -2   48.37    1.74
  -1   0  -2   49.38    1.75
  -1   0  -2   51.15    1.76
   1   0   2   48.82    1.75
   1   0   2   50.91    1.78
   1   0   2   49.97    1.75
   1   0   2   46.83    1.74
   1   0   2   49.41    1.64
  -2   0  -2   61.31    2.11
  -2   0  -2   58.15    2.14
  -2   0  -2   61.29    2.17
  -2   0  -2   61.29    2.12
  -2   0  -2   58.83    2.08
  -2   0  -2   61.23    2.01
   2   0   2   62.28    2.13
   2   0   2   61.17    2.17
   2   0   2   60.16    2.15
   2   0   2   61.15    2.10
   2   0   2   58.31    2.00
   2   0   2   62.71    2.13
  -3   0  -2    7.63    0.41
  -3   0  -2    7.50    0.47
  -3   0  -2    7.71    0.51
  -3   0  -2    7.56    0.44
  -3   0  -2    7.22    0.40
  -3   0  -2    7.89    0.44
   3   0   2    8.00    0.43
   3   0   2    6.85    0.39
   3   0   2    8.23    0.53
   3   0   2    7.25    0.46
   3   0   2    7.41    0.46
   3   0   2    7.86    0.49
  -4   0  -2   58.52    2.06
  -4   0  -2   54.64    1.97
  -4   0  -2   50.23    2.13
  -4   0  -2   53.72    2.04
  -4   0  -2   54.43    2.01
  -4   0  -2   55.46    2.27
  -4   0  -2   50.30    2.06
   4   0   2   52.17    2.00
   4   0   2   56.27    2.07
   4   0   2   54.91    2.18
   4   0   2   57.05    2.08
   4   0   2   52.28    2.02
   4   0   2   57.48    2.12
   4   0   2   56.51    2.11
  -5   0  -2    1.48    0.31
  -5   0  -2    1.67    0.33
  -5   0  -2    1.33    0.26
  -5   0  -2    0.88    0.29
  -5   0  -2    1.06    0.37
   5   0   2    1.02    0.27
   5   0   2    1.38    0.26
   5   0   2    1.13    0.34
   5   0   2    1.14    0.28
   5   0   2    0.71    0.23
   5   0   2    1.63    0.34
  -6   0  -2    3.77    0.68
  -6   0  -2    4.53    0.64
  -6   0  -2    4.63    0.53
  -6   0  -2    3.98    0.44
   6   0   2    4.66    0.52
   6   0   2    4.16    0.54
   6   0   2    4.11    0.63
   6   0   2    4.63    0.47
   6   0   2    4.52    0.55
   6   0   2    5.67    0.59
  -7   0  -2    7.55    0.94
   7   0   2    9.66    0.74
   7   0   2    8.97    0.78
   7   0   2    8.41    0.78
  -8   0  -2    2.38    0.79
   8   0   2    3.21    0.55
   8   0   2    4.08    0.67
   8   0   2    3.70    0.67
   7  -1  -2   -0.16    0.33
   7  -1  -2    0.64    0.51
   7  -1  -2   -0.04    0.36
  -7   1   2    0.23    0.43
   6  -1  -2    4.92    0.67
   6  -1  -2    5.68    0.86
   6  -1  -2    6.80    0.66
  -6   1   2    6.31    0.75
  -6   1   2    6.59    0.77
   5  -1  -2    8.91    0.72
   5  -1  -2    9.11    0.69
   5  -1  -2    7.83    0.82
   5  -1  -2    7.93    0.70
   5  -1  -2    9.17    0.79
  -5   1   2    8.02    0.71
  -5   1   2    8.42    0.73
  -5   1   2    7.91    0.74
   4  -1  -2    8.97    0.66
   4  -1  -2    7.66    0.61
   4  -1  -2    8.48    0.77
   4  -1  -2   10.16    0.65
   4  -1  -2    8.83    0.68
   4  -1  -2    9.77    0.76
  -4   1   2    7.81    0.66
  -4   1   2    8.37    0.59
  -4   1   2    9.24    0.66
  -4   1   2    7.69    0.64
   3  -1  -2   44.03    1.75
   3  -1  -2   40.04    1.66
   3  -1  -2   44.41    1.79
   3  -1  -2   42.12    1.88
   3  -1  -2   42.48    1.74
   3  -1  -2   45.03    1.72
  -3   1   2   41.68    1.72
  -3   1   2   39.66    1.75
  -3   1   2   41.52    1.66
  -3   1   2   44.36    1.75
  -3   1   2   42.73    1.70
   2  -1  -2   12.19    0.62
   2  -1  -2   12.22    0.66
   2  -1  -2   10.75    0.71
   2  -1  -2   10.95    0.65
   2  -1  -2   11.53    0.62
   2  -1  -2   11.79    0.63
   2  -1  -2   11.82    0.59
  -2   1   2   11.32    0.64
  -2   1   2   11.61    0.67
  -2   1   2   11.09    0.59
  -2   1   2   11.62    0.61
  -2   1   2   12.32    0.66
  -2   1   2   12.35    0.61
  -2   1   2   11.87    0.73
   1  -1  -2    6.20    0.36
   1  -1  -2    6.54    0.37
   1  -1  -2    6.59    0.35
   1  -1  -2    5.94    0.40
   1  -1  -2    6.33    0.43
   1  -1  -2    5.76    0.38
   1  -1  -2    6.34    0.46
   1  -1  -2    6.83    0.45
  -1   1   2    6.05    0.40
  -1   1   2    6.89    0.44
  -1   1   2    6.10    0.38
  -1   1   2    6.04    0.41
  -1   1   2    6.08    0.43
   0  -1  -2  211.97    6.88
   0  -1  -2  212.04    6.79
   0  -1  -2  206.97    6.90
   0  -1  -2  206.44    6.86
   0  -1  -2  204.75    6.79
   0  -1  -2  209.60    6.90
   0  -1  -2  202.02    6.88
   0   1   2  205.20    6.89
   0   1   2  213.03    6.79
   0   1   2  208.12    6.89
   0   1   2  206.09    6.85
   0   1   2  212.98    6.78
   0   1   2  207.28    6.89
   0   1   2  210.76    6.91
  -1  -1  -2   22.82    0.95
  -1  -1  -2   24.38    0.91
  -1  -1  -2   22.81    0.94
  -1  -1  -2   23.37    0.92
  -1  -1  -2   23.41    0.92
   1   1   2   23.48    0.94
   1   1   2   23.41    0.92
   1   1   2   24.34    0.95
   1   1   2   22.75    0.90
   1   1   2   23.10    0.92
   1   1   2   22.99    0.85
  -2  -1  -2  133.52    4.51
  -2  -1  -2  129.58    4.54
  -2  -1  -2  131.88    4.53
  -2  -1  -2  133.18    4.47
  -2  -1  -2  129.18    4.51
  -2  -1  -2  133.24    4.41
   2   1   2  136.24    4.52
   2   1   2  132.49    4.54
   2   1   2  140.47    4.54
   2   1   2  133.24    4.48
   2   1   2  142.42    4.57
  -3  -1  -2   15.03    0.74
  -3  -1  -2   13.48    0.70
  -3  -1  -2   14.10    0.64
  -3  -1  -2   13.77    0.65
  -3  -1  -2   11.82    0.67
  -3  -1  -2   14.65    0.74
   3   1   2   14.61    0.63
   3   1   2   14.97    0.76
   3   1   2   14.83    0.74
   3   1   2   13.82    0.66
   3   1   2   13.15    0.69
   3   1   2   14.69    0.71
  -4  -1  -2    0.10    0.20
  -4  -1  -2    0.11    0.16
  -4  -1  -2   -0.07    0.15
  -4  -1  -2    0.02    0.16
  -4  -1  -2   -0.08    0.15
  -4  -1  -2   -0.05    0.12
   4   1   2   -0.34    0.12
   4   1   2    0.08    0.16
   4   1   2    0.02    0.15
   4   1   2   -0.01    0.15
   4   1   2   -0.08    0.14
   4   1   2   -0.04    0.14
   4   1   2    0.06    0.18
  -5  -1  -2   12.03    0.84
  -5  -1  -2   15.45    0.83
  -5  -1  -2   12.43    0.81
  -5  -1  -2   12.16    0.75
   5   1   2   13.01    0.82
   5   1   2   14.43    0.76
   5   1   2   11.74    0.84
   5   1   2   12.27    0.79
   5   1   2   13.75    0.77
   5   1   2   12.08    0.82
   5   1   2   14.01    0.78
  -6  -1  -2   15.55    1.00
  -6  -1  -2   17.84    1.10
  -6  -1  -2   15.90    0.93
   6   1   2   18.63    1.04
   6   1   2   15.89    1.03
   6   1   2   16.43    1.02
   6   1   2   16.84    0.94
   6   1   2   16.12    0.97
   6   1   2   16.69    1.09
  -7  -1  -2    1.54    0.50
  -7  -1  -2    0.86    0.49
   7   1   2    1.45    0.42
   7   1   2    1.74    0.47
   7   1   2    1.66    0.42
  -8  -1  -2    6.55    1.02
   8   1   2    7.74    0.92
   8   1   2    7.56    0.79
   8   1   2    6.98    0.83
   7  -2  -2    1.96    0.69
   7  -2  -2    3.14    0.59
   7  -2  -2    2.18    0.83
  -7   2   2    3.90    0.79
   6  -2  -2    0.44    0.30
   6  -2  -2    0.93    0.36
   6  -2  -2    1.29    0.52
  -6   2   2    0.48    0.45
  -6   2   2    0.28    0.41
   5  -2  -2    1.10    0.46
   5  -2  -2    1.08    0.34
   5  -2  -2    0.57    0.29
   5  -2  -2    0.81    0.31
  -5   2   2    1.02    0.41
  -5   2   2    0.64    0.38
   4  -2  -2   23.69    1.21
   4  -2  -2   23.13    1.18
   4  -2  -2   24.26    1.40
   4  -2  -2   25.05    1.19
   4  -2  -2   24.39    1.14
   4  -2  -2   24.10    1.36
  -4   2   2   24.66    1.08
  -4   2   2   24.67    1.27
  -4   2   2   24.79    1.18
  -4   2   2   24.59    1.32
   3  -2  -2   25.36    1.13
   3  -2  -2   22.86    1.11
   3  -2  -2   20.62    1.05
   3  -2  -2   22.67    1.12
   3  -2  -2   22.55    1.25
   3  -2  -2   20.63    1.02
   3  -2  -2   23.89    1.07
  -3   2   2   24.34    1.00
  -3   2   2   23.05    1.07
  -3   2   2   21.41    1.15
  -3   2   2   22.54    1.11
  -3   2   2   24.45    1.07
   2  -2  -2   55.34    2.10
   2  -2  -2   58.41    2.14
   2  -2  -2   56.50    2.17
   2  -2  -2   55.59    2.15
   2  -2  -2   57.24    2.12
   2  -2  -2   57.75    2.17
   2  -2  -2   56.10    2.29
  -2   2   2   55.07    2.22
  -2   2   2   59.38    2.07
  -2   2   2   58.72    2.31
  -2   2   2   55.65    2.12
  -2   2   2   61.62    2.07
  -2   2   2   58.40    2.13
   1  -2  -2   47.34    1.77
   1  -2  -2   43.22    1.68
   1  -2  -2   47.17    1.65
   1  -2  -2   47.45    1.74
   1  -2  -2   44.17    1.71
   1  -2  -2   44.53    1.75
   1  -2  -2   45.78    1.82
  -1   2   2   47.48    1.72
  -1   2   2   46.36    1.78
  -1   2   2   47.52    1.69
  -1   2   2   44.17    1.73
  -1   2   2   47.02    1.66
   0  -2  -2    0.50    0.14
   0  -2  -2    0.46    0.07
   0  -2  -2    0.38    0.14
   0  -2  -2    0.49    0.15
   0  -2  -2    0.59    0.14
   0  -2  -2    0.44    0.06
   0   2   2    0.59    0.17
   0   2   2    0.46    0.17
   0   2   2    0.58    0.16
   0   2   2    0.60    0.15
  -1  -2  -2    3.71    0.27
  -1  -2  -2    3.22    0.31
  -1  -2  -2    3.86    0.33
  -1  -2  -2    3.83    0.30
  -1  -2  -2    4.02    0.31
   1   2   2    3.75    0.28
   1   2   2    4.08    0.32
   1   2   2    3.79    0.29
   1   2   2    3.68    0.31
  -2  -2  -2   86.41    3.06
  -2  -2  -2   84.28    3.08
  -2  -2  -2   82.27    3.04
  -2  -2  -2   89.67    3.01
  -2  -2  -2   85.94    3.04
   2   2   2   96.99    3.13
   2   2   2   82.26    3.04
   2   2   2   89.02    3.03
   2   2   2   89.45    3.06
   2   2   2   85.90    3.06
  -3  -2  -2    2.43    0.32
  -3  -2  -2    1.84    0.30
  -3  -2  -2    3.01    0.33
  -3  -2  -2    2.70    0.36
  -3  -2  -2    3.05    0.30
  -3  -2  -2    2.86    0.28
   3   2   2    3.74    0.39
   3   2   2    2.71    0.32
   3   2   2    3.16    0.31
   3   2   2    2.54    0.34
   3   2   2    2.94    0.33
  -4  -2  -2   51.11    2.00
  -4  -2  -2   52.77    1.94
  -4  -2  -2   50.61    1.99
  -4  -2  -2   48.32    1.96
  -4  -2  -2   51.44    1.92
  -4  -2  -2   51.81    2.05
   4   2   2   51.65    2.06
   4   2   2   48.61    1.92
   4   2   2   49.81    2.01
   4   2   2   51.91    1.86
   4   2   2   46.64    1.98
   4   2   2   47.16    1.97
   4   2   2   47.43    1.89
  -5  -2  -2    2.45    0.40
  -5  -2  -2    2.68    0.40
  -5  -2  -2    2.24    0.39
  -5  -2  -2    1.87    0.40
   5   2   2    2.97    0.49
   5   2   2    2.39    0.38
   5   2   2    2.27    0.40
   5   2   2    2.39    0.40
   5   2   2    2.24    0.36
   5   2   2    3.34    0.35
   5   2   2    1.78    0.37
  -6  -2  -2    0.12    0.17
  -6  -2  -2    0.61    0.31
  -6  -2  -2   -0.28    0.27
   6   2   2    0.03    0.24
   6   2   2    0.44    0.28
   6   2   2   -0.25    0.25
   6   2   2    0.38    0.25
   6   2   2   -0.05    0.24
   6   2   2    0.03    0.25
  -7  -2  -2    9.92    0.90
   7   2   2    9.54    0.85
   7   2   2    9.98    0.81
   7   2   2    9.75    0.82
  -8  -2  -2    7.66    1.08
   8   2   2    6.77    0.75
   8   2   2    5.67    0.80
   8   2   2    7.66    0.87
   6  -3  -2    4.35    0.61
   6  -3  -2    5.81    0.59
   6  -3  -2    4.48    0.85
  -6   3   2    5.57    0.85
  -6   3   2    4.73    0.79
   5  -3  -2   31.05    1.85
   5  -3  -2   30.33    1.46
   5  -3  -2   32.46    1.51
  -5   3   2   33.67    1.77
  -5   3   2   35.09    1.76
   4  -3  -2    0.25    0.24
   4  -3  -2    0.65    0.33
   4  -3  -2    0.22    0.22
   4  -3  -2    0.21    0.21
   4  -3  -2    0.49    0.22
   4  -3  -2    0.22    0.31
  -4   3   2    0.11    0.30
  -4   3   2    0.54    0.22
  -4   3   2    0.40    0.34
   3  -3  -2   27.21    1.20
   3  -3  -2   28.35    1.25
   3  -3  -2   28.57    1.24
   3  -3  -2   28.48    1.26
   3  -3  -2   29.37    1.40
   3  -3  -2   28.11    1.46
  -3   3   2   26.20    1.37
  -3   3   2   27.50    1.07
  -3   3   2   28.01    1.19
  -3   3   2   27.64    1.18
   2  -3  -2   21.74    1.16
   2  -3  -2   20.92    0.94
   2  -3  -2   21.35    0.96
   2  -3  -2   20.53    0.99
   2  -3  -2   22.97    1.12
   2  -3  -2   22.96    1.00
  -2   3   2   21.12    0.86
  -2   3   2   20.21    0.93
  -2   3   2   23.47    0.95
  -2   3   2   19.14    1.06
   1  -3  -2    5.15    0.36
   1  -3  -2    5.55    0.41
   1  -3  -2    5.00    0.37
   1  -3  -2    4.29    0.47
   1  -3  -2    5.73    0.48
   1  -3  -2    5.45    0.38
  -1   3   2    6.10    0.34
  -1   3   2    4.50    0.44
  -1   3   2    5.27    0.40
  -1   3   2    5.74    0.36
  -1   3   2    5.29    0.37
   0  -3  -2   44.99    1.66
   0  -3  -2   44.42    1.52
   0  -3  -2   45.94    1.68
   0  -3  -2   47.27    1.72
   0  -3  -2   44.57    1.52
   0  -3  -2   46.48    1.68
   0   3   2   46.67    1.66
   0   3   2   45.27    1.73
   0   3   2   45.19    1.70
   0   3   2   45.58    1.68
   0   3   2   46.20    1.70
  -1  -3  -2    1.24    0.23
  -1  -3  -2    1.31    0.22
  -1  -3  -2    1.07    0.18
  -1  -3  -2    1.39    0.26
  -1  -3  -2    1.17    0.22
   1   3   2    1.01    0.12
   1   3   2    1.13    0.13
   1   3   2    1.10    0.21
   1   3   2    1.24    0.23
   1   3   2    1.41    0.21
  -2  -3  -2    0.27    0.16
  -2  -3  -2    0.11    0.15
  -2  -3  -2    0.13    0.14
  -2  -3  -2    0.24    0.18
  -2  -3  -2    0.10    0.13
   2   3   2    0.10    0.12
   2   3   2    0.14    0.18
   2   3   2    0.06    0.13
   2   3   2    0.28    0.17
   2   3   2    0.07    0.16
   2   3   2    0.12    0.16
  -3  -3  -2    4.16    0.38
  -3  -3  -2    4.54    0.38
  -3  -3  -2    5.27    0.40
  -3  -3  -2    5.34    0.49
  -3  -3  -2    4.38    0.42
  -3  -3  -2    5.58    0.45
   3   3   2    4.41    0.47
   3   3   2    4.36    0.40
   3   3   2    4.46    0.40
   3   3   2    5.12    0.44
   3   3   2    5.41    0.44
   3   3   2    4.57    0.43
  -4  -3  -2   56.38    2.13
  -4  -3  -2   55.21    2.24
  -4  -3  -2   56.19    2.14
  -4  -3  -2   51.47    2.15
  -4  -3  -2   54.29    2.09
   4   3   2   53.15    2.13
   4   3   2   55.83    2.19
   4   3   2   49.95    2.14
   4   3   2   52.67    2.10
   4   3   2   57.30    2.20
   4   3   2   55.04    2.24
  -5  -3  -2    2.26    0.39
  -5  -3  -2    2.12    0.42
  -5  -3  -2    2.84    0.44
  -5  -3  -2    2.24    0.47
   5   3   2    2.58    0.43
   5   3   2    2.46    0.31
   5   3   2    2.64    0.46
   5   3   2    2.06    0.39
   5   3   2    2.69    0.42
  -6  -3  -2   33.54    1.60
  -6  -3  -2   32.55    1.68
  -6  -3  -2   33.09    1.58
   6   3   2   31.12    1.52
   6   3   2   36.01    1.40
   6   3   2   32.10    1.63
   6   3   2   26.46    1.54
   6   3   2   32.85    1.54
   6   3   2   31.10    1.59
  -7  -3  -2    2.64    0.54
  -7  -3  -2    3.39    0.67
   7   3   2    4.09    0.61
   7   3   2    3.27    0.61
   7   3   2    4.30    0.63
   8   3   2    0.48    0.39
   8   3   2    0.77    0.48
   8   3   2    1.94    0.51
   6  -4  -2    5.11    0.62
   6  -4  -2    4.12    0.89
   6  -4  -2    5.37    0.59
  -6   4   2    3.69    0.80
   5  -4  -2    0.04    0.39
   5  -4  -2    0.48    0.26
   5  -4  -2    0.00    0.23
  -5   4   2    0.40    0.42
   4  -4  -2   13.00    0.78
   4  -4  -2   12.16    0.77
   4  -4  -2   15.37    1.15
   4  -4  -2   15.64    0.85
  -4   4   2   14.54    1.04
   3  -4  -2   14.17    0.78
   3  -4  -2   14.30    0.77
   3  -4  -2   13.58    1.01
   3  -4  -2   13.53    0.76
   3  -4  -2   14.22    0.77
  -3   4   2   13.78    0.68
  -3   4   2   13.29    0.94
  -3   4   2   13.99    0.67
   2  -4  -2    5.04    0.44
   2  -4  -2    5.71    0.79
   2  -4  -2    5.29    0.54
   2  -4  -2    5.30    0.40
   2  -4  -2    4.86    0.40
   2  -4  -2    4.90    0.41
  -2   4   2    3.96    0.54
  -2   4   2    5.14    0.25
  -2   4   2    4.90    0.36
   1  -4  -2   24.90    1.03
   1  -4  -2   28.45    1.09
   1  -4  -2   25.34    1.08
   1  -4  -2   27.50    1.15
   1  -4  -2   27.29    1.33
   1  -4  -2   26.98    1.35
   1  -4  -2   26.64    1.09
  -1   4   2   27.89    1.03
  -1   4   2   26.15    1.00
  -1   4   2   24.92    1.11
  -1   4   2   28.69    1.09
  -1   4   2   24.76    1.22
   0  -4  -2   16.40    0.71
   0  -4  -2   14.34    0.74
   0  -4  -2   15.67    0.73
   0  -4  -2   14.59    0.72
   0  -4  -2   14.67    0.61
   0  -4  -2   14.66    0.60
   0   4   2   17.32    0.70
   0   4   2   16.27    0.75
   0   4   2   14.60    0.72
   0   4   2   14.58    0.78
   0   4   2   15.02    0.70
  -1  -4  -2    7.20    0.34
  -1  -4  -2    7.51    0.52
  -1  -4  -2    6.39    0.47
  -1  -4  -2    7.57    0.45
  -1  -4  -2    7.13    0.49
   1   4   2    7.48    0.35
   1   4   2    7.92    0.49
   1   4   2    7.38    0.34
   1   4   2    8.11    0.48
   1   4   2    8.05    0.45
  -2  -4  -2   93.38    3.21
  -2  -4  -2   86.36    3.13
  -2  -4  -2   88.27    3.24
  -2  -4  -2   86.70    3.17
  -2  -4  -2   89.17    3.16
   2   4   2   87.49    3.24
   2   4   2   89.66    3.18
   2   4   2   90.29    3.13
   2   4   2   87.62    3.07
   2   4   2   85.28    3.18
   2   4   2   89.84    3.07
  -3  -4  -2    9.32    0.58
  -3  -4  -2    8.98    0.67
  -3  -4  -2    9.06    0.63
  -3  -4  -2    9.82    0.64
  -3  -4  -2    8.44    0.57
   3   4   2    9.24    0.63
   3   4   2    7.98    0.62
   3   4   2    8.81    0.58
   3   4   2    9.01    0.59
   3   4   2    9.02    0.59
   3   4   2    9.26    0.57
   3   4   2    9.37    0.68
  -4  -4  -2   23.20    1.18
  -4  -4  -2   22.70    1.10
  -4  -4  -2   22.81    1.23
  -4  -4  -2   22.44    1.10
  -4  -4  -2   23.16    1.14
   4   4   2   22.28    1.17
   4   4   2   21.51    1.14
   4   4   2   22.93    1.18
   4   4   2   23.60    1.13
   4   4   2   23.74    1.11
  -5  -4  -2   19.52    1.09
  -5  -4  -2   21.09    1.20
  -5  -4  -2   20.54    1.25
  -5  -4  -2   19.66    1.14
   5   4   2   20.38    1.09
   5   4   2   21.30    1.18
   5   4   2   21.37    0.88
   5   4   2   20.66    1.12
   5   4   2   20.03    1.16
  -6  -4  -2    0.87    0.35
  -6  -4  -2    0.33    0.26
  -6  -4  -2    0.33    0.37
   6   4   2    0.93    0.32
   6   4   2    0.92    0.39
   6   4   2    0.85    0.37
   6   4   2    0.95    0.34
  -7  -4  -2    3.81    0.71
  -7  -4  -2    4.72    0.69
   7   4   2    5.09    0.75
   7   4   2    3.63    0.62
  -8  -4  -2    2.91    0.73
   8   4   2    2.32    0.59
   8   4   2    3.25    0.69
   5  -5  -2    9.73    0.67
   5  -5  -2   10.79    1.12
   5  -5  -2    8.58    0.66
  -5   5   2    7.34    1.02
   4  -5  -2    3.05    0.44
   4  -5  -2    3.06    0.38
   4  -5  -2    3.05    0.40
   4  -5  -2    4.01    0.75
  -4   5   2    3.45    0.66
   3  -5  -2    3.16    0.61
   3  -5  -2    2.80    0.37
   3  -5  -2    3.69    0.41
   3  -5  -2    3.21    0.44
   3  -5  -2    3.50    0.39
   3  -5  -2    3.15    0.34
  -3   5   2    3.08    0.58
  -3   5   2    3.47    0.26
   2  -5  -2   23.57    1.02
   2  -5  -2   20.82    0.97
   2  -5  -2   21.43    1.31
   2  -5  -2   22.46    0.98
   2  -5  -2   22.55    1.06
   2  -5  -2   24.06    1.05
  -2   5   2   22.23    0.90
  -2   5   2   22.45    1.22
  -2   5   2   22.06    0.90
   1  -5  -2    6.11    0.41
   1  -5  -2    5.57    0.39
   1  -5  -2    5.43    0.45
   1  -5  -2    5.69    0.39
   1  -5  -2    5.20    0.39
   1  -5  -2    5.94    0.42
  -1   5   2    5.54    0.39
  -1   5   2    5.93    0.31
  -1   5   2    5.66    0.54
   0  -5  -2   24.91    1.11
   0  -5  -2   22.69    1.05
   0  -5  -2   23.52    0.96
   0  -5  -2   22.74    0.95
   0  -5  -2   25.13    1.07
   0  -5  -2   24.83    1.03
   0   5   2   25.09    1.08
   0   5   2   25.19    1.07
   0   5   2   26.98    1.03
   0   5   2   24.00    1.14
  -1  -5  -2   21.63    0.98
  -1  -5  -2   20.09    0.82
  -1  -5  -2   19.71    0.81
  -1  -5  -2   18.89    0.96
  -1  -5  -2   21.84    1.04
  -1  -5  -2   21.54    0.94
   1   5   2   21.02    0.80
   1   5   2   21.17    0.82
   1   5   2   20.69    0.95
   1   5   2   20.28    0.95
   1   5   2   21.77    1.02
   1   5   2   20.04    0.90
  -2  -5  -2    0.70    0.24
  -2  -5  -2    0.61    0.22
  -2  -5  -2    0.81    0.22
  -2  -5  -2    1.24    0.28
  -2  -5  -2    0.93    0.23
   2   5   2    0.72    0.19
   2   5   2    1.17    0.28
   2   5   2    0.85    0.24
   2   5   2    0.98    0.21
   2   5   2    0.88    0.19
  -3  -5  -2    0.22    0.15
  -3  -5  -2    0.27    0.22
  -3  -5  -2    0.15    0.18
  -3  -5  -2    0.29    0.23
  -3  -5  -2    0.01    0.19
   3   5   2    0.03    0.17
   3   5   2   -0.06    0.16
   3   5   2    0.02    0.18
   3   5   2   -0.04    0.20
   3   5   2    0.05    0.15
   3   5   2    0.32    0.24
  -4  -5  -2   27.62    1.48
  -4  -5  -2   27.90    1.30
  -4  -5  -2   29.25    1.35
  -4  -5  -2   27.73    1.41
   4   5   2   29.89    1.34
   4   5   2   28.86    1.41
   4   5   2   29.20    1.42
   4   5   2   30.37    1.39
   4   5   2   28.90    1.41
   4   5   2   28.67    1.34
  -5  -5  -2    6.14    0.58
  -5  -5  -2    5.99    0.77
  -5  -5  -2    7.16    0.59
  -5  -5  -2    7.72    0.71
   5   5   2    5.33    0.55
   5   5   2    5.68    0.64
   5   5   2    5.07    0.57
   5   5   2    6.41    0.35
   5   5   2    7.43    0.70
   5   5   2    6.07    0.66
  -6  -5  -2   10.90    0.84
  -6  -5  -2   12.55    1.04
  -6  -5  -2    9.99    0.90
   6   5   2   12.04    0.89
   6   5   2   12.13    0.99
   6   5   2   14.64    1.04
   6   5   2   11.26    0.95
   6   5   2   11.53    0.86
  -7  -5  -2    5.75    0.76
  -7  -5  -2    4.24    0.77
   7   5   2    4.15    0.72
   7   5   2    4.76    0.70
  -8  -5  -2    0.17    0.48
   8   5   2    0.61    0.45
   8   5   2    0.27    0.44
   5  -6  -2    2.52    0.40
   5  -6  -2    3.30    0.82
  -5   6   2    2.80    0.73
   4  -6  -2   -0.08    0.17
   4  -6  -2    0.20    0.23
   4  -6  -2    0.29    0.23
   4  -6  -2   -0.15    0.37
  -4   6   2    0.01    0.41
   3  -6  -2   22.67    1.46
   3  -6  -2   21.21    1.01
   3  -6  -2   22.47    1.16
   3  -6  -2   21.34    1.03
   3  -6  -2   21.45    0.99
  -3   6   2   20.01    1.34
   2  -6  -2   10.95    0.68
   2  -6  -2   10.52    0.64
   2  -6  -2   10.10    0.59
   2  -6  -2   10.69    0.95
   2  -6  -2   11.30    0.67
   2  -6  -2   10.21    0.59
   2  -6  -2   10.20    0.67
  -2   6   2   11.21    0.44
  -2   6   2   10.59    0.88
   1  -6  -2    9.04    0.60
   1  -6  -2    8.84    0.55
   1  -6  -2    8.77    0.55
   1  -6  -2    8.92    0.52
   1  -6  -2    8.62    0.53
   1  -6  -2    8.45    0.54
  -1   6   2    7.16    0.67
  -1   6   2    9.02    0.53
  -1   6   2    8.61    0.50
   0  -6  -2   68.21    2.41
   0  -6  -2   68.71    2.40
   0  -6  -2   64.57    2.50
   0  -6  -2   65.73    2.45
   0  -6  -2   69.88    2.51
   0  -6  -2   65.68    2.54
   0   6   2   71.84    2.43
   0   6   2   67.43    2.49
   0   6   2   65.85    2.61
  -1  -6  -2   10.29    0.53
  -1  -6  -2   10.62    0.61
  -1  -6  -2   11.66    0.73
  -1  -6  -2    8.44    0.61
  -1  -6  -2    9.58    0.50
  -1  -6  -2   10.14    0.66
   1   6   2   10.12    0.63
   1   6   2    9.66    0.62
   1   6   2   10.26    0.50
  -2  -6  -2   69.87    2.79
  -2  -6  -2   75.05    2.76
  -2  -6  -2   70.06    2.72
  -2  -6  -2   67.38    2.65
  -2  -6  -2   71.03    2.56
  -2  -6  -2   73.93    2.72
   2   6   2   70.44    2.71
   2   6   2   73.97    2.60
   2   6   2   70.95    2.60
   2   6   2   72.12    2.57
   2   6   2   70.47    2.63
  -3  -6  -2   17.30    0.91
  -3  -6  -2   18.32    0.95
  -3  -6  -2   17.79    1.01
  -3  -6  -2   18.18    1.06
  -3  -6  -2   16.39    0.99
   3   6   2   16.98    0.91
   3   6   2   17.29    0.75
   3   6   2   19.07    0.95
   3   6   2   17.46    0.93
   3   6   2   15.73    0.97
  -4  -6  -2    7.18    0.70
  -4  -6  -2    7.23    0.74
  -4  -6  -2    8.07    0.64
  -4  -6  -2    6.75    0.57
   4   6   2    7.48    0.63
   4   6   2    8.10    0.37
   4   6   2    9.83    0.80
   4   6   2    8.84    0.65
   4   6   2    6.90    0.62
  -5  -6  -2    4.05    0.49
  -5  -6  -2    5.95    0.60
  -5  -6  -2    4.32    0.69
  -5  -6  -2    4.83    0.67
   5   6   2    4.45    0.65
   5   6   2    3.78    0.60
   5   6   2    5.25    0.58
   5   6   2    5.25    0.57
  -6  -6  -2    3.34    0.68
  -6  -6  -2    5.32    0.76
  -6  -6  -2    4.79    0.56
   6   6   2    5.66    0.65
   6   6   2    3.55    0.59
   6   6   2    3.53    0.65
   6   6   2    5.55    0.76
  -7  -6  -2   -0.20    0.44
  -7  -6  -2    0.44    0.33
   7   6   2   -0.31    0.31
   7   6   2    0.09    0.41
  -8  -6  -2    4.31    0.92
   8   6   2    6.98    1.01
   4  -7  -2   15.43    0.84
   4  -7  -2   15.91    1.39
  -4   7   2   14.19    1.26
   3  -7  -2   21.82    0.98
   3  -7  -2   21.15    0.98
   3  -7  -2   21.18    1.04
   3  -7  -2   22.75    1.55
  -3   7   2   21.55    1.44
   2  -7  -2   21.04    1.40
   2  -7  -2   21.69    0.97
   2  -7  -2   20.96    1.05
   2  -7  -2   20.84    1.07
   2  -7  -2   22.16    1.10
   2  -7  -2   21.20    1.02
  -2   7   2   21.46    1.34
   1  -7  -2   78.58    2.86
   1  -7  -2   73.28    2.86
   1  -7  -2   80.31    2.80
   1  -7  -2   78.65    2.85
   1  -7  -2   75.49    2.83
  -1   7   2   78.73    3.13
   0  -7  -2    3.24    0.36
   0  -7  -2    2.53    0.32
   0  -7  -2    2.91    0.39
   0  -7  -2    2.51    0.40
   0  -7  -2    3.37    0.41
   0  -7  -2    3.37    0.33
   0   7   2    3.66    0.49
   0   7   2    2.69    0.35
   0   7   2    2.75    0.45
  -1  -7  -2   45.02    1.86
  -1  -7  -2   42.37    1.76
  -1  -7  -2   44.49    1.69
  -1  -7  -2   46.79    2.00
  -1  -7  -2   45.74    1.86
  -1  -7  -2   44.07    1.90
  -1  -7  -2   45.60    1.68
   1   7   2   44.35    1.83
   1   7   2   42.58    1.72
   1   7   2   43.20    1.78
   1   7   2   44.05    1.64
  -2  -7  -2    9.20    0.69
  -2  -7  -2    9.22    0.74
  -2  -7  -2    9.00    0.68
  -2  -7  -2    8.78    0.62
  -2  -7  -2    9.59    0.57
  -2  -7  -2    9.16    0.67
   2   7   2    8.49    0.55
   2   7   2    7.64    0.56
   2   7   2    8.84    0.66
   2   7   2    8.92    0.57
   2   7   2    8.22    0.59
  -3  -7  -2    2.85    0.52
  -3  -7  -2    3.79    0.49
  -3  -7  -2    3.49    0.43
  -3  -7  -2    5.42    0.56
  -3  -7  -2    4.37    0.57
   3   7   2    4.83    0.51
   3   7   2    3.17    0.51
   3   7   2    3.63    0.48
   3   7   2    3.85    0.34
  -4  -7  -2   25.98    1.23
  -4  -7  -2   24.17    1.31
  -4  -7  -2   25.09    1.48
  -4  -7  -2   28.15    1.45
   4   7   2   24.92    1.32
   4   7   2   28.13    1.42
   4   7   2   24.55    0.92
   4   7   2   23.73    1.26
  -5  -7  -2    1.44    0.36
  -5  -7  -2    0.98    0.43
  -5  -7  -2    0.41    0.38
   5   7   2    1.83    0.40
   5   7   2    2.74    0.59
   5   7   2    2.07    0.50
   5   7   2    1.32    0.41
  -6  -7  -2    4.34    0.80
  -6  -7  -2    5.59    0.62
  -6  -7  -2    5.25    0.81
   6   7   2    5.03    0.66
   6   7   2    6.12    0.84
   6   7   2    4.97    0.78
  -7  -7  -2    5.50    0.74
  -7  -7  -2    5.01    0.92
   7   7   2    4.62    0.83
  -8  -7  -2   -0.31    0.48
   8   7   2    1.05    0.55
   3  -8  -2   28.21    1.85
   3  -8  -2   27.72    1.26
  -3   8   2   27.11    1.72
   2  -8  -2    8.54    0.63
   2  -8  -2   10.79    0.62
   2  -8  -2    8.12    0.62
   2  -8  -2    9.00    1.03
  -2   8   2   10.42    0.98
   1  -8  -2    3.36    0.43
   1  -8  -2    2.56    0.42
   1  -8  -2    3.52    0.41
  -1   8   2    2.20    0.52
   0  -8  -2   29.15    1.22
   0  -8  -2   28.76    1.27
   0  -8  -2   27.77    1.22
   0  -8  -2   28.62    1.33
   0  -8  -2   28.36    1.36
   0   8   2   26.96    1.43
  -1  -8  -2    4.12    0.37
  -1  -8  -2    4.45    0.59
  -1  -8  -2    4.39    0.46
  -1  -8  -2    3.37    0.38
  -1  -8  -2    5.13    0.67
  -1  -8  -2    3.33    0.49
   1   8   2    4.90    0.74
   1   8   2    3.89    0.54
   1   8   2    3.62    0.36
  -2  -8  -2   18.44    1.09
  -2  -8  -2   20.69    1.12
  -2  -8  -2   18.98    1.05
  -2  -8  -2   19.72    0.96
  -2  -8  -2   20.15    1.13
  -2  -8  -2   18.42    1.13
   2   8   2   19.97    1.00
   2   8   2   19.06    0.94
   2   8   2   19.10    1.07
  -3  -8  -2    8.76    0.67
  -3  -8  -2    8.26    0.81
  -3  -8  -2    7.88    0.73
   3   8   2    8.70    0.76
   3   8   2    8.87    0.69
   3   8   2    8.01    0.52
  -4  -8  -2    0.30    0.38
  -4  -8  -2    0.10    0.22
  -4  -8  -2    0.07    0.28
   4   8   2    0.60    0.36
   4   8   2    0.20    0.28
  -5  -8  -2    0.50    0.31
  -5  -8  -2    1.50    0.52
  -5  -8  -2    0.89    0.43
   5   8   2    0.98    0.42
   5   8   2    0.79    0.44
  -6  -8  -2    1.84    0.60
  -6  -8  -2    1.75    0.57
   6   8   2    1.45    0.51
   6   8   2    0.80    0.52
  -7  -8  -2    1.30    0.61
   7   8   2    1.79    0.67
   2  -9  -2   -0.65    0.39
   2  -9  -2    0.39    0.25
  -2   9   2   -0.70    0.36
   1  -9  -2    8.22    0.66
   1  -9  -2    9.39    0.72
  -1   9   2    9.18    0.91
   0  -9  -2    8.16    0.71
   0  -9  -2    9.28    0.72
   0   9   2    8.99    0.82
  -1  -9  -2    1.59    0.41
  -1  -9  -2    0.61    0.32
  -1  -9  -2    0.73    0.36
   1   9   2    1.17    0.39
  -2  -9  -2   22.47    1.22
  -2  -9  -2   22.55    1.33
  -2  -9  -2   21.33    1.15
  -2  -9  -2   21.10    1.23
   2   9   2   22.00    1.13
  -3  -9  -2    5.34    0.58
  -3  -9  -2    5.81    0.75
  -3  -9  -2    6.14    0.83
   3   9   2    6.77    0.85
  -4  -9  -2    2.75    0.63
  -4  -9  -2    2.53    0.56
   4   9   2    2.41    0.57
  -5  -9  -2   11.37    1.11
  -5  -9  -2   12.37    1.06
   5   9   2   10.30    1.05
  -6  -9  -2    4.54    0.92
  -6  -9  -2    4.15    0.78
   6   9   2    3.59    0.76
   1 -10  -2    2.72    0.66
   1 -10  -2    2.74    0.46
  -1  10   2    2.26    0.61
   0 -10  -2    0.83    0.33
   0 -10  -2    0.81    0.33
   0  10   2    0.99    0.47
  -1 -10  -2   14.21    0.96
  -1 -10  -2   13.44    0.99
   1  10   2   12.15    0.95
  -2 -10  -2    7.80    0.85
  -2 -10  -2    8.72    0.84
  -3 -10  -2    6.10    0.82
  -3 -10  -2    5.07    0.79
  -4 -10  -2   14.55    1.22
  -4 -10  -2   14.01    1.19
  -5 -10  -2   -0.01    0.41
  -5 -10  -2   -0.03    0.45
  -1 -11  -2    5.45    0.77
  -2 -11  -2    5.74    0.82
  -2 -11  -2    6.02    0.78
  -3 -11  -2   13.35    1.16
  -3 -11  -2   15.79    1.27
  -4 -11  -2   -0.07    0.40
  -4 -10   3    0.83    0.53
  -4 -10   3    1.65    0.70
  -3 -10   3    0.64    0.52
  -3 -10   3   -0.01    0.45
  -3 -10   3    0.77    0.52
  -2 -10   3    8.66    1.14
  -2 -10   3    7.76    0.94
  -2 -10   3    6.51    0.93
  -1 -10   3    5.37    0.92
  -1 -10   3    4.00    0.67
  -1 -10   3    4.68    0.70
   0 -10   3    1.12    0.57
   0 -10   3    1.45    0.41
   0 -10   3    2.27    0.49
   1 -10   3    8.74    1.15
   1 -10   3    8.80    0.72
   1 -10   3    8.81    0.70
   2 -10   3    2.60    0.38
   2 -10   3    3.85    0.84
   5   9  -3    8.62    1.14
  -5  -9   3    7.68    1.21
  -5  -9   3    9.43    1.20
  -5  -9   3    7.31    1.18
   4   9  -3    3.75    0.75
  -4  -9   3    2.32    0.65
  -4  -9   3    4.22    0.93
  -4  -9   3    3.67    0.84
  -3  -9   3   18.89    1.33
  -3  -9   3   19.73    1.48
  -3  -9   3   19.90    1.42
  -2  -9   3   -0.06    0.45
  -2  -9   3    0.27    0.35
  -2  -9   3    0.09    0.33
   1   9  -3   12.36    1.07
  -1  -9   3   11.43    0.89
  -1  -9   3    9.81    1.03
  -1  -9   3   10.39    0.92
   0   9  -3    9.78    0.91
   0  -9   3   10.60    0.82
   0  -9   3   10.79    0.79
   0  -9   3    9.47    1.04
  -1   9  -3    0.41    0.41
   1  -9   3    0.77    0.29
   1  -9   3    0.65    0.45
   1  -9   3    0.34    0.26
   2  -9   3    4.40    0.43
   2  -9   3    4.96    0.45
   2  -9   3    3.49    0.73
   3  -9   3    0.62    0.14
   3  -9   3    0.65    0.17
   3  -9   3    1.13    0.58
   6   8  -3    0.23    0.54
  -6  -8   3    0.08    0.57
   5   8  -3    2.57    0.67
  -5  -8   3    2.68    0.69
  -5  -8   3    3.13    0.77
  -5  -8   3    0.97    0.62
   4   8  -3    2.70    0.63
  -4  -8   3    1.55    0.56
  -4  -8   3    2.16    0.57
  -4  -8   3    0.87    0.55
   3   8  -3    2.89    0.57
  -3  -8   3    2.73    0.62
  -3  -8   3    1.21    0.44
  -3  -8   3    3.55    0.72
   2   8  -3    3.86    0.72
   2   8  -3    5.11    0.65
  -2  -8   3    4.32    0.67
  -2  -8   3    4.91    0.95
  -2  -8   3    4.51    0.78
  -2  -8   3    5.16    0.71
   1   8  -3   17.46    1.17
   1   8  -3   17.26    1.36
  -1  -8   3   14.31    1.02
  -1  -8   3   13.39    0.95
  -1  -8   3   14.50    1.21
  -1  -8   3   16.31    1.28
   0   8  -3    2.64    0.57
   0  -8   3    2.14    0.37
   0  -8   3    3.25    0.65
   0  -8   3    2.01    0.41
   0  -8   3    2.51    0.58
   0  -8   3    1.74    0.38
  -1   8  -3    1.26    0.42
   1  -8   3    0.79    0.28
   1  -8   3    1.29    0.46
   1  -8   3    1.99    0.34
   1  -8   3    1.61    0.54
   1  -8   3    0.81    0.26
   2  -8   3   32.73    1.28
   2  -8   3   33.15    1.85
   2  -8   3   31.35    1.30
   2  -8   3   32.47    2.07
   2  -8   3   32.43    1.33
   3  -8   3    7.36    0.38
   3  -8   3    7.96    0.99
   3  -8   3    6.79    0.41
   4  -8   3   23.75    1.57
   4  -8   3   22.14    1.54
   6   7  -3    2.58    0.74
  -6  -7   3    1.13    0.64
   5   7  -3   30.06    1.77
  -5  -7   3   28.78    1.76
  -5  -7   3   30.51    1.90
  -5  -7   3   28.55    1.89
   4   7  -3   -0.14    0.33
  -4  -7   3    0.32    0.38
  -4  -7   3    0.25    0.39
  -4  -7   3   -0.11    0.35
   3   7  -3   20.53    1.39
   3   7  -3   21.17    1.25
  -3  -7   3   16.60    1.29
  -3  -7   3   20.54    1.34
  -3  -7   3   19.01    1.43
  -3  -7   3   20.22    1.27
   2   7  -3   19.95    1.31
   2   7  -3   19.45    1.12
  -2  -7   3   21.63    1.22
  -2  -7   3   19.64    0.83
  -2  -7   3   18.96    1.34
  -2  -7   3   19.03    1.17
  -2  -7   3   19.12    1.22
  -2  -7   3   20.98    1.11
  -2  -7   3   18.98    1.32
   1   7  -3    3.26    0.39
   1   7  -3    4.13    0.47
   1   7  -3    3.76    0.63
  -1  -7   3    4.35    0.71
  -1  -7   3    3.54    0.57
  -1  -7   3    3.82    0.70
  -1  -7   3    4.16    0.55
  -1  -7   3    3.02    0.49
  -1  -7   3    3.08    0.43
  -1  -7   3    3.97    0.39
   0   7  -3   51.74    2.28
   0   7  -3   50.58    1.84
   0   7  -3   50.34    1.95
   0  -7   3   49.84    2.08
   0  -7   3   49.64    2.04
   0  -7   3   49.81    2.33
   0  -7   3   48.42    2.03
   0  -7   3   51.64    2.38
   0  -7   3   48.27    1.96
  -1   7  -3   22.70    1.30
   1  -7   3   24.20    1.43
   1  -7   3   21.95    1.37
   1  -7   3   24.30    1.09
   1  -7   3   21.89    1.02
   1  -7   3   23.58    0.99
   1  -7   3   23.60    1.09
   1  -7   3   21.94    1.07
   2  -7   3   10.83    0.61
   2  -7   3   10.97    0.58
   2  -7   3   10.59    0.56
   2  -7   3   11.23    0.94
   2  -7   3    9.13    0.87
   2  -7   3   10.76    0.60
   2  -7   3   10.48    0.69
   3  -7   3    8.97    0.88
   3  -7   3   10.06    0.92
   3  -7   3   10.62    0.49
   3  -7   3   10.35    0.51
   3  -7   3   10.17    0.76
   4  -7   3    0.65    0.39
   4  -7   3    1.37    0.50
   4  -7   3    1.81    0.46
   5  -7   3    1.54    0.49
   5  -7   3    0.45    0.47
   6   6  -3    2.54    0.69
  -6  -6   3    2.43    0.74
   5   6  -3   -0.14    0.34
  -5  -6   3    0.28    0.45
  -5  -6   3   -0.31    0.37
  -5  -6   3    0.42    0.40
   4   6  -3   11.80    0.66
   4   6  -3   11.05    0.84
   4   6  -3   11.86    0.97
   4   6  -3   10.06    1.00
  -4  -6   3    8.74    0.95
  -4  -6   3   11.97    1.06
  -4  -6   3   11.74    0.98
   3   6  -3   25.69    1.42
   3   6  -3   25.32    1.30
   3   6  -3   30.17    1.64
   3   6  -3   26.39    0.94
  -3  -6   3   31.50    1.70
  -3  -6   3   27.78    1.56
  -3  -6   3   26.71    1.46
  -3  -6   3   27.12    1.36
  -3  -6   3   25.32    0.93
  -3  -6   3   27.30    1.59
   2   6  -3    1.21    0.36
   2   6  -3    0.87    0.24
   2   6  -3    1.32    0.42
  -2  -6   3    1.21    0.43
  -2  -6   3    1.71    0.48
  -2  -6   3    1.73    0.22
  -2  -6   3    1.70    0.35
  -2  -6   3    1.11    0.35
  -2  -6   3    1.40    0.42
  -2  -6   3    0.58    0.30
   1   6  -3   17.06    0.85
   1   6  -3   17.24    0.94
   1   6  -3   18.34    1.14
  -1  -6   3   16.56    1.00
  -1  -6   3   16.33    1.14
  -1  -6   3   17.40    0.80
  -1  -6   3   17.76    0.98
  -1  -6   3   15.70    1.10
  -1  -6   3   16.47    0.90
  -1  -6   3   15.37    0.95
   0   6  -3   15.52    1.00
   0   6  -3   15.28    0.71
   0   6  -3   14.34    0.78
   0  -6   3   14.29    0.78
   0  -6   3   16.45    0.83
   0  -6   3   15.28    0.85
   0  -6   3   16.21    0.86
   0  -6   3   16.07    0.90
   0  -6   3   13.93    1.02
   0  -6   3   15.18    1.07
  -1   6  -3   -0.13    0.21
  -1   6  -3    0.18    0.17
  -1   6  -3    0.19    0.11
   1  -6   3    0.43    0.29
   1  -6   3    0.07    0.16
   1  -6   3    0.04    0.12
   1  -6   3   -0.01    0.23
   1  -6   3    0.21    0.16
   1  -6   3    0.12    0.16
   1  -6   3    0.12    0.16
  -2   6  -3   31.03    1.51
   2  -6   3   29.84    1.56
   2  -6   3   29.42    1.20
   2  -6   3   29.84    1.23
   2  -6   3   29.54    1.19
   2  -6   3   30.86    1.60
   2  -6   3   30.99    1.19
   2  -6   3   31.21    1.32
   3  -6   3   10.24    0.89
   3  -6   3    9.71    0.87
   3  -6   3    9.65    0.47
   3  -6   3    8.86    0.45
   3  -6   3   10.69    0.74
   4  -6   3    5.26    0.62
   4  -6   3    3.45    0.62
   4  -6   3    4.12    0.65
  -5   6  -3   13.15    1.32
   5  -6   3   15.74    1.16
   5  -6   3   11.48    1.03
  -6   6  -3    3.52    0.95
   7   5  -3    4.49    0.90
   7   5  -3    6.32    1.07
  -7  -5   3    7.04    1.16
   6   5  -3    0.24    0.36
   6   5  -3    0.16    0.44
   6   5  -3   -0.34    0.31
  -6  -5   3    0.17    0.45
   5   5  -3   17.23    1.30
   5   5  -3   19.50    1.19
   5   5  -3   18.03    1.29
   5   5  -3   18.22    1.00
  -5  -5   3   18.02    1.38
  -5  -5   3   17.27    1.34
  -5  -5   3   18.31    1.26
   4   5  -3    9.96    0.94
   4   5  -3   11.52    0.93
   4   5  -3   10.11    0.80
   4   5  -3    9.27    0.89
   4   5  -3   12.52    0.67
  -4  -5   3   11.07    0.50
  -4  -5   3    8.83    0.92
  -4  -5   3   10.76    1.00
  -4  -5   3   12.23    0.88
  -4  -5   3   10.85    0.92
   3   5  -3    0.35    0.14
   3   5  -3   -0.11    0.25
   3   5  -3    0.10    0.22
   3   5  -3    0.20    0.26
  -3  -5   3   -0.03    0.30
  -3  -5   3   -0.31    0.23
  -3  -5   3    0.30    0.33
  -3  -5   3    0.21    0.22
  -3  -5   3   -0.18    0.23
   2   5  -3   15.52    0.97
   2   5  -3   18.53    0.94
   2   5  -3   16.57    1.12
  -2  -5   3   16.29    1.12
  -2  -5   3   16.60    1.04
  -2  -5   3   16.76    1.01
  -2  -5   3   17.78    1.02
  -2  -5   3   19.33    0.97
  -2  -5   3   16.19    1.11
   1   5  -3   28.97    1.51
   1   5  -3   30.37    1.26
   1   5  -3   28.45    1.33
  -1  -5   3   28.93    1.52
  -1  -5   3   29.29    1.41
  -1  -5   3   31.58    1.39
  -1  -5   3   28.86    1.29
  -1  -5   3   29.66    1.55
  -1  -5   3   32.61    1.41
   0   5  -3    2.60    0.46
   0   5  -3    3.10    0.40
   0   5  -3    2.70    0.34
   0   5  -3    2.75    0.27
   0  -5   3    3.17    0.38
   0  -5   3    2.45    0.48
   0  -5   3    2.31    0.46
   0  -5   3    2.39    0.34
   0  -5   3    2.22    0.32
   0  -5   3    2.36    0.36
   0  -5   3    3.06    0.42
   0  -5   3    2.95    0.32
  -1   5  -3   58.59    1.92
  -1   5  -3   55.60    2.09
  -1   5  -3   55.85    2.31
   1  -5   3   56.16    2.09
   1  -5   3   54.87    1.99
   1  -5   3   54.98    2.04
   1  -5   3   55.70    2.08
   1  -5   3   53.01    2.34
   1  -5   3   57.97    2.20
   1  -5   3   56.49    2.11
   1  -5   3   57.10    2.39
  -2   5  -3   15.34    0.94
   2  -5   3   16.41    0.80
   2  -5   3   14.46    0.71
   2  -5   3   14.61    0.96
   2  -5   3   14.31    0.69
   2  -5   3   16.35    0.99
   2  -5   3   15.15    0.69
   2  -5   3   15.61    0.69
  -3   5  -3   21.17    1.37
   3  -5   3   19.89    0.77
   3  -5   3   19.23    1.16
   3  -5   3   21.94    0.84
   3  -5   3   23.21    1.26
   3  -5   3   21.76    1.10
   3  -5   3   20.81    0.77
   3  -5   3   21.06    0.84
  -4   5  -3   31.97    1.90
   4  -5   3   36.67    1.69
   4  -5   3   34.56    1.76
   4  -5   3   34.31    1.67
   4  -5   3   36.05    1.76
   4  -5   3   35.20    1.27
   4  -5   3   35.72    1.27
  -5   5  -3    0.33    0.44
   5  -5   3    0.16    0.12
   5  -5   3   -0.06    0.29
  -6   5  -3    9.66    1.31
   6  -5   3   10.62    0.59
   6  -5   3   10.92    0.55
   6  -5   3    9.84    0.94
   7   4  -3    1.22    0.58
   7   4  -3    0.64    0.53
   7   4  -3    1.08    0.59
  -7  -4   3    1.11    0.60
   6   4  -3    8.01    1.03
   6   4  -3    8.97    0.83
   6   4  -3    9.08    0.90
   6   4  -3    9.73    1.05
  -6  -4   3   10.54    1.09
   5   4  -3   10.09    0.86
   5   4  -3   10.17    0.99
   5   4  -3   12.73    0.83
   5   4  -3   10.32    0.95
  -5  -4   3   11.18    0.65
  -5  -4   3    9.66    1.00
  -5  -4   3   13.41    1.02
   4   4  -3    0.04    0.27
   4   4  -3    0.73    0.23
   4   4  -3    0.40    0.33
   4   4  -3    0.70    0.35
   4   4  -3    0.55    0.37
   4   4  -3    0.39    0.28
  -4  -4   3    0.49    0.34
  -4  -4   3    0.71    0.40
  -4  -4   3    0.58    0.19
  -4  -4   3    0.87    0.40
   3   4  -3   52.43    2.31
   3   4  -3   51.81    2.19
   3   4  -3   50.59    2.10
   3   4  -3   52.08    1.91
   3   4  -3   52.20    2.26
   3   4  -3   51.09    2.20
  -3  -4   3   58.47    2.43
  -3  -4   3   47.42    2.09
  -3  -4   3   50.40    2.27
  -3  -4   3   49.71    2.20
  -3  -4   3   51.43    2.31
   2   4  -3    9.63    0.45
   2   4  -3    9.76    0.63
   2   4  -3    8.99    0.71
   2   4  -3    9.68    0.78
   2   4  -3    9.75    0.68
   2   4  -3   10.04    0.70
  -2  -4   3   10.07    0.72
  -2  -4   3   10.47    0.81
  -2  -4   3    9.08    0.73
  -2  -4   3   10.44    0.66
  -2  -4   3    9.99    0.81
  -2  -4   3    9.78    0.71
   1   4  -3   38.82    1.61
   1   4  -3   38.15    1.64
   1   4  -3   37.36    1.61
   1   4  -3   38.56    1.78
   1   4  -3   40.16    1.77
  -1  -4   3   38.18    1.80
  -1  -4   3   40.44    1.66
  -1  -4   3   39.51    1.63
  -1  -4   3   39.99    1.58
  -1  -4   3   36.64    1.75
  -1  -4   3   39.55    1.67
  -1  -4   3   38.33    1.66
   0   4  -3   56.27    2.09
   0   4  -3   54.35    2.02
   0   4  -3   58.36    2.29
   0   4  -3   57.02    2.31
   0   4  -3   55.81    2.11
   0   4  -3   57.87    2.16
   0  -4   3   54.71    2.15
   0  -4   3   55.94    2.13
   0  -4   3   56.62    2.36
   0  -4   3   52.70    2.12
   0  -4   3   57.42    2.18
   0  -4   3   59.93    2.28
   0  -4   3   52.48    2.29
   0  -4   3   56.50    2.08
  -1   4  -3    1.63    0.34
  -1   4  -3    1.35    0.16
  -1   4  -3    1.32    0.21
  -1   4  -3    1.85    0.21
  -1   4  -3    1.31    0.23
  -1   4  -3    1.48    0.32
   1  -4   3    1.53    0.19
   1  -4   3    1.34    0.32
   1  -4   3    1.56    0.25
   1  -4   3    1.04    0.30
   1  -4   3    1.25    0.21
   1  -4   3    1.61    0.26
   1  -4   3    1.67    0.25
   1  -4   3    1.52    0.36
  -2   4  -3   43.32    1.48
  -2   4  -3   41.58    1.96
  -2   4  -3   43.74    1.48
  -2   4  -3   40.94    1.81
  -2   4  -3   42.67    1.67
   2  -4   3   42.84    1.57
   2  -4   3   42.12    1.59
   2  -4   3   43.31    1.62
   2  -4   3   44.13    1.68
   2  -4   3   43.43    1.86
   2  -4   3   45.22    1.60
   2  -4   3   42.37    1.83
  -3   4  -3   31.27    1.67
   3  -4   3   31.39    1.19
   3  -4   3   33.73    1.55
   3  -4   3   31.74    1.18
   3  -4   3   31.69    1.51
   3  -4   3   33.19    1.44
   3  -4   3   31.61    1.19
   3  -4   3   31.97    1.19
  -4   4  -3    0.82    0.41
   4  -4   3    0.94    0.29
   4  -4   3    1.37    0.19
   4  -4   3    0.94    0.30
   4  -4   3    1.26    0.17
   4  -4   3    1.13    0.18
   4  -4   3    1.04    0.16
   4  -4   3    1.19    0.36
  -5   4  -3    5.59    0.89
   5  -4   3    6.95    0.68
   5  -4   3    6.63    0.41
   5  -4   3    7.77    0.42
   5  -4   3    7.93    0.79
   5  -4   3    7.56    0.74
   5  -4   3    6.66    0.45
  -6   4  -3    3.76    0.84
   6  -4   3    2.45    0.32
   6  -4   3    3.38    0.40
   6  -4   3    2.38    0.51
   6  -4   3    3.34    0.32
  -7   4  -3    1.14    0.67
   7  -4   3    0.45    0.24
   7   3  -3    4.32    0.85
   7   3  -3    4.17    0.76
   7   3  -3    3.81    0.84
   6   3  -3    3.92    0.66
   6   3  -3    3.15    0.70
   6   3  -3    4.64    0.76
  -6  -3   3    3.30    0.49
  -6  -3   3    3.45    0.77
   5   3  -3    3.76    0.54
   5   3  -3    3.73    0.58
   5   3  -3    3.05    0.64
   5   3  -3    2.85    0.61
   5   3  -3    4.15    0.69
  -5  -3   3    3.47    0.68
  -5  -3   3    4.24    0.48
  -5  -3   3    3.94    0.65
   4   3  -3   14.64    1.02
   4   3  -3   16.75    0.96
   4   3  -3   16.68    0.89
   4   3  -3   13.84    1.04
   4   3  -3   15.49    1.00
   4   3  -3   13.45    0.98
  -4  -3   3   13.87    0.99
  -4  -3   3   13.99    1.06
  -4  -3   3   14.79    1.07
  -4  -3   3   16.13    0.80
   3   3  -3    2.42    0.46
   3   3  -3    2.95    0.46
   3   3  -3    2.31    0.32
   3   3  -3    2.88    0.42
   3   3  -3    2.74    0.47
   3   3  -3    2.60    0.47
  -3  -3   3    2.22    0.46
  -3  -3   3    2.52    0.40
  -3  -3   3    1.77    0.42
  -3  -3   3    1.94    0.39
   2   3  -3   14.43    0.64
   2   3  -3   12.56    0.80
   2   3  -3   14.26    0.89
   2   3  -3   14.30    0.85
   2   3  -3   12.99    0.88
   2   3  -3   11.80    0.73
   2   3  -3   13.24    0.79
   2   3  -3   15.37    0.87
  -2  -3   3   14.23    0.91
  -2  -3   3   13.71    0.91
  -2  -3   3   14.97    0.86
  -2  -3   3   14.29    0.79
  -2  -3   3   14.47    0.89
  -2  -3   3   12.30    0.81
  -2  -3   3   13.95    0.85
   1   3  -3   54.97    2.21
   1   3  -3   57.70    2.13
   1   3  -3   55.95    2.18
   1   3  -3   56.36    2.23
   1   3  -3   57.72    2.21
   1   3  -3   57.98    2.32
   1   3  -3   57.68    2.34
  -1  -3   3   59.35    2.22
  -1  -3   3   56.81    2.35
  -1  -3   3   61.13    2.24
  -1  -3   3   59.93    2.24
  -1  -3   3   54.86    2.24
  -1  -3   3   55.73    2.32
  -1  -3   3   56.85    2.15
   0   3  -3    0.12    0.21
   0   3  -3    0.10    0.07
   0   3  -3   -0.01    0.10
   0   3  -3    0.06    0.14
   0   3  -3    0.18    0.16
   0   3  -3    0.18    0.15
   0   3  -3    0.00    0.18
   0  -3   3    0.16    0.18
   0  -3   3    0.15    0.14
   0  -3   3    0.13    0.20
   0  -3   3   -0.08    0.13
   0  -3   3    0.09    0.14
   0  -3   3    0.22    0.18
   0  -3   3    0.07    0.15
   0  -3   3    0.00    0.19
  -1   3  -3   15.06    0.65
  -1   3  -3   15.05    0.67
  -1   3  -3   13.03    0.69
  -1   3  -3   13.68    0.79
  -1   3  -3   14.00    0.62
  -1   3  -3   14.48    0.84
  -1   3  -3   14.72    0.61
  -1   3  -3   13.55    0.80
   1  -3   3   14.25    0.62
   1  -3   3   15.54    0.83
   1  -3   3   14.23    0.82
   1  -3   3   13.70    0.66
   1  -3   3   14.70    0.72
   1  -3   3   14.27    0.83
   1  -3   3   13.47    0.69
   1  -3   3   14.45    0.72
  -2   3  -3   29.59    1.34
  -2   3  -3   30.72    1.03
  -2   3  -3   32.30    1.11
  -2   3  -3   29.59    1.44
  -2   3  -3   26.72    1.10
  -2   3  -3   30.27    1.02
  -2   3  -3   29.63    1.23
   2  -3   3   30.19    1.15
   2  -3   3   28.37    1.15
   2  -3   3   30.25    1.20
   2  -3   3   29.66    1.18
   2  -3   3   34.52    1.48
   2  -3   3   30.44    1.35
   2  -3   3   29.56    1.36
   2  -3   3   29.60    1.22
  -3   3  -3   18.17    0.93
  -3   3  -3   19.21    0.69
  -3   3  -3   17.89    1.10
  -3   3  -3   19.22    0.68
   3  -3   3   18.18    0.88
   3  -3   3   18.57    0.78
   3  -3   3   17.81    0.78
   3  -3   3   18.75    0.95
   3  -3   3   17.89    0.75
   3  -3   3   17.78    0.77
   3  -3   3   19.84    1.04
  -4   3  -3   17.46    1.00
  -4   3  -3   15.96    1.12
  -4   3  -3   16.62    0.59
  -4   3  -3   17.03    0.60
   4  -3   3   18.22    1.01
   4  -3   3   17.22    0.73
   4  -3   3   17.92    0.77
   4  -3   3   18.61    0.92
   4  -3   3   17.34    0.76
   4  -3   3   17.28    1.03
   4  -3   3   15.61    0.73
  -5   3  -3   34.24    1.67
  -5   3  -3   33.26    1.84
   5  -3   3   33.15    1.37
   5  -3   3   37.10    1.72
   5  -3   3   34.30    1.55
   5  -3   3   33.83    1.38
   5  -3   3   35.64    1.35
   5  -3   3   31.80    1.32
   5  -3   3   33.60    1.70
  -6   3  -3    0.33    0.45
   6  -3   3    0.13    0.18
   6  -3   3    0.20    0.21
   6  -3   3    0.47    0.20
   6  -3   3    0.32    0.28
  -7   3  -3   10.95    1.23
   7  -3   3   12.37    0.76
   7  -3   3   11.74    1.17
   7  -3   3   12.06    0.76
   7   2  -3    5.70    0.95
   7   2  -3    4.81    0.93
   7   2  -3    7.62    0.96
  -7  -2   3    5.77    1.22
   6   2  -3    4.09    0.68
   6   2  -3    3.13    0.71
   6   2  -3    3.70    0.66
  -6  -2   3    3.49    0.56
  -6  -2   3    2.94    0.69
   5   2  -3   35.36    1.86
   5   2  -3   38.67    2.00
   5   2  -3   39.63    1.81
   5   2  -3   37.71    1.97
   5   2  -3   38.97    1.81
  -5  -2   3   37.61    1.97
  -5  -2   3   40.27    1.70
  -5  -2   3   36.84    1.65
   4   2  -3    0.75    0.31
   4   2  -3    1.03    0.32
   4   2  -3    0.63    0.24
   4   2  -3    1.31    0.37
   4   2  -3    1.66    0.41
   4   2  -3    0.70    0.33
  -4  -2   3    0.95    0.27
  -4  -2   3    1.28    0.37
  -4  -2   3    0.85    0.36
   3   2  -3   70.99    2.70
   3   2  -3   66.77    2.57
   3   2  -3   68.25    2.53
   3   2  -3   66.22    2.66
   3   2  -3   67.36    2.62
   3   2  -3   66.02    2.69
   3   2  -3   64.58    2.69
  -3  -2   3   67.24    2.64
  -3  -2   3   64.18    2.69
  -3  -2   3   64.52    2.70
  -3  -2   3   67.36    2.47
  -3  -2   3   66.57    2.57
   2   2  -3   27.00    1.29
   2   2  -3   26.99    1.21
   2   2  -3   25.57    1.30
   2   2  -3   26.01    1.22
   2   2  -3   30.26    1.33
   2   2  -3   28.48    1.30
   2   2  -3   26.25    1.26
  -2  -2   3   27.01    1.32
  -2  -2   3   26.78    1.33
  -2  -2   3   25.94    1.30
  -2  -2   3   28.39    1.29
  -2  -2   3   27.36    1.28
  -2  -2   3   25.92    1.26
  -2  -2   3   27.30    1.21
   1   2  -3    0.14    0.17
   1   2  -3    0.53    0.22
   1   2  -3   -0.02    0.16
   1   2  -3    0.31    0.17
   1   2  -3    0.04    0.15
   1   2  -3    0.32    0.23
   1   2  -3    0.17    0.18
  -1  -2   3   -0.10    0.16
  -1  -2   3    0.30    0.19
  -1  -2   3    0.01    0.19
  -1  -2   3    0.16    0.16
  -1  -2   3    0.16    0.17
  -1  -2   3    0.09    0.18
  -1  -2   3    0.12    0.16
   0   2  -3   34.25    1.40
   0   2  -3   35.30    1.48
   0   2  -3   33.44    1.39
   0   2  -3   35.50    1.37
   0   2  -3   34.29    1.25
   0   2  -3   33.92    1.48
   0   2  -3   35.74    1.34
   0   2  -3   36.10    1.44
   0  -2   3   35.32    1.42
   0  -2   3   33.02    1.42
   0  -2   3   34.24    1.35
   0  -2   3   35.86    1.36
   0  -2   3   33.55    1.49
   0  -2   3   33.30    1.34
   0  -2   3   35.01    1.49
   0  -2   3   34.99    1.41
  -1   2  -3   72.67    2.51
  -1   2  -3   71.95    2.48
  -1   2  -3   73.20    2.48
  -1   2  -3   70.28    2.64
  -1   2  -3   71.73    2.54
  -1   2  -3   72.78    2.57
  -1   2  -3   69.38    2.63
  -1   2  -3   67.82    2.62
   1  -2   3   74.18    2.56
   1  -2   3   74.12    2.49
   1  -2   3   71.58    2.48
   1  -2   3   68.70    2.63
   1  -2   3   75.01    2.59
   1  -2   3   67.62    2.51
   1  -2   3   73.59    2.65
   1  -2   3   70.54    2.57
   1  -2   3   72.44    2.62
  -2   2  -3    0.48    0.12
  -2   2  -3    0.23    0.17
  -2   2  -3    0.16    0.10
  -2   2  -3    0.37    0.14
  -2   2  -3    0.28    0.22
  -2   2  -3    0.25    0.09
  -2   2  -3    0.10    0.14
   2  -2   3    0.21    0.15
   2  -2   3    0.26    0.18
   2  -2   3    0.04    0.18
   2  -2   3    0.48    0.20
   2  -2   3    0.37    0.15
   2  -2   3    0.14    0.12
   2  -2   3    0.17    0.13
   2  -2   3    0.40    0.15
  -3   2  -3   39.28    1.81
  -3   2  -3   41.20    1.66
  -3   2  -3   42.50    1.42
  -3   2  -3   41.51    1.49
  -3   2  -3   42.23    1.44
   3  -2   3   41.16    1.53
   3  -2   3   40.30    1.50
   3  -2   3   42.13    1.54
   3  -2   3   39.46    1.55
   3  -2   3   40.24    1.73
   3  -2   3   44.41    1.88
   3  -2   3   38.54    1.66
   3  -2   3   41.08    1.53
   3  -2   3   45.16    1.77
  -4   2  -3   22.70    1.29
  -4   2  -3   22.97    0.82
  -4   2  -3   22.26    0.90
  -4   2  -3   22.67    1.13
   4  -2   3   21.20    0.92
   4  -2   3   20.81    0.98
   4  -2   3   22.55    0.95
   4  -2   3   23.34    1.18
   4  -2   3   21.25    0.95
   4  -2   3   22.96    0.99
   4  -2   3   21.66    1.14
  -5   2  -3    2.67    0.49
  -5   2  -3    2.80    0.61
  -5   2  -3    3.31    0.38
   5  -2   3    3.26    0.37
   5  -2   3    3.62    0.39
   5  -2   3    3.82    0.41
   5  -2   3    3.27    0.38
   5  -2   3    3.58    0.35
   5  -2   3    4.12    0.58
  -6   2  -3   13.81    1.17
  -6   2  -3   14.97    1.08
   6  -2   3   14.42    0.81
   6  -2   3   15.62    0.86
   6  -2   3   15.28    0.92
   6  -2   3   15.28    0.86
  -7   2  -3    2.14    0.64
   7  -2   3    2.22    0.41
   7  -2   3    2.12    0.48
   7  -2   3    2.46    0.41
  -8   2  -3    0.23    0.56
   8  -2   3    0.24    0.29
   8  -2   3    0.54    0.35
   7   1  -3    9.23    0.98
   7   1  -3    9.02    1.22
   7   1  -3   10.12    1.06
  -7  -1   3    8.84    0.93
   6   1  -3    7.97    0.89
   6   1  -3    4.41    0.79
   6   1  -3    5.90    0.83
  -6  -1   3    5.26    0.70
  -6  -1   3    5.67    0.86
   5   1  -3    0.07    0.27
   5   1  -3    0.26    0.31
   5   1  -3    0.65    0.32
   5   1  -3    0.04    0.37
   5   1  -3    0.04    0.29
  -5  -1   3    0.45    0.39
  -5  -1   3   -0.09    0.22
  -5  -1   3    0.19    0.25
   4   1  -3    5.91    0.59
   4   1  -3    5.62    0.57
   4   1  -3    6.52    0.68
   4   1  -3    5.91    0.64
   4   1  -3    5.02    0.71
   4   1  -3    5.76    0.58
   4   1  -3    6.57    0.68
  -4  -1   3    6.33    0.62
  -4  -1   3    6.41    0.50
  -4  -1   3    6.12    0.65
  -4  -1   3    5.38    0.53
   3   1  -3   46.15    1.90
   3   1  -3   45.40    1.97
   3   1  -3   46.31    1.97
   3   1  -3   43.73    1.98
   3   1  -3   47.39    1.88
   3   1  -3   46.62    1.97
   3   1  -3   42.89    1.84
  -3  -1   3   48.25    1.88
  -3  -1   3   44.51    1.81
  -3  -1   3   44.40    1.97
  -3  -1   3   43.86    1.96
  -3  -1   3   46.36    1.92
  -3  -1   3   44.04    1.67
   2   1  -3    6.75    0.53
   2   1  -3    7.76    0.59
   2   1  -3    7.95    0.54
   2   1  -3    7.78    0.57
   2   1  -3    6.78    0.56
   2   1  -3    8.18    0.60
   2   1  -3    7.34    0.58
  -2  -1   3    9.02    0.56
  -2  -1   3    7.94    0.60
  -2  -1   3    7.20    0.56
  -2  -1   3    8.03    0.59
  -2  -1   3    7.55    0.61
  -2  -1   3    7.09    0.60
   1   1  -3  100.42    3.46
   1   1  -3   96.64    3.45
   1   1  -3   97.18    3.39
   1   1  -3   96.05    3.47
   1   1  -3  102.36    3.49
   1   1  -3  101.20    3.46
   1   1  -3   97.79    3.46
  -1  -1   3   90.36    3.44
  -1  -1   3  103.10    3.46
  -1  -1   3   88.61    3.16
  -1  -1   3   94.34    3.48
  -1  -1   3   94.96    3.47
  -1  -1   3   96.31    3.45
  -1  -1   3   96.92    3.40
  -1  -1   3   95.99    3.46
   0   1  -3   85.45    3.21
   0   1  -3   92.52    3.08
   0   1  -3   97.26    3.28
   0   1  -3   91.33    3.23
   0   1  -3   90.04    3.17
   0   1  -3   93.31    3.15
   0   1  -3   89.50    3.25
   0   1  -3   88.77    3.26
   0   1  -3   91.39    3.16
   0  -1   3   89.26    3.23
   0  -1   3   88.47    3.25
   0  -1   3   90.25    3.16
   0  -1   3   93.17    3.27
   0  -1   3   95.17    3.07
   0  -1   3   88.41    3.17
   0  -1   3   94.05    3.25
   0  -1   3   92.92    3.26
  -1   1  -3   10.20    0.51
  -1   1  -3   10.41    0.57
  -1   1  -3    9.57    0.56
  -1   1  -3   10.44    0.55
  -1   1  -3    9.35    0.44
  -1   1  -3    9.91    0.56
  -1   1  -3   10.47    0.51
  -1   1  -3   11.21    0.57
   1  -1   3    9.03    0.52
   1  -1   3    9.76    0.49
   1  -1   3   10.36    0.53
   1  -1   3    9.46    0.55
   1  -1   3    9.81    0.44
   1  -1   3   10.35    0.58
   1  -1   3    9.81    0.53
   1  -1   3    9.31    0.56
   1  -1   3    9.57    0.56
  -2   1  -3   96.93    3.45
  -2   1  -3   96.24    3.35
  -2   1  -3  100.12    3.40
  -2   1  -3  104.39    3.40
  -2   1  -3   97.01    3.55
  -2   1  -3  100.77    3.44
   2  -1   3   98.28    3.25
   2  -1   3   98.04    3.39
   2  -1   3  105.97    3.53
   2  -1   3  100.44    3.42
   2  -1   3  100.54    3.46
   2  -1   3   98.72    3.45
  -3   1  -3    4.24    0.27
  -3   1  -3    4.25    0.39
  -3   1  -3    4.06    0.30
  -3   1  -3    3.44    0.48
  -3   1  -3    4.01    0.31
  -3   1  -3    4.14    0.34
   3  -1   3    3.36    0.23
   3  -1   3    3.49    0.29
   3  -1   3    3.97    0.34
   3  -1   3    3.82    0.33
   3  -1   3    3.98    0.38
   3  -1   3    3.49    0.38
   3  -1   3    3.98    0.32
  -4   1  -3    7.20    0.69
  -4   1  -3    9.18    0.51
  -4   1  -3    8.30    0.61
  -4   1  -3    8.82    0.48
  -4   1  -3    8.63    0.54
   4  -1   3    8.73    0.64
   4  -1   3    8.33    0.50
   4  -1   3    8.63    0.57
   4  -1   3    8.80    0.48
   4  -1   3    8.75    0.54
   4  -1   3    8.41    0.53
  -5   1  -3   22.02    1.35
  -5   1  -3   24.09    1.24
  -5   1  -3   21.60    1.04
  -5   1  -3   23.59    0.98
   5  -1   3   20.03    1.02
   5  -1   3   22.91    1.24
   5  -1   3   22.48    1.10
   5  -1   3   24.17    1.04
   5  -1   3   23.52    1.09
   5  -1   3   23.06    1.07
  -6   1  -3    4.27    0.39
  -6   1  -3    3.63    0.59
  -6   1  -3    4.11    0.47
  -6   1  -3    2.74    0.61
   6  -1   3    3.51    0.48
   6  -1   3    5.28    0.82
   6  -1   3    3.97    0.49
   6  -1   3    5.24    0.51
   6  -1   3    3.90    0.47
   6  -1   3    4.47    0.62
  -7   1  -3    4.28    0.87
   7  -1   3    5.22    0.59
   7  -1   3    5.76    0.57
   7  -1   3    6.45    0.66
  -8   1  -3    3.50    0.86
   8  -1   3    4.09    0.64
   8  -1   3    4.26    0.59
   7   0  -3   10.15    1.30
   7   0  -3    8.97    0.88
   7   0  -3    5.67    0.88
  -7   0   3    8.35    0.98
   6   0  -3    0.76    0.46
   6   0  -3    0.44    0.40
   6   0  -3    0.19    0.32
  -6   0   3    0.89    0.43
   5   0  -3   26.95    1.47
   5   0  -3   27.38    1.61
   5   0  -3   27.53    1.74
   5   0  -3   26.02    1.38
   5   0  -3   27.63    1.55
  -5   0   3   24.52    1.25
  -5   0   3   25.49    1.39
  -5   0   3   25.49    1.48
   4   0  -3   26.62    1.43
   4   0  -3   30.38    1.47
   4   0  -3   29.66    1.39
   4   0  -3   27.89    1.35
   4   0  -3   25.56    1.38
   4   0  -3   27.94    1.54
   4   0  -3   26.89    1.45
  -4   0   3   27.27    1.22
  -4   0   3   27.90    1.45
  -4   0   3   29.03    1.38
  -4   0   3   26.24    1.35
   3   0  -3    7.16    0.55
   3   0  -3    7.60    0.61
   3   0  -3    6.88    0.56
   3   0  -3    6.91    0.60
   3   0  -3    8.60    0.67
   3   0  -3    6.19    0.58
   3   0  -3    6.70    0.65
  -3   0   3    6.97    0.56
  -3   0   3    6.90    0.44
  -3   0   3    6.88    0.60
   2   0  -3   78.83    2.83
   2   0  -3   67.55    2.75
   2   0  -3   76.45    2.82
   2   0  -3   71.97    2.75
   2   0  -3   75.61    2.77
   2   0  -3   73.14    2.73
  -2   0   3   71.31    2.76
  -2   0   3   74.91    2.52
  -2   0   3   76.80    2.82
  -2   0   3   74.73    2.82
  -2   0   3   77.20    2.88
  -2   0   3   75.93    2.72
  -2   0   3   73.89    2.77
   1   0  -3    1.14    0.23
   1   0  -3    0.96    0.21
   1   0  -3    0.74    0.23
   1   0  -3    1.18    0.24
   1   0  -3    1.02    0.25
   1   0  -3    0.55    0.22
   1   0  -3    0.94    0.24
  -1   0   3    0.93    0.24
  -1   0   3    0.75    0.22
  -1   0   3    1.24    0.27
  -1   0   3    1.20    0.29
  -1   0   3    1.05    0.24
  -1   0   3    0.73    0.21
  -1   0   3    0.39    0.20
   0   0  -3   41.12    1.56
   0   0  -3   38.58    1.51
   0   0  -3   37.72    1.49
   0   0  -3   38.51    1.52
   0   0  -3   38.45    1.56
   0   0  -3   39.25    1.51
   0   0  -3   39.91    1.58
   0   0   3   38.17    1.51
   0   0   3   41.19    1.58
   0   0   3   41.47    1.51
   0   0   3   36.39    1.57
   0   0   3   37.56    1.49
   0   0   3   38.20    1.55
   0   0   3   41.75    1.53
  -1   0  -3    1.08    0.21
  -1   0  -3    0.95    0.22
  -1   0  -3    0.84    0.18
  -1   0  -3    0.90    0.18
  -1   0  -3    1.05    0.15
  -1   0  -3    0.74    0.17
  -1   0  -3    1.31    0.21
   1   0   3    1.09    0.20
   1   0   3    0.80    0.13
   1   0   3    0.54    0.19
   1   0   3    0.65    0.17
   1   0   3    0.95    0.20
   1   0   3    0.91    0.19
   1   0   3    0.82    0.22
   1   0   3    0.83    0.17
  -2   0  -3    6.83    0.38
  -2   0  -3    6.69    0.44
  -2   0  -3    6.94    0.41
  -2   0  -3    6.70    0.44
   2   0   3    5.67    0.43
   2   0   3    5.91    0.38
   2   0   3    6.37    0.41
   2   0   3    6.70    0.43
   2   0   3    6.31    0.42
  -3   0  -3    0.26    0.15
  -3   0  -3    0.26    0.13
  -3   0  -3    0.24    0.08
  -3   0  -3    0.38    0.17
  -3   0  -3    0.24    0.17
  -3   0  -3    0.33    0.14
   3   0   3    0.20    0.16
   3   0   3    0.10    0.17
   3   0   3    0.30    0.13
   3   0   3    0.25    0.15
   3   0   3    0.28    0.07
   3   0   3    0.16    0.14
  -4   0  -3   24.09    1.06
  -4   0  -3   24.71    1.01
  -4   0  -3   24.73    0.96
  -4   0  -3   25.09    1.05
  -4   0  -3   23.60    1.15
  -4   0  -3   22.83    1.08
   4   0   3   21.88    1.10
   4   0   3   23.52    1.07
   4   0   3   23.24    1.15
   4   0   3   22.98    0.94
   4   0   3   21.82    1.01
   4   0   3   23.87    1.08
  -5   0  -3   11.32    0.75
  -5   0  -3   13.26    0.71
  -5   0  -3   12.52    0.94
  -5   0  -3   12.07    0.67
  -5   0  -3   12.90    0.84
   5   0   3   11.68    0.70
   5   0   3   12.33    0.79
   5   0   3   12.65    0.77
   5   0   3   12.35    0.67
   5   0   3   13.14    0.87
   5   0   3   11.80    0.74
  -6   0  -3   -0.06    0.18
  -6   0  -3    0.06    0.35
  -6   0  -3    0.03    0.20
  -6   0  -3    0.26    0.27
  -6   0  -3   -0.08    0.25
   6   0   3    0.24    0.25
   6   0   3    0.00    0.21
   6   0   3   -0.52    0.21
   6   0   3    0.00    0.19
   6   0   3    0.01    0.20
   6   0   3   -0.02    0.24
  -7   0  -3   23.28    1.57
   7   0   3   23.98    1.22
   7   0   3   21.21    1.18
   7   0   3   21.44    1.26
  -8   0  -3    4.48    0.92
   8   0   3    5.60    0.72
   8   0   3    5.88    0.71
   6  -1  -3    7.43    1.06
   6  -1  -3    7.24    0.77
   6  -1  -3    6.52    0.83
  -6   1   3    8.49    0.94
   5  -1  -3    7.66    0.77
   5  -1  -3    7.83    0.83
   5  -1  -3    6.57    0.69
   5  -1  -3    6.57    0.90
  -5   1   3    7.81    0.68
  -5   1   3    6.28    0.73
  -5   1   3    6.20    0.76
   4  -1  -3    0.56    0.32
   4  -1  -3   -0.18    0.26
   4  -1  -3    0.10    0.28
   4  -1  -3   -0.05    0.22
   4  -1  -3    0.00    0.21
   4  -1  -3    0.25    0.26
   4  -1  -3   -0.18    0.20
  -4   1   3    0.05    0.25
  -4   1   3   -0.06    0.21
  -4   1   3    0.04    0.21
  -4   1   3    0.48    0.28
   3  -1  -3    7.03    0.59
   3  -1  -3    7.58    0.61
   3  -1  -3    8.05    0.59
   3  -1  -3    8.05    0.64
   3  -1  -3    7.30    0.58
   3  -1  -3    6.89    0.65
   3  -1  -3    7.91    0.64
  -3   1   3    6.38    0.53
  -3   1   3    6.49    0.60
  -3   1   3    6.69    0.49
  -3   1   3    8.70    0.66
   2  -1  -3   53.63    2.10
   2  -1  -3   55.69    2.11
   2  -1  -3   49.18    2.15
   2  -1  -3   51.76    2.03
   2  -1  -3   48.45    2.02
   2  -1  -3   52.24    2.01
   2  -1  -3   52.05    2.02
  -2   1   3   50.49    2.08
  -2   1   3   53.75    2.01
  -2   1   3   52.22    2.02
  -2   1   3   53.94    2.17
  -2   1   3   52.56    2.08
  -2   1   3   52.06    2.07
   1  -1  -3    0.46    0.21
   1  -1  -3    0.86    0.19
   1  -1  -3    0.96    0.26
   1  -1  -3    0.86    0.14
   1  -1  -3    0.37    0.15
   1  -1  -3    0.20    0.17
   1  -1  -3    0.63    0.23
   1  -1  -3    0.86    0.22
  -1   1   3    0.84    0.20
  -1   1   3    0.71    0.19
  -1   1   3    0.60    0.21
  -1   1   3    0.65    0.24
  -1   1   3    0.61    0.23
   0  -1  -3  187.05    6.30
   0  -1  -3  193.36    6.36
   0  -1  -3  183.33    6.23
   0  -1  -3  187.01    6.32
   0  -1  -3  186.66    6.31
   0  -1  -3  182.75    6.22
   0  -1  -3  181.47    6.35
   0   1   3  196.27    6.33
   0   1   3  196.71    6.36
   0   1   3  186.75    6.29
   0   1   3  188.23    6.37
   0   1   3  188.26    6.33
   0   1   3  192.24    6.22
   0   1   3  183.29    6.20
  -1  -1  -3   28.68    1.09
  -1  -1  -3   28.59    1.19
  -1  -1  -3   29.12    1.19
  -1  -1  -3   29.31    1.16
  -1  -1  -3   29.94    1.17
  -1  -1  -3   28.44    1.13
  -1  -1  -3   27.70    1.05
   1   1   3   31.06    1.21
   1   1   3   28.18    1.06
   1   1   3   27.79    1.16
   1   1   3   27.66    1.15
   1   1   3   27.62    1.06
   1   1   3   26.01    1.12
  -2  -1  -3   49.80    1.87
  -2  -1  -3   46.31    1.81
  -2  -1  -3   46.91    1.84
  -2  -1  -3   50.18    1.84
  -2  -1  -3   49.64    1.78
   2   1   3   47.81    1.82
   2   1   3   47.88    1.79
   2   1   3   48.56    1.84
   2   1   3   50.86    1.88
   2   1   3   49.28    1.83
  -3  -1  -3   69.40    2.62
  -3  -1  -3   74.18    2.58
  -3  -1  -3   73.48    2.47
  -3  -1  -3   75.84    2.68
  -3  -1  -3   71.71    2.62
  -3  -1  -3   72.78    2.68
   3   1   3   70.46    2.64
   3   1   3   72.30    2.68
   3   1   3   72.42    2.64
   3   1   3   72.93    2.59
   3   1   3   73.71    2.70
  -4  -1  -3   29.55    1.15
  -4  -1  -3   24.16    1.23
  -4  -1  -3   27.24    1.22
  -4  -1  -3   26.28    1.24
  -4  -1  -3   27.61    1.09
   4   1   3   28.33    1.28
   4   1   3   27.27    1.22
   4   1   3   27.11    1.22
   4   1   3   27.04    1.17
   4   1   3   25.89    1.06
   4   1   3   27.54    1.28
  -5  -1  -3   30.22    1.42
  -5  -1  -3   32.32    1.31
  -5  -1  -3   31.13    1.47
  -5  -1  -3   28.73    1.34
   5   1   3   29.46    1.39
   5   1   3   28.48    1.32
   5   1   3   30.29    1.46
   5   1   3   28.99    1.39
   5   1   3   32.23    1.29
   5   1   3   30.21    1.47
  -6  -1  -3   34.69    1.68
  -6  -1  -3   33.14    1.50
  -6  -1  -3   32.31    1.47
  -6  -1  -3   32.37    1.56
   6   1   3   33.38    1.46
   6   1   3   34.17    1.65
   6   1   3   32.49    1.58
   6   1   3   31.81    1.47
   6   1   3   32.32    1.66
   6   1   3   32.42    1.57
  -7  -1  -3   -0.15    0.37
  -7  -1  -3    0.23    0.31
   7   1   3    0.25    0.32
   7   1   3   -0.44    0.24
   7   1   3    0.08    0.26
  -8  -1  -3    3.32    0.83
   8   1   3    4.87    0.68
   8   1   3    5.32    0.79
   8   1   3    4.80    0.68
   6  -2  -3    5.11    0.73
   6  -2  -3    4.89    0.90
   6  -2  -3    5.38    0.71
  -6   2   3    5.91    0.89
   5  -2  -3    0.34    0.35
   5  -2  -3    1.25    0.52
   5  -2  -3    1.71    0.40
   5  -2  -3    0.65    0.36
  -5   2   3    0.81    0.42
  -5   2   3    0.67    0.36
   4  -2  -3   26.15    1.50
   4  -2  -3   25.98    1.32
   4  -2  -3   23.21    1.50
   4  -2  -3   26.10    1.40
   4  -2  -3   26.33    1.35
   4  -2  -3   27.16    1.30
   4  -2  -3   27.42    1.38
  -4   2   3   25.97    1.23
  -4   2   3   25.74    1.32
  -4   2   3   27.44    1.32
  -4   2   3   25.24    1.41
   3  -2  -3    3.23    0.43
   3  -2  -3    4.24    0.52
   3  -2  -3    3.41    0.50
   3  -2  -3    2.16    0.36
   3  -2  -3    2.45    0.50
   3  -2  -3    2.62    0.42
   3  -2  -3    3.43    0.46
  -3   2   3    2.61    0.37
  -3   2   3    3.18    0.45
  -3   2   3    3.75    0.53
   2  -2  -3   12.60    0.79
   2  -2  -3   14.08    0.76
   2  -2  -3   14.31    0.82
   2  -2  -3   13.74    0.72
   2  -2  -3   13.93    0.72
   2  -2  -3   13.90    0.74
   2  -2  -3   13.21    0.85
   2  -2  -3   11.68    0.73
  -2   2   3   12.94    0.76
  -2   2   3   13.60    0.78
  -2   2   3   13.41    0.73
  -2   2   3   12.50    0.81
   1  -2  -3   12.27    0.78
   1  -2  -3   13.93    0.64
   1  -2  -3   13.43    0.69
   1  -2  -3   14.59    0.79
   1  -2  -3   13.61    0.73
   1  -2  -3   14.01    0.75
   1  -2  -3   13.47    0.72
   1  -2  -3   14.12    0.65
  -1   2   3   13.93    0.68
  -1   2   3   12.95    0.77
  -1   2   3   13.72    0.74
  -1   2   3   14.05    0.82
  -1   2   3   12.84    0.71
   0  -2  -3   34.45    1.32
   0  -2  -3   29.41    1.15
   0  -2  -3   30.89    1.16
   0  -2  -3   32.45    1.36
   0  -2  -3   31.54    1.29
   0  -2  -3   32.71    1.36
   0   2   3   33.81    1.30
   0   2   3   33.39    1.37
   0   2   3   33.71    1.35
   0   2   3   32.63    1.14
  -1  -2  -3    5.29    0.40
  -1  -2  -3    5.54    0.39
  -1  -2  -3    6.58    0.43
  -1  -2  -3    5.46    0.43
  -1  -2  -3    5.59    0.46
   1   2   3    5.63    0.43
   1   2   3    5.90    0.28
   1   2   3    5.71    0.28
   1   2   3    5.67    0.41
   1   2   3    5.34    0.39
  -2  -2  -3  146.12    5.06
  -2  -2  -3  146.63    5.09
  -2  -2  -3  146.74    5.06
  -2  -2  -3  142.73    5.03
  -2  -2  -3  151.70    5.01
   2   2   3  144.40    5.06
   2   2   3  145.73    5.01
   2   2   3  147.18    5.05
   2   2   3  156.77    5.11
   2   2   3  152.28    5.06
  -3  -2  -3   11.79    0.57
  -3  -2  -3    9.16    0.67
  -3  -2  -3   13.62    0.66
  -3  -2  -3   12.05    0.69
  -3  -2  -3   11.43    0.67
  -3  -2  -3   13.48    0.71
   3   2   3   12.04    0.69
   3   2   3   12.31    0.74
   3   2   3   11.13    0.67
   3   2   3   11.40    0.63
   3   2   3   12.02    0.69
  -4  -2  -3   18.74    0.96
  -4  -2  -3   17.57    0.84
  -4  -2  -3   19.89    1.00
  -4  -2  -3   18.19    0.99
  -4  -2  -3   20.15    0.93
  -4  -2  -3   18.88    0.99
   4   2   3   19.45    1.05
   4   2   3   18.34    0.92
   4   2   3   18.26    0.97
   4   2   3   20.47    1.01
   4   2   3   18.88    0.99
  -5  -2  -3   35.21    1.44
  -5  -2  -3   33.60    1.59
  -5  -2  -3   33.78    1.52
  -5  -2  -3   34.26    1.57
   5   2   3   35.01    1.44
   5   2   3   35.12    1.63
   5   2   3   32.31    1.57
   5   2   3   31.05    1.52
   5   2   3   33.83    1.47
   5   2   3   31.83    1.54
  -6  -2  -3    3.73    0.56
  -6  -2  -3    4.61    0.51
  -6  -2  -3    3.45    0.58
   6   2   3    3.12    0.47
   6   2   3    3.47    0.55
   6   2   3    3.23    0.58
   6   2   3    3.41    0.56
   6   2   3    3.13    0.43
   6   2   3    3.84    0.58
  -7  -2  -3   13.01    1.05
   7   2   3   12.72    0.97
   7   2   3   14.13    0.94
   7   2   3   14.29    0.91
  -8  -2  -3    7.62    1.06
   8   2   3    6.40    0.78
   8   2   3    7.67    0.78
   8   2   3    7.06    0.92
   6  -3  -3    0.55    0.39
   6  -3  -3    2.06    0.68
   6  -3  -3    1.05    0.39
  -6   3   3    1.13    0.56
   5  -3  -3    2.08    0.42
   5  -3  -3    1.47    0.43
   5  -3  -3    1.95    0.62
  -5   3   3    0.89    0.47
   4  -3  -3    4.28    0.70
   4  -3  -3    4.24    0.55
   4  -3  -3    4.68    0.55
   4  -3  -3    5.45    0.58
  -4   3   3    3.61    0.62
   3  -3  -3    0.88    0.28
   3  -3  -3    0.94    0.28
   3  -3  -3    0.75    0.24
   3  -3  -3    0.46    0.27
   3  -3  -3    0.63    0.33
   3  -3  -3    0.91    0.30
   3  -3  -3    0.57    0.26
  -3   3   3    0.89    0.37
  -3   3   3    0.77    0.26
  -3   3   3    0.77    0.23
   2  -3  -3   41.37    1.71
   2  -3  -3   40.94    1.66
   2  -3  -3   40.68    1.79
   2  -3  -3   46.60    1.77
   2  -3  -3   43.60    1.79
   2  -3  -3   41.04    1.92
   2  -3  -3   44.24    1.76
  -2   3   3   39.40    1.83
  -2   3   3   41.23    1.73
  -2   3   3   44.28    1.66
   1  -3  -3   59.37    2.22
   1  -3  -3   59.17    2.29
   1  -3  -3   58.85    2.38
   1  -3  -3   60.18    2.09
   1  -3  -3   57.22    2.09
   1  -3  -3   59.31    2.22
   1  -3  -3   58.84    2.31
   1  -3  -3   62.91    2.27
  -1   3   3   56.34    2.31
  -1   3   3   56.29    2.27
  -1   3   3   59.91    2.23
  -1   3   3   58.79    2.21
  -1   3   3   61.65    2.17
   0  -3  -3   23.43    1.14
   0  -3  -3   23.07    0.81
   0  -3  -3   23.75    1.04
   0  -3  -3   24.78    1.06
   0  -3  -3   23.68    1.03
   0  -3  -3   23.84    1.08
   0  -3  -3   23.77    0.82
   0   3   3   23.54    1.01
   0   3   3   25.82    1.09
   0   3   3   24.14    1.06
   0   3   3   23.13    1.07
  -1  -3  -3  168.84    5.62
  -1  -3  -3  163.79    5.59
  -1  -3  -3  166.66    5.62
  -1  -3  -3  161.95    5.74
  -1  -3  -3  165.25    5.67
   1   3   3  154.22    5.57
   1   3   3  169.85    5.67
   1   3   3  173.88    5.62
   1   3   3  167.80    5.63
  -2  -3  -3   15.28    0.83
  -2  -3  -3   14.13    0.74
  -2  -3  -3   14.91    0.80
  -2  -3  -3   14.94    0.78
  -2  -3  -3   16.13    0.80
   2   3   3   15.63    0.76
   2   3   3   16.13    0.80
   2   3   3   15.16    0.83
   2   3   3   15.33    0.79
   2   3   3   14.44    0.80
  -3  -3  -3   48.26    2.08
  -3  -3  -3   52.27    2.04
  -3  -3  -3   52.73    2.00
  -3  -3  -3   50.87    2.05
  -3  -3  -3   55.60    2.09
   3   3   3   53.08    2.01
   3   3   3   53.59    2.15
   3   3   3   52.64    2.06
   3   3   3   52.10    2.07
   3   3   3   53.67    2.08
  -4  -3  -3   51.47    2.15
  -4  -3  -3   57.40    2.27
  -4  -3  -3   59.73    2.15
  -4  -3  -3   56.61    2.09
  -4  -3  -3   50.14    2.15
   4   3   3   51.61    2.16
   4   3   3   54.29    2.19
   4   3   3   53.13    2.26
   4   3   3   57.44    2.21
   4   3   3   52.54    2.11
  -5  -3  -3    1.40    0.34
  -5  -3  -3    1.01    0.32
  -5  -3  -3    1.11    0.35
  -5  -3  -3    1.42    0.31
   5   3   3    1.13    0.36
   5   3   3    0.83    0.29
   5   3   3    1.49    0.36
   5   3   3    0.95    0.34
  -6  -3  -3   20.09    1.15
  -6  -3  -3   18.18    1.09
  -6  -3  -3   18.92    1.20
  -6  -3  -3   17.96    1.19
   6   3   3   17.71    1.14
   6   3   3   18.23    1.08
   6   3   3   18.39    0.95
   6   3   3   18.05    1.13
   6   3   3   18.80    1.14
  -7  -3  -3    5.83    0.77
  -7  -3  -3    5.71    0.79
   7   3   3    4.94    0.73
   7   3   3    5.82    0.71
   8   3   3    0.39    0.43
   8   3   3    0.16    0.36
   5  -4  -3    9.85    1.11
   5  -4  -3    8.00    0.73
   5  -4  -3    8.08    0.76
  -5   4   3    7.69    1.02
   4  -4  -3    0.73    0.32
   4  -4  -3    0.77    0.45
   4  -4  -3    0.68    0.32
   4  -4  -3    1.17    0.36
  -4   4   3    0.86    0.48
   3  -4  -3   37.56    1.64
   3  -4  -3   37.36    1.64
   3  -4  -3   38.36    1.66
   3  -4  -3   39.33    1.66
   3  -4  -3   36.62    1.66
   3  -4  -3   34.12    1.86
  -3   4   3   39.34    1.58
  -3   4   3   37.86    1.86
   2  -4  -3   11.73    0.92
   2  -4  -3   10.55    0.75
   2  -4  -3   12.14    0.72
   2  -4  -3   10.77    0.81
   2  -4  -3   11.70    0.72
   2  -4  -3   11.38    0.65
   2  -4  -3   12.99    0.73
  -2   4   3   10.97    0.83
  -2   4   3   12.38    0.61
  -2   4   3   12.63    0.73
   1  -4  -3    7.86    0.67
   1  -4  -3    7.51    0.57
   1  -4  -3    8.16    0.53
   1  -4  -3    6.95    0.51
   1  -4  -3    6.81    0.66
   1  -4  -3    7.89    0.52
   1  -4  -3    7.83    0.41
  -1   4   3    8.63    0.60
  -1   4   3    7.01    0.61
  -1   4   3    7.24    0.52
  -1   4   3    7.38    0.50
   0  -4  -3   96.83    3.42
   0  -4  -3   93.94    3.35
   0  -4  -3   91.98    3.32
   0  -4  -3   94.46    3.36
   0   4   3   94.67    3.36
   0   4   3   97.22    3.38
   0   4   3   91.91    3.43
   0   4   3   95.99    3.39
   0   4   3   94.61    3.39
  -1  -4  -3   42.31    1.68
  -1  -4  -3   42.58    1.62
  -1  -4  -3   38.10    1.69
  -1  -4  -3   43.86    1.68
   1   4   3   41.55    1.65
   1   4   3   39.21    1.68
   1   4   3   42.43    1.62
   1   4   3   42.17    1.65
  -2  -4  -3   99.33    3.56
  -2  -4  -3  103.14    3.59
  -2  -4  -3   95.03    3.62
  -2  -4  -3  102.61    3.53
  -2  -4  -3  104.04    3.63
   2   4   3   98.79    3.63
   2   4   3   97.84    3.55
   2   4   3   98.15    3.55
   2   4   3   97.34    3.36
   2   4   3   98.36    3.35
   2   4   3  100.08    3.51
  -3  -4  -3   73.96    2.78
  -3  -4  -3   72.95    2.75
  -3  -4  -3   75.92    2.72
  -3  -4  -3   69.82    2.81
  -3  -4  -3   74.61    2.79
   3   4   3   74.29    2.88
   3   4   3   73.93    2.77
   3   4   3   75.90    2.79
   3   4   3   70.08    2.70
   3   4   3   71.12    2.77
   3   4   3   72.17    2.63
  -4  -4  -3    7.72    0.69
  -4  -4  -3    8.81    0.62
  -4  -4  -3    7.29    0.58
  -4  -4  -3    8.25    0.59
  -4  -4  -3    7.11    0.62
   4   4   3    7.21    0.59
   4   4   3    6.26    0.61
   4   4   3    7.62    0.59
   4   4   3    8.79    0.67
   4   4   3    9.76    0.65
  -5  -4  -3   33.44    1.69
  -5  -4  -3   32.58    1.57
  -5  -4  -3   35.23    1.56
  -5  -4  -3   31.41    1.59
  -5  -4  -3   36.26    1.70
   5   4   3   33.91    1.65
   5   4   3   37.12    1.69
   5   4   3   33.38    1.55
   5   4   3   35.78    1.62
  -6  -4  -3   11.71    0.98
  -6  -4  -3   11.89    0.88
  -6  -4  -3   11.32    0.91
   6   4   3   13.31    0.98
   6   4   3   12.60    0.70
   6   4   3   12.44    0.94
   6   4   3   11.69    0.90
   6   4   3   11.49    0.86
  -7  -4  -3    6.74    0.93
  -7  -4  -3    6.58    0.74
   7   4   3    7.01    0.75
   7   4   3    6.79    0.85
  -8  -4  -3   13.03    1.19
   8   4   3    6.96    0.98
   8   4   3   11.60    1.00
   5  -5  -3    3.75    0.84
   5  -5  -3    3.57    0.55
   5  -5  -3    4.43    0.58
  -5   5   3    4.16    0.85
   4  -5  -3    8.13    0.69
   4  -5  -3    7.86    1.03
   4  -5  -3    7.14    0.67
  -4   5   3    7.38    0.85
   3  -5  -3    4.38    0.75
   3  -5  -3    5.11    0.52
   3  -5  -3    5.66    0.55
   3  -5  -3    5.99    0.59
  -3   5   3    4.72    0.71
   2  -5  -3   15.25    0.77
   2  -5  -3   14.66    1.08
   2  -5  -3   13.50    0.88
   2  -5  -3   15.83    0.81
   2  -5  -3   15.18    0.76
   2  -5  -3   13.39    0.78
   2  -5  -3   13.64    0.82
  -2   5   3   14.70    1.00
   1  -5  -3   36.97    1.67
   1  -5  -3   39.31    1.46
   1  -5  -3   42.11    1.47
   1  -5  -3   37.60    1.59
   1  -5  -3   40.02    1.63
   1  -5  -3   41.10    1.62
   1  -5  -3   39.98    1.47
   1  -5  -3   38.81    1.89
  -1   5   3   41.85    1.55
  -1   5   3   37.66    1.78
  -1   5   3   40.69    1.67
   0  -5  -3    1.61    0.32
   0  -5  -3    1.81    0.31
   0  -5  -3    1.91    0.29
   0  -5  -3    1.24    0.27
   0   5   3    1.53    0.27
   0   5   3    1.54    0.30
   0   5   3    1.61    0.34
  -1  -5  -3   15.86    0.80
  -1  -5  -3   15.93    0.90
  -1  -5  -3   17.10    0.86
  -1  -5  -3   15.38    0.84
   1   5   3   15.84    0.86
   1   5   3   15.91    0.84
   1   5   3   16.70    0.81
  -2  -5  -3   17.05    0.97
  -2  -5  -3   18.45    0.89
  -2  -5  -3   17.58    0.93
  -2  -5  -3   16.82    0.91
  -2  -5  -3   17.36    0.98
   2   5   3   17.60    0.74
   2   5   3   15.48    0.89
   2   5   3   17.02    0.72
  -3  -5  -3    0.38    0.25
  -3  -5  -3    0.42    0.20
  -3  -5  -3    0.20    0.18
  -3  -5  -3    0.06    0.21
  -3  -5  -3    0.33    0.23
   3   5   3    0.55    0.18
   3   5   3    0.58    0.27
   3   5   3    0.48    0.26
   3   5   3    0.11    0.16
   3   5   3    0.38    0.21
  -4  -5  -3   39.19    1.73
  -4  -5  -3   38.66    1.80
  -4  -5  -3   42.33    1.77
  -4  -5  -3   39.20    1.88
   4   5   3   41.78    1.83
   4   5   3   40.87    1.77
   4   5   3   43.28    1.74
   4   5   3   43.27    1.86
   4   5   3   39.69    1.74
   4   5   3   38.28    1.72
  -5  -5  -3    1.50    0.35
  -5  -5  -3    1.16    0.34
  -5  -5  -3    1.46    0.40
  -5  -5  -3    1.33    0.43
   5   5   3    0.57    0.31
   5   5   3    1.21    0.34
   5   5   3    1.23    0.36
   5   5   3    0.78    0.36
   5   5   3    0.82    0.37
  -6  -5  -3    0.50    0.37
  -6  -5  -3    0.87    0.34
  -6  -5  -3    0.74    0.41
   6   5   3    0.75    0.35
   6   5   3    0.73    0.43
   6   5   3    0.73    0.34
   6   5   3    0.70    0.37
  -7  -5  -3    2.31    0.60
  -7  -5  -3    2.05    0.52
   7   5   3    1.41    0.55
   7   5   3    1.47    0.46
  -8  -5  -3   15.08    1.32
   8   5   3   12.81    1.10
   8   5   3   14.28    1.26
   4  -6  -3    0.63    0.29
   4  -6  -3    0.30    0.50
   4  -6  -3    0.49    0.29
  -4   6   3    0.12    0.47
   3  -6  -3    7.94    0.66
   3  -6  -3    7.73    0.66
   3  -6  -3    9.09    0.98
   3  -6  -3    7.89    0.62
  -3   6   3    6.80    0.91
   2  -6  -3    6.34    0.48
   2  -6  -3    4.59    0.76
   2  -6  -3    6.08    0.55
   2  -6  -3    6.33    0.51
   2  -6  -3    6.63    0.62
   2  -6  -3    6.29    0.48
  -2   6   3    5.27    0.73
   1  -6  -3    1.53    0.29
   1  -6  -3    0.95    0.19
   1  -6  -3    0.96    0.25
   1  -6  -3    1.06    0.20
   1  -6  -3    1.06    0.31
   1  -6  -3    0.22    0.34
   1  -6  -3    1.27    0.27
  -1   6   3    0.77    0.35
  -1   6   3    1.09    0.28
   0  -6  -3   10.93    0.76
   0  -6  -3   12.11    0.74
   0  -6  -3   12.50    0.71
   0  -6  -3   13.48    0.76
   0   6   3   13.07    0.72
   0   6   3   12.75    0.85
   0   6   3   13.16    0.77
  -1  -6  -3   12.50    0.77
  -1  -6  -3   13.59    0.79
  -1  -6  -3   12.09    0.72
  -1  -6  -3   12.41    0.81
   1   6   3   14.21    0.81
   1   6   3   12.18    0.71
   1   6   3   13.49    0.77
  -2  -6  -3    0.34    0.19
  -2  -6  -3    0.05    0.20
  -2  -6  -3    0.05    0.19
  -2  -6  -3    0.06    0.23
  -2  -6  -3   -0.15    0.16
   2   6   3    0.31    0.23
   2   6   3    0.18    0.11
   2   6   3    0.05    0.12
   2   6   3   -0.28    0.15
   2   6   3   -0.02    0.18
  -3  -6  -3    5.52    0.57
  -3  -6  -3    6.92    0.60
  -3  -6  -3    6.50    0.62
  -3  -6  -3    5.80    0.62
  -3  -6  -3    6.79    0.56
   3   6   3    6.63    0.54
   3   6   3    6.45    0.49
   3   6   3    6.16    0.60
   3   6   3    6.36    0.47
  -4  -6  -3   42.81    2.13
  -4  -6  -3   50.93    2.14
  -4  -6  -3   47.95    2.03
  -4  -6  -3   47.57    2.00
   4   6   3   46.58    2.11
   4   6   3   47.92    2.01
   4   6   3   48.14    1.99
   4   6   3   48.18    1.97
   4   6   3   47.81    2.04
  -5  -6  -3    0.75    0.29
  -5  -6  -3    0.99    0.40
  -5  -6  -3    1.04    0.33
  -5  -6  -3    1.07    0.38
   5   6   3    1.22    0.39
   5   6   3    0.93    0.38
   5   6   3    0.27    0.29
   5   6   3    0.92    0.34
  -6  -6  -3   57.39    2.55
  -6  -6  -3   57.96    2.45
  -6  -6  -3   58.45    2.69
   6   6   3   55.45    2.56
   6   6   3   52.87    2.43
   6   6   3   56.94    2.46
   6   6   3   56.82    2.58
  -7  -6  -3    9.27    1.03
  -7  -6  -3    8.27    0.87
   7   6   3    9.15    1.02
   7   6   3   10.01    0.91
  -8  -6  -3   10.63    1.17
   8   6   3    8.79    1.17
   4  -7  -3    0.71    0.59
   4  -7  -3    0.76    0.34
  -4   7   3    1.50    0.64
   3  -7  -3    0.29    0.27
   3  -7  -3    0.28    0.46
   3  -7  -3    0.12    0.23
  -3   7   3    0.60    0.51
   2  -7  -3    0.19    0.39
   2  -7  -3   -0.36    0.20
   2  -7  -3    0.20    0.24
   2  -7  -3    0.17    0.20
  -2   7   3   -0.11    0.37
   1  -7  -3    0.98    0.28
   1  -7  -3    0.61    0.30
   1  -7  -3    0.89    0.25
   1  -7  -3    0.66    0.43
   1  -7  -3    1.18    0.28
  -1   7   3    0.61    0.38
   0  -7  -3   11.77    0.76
   0  -7  -3   13.04    0.51
   0  -7  -3   14.70    0.80
   0  -7  -3   13.39    0.82
   0  -7  -3   14.40    0.88
   0  -7  -3   13.59    0.52
   0   7   3   14.65    0.75
   0   7   3   13.88    0.93
   0   7   3   12.56    0.79
  -1  -7  -3   24.31    1.30
  -1  -7  -3   25.29    1.26
  -1  -7  -3   25.89    1.26
   1   7   3   26.74    1.18
   1   7   3   25.18    1.21
   1   7   3   26.23    1.29
  -2  -7  -3   49.88    2.15
  -2  -7  -3   47.17    2.05
  -2  -7  -3   48.35    1.98
  -2  -7  -3   49.85    2.09
  -2  -7  -3   45.70    2.09
   2   7   3   47.93    1.94
   2   7   3   48.15    2.03
   2   7   3   49.78    1.95
   2   7   3   47.98    1.74
   2   7   3   48.83    1.74
  -3  -7  -3   88.21    3.59
  -3  -7  -3   91.90    3.48
  -3  -7  -3   90.57    3.52
  -3  -7  -3   94.61    3.46
   3   7   3   93.78    3.27
   3   7   3   93.07    3.33
   3   7   3   91.17    3.29
   3   7   3   89.32    3.48
  -4  -7  -3   18.04    1.05
  -4  -7  -3   18.86    1.09
  -4  -7  -3   18.74    1.22
  -4  -7  -3   18.04    1.16
   4   7   3   18.64    1.16
   4   7   3   19.51    1.04
   4   7   3   18.36    1.03
   4   7   3   18.90    1.08
   4   7   3   18.12    0.83
  -5  -7  -3   75.69    3.02
  -5  -7  -3   75.64    3.29
  -5  -7  -3   73.74    3.17
   5   7   3   76.40    3.18
   5   7   3   78.39    3.10
   5   7   3   77.71    3.12
   5   7   3   79.15    3.10
  -6  -7  -3    0.57    0.33
  -6  -7  -3    0.85    0.47
  -6  -7  -3    0.50    0.38
   6   7   3    0.31    0.34
   6   7   3    0.34    0.40
   6   7   3   -0.04    0.26
  -7  -7  -3   28.27    1.85
  -7  -7  -3   26.58    1.56
   7   7   3   27.00    1.72
  -8  -7  -3    1.81    0.70
   8   7   3    3.75    0.84
   3  -8  -3    4.30    0.54
   3  -8  -3    4.13    0.90
  -3   8   3    3.33    0.80
   2  -8  -3   11.78    1.20
   2  -8  -3   10.70    0.79
   2  -8  -3   12.48    0.85
  -2   8   3   11.95    1.09
   1  -8  -3   35.93    2.10
   1  -8  -3   40.87    1.76
   1  -8  -3   36.30    1.67
  -1   8   3   40.44    1.99
   0  -8  -3   10.73    0.76
   0  -8  -3    9.63    0.77
   0   8   3   11.33    0.90
  -1  -8  -3   73.20    2.87
  -1  -8  -3   73.49    3.08
  -1  -8  -3   69.46    2.91
   1   8   3   74.28    2.89
  -2  -8  -3   -0.04    0.23
  -2  -8  -3    0.02    0.24
  -2  -8  -3   -0.26    0.20
   2   8   3    0.45    0.28
   2   8   3    0.36    0.28
  -3  -8  -3   28.18    1.47
  -3  -8  -3   28.47    1.42
  -3  -8  -3   27.56    1.53
   3   8   3   24.70    1.19
   3   8   3   27.52    1.21
   3   8   3   24.60    1.39
  -4  -8  -3    7.78    0.84
  -4  -8  -3    7.69    0.77
  -4  -8  -3    6.31    0.64
   4   8   3    6.98    0.64
   4   8   3    6.47    0.75
  -5  -8  -3    1.50    0.49
  -5  -8  -3    1.98    0.57
  -5  -8  -3    1.29    0.38
   5   8   3    1.36    0.42
   5   8   3    1.76    0.53
  -6  -8  -3    3.13    0.73
  -6  -8  -3    4.15    0.64
  -6  -8  -3    4.75    0.80
   6   8   3    3.95    0.70
   6   8   3    3.30    0.62
   6   8   3    4.24    0.77
  -7  -8  -3   -0.12    0.46
   7   8   3    0.04    0.48
   2  -9  -3    0.18    0.29
   2  -9  -3    0.20    0.49
  -2   9   3    0.65    0.53
   1  -9  -3    6.75    0.66
   1  -9  -3    7.00    1.07
   1  -9  -3    7.59    0.71
  -1   9   3    7.21    0.94
   0  -9  -3    1.33    0.40
   0  -9  -3    1.30    0.36
   0   9   3    2.48    0.58
  -1  -9  -3    1.05    0.44
  -1  -9  -3    1.24    0.40
  -1  -9  -3    1.61    0.40
   1   9   3    1.25    0.44
  -2  -9  -3   -0.10    0.26
  -2  -9  -3   -0.10    0.26
  -2  -9  -3   -0.17    0.26
   2   9   3    0.82    0.34
  -3  -9  -3   11.54    1.01
  -3  -9  -3    9.00    0.86
  -3  -9  -3   11.16    0.86
  -4  -9  -3    2.29    0.58
  -4  -9  -3    4.31    0.58
  -4  -9  -3    4.03    0.68
   4   9   3    3.22    0.62
  -5  -9  -3    4.25    0.73
  -5  -9  -3    3.73    0.80
   5   9   3    4.91    0.80
  -6  -9  -3   10.76    1.09
  -6  -9  -3   10.78    1.21
   6   9   3    9.53    1.08
   0 -10  -3    1.09    0.40
   0 -10  -3    1.18    0.40
   0  10   3    1.64    0.54
  -1 -10  -3   12.48    0.94
  -1 -10  -3   11.13    0.94
   1  10   3   11.69    0.97
  -2 -10  -3    6.49    0.82
  -2 -10  -3    5.52    0.75
  -3 -10  -3    0.48    0.40
  -3 -10  -3    0.51    0.39
  -4 -10  -3    8.55    1.09
  -4 -10  -3    6.48    0.90
  -5 -10  -3    0.89    0.51
  -5 -10  -3    0.98    0.51
  -2 -11  -3    1.24    0.51
  -3 -11  -3    1.61    0.56
  -3 -11  -3    1.18    0.49
  -3 -10   4    0.39    0.57
  -3 -10   4   -0.02    0.47
  -3 -10   4   -0.36    0.53
  -2 -10   4   19.27    1.59
  -2 -10   4   18.81    1.43
  -2 -10   4   21.26    1.43
  -1 -10   4    8.75    0.93
  -1 -10   4    9.17    0.91
  -1 -10   4    9.28    1.21
   0 -10   4    2.18    0.51
   0 -10   4    3.89    0.86
   0 -10   4    2.52    0.56
   1 -10   4    7.63    1.15
   1 -10   4    7.28    0.70
   1 -10   4    7.57    0.71
  -4  -9   4   -0.09    0.39
  -4  -9   4   -0.06    0.49
  -4  -9   4    0.24    0.49
  -3  -9   4   14.81    1.36
  -3  -9   4   13.54    1.16
  -3  -9   4   12.15    1.21
  -2  -9   4    8.89    1.18
  -2  -9   4   10.54    1.00
  -2  -9   4   10.38    1.03
  -1  -9   4   -0.38    0.35
  -1  -9   4    0.56    0.40
  -1  -9   4    0.16    0.33
   0  -9   4   24.14    1.37
   0  -9   4   25.21    1.69
   0  -9   4   21.87    1.29
   1  -9   4    5.64    0.61
   1  -9   4    7.30    0.66
   1  -9   4    5.47    0.92
   2  -9   4    4.80    0.49
   2  -9   4    4.81    0.46
   2  -9   4    4.83    0.86
   3  -9   4    6.84    1.06
   3  -9   4    6.72    0.52
   3  -9   4    7.42    0.49
   5   8  -4    1.86    0.63
  -5  -8   4    0.81    0.68
  -5  -8   4    0.42    0.58
   4   8  -4   11.27    1.07
  -4  -8   4   10.24    1.18
  -4  -8   4    9.73    1.04
  -4  -8   4    8.61    1.14
   3   8  -4    6.52    0.83
  -3  -8   4    6.35    0.99
  -3  -8   4    6.95    0.95
  -3  -8   4    6.13    0.87
   2   8  -4    2.57    0.52
  -2  -8   4    2.66    0.60
  -2  -8   4    2.00    0.63
  -2  -8   4    2.82    0.61
   1   8  -4    3.42    0.67
  -1  -8   4    4.21    0.64
  -1  -8   4    3.51    0.76
  -1  -8   4    3.64    0.63
   0   8  -4    9.12    0.92
   0  -8   4    9.95    0.82
   0  -8   4   10.24    0.79
   0  -8   4    9.55    0.99
  -1   8  -4    1.18    0.48
   1  -8   4    0.80    0.28
   1  -8   4    1.38    0.53
   1  -8   4    0.54    0.29
   1  -8   4    1.16    0.32
   2  -8   4   31.71    1.38
   2  -8   4   34.49    1.39
   2  -8   4   29.72    1.85
   2  -8   4   31.62    1.40
   3  -8   4    8.41    0.52
   3  -8   4    8.04    0.55
   3  -8   4    6.57    0.96
   4  -8   4    9.48    1.04
   4  -8   4    9.66    1.01
   6   7  -4   -0.16    0.48
  -6  -7   4   -0.01    0.57
   5   7  -4    0.91    0.52
  -5  -7   4    1.84    0.72
  -5  -7   4    0.93    0.55
   4   7  -4   10.07    0.99
  -4  -7   4   10.63    1.16
  -4  -7   4   11.98    1.19
  -4  -7   4   11.92    1.09
   3   7  -4    6.76    0.78
  -3  -7   4    7.56    1.01
  -3  -7   4    8.24    0.91
  -3  -7   4    7.60    0.84
   2   7  -4   48.69    2.32
   2   7  -4   47.83    2.10
  -2  -7   4   43.16    2.17
  -2  -7   4   45.20    2.11
  -2  -7   4   41.98    2.29
   1   7  -4   49.62    2.10
   1   7  -4   47.23    2.34
  -1  -7   4   49.05    2.46
  -1  -7   4   45.09    2.39
  -1  -7   4   51.14    2.20
  -1  -7   4   51.83    2.20
  -1  -7   4   46.38    2.20
  -1  -7   4   51.59    2.11
  -1  -7   4   51.94    1.95
   0   7  -4   43.10    1.67
   0   7  -4   39.76    2.00
   0   7  -4   40.91    1.69
   0  -7   4   40.65    2.10
   0  -7   4   41.76    1.80
   0  -7   4   37.14    1.68
   0  -7   4   36.80    2.02
   0  -7   4   37.85    1.75
   0  -7   4   37.70    1.79
  -1   7  -4   59.98    2.65
   1  -7   4   64.99    2.84
   1  -7   4   56.65    2.29
   1  -7   4   58.16    2.35
   1  -7   4   58.74    2.37
   1  -7   4   65.22    2.80
   1  -7   4   60.79    2.12
  -2   7  -4    0.80    0.40
   2  -7   4   -0.12    0.29
   2  -7   4    0.07    0.32
   2  -7   4    0.15    0.19
   2  -7   4    0.29    0.19
   2  -7   4    0.09    0.18
   2  -7   4   -0.02    0.18
   3  -7   4   23.06    1.17
   3  -7   4   22.13    0.95
   3  -7   4   24.60    1.48
   3  -7   4   19.58    0.96
   3  -7   4   20.91    0.86
   4  -7   4   13.24    0.59
   4  -7   4   16.14    1.22
   4  -7   4   13.37    0.98
   4  -7   4   14.80    1.11
   4  -7   4   13.20    0.59
   5  -7   4    0.26    0.38
   6   6  -4    5.51    1.01
   6   6  -4    4.62    0.90
  -6  -6   4    4.65    0.97
   5   6  -4   33.04    1.90
   5   6  -4   30.39    1.91
  -5  -6   4   31.54    2.03
  -5  -6   4   32.75    2.03
   4   6  -4    4.98    0.77
  -4  -6   4    5.89    0.87
  -4  -6   4    4.30    0.74
  -4  -6   4    3.54    0.79
   3   6  -4   69.06    2.76
   3   6  -4   67.42    3.10
   3   6  -4   69.98    2.89
  -3  -6   4   70.48    2.95
  -3  -6   4   67.26    3.01
  -3  -6   4   66.61    3.07
   2   6  -4    0.33    0.30
   2   6  -4    0.51    0.27
   2   6  -4    0.43    0.33
  -2  -6   4   -0.18    0.33
  -2  -6   4    0.41    0.30
  -2  -6   4    0.38    0.40
  -2  -6   4   -0.31    0.19
  -2  -6   4    0.11    0.31
   1   6  -4   37.52    1.70
   1   6  -4   38.20    1.93
   1   6  -4   38.15    1.59
  -1  -6   4   37.67    1.74
  -1  -6   4   35.84    1.76
  -1  -6   4   39.02    1.68
  -1  -6   4   36.84    1.97
  -1  -6   4   38.91    1.97
  -1  -6   4   36.50    1.74
   0   6  -4   20.27    0.92
   0   6  -4   19.64    1.00
   0   6  -4   21.43    1.27
   0  -6   4   19.00    1.26
   0  -6   4   21.29    1.33
   0  -6   4   19.71    1.09
   0  -6   4   19.52    1.07
   0  -6   4   18.52    1.05
   0  -6   4   20.58    1.01
   0  -6   4   18.68    1.08
  -1   6  -4    0.99    0.36
  -1   6  -4    0.31    0.18
  -1   6  -4    0.11    0.12
   1  -6   4    0.60    0.37
   1  -6   4    0.55    0.22
   1  -6   4    0.35    0.13
   1  -6   4    0.28    0.22
   1  -6   4    0.25    0.23
   1  -6   4    0.69    0.35
   1  -6   4    0.34    0.20
  -2   6  -4   14.08    0.99
  -2   6  -4   12.99    0.57
  -2   6  -4   14.65    0.59
   2  -6   4   13.17    0.77
   2  -6   4   13.63    0.74
   2  -6   4   14.47    1.06
   2  -6   4   13.93    0.73
   2  -6   4   13.46    1.02
   2  -6   4   13.91    0.74
   2  -6   4   12.51    0.72
   3  -6   4   16.45    0.81
   3  -6   4   16.85    0.76
   3  -6   4   17.12    0.80
   3  -6   4   17.55    0.77
   3  -6   4   16.44    1.17
   3  -6   4   18.18    1.19
   3  -6   4   17.81    0.97
  -4   6  -4    2.02    0.65
   4  -6   4    1.40    0.22
   4  -6   4    1.22    0.37
   4  -6   4    1.47    0.22
   4  -6   4    2.68    0.59
   4  -6   4    1.31    0.41
  -5   6  -4    7.01    1.12
   5  -6   4    6.43    0.37
   5  -6   4    6.36    0.38
   5  -6   4    5.55    0.87
   5  -6   4    5.01    0.72
  -6   6  -4   10.77    1.32
   6  -6   4   11.48    0.55
   6  -6   4   10.94    0.52
   6  -6   4   11.84    1.21
   6   5  -4    4.76    0.89
   6   5  -4    4.71    0.91
  -6  -5   4    4.80    0.93
   5   5  -4   15.87    1.32
   5   5  -4   18.21    1.20
   5   5  -4   18.05    1.32
  -5  -5   4   16.54    1.39
  -5  -5   4   17.19    1.41
   4   5  -4   14.68    1.12
   4   5  -4   11.56    1.01
   4   5  -4   11.36    0.88
   4   5  -4   10.23    0.68
  -4  -5   4   11.74    1.07
  -4  -5   4   11.91    1.09
  -4  -5   4   10.91    0.99
  -4  -5   4   12.30    0.64
   3   5  -4    0.53    0.33
   3   5  -4    0.50    0.28
   3   5  -4    0.28    0.33
   3   5  -4    0.72    0.38
   3   5  -4    0.76    0.18
  -3  -5   4    0.90    0.38
  -3  -5   4    1.54    0.46
  -3  -5   4    0.93    0.44
  -3  -5   4    1.58    0.39
  -3  -5   4    0.25    0.37
   2   5  -4    9.37    0.86
   2   5  -4   10.65    0.72
   2   5  -4    9.83    0.39
   2   5  -4    9.84    0.40
   2   5  -4    9.65    0.76
  -2  -5   4   10.36    0.93
  -2  -5   4    9.83    0.87
  -2  -5   4   10.44    0.84
  -2  -5   4   10.93    0.75
  -2  -5   4   10.08    0.82
   1   5  -4   62.59    2.67
   1   5  -4   62.89    2.46
  -1  -5   4   60.20    2.71
  -1  -5   4   65.20    2.44
  -1  -5   4   59.56    2.67
  -1  -5   4   63.83    2.53
  -1  -5   4   63.31    2.53
  -1  -5   4   58.27    2.52
  -1  -5   4   58.86    2.48
   0   5  -4    1.29    0.37
   0   5  -4    1.16    0.28
   0   5  -4    1.03    0.22
   0  -5   4    0.96    0.24
   0  -5   4    1.61    0.34
   0  -5   4    1.16    0.30
   0  -5   4    0.91    0.28
   0  -5   4    1.19    0.40
   0  -5   4    0.87    0.37
  -1   5  -4   36.07    1.71
  -1   5  -4   33.79    1.41
  -1   5  -4   36.31    1.33
   1  -5   4   34.56    1.32
   1  -5   4   35.13    1.74
   1  -5   4   32.74    1.43
   1  -5   4   36.85    1.52
   1  -5   4   35.51    1.53
   1  -5   4   33.65    1.48
   1  -5   4   36.70    1.78
   1  -5   4   37.22    1.56
  -2   5  -4   32.56    1.62
  -2   5  -4   36.85    1.30
  -2   5  -4   33.80    1.26
   2  -5   4   34.46    1.37
   2  -5   4   33.17    1.39
   2  -5   4   33.04    1.38
   2  -5   4   30.59    1.63
   2  -5   4   30.95    1.66
   2  -5   4   33.70    1.40
   2  -5   4   34.71    1.44
  -3   5  -4    0.55    0.41
   3  -5   4    0.76    0.20
   3  -5   4    0.81    0.19
   3  -5   4    0.55    0.24
   3  -5   4    1.20    0.39
   3  -5   4    0.10    0.25
   3  -5   4    0.83    0.21
   3  -5   4    0.95    0.23
  -4   5  -4   34.09    1.87
   4  -5   4   29.72    1.19
   4  -5   4   29.11    1.60
   4  -5   4   29.75    1.21
   4  -5   4   29.19    1.14
   4  -5   4   31.69    1.51
   4  -5   4   29.71    1.14
   4  -5   4   31.26    1.49
   4  -5   4   29.66    1.64
  -5   5  -4   10.33    1.12
   5  -5   4   11.32    0.99
   5  -5   4   11.10    0.86
   5  -5   4   11.09    0.58
   5  -5   4   10.91    0.48
   5  -5   4   11.13    0.58
  -6   5  -4    3.36    0.85
   6  -5   4    3.39    0.36
   6  -5   4    3.32    0.36
   6   4  -4    0.26    0.42
   6   4  -4   -0.19    0.39
   6   4  -4    0.29    0.45
  -6  -4   4   -0.32    0.49
   5   4  -4   28.15    1.73
   5   4  -4   28.22    1.53
   5   4  -4   26.56    1.64
   5   4  -4   26.22    1.37
  -5  -4   4   28.65    1.26
  -5  -4   4   22.86    1.65
   4   4  -4    8.49    0.63
   4   4  -4    9.13    0.88
   4   4  -4    9.29    0.91
   4   4  -4    8.92    0.78
   4   4  -4    8.30    0.87
  -4  -4   4    9.44    0.95
  -4  -4   4    9.23    0.89
  -4  -4   4    8.94    0.93
  -4  -4   4    9.17    0.60
   3   4  -4   47.75    2.23
   3   4  -4   44.06    2.23
   3   4  -4   51.20    2.20
   3   4  -4   49.52    2.20
   3   4  -4   51.06    2.08
   3   4  -4   50.03    1.86
  -3  -4   4   49.35    2.10
  -3  -4   4   46.77    2.27
  -3  -4   4   49.43    2.34
  -3  -4   4   47.87    2.19
  -3  -4   4   45.74    2.23
   2   4  -4   59.08    2.58
   2   4  -4   58.31    2.42
   2   4  -4   57.63    2.44
   2   4  -4   60.44    2.32
   2   4  -4   59.34    2.43
   2   4  -4   60.57    2.08
  -2  -4   4   59.89    2.36
  -2  -4   4   61.74    2.48
  -2  -4   4   55.41    2.57
  -2  -4   4   58.19    2.57
  -2  -4   4   55.27    2.48
   1   4  -4    0.23    0.17
   1   4  -4    0.17    0.27
   1   4  -4    0.46    0.24
   1   4  -4    0.42    0.09
  -1  -4   4    0.75    0.24
  -1  -4   4    0.60    0.31
  -1  -4   4    0.40    0.26
  -1  -4   4    0.33    0.32
  -1  -4   4    0.52    0.27
  -1  -4   4    0.41    0.23
  -1  -4   4    0.74    0.28
   0   4  -4   89.07    3.58
   0   4  -4   95.37    3.39
   0   4  -4   91.61    3.09
   0   4  -4   94.70    3.30
   0  -4   4   95.71    3.42
   0  -4   4   84.35    3.41
   0  -4   4   96.68    3.67
   0  -4   4   93.94    3.45
   0  -4   4  104.08    3.51
   0  -4   4   89.43    3.35
   0  -4   4   91.17    3.60
   0  -4   4   96.61    3.44
  -1   4  -4   57.06    2.37
  -1   4  -4   56.64    2.21
  -1   4  -4   55.82    2.00
  -1   4  -4   56.51    2.12
  -1   4  -4   56.59    2.04
   1  -4   4   54.87    2.38
   1  -4   4   54.36    2.11
   1  -4   4   57.86    2.19
   1  -4   4   57.40    2.21
   1  -4   4   58.43    2.18
   1  -4   4   55.43    2.40
   1  -4   4   55.80    2.19
   1  -4   4   58.13    2.02
   1  -4   4   57.82    2.33
  -2   4  -4   37.18    1.26
  -2   4  -4   33.07    1.70
  -2   4  -4   35.97    1.37
  -2   4  -4   35.81    1.42
  -2   4  -4   34.71    1.35
  -2   4  -4   34.97    1.64
   2  -4   4   34.53    1.66
   2  -4   4   35.51    1.64
   2  -4   4   36.13    1.45
   2  -4   4   34.01    1.43
   2  -4   4   35.65    1.43
   2  -4   4   35.25    1.47
   2  -4   4   34.32    1.42
  -3   4  -4   21.51    1.34
  -3   4  -4   23.73    1.13
  -3   4  -4   24.42    0.86
  -3   4  -4   22.40    0.86
   3  -4   4   22.67    0.99
   3  -4   4   23.21    1.02
   3  -4   4   22.29    0.99
   3  -4   4   23.05    1.12
   3  -4   4   20.79    0.98
   3  -4   4   26.00    1.32
   3  -4   4   23.60    1.26
  -4   4  -4    0.42    0.27
  -4   4  -4    0.69    0.42
   4  -4   4    0.49    0.18
   4  -4   4    0.74    0.19
   4  -4   4    0.67    0.32
   4  -4   4    0.95    0.21
   4  -4   4    0.62    0.24
   4  -4   4    0.49    0.25
   4  -4   4    0.81    0.18
   4  -4   4    0.40    0.30
  -5   4  -4    0.37    0.42
   5  -4   4    0.19    0.17
   5  -4   4    0.46    0.18
   5  -4   4    0.49    0.18
   5  -4   4    1.03    0.36
   5  -4   4    0.54    0.27
  -6   4  -4   12.11    1.21
   6  -4   4   12.03    0.88
   6  -4   4   12.99    0.73
   6  -4   4   11.10    0.65
   6  -4   4   11.93    0.67
  -7   4  -4    1.58    0.71
   7  -4   4    2.56    0.37
   6   3  -4   12.75    1.24
   6   3  -4   13.84    1.21
   6   3  -4   15.29    1.15
  -6  -3   4   16.81    1.39
   5   3  -4    2.29    0.46
   5   3  -4    2.30    0.51
   5   3  -4    2.64    0.67
   5   3  -4    2.18    0.56
  -5  -3   4    2.71    0.46
  -5  -3   4    3.60    0.73
   4   3  -4   24.48    1.49
   4   3  -4   24.59    1.26
   4   3  -4   27.15    1.55
   4   3  -4   28.66    1.52
   4   3  -4   25.00    1.40
   4   3  -4   25.37    1.36
  -4  -3   4   24.21    1.45
  -4  -3   4   27.02    1.56
  -4  -3   4   23.53    1.18
  -4  -3   4   25.98    1.55
   3   3  -4   15.19    0.84
   3   3  -4   15.80    1.03
   3   3  -4   13.96    1.02
   3   3  -4   17.71    1.12
   3   3  -4   16.18    0.96
   3   3  -4   14.40    0.97
  -3  -3   4   16.04    1.10
  -3  -3   4   17.27    1.00
  -3  -3   4   15.98    1.10
  -3  -3   4   17.12    1.07
   2   3  -4    7.11    0.66
   2   3  -4    7.63    0.59
   2   3  -4    7.88    0.67
   2   3  -4    8.32    0.73
   2   3  -4    9.53    0.68
  -2  -3   4    8.59    0.70
  -2  -3   4    7.72    0.71
  -2  -3   4    8.12    0.75
  -2  -3   4    8.17    0.63
  -2  -3   4    7.20    0.71
   1   3  -4   17.74    0.88
   1   3  -4   18.82    0.97
   1   3  -4   17.59    1.17
   1   3  -4   17.66    1.05
   1   3  -4   17.22    0.95
   1   3  -4   14.17    0.90
  -1  -3   4   17.92    0.91
  -1  -3   4   16.31    0.99
  -1  -3   4   17.24    1.04
  -1  -3   4   18.82    1.09
  -1  -3   4   17.11    0.94
  -1  -3   4   17.58    0.83
  -1  -3   4   16.01    0.95
  -1  -3   4   17.07    0.97
   0   3  -4    1.15    0.32
   0   3  -4    0.40    0.25
   0   3  -4    0.83    0.25
   0   3  -4    0.79    0.14
   0   3  -4    1.11    0.26
   0   3  -4    1.33    0.32
   0  -3   4    0.49    0.20
   0  -3   4    0.55    0.26
   0  -3   4    0.36    0.17
   0  -3   4    0.60    0.20
   0  -3   4    1.33    0.36
   0  -3   4    0.83    0.26
   0  -3   4    0.83    0.26
   0  -3   4    0.27    0.24
  -1   3  -4   12.00    0.67
  -1   3  -4   12.15    0.71
  -1   3  -4   13.40    0.82
  -1   3  -4   12.41    0.77
  -1   3  -4   11.61    0.76
  -1   3  -4   12.47    0.66
  -1   3  -4   11.97    0.60
  -1   3  -4   11.52    0.57
   1  -3   4   11.67    0.57
   1  -3   4   12.30    0.66
   1  -3   4   10.85    0.78
   1  -3   4   12.22    0.74
   1  -3   4   12.87    0.71
   1  -3   4   10.57    0.76
   1  -3   4   11.14    0.71
   1  -3   4   12.34    0.64
   1  -3   4   12.44    0.73
  -2   3  -4   24.16    0.94
  -2   3  -4   24.33    1.03
  -2   3  -4   24.76    1.02
  -2   3  -4   25.07    1.22
  -2   3  -4   23.70    1.25
  -2   3  -4   22.29    1.02
  -2   3  -4   24.79    0.95
   2  -3   4   25.19    1.12
   2  -3   4   22.98    1.08
   2  -3   4   22.30    1.04
   2  -3   4   23.42    1.21
   2  -3   4   22.64    1.04
   2  -3   4   24.64    1.25
   2  -3   4   24.26    1.04
   2  -3   4   24.47    1.00
   2  -3   4   23.54    1.20
  -3   3  -4   47.29    1.90
  -3   3  -4   49.12    1.63
  -3   3  -4   47.86    1.72
  -3   3  -4   45.51    2.12
   3  -3   4   47.64    1.78
   3  -3   4   50.92    2.07
   3  -3   4   47.28    1.80
   3  -3   4   46.23    1.83
   3  -3   4   47.85    1.92
   3  -3   4   46.01    2.02
   3  -3   4   48.83    1.83
  -4   3  -4    8.97    0.83
  -4   3  -4    8.24    0.45
  -4   3  -4    8.64    0.42
  -4   3  -4    7.26    0.63
   4  -3   4    8.31    0.54
   4  -3   4    9.09    0.69
   4  -3   4    7.61    0.52
   4  -3   4    9.00    0.73
   4  -3   4    7.78    0.51
   4  -3   4    8.32    0.52
   4  -3   4    8.75    0.50
  -5   3  -4   36.97    1.80
  -5   3  -4   37.33    1.36
  -5   3  -4   37.11    1.99
   5  -3   4   38.16    1.60
   5  -3   4   38.69    1.87
   5  -3   4   35.27    1.48
   5  -3   4   37.31    1.54
   5  -3   4   39.61    1.56
   5  -3   4   37.92    1.52
   5  -3   4   42.89    1.87
  -6   3  -4    3.77    0.75
   6  -3   4    4.90    0.45
   6  -3   4    3.93    0.47
   6  -3   4    3.99    0.41
   6  -3   4    3.58    0.49
  -7   3  -4    5.52    1.00
   7  -3   4    7.28    0.61
   7  -3   4    8.13    0.62
   6   2  -4    0.40    0.40
   6   2  -4    1.69    0.57
   6   2  -4   -0.14    0.30
  -6  -2   4    0.04    0.34
  -6  -2   4    0.50    0.48
   5   2  -4    3.10    0.57
   5   2  -4    2.43    0.52
   5   2  -4    2.80    0.59
   5   2  -4    2.17    0.62
  -5  -2   4    1.70    0.44
  -5  -2   4    1.76    0.59
   4   2  -4   18.26    1.09
   4   2  -4   15.60    1.12
   4   2  -4   18.23    1.22
   4   2  -4   19.12    1.21
   4   2  -4   18.65    1.07
   4   2  -4   18.31    1.14
  -4  -2   4   17.09    0.83
  -4  -2   4   17.19    1.23
  -4  -2   4   16.12    1.11
  -4  -2   4   16.85    0.97
   3   2  -4   13.19    0.93
   3   2  -4   13.29    0.87
   3   2  -4   15.82    0.96
   3   2  -4   14.56    0.99
   3   2  -4   14.27    0.83
   3   2  -4   14.09    0.99
  -3  -2   4   14.31    0.96
  -3  -2   4   15.97    1.05
  -3  -2   4   15.17    1.02
   2   2  -4   33.26    1.71
   2   2  -4   32.60    1.48
   2   2  -4   30.51    1.48
   2   2  -4   28.60    1.46
   2   2  -4   32.46    1.54
   2   2  -4   29.92    1.38
  -2  -2   4   29.67    1.39
  -2  -2   4   31.59    1.55
  -2  -2   4   32.23    1.52
  -2  -2   4   31.53    1.49
  -2  -2   4   29.59    1.52
   1   2  -4  176.52    6.26
   1   2  -4  179.03    6.23
   1   2  -4  183.06    6.19
   1   2  -4  179.01    6.16
   1   2  -4  172.38    6.20
   1   2  -4  179.94    6.09
   1   2  -4  175.03    6.15
  -1  -2   4  183.86    6.16
  -1  -2   4  176.02    6.10
  -1  -2   4  184.47    5.90
  -1  -2   4  177.59    6.23
  -1  -2   4  168.93    6.20
  -1  -2   4  176.40    6.25
  -1  -2   4  185.62    6.23
  -1  -2   4  172.85    6.17
   0   2  -4   18.09    0.92
   0   2  -4   17.26    0.89
   0   2  -4   18.76    0.95
   0   2  -4   17.48    0.97
   0   2  -4   17.49    0.84
   0   2  -4   16.60    0.82
   0   2  -4   15.93    0.75
   0   2  -4   17.51    0.95
   0  -2   4   15.73    0.93
   0  -2   4   15.69    0.83
   0  -2   4   16.74    0.90
   0  -2   4   17.35    0.84
   0  -2   4   15.58    0.92
   0  -2   4   17.53    0.77
   0  -2   4   15.69    0.94
   0  -2   4   18.30    0.93
  -1   2  -4  300.51    9.95
  -1   2  -4  301.87    9.79
  -1   2  -4  312.59    9.93
  -1   2  -4  294.25    9.92
  -1   2  -4  300.05   10.00
  -1   2  -4  312.81    9.84
  -1   2  -4  287.47    9.87
  -1   2  -4  282.98   10.00
   1  -2   4  298.38    9.78
   1  -2   4  287.45    9.91
   1  -2   4  300.14    9.97
   1  -2   4  297.56    9.90
   1  -2   4  300.53   10.02
   1  -2   4  297.53    9.80
   1  -2   4  287.40    9.88
   1  -2   4  303.69    9.96
   1  -2   4  303.16   10.00
  -2   2  -4    4.76    0.46
  -2   2  -4    3.79    0.32
  -2   2  -4    4.27    0.36
  -2   2  -4    4.25    0.38
  -2   2  -4    5.06    0.33
  -2   2  -4    4.05    0.38
  -2   2  -4    4.39    0.45
   2  -2   4    4.01    0.27
   2  -2   4    5.01    0.46
   2  -2   4    4.41    0.38
   2  -2   4    3.91    0.40
   2  -2   4    3.93    0.38
   2  -2   4    4.72    0.46
   2  -2   4    3.56    0.42
   2  -2   4    4.04    0.35
   2  -2   4    4.77    0.42
  -3   2  -4  104.53    4.09
  -3   2  -4  106.17    3.91
  -3   2  -4  109.43    3.85
  -3   2  -4  112.12    3.75
  -3   2  -4  114.98    3.80
   3  -2   4  116.02    4.05
   3  -2   4  109.25    3.70
   3  -2   4  111.52    3.80
   3  -2   4  116.01    3.88
   3  -2   4  107.36    3.92
   3  -2   4  112.36    3.84
   3  -2   4  108.05    3.85
  -4   2  -4   33.52    1.54
  -4   2  -4   34.51    1.40
  -4   2  -4   33.95    1.35
  -4   2  -4   33.61    1.72
  -4   2  -4   38.46    1.31
   4  -2   4   35.18    1.57
   4  -2   4   33.52    1.40
   4  -2   4   34.71    1.41
   4  -2   4   34.92    1.45
   4  -2   4   33.77    1.31
   4  -2   4   34.72    1.62
   4  -2   4   33.92    1.37
  -5   2  -4    2.67    0.34
  -5   2  -4    1.78    0.50
  -5   2  -4    2.79    0.48
  -5   2  -4    2.88    0.25
   5  -2   4    2.65    0.49
   5  -2   4    2.00    0.30
   5  -2   4    2.59    0.33
   5  -2   4    1.98    0.41
   5  -2   4    2.32    0.35
   5  -2   4    2.37    0.36
   5  -2   4    2.90    0.40
  -6   2  -4    5.80    0.76
  -6   2  -4    5.35    0.85
   6  -2   4    6.03    0.53
   6  -2   4    6.37    0.55
   6  -2   4    7.30    0.59
   6  -2   4    6.31    0.53
  -7   2  -4    3.89    0.81
   7  -2   4    4.50    0.50
   7  -2   4    3.51    0.50
  -8   2  -4    1.42    0.69
   8  -2   4    0.19    0.27
   8  -2   4    0.03    0.30
   6   1  -4    4.06    0.76
   6   1  -4    3.73    0.79
   6   1  -4    3.63    0.71
  -6  -1   4    3.55    0.66
   5   1  -4   27.41    1.49
   5   1  -4   27.44    1.69
   5   1  -4   26.58    1.59
   5   1  -4   27.85    1.69
  -5  -1   4   28.69    1.66
  -5  -1   4   25.47    1.42
   4   1  -4   -0.31    0.21
   4   1  -4    0.36    0.27
   4   1  -4    0.12    0.25
   4   1  -4    0.07    0.26
   4   1  -4   -0.25    0.24
   4   1  -4    0.30    0.35
  -4  -1   4   -0.07    0.15
  -4  -1   4   -0.15    0.23
  -4  -1   4   -0.01    0.28
  -4  -1   4   -0.05    0.23
   3   1  -4   84.91    3.30
   3   1  -4   87.46    3.20
   3   1  -4   82.08    3.29
   3   1  -4   88.72    3.28
   3   1  -4   84.15    3.36
  -3  -1   4   81.76    3.28
  -3  -1   4   80.03    3.31
  -3  -1   4   87.72    3.28
  -3  -1   4   82.49    2.84
  -3  -1   4   81.62    3.14
   2   1  -4   16.81    1.02
   2   1  -4   15.54    0.97
   2   1  -4   17.96    1.04
   2   1  -4   18.99    0.97
   2   1  -4   17.23    1.01
   2   1  -4   19.21    1.01
   2   1  -4   18.86    1.01
  -2  -1   4   18.52    1.09
  -2  -1   4   19.04    1.03
  -2  -1   4   17.10    1.01
  -2  -1   4   18.92    1.03
  -2  -1   4   20.65    0.99
   1   1  -4   86.43    3.29
   1   1  -4   93.97    3.30
   1   1  -4   91.15    3.28
   1   1  -4   86.56    3.20
   1   1  -4   84.12    3.25
   1   1  -4   92.03    3.34
   1   1  -4   84.63    3.27
  -1  -1   4   86.61    3.29
  -1  -1   4   91.63    3.22
  -1  -1   4   87.67    3.27
  -1  -1   4   88.61    3.34
  -1  -1   4   89.14    3.30
  -1  -1   4   86.46    3.26
  -1  -1   4   88.09    3.28
   0   1  -4   64.13    2.43
   0   1  -4   67.58    2.53
   0   1  -4   66.76    2.42
   0   1  -4   66.15    2.51
   0   1  -4   65.76    2.50
   0   1  -4   64.91    2.41
   0   1  -4   65.25    2.28
   0   1  -4   65.45    2.52
   0   1  -4   66.55    2.56
   0  -1   4   65.85    2.46
   0  -1   4   64.93    2.54
   0  -1   4   68.07    2.52
   0  -1   4   66.37    2.53
   0  -1   4   62.24    2.52
   0  -1   4   66.72    2.51
   0  -1   4   67.87    2.44
  -1   1  -4    0.16    0.16
  -1   1  -4    0.03    0.16
  -1   1  -4    0.39    0.15
  -1   1  -4    0.14    0.12
  -1   1  -4    0.38    0.19
  -1   1  -4    0.32    0.17
  -1   1  -4    0.22    0.18
  -1   1  -4    0.22    0.16
  -1   1  -4    0.05    0.17
   1  -1   4    0.11    0.18
   1  -1   4    0.14    0.16
   1  -1   4    0.19    0.19
   1  -1   4    0.36    0.20
   1  -1   4   -0.01    0.10
   1  -1   4    0.18    0.18
   1  -1   4    0.26    0.14
   1  -1   4   -0.20    0.14
  -2   1  -4   32.12    1.37
  -2   1  -4   29.75    1.31
  -2   1  -4   31.33    1.37
  -2   1  -4   32.19    1.28
  -2   1  -4   31.89    1.25
  -2   1  -4   31.90    1.29
  -2   1  -4   31.49    1.29
   2  -1   4   31.89    1.36
   2  -1   4   30.45    1.33
   2  -1   4   30.91    1.29
   2  -1   4   33.19    1.35
   2  -1   4   31.96    1.30
   2  -1   4   30.22    1.31
   2  -1   4   29.57    1.25
   2  -1   4   31.45    1.09
  -3   1  -4   48.06    1.71
  -3   1  -4   45.32    1.91
  -3   1  -4   44.77    1.68
  -3   1  -4   44.50    1.78
  -3   1  -4   42.97    1.63
  -3   1  -4   44.13    1.74
   3  -1   4   42.67    1.71
   3  -1   4   42.05    1.67
   3  -1   4   41.99    1.71
   3  -1   4   43.98    1.77
   3  -1   4   44.09    1.82
   3  -1   4   46.49    1.77
  -4   1  -4    4.70    0.49
  -4   1  -4    4.66    0.39
  -4   1  -4    4.79    0.44
  -4   1  -4    4.86    0.39
  -4   1  -4    4.71    0.59
   4  -1   4    4.34    0.48
   4  -1   4    4.47    0.42
   4  -1   4    5.52    0.41
   4  -1   4    5.07    0.26
   4  -1   4    5.00    0.45
   4  -1   4    5.21    0.50
   4  -1   4    3.84    0.40
  -5   1  -4   20.82    0.97
  -5   1  -4   21.05    1.04
  -5   1  -4   22.24    1.36
  -5   1  -4   20.87    1.18
   5  -1   4   22.33    1.12
   5  -1   4   21.14    1.20
   5  -1   4   21.51    1.05
   5  -1   4   21.64    0.90
   5  -1   4   24.74    1.11
   5  -1   4   21.85    1.02
  -6   1  -4   13.90    1.16
  -6   1  -4   15.49    0.78
  -6   1  -4   13.47    0.84
  -6   1  -4   15.98    1.06
   6  -1   4   14.88    0.91
   6  -1   4   14.81    0.77
   6  -1   4   14.28    0.84
   6  -1   4   14.78    1.22
   6  -1   4   14.38    0.89
  -7   1  -4    0.47    0.47
   7  -1   4    0.11    0.26
   7  -1   4    0.12    0.27
   7  -1   4    0.12    0.29
  -8   1  -4    3.01    0.83
   8  -1   4    4.32    0.64
   8  -1   4    4.43    0.59
   6   0  -4    9.73    0.91
   6   0  -4   10.39    1.14
   6   0  -4    9.19    0.98
  -6   0   4    9.44    0.96
   5   0  -4   11.73    1.10
   5   0  -4   10.71    1.01
   5   0  -4   11.13    0.97
   5   0  -4    9.16    0.89
  -5   0   4   11.10    0.92
  -5   0   4   11.99    1.05
   4   0  -4   32.68    1.73
   4   0  -4   37.91    1.79
   4   0  -4   31.30    1.80
   4   0  -4   34.40    1.76
   4   0  -4   34.02    1.71
   4   0  -4   35.85    1.67
  -4   0   4   34.38    1.93
  -4   0   4   36.53    1.71
  -4   0   4   37.63    1.82
  -4   0   4   34.18    1.40
   3   0  -4    0.16    0.22
   3   0  -4    0.51    0.31
   3   0  -4    0.20    0.27
   3   0  -4   -0.42    0.20
   3   0  -4   -0.06    0.23
   3   0  -4    0.12    0.21
  -3   0   4    0.25    0.23
  -3   0   4    0.17    0.25
  -3   0   4    0.01    0.28
   2   0  -4   36.27    1.56
   2   0  -4   34.40    1.63
   2   0  -4   33.05    1.60
   2   0  -4   33.80    1.55
   2   0  -4   34.91    1.54
   2   0  -4   37.40    1.65
   2   0  -4   34.46    1.56
  -2   0   4   36.41    1.58
  -2   0   4   33.46    1.52
  -2   0   4   35.42    1.56
  -2   0   4   35.71    1.66
   1   0  -4   33.50    1.56
   1   0  -4   35.17    1.51
   1   0  -4   35.75    1.56
   1   0  -4   38.15    1.58
   1   0  -4   34.60    1.58
   1   0  -4   34.06    1.50
   1   0  -4   36.47    1.50
  -1   0   4   34.24    1.51
  -1   0   4   38.01    1.57
  -1   0   4   38.27    1.61
  -1   0   4   34.78    1.49
  -1   0   4   34.15    1.49
  -1   0   4   36.12    1.61
  -1   0   4   33.37    1.53
   0   0  -4    0.05    0.15
   0   0  -4    0.32    0.21
   0   0  -4    0.11    0.08
   0   0  -4    0.41    0.19
   0   0  -4    0.21    0.15
   0   0  -4   -0.07    0.14
   0   0  -4    0.37    0.21
   0   0  -4    0.26    0.19
   0   0   4    0.34    0.23
   0   0   4    0.17    0.19
   0   0   4    0.16    0.18
   0   0   4    0.34    0.18
   0   0   4    0.19    0.20
   0   0   4    0.00    0.17
   0   0   4    0.03    0.15
  -1   0  -4   48.25    1.88
  -1   0  -4   51.36    1.96
  -1   0  -4   47.86    1.87
  -1   0  -4   47.29    1.86
  -1   0  -4   49.31    1.89
  -1   0  -4   49.00    1.93
  -1   0  -4   51.61    1.79
  -1   0  -4   50.34    1.86
   1   0   4   50.35    1.96
   1   0   4   49.17    1.95
   1   0   4   47.60    1.78
   1   0   4   50.32    1.89
   1   0   4   48.74    1.86
   1   0   4   47.84    1.88
   1   0   4   47.45    1.87
  -2   0  -4   39.71    1.56
  -2   0  -4   40.79    1.52
  -2   0  -4   39.28    1.54
  -2   0  -4   38.94    1.60
  -2   0  -4   38.23    1.55
  -2   0  -4   40.12    1.33
   2   0   4   36.70    1.52
   2   0   4   38.69    1.56
   2   0   4   39.71    1.61
   2   0   4   39.47    1.57
   2   0   4   38.80    1.55
   2   0   4   36.19    1.54
   2   0   4   40.28    1.53
  -3   0  -4    0.14    0.12
  -3   0  -4   -0.16    0.13
  -3   0  -4    0.12    0.15
  -3   0  -4    0.17    0.15
  -3   0  -4    0.27    0.16
   3   0   4    0.02    0.14
   3   0   4    0.18    0.16
   3   0   4    0.21    0.18
   3   0   4   -0.05    0.12
   3   0   4   -0.21    0.13
   3   0   4   -0.02    0.16
  -4   0  -4   13.72    0.72
  -4   0  -4   14.05    0.79
  -4   0  -4   13.09    0.81
  -4   0  -4   13.85    0.84
   4   0   4   12.60    0.70
   4   0   4   13.21    0.75
   4   0   4   13.36    0.82
   4   0   4   13.16    0.75
   4   0   4   13.52    0.80
  -5   0  -4   12.30    0.59
  -5   0  -4   10.04    0.73
  -5   0  -4   12.73    0.71
  -5   0  -4   12.44    0.84
  -5   0  -4   11.24    0.93
   5   0   4   13.80    0.80
   5   0   4   12.51    0.71
   5   0   4   11.01    0.74
   5   0   4   12.26    0.86
   5   0   4   13.64    0.83
   5   0   4   12.42    0.59
  -6   0  -4    0.05    0.29
  -6   0  -4   -0.05    0.23
  -6   0  -4   -0.16    0.33
  -6   0  -4    0.08    0.20
  -6   0  -4   -0.07    0.16
   6   0   4   -0.12    0.22
   6   0   4    0.25    0.18
   6   0   4    0.52    0.31
   6   0   4    0.01    0.22
   6   0   4    0.02    0.21
   6   0   4    0.02    0.24
  -7   0  -4    7.85    1.07
   7   0   4    9.62    0.67
   7   0   4    7.60    0.76
   7   0   4    9.39    0.75
  -8   0  -4    2.30    0.77
   8   0   4    2.47    0.54
   8   0   4    3.53    0.57
   6  -1  -4    4.23    0.72
   6  -1  -4    4.81    0.80
   6  -1  -4    4.40    0.85
  -6   1   4    3.80    0.76
   5  -1  -4    1.09    0.45
   5  -1  -4    1.95    0.49
   5  -1  -4    1.80    0.59
   5  -1  -4    1.27    0.47
  -5   1   4    2.58    0.59
   4  -1  -4    1.49    0.48
   4  -1  -4    0.85    0.34
   4  -1  -4    0.97    0.45
   4  -1  -4    1.35    0.45
   4  -1  -4    0.68    0.33
   4  -1  -4    1.28    0.42
   4  -1  -4   -0.02    0.30
  -4   1   4    1.10    0.42
  -4   1   4    1.58    0.43
   3  -1  -4    3.62    0.56
   3  -1  -4    3.05    0.47
   3  -1  -4    2.77    0.53
   3  -1  -4    3.47    0.51
   3  -1  -4    3.83    0.51
   3  -1  -4    3.29    0.53
  -3   1   4    3.57    0.55
  -3   1   4    4.91    0.64
  -3   1   4    3.74    0.51
   2  -1  -4   25.48    1.38
   2  -1  -4   27.27    1.28
   2  -1  -4   29.35    1.40
   2  -1  -4   26.96    1.31
   2  -1  -4   25.65    1.28
   2  -1  -4   30.53    1.41
   2  -1  -4   28.12    1.26
  -2   1   4   27.68    1.38
   1  -1  -4   10.26    0.43
   1  -1  -4   10.06    0.71
   1  -1  -4    8.89    0.58
   1  -1  -4   11.08    0.73
   1  -1  -4    9.42    0.63
   1  -1  -4    9.65    0.66
   1  -1  -4    9.28    0.58
   1  -1  -4   10.20    0.68
  -1   1   4    9.68    0.62
  -1   1   4   10.26    0.69
  -1   1   4    9.19    0.71
  -1   1   4   10.19    0.69
  -1   1   4    9.41    0.58
  -1   1   4   10.70    0.71
   0  -1  -4    8.86    0.53
   0  -1  -4    8.58    0.63
   0  -1  -4    8.08    0.57
   0  -1  -4    8.62    0.58
   0  -1  -4    8.71    0.59
   0  -1  -4    9.30    0.63
   0  -1  -4    9.45    0.53
   0   1   4    7.79    0.59
   0   1   4    8.66    0.58
   0   1   4    8.65    0.50
   0   1   4    8.90    0.52
   0   1   4    9.76    0.68
   0   1   4    9.08    0.58
   0   1   4    9.65    0.64
  -1  -1  -4   99.33    3.48
  -1  -1  -4   99.81    3.58
  -1  -1  -4   98.65    3.50
  -1  -1  -4  105.25    3.67
  -1  -1  -4  106.82    3.59
  -1  -1  -4   95.60    3.62
  -1  -1  -4  100.04    3.61
   1   1   4  100.49    3.63
   1   1   4  106.84    3.62
   1   1   4  102.41    3.49
   1   1   4  102.29    3.59
   1   1   4  101.07    3.50
   1   1   4  102.42    3.65
  -2  -1  -4   18.09    0.86
  -2  -1  -4   19.76    0.95
  -2  -1  -4   17.68    0.87
  -2  -1  -4   18.39    0.74
  -2  -1  -4   18.37    0.89
  -2  -1  -4   18.04    0.91
   2   1   4   18.40    0.94
   2   1   4   18.40    0.83
   2   1   4   18.78    0.90
   2   1   4   17.83    0.86
   2   1   4   18.64    0.92
   2   1   4   18.76    0.90
  -3  -1  -4   72.43    2.66
  -3  -1  -4   72.15    2.60
  -3  -1  -4   71.34    2.41
  -3  -1  -4   70.60    2.68
  -3  -1  -4   68.62    2.63
  -3  -1  -4   71.71    2.70
   3   1   4   72.17    2.62
   3   1   4   71.89    2.66
   3   1   4   72.78    2.70
   3   1   4   69.47    2.65
   3   1   4   77.85    2.75
  -4  -1  -4   48.77    1.99
  -4  -1  -4   52.11    1.89
  -4  -1  -4   48.15    2.01
  -4  -1  -4   47.56    1.70
   4   1   4   49.37    2.02
   4   1   4   46.39    1.89
   4   1   4   49.59    2.04
   4   1   4   46.00    1.92
   4   1   4   50.17    1.97
  -5  -1  -4   11.58    0.85
  -5  -1  -4   12.95    0.85
  -5  -1  -4   14.09    0.67
  -5  -1  -4   14.31    0.81
   5   1   4   14.49    0.91
   5   1   4   13.29    0.83
   5   1   4   13.10    0.83
   5   1   4   12.78    0.77
   5   1   4   13.71    0.90
  -6  -1  -4   22.04    1.26
  -6  -1  -4   24.52    1.09
  -6  -1  -4   22.84    1.17
  -6  -1  -4   25.38    1.37
   6   1   4   23.80    1.35
   6   1   4   21.44    1.17
   6   1   4   22.45    1.24
   6   1   4   25.16    1.38
   6   1   4   25.08    1.30
  -7  -1  -4    0.73    0.47
  -7  -1  -4    0.53    0.35
   7   1   4    0.88    0.39
   7   1   4    0.69    0.27
   7   1   4    0.45    0.33
  -8  -1  -4    1.10    0.60
   8   1   4    0.95    0.46
   8   1   4    0.49    0.37
   6  -2  -4    7.25    1.14
   6  -2  -4    8.96    0.91
   6  -2  -4    8.40    0.96
  -6   2   4    8.19    1.10
   5  -2  -4    0.95    0.41
   5  -2  -4    0.62    0.41
   5  -2  -4    1.49    0.47
   5  -2  -4    0.54    0.37
  -5   2   4    0.87    0.50
   4  -2  -4   14.51    1.16
   4  -2  -4   11.62    0.88
   4  -2  -4   12.09    0.93
   4  -2  -4   12.84    0.99
  -4   2   4   14.48    0.99
  -4   2   4   13.68    1.03
   3  -2  -4   32.95    1.63
   3  -2  -4   34.92    1.65
   3  -2  -4   39.66    1.77
   3  -2  -4   36.37    1.68
   3  -2  -4   34.91    1.86
   3  -2  -4   37.40    1.76
  -3   2   4   37.21    1.73
  -3   2   4   36.95    1.77
  -3   2   4   37.12    1.62
   2  -2  -4    0.30    0.18
   2  -2  -4    0.08    0.20
   2  -2  -4   -0.28    0.15
   2  -2  -4    0.13    0.17
   2  -2  -4    0.34    0.25
   2  -2  -4    0.23    0.21
   2  -2  -4   -0.07    0.12
   2  -2  -4    0.06    0.20
  -2   2   4    0.08    0.25
  -2   2   4    0.35    0.28
  -2   2   4    0.26    0.19
   1  -2  -4   72.50    2.72
   1  -2  -4   71.97    2.60
   1  -2  -4   73.36    2.76
   1  -2  -4   68.76    2.82
   1  -2  -4   75.06    2.61
   1  -2  -4   77.16    2.83
   1  -2  -4   73.76    2.82
   1  -2  -4   71.21    2.62
  -1   2   4   72.95    2.87
  -1   2   4   74.31    2.80
  -1   2   4   72.71    2.82
  -1   2   4   70.58    2.68
  -1   2   4   71.44    2.75
   0  -2  -4   23.86    1.08
   0  -2  -4   20.96    1.01
   0  -2  -4   20.81    1.08
   0  -2  -4   21.16    1.05
   0  -2  -4   21.87    0.89
   0  -2  -4   20.54    0.89
   0  -2  -4   22.05    1.03
   0   2   4   19.61    0.86
   0   2   4   20.87    1.05
   0   2   4   21.01    1.08
   0   2   4   22.16    1.06
   0   2   4   23.84    1.03
   0   2   4   21.12    0.86
  -1  -2  -4   35.33    1.43
  -1  -2  -4   33.15    1.52
  -1  -2  -4   35.08    1.43
  -1  -2  -4   35.72    1.50
  -1  -2  -4   35.18    1.46
  -1  -2  -4   34.79    1.26
  -1  -2  -4   33.81    1.43
   1   2   4   35.60    1.28
   1   2   4   33.61    1.44
   1   2   4   35.85    1.45
   1   2   4   35.04    1.50
   1   2   4   33.72    1.28
   1   2   4   34.43    1.47
  -2  -2  -4   24.88    1.14
  -2  -2  -4   24.71    1.15
  -2  -2  -4   25.68    1.19
  -2  -2  -4   25.63    1.12
  -2  -2  -4   26.39    1.20
   2   2   4   26.60    1.22
   2   2   4   24.61    1.01
   2   2   4   26.55    1.16
   2   2   4   24.06    1.14
   2   2   4   25.64    1.18
  -3  -2  -4    3.83    0.40
  -3  -2  -4    3.37    0.38
  -3  -2  -4    3.20    0.43
  -3  -2  -4    4.56    0.44
  -3  -2  -4    3.32    0.35
   3   2   4    3.69    0.40
   3   2   4    3.00    0.39
   3   2   4    4.31    0.46
   3   2   4    3.94    0.42
   3   2   4    4.06    0.39
  -4  -2  -4    1.73    0.30
  -4  -2  -4    2.14    0.25
  -4  -2  -4    1.30    0.29
  -4  -2  -4    1.81    0.35
  -4  -2  -4    1.42    0.34
   4   2   4    1.41    0.31
   4   2   4    1.70    0.36
   4   2   4    1.57    0.34
   4   2   4    1.36    0.31
   4   2   4    2.14    0.34
  -5  -2  -4    1.46    0.26
  -5  -2  -4    1.42    0.36
  -5  -2  -4    1.55    0.39
  -5  -2  -4    0.96    0.29
   5   2   4    1.48    0.36
   5   2   4    0.67    0.29
   5   2   4    0.92    0.28
   5   2   4    1.52    0.36
   5   2   4    1.08    0.37
  -6  -2  -4   11.21    0.87
  -6  -2  -4   10.84    0.70
  -6  -2  -4   11.48    0.90
   6   2   4   12.20    0.91
   6   2   4   10.40    0.83
   6   2   4   11.08    0.85
   6   2   4   10.97    0.81
  -7  -2  -4    0.10    0.30
   7   2   4   -0.09    0.27
   7   2   4    0.10    0.30
  -8  -2  -4   10.07    1.13
   8   2   4    9.20    0.91
   8   2   4   10.08    0.93
  -9  -2  -4    4.24    1.02
   9   2   4    4.96    0.79
   5  -3  -4   13.91    1.13
   5  -3  -4   15.50    1.07
   5  -3  -4   14.19    1.09
   5  -3  -4   16.78    1.38
  -5   3   4   14.22    1.23
   4  -3  -4    7.54    0.86
   4  -3  -4    6.92    0.75
   4  -3  -4    6.43    0.67
   4  -3  -4    7.01    0.70
  -4   3   4    6.73    0.89
   3  -3  -4    3.99    0.55
   3  -3  -4    3.47    0.49
   3  -3  -4    3.36    0.56
   3  -3  -4    3.50    0.62
   3  -3  -4    4.24    0.57
   3  -3  -4    3.89    0.47
   3  -3  -4    3.56    0.55
  -3   3   4    4.75    0.53
  -3   3   4    3.22    0.60
  -3   3   4    4.33    0.59
   2  -3  -4   18.38    1.18
   2  -3  -4   19.70    1.08
   2  -3  -4   21.04    0.96
   2  -3  -4   19.64    1.13
   2  -3  -4   20.05    1.02
   2  -3  -4   18.77    0.95
   2  -3  -4   19.73    1.05
   2  -3  -4   18.09    1.02
  -2   3   4   20.81    1.01
  -2   3   4   18.29    1.12
  -2   3   4   17.16    1.04
   1  -3  -4    0.78    0.26
   1  -3  -4    0.76    0.17
   1  -3  -4    0.75    0.31
   1  -3  -4    0.64    0.23
   1  -3  -4    1.05    0.31
   1  -3  -4    0.65    0.17
   1  -3  -4    0.69    0.23
   1  -3  -4    1.19    0.28
  -1   3   4    0.28    0.23
  -1   3   4    0.51    0.24
   0  -3  -4    8.90    0.60
   0  -3  -4    9.91    0.42
   0  -3  -4    9.81    0.63
   0  -3  -4    9.27    0.67
   0  -3  -4    9.42    0.66
   0  -3  -4    9.04    0.42
   0  -3  -4    9.56    0.62
   0   3   4    8.88    0.63
   0   3   4    8.37    0.64
   0   3   4   10.22    0.66
   0   3   4   10.13    0.62
  -1  -3  -4    1.70    0.31
  -1  -3  -4    1.37    0.31
  -1  -3  -4    1.13    0.31
  -1  -3  -4    0.93    0.25
  -1  -3  -4    1.03    0.26
  -1  -3  -4    1.15    0.25
   1   3   4    1.04    0.10
   1   3   4    0.69    0.23
   1   3   4    0.94    0.10
   1   3   4    1.01    0.27
   1   3   4    1.20    0.27
   1   3   4    1.20    0.28
  -2  -3  -4    5.43    0.52
  -2  -3  -4    6.29    0.47
  -2  -3  -4    5.42    0.48
  -2  -3  -4    6.20    0.50
  -2  -3  -4    5.72    0.53
   2   3   4    6.29    0.53
   2   3   4    6.46    0.48
   2   3   4    5.82    0.49
   2   3   4    5.76    0.34
   2   3   4    7.37    0.53
  -3  -3  -4   11.01    0.75
  -3  -3  -4   12.95    0.70
  -3  -3  -4   12.33    0.75
  -3  -3  -4   10.28    0.69
  -3  -3  -4    9.94    0.69
   3   3   4   10.86    0.75
   3   3   4   11.82    0.72
   3   3   4   10.35    0.66
   3   3   4    9.85    0.70
   3   3   4    9.53    0.68
  -4  -3  -4   41.25    1.85
  -4  -3  -4   40.19    1.76
  -4  -3  -4   40.82    1.78
  -4  -3  -4   43.63    1.65
  -4  -3  -4   42.35    1.72
   4   3   4   44.84    1.83
   4   3   4   38.84    1.72
   4   3   4   40.78    1.80
   4   3   4   40.47    1.88
   4   3   4   42.03    1.81
  -5  -3  -4   26.35    1.36
  -5  -3  -4   27.40    1.43
  -5  -3  -4   27.63    1.21
  -5  -3  -4   27.35    1.35
   5   3   4   28.04    1.40
   5   3   4   27.81    1.39
   5   3   4   25.14    1.37
   5   3   4   26.65    1.31
  -6  -3  -4    4.05    0.60
  -6  -3  -4    3.45    0.58
  -6  -3  -4    2.61    0.48
  -6  -3  -4    3.92    0.49
   6   3   4    3.52    0.52
   6   3   4    3.72    0.60
   6   3   4    3.71    0.59
   6   3   4    4.78    0.65
  -7  -3  -4   25.91    1.55
   7   3   4   26.12    1.51
   7   3   4   27.27    1.47
   8   3   4    5.66    0.77
   8   3   4    3.67    0.70
   9   3   4    7.55    0.98
   5  -4  -4    2.08    0.52
   5  -4  -4    2.13    0.70
   5  -4  -4    2.38    0.53
  -5   4   4    2.16    0.69
   4  -4  -4    1.39    0.58
   4  -4  -4    1.05    0.39
   4  -4  -4    1.92    0.48
   4  -4  -4    1.38    0.40
  -4   4   4    1.64    0.55
   3  -4  -4    2.14    0.57
   3  -4  -4    2.73    0.51
   3  -4  -4    2.53    0.47
   3  -4  -4    3.17    0.49
   3  -4  -4    3.06    0.45
  -3   4   4    2.92    0.58
   2  -4  -4    2.29    0.44
   2  -4  -4    2.26    0.41
   2  -4  -4    2.38    0.34
   2  -4  -4    2.17    0.31
   2  -4  -4    2.13    0.40
   2  -4  -4    2.16    0.49
   2  -4  -4    2.81    0.44
   2  -4  -4    2.81    0.47
  -2   4   4    1.73    0.46
  -2   4   4    2.39    0.36
  -2   4   4    1.91    0.40
   1  -4  -4    4.82    0.59
   1  -4  -4    4.31    0.45
   1  -4  -4    4.29    0.31
   1  -4  -4    4.49    0.61
   1  -4  -4    4.61    0.31
   1  -4  -4    4.44    0.51
   1  -4  -4    3.99    0.45
   1  -4  -4    4.60    0.46
  -1   4   4    4.53    0.52
  -1   4   4    3.25    0.43
  -1   4   4    4.88    0.57
   0  -4  -4   33.45    1.43
   0  -4  -4   30.66    1.47
   0  -4  -4   31.37    1.40
   0  -4  -4   34.69    1.57
   0  -4  -4   31.48    1.39
   0   4   4   32.36    1.42
   0   4   4   31.89    1.48
  -1  -4  -4   34.45    1.42
  -1  -4  -4   31.67    1.39
  -1  -4  -4   29.69    1.43
  -1  -4  -4   31.29    1.36
   1   4   4   35.00    1.50
   1   4   4   29.39    1.40
  -2  -4  -4   17.12    0.98
  -2  -4  -4   18.06    0.94
  -2  -4  -4   18.43    0.94
  -2  -4  -4   16.90    0.86
  -2  -4  -4   16.36    0.97
   2   4   4   16.70    0.66
   2   4   4   16.31    0.90
   2   4   4   16.61    0.65
   2   4   4   16.62    0.91
  -3  -4  -4   38.91    1.81
  -3  -4  -4   41.52    1.78
  -3  -4  -4   43.42    1.74
  -3  -4  -4   45.74    1.82
  -3  -4  -4   39.89    1.77
   3   4   4   39.60    1.75
   3   4   4   40.54    1.71
   3   4   4   41.12    1.80
   3   4   4   40.59    1.59
   3   4   4   42.52    1.78
  -4  -4  -4   18.41    0.95
  -4  -4  -4   17.89    1.08
  -4  -4  -4   16.29    0.98
  -4  -4  -4   15.20    0.95
   4   4   4   16.22    1.00
   4   4   4   17.43    1.00
   4   4   4   17.79    1.02
   4   4   4   17.97    0.95
  -5  -4  -4   14.71    0.92
  -5  -4  -4   12.99    0.96
  -5  -4  -4   13.18    0.90
  -5  -4  -4   13.01    0.80
   5   4   4   12.71    0.83
   5   4   4   13.36    0.96
   5   4   4   12.75    0.89
   5   4   4   13.86    0.94
  -6  -4  -4   37.57    1.79
  -6  -4  -4   40.04    1.91
  -6  -4  -4   35.53    1.77
   6   4   4   38.94    1.87
   6   4   4   37.26    1.73
   6   4   4   33.64    1.77
   6   4   4   34.50    1.78
  -7  -4  -4    0.37    0.38
   7   4   4    0.37    0.36
   7   4   4    0.00    0.36
  -8  -4  -4    3.42    0.72
   8   4   4    4.17    0.72
   8   4   4    3.62    0.75
   4  -5  -4   12.35    0.95
   4  -5  -4   12.37    0.92
   4  -5  -4   12.81    1.25
  -4   5   4   12.12    1.16
   3  -5  -4   10.63    0.79
   3  -5  -4   10.31    1.04
   3  -5  -4    9.12    0.81
  -3   5   4    9.63    0.96
   2  -5  -4   22.01    0.98
   2  -5  -4   19.30    1.08
   2  -5  -4   18.33    1.15
   2  -5  -4   20.05    1.36
   2  -5  -4   21.48    1.10
  -2   5   4   20.13    1.26
  -2   5   4   19.57    1.09
   1  -5  -4   31.69    1.45
   1  -5  -4   32.50    1.54
   1  -5  -4   31.60    1.44
   1  -5  -4   32.18    1.18
   1  -5  -4   31.79    1.18
   1  -5  -4   32.21    1.68
   1  -5  -4   31.69    1.18
  -1   5   4   34.11    1.53
  -1   5   4   29.96    1.57
  -1   5   4   31.25    1.38
   0  -5  -4    0.36    0.24
   0  -5  -4   -0.13    0.24
   0  -5  -4    0.35    0.21
   0  -5  -4    0.37    0.20
   0  -5  -4    0.35    0.23
   0   5   4    0.64    0.30
   0   5   4    0.48    0.27
   0   5   4    0.01    0.19
  -1  -5  -4   22.02    1.11
  -1  -5  -4   21.61    1.15
  -1  -5  -4   22.66    1.06
   1   5   4   21.02    1.09
   1   5   4   21.52    1.06
  -2  -5  -4   24.81    1.22
  -2  -5  -4   23.75    1.24
  -2  -5  -4   25.29    1.30
  -2  -5  -4   25.37    1.16
  -2  -5  -4   22.84    1.18
   2   5   4   23.86    0.82
   2   5   4   23.54    0.82
   2   5   4   22.26    1.16
   2   5   4   23.84    0.81
  -3  -5  -4    0.72    0.28
  -3  -5  -4    0.59    0.23
  -3  -5  -4    0.67    0.30
  -3  -5  -4    0.36    0.24
  -3  -5  -4    0.32    0.24
   3   5   4    0.37    0.17
   3   5   4    0.09    0.15
   3   5   4    0.31    0.26
   3   5   4    0.22    0.21
  -4  -5  -4    4.24    0.63
  -4  -5  -4    5.58    0.53
  -4  -5  -4    5.41    0.55
  -4  -5  -4    5.45    0.59
   4   5   4    5.52    0.54
   4   5   4    5.64    0.51
   4   5   4    5.82    0.64
   4   5   4    5.66    0.57
   4   5   4    6.58    0.64
  -5  -5  -4    3.13    0.56
  -5  -5  -4    3.27    0.56
  -5  -5  -4    2.81    0.49
  -5  -5  -4    4.28    0.57
   5   5   4    2.83    0.49
   5   5   4    3.04    0.50
   5   5   4    3.52    0.57
   5   5   4    3.63    0.60
  -6  -5  -4    7.27    0.80
  -6  -5  -4    7.38    0.81
  -6  -5  -4    7.14    0.72
   6   5   4    7.14    0.77
   6   5   4    7.43    0.80
   6   5   4    5.48    0.69
   6   5   4    6.29    0.81
  -7  -5  -4    4.32    0.77
   7   5   4    4.90    0.78
   7   5   4    4.05    0.66
  -8  -5  -4   14.09    1.27
   8   5   4   12.37    1.18
   8   5   4   13.87    1.19
   4  -6  -4    0.38    0.52
   4  -6  -4   -0.36    0.29
   4  -6  -4   -0.28    0.33
  -4   6   4   -0.35    0.48
   3  -6  -4    1.35    0.41
   3  -6  -4    2.10    0.67
   3  -6  -4    2.20    0.46
  -3   6   4    1.93    0.59
   2  -6  -4    4.47    0.62
   2  -6  -4    4.45    0.56
   2  -6  -4    5.45    0.84
  -2   6   4    4.54    0.73
   1  -6  -4    4.25    0.60
   1  -6  -4    4.93    0.27
   1  -6  -4    4.72    0.53
   1  -6  -4    5.10    0.28
   1  -6  -4    5.76    0.80
   1  -6  -4    4.12    0.47
   1  -6  -4    5.08    0.28
  -1   6   4    4.43    0.44
  -1   6   4    4.83    0.69
   0  -6  -4    3.13    0.57
   0  -6  -4    3.04    0.49
   0  -6  -4    3.28    0.45
   0  -6  -4    3.52    0.45
   0  -6  -4    3.14    0.46
   0   6   4    3.62    0.55
   0   6   4    3.40    0.45
   0   6   4    3.00    0.46
  -1  -6  -4   29.35    1.39
  -1  -6  -4   32.24    1.43
  -1  -6  -4   30.21    1.34
  -1  -6  -4   25.93    1.39
   1   6   4   30.85    1.35
   1   6   4   28.70    1.39
   1   6   4   28.27    1.41
  -2  -6  -4    8.42    0.76
  -2  -6  -4    9.13    0.70
  -2  -6  -4    9.47    0.67
  -2  -6  -4    8.17    0.74
  -2  -6  -4    9.84    0.71
   2   6   4    9.38    0.71
   2   6   4   10.20    0.68
  -3  -6  -4   15.12    0.88
  -3  -6  -4   13.70    0.92
  -3  -6  -4   13.39    0.91
  -3  -6  -4   13.58    0.96
   3   6   4   14.27    0.70
   3   6   4   13.67    0.84
   3   6   4   13.35    0.67
   3   6   4   14.11    0.91
  -4  -6  -4   38.39    1.73
  -4  -6  -4   35.62    1.85
  -4  -6  -4   37.48    1.75
  -4  -6  -4   39.00    1.81
   4   6   4   35.47    1.60
   4   6   4   39.86    1.73
   4   6   4   37.23    1.79
   4   6   4   39.44    1.61
  -5  -6  -4    0.46    0.34
  -5  -6  -4    0.74    0.38
  -5  -6  -4    1.03    0.36
  -5  -6  -4    1.56    0.40
   5   6   4    1.04    0.42
   5   6   4    1.67    0.41
   5   6   4    1.62    0.49
   5   6   4    1.13    0.36
  -6  -6  -4   23.06    1.33
  -6  -6  -4   22.68    1.41
  -6  -6  -4   19.53    1.40
   6   6   4   23.65    1.46
   6   6   4   23.78    1.38
   6   6   4   22.35    1.30
   6   6   4   22.81    1.38
  -7  -6  -4   -0.30    0.35
   7   6   4    0.20    0.43
   7   6   4    0.12    0.36
  -8  -6  -4    1.02    0.57
   8   6   4   -0.58    0.44
   3  -7  -4   16.66    1.06
   3  -7  -4   16.14    1.05
   3  -7  -4   15.87    1.42
  -3   7   4   14.88    1.33
   2  -7  -4    1.04    0.47
   2  -7  -4    0.78    0.39
   2  -7  -4    1.77    0.41
  -2   7   4    0.22    0.43
   1  -7  -4   15.77    0.96
   1  -7  -4   15.88    1.03
   1  -7  -4   15.21    1.24
  -1   7   4   14.75    1.11
   0  -7  -4   17.23    1.00
   0  -7  -4   17.33    1.24
   0  -7  -4   16.71    0.95
   0  -7  -4   16.93    1.05
   0   7   4   17.27    1.11
  -1  -7  -4    0.09    0.32
  -1  -7  -4    0.59    0.31
  -1  -7  -4    0.34    0.24
  -1  -7  -4    0.39    0.25
  -1  -7  -4    0.32    0.25
   1   7   4    0.33    0.28
   1   7   4    0.63    0.33
  -2  -7  -4   23.32    1.20
  -2  -7  -4   23.97    1.27
  -2  -7  -4   22.40    1.25
  -2  -7  -4   24.48    1.34
  -2  -7  -4   23.28    1.36
   2   7   4   24.29    1.22
   2   7   4   23.71    1.25
  -3  -7  -4    0.42    0.24
  -3  -7  -4    0.17    0.33
  -3  -7  -4    1.04    0.36
  -3  -7  -4    0.34    0.30
   3   7   4    1.34    0.31
   3   7   4    1.11    0.22
   3   7   4    0.74    0.35
  -4  -7  -4    6.15    0.68
  -4  -7  -4    5.82    0.79
  -4  -7  -4    5.62    0.64
   4   7   4    5.36    0.69
   4   7   4    5.96    0.55
  -5  -7  -4    1.66    0.50
  -5  -7  -4    1.19    0.43
  -5  -7  -4    1.26    0.40
   5   7   4    0.86    0.43
   5   7   4    1.36    0.40
  -6  -7  -4    4.24    0.66
  -6  -7  -4    3.63    0.72
  -6  -7  -4    4.72    0.76
   6   7   4    3.68    0.74
   6   7   4    3.80    0.62
   6   7   4    2.93    0.65
  -7  -7  -4   10.72    1.17
   7   7   4   11.93    1.15
  -8  -7  -4    7.37    1.08
   8   7   4    7.96    1.13
   2  -8  -4    4.84    0.94
   2  -8  -4    6.02    0.70
   2  -8  -4    6.04    0.67
  -2   8   4    6.47    0.97
   1  -8  -4   11.96    0.93
   1  -8  -4   10.45    0.81
   1  -8  -4    9.81    1.11
  -1   8   4   12.77    1.05
   0  -8  -4    1.36    0.37
   0  -8  -4    0.60    0.45
   0  -8  -4    1.04    0.37
   0   8   4    1.67    0.48
  -1  -8  -4    4.27    0.74
  -1  -8  -4    4.98    0.64
  -1  -8  -4    4.45    0.63
   1   8   4    4.39    0.64
  -2  -8  -4    3.58    0.56
  -2  -8  -4    2.90    0.58
  -2  -8  -4    3.15    0.57
   2   8   4    3.53    0.56
   2   8   4    2.30    0.45
  -3  -8  -4    4.08    0.65
  -3  -8  -4    5.04    0.68
  -3  -8  -4    3.36    0.64
   3   8   4    4.54    0.54
   3   8   4    3.92    0.61
  -4  -8  -4   15.93    1.20
  -4  -8  -4   17.40    1.12
  -4  -8  -4   17.44    1.17
   4   8   4   16.83    0.89
   4   8   4   16.17    1.16
  -5  -8  -4   24.54    1.49
  -5  -8  -4   22.43    1.51
  -5  -8  -4   23.42    1.34
   5   8   4   21.31    1.41
  -6  -8  -4    4.16    0.65
  -6  -8  -4    4.53    0.83
  -6  -8  -4    4.37    0.77
   6   8   4    4.86    0.82
  -7  -8  -4   19.81    1.58
   7   8   4   21.45    1.56
   1  -9  -4    0.13    0.31
   1  -9  -4   -0.36    0.42
   1  -9  -4    0.43    0.34
  -1   9   4    0.16    0.44
   0  -9  -4    1.64    0.42
   0  -9  -4    1.38    0.59
   0  -9  -4    1.07    0.43
   0   9   4    0.74    0.42
  -1  -9  -4   10.39    0.90
  -1  -9  -4   10.13    0.87
  -1  -9  -4   12.97    1.15
   1   9   4   10.76    0.93
  -2  -9  -4    0.03    0.32
  -2  -9  -4    0.75    0.41
  -2  -9  -4    0.70    0.43
   2   9   4    0.47    0.37
  -3  -9  -4   13.60    1.06
  -3  -9  -4   13.73    1.12
  -3  -9  -4   12.77    1.02
   3   9   4   15.42    0.92
  -4  -9  -4    4.73    0.82
  -4  -9  -4    5.85    0.79
  -4  -9  -4    5.95    0.75
   4   9   4    3.29    0.63
  -5  -9  -4    1.16    0.43
  -5  -9  -4    0.85    0.47
  -5  -9  -4    0.58    0.48
   5   9   4    0.35    0.44
  -6  -9  -4   12.53    1.22
  -6  -9  -4    9.89    1.08
   6   9   4    8.98    1.12
   0 -10  -4    2.00    0.54
   0  10   4    2.24    0.66
  -1 -10  -4    0.06    0.32
  -1 -10  -4    0.43    0.37
   1  10   4    0.45    0.49
  -2 -10  -4   11.42    1.04
  -2 -10  -4   10.37    0.96
   2  10   4   10.36    1.02
  -3 -10  -4    4.15    0.69
  -3 -10  -4    4.23    0.75
  -4 -10  -4    3.82    0.79
  -4 -10  -4    6.97    0.93
  -5 -10  -4    8.08    1.03
  -5 -10  -4    8.02    1.11
  -2 -10   5    0.79    0.61
  -2 -10   5    2.22    0.81
  -2 -10   5    1.57    0.59
  -1 -10   5   16.60    1.28
  -1 -10   5   18.92    1.58
  -1 -10   5   17.59    1.36
   0 -10   5    2.42    0.72
   0 -10   5    1.64    0.53
   0 -10   5    3.45    0.73
   1 -10   5    7.93    1.21
   1 -10   5    9.23    0.84
  -3  -9   5    1.46    0.64
  -3  -9   5    1.91    0.61
  -3  -9   5    3.06    0.86
  -2  -9   5    9.02    1.25
  -2  -9   5    8.45    0.96
  -2  -9   5    8.16    1.00
  -1  -9   5    1.11    0.45
  -1  -9   5    0.86    0.45
  -1  -9   5    1.45    0.62
   0  -9   5    7.29    1.09
   0  -9   5    6.73    0.76
   0  -9   5    7.87    0.83
   1  -9   5    9.98    0.84
   1  -9   5   11.65    1.25
   1  -9   5   10.83    0.87
   2  -9   5    1.36    0.34
   2  -9   5    0.97    0.34
   2  -9   5    1.39    0.61
   3  -9   5    7.57    1.08
   3  -9   5    7.30    0.59
   4   8  -5    5.35    0.86
  -4  -8   5    3.16    0.77
  -4  -8   5    3.10    0.85
  -4  -8   5    3.20    0.82
   3   8  -5   13.73    1.14
  -3  -8   5   14.24    1.36
  -3  -8   5   15.97    1.30
  -3  -8   5   12.51    1.22
  -2  -8   5   -0.11    0.32
  -2  -8   5    0.75    0.56
  -2  -8   5   -0.08    0.39
  -1  -8   5   15.47    1.13
  -1  -8   5   16.83    1.36
  -1  -8   5   12.99    1.07
   0  -8   5   26.55    1.72
   0  -8   5   25.74    1.45
   0  -8   5   24.12    1.39
   1  -8   5    0.33    0.49
   1  -8   5    0.36    0.30
   1  -8   5    0.88    0.34
   2  -8   5   25.80    1.26
   2  -8   5   24.55    1.26
   2  -8   5   26.64    1.72
   3  -8   5    1.96    0.50
   3  -8   5    3.02    0.77
   3  -8   5    1.91    0.34
   4  -8   5    0.87    0.57
   4  -8   5    1.59    0.27
   4  -8   5    1.44    0.26
   5   7  -5    5.90    0.95
  -5  -7   5    4.90    1.03
  -5  -7   5    6.01    1.11
   4   7  -5   12.88    1.19
  -4  -7   5   11.77    1.25
  -4  -7   5   16.88    1.47
  -4  -7   5   15.00    1.28
   3   7  -5    0.22    0.38
  -3  -7   5   -0.39    0.32
  -3  -7   5   -0.10    0.38
  -3  -7   5   -0.11    0.47
   2   7  -5   26.03    1.46
  -2  -7   5   26.30    1.62
  -2  -7   5   28.38    1.77
  -2  -7   5   24.63    1.50
   1   7  -5   13.43    1.11
   1   7  -5   11.52    0.87
  -1  -7   5    9.98    0.94
  -1  -7   5   10.81    0.95
  -1  -7   5   14.20    1.20
   0   7  -5    4.63    0.73
   0   7  -5    3.91    0.52
   0  -7   5    3.81    0.57
   0  -7   5    2.40    0.51
   0  -7   5    4.32    0.81
  -1   7  -5    4.51    0.72
   1  -7   5    4.56    0.58
   1  -7   5    3.38    0.49
   1  -7   5    3.74    0.49
   1  -7   5    3.83    0.75
  -2   7  -5    8.66    1.13
   2  -7   5    9.88    0.69
   2  -7   5    8.17    0.64
   2  -7   5    9.31    0.68
   2  -7   5   10.05    0.99
   3  -7   5    5.07    0.84
   3  -7   5    4.98    0.51
   3  -7   5    4.99    0.45
   3  -7   5    5.43    0.49
   4  -7   5   17.00    1.36
   4  -7   5   15.96    0.80
   4  -7   5   15.56    0.80
   5  -7   5   18.30    0.81
   5  -7   5   21.45    1.53
   5  -7   5   18.01    0.79
   5   6  -5    1.01    0.58
   5   6  -5    1.97    0.65
  -5  -6   5    0.85    0.64
  -5  -6   5    1.47    0.65
   4   6  -5    5.92    0.88
  -4  -6   5    4.60    0.90
  -4  -6   5    4.88    0.85
  -4  -6   5    7.18    1.10
   3   6  -5    2.79    0.59
  -3  -6   5    2.07    0.61
  -3  -6   5    2.52    0.58
  -3  -6   5    1.64    0.52
   2   6  -5    0.27    0.29
   2   6  -5   -0.10    0.30
  -2  -6   5    0.27    0.40
  -2  -6   5    0.44    0.38
  -2  -6   5    0.32    0.35
   1   6  -5   15.38    1.19
   1   6  -5   16.07    1.04
  -1  -6   5   15.96    1.15
  -1  -6   5   19.13    1.35
  -1  -6   5   19.82    1.37
  -1  -6   5   16.77    1.02
  -1  -6   5   19.19    1.19
  -1  -6   5   18.56    1.14
   0   6  -5    5.57    0.54
   0   6  -5    3.78    0.67
   0   6  -5    4.82    0.45
   0  -6   5    5.24    0.79
   0  -6   5    4.19    0.53
   0  -6   5    4.63    0.61
   0  -6   5    3.92    0.71
   0  -6   5    5.23    0.58
   0  -6   5    4.48    0.61
  -1   6  -5   83.71    3.03
  -1   6  -5   83.76    2.91
  -1   6  -5   80.91    3.39
   1  -6   5   79.07    3.15
   1  -6   5   81.49    3.08
   1  -6   5   82.05    3.13
   1  -6   5   82.92    3.52
   1  -6   5   83.62    3.20
   1  -6   5   83.47    2.82
   1  -6   5   81.51    3.47
  -2   6  -5    0.35    0.33
   2  -6   5    0.62    0.40
   2  -6   5    0.24    0.33
   2  -6   5    0.10    0.23
   2  -6   5    0.98    0.23
   2  -6   5    0.50    0.23
   2  -6   5    0.75    0.27
   2  -6   5    0.54    0.39
   3  -6   5   66.39    2.90
   3  -6   5   64.26    2.47
   3  -6   5   65.38    2.54
   3  -6   5   64.39    2.42
   3  -6   5   64.29    2.45
  -4   6  -5    9.99    1.13
   4  -6   5   11.80    0.60
   4  -6   5   10.93    0.84
   4  -6   5   11.42    0.66
   4  -6   5   10.62    1.02
   4  -6   5   10.77    0.84
   4  -6   5   10.95    0.67
  -5   6  -5   17.54    1.53
   5  -6   5   17.18    0.84
   5  -6   5   15.88    0.79
   5  -6   5   17.48    1.33
  -6   6  -5   23.13    1.87
   6  -6   5   21.66    1.59
   6  -6   5   21.75    0.98
   6  -6   5   23.04    1.02
   6   5  -5    0.63    0.57
  -6  -5   5    1.58    0.71
   5   5  -5    2.53    0.65
   5   5  -5    3.33    0.75
  -5  -5   5    3.25    0.80
  -5  -5   5    1.79    0.70
   4   5  -5    0.04    0.39
   4   5  -5    2.16    0.66
   4   5  -5    1.82    0.56
  -4  -5   5    0.34    0.48
  -4  -5   5   -0.21    0.34
  -4  -5   5    1.23    0.36
  -4  -5   5    0.68    0.51
   3   5  -5   56.64    2.43
   3   5  -5   56.86    2.58
   3   5  -5   55.62    2.10
   3   5  -5   57.34    2.61
   3   5  -5   59.06    2.77
  -3  -5   5   58.40    2.72
  -3  -5   5   60.51    3.29
  -3  -5   5   56.08    2.74
  -3  -5   5   61.09    2.66
   2   5  -5    5.71    0.32
   2   5  -5    5.33    0.70
   2   5  -5    4.96    0.54
   2   5  -5    4.72    0.68
   2   5  -5    4.93    0.33
   2   5  -5    6.06    0.83
  -2  -5   5    6.91    0.65
  -2  -5   5    5.00    0.69
  -2  -5   5    4.59    0.76
  -2  -5   5    6.12    0.57
  -2  -5   5    6.16    0.84
  -2  -5   5    5.21    0.74
   1   5  -5   83.01    3.17
   1   5  -5   86.07    3.55
   1   5  -5   84.68    3.29
  -1  -5   5   90.61    3.30
  -1  -5   5   90.67    3.63
  -1  -5   5   89.16    3.40
  -1  -5   5   87.53    3.37
  -1  -5   5   85.46    3.27
  -1  -5   5   80.43    3.53
  -1  -5   5   77.27    3.35
   0   5  -5   25.52    1.26
   0   5  -5   26.42    1.18
   0   5  -5   26.84    1.49
   0   5  -5   25.84    0.90
   0  -5   5   25.50    1.24
   0  -5   5   25.61    1.31
   0  -5   5   23.52    1.46
   0  -5   5   24.93    1.35
   0  -5   5   26.18    1.52
   0  -5   5   26.62    1.36
  -1   5  -5   13.47    0.67
  -1   5  -5   12.95    0.75
  -1   5  -5   12.30    0.58
  -1   5  -5   12.28    0.95
   1  -5   5   13.24    0.83
   1  -5   5   12.71    0.84
   1  -5   5   12.36    0.83
   1  -5   5   11.12    0.77
   1  -5   5   12.42    0.59
   1  -5   5   12.63    0.99
   1  -5   5   10.64    0.71
   1  -5   5   12.00    0.98
  -2   5  -5   72.58    3.01
  -2   5  -5   72.09    2.62
  -2   5  -5   74.09    2.49
  -2   5  -5   73.85    2.64
   2  -5   5   67.93    2.71
   2  -5   5   75.27    2.76
   2  -5   5   69.05    2.73
   2  -5   5   71.59    2.63
   2  -5   5   71.64    2.80
   2  -5   5   72.14    3.03
   2  -5   5   74.82    3.09
   2  -5   5   71.27    2.72
  -3   5  -5    5.21    0.51
  -3   5  -5    4.94    0.78
  -3   5  -5    4.74    0.34
  -3   5  -5    5.41    0.36
   3  -5   5    4.49    0.47
   3  -5   5    4.75    0.69
   3  -5   5    4.67    0.69
   3  -5   5    4.71    0.48
   3  -5   5    3.71    0.44
   3  -5   5    5.25    0.46
   3  -5   5    4.45    0.49
  -4   5  -5   32.87    1.56
  -4   5  -5   29.90    1.85
   4  -5   5   33.59    1.37
   4  -5   5   30.28    1.72
   4  -5   5   32.92    1.40
   4  -5   5   32.33    1.38
   4  -5   5   34.13    1.59
   4  -5   5   33.42    1.52
  -5   5  -5   11.85    1.23
   5  -5   5   13.26    0.70
   5  -5   5   12.66    0.73
   5  -5   5   15.21    1.16
   5  -5   5   13.81    0.75
   5  -5   5   14.90    0.93
   5  -5   5   13.75    1.03
  -6   5  -5   -0.43    0.48
   6  -5   5    0.48    0.44
   6  -5   5    0.86    0.26
   6  -5   5    0.38    0.22
   6   4  -5    2.65    0.75
   6   4  -5    2.06    0.69
  -6  -4   5    2.61    0.82
   5   4  -5   16.52    1.38
   5   4  -5   15.54    1.36
   5   4  -5   18.00    1.27
  -5  -4   5   19.87    1.54
  -5  -4   5   18.00    1.49
   4   4  -5   13.39    1.14
   4   4  -5   12.68    0.96
   4   4  -5   12.14    1.07
   4   4  -5   12.79    0.82
  -4  -4   5   12.65    1.09
  -4  -4   5   11.47    1.12
  -4  -4   5   12.46    1.15
  -4  -4   5   13.49    0.83
   3   4  -5    1.47    0.29
   3   4  -5    1.59    0.39
   3   4  -5    1.27    0.47
   3   4  -5    2.41    0.56
   3   4  -5    1.03    0.42
  -3  -4   5    1.50    0.54
  -3  -4   5    1.55    0.50
  -3  -4   5    1.32    0.50
  -3  -4   5    1.27    0.48
  -3  -4   5    1.03    0.38
   2   4  -5   26.95    1.12
   2   4  -5   26.29    1.33
   2   4  -5   27.16    1.57
   2   4  -5   27.82    1.46
   2   4  -5   25.53    1.45
  -2  -4   5   28.88    1.61
  -2  -4   5   26.10    1.37
  -2  -4   5   28.06    1.59
  -2  -4   5   26.21    1.46
  -2  -4   5   28.91    1.23
  -2  -4   5   23.96    1.47
   1   4  -5   33.60    1.57
   1   4  -5   36.01    1.75
   1   4  -5   30.29    1.51
   1   4  -5   31.07    1.21
   1   4  -5   30.80    1.42
  -1  -4   5   31.42    1.61
  -1  -4   5   33.03    1.60
  -1  -4   5   30.86    1.67
  -1  -4   5   30.91    1.55
  -1  -4   5   30.49    1.69
  -1  -4   5   34.13    1.51
  -1  -4   5   32.44    1.41
   0   4  -5   21.03    1.02
   0   4  -5   21.48    1.12
   0   4  -5   22.24    1.29
   0   4  -5   20.70    0.85
   0  -4   5   20.44    1.07
   0  -4   5   21.97    1.16
   0  -4   5   22.51    1.11
   0  -4   5   23.87    1.33
   0  -4   5   20.05    1.16
   0  -4   5   21.32    1.10
   0  -4   5   23.06    1.20
   0  -4   5   20.23    1.26
  -1   4  -5   79.70    2.99
  -1   4  -5   78.26    2.89
  -1   4  -5   82.08    2.83
  -1   4  -5   79.30    3.23
   1  -4   5   88.16    3.32
   1  -4   5   75.89    2.82
   1  -4   5   79.45    2.99
   1  -4   5   84.71    3.00
   1  -4   5   80.35    3.06
   1  -4   5   83.27    3.30
   1  -4   5   81.15    3.09
   1  -4   5   82.59    3.12
  -2   4  -5    6.14    0.64
  -2   4  -5    4.88    0.42
  -2   4  -5    5.64    0.45
  -2   4  -5    4.43    0.65
  -2   4  -5    5.68    0.37
   2  -4   5    5.03    0.52
   2  -4   5    5.10    0.49
   2  -4   5    5.03    0.47
   2  -4   5    4.26    0.61
   2  -4   5    5.70    0.44
   2  -4   5    5.95    0.62
   2  -4   5    3.97    0.47
   2  -4   5    4.74    0.42
  -3   4  -5   20.02    1.31
  -3   4  -5   21.46    1.17
  -3   4  -5   22.08    1.08
  -3   4  -5   22.34    0.81
   3  -4   5   20.59    1.05
   3  -4   5   20.42    1.25
   3  -4   5   20.48    1.24
   3  -4   5   23.56    1.06
   3  -4   5   22.66    1.08
   3  -4   5   19.88    1.02
   3  -4   5   19.35    1.02
  -4   4  -5   66.36    2.24
  -4   4  -5   63.25    2.91
  -4   4  -5   65.14    2.31
  -4   4  -5   65.00    2.59
   4  -4   5   65.37    2.44
   4  -4   5   71.25    2.86
   4  -4   5   60.69    2.39
   4  -4   5   61.63    2.43
   4  -4   5   63.42    2.41
   4  -4   5   65.68    2.61
   4  -4   5   63.30    2.75
   4  -4   5   63.22    2.42
  -5   4  -5    0.35    0.42
  -5   4  -5    0.26    0.33
   5  -4   5    0.51    0.22
   5  -4   5    0.20    0.30
   5  -4   5    0.51    0.22
   5  -4   5    0.89    0.27
   5  -4   5    0.69    0.25
   5  -4   5    0.02    0.34
  -6   4  -5   28.45    1.94
   6  -4   5   32.26    1.41
   6  -4   5   33.09    1.40
  -7   4  -5    3.44    0.89
   7  -4   5    5.96    0.81
   7  -4   5    5.00    0.51
   6   3  -5   10.42    1.12
   6   3  -5   10.62    1.31
   6   3  -5   12.33    1.26
  -6  -3   5    9.02    1.27
   5   3  -5    2.52    0.59
   5   3  -5    2.68    0.68
   5   3  -5    2.97    0.57
   5   3  -5    1.54    0.57
  -5  -3   5    1.95    0.47
  -5  -3   5    2.75    0.74
   4   3  -5    4.79    0.77
   4   3  -5    5.42    0.81
   4   3  -5    6.41    0.63
   4   3  -5    6.78    0.73
   4   3  -5    7.60    0.86
  -4  -3   5    6.12    0.62
  -4  -3   5    5.83    0.88
  -4  -3   5    4.98    0.84
  -4  -3   5    6.89    0.90
   3   3  -5   25.22    1.34
   3   3  -5   29.73    1.64
   3   3  -5   35.24    1.76
   3   3  -5   31.01    1.59
   3   3  -5   31.23    1.52
   3   3  -5   30.84    1.63
  -3  -3   5   29.92    1.62
  -3  -3   5   29.79    1.68
  -3  -3   5   31.11    1.72
  -3  -3   5   32.12    1.73
   2   3  -5    0.54    0.31
   2   3  -5    0.82    0.35
   2   3  -5    0.92    0.37
   2   3  -5    0.60    0.27
   2   3  -5    0.52    0.29
  -2  -3   5    0.72    0.33
  -2  -3   5    0.15    0.33
  -2  -3   5    0.72    0.37
  -2  -3   5    0.87    0.20
  -2  -3   5    1.15    0.33
  -2  -3   5    1.35    0.44
   1   3  -5   31.13    1.56
   1   3  -5   32.26    1.54
   1   3  -5   31.95    1.65
   1   3  -5   33.87    1.56
   1   3  -5   31.38    1.45
  -1  -3   5   33.20    1.59
  -1  -3   5   34.86    1.33
  -1  -3   5   34.43    1.66
  -1  -3   5   35.17    1.63
  -1  -3   5   32.35    1.49
  -1  -3   5   31.37    1.63
  -1  -3   5   31.85    1.66
   0   3  -5   32.73    1.42
   0   3  -5   33.65    1.46
   0   3  -5   34.81    1.56
   0   3  -5   31.63    1.29
   0   3  -5   32.04    1.50
   0   3  -5   33.18    1.64
   0  -3   5   28.90    1.52
   0  -3   5   36.28    1.68
   0  -3   5   33.08    1.56
   0  -3   5   34.00    1.47
   0  -3   5   33.33    1.54
   0  -3   5   33.13    1.40
   0  -3   5   33.19    1.63
   0  -3   5   34.73    1.49
  -1   3  -5    2.70    0.48
  -1   3  -5    3.93    0.37
  -1   3  -5    3.06    0.42
  -1   3  -5    3.20    0.30
  -1   3  -5    2.53    0.41
   1  -3   5    3.37    0.46
   1  -3   5    2.75    0.47
   1  -3   5    2.97    0.33
   1  -3   5    2.60    0.38
   1  -3   5    2.78    0.30
   1  -3   5    3.18    0.44
   1  -3   5    3.58    0.50
   1  -3   5    2.21    0.40
   1  -3   5    2.47    0.46
  -2   3  -5   37.83    1.56
  -2   3  -5   39.00    1.48
  -2   3  -5   36.05    1.72
  -2   3  -5   36.89    1.51
  -2   3  -5   35.94    1.72
   2  -3   5   38.39    1.45
   2  -3   5   36.22    1.71
   2  -3   5   36.67    1.65
   2  -3   5   37.35    1.62
   2  -3   5   37.23    1.52
   2  -3   5   39.38    1.59
   2  -3   5   37.01    1.74
   2  -3   5   36.95    1.59
  -3   3  -5   30.99    1.39
  -3   3  -5   31.94    1.63
  -3   3  -5   32.05    1.22
  -3   3  -5   33.05    1.34
   3  -3   5   29.49    1.37
   3  -3   5   31.31    1.54
   3  -3   5   31.85    1.37
   3  -3   5   31.49    1.35
   3  -3   5   32.68    1.57
   3  -3   5   30.93    1.39
   3  -3   5   30.37    1.39
   3  -3   5   31.07    1.21
  -4   3  -5    0.01    0.22
  -4   3  -5    0.17    0.34
  -4   3  -5    0.12    0.11
  -4   3  -5    0.19    0.15
   4  -3   5    0.07    0.13
   4  -3   5    0.04    0.17
   4  -3   5    0.27    0.18
   4  -3   5   -0.20    0.24
   4  -3   5   -0.10    0.24
   4  -3   5   -0.12    0.20
   4  -3   5   -0.19    0.15
   4  -3   5    0.07    0.18
  -5   3  -5    7.71    0.88
  -5   3  -5    7.19    0.73
   5  -3   5    8.41    0.74
   5  -3   5    8.03    0.59
   5  -3   5    8.50    0.63
   5  -3   5    8.23    0.52
  -6   3  -5    9.84    1.06
   6  -3   5    8.63    0.67
   6  -3   5    9.44    0.64
  -7   3  -5    0.97    0.58
   7  -3   5    0.72    0.31
   7  -3   5    1.02    0.31
   6   2  -5    0.45    0.55
   6   2  -5    1.65    0.59
   6   2  -5    1.94    0.71
  -6  -2   5    0.82    0.46
   5   2  -5    6.78    1.00
   5   2  -5    5.37    0.88
   5   2  -5    5.17    0.76
  -5  -2   5    5.12    0.72
  -5  -2   5    5.94    0.96
   4   2  -5   10.18    0.96
   4   2  -5    7.43    0.77
   4   2  -5    9.47    0.80
   4   2  -5   10.21    0.95
   4   2  -5    9.40    0.91
  -4  -2   5    8.89    0.93
  -4  -2   5   10.29    0.78
  -4  -2   5    8.76    0.95
   3   2  -5    1.63    0.45
   3   2  -5    1.36    0.43
   3   2  -5    1.25    0.40
   3   2  -5    1.33    0.40
   3   2  -5    0.79    0.33
  -3  -2   5    0.45    0.34
  -3  -2   5    0.42    0.33
  -3  -2   5    1.81    0.51
   2   2  -5    5.55    0.55
   2   2  -5    5.40    0.60
   2   2  -5    4.42    0.60
   2   2  -5    5.87    0.64
   2   2  -5    6.07    0.65
  -2  -2   5    4.99    0.68
  -2  -2   5    4.47    0.56
  -2  -2   5    4.17    0.59
  -2  -2   5    4.23    0.61
  -2  -2   5    5.86    0.74
   1   2  -5   60.73    2.48
   1   2  -5   54.84    2.35
   1   2  -5   57.05    2.42
   1   2  -5   57.17    2.32
   1   2  -5   57.82    2.39
  -1  -2   5   58.32    2.42
  -1  -2   5   57.45    2.45
  -1  -2   5   56.83    2.01
  -1  -2   5   61.23    2.68
  -1  -2   5   63.30    2.43
  -1  -2   5   58.57    2.46
  -1  -2   5   58.83    2.43
  -1  -2   5   58.42    2.34
   0   2  -5    7.93    0.52
   0   2  -5    8.18    0.63
   0   2  -5    7.94    0.68
   0   2  -5    8.97    0.69
   0   2  -5    7.28    0.55
   0   2  -5    6.91    0.61
   0   2  -5    7.09    0.55
   0  -2   5    8.12    0.48
   0  -2   5    7.74    0.68
   0  -2   5    8.01    0.67
   0  -2   5    7.49    0.58
   0  -2   5    9.00    0.61
   0  -2   5    7.23    0.66
   0  -2   5    8.69    0.66
   0  -2   5    7.83    0.67
  -1   2  -5   33.80    1.36
  -1   2  -5   30.91    1.51
  -1   2  -5   33.89    1.57
  -1   2  -5   32.40    1.48
  -1   2  -5   34.21    1.35
  -1   2  -5   29.33    1.37
  -1   2  -5   35.84    1.55
  -1   2  -5   31.74    1.44
  -1   2  -5   34.04    1.44
   1  -2   5   34.59    1.42
   1  -2   5   34.75    1.36
   1  -2   5   33.14    1.49
   1  -2   5   35.49    1.56
   1  -2   5   34.98    1.58
   1  -2   5   33.51    1.47
   1  -2   5   32.18    1.54
   1  -2   5   33.11    1.53
  -2   2  -5   40.34    1.66
  -2   2  -5   35.69    1.69
  -2   2  -5   40.41    1.61
  -2   2  -5   41.09    1.68
  -2   2  -5   45.64    1.74
  -2   2  -5   41.47    1.78
  -2   2  -5   42.94    1.61
   2  -2   5   38.27    1.71
   2  -2   5   40.29    1.77
   2  -2   5   38.51    1.70
   2  -2   5   39.40    1.61
   2  -2   5   38.64    1.73
   2  -2   5   39.67    1.67
   2  -2   5   42.22    1.49
   2  -2   5   37.52    1.64
  -3   2  -5   14.85    0.76
  -3   2  -5   14.72    0.80
  -3   2  -5   12.76    0.90
  -3   2  -5   12.65    0.68
  -3   2  -5   12.57    0.76
   3  -2   5   13.98    0.88
   3  -2   5   13.03    0.52
   3  -2   5   12.58    0.72
   3  -2   5   12.81    0.75
   3  -2   5   12.36    0.76
   3  -2   5   13.37    0.79
   3  -2   5   13.87    0.78
   3  -2   5   13.96    0.86
  -4   2  -5   27.11    1.34
  -4   2  -5   28.20    1.15
  -4   2  -5   28.44    1.27
  -4   2  -5   26.43    1.51
   4  -2   5   27.95    1.27
   4  -2   5   27.10    1.35
   4  -2   5   30.69    1.33
   4  -2   5   27.61    1.26
   4  -2   5   28.35    0.97
   4  -2   5   28.17    1.45
   4  -2   5   27.77    0.97
  -5   2  -5   50.85    2.52
  -5   2  -5   56.05    2.16
  -5   2  -5   57.06    2.03
  -5   2  -5   56.45    2.35
   5  -2   5   58.69    2.19
   5  -2   5   55.22    2.43
   5  -2   5   55.65    2.23
   5  -2   5   56.81    2.38
   5  -2   5   53.86    1.91
   5  -2   5   51.89    2.11
   5  -2   5   53.48    2.16
  -6   2  -5    2.01    0.48
  -6   2  -5    2.26    0.64
   6  -2   5    2.83    0.40
   6  -2   5    2.01    0.36
   6  -2   5    2.92    0.44
   6  -2   5    2.81    0.42
  -7   2  -5   31.20    2.01
   7  -2   5   32.17    1.46
   7  -2   5   29.80    1.47
  -8   2  -5    2.92    0.79
   8  -2   5    2.23    0.49
   8  -2   5    2.33    0.47
   6   1  -5    4.56    0.78
   6   1  -5    3.65    0.81
   6   1  -5    4.62    0.92
  -6  -1   5    4.97    0.83
   5   1  -5    9.60    1.02
   5   1  -5   10.95    0.98
   5   1  -5   10.75    1.10
  -5  -1   5    9.74    0.94
  -5  -1   5   11.79    1.12
   4   1  -5   -0.07    0.29
   4   1  -5   -0.09    0.23
   4   1  -5    0.16    0.31
   4   1  -5   -0.18    0.27
   4   1  -5    0.18    0.33
  -4  -1   5   -0.30    0.35
  -4  -1   5    0.03    0.33
   3   1  -5   22.97    1.37
   3   1  -5   27.12    1.45
   3   1  -5   24.63    1.47
   3   1  -5   26.20    1.36
   3   1  -5   26.50    1.47
  -3  -1   5   24.27    1.40
  -3  -1   5   27.19    1.55
  -3  -1   5   27.60    1.46
   2   1  -5    7.87    0.74
   2   1  -5    8.61    0.73
   2   1  -5    9.40    0.75
   2   1  -5    9.87    0.75
   2   1  -5   10.25    0.73
  -2  -1   5    8.74    0.74
  -2  -1   5    8.42    0.82
  -2  -1   5   10.13    0.72
  -2  -1   5    8.35    0.72
  -2  -1   5    9.78    0.77
   1   1  -5    1.55    0.36
   1   1  -5    1.35    0.37
   1   1  -5    1.36    0.35
   1   1  -5    0.88    0.32
   1   1  -5    1.13    0.32
   1   1  -5    1.11    0.31
   1   1  -5    1.32    0.29
  -1  -1   5    0.61    0.27
  -1  -1   5    0.84    0.29
  -1  -1   5    1.26    0.32
  -1  -1   5    1.26    0.34
  -1  -1   5    1.32    0.37
  -1  -1   5    0.71    0.32
   0   1  -5    1.64    0.35
   0   1  -5    1.43    0.33
   0   1  -5    1.16    0.18
   0   1  -5    1.23    0.28
   0   1  -5    0.92    0.25
   0   1  -5    1.19    0.33
   0   1  -5    1.45    0.30
   0   1  -5    1.44    0.33
   0   1  -5    1.51    0.34
   0  -1   5    0.95    0.30
   0  -1   5    1.15    0.33
   0  -1   5    1.58    0.31
   0  -1   5    1.03    0.32
   0  -1   5    1.28    0.32
   0  -1   5    0.93    0.31
   0  -1   5    1.21    0.28
  -1   1  -5  112.04    4.04
  -1   1  -5  113.62    3.96
  -1   1  -5  113.43    4.07
  -1   1  -5  106.94    3.87
  -1   1  -5  108.13    4.03
  -1   1  -5  113.41    4.00
  -1   1  -5  113.81    3.85
  -1   1  -5  111.09    4.02
  -1   1  -5  109.74    3.92
   1  -1   5  108.70    3.85
   1  -1   5  111.82    4.02
   1  -1   5  114.73    4.09
   1  -1   5  114.47    4.00
   1  -1   5  111.22    4.04
   1  -1   5  111.28    4.03
   1  -1   5  111.64    4.08
  -2   1  -5    5.63    0.45
  -2   1  -5    6.28    0.54
  -2   1  -5    6.69    0.51
  -2   1  -5    6.18    0.34
  -2   1  -5    6.21    0.53
  -2   1  -5    6.48    0.52
  -2   1  -5    6.10    0.47
   2  -1   5    7.37    0.60
   2  -1   5    6.30    0.35
   2  -1   5    6.82    0.55
   2  -1   5    6.05    0.52
   2  -1   5    6.03    0.50
   2  -1   5    5.84    0.48
   2  -1   5    5.76    0.53
   2  -1   5    6.41    0.50
  -3   1  -5   84.95    3.01
  -3   1  -5   80.00    3.06
  -3   1  -5   81.69    3.18
  -3   1  -5   82.18    3.01
  -3   1  -5   85.12    3.08
   3  -1   5   82.92    3.12
   3  -1   5   82.26    3.07
   3  -1   5   84.03    3.11
   3  -1   5   81.06    3.04
   3  -1   5   82.75    3.00
   3  -1   5   79.52    3.05
   3  -1   5   86.63    3.11
  -4   1  -5   28.68    1.27
  -4   1  -5   31.23    1.43
  -4   1  -5   30.93    1.37
  -4   1  -5   32.60    1.60
   4  -1   5   30.06    1.35
   4  -1   5   28.96    1.33
   4  -1   5   30.96    1.40
   4  -1   5   27.91    1.28
   4  -1   5   28.82    1.44
   4  -1   5   31.25    1.44
  -5   1  -5    6.00    0.76
  -5   1  -5    7.84    0.70
  -5   1  -5    7.51    0.53
  -5   1  -5    7.73    0.61
   5  -1   5    7.25    0.59
   5  -1   5    7.55    0.71
   5  -1   5    7.63    0.65
   5  -1   5    7.19    0.68
   5  -1   5    7.16    0.59
   5  -1   5    7.09    0.56
  -6   1  -5   38.20    2.06
  -6   1  -5   37.10    1.78
  -6   1  -5   41.01    1.90
   6  -1   5   38.17    1.39
   6  -1   5   35.55    1.66
   6  -1   5   36.35    1.62
   6  -1   5   36.79    1.69
  -7   1  -5    4.16    0.82
   7  -1   5    3.85    0.54
   7  -1   5    4.14    0.53
  -8   1  -5    9.14    1.29
   8  -1   5    8.95    0.84
   8  -1   5   10.67    0.85
   6   0  -5    6.24    0.90
   6   0  -5    4.85    0.86
   6   0  -5    4.21    0.91
  -6   0   5    4.67    0.83
   5   0  -5   -0.57    0.29
   5   0  -5    0.10    0.41
   5   0  -5    0.30    0.35
  -5   0   5    0.10    0.39
   4   0  -5    2.81    0.54
   4   0  -5    3.61    0.67
   4   0  -5    3.58    0.65
   4   0  -5    5.07    0.72
  -4   0   5    3.41    0.70
  -4   0   5    4.77    0.68
   3   0  -5   30.38    1.53
   3   0  -5   30.78    1.69
   3   0  -5   31.31    1.59
   3   0  -5   30.67    1.63
   3   0  -5   32.42    1.59
  -3   0   5   28.75    1.54
  -3   0   5   34.23    1.63
  -3   0   5   30.41    1.69
   2   0  -5    7.90    0.69
   2   0  -5    7.49    0.66
   2   0  -5    8.25    0.73
   2   0  -5    8.03    0.73
   2   0  -5    7.09    0.64
   2   0  -5    7.94    0.66
  -2   0   5    7.05    0.63
  -2   0   5    8.95    0.73
  -2   0   5    8.60    0.77
   1   0  -5   84.57    3.28
   1   0  -5   83.78    3.26
   1   0  -5   84.99    3.23
   1   0  -5   85.90    3.22
   1   0  -5   80.88    3.15
   1   0  -5   82.46    3.17
   1   0  -5   89.01    3.18
  -1   0   5   81.45    3.21
  -1   0   5   84.24    3.16
  -1   0   5   81.58    3.13
  -1   0   5   84.93    3.30
  -1   0   5   85.02    3.40
  -1   0   5   81.85    3.15
   0   0  -5   62.87    2.36
   0   0  -5   58.31    2.23
   0   0  -5   57.02    1.93
   0   0  -5   53.08    2.20
   0   0  -5   56.29    2.24
   0   0  -5   54.51    2.31
   0   0  -5   58.33    2.29
   0   0  -5   55.01    2.20
   0   0   5   54.69    2.28
   0   0   5   57.70    2.25
   0   0   5   57.36    2.21
   0   0   5   52.87    2.18
   0   0   5   55.73    2.35
   0   0   5   58.43    2.34
   0   0   5   57.53    2.23
  -1   0  -5   20.68    0.94
  -1   0  -5   21.25    1.05
  -1   0  -5   23.23    1.15
  -1   0  -5   21.61    1.06
  -1   0  -5   20.48    1.05
  -1   0  -5   21.27    1.06
  -1   0  -5   24.38    1.15
  -1   0  -5   22.07    1.03
  -1   0  -5   22.74    0.98
   1   0   5   21.77    1.05
   1   0   5   20.98    1.08
   1   0   5   22.41    1.07
   1   0   5   23.46    1.16
   1   0   5   21.19    1.13
   1   0   5   21.12    0.97
   1   0   5   21.45    1.06
  -2   0  -5   84.52    3.21
  -2   0  -5   84.91    3.15
  -2   0  -5   86.49    3.14
  -2   0  -5   85.46    3.14
  -2   0  -5   87.30    2.93
  -2   0  -5   86.82    3.13
  -2   0  -5   92.12    3.20
   2   0   5   83.80    3.13
   2   0   5   87.59    3.15
   2   0   5   82.02    3.18
   2   0   5   94.32    3.28
   2   0   5   84.92    3.13
   2   0   5   82.95    3.16
   2   0   5   86.02    3.17
  -3   0  -5    9.95    0.68
  -3   0  -5    9.97    0.70
  -3   0  -5    9.27    0.59
  -3   0  -5   11.39    0.69
   3   0   5   11.32    0.73
   3   0   5   10.28    0.64
   3   0   5   12.43    0.71
   3   0   5   11.24    0.70
   3   0   5   10.84    0.70
  -4   0  -5   35.44    1.78
  -4   0  -5   37.90    1.68
  -4   0  -5   38.54    1.60
  -4   0  -5   39.04    1.71
   4   0   5   39.49    1.66
   4   0   5   39.49    1.61
   4   0   5   38.63    1.70
   4   0   5   39.00    1.71
   4   0   5   36.47    1.62
   4   0   5   42.86    1.74
  -5   0  -5   28.33    1.40
  -5   0  -5   29.71    1.50
  -5   0  -5   30.33    1.34
  -5   0  -5   31.73    1.66
   5   0   5   28.77    1.38
   5   0   5   28.76    1.34
   5   0   5   31.15    1.42
   5   0   5   30.09    1.49
   5   0   5   30.68    1.48
   5   0   5   30.95    1.51
  -6   0  -5    0.20    0.37
  -6   0  -5   -0.10    0.21
  -6   0  -5    0.06    0.28
   6   0   5   -0.22    0.20
   6   0   5    0.20    0.29
   6   0   5    0.49    0.30
   6   0   5    0.08    0.25
   6   0   5   -0.04    0.29
  -7   0  -5    5.77    0.91
   7   0   5    6.29    0.65
   7   0   5    6.87    0.68
  -8   0  -5    2.01    0.74
   8   0   5    5.25    0.67
   8   0   5    4.05    0.66
   5  -1  -5    9.58    1.12
   5  -1  -5   13.21    1.07
   5  -1  -5    8.83    1.11
  -5   1   5   13.13    1.12
   4  -1  -5   11.20    0.92
   4  -1  -5   12.21    0.96
   4  -1  -5   11.80    1.09
   4  -1  -5   12.07    1.03
  -4   1   5   12.06    1.02
  -4   1   5   13.91    1.11
   3  -1  -5    6.46    0.93
   3  -1  -5    4.60    0.64
   3  -1  -5    4.89    0.64
   3  -1  -5    5.01    0.65
   3  -1  -5    5.41    0.76
   3  -1  -5    5.42    0.74
  -3   1   5    5.19    0.65
  -3   1   5    5.89    0.79
  -3   1   5    5.41    0.72
   2  -1  -5   20.52    1.16
   2  -1  -5   19.18    1.06
   2  -1  -5   17.87    1.18
   2  -1  -5   22.32    1.09
   2  -1  -5   19.44    1.11
   2  -1  -5   18.61    1.18
   2  -1  -5   21.84    1.22
  -2   1   5   19.85    1.08
  -2   1   5   22.18    1.25
  -2   1   5   19.58    1.14
   1  -1  -5    7.79    0.67
   1  -1  -5    7.28    0.61
   1  -1  -5    7.36    0.66
   1  -1  -5    6.84    0.54
   1  -1  -5    6.37    0.64
   1  -1  -5    7.25    0.57
   1  -1  -5    7.35    0.60
  -1   1   5    6.83    0.60
  -1   1   5    6.79    0.53
  -1   1   5    7.32    0.69
  -1   1   5    7.98    0.65
   0  -1  -5    7.29    0.57
   0  -1  -5    6.16    0.58
   0  -1  -5    8.39    0.65
   0  -1  -5    6.52    0.48
   0  -1  -5    7.14    0.58
   0  -1  -5    5.92    0.54
   0  -1  -5    6.43    0.49
   0   1   5    6.94    0.60
   0   1   5    6.60    0.55
   0   1   5    6.25    0.48
   0   1   5    7.28    0.56
   0   1   5    6.23    0.59
   0   1   5    6.06    0.61
   0   1   5    6.80    0.50
  -1  -1  -5   49.63    1.82
  -1  -1  -5   49.05    1.96
  -1  -1  -5   46.85    1.97
  -1  -1  -5   47.83    1.91
  -1  -1  -5   48.08    1.92
  -1  -1  -5   44.96    1.83
  -1  -1  -5   47.35    1.99
  -1  -1  -5   44.36    1.80
   1   1   5   50.54    2.01
   1   1   5   47.33    1.82
   1   1   5   47.09    1.93
   1   1   5   46.58    1.98
   1   1   5   46.43    1.83
   1   1   5   46.22    1.83
   1   1   5   48.17    1.92
  -2  -1  -5    4.44    0.34
  -2  -1  -5    4.97    0.43
  -2  -1  -5    5.05    0.51
  -2  -1  -5    4.71    0.45
  -2  -1  -5    5.14    0.46
  -2  -1  -5    4.42    0.46
   2   1   5    5.05    0.47
   2   1   5    3.96    0.42
   2   1   5    4.06    0.47
   2   1   5    4.10    0.37
   2   1   5    4.50    0.46
   2   1   5    3.99    0.38
   2   1   5    4.09    0.48
  -3  -1  -5   14.37    0.57
  -3  -1  -5   13.04    0.83
  -3  -1  -5   14.54    0.84
  -3  -1  -5   12.62    0.77
  -3  -1  -5   15.33    0.77
  -3  -1  -5   13.91    0.83
   3   1   5   14.68    0.80
   3   1   5   14.49    0.84
   3   1   5   13.05    0.81
   3   1   5   14.36    0.83
   3   1   5   13.47    0.76
   3   1   5   14.57    0.88
  -4  -1  -5   31.67    1.07
  -4  -1  -5   32.05    1.08
  -4  -1  -5   31.04    1.48
  -4  -1  -5   31.78    1.48
  -4  -1  -5   30.85    1.41
   4   1   5   31.76    1.40
   4   1   5   34.05    1.55
   4   1   5   33.90    1.49
   4   1   5   31.87    1.49
   4   1   5   30.77    1.43
   4   1   5   31.92    1.46
  -5  -1  -5    4.78    0.56
  -5  -1  -5    4.18    0.47
  -5  -1  -5    3.98    0.55
  -5  -1  -5    4.05    0.25
   5   1   5    4.29    0.46
   5   1   5    2.83    0.45
   5   1   5    4.62    0.55
   5   1   5    4.31    0.59
   5   1   5    4.94    0.52
  -6  -1  -5    3.32    0.55
  -6  -1  -5    4.42    0.64
   6   1   5    3.03    0.50
   6   1   5    4.54    0.68
   6   1   5    4.41    0.60
   6   1   5    4.07    0.52
   6   1   5    3.57    0.59
  -7  -1  -5   13.98    1.01
  -7  -1  -5   12.35    1.17
   7   1   5   11.90    0.96
   7   1   5   12.77    0.89
  -8  -1  -5    3.03    0.83
   8   1   5    1.97    0.54
   8   1   5    1.93    0.50
   5  -2  -5    3.33    0.69
   5  -2  -5    5.54    0.94
   5  -2  -5    3.62    0.67
  -5   2   5    2.51    0.68
   4  -2  -5    0.79    0.46
   4  -2  -5    0.43    0.33
   4  -2  -5    0.23    0.35
   4  -2  -5    0.76    0.35
  -4   2   5    0.60    0.44
   3  -2  -5   23.72    1.40
   3  -2  -5   25.33    1.43
   3  -2  -5   25.57    1.33
   3  -2  -5   25.16    1.55
   3  -2  -5   23.13    1.42
   3  -2  -5   27.23    1.41
  -3   2   5   27.20    1.49
  -3   2   5   24.79    1.44
   2  -2  -5    6.49    0.61
   2  -2  -5    6.69    0.41
   2  -2  -5    6.44    0.55
   2  -2  -5    5.11    0.68
   2  -2  -5    5.79    0.54
   2  -2  -5    5.96    0.70
   2  -2  -5    7.08    0.64
   2  -2  -5    5.70    0.65
  -2   2   5    5.84    0.61
  -2   2   5    6.20    0.63
  -2   2   5    6.51    0.70
   1  -2  -5   19.48    1.15
   1  -2  -5   21.04    1.00
   1  -2  -5   21.46    0.90
   1  -2  -5   22.36    1.15
   1  -2  -5   18.43    1.15
   1  -2  -5   21.73    1.12
   1  -2  -5   20.80    1.16
   1  -2  -5   21.28    0.99
  -1   2   5   21.25    0.98
  -1   2   5   19.52    1.18
   0  -2  -5   44.34    2.00
   0  -2  -5   49.87    2.01
   0  -2  -5   45.22    1.92
   0  -2  -5   47.74    1.78
   0  -2  -5   42.85    1.93
   0  -2  -5   48.31    1.79
   0  -2  -5   45.55    1.94
   0   2   5   46.36    2.03
   0   2   5   46.52    1.75
   0   2   5   47.21    1.75
   0   2   5   46.54    1.96
   0   2   5   49.49    1.94
  -1  -2  -5    1.23    0.33
  -1  -2  -5    0.88    0.26
  -1  -2  -5    1.40    0.30
  -1  -2  -5    1.19    0.26
  -1  -2  -5    1.28    0.31
  -1  -2  -5    1.05    0.19
   1   2   5    0.73    0.28
   1   2   5    1.19    0.30
   1   2   5    1.15    0.21
   1   2   5    0.84    0.28
   1   2   5    0.82    0.25
   1   2   5    1.10    0.21
  -2  -2  -5   28.26    1.20
  -2  -2  -5   31.05    1.40
  -2  -2  -5   28.64    1.32
  -2  -2  -5   26.72    1.28
  -2  -2  -5   27.62    1.37
  -2  -2  -5   31.96    1.37
   2   2   5   29.32    1.30
   2   2   5   27.81    1.16
   2   2   5   29.31    1.35
   2   2   5   30.36    1.35
   2   2   5   28.26    1.17
   2   2   5   28.24    1.38
  -3  -2  -5   36.27    1.48
  -3  -2  -5   32.38    1.54
  -3  -2  -5   34.48    1.50
  -3  -2  -5   31.40    1.53
   3   2   5   34.39    1.41
   3   2   5   36.48    1.61
   3   2   5   34.76    1.56
   3   2   5   35.38    1.48
   3   2   5   33.18    1.51
   3   2   5   33.19    1.51
  -4  -2  -5    4.25    0.47
  -4  -2  -5    4.55    0.33
  -4  -2  -5    4.69    0.51
  -4  -2  -5    3.91    0.46
  -4  -2  -5    5.17    0.56
   4   2   5    4.63    0.47
   4   2   5    4.88    0.52
   4   2   5    4.45    0.49
   4   2   5    4.49    0.61
   4   2   5    4.61    0.51
  -5  -2  -5   18.85    1.03
  -5  -2  -5   18.04    0.81
  -5  -2  -5   17.61    1.08
  -5  -2  -5   16.77    1.07
   5   2   5   20.45    1.11
   5   2   5   22.13    1.22
   5   2   5   16.11    1.02
   5   2   5   19.41    1.02
   5   2   5   18.01    1.10
  -6  -2  -5   23.01    1.05
  -6  -2  -5   19.72    1.27
  -6  -2  -5   19.28    1.23
   6   2   5   21.83    1.25
   6   2   5   23.72    1.22
   6   2   5   22.98    1.33
   6   2   5   22.62    1.30
  -7  -2  -5    1.32    0.48
   7   2   5    0.98    0.41
   7   2   5    1.89    0.44
   8   2   5    8.88    0.84
   8   2   5    7.59    0.88
  -9  -2  -5   -0.14    0.58
   9   2   5    0.12    0.39
   5  -3  -5    1.92    0.57
   5  -3  -5    2.04    0.73
   5  -3  -5    3.08    0.65
  -5   3   5    1.11    0.61
   4  -3  -5    6.46    0.74
   4  -3  -5    7.40    1.06
   4  -3  -5    7.18    0.79
   4  -3  -5    7.75    0.85
  -4   3   5    6.53    0.92
   3  -3  -5    1.96    0.51
   3  -3  -5    1.31    0.36
   3  -3  -5    0.78    0.37
   3  -3  -5    1.52    0.52
  -3   3   5    1.47    0.46
  -3   3   5    1.64    0.52
   2  -3  -5   11.57    0.92
   2  -3  -5   13.08    0.72
   2  -3  -5   10.80    0.96
   2  -3  -5   13.54    0.92
   2  -3  -5   12.65    0.75
   2  -3  -5   11.69    0.71
   2  -3  -5   10.94    0.83
   2  -3  -5   11.09    0.81
  -2   3   5   10.85    0.87
  -2   3   5   10.57    0.79
  -2   3   5   10.70    0.90
   1  -3  -5   20.83    1.18
   1  -3  -5   20.13    1.22
   1  -3  -5   19.60    0.94
   1  -3  -5   23.01    1.06
   1  -3  -5   20.96    1.12
   1  -3  -5   20.76    1.21
   1  -3  -5   20.52    0.94
   1  -3  -5   20.18    1.12
  -1   3   5   19.98    1.19
  -1   3   5   22.80    1.16
   0  -3  -5    4.69    0.59
   0  -3  -5    5.69    0.35
   0  -3  -5    5.13    0.50
   0  -3  -5    5.61    0.53
   0  -3  -5    5.08    0.34
   0  -3  -5    5.26    0.52
   0  -3  -5    6.47    0.60
   0   3   5    6.02    0.59
  -1  -3  -5   18.70    1.12
  -1  -3  -5   16.62    0.96
  -1  -3  -5   20.15    1.00
  -1  -3  -5   18.03    1.04
  -1  -3  -5   16.30    0.94
  -1  -3  -5   19.78    1.03
   1   3   5   18.45    0.98
   1   3   5   18.71    0.72
   1   3   5   17.75    1.03
   1   3   5   17.51    0.72
   1   3   5   20.06    1.00
  -2  -3  -5   72.14    2.84
  -2  -3  -5   73.34    2.67
  -2  -3  -5   68.98    2.72
  -2  -3  -5   71.81    2.70
  -2  -3  -5   74.64    2.76
  -2  -3  -5   67.33    2.78
   2   3   5   72.13    2.74
   2   3   5   69.55    2.48
   2   3   5   71.09    2.47
   2   3   5   72.58    2.70
  -3  -3  -5    0.46    0.25
  -3  -3  -5    0.70    0.24
  -3  -3  -5    0.96    0.30
  -3  -3  -5    0.74    0.30
   3   3   5    0.50    0.25
   3   3   5    0.81    0.29
   3   3   5    0.80    0.28
   3   3   5    0.61    0.25
   3   3   5    1.07    0.22
  -4  -3  -5   39.20    1.76
  -4  -3  -5   41.10    1.86
  -4  -3  -5   42.85    1.85
  -4  -3  -5   40.40    1.71
   4   3   5   39.89    1.80
   4   3   5   38.28    1.78
   4   3   5   40.13    1.74
   4   3   5   39.90    1.78
  -5  -3  -5    1.93    0.45
  -5  -3  -5    1.90    0.39
  -5  -3  -5    1.24    0.27
  -5  -3  -5    2.23    0.44
   5   3   5    2.06    0.44
   5   3   5    1.91    0.42
   5   3   5    1.70    0.36
   5   3   5    1.57    0.38
  -6  -3  -5    1.71    0.45
  -6  -3  -5    1.94    0.43
  -6  -3  -5    1.61    0.33
  -6  -3  -5    2.00    0.49
   6   3   5    2.55    0.52
   6   3   5    1.66    0.50
   6   3   5    2.54    0.48
   6   3   5    2.08    0.50
  -7  -3  -5    2.44    0.56
   7   3   5    2.07    0.46
   7   3   5    1.74    0.54
   8   3   5    0.46    0.41
   8   3   5    0.93    0.48
   9   3   5    0.50    0.43
   4  -4  -5    0.88    0.47
   4  -4  -5   -0.08    0.38
   4  -4  -5    0.25    0.38
  -4   4   5    0.33    0.51
   3  -4  -5    3.71    0.59
   3  -4  -5    4.00    0.78
   3  -4  -5    2.38    0.44
   3  -4  -5    3.73    0.64
  -3   4   5    3.41    0.69
   2  -4  -5   18.27    1.10
   2  -4  -5   19.88    1.14
   2  -4  -5   20.33    1.24
   2  -4  -5   18.76    0.96
   2  -4  -5   20.71    1.30
   2  -4  -5   20.08    1.31
   2  -4  -5   19.08    1.08
  -2   4   5   17.78    1.22
  -2   4   5   20.62    1.19
   1  -4  -5    0.68    0.28
   1  -4  -5    0.93    0.19
   1  -4  -5    0.74    0.30
   1  -4  -5    1.41    0.36
   1  -4  -5    0.90    0.19
   1  -4  -5    0.59    0.34
   1  -4  -5    0.92    0.33
   1  -4  -5    0.98    0.36
  -1   4   5    0.69    0.34
  -1   4   5    1.20    0.32
  -1   4   5    1.48    0.44
   0  -4  -5   21.11    1.21
   0  -4  -5   21.16    1.24
   0  -4  -5   22.13    1.18
   0  -4  -5   24.05    1.19
   0   4   5   22.27    1.23
   0   4   5   25.34    1.21
  -1  -4  -5   11.71    0.72
  -1  -4  -5   11.61    0.74
  -1  -4  -5    9.37    0.74
  -1  -4  -5   10.43    0.77
  -1  -4  -5    9.69    0.71
   1   4   5   11.05    0.78
   1   4   5    6.90    0.61
  -2  -4  -5    0.52    0.28
  -2  -4  -5    0.29    0.23
  -2  -4  -5   -0.09    0.20
  -2  -4  -5    0.09    0.22
  -2  -4  -5    0.23    0.20
   2   4   5    0.12    0.09
   2   4   5    0.27    0.09
   2   4   5    0.19    0.19
  -3  -4  -5    8.30    0.66
  -3  -4  -5    6.43    0.66
  -3  -4  -5    8.66    0.63
  -3  -4  -5    8.59    0.71
   3   4   5    8.22    0.47
   3   4   5    7.62    0.61
   3   4   5    7.63    0.65
   3   4   5    8.95    0.69
  -4  -4  -5   14.38    0.92
  -4  -4  -5   14.35    0.98
  -4  -4  -5   14.26    0.86
  -4  -4  -5   13.76    0.92
   4   4   5   13.98    0.87
   4   4   5   13.11    0.91
   4   4   5   13.26    0.91
   4   4   5   14.80    0.98
  -5  -4  -5    0.20    0.22
  -5  -4  -5    0.50    0.30
  -5  -4  -5   -0.19    0.24
  -5  -4  -5    0.14    0.29
   5   4   5    0.23    0.26
   5   4   5   -0.31    0.24
   5   4   5    0.29    0.30
   5   4   5   -0.03    0.24
  -6  -4  -5   12.86    1.05
  -6  -4  -5   10.52    0.90
  -6  -4  -5   11.85    0.92
  -6  -4  -5   10.51    0.96
   6   4   5   11.43    0.92
   6   4   5   10.62    0.85
   6   4   5   12.49    1.03
   6   4   5    9.41    0.89
  -7  -4  -5    4.93    0.82
   7   4   5    6.23    0.83
   7   4   5    4.54    0.67
  -8  -4  -5   -0.30    0.43
   8   4   5    0.63    0.41
   8   4   5   -0.09    0.44
   4  -5  -5    3.73    0.69
   4  -5  -5    2.98    0.63
   4  -5  -5    3.17    0.82
  -4   5   5    3.80    0.85
   3  -5  -5   12.79    0.96
   3  -5  -5   12.14    1.19
   3  -5  -5   11.46    1.00
  -3   5   5   10.91    1.08
   2  -5  -5    0.68    0.39
   2  -5  -5    0.68    0.29
   2  -5  -5    0.40    0.42
  -2   5   5    0.42    0.42
   1  -5  -5   19.44    1.09
   1  -5  -5   19.08    0.77
   1  -5  -5   19.13    1.09
   1  -5  -5   20.94    0.82
   1  -5  -5   18.89    0.74
   1  -5  -5   16.96    1.25
   1  -5  -5   17.03    1.16
   1  -5  -5   19.26    1.08
  -1   5   5   19.71    1.23
  -1   5   5   19.39    1.15
   0  -5  -5   21.13    1.32
   0  -5  -5   21.89    1.25
   0  -5  -5   22.93    1.19
   0  -5  -5   22.60    1.18
   0  -5  -5   21.18    1.13
   0   5   5   22.51    1.25
   0   5   5   21.49    1.23
   0   5   5   23.46    1.18
  -1  -5  -5    2.74    0.42
  -1  -5  -5    2.87    0.47
  -1  -5  -5    2.58    0.48
  -1  -5  -5    3.15    0.54
  -1  -5  -5    2.98    0.45
   1   5   5    2.87    0.44
   1   5   5    2.65    0.47
  -2  -5  -5   31.78    1.48
  -2  -5  -5   34.22    1.71
  -2  -5  -5   34.88    1.57
  -2  -5  -5   30.21    1.57
  -2  -5  -5   32.89    1.57
   2   5   5   33.65    1.49
  -3  -5  -5    5.05    0.61
  -3  -5  -5    5.41    0.63
  -3  -5  -5    6.59    0.57
  -3  -5  -5    5.28    0.58
   3   5   5    5.92    0.36
   3   5   5    5.77    0.55
   3   5   5    4.99    0.37
   3   5   5    5.78    0.38
   3   5   5    4.59    0.59
  -4  -5  -5   11.63    0.87
  -4  -5  -5   10.98    0.79
  -4  -5  -5   11.79    0.93
  -4  -5  -5   10.64    0.83
   4   5   5   10.93    0.79
   4   5   5   12.39    0.88
   4   5   5   12.23    0.71
   4   5   5    9.28    0.82
  -5  -5  -5   14.93    1.00
  -5  -5  -5   14.34    1.07
  -5  -5  -5   15.02    1.01
   5   5   5   12.75    0.97
   5   5   5   14.00    0.94
   5   5   5   14.42    1.05
  -6  -5  -5    1.23    0.48
  -6  -5  -5    1.24    0.41
  -6  -5  -5    1.71    0.47
   6   5   5    2.02    0.56
   6   5   5    1.99    0.48
  -7  -5  -5    4.46    0.78
   7   5   5    3.59    0.64
   7   5   5    4.85    0.78
  -8  -5  -5    5.39    0.95
   8   5   5    5.09    0.90
   8   5   5    4.79    0.77
   3  -6  -5    3.14    0.58
   3  -6  -5    3.63    0.81
   3  -6  -5    1.32    0.50
  -3   6   5    2.18    0.65
   2  -6  -5    3.70    0.57
   2  -6  -5    5.25    0.87
   2  -6  -5    3.78    0.64
  -2   6   5    3.78    0.72
   1  -6  -5    1.87    0.51
   1  -6  -5    0.65    0.38
   1  -6  -5    0.92    0.32
  -1   6   5    1.66    0.51
   0  -6  -5    1.39    0.37
   0  -6  -5    1.49    0.43
   0  -6  -5    1.74    0.50
   0  -6  -5    2.81    0.54
   0  -6  -5    2.19    0.40
   0   6   5    1.10    0.42
   0   6   5    2.05    0.44
  -1  -6  -5    4.03    0.62
  -1  -6  -5    5.10    0.58
  -1  -6  -5    4.51    0.62
  -1  -6  -5    4.01    0.54
  -1  -6  -5    4.80    0.49
   1   6   5    3.62    0.55
   1   6   5    3.25    0.52
   1   6   5    4.32    0.54
  -2  -6  -5    2.73    0.44
  -2  -6  -5    2.51    0.46
  -2  -6  -5    2.24    0.55
  -2  -6  -5    2.27    0.44
  -2  -6  -5    2.05    0.44
   2   6   5    1.63    0.36
  -3  -6  -5   -0.28    0.23
  -3  -6  -5   -0.14    0.20
  -3  -6  -5   -0.34    0.23
  -3  -6  -5    0.07    0.27
   3   6   5    0.45    0.29
   3   6   5    0.16    0.12
   3   6   5    0.08    0.11
   3   6   5    0.09    0.10
  -4  -6  -5   21.53    1.28
  -4  -6  -5   19.70    1.27
  -4  -6  -5   19.43    1.21
  -4  -6  -5   19.66    1.14
   4   6   5   20.14    1.15
   4   6   5   20.33    0.99
   4   6   5   20.99    1.24
   4   6   5   21.68    1.02
  -5  -6  -5    7.07    0.86
  -5  -6  -5    8.15    0.78
  -5  -6  -5    9.05    0.78
  -5  -6  -5    9.25    0.92
   5   6   5    9.71    0.75
   5   6   5   10.12    0.84
   5   6   5   10.62    0.89
   5   6   5    9.50    0.86
  -6  -6  -5    5.80    0.90
  -6  -6  -5    5.69    0.80
  -6  -6  -5    6.48    0.74
   6   6   5    6.01    0.75
   6   6   5    6.77    0.85
  -7  -6  -5    6.28    0.96
   7   6   5    7.70    1.00
   7   6   5    6.48    0.83
  -8  -6  -5    2.05    0.66
   8   6   5    2.26    0.70
   3  -7  -5    2.36    0.54
  -3   7   5    4.69    0.88
   2  -7  -5    1.59    0.44
   2  -7  -5    0.90    0.44
   2  -7  -5    2.02    0.67
  -2   7   5    1.24    0.59
   1  -7  -5    0.31    0.40
   1  -7  -5    0.00    0.33
   1  -7  -5    0.40    0.30
  -1   7   5    0.47    0.44
   0  -7  -5   15.19    1.07
   0  -7  -5   14.74    1.20
   0  -7  -5   14.14    0.97
   0   7   5   14.11    1.08
  -1  -7  -5    8.04    0.74
  -1  -7  -5    8.06    0.90
  -1  -7  -5    8.19    0.81
   1   7   5    7.89    0.75
   1   7   5    7.67    0.79
  -2  -7  -5   17.91    1.17
  -2  -7  -5   18.63    1.28
  -2  -7  -5   18.78    1.15
   2   7   5   17.25    1.06
  -3  -7  -5   11.78    0.91
  -3  -7  -5   12.68    0.99
  -3  -7  -5   11.22    0.98
   3   7   5   11.29    0.88
  -4  -7  -5    0.24    0.34
  -4  -7  -5    0.11    0.29
  -4  -7  -5   -0.32    0.27
   4   7   5    0.59    0.37
  -5  -7  -5    1.25    0.43
  -5  -7  -5    0.98    0.47
  -5  -7  -5    0.55    0.39
   5   7   5    0.86    0.43
  -6  -7  -5   12.31    1.15
  -6  -7  -5   11.43    1.04
   6   7   5   12.33    1.09
  -7  -7  -5   -0.15    0.46
   7   7   5   -0.32    0.43
  -8  -7  -5    6.32    1.08
   8   7   5    5.34    0.98
   2  -8  -5    3.79    0.66
  -2   8   5    2.64    0.74
   1  -8  -5    3.90    0.85
   1  -8  -5    4.90    0.72
   1  -8  -5    4.67    0.66
  -1   8   5    4.82    0.82
   0  -8  -5   -0.30    0.29
   0  -8  -5   -0.23    0.27
   0  -8  -5   -0.10    0.26
   0   8   5   -0.31    0.41
  -1  -8  -5    0.26    0.32
  -1  -8  -5    0.33    0.30
   1   8   5    0.55    0.42
  -2  -8  -5    9.42    0.91
  -2  -8  -5   10.59    0.90
  -2  -8  -5   10.03    0.99
   2   8   5   10.60    0.87
  -3  -8  -5    8.24    0.82
  -3  -8  -5    9.07    0.89
  -3  -8  -5    8.39    0.92
   3   8   5    9.82    0.78
   3   8   5    8.58    0.83
  -4  -8  -5   10.22    0.92
  -4  -8  -5    9.78    0.93
  -4  -8  -5   11.43    1.02
   4   8   5   11.34    0.78
   4   8   5   10.56    0.99
  -5  -8  -5    9.47    0.99
  -5  -8  -5    9.73    0.93
  -5  -8  -5   10.34    0.97
   5   8   5    8.22    0.95
  -6  -8  -5    0.34    0.42
  -6  -8  -5    0.24    0.40
   6   8   5   -0.24    0.40
  -7  -8  -5    3.02    0.83
   7   8   5    4.08    0.82
   0  -9  -5    3.02    0.64
   0  -9  -5    3.21    0.59
   0  -9  -5    2.57    0.71
   0   9   5    3.49    0.71
  -1  -9  -5   20.31    1.32
  -1  -9  -5   17.57    1.21
   1   9   5   19.47    1.30
  -2  -9  -5    0.66    0.42
  -2  -9  -5   -0.04    0.36
   2   9   5    0.91    0.41
  -3  -9  -5    9.60    1.01
  -3  -9  -5   11.54    1.02
   3   9   5    9.96    0.84
  -4  -9  -5    2.46    0.60
  -4  -9  -5    2.85    0.67
  -5  -9  -5    0.00    0.40
  -5  -9  -5    0.55    0.46
   5   9   5    1.42    0.55
  -6  -9  -5    4.75    0.84
  -6  -9  -5    3.27    0.82
   6   9   5    4.39    0.84
  -1 -10  -5    0.39    0.44
   1  10   5    0.32    0.46
  -2 -10  -5    8.26    0.87
  -2 -10  -5    8.24    1.01
   2  10   5    7.77    0.88
  -3 -10  -5    3.16    0.67
  -3 -10  -5    1.89    0.57
  -4 -10  -5    1.78    0.56
  -4 -10  -5    2.17    0.62
  -5 -10  -5    3.05    0.73
  -2  -9   6    3.26    0.77
  -2  -9   6    3.54    0.77
  -2  -9   6    4.71    1.00
  -1  -9   6    4.83    1.01
  -1  -9   6    4.14    0.78
  -1  -9   6    4.24    0.75
   0  -9   6   -0.06    0.35
   0  -9   6    0.65    0.57
   0  -9   6    0.26    0.39
   1  -9   6    8.66    0.88
   1  -9   6    7.07    0.80
   1  -9   6    8.70    1.25
   2  -9   6    9.83    0.83
   2  -9   6   10.63    0.86
   2  -9   6   10.58    1.23
  -3  -8   6    9.57    1.20
  -3  -8   6   12.54    1.27
  -3  -8   6    8.58    1.26
  -2  -8   6    6.80    0.98
  -2  -8   6    4.48    0.95
  -2  -8   6    4.97    0.83
  -1  -8   6    2.86    0.76
  -1  -8   6    1.57    0.54
  -1  -8   6    2.26    0.60
   0  -8   6   16.21    1.39
   0  -8   6   15.31    1.15
   0  -8   6   14.60    1.12
   1  -8   6    3.19    0.75
   1  -8   6    3.17    0.58
   1  -8   6    2.08    0.48
   2  -8   6    6.09    0.67
   2  -8   6    6.66    1.05
   2  -8   6    6.42    0.67
   3  -8   6    5.89    1.02
   3  -8   6    5.82    0.61
   3  -8   6    6.50    0.59
   4  -8   6    1.36    0.64
   4  -8   6    1.55    0.34
   4   7  -6    8.37    1.12
  -4  -7   6    8.92    1.28
  -4  -7   6    7.89    1.24
   3   7  -6    3.07    0.65
  -3  -7   6    1.79    0.64
  -3  -7   6    2.01    0.69
  -3  -7   6    2.09    0.68
   2   7  -6    4.41    0.73
  -2  -7   6    3.61    0.80
  -2  -7   6    4.68    0.80
  -2  -7   6    4.49    0.75
   1   7  -6   11.98    0.91
  -1  -7   6   10.00    1.10
  -1  -7   6   10.68    1.02
  -1  -7   6   10.54    0.99
   0  -7   6    1.72    0.60
   0  -7   6    0.98    0.42
   0  -7   6    1.74    0.47
   1  -7   6    2.97    0.54
   1  -7   6    2.09    0.46
   1  -7   6    3.59    0.76
   2  -7   6   20.72    1.52
   2  -7   6   23.09    1.23
   2  -7   6   21.87    1.20
   3  -7   6    0.67    0.52
   3  -7   6    1.10    0.32
   3  -7   6    0.99    0.35
   4  -7   6   17.33    0.93
   4  -7   6   17.84    1.43
   4  -7   6   16.44    0.86
   5  -7   6    2.97    0.40
   5  -7   6    3.53    0.82
   5   6  -6   13.95    1.33
  -5  -6   6   14.59    1.52
   4   6  -6    0.57    0.50
   4   6  -6    0.43    0.49
  -4  -6   6    1.19    0.63
  -4  -6   6    0.09    0.48
   3   6  -6   12.58    1.11
  -3  -6   6   14.69    1.29
  -3  -6   6   14.17    1.29
  -3  -6   6   13.43    1.18
   2   6  -6   15.69    1.16
  -2  -6   6   19.39    1.29
  -2  -6   6   16.53    1.36
  -2  -6   6   16.80    1.32
   1   6  -6    0.18    0.30
  -1  -6   6    0.01    0.32
  -1  -6   6    0.38    0.45
  -1  -6   6    0.40    0.32
   0   6  -6   40.10    1.79
   0   6  -6   40.88    2.08
   0  -6   6   33.23    1.79
   0  -6   6   39.65    1.93
   0  -6   6   39.68    2.10
   0  -6   6   38.07    1.89
  -1   6  -6    4.74    0.52
  -1   6  -6    4.92    0.75
   1  -6   6    5.09    0.57
   1  -6   6    5.17    0.66
   1  -6   6    4.97    0.68
   1  -6   6    5.42    0.87
  -2   6  -6   10.47    0.97
   2  -6   6    9.83    0.75
   2  -6   6    9.56    1.00
   2  -6   6    8.95    0.58
   2  -6   6    9.03    0.75
   2  -6   6    7.62    0.68
   3  -6   6    0.89    0.33
   3  -6   6    0.79    0.29
   3  -6   6    0.22    0.27
   3  -6   6    0.69    0.27
   3  -6   6    1.19    0.49
  -4   6  -6    0.68    0.56
   4  -6   6    1.48    0.39
   4  -6   6    1.46    0.54
   4  -6   6    1.45    0.32
   4  -6   6    1.76    0.38
   4  -6   6    1.68    0.35
  -5   6  -6    5.41    1.04
   5  -6   6    4.25    0.83
   5  -6   6    4.86    0.53
  -6   6  -6    0.23    0.64
   6  -6   6    0.37    0.28
   6  -6   6    0.62    0.52
   5   5  -6    0.35    0.51
   5   5  -6    0.29    0.50
  -5  -5   6    0.78    0.63
  -5  -5   6   -0.19    0.50
   4   5  -6   13.85    1.26
   4   5  -6   13.39    1.21
  -4  -5   6   13.75    1.33
  -4  -5   6   15.62    1.36
   3   5  -6   13.24    1.13
   3   5  -6   14.02    1.15
  -3  -5   6   14.05    1.19
  -3  -5   6   13.51    1.21
  -3  -5   6   12.18    1.18
   2   5  -6    9.88    0.90
   2   5  -6   10.61    1.04
   2   5  -6   12.20    0.99
  -2  -5   6   10.41    0.98
  -2  -5   6   11.03    1.02
  -2  -5   6   10.34    1.05
   1   5  -6   14.83    0.62
   1   5  -6   15.48    1.18
   1   5  -6   15.54    1.03
   1   5  -6   13.38    0.88
  -1  -5   6   15.14    0.98
  -1  -5   6   13.08    1.03
  -1  -5   6   13.18    1.09
  -1  -5   6   16.05    1.21
  -1  -5   6   13.89    1.18
  -1  -5   6   14.66    0.90
   0   5  -6    0.70    0.32
   0   5  -6    0.96    0.16
   0   5  -6    1.35    0.33
   0   5  -6    0.82    0.38
   0  -5   6    0.87    0.43
   0  -5   6    1.18    0.46
   0  -5   6    1.87    0.47
   0  -5   6    0.31    0.26
   0  -5   6    1.01    0.39
   0  -5   6    1.03    0.36
  -1   5  -6    0.77    0.28
  -1   5  -6    0.49    0.17
  -1   5  -6    1.00    0.43
  -1   5  -6    0.66    0.24
   1  -5   6    0.71    0.39
   1  -5   6    1.41    0.40
   1  -5   6    0.36    0.28
   1  -5   6    1.18    0.33
   1  -5   6    0.77    0.35
   1  -5   6    1.37    0.47
  -2   5  -6    4.74    0.48
  -2   5  -6    3.76    0.39
  -2   5  -6    4.81    0.72
  -2   5  -6    4.36    0.38
   2  -5   6    4.53    0.41
   2  -5   6    4.71    0.57
   2  -5   6    3.01    0.47
   2  -5   6    4.08    0.67
   2  -5   6    4.18    0.57
   2  -5   6    5.48    0.79
   2  -5   6    4.63    0.48
   2  -5   6    4.47    0.60
  -3   5  -6   13.78    0.80
  -3   5  -6   12.21    1.00
  -3   5  -6   10.91    1.05
   3  -5   6   12.57    0.83
   3  -5   6   13.46    1.07
   3  -5   6   12.85    0.84
   3  -5   6   12.78    0.79
   3  -5   6   11.73    0.82
   3  -5   6   13.48    0.77
  -4   5  -6    2.58    0.64
  -4   5  -6    2.56    0.47
   4  -5   6    2.54    0.62
   4  -5   6    2.19    0.40
   4  -5   6    2.43    0.44
   4  -5   6    2.30    0.41
   4  -5   6    2.29    0.41
  -5   5  -6    4.95    0.71
  -5   5  -6    7.18    1.10
   5  -5   6    6.44    0.56
   5  -5   6    6.27    0.57
   5  -5   6    6.66    0.91
   5  -5   6    5.84    0.57
   5  -5   6    5.84    0.86
  -6   5  -6   19.88    1.64
   6  -5   6   16.41    1.00
   6  -5   6   17.85    1.40
   6  -5   6   16.14    0.94
   5   4  -6    7.21    1.07
   5   4  -6    7.73    1.10
  -5  -4   6    6.51    1.11
  -5  -4   6    6.86    1.12
   4   4  -6    4.47    0.81
   4   4  -6    3.97    0.80
   4   4  -6    3.71    0.68
  -4  -4   6    3.05    0.79
  -4  -4   6    3.96    0.58
  -4  -4   6    3.26    0.75
   3   4  -6    1.40    0.47
   3   4  -6    0.63    0.34
   3   4  -6    0.52    0.26
   3   4  -6   -0.02    0.36
  -3  -4   6    0.23    0.45
  -3  -4   6    0.53    0.46
  -3  -4   6    0.55    0.41
   2   4  -6   10.26    0.96
   2   4  -6    9.94    0.91
   2   4  -6   11.25    0.83
   2   4  -6    8.81    0.88
  -2  -4   6   11.53    1.05
  -2  -4   6   11.34    0.88
  -2  -4   6   11.71    1.03
  -2  -4   6    9.97    0.97
  -2  -4   6   11.76    0.98
   1   4  -6   16.40    1.04
   1   4  -6   14.50    0.74
   1   4  -6   15.03    1.12
   1   4  -6   15.52    0.93
   1   4  -6   15.70    1.05
  -1  -4   6   17.71    1.22
  -1  -4   6   14.42    1.05
  -1  -4   6   13.08    1.05
  -1  -4   6   15.90    1.16
  -1  -4   6   14.22    0.97
  -1  -4   6   16.53    0.85
   0   4  -6    0.37    0.27
   0   4  -6    0.37    0.22
   0   4  -6    0.07    0.28
   0   4  -6   -0.07    0.12
   0  -4   6    0.24    0.23
   0  -4   6   -0.40    0.22
   0  -4   6    0.46    0.32
   0  -4   6    0.03    0.18
   0  -4   6    0.02    0.27
   0  -4   6   -0.30    0.24
   0  -4   6    0.59    0.33
  -1   4  -6   14.31    0.90
  -1   4  -6   15.42    0.74
  -1   4  -6   15.74    0.82
  -1   4  -6   13.95    1.05
   1  -4   6   11.93    0.93
   1  -4   6   15.95    1.12
   1  -4   6   14.60    1.00
   1  -4   6   13.68    0.88
   1  -4   6   14.80    0.86
   1  -4   6   13.78    0.94
   1  -4   6   16.55    1.11
  -2   4  -6   17.47    0.88
  -2   4  -6   19.94    0.99
  -2   4  -6   16.37    0.84
  -2   4  -6   16.88    1.14
  -2   4  -6   16.84    1.15
   2  -4   6   15.81    0.99
   2  -4   6   16.70    0.98
   2  -4   6   18.49    1.09
   2  -4   6   17.33    0.88
   2  -4   6   18.46    1.18
   2  -4   6   16.38    1.13
   2  -4   6   17.37    0.88
   2  -4   6   15.32    0.98
  -3   4  -6    0.91    0.26
  -3   4  -6    1.18    0.22
  -3   4  -6    1.04    0.29
  -3   4  -6    0.96    0.42
  -3   4  -6    0.33    0.30
   3  -4   6    1.16    0.44
   3  -4   6    0.99    0.28
   3  -4   6    0.92    0.23
   3  -4   6    0.82    0.29
   3  -4   6    0.85    0.38
   3  -4   6    1.32    0.36
   3  -4   6    1.01    0.31
   3  -4   6    0.88    0.31
  -4   4  -6   30.12    1.48
  -4   4  -6   32.72    1.82
   4  -4   6   31.40    1.50
   4  -4   6   29.12    1.38
   4  -4   6   29.23    1.43
   4  -4   6   29.28    1.65
   4  -4   6   30.17    1.28
   4  -4   6   29.54    1.39
  -5   4  -6   14.46    1.26
  -5   4  -6   14.26    1.02
   5  -4   6   13.01    0.83
   5  -4   6   15.89    1.17
   5  -4   6   14.38    0.89
   5  -4   6   14.20    1.03
   5  -4   6   13.86    0.84
  -6   4  -6    9.76    1.15
   6  -4   6    5.99    0.62
   6  -4   6    6.37    0.93
   6  -4   6    6.11    0.58
  -7   4  -6   11.21    1.36
   7  -4   6   12.00    0.82
   7  -4   6   13.17    0.84
   5   3  -6    6.86    1.08
   5   3  -6   10.67    1.06
   5   3  -6   10.53    1.28
  -5  -3   6    7.46    1.16
  -5  -3   6    9.40    0.86
   4   3  -6    0.17    0.41
   4   3  -6   -0.20    0.34
   4   3  -6    0.10    0.31
   4   3  -6   -0.01    0.29
  -4  -3   6    0.13    0.31
  -4  -3   6    0.30    0.46
  -4  -3   6    0.11    0.43
   3   3  -6   39.74    2.07
   3   3  -6   38.50    2.03
   3   3  -6   40.13    2.03
   3   3  -6   36.98    1.85
  -3  -3   6   33.74    1.96
  -3  -3   6   38.77    2.01
  -3  -3   6   39.43    2.11
   2   3  -6   18.10    1.18
   2   3  -6   19.34    1.24
   2   3  -6   18.27    1.10
   2   3  -6   17.17    1.23
  -2  -3   6   16.37    1.26
  -2  -3   6   18.53    1.13
  -2  -3   6   18.75    0.74
  -2  -3   6   16.26    1.21
  -2  -3   6   19.03    1.29
  -2  -3   6   19.26    1.25
   1   3  -6    7.57    0.78
   1   3  -6    7.84    0.71
   1   3  -6    8.50    0.68
   1   3  -6    7.13    0.72
   1   3  -6    7.68    0.57
  -1  -3   6    8.01    0.79
  -1  -3   6    9.88    0.87
  -1  -3   6    7.73    0.68
  -1  -3   6    8.62    0.50
  -1  -3   6    9.16    0.81
  -1  -3   6    9.24    0.85
   0   3  -6   32.12    1.49
   0   3  -6   34.01    1.39
   0   3  -6   31.81    1.52
   0   3  -6   33.19    1.62
   0   3  -6   35.82    1.74
   0  -3   6   34.43    1.43
   0  -3   6   35.19    1.75
   0  -3   6   31.08    1.61
   0  -3   6   33.02    1.68
   0  -3   6   32.49    1.55
   0  -3   6   32.83    1.70
   0  -3   6   33.58    1.69
   0  -3   6   37.58    1.60
  -1   3  -6   16.45    1.01
  -1   3  -6   20.60    0.93
  -1   3  -6   17.37    1.15
  -1   3  -6   19.32    1.08
   1  -3   6   20.34    0.98
   1  -3   6   19.01    1.01
   1  -3   6   19.35    1.20
   1  -3   6   17.93    1.11
   1  -3   6   21.08    1.10
   1  -3   6   18.73    1.17
   1  -3   6   19.72    1.11
   1  -3   6   19.24    1.14
  -2   3  -6   27.75    1.24
  -2   3  -6   29.65    1.36
  -2   3  -6   26.64    1.42
  -2   3  -6   27.96    1.23
  -2   3  -6   25.95    1.46
   2  -3   6   29.57    1.19
   2  -3   6   28.23    1.48
   2  -3   6   27.37    1.48
   2  -3   6   27.72    1.41
   2  -3   6   28.09    1.26
   2  -3   6   26.21    1.41
   2  -3   6   29.48    1.37
   2  -3   6   26.94    1.35
  -3   3  -6   43.93    1.95
  -3   3  -6   36.54    1.90
  -3   3  -6   39.95    1.71
  -3   3  -6   41.72    1.60
  -3   3  -6   40.75    1.73
   3  -3   6   43.02    1.76
   3  -3   6   40.99    1.91
   3  -3   6   38.88    1.77
   3  -3   6   38.32    1.78
   3  -3   6   39.94    1.75
   3  -3   6   39.56    1.72
   3  -3   6   39.88    1.49
   3  -3   6   40.49    1.92
  -4   3  -6    0.29    0.24
  -4   3  -6    0.80    0.38
  -4   3  -6    0.68    0.19
  -4   3  -6    0.55    0.23
   4  -3   6    0.96    0.31
   4  -3   6    0.56    0.34
   4  -3   6    0.71    0.14
   4  -3   6    0.23    0.32
   4  -3   6    0.68    0.14
   4  -3   6    0.84    0.32
   4  -3   6    0.50    0.25
   4  -3   6    0.91    0.29
   4  -3   6    0.49    0.25
  -5   3  -6    7.84    0.91
  -5   3  -6    6.93    0.71
   5  -3   6    7.19    0.59
   5  -3   6    6.01    0.80
   5  -3   6    8.44    0.68
   5  -3   6    8.16    0.64
   5  -3   6    9.10    0.77
  -6   3  -6    9.95    1.05
   6  -3   6   11.02    0.80
  -7   3  -6    0.64    0.56
   7  -3   6    0.43    0.32
   7  -3   6    0.15    0.27
   5   2  -6    2.07    0.74
   5   2  -6    3.18    0.77
   5   2  -6    2.30    0.60
  -5  -2   6    2.68    0.77
  -5  -2   6    3.15    0.63
   4   2  -6    5.26    0.87
   4   2  -6    4.90    0.69
   4   2  -6    5.21    0.76
   4   2  -6    3.65    0.73
  -4  -2   6    3.29    0.72
  -4  -2   6    5.11    0.69
  -4  -2   6    4.31    0.84
   3   2  -6   10.21    0.95
   3   2  -6    9.91    0.85
   3   2  -6   10.40    0.95
   3   2  -6    8.69    0.98
   3   2  -6   10.37    0.94
  -3  -2   6   10.53    1.04
  -3  -2   6   10.29    0.95
  -3  -2   6   10.10    0.94
   2   2  -6    0.05    0.28
   2   2  -6    0.39    0.29
   2   2  -6    0.86    0.38
   2   2  -6    0.29    0.28
   2   2  -6    0.62    0.36
  -2  -2   6    0.26    0.33
  -2  -2   6    0.19    0.32
  -2  -2   6    0.59    0.35
  -2  -2   6    0.81    0.41
   1   2  -6   55.28    2.37
   1   2  -6   54.20    2.42
   1   2  -6   55.87    2.32
   1   2  -6   58.27    2.42
   1   2  -6   58.21    2.49
  -1  -2   6   57.10    2.37
  -1  -2   6   55.17    2.43
  -1  -2   6   54.67    2.49
  -1  -2   6   58.29    2.48
  -1  -2   6   53.61    2.42
   0   2  -6    1.69    0.35
   0   2  -6    1.74    0.36
   0   2  -6    1.37    0.39
   0   2  -6    1.50    0.39
   0   2  -6    1.45    0.38
   0   2  -6    1.47    0.29
   0  -2   6    0.87    0.34
   0  -2   6    2.08    0.47
   0  -2   6    1.42    0.35
   0  -2   6    1.48    0.35
   0  -2   6    1.49    0.41
   0  -2   6    1.81    0.42
  -1   2  -6   21.09    1.06
  -1   2  -6   22.04    1.16
  -1   2  -6   21.18    1.01
  -1   2  -6   17.74    1.15
  -1   2  -6   19.85    1.02
  -1   2  -6   20.25    0.99
   1  -2   6   23.40    1.22
   1  -2   6   22.28    1.21
   1  -2   6   19.72    1.18
   1  -2   6   22.86    1.24
   1  -2   6   20.92    1.00
   1  -2   6   19.83    1.09
   1  -2   6   20.79    1.15
  -2   2  -6   20.84    1.13
  -2   2  -6   20.19    1.02
  -2   2  -6   21.43    1.04
  -2   2  -6   21.81    1.21
  -2   2  -6   21.89    1.14
   2  -2   6   22.34    1.21
   2  -2   6   20.76    1.14
   2  -2   6   21.33    1.20
   2  -2   6   22.76    0.94
   2  -2   6   20.55    1.17
   2  -2   6   21.16    1.12
   2  -2   6   19.70    1.16
   2  -2   6   21.82    1.07
  -3   2  -6    9.11    0.75
  -3   2  -6    8.30    0.65
  -3   2  -6    9.17    0.67
  -3   2  -6   10.26    0.62
   3  -2   6    8.29    0.73
   3  -2   6    9.56    0.72
   3  -2   6    8.52    0.39
   3  -2   6    8.90    0.71
   3  -2   6    9.36    0.67
   3  -2   6    9.48    0.68
   3  -2   6    8.55    0.67
   3  -2   6    9.61    0.75
  -4   2  -6   29.58    1.28
  -4   2  -6   26.44    1.57
  -4   2  -6   31.19    1.47
  -4   2  -6   27.88    1.38
   4  -2   6   30.35    1.40
   4  -2   6   29.77    1.53
   4  -2   6   27.13    1.33
   4  -2   6   33.43    1.60
   4  -2   6   28.92    1.40
   4  -2   6   31.07    1.46
   4  -2   6   31.85    1.46
  -5   2  -6   17.99    1.02
  -5   2  -6   18.43    1.13
  -5   2  -6   15.10    1.24
  -5   2  -6   20.88    0.92
   5  -2   6   19.92    1.17
   5  -2   6   19.75    1.10
   5  -2   6   17.69    1.04
   5  -2   6   18.84    1.04
   5  -2   6   18.33    1.22
  -6   2  -6    0.37    0.46
  -6   2  -6    0.30    0.37
   6  -2   6    0.52    0.29
  -7   2  -6    1.09    0.60
   7  -2   6    1.71    0.42
   7  -2   6    1.41    0.39
  -8   2  -6    3.41    0.88
   8  -2   6    4.37    0.73
   8  -2   6    4.43    0.62
   5   1  -6   13.46    1.26
   5   1  -6   14.98    1.33
   5   1  -6   14.77    1.20
  -5  -1   6   13.01    1.68
  -5  -1   6   13.82    1.17
   4   1  -6    8.60    0.96
   4   1  -6    5.93    0.81
   4   1  -6    6.06    0.91
  -4  -1   6    8.39    1.11
  -4  -1   6    7.34    0.79
   3   1  -6   12.54    1.06
   3   1  -6   11.52    1.05
   3   1  -6   13.29    0.96
   3   1  -6   12.55    1.03
  -3  -1   6   13.86    1.08
  -3  -1   6    9.98    0.96
  -3  -1   6   12.66    1.12
   2   1  -6   22.66    1.30
   2   1  -6   20.79    1.29
   2   1  -6   20.57    1.20
   2   1  -6   22.53    1.29
   2   1  -6   20.19    1.29
  -2  -1   6   23.30    1.29
  -2  -1   6   20.60    1.28
  -2  -1   6   20.11    1.25
  -2  -1   6   19.07    1.33
   1   1  -6    4.70    0.56
   1   1  -6    4.68    0.63
   1   1  -6    4.13    0.61
   1   1  -6    4.74    0.53
   1   1  -6    4.84    0.63
  -1  -1   6    4.18    0.56
  -1  -1   6    4.89    0.57
  -1  -1   6    3.80    0.61
  -1  -1   6    3.84    0.57
  -1  -1   6    4.46    0.64
   0   1  -6   35.33    1.74
   0   1  -6   33.68    1.58
   0   1  -6   29.11    1.55
   0   1  -6   31.54    1.47
   0   1  -6   31.31    1.46
   0   1  -6   30.44    1.55
   0   1  -6   32.15    1.50
   0  -1   6   35.39    1.56
   0  -1   6   31.73    1.47
   0  -1   6   30.18    1.61
   0  -1   6   34.75    1.59
   0  -1   6   36.41    1.64
   0  -1   6   32.64    1.55
  -1   1  -6   60.08    2.45
  -1   1  -6   63.55    2.37
  -1   1  -6   59.72    2.27
  -1   1  -6   60.00    2.43
  -1   1  -6   64.58    2.40
  -1   1  -6   56.39    2.45
  -1   1  -6   60.92    2.25
  -1   1  -6   60.20    2.50
   1  -1   6   61.34    2.54
   1  -1   6   56.34    2.49
   1  -1   6   59.35    2.28
   1  -1   6   61.27    2.44
   1  -1   6   58.23    2.44
   1  -1   6   64.76    2.51
   1  -1   6   61.11    2.46
  -2   1  -6    7.55    0.66
  -2   1  -6    7.05    0.57
  -2   1  -6    6.67    0.54
  -2   1  -6    6.26    0.60
  -2   1  -6    7.22    0.61
  -2   1  -6    6.27    0.52
  -2   1  -6    6.40    0.41
   2  -1   6    6.65    0.59
   2  -1   6    7.15    0.62
   2  -1   6    6.27    0.62
   2  -1   6    7.53    0.43
   2  -1   6    7.10    0.60
   2  -1   6    6.83    0.62
   2  -1   6    6.66    0.54
   2  -1   6    6.12    0.61
  -3   1  -6   14.77    0.88
  -3   1  -6   15.16    0.92
  -3   1  -6   14.77    0.97
  -3   1  -6   16.09    0.86
   3  -1   6   14.85    0.91
   3  -1   6   13.69    0.84
   3  -1   6   15.83    0.96
   3  -1   6   14.63    0.92
   3  -1   6   15.03    0.88
   3  -1   6   14.46    0.92
   3  -1   6   15.84    0.92
  -4   1  -6   10.05    0.86
  -4   1  -6   10.08    0.75
  -4   1  -6   11.17    0.69
  -4   1  -6   11.69    0.80
   4  -1   6   12.23    0.77
   4  -1   6   10.06    0.79
   4  -1   6   10.20    0.79
   4  -1   6    9.92    0.69
   4  -1   6    9.98    0.76
   4  -1   6   11.65    0.83
   4  -1   6   10.26    0.76
  -5   1  -6    7.59    0.82
  -5   1  -6    6.92    0.56
  -5   1  -6    6.38    0.69
  -5   1  -6    6.68    0.64
   5  -1   6    7.83    0.73
   5  -1   6    6.00    0.61
   5  -1   6    7.00    0.60
   5  -1   6    7.96    0.76
   5  -1   6    7.10    0.66
   5  -1   6    7.15    0.63
  -6   1  -6   10.74    0.92
  -6   1  -6    9.57    1.00
   6  -1   6    8.27    0.70
   6  -1   6    9.65    0.74
  -7   1  -6   17.61    1.44
   7  -1   6   17.81    1.07
   7  -1   6   16.23    1.06
  -8   1  -6    0.04    0.51
   8  -1   6    0.33    0.35
   8  -1   6    0.31    0.34
   5   0  -6    0.58    0.50
   5   0  -6   -0.12    0.43
   5   0  -6    0.36    0.56
  -5   0   6    0.38    0.48
   4   0  -6    0.02    0.38
   4   0  -6    0.04    0.31
   4   0  -6    0.10    0.35
   4   0  -6   -0.13    0.41
  -4   0   6    0.28    0.39
  -4   0   6   -0.77    0.33
   3   0  -6   21.69    1.39
   3   0  -6   22.13    1.43
   3   0  -6   22.44    1.33
   3   0  -6   20.95    1.30
  -3   0   6   20.96    1.28
  -3   0   6   20.51    1.43
   2   0  -6    8.65    0.82
   2   0  -6    6.37    0.66
   2   0  -6    7.27    0.76
   2   0  -6    7.47    0.70
   2   0  -6    7.98    0.74
  -2   0   6    7.44    0.76
  -2   0   6    7.26    0.89
  -2   0   6    7.63    0.69
   1   0  -6   27.49    1.35
   1   0  -6   25.72    1.38
   1   0  -6   25.41    1.34
   1   0  -6   26.46    1.40
   1   0  -6   28.38    1.38
   1   0  -6   28.52    1.48
  -1   0   6   25.32    1.40
  -1   0   6   28.04    1.51
  -1   0   6   25.99    1.36
  -1   0   6   25.31    1.32
   0   0  -6   49.34    2.06
   0   0  -6   47.79    2.04
   0   0  -6   48.18    2.08
   0   0  -6   53.72    2.23
   0   0  -6   48.68    1.71
   0   0  -6   48.26    2.05
   0   0  -6   48.18    2.11
   0   0   6   50.45    2.07
   0   0   6   52.31    2.09
   0   0   6   49.30    2.05
   0   0   6   51.52    2.18
   0   0   6   50.46    2.11
   0   0   6   47.89    2.19
  -1   0  -6    6.51    0.59
  -1   0  -6    6.78    0.57
  -1   0  -6    7.59    0.54
  -1   0  -6    6.84    0.60
  -1   0  -6    7.06    0.58
  -1   0  -6    6.01    0.54
  -1   0  -6    6.82    0.46
  -1   0  -6    7.81    0.67
   1   0   6    5.81    0.55
   1   0   6    5.99    0.63
   1   0   6    6.79    0.59
   1   0   6    7.03    0.52
   1   0   6    7.26    0.64
   1   0   6    6.37    0.66
   1   0   6    6.22    0.58
  -2   0  -6   44.49    1.86
  -2   0  -6   44.36    1.66
  -2   0  -6   45.76    1.89
  -2   0  -6   45.26    1.85
  -2   0  -6   43.61    1.81
  -2   0  -6   46.89    1.89
  -2   0  -6   43.68    1.94
   2   0   6   42.41    1.83
   2   0   6   45.58    1.90
   2   0   6   42.80    1.85
   2   0   6   42.17    1.86
   2   0   6   44.72    1.67
   2   0   6   50.21    2.03
   2   0   6   40.33    1.91
  -3   0  -6   81.46    3.07
  -3   0  -6   81.14    2.68
  -3   0  -6   81.68    3.16
  -3   0  -6   76.92    3.14
  -3   0  -6   80.29    3.11
   3   0   6   88.00    3.15
   3   0   6   82.53    3.08
   3   0   6   85.84    3.21
   3   0   6   84.37    3.10
   3   0   6   85.80    3.14
   3   0   6   80.66    3.11
   3   0   6   76.00    3.12
  -4   0  -6    1.53    0.40
  -4   0  -6    0.88    0.30
  -4   0  -6    1.31    0.31
  -4   0  -6    0.96    0.32
   4   0   6    1.67    0.38
   4   0   6    1.76    0.37
   4   0   6    1.22    0.35
   4   0   6    1.44    0.34
  -5   0  -6   48.27    2.13
  -5   0  -6   43.75    2.21
  -5   0  -6   44.90    1.95
   5   0   6   47.15    1.98
   5   0   6   46.86    2.03
   5   0   6   50.06    2.15
   5   0   6   49.83    2.13
   5   0   6   47.49    2.11
   5   0   6   49.84    2.08
  -6   0  -6   10.93    0.92
  -6   0  -6   10.39    1.04
  -6   0  -6   10.42    0.82
   6   0   6   10.68    0.80
   6   0   6    9.18    0.77
   6   0   6   12.13    1.15
  -7   0  -6    6.21    1.00
   7   0   6    6.14    0.68
   7   0   6    8.11    0.78
  -8   0  -6   10.82    1.21
   8   0   6    9.22    0.89
   8   0   6    8.58    0.83
   5  -1  -6    9.13    0.97
   5  -1  -6    8.65    1.17
   5  -1  -6    8.56    1.23
  -5   1   6    8.02    1.08
   4  -1  -6   23.69    1.64
   4  -1  -6   24.82    1.52
   4  -1  -6   25.94    1.56
   4  -1  -6   28.09    1.76
  -4   1   6   24.38    1.60
   3  -1  -6    0.18    0.31
   3  -1  -6    0.70    0.46
   3  -1  -6    0.38    0.32
   3  -1  -6    0.17    0.35
  -3   1   6    0.86    0.43
  -3   1   6   -0.15    0.34
   2  -1  -6   28.80    1.53
   2  -1  -6   31.22    1.67
   2  -1  -6   30.61    1.58
   2  -1  -6   32.24    1.69
   2  -1  -6   29.53    1.49
  -2   1   6   30.78    1.48
  -2   1   6   29.33    1.57
  -2   1   6   31.01    1.70
   1  -1  -6   29.32    1.58
   1  -1  -6   32.26    1.50
   1  -1  -6   29.20    1.51
   1  -1  -6   33.38    1.60
   1  -1  -6   31.33    1.66
   1  -1  -6   34.13    1.50
  -1   1   6   33.21    1.62
  -1   1   6   32.75    1.48
  -1   1   6   30.53    1.44
  -1   1   6   33.72    1.69
   0  -1  -6    1.34    0.40
   0  -1  -6    1.51    0.32
   0  -1  -6    1.49    0.31
   0  -1  -6    1.21    0.33
   0  -1  -6    1.65    0.36
   0  -1  -6    1.74    0.37
   0   1   6    1.51    0.36
   0   1   6    1.49    0.31
   0   1   6    1.48    0.40
   0   1   6    1.30    0.29
   0   1   6    1.21    0.37
  -1  -1  -6   51.91    2.17
  -1  -1  -6   53.57    2.17
  -1  -1  -6   58.38    2.33
  -1  -1  -6   58.61    2.41
  -1  -1  -6   54.40    2.29
  -1  -1  -6   58.78    2.25
  -1  -1  -6   56.82    2.38
   1   1   6   57.89    2.22
   1   1   6   60.79    2.43
   1   1   6   57.63    2.32
   1   1   6   58.31    2.20
   1   1   6   55.11    2.22
   1   1   6   57.35    2.35
  -2  -1  -6   10.84    0.78
  -2  -1  -6   11.07    0.62
  -2  -1  -6   11.66    0.76
  -2  -1  -6    9.95    0.78
  -2  -1  -6   11.86    0.69
  -2  -1  -6   10.62    0.73
   2   1   6   10.09    0.78
   2   1   6   12.59    0.71
   2   1   6   11.15    0.75
   2   1   6   13.41    0.82
   2   1   6   11.83    0.85
   2   1   6   10.43    0.69
  -3  -1  -6    4.53    0.48
  -3  -1  -6    4.22    0.56
  -3  -1  -6    4.78    0.52
  -3  -1  -6    5.14    0.48
  -3  -1  -6    4.08    0.30
   3   1   6    4.29    0.53
   3   1   6    4.10    0.42
   3   1   6    4.82    0.50
   3   1   6    4.17    0.58
   3   1   6    4.57    0.52
   3   1   6    4.05    0.53
   3   1   6    3.78    0.42
  -4  -1  -6   12.66    0.88
  -4  -1  -6   13.99    0.83
  -4  -1  -6   12.98    0.87
   4   1   6   12.52    0.86
   4   1   6   11.48    0.81
   4   1   6   12.11    0.79
   4   1   6   11.62    0.83
   4   1   6   12.38    0.88
   4   1   6   12.02    0.82
  -5  -1  -6    7.61    0.72
  -5  -1  -6    8.46    0.75
   5   1   6    9.52    0.79
   5   1   6    8.78    0.72
   5   1   6    9.01    0.73
   5   1   6    7.89    0.74
   5   1   6    8.63    0.73
   5   1   6    7.52    0.65
  -6  -1  -6    0.33    0.30
  -6  -1  -6    0.18    0.30
   6   1   6   -0.16    0.25
   6   1   6    0.49    0.31
  -7  -1  -6   13.60    1.26
  -7  -1  -6   15.94    1.27
   7   1   6   14.23    1.04
   7   1   6   16.57    1.05
  -8  -1  -6    3.48    0.87
   8   1   6    3.30    0.65
   8   1   6    3.45    0.60
   5  -2  -6    5.32    0.85
   5  -2  -6    4.90    0.88
  -5   2   6    6.34    1.03
   4  -2  -6   -0.14    0.34
   4  -2  -6    0.04    0.39
   4  -2  -6    0.47    0.42
   4  -2  -6    0.30    0.44
  -4   2   6   -0.25    0.40
   3  -2  -6   15.25    1.09
   3  -2  -6   16.61    1.24
   3  -2  -6   16.12    1.22
   3  -2  -6   17.36    1.09
  -3   2   6   15.39    1.18
  -3   2   6   17.54    1.26
   2  -2  -6   18.24    1.28
   2  -2  -6   19.99    1.27
   2  -2  -6   19.00    1.16
   2  -2  -6   19.17    1.17
   2  -2  -6   19.06    1.08
   2  -2  -6   18.98    1.20
  -2   2   6   20.58    1.32
   1  -2  -6    0.93    0.32
   1  -2  -6    0.49    0.34
   1  -2  -6    0.73    0.16
   1  -2  -6    0.70    0.26
   1  -2  -6    1.01    0.38
   1  -2  -6    0.67    0.31
   1  -2  -6    0.79    0.25
   1  -2  -6    0.40    0.36
  -1   2   6    0.97    0.34
  -1   2   6    0.79    0.27
  -1   2   6    1.08    0.39
   0  -2  -6   22.90    1.06
   0  -2  -6   24.48    1.28
   0  -2  -6   25.56    1.27
   0  -2  -6   22.59    1.08
   0  -2  -6   22.17    1.30
   0  -2  -6   22.86    1.23
   0  -2  -6   25.47    1.32
   0   2   6   23.57    1.07
   0   2   6   24.22    1.28
   0   2   6   22.91    1.05
   0   2   6   22.97    1.33
  -1  -2  -6   25.45    1.22
  -1  -2  -6   27.58    1.49
  -1  -2  -6   25.31    1.35
  -1  -2  -6   24.29    1.25
  -1  -2  -6   24.42    1.07
  -1  -2  -6   22.65    1.31
   1   2   6   23.87    1.07
   1   2   6   25.69    1.36
   1   2   6   26.10    1.28
   1   2   6   23.84    1.08
   1   2   6   25.98    1.30
  -2  -2  -6    0.51    0.29
  -2  -2  -6    0.28    0.19
  -2  -2  -6    0.07    0.21
  -2  -2  -6    0.14    0.23
  -2  -2  -6    0.25    0.21
   2   2   6    0.04    0.20
   2   2   6    0.27    0.18
   2   2   6    0.12    0.16
   2   2   6    0.31    0.27
   2   2   6    0.20    0.22
  -3  -2  -6   54.53    2.38
  -3  -2  -6   54.70    2.29
  -3  -2  -6   57.53    2.08
  -3  -2  -6   56.34    2.36
  -3  -2  -6   57.39    2.28
   3   2   6   56.41    2.16
   3   2   6   57.70    2.29
   3   2   6   57.25    2.34
   3   2   6   58.57    2.19
   3   2   6   55.64    2.36
  -4  -2  -6   16.56    1.03
  -4  -2  -6   16.12    0.70
  -4  -2  -6   14.55    0.92
  -4  -2  -6   14.89    0.98
   4   2   6   15.48    0.89
   4   2   6   14.98    0.96
   4   2   6   16.04    0.93
   4   2   6   16.01    1.01
   4   2   6   16.63    1.00
  -5  -2  -6   15.01    1.02
  -5  -2  -6   14.64    1.00
  -5  -2  -6   16.27    0.96
  -5  -2  -6   15.45    0.65
   5   2   6   15.96    0.96
   5   2   6   16.25    1.05
   5   2   6   13.97    0.92
   5   2   6   16.08    1.01
   5   2   6   14.26    0.97
  -6  -2  -6   27.69    1.54
  -6  -2  -6   29.28    1.58
   6   2   6   29.16    1.46
   6   2   6   27.88    1.50
  -7  -2  -6    1.51    0.51
   7   2   6    1.11    0.48
   7   2   6    1.69    0.44
   8   2   6    7.87    0.91
   8   2   6    7.11    0.80
   4  -3  -6   16.05    1.33
   4  -3  -6   15.55    1.41
   4  -3  -6   18.32    1.28
  -4   3   6   17.27    1.39
   3  -3  -6    5.51    0.73
   3  -3  -6    6.17    0.96
   3  -3  -6    7.20    0.72
   3  -3  -6    7.92    0.96
  -3   3   6    6.02    0.89
   2  -3  -6    1.65    0.41
   2  -3  -6    2.19    0.55
   2  -3  -6    1.38    0.34
   2  -3  -6    1.04    0.47
  -2   3   6    1.38    0.49
  -2   3   6    1.31    0.45
   1  -3  -6   23.04    1.06
   1  -3  -6   21.44    1.33
   1  -3  -6   21.94    1.06
   1  -3  -6   20.55    1.32
   1  -3  -6   25.13    1.30
   1  -3  -6   22.36    1.05
   1  -3  -6   22.71    1.31
   1  -3  -6   22.53    1.23
  -1   3   6   22.44    1.36
  -1   3   6   22.76    1.26
   0  -3  -6   16.47    0.75
   0  -3  -6   14.99    0.99
   0  -3  -6   15.28    0.75
   0  -3  -6   18.17    1.03
   0  -3  -6   14.85    1.04
   0  -3  -6   15.55    1.02
   0  -3  -6   16.76    1.00
   0   3   6   15.39    1.00
   0   3   6   15.47    1.07
   0   3   6   15.30    0.73
  -1  -3  -6   13.46    0.83
  -1  -3  -6   12.38    0.57
  -1  -3  -6   10.97    0.79
  -1  -3  -6   12.74    0.86
  -1  -3  -6   12.22    0.83
  -1  -3  -6   12.49    0.93
  -1  -3  -6   10.77    0.85
   1   3   6   11.93    0.58
   1   3   6   11.52    0.57
   1   3   6   11.48    0.82
   1   3   6   11.69    0.89
  -2  -3  -6   37.73    1.72
  -2  -3  -6   38.74    1.85
  -2  -3  -6   38.29    1.81
  -2  -3  -6   39.47    1.75
  -2  -3  -6   39.26    1.66
   2   3   6   42.47    1.79
   2   3   6   38.20    1.79
   2   3   6   37.91    1.50
   2   3   6   39.66    1.74
   2   3   6   38.96    1.50
  -3  -3  -6    3.38    0.54
  -3  -3  -6    4.68    0.52
  -3  -3  -6    5.00    0.50
  -3  -3  -6    3.57    0.54
  -3  -3  -6    4.35    0.41
   3   3   6    4.00    0.52
   3   3   6    3.69    0.36
   3   3   6    3.35    0.52
   3   3   6    3.40    0.51
   3   3   6    4.48    0.39
  -4  -3  -6   16.05    1.05
  -4  -3  -6   15.91    0.94
  -4  -3  -6   15.07    0.96
  -4  -3  -6   15.53    1.01
   4   3   6   16.63    1.03
   4   3   6   16.79    0.88
   4   3   6   15.62    0.96
   4   3   6   14.86    0.99
   4   3   6   15.80    1.03
  -5  -3  -6   26.91    1.43
  -5  -3  -6   30.17    1.54
  -5  -3  -6   28.37    1.54
  -5  -3  -6   28.50    1.20
   5   3   6   29.70    1.53
   5   3   6   25.96    1.45
   5   3   6   28.81    1.42
   5   3   6   28.36    1.51
  -6  -3  -6    0.39    0.39
  -6  -3  -6    0.74    0.36
   6   3   6    0.19    0.31
   6   3   6    0.70    0.34
  -7  -3  -6    9.12    0.92
   7   3   6    8.94    0.91
   7   3   6    9.21    0.83
   8   3   6    5.51    0.80
   8   3   6    5.82    0.85
   4  -4  -6    3.61    0.75
   4  -4  -6    3.96    0.69
   4  -4  -6    4.56    0.95
  -4   4   6    4.38    0.90
   3  -4  -6    4.36    0.76
   3  -4  -6    4.75    0.84
   3  -4  -6    3.63    0.65
  -3   4   6    3.75    0.80
   2  -4  -6   18.60    1.13
   2  -4  -6   16.63    1.22
   2  -4  -6   15.74    1.27
  -2   4   6   16.80    1.24
   1  -4  -6    0.56    0.37
   1  -4  -6    1.42    0.45
   1  -4  -6    0.74    0.33
   1  -4  -6    1.07    0.44
   1  -4  -6    0.77    0.34
   1  -4  -6    0.82    0.22
   1  -4  -6    0.95    0.33
  -1   4   6    0.82    0.41
  -1   4   6    1.43    0.45
   0  -4  -6   11.72    0.93
   0  -4  -6   12.77    0.89
   0  -4  -6   11.51    0.83
   0  -4  -6   11.49    0.48
   0  -4  -6   11.44    0.93
   0   4   6   12.36    0.87
   0   4   6   11.81    0.92
  -1  -4  -6   21.00    1.21
  -1  -4  -6   24.02    1.28
  -1  -4  -6   21.75    1.20
  -1  -4  -6   21.93    1.29
  -1  -4  -6   22.85    1.19
  -1  -4  -6   20.84    1.34
   1   4   6   21.99    1.19
   1   4   6   21.00    1.26
  -2  -4  -6   -0.17    0.24
  -2  -4  -6    0.29    0.27
  -2  -4  -6    0.32    0.28
  -2  -4  -6    0.11    0.22
  -2  -4  -6    0.17    0.22
   2   4   6    0.32    0.10
   2   4   6    0.07    0.10
   2   4   6   -0.03    0.22
   2   4   6    0.06    0.27
  -3  -4  -6   10.09    0.87
  -3  -4  -6   10.09    0.85
  -3  -4  -6   12.76    0.86
  -3  -4  -6   13.29    0.82
   3   4   6   11.67    0.61
   3   4   6   10.99    0.84
   3   4   6   11.66    0.60
   3   4   6   12.14    0.81
  -4  -4  -6    9.74    0.79
  -4  -4  -6    9.16    0.84
  -4  -4  -6    9.74    0.74
  -4  -4  -6    8.71    0.80
   4   4   6    9.36    0.74
   4   4   6   10.02    0.81
   4   4   6    9.23    0.61
   4   4   6    9.74    0.80
   4   4   6   10.97    0.85
  -5  -4  -6    2.54    0.49
  -5  -4  -6    3.17    0.56
  -5  -4  -6    3.12    0.42
  -5  -4  -6    4.07    0.65
   5   4   6    2.00    0.48
   5   4   6    2.22    0.50
   5   4   6    2.52    0.51
   5   4   6    3.41    0.53
  -6  -4  -6    2.13    0.52
  -6  -4  -6    2.34    0.55
  -6  -4  -6    1.16    0.43
   6   4   6    2.45    0.51
   6   4   6    2.21    0.52
  -7  -4  -6   11.33    1.05
   7   4   6   11.01    0.94
   7   4   6   11.06    1.03
  -8  -4  -6    2.66    0.65
   8   4   6    2.34    0.60
   8   4   6    2.78    0.70
   3  -5  -6   10.95    1.05
   3  -5  -6   10.07    1.16
   3  -5  -6    9.33    0.94
  -3   5   6   10.28    1.12
   2  -5  -6    3.11    0.72
   2  -5  -6    4.37    0.67
   2  -5  -6    3.96    0.72
  -2   5   6    3.47    0.73
   1  -5  -6    6.72    0.91
   1  -5  -6    6.72    0.69
   1  -5  -6    6.49    0.75
  -1   5   6    8.10    0.85
  -1   5   6    5.68    0.86
   0  -5  -6   16.84    1.21
   0  -5  -6   19.74    1.26
   0  -5  -6   18.63    1.21
   0  -5  -6   21.87    1.21
   0  -5  -6   16.67    1.08
   0   5   6   17.02    1.17
  -1  -5  -6    8.95    0.73
  -1  -5  -6    9.64    0.79
  -1  -5  -6    8.16    0.79
  -1  -5  -6    8.67    0.89
  -1  -5  -6    9.80    0.93
  -1  -5  -6    6.82    0.78
   1   5   6    8.58    0.81
   1   5   6    8.15    0.72
  -2  -5  -6   11.42    0.91
  -2  -5  -6   10.15    0.94
  -2  -5  -6   10.98    0.80
  -2  -5  -6   13.41    0.91
  -2  -5  -6   11.91    0.86
   2   5   6   11.44    0.84
   2   5   6   11.77    0.93
  -3  -5  -6   41.45    2.04
  -3  -5  -6   41.17    1.96
  -3  -5  -6   46.34    1.95
  -3  -5  -6   48.46    2.17
   3   5   6   43.78    1.58
   3   5   6   42.72    1.57
   3   5   6   47.36    2.03
   3   5   6   41.21    1.90
   3   5   6   43.13    1.57
  -4  -5  -6    3.22    0.51
  -4  -5  -6    3.69    0.62
  -4  -5  -6    2.72    0.52
  -4  -5  -6    3.44    0.60
   4   5   6    2.40    0.52
   4   5   6    2.77    0.47
   4   5   6    2.88    0.38
   4   5   6    3.09    0.35
  -5  -5  -6   19.72    1.33
  -5  -5  -6   22.67    1.34
  -5  -5  -6   18.91    1.23
   5   5   6   20.01    1.27
   5   5   6   19.55    1.19
   5   5   6   20.97    1.30
  -6  -5  -6   21.95    1.37
  -6  -5  -6   22.24    1.46
   6   5   6   22.23    1.42
   6   5   6   23.12    1.33
  -7  -5  -6    3.88    0.76
   7   5   6    4.68    0.78
   7   5   6    4.26    0.69
  -8  -5  -6   12.71    1.22
   8   5   6   12.61    1.13
   8   5   6   10.17    1.11
   3  -6  -6    0.65    0.48
  -3   6   6    1.15    0.62
   2  -6  -6   14.85    1.07
   2  -6  -6   14.33    1.24
   2  -6  -6   11.17    1.09
  -2   6   6   12.92    1.19
   1  -6  -6   21.57    1.51
   1  -6  -6   20.03    1.26
   1  -6  -6   20.03    1.33
  -1   6   6   21.27    1.41
   0  -6  -6    0.94    0.36
   0  -6  -6    0.56    0.38
   0  -6  -6    1.12    0.41
   0   6   6    1.40    0.48
   0   6   6    0.90    0.58
  -1  -6  -6   15.27    1.10
  -1  -6  -6   16.65    1.26
  -1  -6  -6   15.48    1.02
  -1  -6  -6   14.30    1.12
   1   6   6   14.75    1.05
  -2  -6  -6   14.25    0.99
  -2  -6  -6   14.62    1.15
  -2  -6  -6   13.85    1.04
   2   6   6   12.84    0.99
  -3  -6  -6    1.04    0.37
  -3  -6  -6    0.38    0.35
  -3  -6  -6    0.63    0.36
   3   6   6    0.88    0.39
   3   6   6    1.06    0.45
  -4  -6  -6   14.17    1.07
  -4  -6  -6   14.56    1.16
  -4  -6  -6   16.61    1.17
   4   6   6   16.12    0.82
   4   6   6   17.73    1.09
   4   6   6   15.42    1.09
   4   6   6   16.86    0.78
  -5  -6  -6    0.34    0.34
  -5  -6  -6    0.37    0.39
  -5  -6  -6   -0.32    0.31
   5   6   6   -0.24    0.30
   5   6   6    0.05    0.31
  -6  -6  -6    0.24    0.34
  -6  -6  -6    0.18    0.44
   6   6   6    1.25    0.55
   6   6   6    1.36    0.53
  -7  -6  -6    0.09    0.45
   7   6   6    0.41    0.46
  -8  -6  -6    4.34    0.91
   8   6   6    2.90    0.81
   2  -7  -6    8.37    1.20
   2  -7  -6    7.50    0.82
   2  -7  -6    5.94    0.87
  -2   7   6    8.97    1.15
   1  -7  -6    0.96    0.52
   1  -7  -6    0.64    0.43
   1  -7  -6    0.83    0.42
  -1   7   6   -0.11    0.42
   0  -7  -6   15.70    1.27
   0  -7  -6   14.18    1.12
   0  -7  -6   14.43    1.06
   0   7   6   14.96    1.16
  -1  -7  -6    6.31    0.71
  -1  -7  -6    7.82    0.86
  -1  -7  -6    6.76    0.92
   1   7   6    7.30    0.86
  -2  -7  -6    1.28    0.45
  -2  -7  -6    1.60    0.45
  -2  -7  -6    1.78    0.58
   2   7   6    1.38    0.47
  -3  -7  -6    3.82    0.68
  -3  -7  -6    4.53    0.70
  -3  -7  -6    3.83    0.71
   3   7   6    3.75    0.61
  -4  -7  -6    5.69    0.83
  -4  -7  -6    7.07    0.79
  -4  -7  -6    6.68    0.86
   4   7   6    6.68    0.77
  -5  -7  -6    0.55    0.42
  -5  -7  -6    0.23    0.34
   5   7   6   -0.64    0.33
  -6  -7  -6    9.81    1.06
  -6  -7  -6   11.04    1.04
   6   7   6   11.32    1.11
  -7  -7  -6    1.57    0.59
   7   7   6    0.65    0.52
   1  -8  -6    2.43    0.63
   1  -8  -6    2.81    0.80
   1  -8  -6    2.44    0.55
  -1   8   6    3.01    0.73
   0  -8  -6    2.76    0.60
   0  -8  -6    2.17    0.50
   0  -8  -6    2.41    0.67
   0   8   6    2.64    0.65
  -1  -8  -6   -0.08    0.37
  -1  -8  -6    0.17    0.35
  -1  -8  -6    0.02    0.41
   1   8   6   -0.08    0.39
  -2  -8  -6    7.06    0.77
  -2  -8  -6    8.58    0.91
   2   8   6    5.11    0.73
  -3  -8  -6    5.88    0.81
  -3  -8  -6    5.67    0.83
   3   8   6    6.32    0.76
  -4  -8  -6    2.37    0.57
  -4  -8  -6    1.86    0.59
   4   8   6    2.32    0.55
  -5  -8  -6    8.34    1.07
  -5  -8  -6    8.49    1.03
   5   8   6    6.62    0.92
  -6  -8  -6    1.26    0.57
  -6  -8  -6    1.84    0.62
   6   8   6    2.85    0.68
  -7  -8  -6    1.35    0.65
   7   8   6    0.39    0.54
  -1  -9  -6    8.00    1.01
  -1  -9  -6    8.87    0.91
  -1  -9  -6    7.32    1.11
   1   9   6    8.21    0.97
  -2  -9  -6   -0.21    0.34
  -2  -9  -6    0.30    0.40
   2   9   6   -0.05    0.41
  -3  -9  -6    1.01    0.52
  -3  -9  -6    1.14    0.49
   3   9   6    1.08    0.46
  -4  -9  -6    1.19    0.52
  -4  -9  -6    1.73    0.57
  -5  -9  -6    1.88    0.62
  -5  -9  -6    3.53    0.72
   5   9   6    4.82    0.83
  -6  -9  -6    0.97    0.65
   6   9   6    0.30    0.51
   0  -9   7    0.92    0.53
   0  -9   7    0.15    0.53
   0  -9   7   -0.18    0.43
   1  -9   7   20.14    1.40
   1  -9   7   21.91    1.74
  -2  -8   7   19.52    1.58
  -2  -8   7   23.41    1.81
  -2  -8   7   20.31    1.52
  -1  -8   7    0.62    0.58
  -1  -8   7   -0.57    0.41
  -1  -8   7    1.43    0.55
   0  -8   7   34.32    1.94
   0  -8   7   34.89    1.88
   0  -8   7   33.24    2.14
   1  -8   7   10.45    1.21
   1  -8   7   10.64    0.96
   1  -8   7   10.43    0.98
   2  -8   7    5.14    0.73
   2  -8   7    6.23    1.06
   2  -8   7    5.49    0.71
   3  -8   7   12.96    0.94
   3  -8   7   13.92    1.37
   3  -8   7   12.45    0.93
   3   7  -7    8.94    1.13
  -3  -7   7   11.14    1.39
  -3  -7   7    9.22    1.30
  -3  -7   7    9.12    1.23
   2   7  -7    2.09    0.59
  -2  -7   7    1.24    0.57
  -2  -7   7    1.47    0.64
  -2  -7   7    0.63    0.58
  -1  -7   7   18.61    1.36
  -1  -7   7   19.64    1.55
   0  -7   7   11.88    1.01
   0  -7   7   12.95    1.07
   0  -7   7   12.08    1.23
   1  -7   7    1.13    0.41
   1  -7   7    0.99    0.44
   1  -7   7    0.47    0.49
   2  -7   7   25.41    1.73
   2  -7   7   23.49    1.37
   2  -7   7   24.32    1.40
   3  -7   7    6.37    0.71
   3  -7   7    7.52    1.08
   3  -7   7    7.19    0.73
   4  -7   7    4.37    0.89
   4  -7   7    4.13    0.54
   4  -7   7    3.77    0.54
   4   6  -7    5.78    1.00
   4   6  -7    7.40    1.11
  -4  -6   7    7.52    1.22
  -4  -6   7    6.48    1.18
   3   6  -7    0.23    0.44
  -3  -6   7   -0.58    0.39
  -3  -6   7   -0.27    0.46
  -3  -6   7    0.01    0.50
   2   6  -7   23.08    1.53
  -2  -6   7   23.01    1.58
  -2  -6   7   25.34    1.70
  -2  -6   7   25.36    1.76
   1   6  -7   26.73    1.58
  -1  -6   7   26.42    1.78
  -1  -6   7   31.06    1.79
  -1  -6   7   31.71    1.74
   0   6  -7    6.43    0.77
   0  -6   7    4.40    0.69
   0  -6   7    4.65    0.74
   0  -6   7    3.16    0.71
   1  -6   7   50.16    2.36
   1  -6   7   54.17    2.44
   1  -6   7   55.47    2.68
   2  -6   7    6.65    0.74
   2  -6   7    5.23    0.88
   2  -6   7    5.44    0.69
   3  -6   7   19.48    1.17
   3  -6   7   23.83    1.59
   3  -6   7   20.19    1.18
  -4   6  -7   28.83    1.94
   4  -6   7   29.96    1.88
   4  -6   7   29.00    1.48
   4  -6   7   31.46    1.48
  -5   6  -7    2.00    0.75
   5  -6   7    0.74    0.53
   5  -6   7    0.55    0.34
   5  -6   7    0.24    0.28
   4   5  -7    1.98    0.68
   4   5  -7    2.44    0.76
  -4  -5   7    1.85    0.73
  -4  -5   7    1.29    0.64
   3   5  -7   14.68    1.31
   3   5  -7   19.21    1.43
  -3  -5   7   21.56    1.54
  -3  -5   7   19.23    1.52
  -3  -5   7   19.35    1.58
   2   5  -7    6.43    0.87
   2   5  -7    7.88    0.90
  -2  -5   7    6.86    0.95
  -2  -5   7    5.61    0.91
  -2  -5   7    5.74    0.91
   1   5  -7    6.35    0.83
  -1  -5   7    5.97    0.91
  -1  -5   7    7.84    0.86
  -1  -5   7    7.73    0.97
   0   5  -7   30.50    1.76
   0   5  -7   27.28    1.52
   0  -5   7   26.79    1.61
   0  -5   7   28.41    1.59
   0  -5   7   31.04    1.77
  -1   5  -7    4.85    0.64
  -1   5  -7    4.50    0.40
  -1   5  -7    3.96    0.72
   1  -5   7    4.37    0.65
   1  -5   7    4.55    0.80
   1  -5   7    4.52    0.64
   1  -5   7    5.80    0.77
  -2   5  -7   25.09    1.58
  -2   5  -7   25.03    1.16
  -2   5  -7   26.59    1.31
   2  -5   7   26.25    1.19
   2  -5   7   27.75    1.46
   2  -5   7   22.84    1.54
   2  -5   7   23.77    1.39
   2  -5   7   25.04    1.39
  -3   5  -7   22.13    1.12
  -3   5  -7   22.15    1.48
   3  -5   7   19.86    1.22
   3  -5   7   22.17    1.22
   3  -5   7   20.96    1.44
   3  -5   7   19.70    1.10
  -4   5  -7    0.99    0.34
  -4   5  -7    1.07    0.54
   4  -5   7    1.24    0.37
   4  -5   7    1.21    0.37
   4  -5   7    1.60    0.56
   4  -5   7    0.74    0.35
  -5   5  -7    5.62    0.76
  -5   5  -7    5.63    1.01
   5  -5   7    5.93    0.92
   5  -5   7    4.37    0.59
   5  -5   7    5.04    0.64
  -6   5  -7    4.08    0.99
   6  -5   7    4.66    0.61
   6  -5   7    4.16    0.56
   6  -5   7    4.33    0.87
   4   4  -7    2.32    0.71
   4   4  -7    2.93    0.75
  -4  -4   7    3.72    0.84
  -4  -4   7    3.23    0.82
   3   4  -7    1.18    0.54
   3   4  -7    1.17    0.51
  -3  -4   7    0.49    0.50
  -3  -4   7    0.02    0.49
  -3  -4   7    1.52    0.61
   2   4  -7    0.80    0.41
   2   4  -7    0.15    0.37
   2   4  -7    0.78    0.45
  -2  -4   7    0.84    0.51
  -2  -4   7    0.94    0.45
  -2  -4   7    0.42    0.43
   1   4  -7   17.96    1.08
   1   4  -7   16.74    0.88
   1   4  -7   17.27    1.28
   1   4  -7   17.30    1.14
   1   4  -7   16.71    1.18
  -1  -4   7   15.67    1.23
  -1  -4   7   17.52    1.28
  -1  -4   7   18.10    1.24
   0   4  -7    3.65    0.55
   0   4  -7    4.15    0.71
   0   4  -7    4.13    0.54
   0   4  -7    4.25    0.64
   0   4  -7    3.81    0.40
   0  -4   7    3.64    0.64
   0  -4   7    4.72    0.51
   0  -4   7    3.45    0.63
   0  -4   7    3.76    0.70
   0  -4   7    4.04    0.69
   0  -4   7    3.42    0.55
  -1   4  -7    6.56    0.56
  -1   4  -7    6.08    0.83
  -1   4  -7    6.67    0.69
  -1   4  -7    6.38    0.50
   1  -4   7    7.32    0.79
   1  -4   7    6.28    0.65
   1  -4   7    7.33    0.75
   1  -4   7    6.52    0.70
   1  -4   7    7.26    0.79
   1  -4   7    6.65    0.87
  -2   4  -7   27.96    1.28
  -2   4  -7   26.31    1.60
  -2   4  -7   29.93    1.44
  -2   4  -7   28.36    1.64
  -2   4  -7   28.09    1.55
   2  -4   7   30.10    1.68
   2  -4   7   28.94    1.31
   2  -4   7   28.60    1.47
   2  -4   7   26.55    1.53
   2  -4   7   27.04    1.43
   2  -4   7   29.47    1.31
   2  -4   7   25.96    1.58
   2  -4   7   28.57    1.50
  -3   4  -7   11.46    0.79
  -3   4  -7   12.01    1.01
  -3   4  -7   12.57    0.80
  -3   4  -7   10.77    1.01
   3  -4   7   10.23    0.75
   3  -4   7   12.41    0.91
   3  -4   7   11.01    0.84
   3  -4   7   11.08    0.99
   3  -4   7   12.32    0.88
  -4   4  -7   23.72    1.26
  -4   4  -7   21.47    1.51
   4  -4   7   25.56    1.30
   4  -4   7   21.61    1.26
   4  -4   7   22.69    1.29
   4  -4   7   22.32    1.24
   4  -4   7   23.31    1.48
  -5   4  -7   25.37    1.44
  -5   4  -7   23.19    1.68
   5  -4   7   27.43    1.50
   5  -4   7   25.03    1.61
   5  -4   7   25.29    1.37
   5  -4   7   27.90    1.35
  -6   4  -7   -0.11    0.51
   6  -4   7   -0.42    0.35
   6  -4   7    0.04    0.27
   6  -4   7   -0.51    0.24
  -7   4  -7    7.28    1.22
   7  -4   7    7.50    0.77
  -5  -3   7    2.99    0.88
   4   3  -7   11.67    1.19
   4   3  -7   10.87    1.17
   4   3  -7    9.58    1.03
  -4  -3   7   11.69    1.21
  -4  -3   7   13.49    1.37
  -4  -3   7   11.88    1.02
   3   3  -7    2.91    0.68
   3   3  -7    2.36    0.56
   3   3  -7    3.66    0.73
  -3  -3   7    3.54    0.74
  -3  -3   7    3.15    0.74
   2   3  -7   27.52    1.61
   2   3  -7   27.25    1.64
   2   3  -7   26.46    1.45
   2   3  -7   26.37    1.54
  -2  -3   7   23.99    1.55
  -2  -3   7   22.24    1.59
  -2  -3   7   25.99    1.61
   1   3  -7   17.16    1.11
   1   3  -7   15.82    1.14
   1   3  -7   17.56    1.22
   1   3  -7   15.36    1.02
   1   3  -7   17.50    0.96
  -1  -3   7   17.63    1.21
  -1  -3   7   16.89    1.23
  -1  -3   7   16.36    1.24
  -1  -3   7   16.11    1.18
  -1  -3   7   14.95    1.07
   0   3  -7   32.15    1.64
   0   3  -7   37.13    1.67
   0   3  -7   37.50    1.88
   0   3  -7   36.47    1.53
   0   3  -7   35.49    1.78
   0  -3   7   30.62    1.78
   0  -3   7   37.13    1.88
   0  -3   7   35.59    1.75
   0  -3   7   36.40    1.86
   0  -3   7   35.02    1.78
  -1   3  -7  102.04    3.76
  -1   3  -7  100.86    4.08
  -1   3  -7  103.82    3.71
  -1   3  -7  104.16    3.82
  -1   3  -7  105.41    3.96
   1  -3   7  110.87    4.39
   1  -3   7  107.64    3.79
   1  -3   7  104.16    4.12
   1  -3   7   99.08    4.05
   1  -3   7  102.00    3.96
   1  -3   7   97.65    4.00
   1  -3   7  101.32    3.91
  -2   3  -7    4.09    0.57
  -2   3  -7    4.83    0.48
  -2   3  -7    4.46    0.56
  -2   3  -7    4.24    0.45
  -2   3  -7    4.33    0.69
   2  -3   7    4.70    0.71
   2  -3   7    4.62    0.69
   2  -3   7    5.88    0.61
   2  -3   7    4.03    0.62
   2  -3   7    3.99    0.59
   2  -3   7    5.24    0.51
   2  -3   7    6.11    0.76
   2  -3   7    4.90    0.45
  -3   3  -7   55.58    2.17
  -3   3  -7   50.27    2.20
  -3   3  -7   49.44    2.36
  -3   3  -7   51.04    2.36
  -3   3  -7   55.02    2.09
   3  -3   7   48.09    2.33
   3  -3   7   51.99    2.24
   3  -3   7   49.88    2.22
   3  -3   7   52.20    2.31
   3  -3   7   51.39    2.29
   3  -3   7   52.44    2.16
   3  -3   7   51.96    2.41
   3  -3   7   54.58    1.91
  -4   3  -7   12.40    0.88
  -4   3  -7   12.75    0.84
  -4   3  -7    9.11    0.94
   4  -3   7   11.89    0.98
   4  -3   7   11.12    0.83
   4  -3   7   10.89    0.87
   4  -3   7   12.21    0.83
   4  -3   7   12.02    0.84
  -5   3  -7    1.83    0.57
  -5   3  -7    0.56    0.36
   5  -3   7    1.30    0.36
   5  -3   7    1.18    0.41
   5  -3   7    1.36    0.40
   5  -3   7    1.56    0.50
  -6   3  -7   17.70    1.45
   6  -3   7   17.91    1.34
   6  -3   7   18.98    1.08
   6  -3   7   18.03    1.13
  -7   3  -7    1.63    0.68
   7  -3   7    0.27    0.36
   7  -3   7    1.12    0.40
   7  -3   7    0.80    0.54
   5   2  -7    0.74    0.59
  -5  -2   7    0.22    0.61
  -5  -2   7    1.30    0.57
   4   2  -7   12.51    1.22
   4   2  -7   11.31    1.07
   4   2  -7   11.04    1.10
  -4  -2   7   13.28    1.10
  -4  -2   7   10.69    1.21
  -4  -2   7   12.60    1.37
   3   2  -7   23.18    1.55
   3   2  -7   23.63    1.55
   3   2  -7   23.16    1.42
  -3  -2   7   23.49    1.51
  -3  -2   7   21.22    1.60
   2   2  -7    4.99    0.70
   2   2  -7    5.41    0.78
   2   2  -7    3.07    0.62
   2   2  -7    4.93    0.78
  -2  -2   7    5.01    0.76
  -2  -2   7    5.39    0.84
  -2  -2   7    5.41    0.77
  -2  -2   7    5.22    0.77
   1   2  -7   37.94    1.81
   1   2  -7   33.31    1.68
   1   2  -7   33.63    1.81
   1   2  -7   33.58    1.80
  -1  -2   7   35.85    1.85
  -1  -2   7   39.40    1.81
  -1  -2   7   34.50    1.89
  -1  -2   7   35.99    1.84
  -1  -2   7   32.58    1.77
   0   2  -7    1.62    0.34
   0   2  -7    1.71    0.38
   0   2  -7    1.87    0.46
   0   2  -7    1.62    0.45
   0   2  -7    2.07    0.42
   0  -2   7    2.30    0.50
   0  -2   7    1.52    0.50
   0  -2   7    2.03    0.44
   0  -2   7    1.05    0.41
   0  -2   7    2.58    0.51
  -1   2  -7    0.15    0.19
  -1   2  -7    0.19    0.26
  -1   2  -7    0.06    0.18
  -1   2  -7    0.23    0.21
  -1   2  -7    0.31    0.24
  -1   2  -7   -0.46    0.18
   1  -2   7   -0.13    0.20
   1  -2   7    0.01    0.28
   1  -2   7    0.09    0.26
   1  -2   7   -0.25    0.25
   1  -2   7   -0.03    0.26
   1  -2   7    0.14    0.31
  -2   2  -7    8.14    0.73
  -2   2  -7    9.77    0.73
  -2   2  -7    9.24    0.65
  -2   2  -7    9.42    0.81
   2  -2   7    8.44    0.78
   2  -2   7    8.49    0.82
   2  -2   7    8.96    0.73
   2  -2   7    8.84    0.56
   2  -2   7    9.09    0.80
   2  -2   7    7.83    0.72
   2  -2   7    8.92    0.81
  -3   2  -7   20.85    1.25
  -3   2  -7   22.27    1.32
  -3   2  -7   22.78    1.14
  -3   2  -7   23.93    1.21
  -3   2  -7   22.31    1.24
   3  -2   7   22.27    1.31
   3  -2   7   23.15    1.31
   3  -2   7   21.96    0.88
   3  -2   7   23.15    1.31
   3  -2   7   22.66    1.29
   3  -2   7   24.69    1.28
   3  -2   7   22.50    1.22
   3  -2   7   23.25    1.19
  -4   2  -7    0.29    0.26
  -4   2  -7    0.01    0.36
  -4   2  -7    0.02    0.23
  -4   2  -7    1.00    0.29
   4  -2   7    0.73    0.31
   4  -2   7    0.58    0.34
   4  -2   7    0.39    0.32
   4  -2   7    0.55    0.31
   4  -2   7    0.56    0.31
   4  -2   7    0.50    0.34
   4  -2   7   -0.07    0.25
  -5   2  -7    9.52    0.85
  -5   2  -7    9.70    0.99
  -5   2  -7    8.53    0.86
   5  -2   7    9.90    0.84
   5  -2   7    9.78    0.75
   5  -2   7    9.46    0.89
   5  -2   7    8.22    0.77
   5  -2   7    8.26    0.85
  -6   2  -7   10.67    1.12
   6  -2   7   10.34    0.80
   6  -2   7   10.33    0.87
  -7   2  -7    0.29    0.51
   7  -2   7    0.35    0.33
   5   1  -7    1.88    0.67
  -5  -1   7    2.49    0.68
   4   1  -7    9.07    0.96
   4   1  -7    9.79    1.08
   4   1  -7    6.83    1.03
  -4  -1   7    7.52    1.16
  -4  -1   7    9.79    1.02
   3   1  -7    0.27    0.39
   3   1  -7    0.18    0.40
   3   1  -7    0.40    0.37
   3   1  -7    0.25    0.40
  -3  -1   7   -0.32    0.35
  -3  -1   7    0.18    0.49
   2   1  -7   15.55    1.19
   2   1  -7   14.41    1.13
   2   1  -7   15.10    1.07
   2   1  -7   15.68    1.16
   2   1  -7   17.43    1.35
  -2  -1   7   16.24    1.27
  -2  -1   7   14.61    1.08
  -2  -1   7   15.83    1.18
  -2  -1   7   18.41    1.18
   1   1  -7   35.46    1.67
   1   1  -7   30.01    1.71
   1   1  -7   33.50    1.70
   1   1  -7   34.11    1.72
   1   1  -7   32.28    1.66
  -1  -1   7   35.44    1.77
  -1  -1   7   32.67    1.81
  -1  -1   7   29.88    1.63
  -1  -1   7   33.42    1.70
   0   1  -7    0.61    0.28
   0   1  -7    1.17    0.36
   0   1  -7    0.63    0.34
   0   1  -7    0.75    0.32
   0   1  -7    0.54    0.25
   0   1  -7    0.40    0.32
   0  -1   7    0.93    0.40
   0  -1   7    0.57    0.30
   0  -1   7    0.81    0.38
   0  -1   7    0.94    0.35
   0  -1   7    1.07    0.36
  -1   1  -7   39.82    1.74
  -1   1  -7   42.01    1.99
  -1   1  -7   43.47    1.70
  -1   1  -7   42.16    1.86
  -1   1  -7   42.26    1.85
  -1   1  -7   42.03    1.95
   1  -1   7   42.24    2.03
   1  -1   7   41.51    1.94
   1  -1   7   43.00    1.96
   1  -1   7   41.13    1.92
   1  -1   7   45.05    1.96
   1  -1   7   42.87    1.78
  -2   1  -7    9.84    0.70
  -2   1  -7    8.61    0.55
  -2   1  -7   10.18    0.70
  -2   1  -7   10.46    0.79
  -2   1  -7    8.78    0.76
  -2   1  -7    8.56    0.67
   2  -1   7    8.67    0.81
   2  -1   7    9.40    0.77
   2  -1   7    9.29    0.77
   2  -1   7   12.09    0.82
   2  -1   7    8.54    0.75
   2  -1   7    9.80    0.83
   2  -1   7   10.10    0.59
  -3   1  -7    1.72    0.36
  -3   1  -7    1.41    0.37
  -3   1  -7    1.90    0.42
   3  -1   7    1.56    0.41
   3  -1   7    1.43    0.37
   3  -1   7    1.81    0.44
   3  -1   7    1.53    0.39
   3  -1   7    1.11    0.33
   3  -1   7    1.27    0.37
   3  -1   7    1.03    0.35
  -4   1  -7   27.45    1.42
  -4   1  -7   26.21    1.31
  -4   1  -7   27.06    1.50
  -4   1  -7   26.81    1.39
   4  -1   7   30.58    1.51
   4  -1   7   26.29    1.39
   4  -1   7   25.04    1.36
   4  -1   7   27.40    1.41
   4  -1   7   24.98    1.42
   4  -1   7   26.28    1.35
   4  -1   7   26.38    1.44
  -5   1  -7   11.54    1.02
  -5   1  -7   10.35    0.87
  -5   1  -7   12.21    0.88
   5  -1   7   11.41    0.88
   5  -1   7   10.63    0.81
   5  -1   7   10.54    0.86
   5  -1   7   12.41    0.92
   5  -1   7   10.52    0.84
   5  -1   7   10.77    0.91
   5  -1   7   10.80    0.90
  -6   1  -7   10.77    1.08
  -7   1  -7   11.29    1.21
   7  -1   7   12.76    0.97
   7  -1   7   12.49    0.93
  -8   1  -7   -0.02    0.55
   8  -1   7    0.06    0.33
   8  -1   7    0.99    0.42
   4   0  -7    0.19    0.47
   4   0  -7    0.93    0.53
   4   0  -7    0.93    0.55
  -4   0   7    1.54    0.61
  -4   0   7    1.24    0.61
   3   0  -7   14.94    1.25
   3   0  -7   15.28    1.15
   3   0  -7   16.40    1.17
   3   0  -7   15.02    1.28
  -3   0   7   17.67    1.39
   2   0  -7    2.53    0.58
   2   0  -7    2.20    0.53
   2   0  -7    1.60    0.52
   2   0  -7    1.84    0.47
  -2   0   7    2.53    0.62
  -2   0   7    2.53    0.52
   1   0  -7    2.06    0.53
   1   0  -7    2.79    0.51
   1   0  -7    1.94    0.44
   1   0  -7    2.04    0.47
   1   0  -7    2.07    0.47
  -1   0   7    2.35    0.45
  -1   0   7    1.65    0.41
  -1   0   7    3.24    0.64
  -1   0   7    2.46    0.52
   0   0  -7    2.72    0.47
   0   0  -7    3.01    0.52
   0   0  -7    3.45    0.58
   0   0  -7    3.55    0.51
   0   0  -7    2.54    0.47
   0   0  -7    2.80    0.50
   0   0   7    2.71    0.54
   0   0   7    2.54    0.54
   0   0   7    3.41    0.52
   0   0   7    2.95    0.49
   0   0   7    2.71    0.49
  -1   0  -7   26.42    1.36
  -1   0  -7   23.54    1.28
  -1   0  -7   25.46    1.31
  -1   0  -7   23.97    1.30
  -1   0  -7   25.92    1.42
  -1   0  -7   25.60    1.09
  -1   0  -7   26.18    1.30
  -1   0  -7   25.71    1.22
   1   0   7   24.89    1.34
   1   0   7   23.53    1.42
   1   0   7   25.24    1.21
   1   0   7   27.26    1.40
   1   0   7   25.86    1.30
   1   0   7   23.44    1.28
  -2   0  -7    0.19    0.28
  -2   0  -7    0.44    0.22
  -2   0  -7    0.13    0.17
  -2   0  -7    0.23    0.22
  -2   0  -7    0.36    0.25
  -2   0  -7    0.36    0.25
   2   0   7    0.03    0.23
   2   0   7    0.17    0.30
   2   0   7    0.54    0.20
   2   0   7    0.05    0.26
   2   0   7    0.33    0.27
   2   0   7    0.41    0.25
  -3   0  -7   70.42    2.82
  -3   0  -7   69.74    2.83
  -3   0  -7   70.56    2.43
  -3   0  -7   72.36    2.81
  -3   0  -7   71.71    2.91
   3   0   7   69.45    2.79
   3   0   7   77.06    3.24
   3   0   7   73.71    2.85
   3   0   7   63.35    2.84
   3   0   7   72.21    2.83
   3   0   7   72.63    2.88
   3   0   7   71.52    2.81
  -4   0  -7    8.49    0.73
  -4   0  -7    7.96    0.75
  -4   0  -7    6.84    0.70
   4   0   7    7.30    0.66
   4   0   7    7.72    0.70
   4   0   7    7.96    0.74
   4   0   7    8.26    0.70
   4   0   7    8.07    0.71
   4   0   7    9.36    0.75
   4   0   7    8.06    0.75
  -5   0  -7   16.94    1.12
  -5   0  -7   20.17    1.21
  -5   0  -7   20.20    1.32
   5   0   7   20.35    1.18
   5   0   7   18.61    1.18
   5   0   7   18.44    1.18
   5   0   7   19.32    1.19
  -6   0  -7   20.74    1.27
  -6   0  -7   21.88    1.51
   6   0   7   21.76    1.28
   6   0   7   21.98    1.24
  -7   0  -7    0.70    0.55
   7   0   7    0.98    0.44
   7   0   7    1.23    0.43
  -8   0  -7    5.59    1.05
   8   0   7    6.67    0.84
   8   0   7    5.32    0.71
   4  -1  -7   -0.02    0.45
   4  -1  -7   -0.25    0.40
   4  -1  -7    0.09    0.43
  -4   1   7    0.42    0.49
   3  -1  -7   10.00    1.07
   3  -1  -7    9.79    0.94
   3  -1  -7    9.55    1.02
   3  -1  -7    8.33    0.87
  -3   1   7    9.48    1.15
  -3   1   7    8.16    0.94
   2  -1  -7    8.20    0.76
   2  -1  -7    7.66    0.78
   2  -1  -7    6.33    0.88
   2  -1  -7    9.25    0.90
  -2   1   7    5.51    0.86
  -2   1   7    6.65    0.72
   1  -1  -7   51.75    2.37
   1  -1  -7   58.45    2.57
   1  -1  -7   61.16    2.50
   1  -1  -7   53.25    2.45
   1  -1  -7   55.50    2.33
  -1   1   7   50.39    2.51
  -1   1   7   56.18    2.29
  -1   1   7   56.45    2.48
  -1   1   7   53.44    2.29
   0  -1  -7   27.51    1.47
   0  -1  -7   27.95    1.35
   0  -1  -7   27.48    1.45
   0  -1  -7   27.97    1.02
   0  -1  -7   29.11    1.46
   0  -1  -7   26.66    1.54
   0  -1  -7   28.05    1.36
   0   1   7   29.05    1.35
   0   1   7   28.19    1.36
   0   1   7   27.12    1.49
   0   1   7   29.28    1.60
  -1  -1  -7   49.04    2.18
  -1  -1  -7   50.14    2.11
  -1  -1  -7   55.00    2.10
  -1  -1  -7   52.64    2.23
  -1  -1  -7   49.42    2.26
  -1  -1  -7   48.82    2.29
  -1  -1  -7   49.94    2.08
   1   1   7   50.37    2.10
   1   1   7   52.12    2.22
   1   1   7   49.45    2.23
   1   1   7   52.32    2.13
   1   1   7   51.48    2.08
   1   1   7   50.90    2.31
  -2  -1  -7   40.24    1.64
  -2  -1  -7   38.95    1.79
  -2  -1  -7   38.28    1.68
  -2  -1  -7   39.07    1.89
  -2  -1  -7   41.57    1.87
  -2  -1  -7   39.48    1.79
   2   1   7   39.23    1.90
   2   1   7   38.25    1.81
   2   1   7   39.49    1.72
   2   1   7   43.24    1.86
   2   1   7   37.63    1.70
  -3  -1  -7    0.01    0.21
  -3  -1  -7    0.17    0.14
  -3  -1  -7    0.71    0.30
  -3  -1  -7    0.17    0.29
   3   1   7    0.42    0.27
   3   1   7    0.09    0.25
   3   1   7    0.21    0.24
   3   1   7    0.24    0.27
   3   1   7    0.31    0.22
   3   1   7    0.35    0.29
  -4  -1  -7   22.87    1.30
  -4  -1  -7   22.86    1.28
  -4  -1  -7   22.72    1.22
   4   1   7   22.79    1.21
   4   1   7   23.17    1.30
   4   1   7   20.52    1.23
   4   1   7   24.27    1.24
   4   1   7   24.35    1.30
   4   1   7   20.99    1.20
  -5  -1  -7   27.56    1.49
  -5  -1  -7   25.49    1.46
   5   1   7   29.01    1.49
   5   1   7   27.23    1.49
   5   1   7   24.86    1.36
   5   1   7   25.20    1.40
   5   1   7   25.88    1.40
  -6  -1  -7    0.19    0.34
   6   1   7   -0.08    0.29
   6   1   7    0.68    0.33
  -7  -1  -7    7.71    1.13
   7   1   7    8.61    0.87
   7   1   7    8.66    0.84
  -8  -1  -7    4.33    0.99
   8   1   7    6.38    0.80
   8   1   7    4.57    0.76
   4  -2  -7   14.99    1.43
   4  -2  -7   17.65    1.32
   4  -2  -7   18.56    1.46
  -4   2   7   18.41    1.46
   3  -2  -7    1.34    0.56
   3  -2  -7    1.75    0.54
   3  -2  -7    3.41    0.73
   3  -2  -7    2.31    0.55
  -3   2   7    1.65    0.56
   2  -2  -7   32.24    1.65
   2  -2  -7   28.38    1.47
   2  -2  -7   27.46    1.66
   2  -2  -7   27.76    1.69
  -2   2   7   27.40    1.71
   1  -2  -7    4.98    0.77
   1  -2  -7    4.35    0.63
   1  -2  -7    4.87    0.51
   1  -2  -7    4.79    0.53
   1  -2  -7    4.21    0.67
   1  -2  -7    5.14    0.88
  -1   2   7    4.45    0.50
  -1   2   7    6.28    1.22
  -1   2   7    5.98    0.84
   0  -2  -7    9.20    0.86
   0  -2  -7    8.30    0.77
   0  -2  -7    9.24    0.79
   0  -2  -7   10.06    0.67
   0  -2  -7    9.43    0.64
   0  -2  -7    8.72    0.76
   0   2   7   10.73    0.67
   0   2   7    8.38    0.88
   0   2   7    9.11    0.80
   0   2   7    8.11    0.61
  -1  -2  -7   56.65    2.48
  -1  -2  -7   60.31    2.29
  -1  -2  -7   59.86    2.63
  -1  -2  -7   61.14    2.52
  -1  -2  -7   63.95    2.64
  -1  -2  -7   58.60    2.44
   1   2   7   58.96    2.30
   1   2   7   60.49    2.55
   1   2   7   61.61    2.30
   1   2   7   56.99    2.60
  -2  -2  -7    5.47    0.70
  -2  -2  -7    4.22    0.61
  -2  -2  -7    4.61    0.59
  -2  -2  -7    4.40    0.46
  -2  -2  -7    3.02    0.51
   2   2   7    3.49    0.42
   2   2   7    3.82    0.60
   2   2   7    3.42    0.54
   2   2   7    3.91    0.42
   2   2   7    4.27    0.58
  -3  -2  -7   43.83    2.08
  -3  -2  -7   43.78    1.75
  -3  -2  -7   43.33    2.05
  -3  -2  -7   47.24    1.98
  -3  -2  -7   42.60    1.96
   3   2   7   44.70    1.84
   3   2   7   51.41    2.09
   3   2   7   43.42    1.82
   3   2   7   43.17    2.04
   3   2   7   45.18    1.98
  -4  -2  -7   32.74    1.26
  -4  -2  -7   34.66    1.72
  -4  -2  -7   32.23    1.65
  -4  -2  -7   33.05    1.60
   4   2   7   33.27    1.50
   4   2   7   31.57    1.57
   4   2   7   32.98    1.64
   4   2   7   30.35    1.62
   4   2   7   33.38    1.51
  -5  -2  -7   -0.31    0.24
  -5  -2  -7    0.32    0.26
  -5  -2  -7    0.30    0.30
  -5  -2  -7   -0.09    0.07
  -5  -2  -7    0.04    0.09
   5   2   7    0.56    0.32
   5   2   7    0.33    0.30
   5   2   7    0.00    0.24
   5   2   7   -0.17    0.23
   5   2   7    0.12    0.28
  -6  -2  -7   27.37    1.55
   6   2   7   27.51    1.46
   6   2   7   28.00    1.50
   6   2   7   26.58    1.51
  -7  -2  -7    5.77    0.80
   7   2   7    7.78    0.84
   7   2   7    7.27    0.82
  -8  -2  -7    4.09    0.92
   8   2   7    3.63    0.71
   8   2   7    3.48    0.65
   4  -3  -7    0.75    0.52
   4  -3  -7    0.43    0.56
  -4   3   7    1.18    0.64
   3  -3  -7    9.41    0.93
   3  -3  -7   10.11    1.08
   3  -3  -7    9.50    1.10
  -3   3   7    8.62    1.13
   2  -3  -7    9.62    0.92
   2  -3  -7    8.39    0.92
   2  -3  -7    8.59    0.94
  -2   3   7   10.73    1.02
  -2   3   7    9.12    0.97
   1  -3  -7   20.62    1.36
   1  -3  -7   19.27    1.00
   1  -3  -7   18.03    1.16
   1  -3  -7   16.04    1.24
  -1   3   7   19.37    1.30
   0  -3  -7   48.75    2.34
   0  -3  -7   51.13    2.27
   0  -3  -7   51.05    1.94
   0  -3  -7   49.11    2.29
   0  -3  -7   51.25    2.26
   0  -3  -7   50.35    1.95
   0   3   7   50.12    2.35
   0   3   7   53.03    2.30
   0   3   7   51.69    1.93
  -1  -3  -7    0.06    0.14
  -1  -3  -7    0.29    0.31
  -1  -3  -7    0.48    0.31
  -1  -3  -7    0.14    0.27
  -1  -3  -7   -0.12    0.21
  -1  -3  -7    0.15    0.30
   1   3   7    0.27    0.28
   1   3   7   -0.03    0.16
   1   3   7    0.06    0.30
   1   3   7    0.22    0.17
  -2  -3  -7   49.68    2.18
  -2  -3  -7   50.56    2.31
  -2  -3  -7   55.32    2.21
  -2  -3  -7   46.92    2.05
  -2  -3  -7   49.39    2.28
   2   3   7   49.91    1.89
   2   3   7   45.26    2.13
   2   3   7   49.31    2.25
   2   3   7   50.07    1.91
  -3  -3  -7   25.94    1.29
  -3  -3  -7   26.65    1.54
  -3  -3  -7   29.58    1.47
  -3  -3  -7   30.02    1.59
  -3  -3  -7   29.37    1.49
   3   3   7   29.24    1.46
   3   3   7   31.74    1.54
   3   3   7   29.17    1.27
   3   3   7   29.58    1.57
   3   3   7   29.14    1.26
  -4  -3  -7    7.75    0.80
  -4  -3  -7    9.08    0.76
  -4  -3  -7    8.48    0.57
  -4  -3  -7    8.93    0.81
   4   3   7    9.09    0.83
   4   3   7    7.55    0.72
   4   3   7    8.71    0.63
   4   3   7    9.35    0.82
   4   3   7    9.20    0.80
   4   3   7    8.59    0.63
  -5  -3  -7   23.08    1.04
  -5  -3  -7   24.15    1.44
  -5  -3  -7   27.85    1.50
  -5  -3  -7   24.01    1.36
   5   3   7   25.43    1.36
   5   3   7   22.30    1.35
   5   3   7   22.60    1.24
   5   3   7   27.79    1.46
   5   3   7   26.06    1.69
  -6  -3  -7    0.94    0.44
   6   3   7    1.07    0.41
   6   3   7    1.96    0.46
   6   3   7    1.03    0.42
  -7  -3  -7    2.32    0.62
   7   3   7    3.46    0.65
   7   3   7    2.82    0.61
   8   3   7    4.11    0.74
   8   3   7    4.14    0.79
   3  -4  -7    0.39    0.49
   3  -4  -7    0.65    0.45
   3  -4  -7    0.72    0.58
  -3   4   7    0.06    0.52
   2  -4  -7   19.97    1.40
   2  -4  -7   20.03    1.27
   2  -4  -7   17.42    1.42
  -2   4   7   16.17    1.31
   1  -4  -7   19.45    1.41
   1  -4  -7   22.80    1.48
   1  -4  -7   22.48    1.32
  -1   4   7   21.00    1.38
   0  -4  -7    2.35    0.54
   0  -4  -7    2.13    0.24
   0  -4  -7    2.77    0.60
   0  -4  -7    3.03    0.54
   0   4   7    2.55    0.57
  -1  -4  -7   34.70    1.67
  -1  -4  -7   33.68    1.87
  -1  -4  -7   34.77    1.80
  -1  -4  -7   35.18    1.72
  -1  -4  -7   33.11    1.70
   1   4   7   31.58    1.66
   1   4   7   33.99    1.77
  -2  -4  -7    5.34    0.59
  -2  -4  -7    4.03    0.60
  -2  -4  -7    4.95    0.73
  -2  -4  -7    4.86    0.72
  -2  -4  -7    3.90    0.55
   2   4   7    4.40    0.32
   2   4   7    4.10    0.66
   2   4   7    4.34    0.61
   2   4   7    4.22    0.31
  -3  -4  -7    5.22    0.74
  -3  -4  -7    6.15    0.63
  -3  -4  -7    6.22    0.59
  -3  -4  -7    5.90    0.79
  -3  -4  -7    5.85    0.65
   3   4   7    5.12    0.43
   3   4   7    5.44    0.73
   3   4   7    7.13    0.67
   3   4   7    5.67    0.43
  -4  -4  -7    9.18    0.87
  -4  -4  -7    8.66    0.63
  -4  -4  -7    8.75    0.76
  -4  -4  -7    8.95    0.85
  -4  -4  -7    8.90    0.80
   4   4   7    7.69    0.58
   4   4   7    8.41    0.76
   4   4   7    7.64    0.57
   4   4   7    9.64    0.84
  -5  -4  -7    3.22    0.62
  -5  -4  -7    2.90    0.55
  -5  -4  -7    3.52    0.65
   5   4   7    2.81    0.53
   5   4   7    2.83    0.44
   5   4   7    2.91    0.57
   5   4   7    2.59    0.55
  -6  -4  -7    0.91    0.46
   6   4   7    0.73    0.31
   6   4   7    1.35    0.43
   6   4   7    0.57    0.42
  -7  -4  -7    7.07    1.00
   7   4   7    9.82    0.91
   7   4   7    8.52    0.92
  -8  -4  -7    3.66    0.79
   8   4   7    2.48    0.67
   8   4   7    2.84    0.64
   3  -5  -7    2.75    0.69
   3  -5  -7    1.95    0.69
  -3   5   7    0.73    0.60
   2  -5  -7    0.53    0.39
   2  -5  -7    0.15    0.41
   2  -5  -7    0.09    0.43
  -2   5   7   -0.05    0.44
   1  -5  -7    0.65    0.44
   1  -5  -7    0.50    0.40
   1  -5  -7    1.08    0.45
  -1   5   7    0.60    0.48
   0  -5  -7    0.02    0.33
   0  -5  -7    0.62    0.35
   0  -5  -7    1.09    0.46
   0   5   7    0.37    0.38
  -1  -5  -7   17.17    1.31
  -1  -5  -7   21.17    1.28
  -1  -5  -7   16.39    1.20
  -1  -5  -7   16.76    1.12
   1   5   7   16.72    1.19
  -2  -5  -7    4.86    0.77
  -2  -5  -7    5.01    0.71
  -2  -5  -7    5.41    0.70
  -2  -5  -7    4.19    0.69
   2   5   7    4.66    0.71
  -3  -5  -7   28.87    1.53
  -3  -5  -7   32.30    1.78
  -3  -5  -7   31.89    1.60
  -3  -5  -7   28.05    1.56
  -3  -5  -7   32.85    1.75
   3   5   7   30.15    1.17
   3   5   7   30.53    1.55
   3   5   7   29.48    1.62
   3   5   7   30.66    1.16
  -4  -5  -7   31.63    1.70
  -4  -5  -7   33.60    1.68
  -4  -5  -7   30.56    1.76
  -4  -5  -7   34.08    1.85
   4   5   7   34.80    1.76
   4   5   7   32.78    1.36
   4   5   7   34.82    1.69
   4   5   7   33.93    1.38
  -5  -5  -7   13.56    1.11
  -5  -5  -7   11.90    0.99
   5   5   7   14.53    1.01
   5   5   7   12.16    0.78
   5   5   7   11.76    1.01
  -6  -5  -7   43.17    2.24
   6   5   7   38.18    2.09
   6   5   7   45.13    2.09
  -7  -5  -7   -0.21    0.42
   7   5   7    0.00    0.37
   7   5   7    0.32    0.48
  -8  -5  -7   10.63    1.17
   8   5   7    9.46    1.17
   8   5   7    9.26    1.02
   2  -6  -7    2.45    0.60
   2  -6  -7    2.66    0.70
   2  -6  -7    2.84    0.71
  -2   6   7    3.46    0.84
   1  -6  -7   13.92    1.30
   1  -6  -7   16.80    1.24
   1  -6  -7   12.91    1.05
  -1   6   7   14.14    1.23
   0  -6  -7   22.49    1.53
   0  -6  -7   27.51    1.52
   0  -6  -7   26.94    1.68
   0   6   7   24.52    1.56
  -1  -6  -7   10.53    0.91
  -1  -6  -7   11.85    1.03
  -1  -6  -7    8.66    0.92
   1   6   7   11.50    1.02
  -2  -6  -7   51.62    2.44
  -2  -6  -7   50.13    2.38
  -2  -6  -7   53.13    2.36
   2   6   7   49.37    2.37
  -3  -6  -7    0.04    0.27
  -3  -6  -7    0.27    0.35
  -3  -6  -7    0.29    0.33
   3   6   7    0.18    0.35
  -4  -6  -7   25.64    1.49
  -4  -6  -7   26.17    1.60
   4   6   7   23.80    1.48
  -5  -6  -7    6.26    0.85
  -5  -6  -7    6.24    0.90
   5   6   7    7.72    0.87
  -6  -6  -7   -0.01    0.37
   6   6   7   -0.16    0.37
  -7  -6  -7    2.70    0.74
   7   6   7    3.69    0.75
  -8  -6  -7    4.17    0.90
   8   6   7    2.73    0.87
   1  -7  -7    0.24    0.49
   1  -7  -7   -0.19    0.38
   1  -7  -7   -0.30    0.38
  -1   7   7    0.38    0.49
   0  -7  -7    4.66    0.87
   0  -7  -7    3.50    0.73
   0  -7  -7    4.21    0.68
   0   7   7    5.08    0.86
  -1  -7  -7    4.65    0.81
  -1  -7  -7    5.74    0.86
  -1  -7  -7    4.27    0.70
   1   7   7    3.98    0.71
  -2  -7  -7    0.69    0.46
  -2  -7  -7    1.84    0.53
  -2  -7  -7    2.34    0.61
   2   7   7    1.54    0.54
  -3  -7  -7    4.06    0.70
  -3  -7  -7    3.10    0.66
   3   7   7    4.11    0.71
  -4  -7  -7   14.19    1.19
  -4  -7  -7   16.33    1.20
   4   7   7   15.39    1.19
  -5  -7  -7    1.92    0.62
  -5  -7  -7    2.02    0.59
   5   7   7    1.22    0.50
  -6  -7  -7    9.57    1.20
   6   7   7    9.10    1.02
  -7  -7  -7    5.34    0.99
   7   7   7    7.15    1.03
   0  -8  -7    3.60    0.68
   0  -8  -7    2.94    0.77
   0  -8  -7    3.75    0.77
   0   8   7    3.77    0.78
  -1  -8  -7    1.30    0.53
  -1  -8  -7    0.74    0.44
  -1  -8  -7    1.00    0.56
   1   8   7    0.40    0.47
  -2  -8  -7    4.60    0.85
  -2  -8  -7    4.37    0.72
  -2  -8  -7    6.16    0.90
   2   8   7    5.47    0.83
  -3  -8  -7    9.03    0.93
  -3  -8  -7   10.64    1.10
  -4  -8  -7    0.76    0.43
  -4  -8  -7    0.17    0.42
  -5  -8  -7    2.49    0.65
  -5  -8  -7    2.85    0.74
   5   8   7    4.17    0.74
  -6  -8  -7    3.26    0.80
   6   8   7    3.19    0.73
  -2  -9  -7    3.73    0.87
  -2  -9  -7    5.34    0.84
  -2  -9  -7    3.44    0.75
   2   9   7    4.89    0.83
  -3  -9  -7   -0.19    0.34
  -3  -9  -7   -0.07    0.43
   3   9   7    0.61    0.47
  -4  -9  -7   11.75    1.09
  -4  -9  -7    9.41    1.09
  -5  -9  -7    2.51    0.69
  -1  -8   8   -0.11    0.51
   0  -8   8    3.55    0.86
   0  -8   8    1.60    0.58
   0  -8   8    2.67    0.72
   1  -8   8    7.49    1.18
   1  -8   8    6.18    0.91
   1  -8   8    8.27    1.02
   2  -8   8    2.89    0.99
   2  -8   8    2.12    0.58
  -2  -7   8    0.99    0.60
  -2  -7   8    1.39    0.66
  -2  -7   8    0.38    0.63
  -1  -7   8    6.28    1.05
  -1  -7   8    3.75    0.82
  -1  -7   8    4.92    0.88
   0  -7   8   12.49    1.15
   0  -7   8   12.06    1.26
   0  -7   8   12.04    1.17
   1  -7   8    0.25    0.53
   1  -7   8    0.98    0.47
   1  -7   8    0.92    0.48
   2  -7   8    9.44    0.93
   2  -7   8   10.35    1.19
   2  -7   8    8.40    0.94
   3  -7   8   17.03    1.20
   3  -7   8   18.27    1.23
   3  -7   8   19.89    1.60
   4  -7   8    0.02    0.34
   3   6  -8    2.18    0.71
  -3  -6   8    2.58    0.97
  -3  -6   8    2.79    0.84
   2   6  -8    9.52    1.07
  -2  -6   8   10.74    1.23
  -2  -6   8    8.97    1.18
  -2  -6   8   11.33    1.24
   1   6  -8   22.95    1.49
  -1  -6   8   25.59    1.74
  -1  -6   8   21.93    1.55
   0  -6   8   -0.15    0.40
   0  -6   8    0.27    0.48
   0  -6   8   -0.26    0.33
   1  -6   8   27.80    1.82
   1  -6   8   27.85    1.64
   1  -6   8   26.71    1.65
   2  -6   8   14.88    1.15
   2  -6   8   14.86    1.13
   2  -6   8   19.36    1.46
   3  -6   8    1.49    0.65
   3  -6   8    0.89    0.40
   3  -6   8    0.92    0.42
   4  -6   8   20.28    1.60
   4  -6   8   21.00    1.27
   4  -6   8   21.73    1.30
  -5   6  -8    6.28    1.16
   5  -6   8    9.42    1.43
   5  -6   8    5.00    0.65
   5  -6   8    5.19    0.79
   3   5  -8   17.03    1.42
   3   5  -8   15.57    1.37
  -3  -5   8   14.93    1.49
  -3  -5   8   16.59    1.54
   2   5  -8   13.68    1.23
   2   5  -8   16.42    1.28
  -2  -5   8   15.40    1.39
  -2  -5   8   16.98    1.42
  -2  -5   8   14.97    1.37
   1   5  -8    2.65    0.65
  -1  -5   8    2.73    0.70
  -1  -5   8    2.35    0.62
  -1  -5   8    1.86    0.65
   0   5  -8   32.77    1.78
   0  -5   8   28.88    1.87
   0  -5   8   36.38    1.89
   0  -5   8   34.22    1.91
  -1   5  -8   10.92    0.94
   1  -5   8   12.75    1.06
   1  -5   8   12.56    1.09
   1  -5   8   11.12    1.09
   2  -5   8    5.78    0.80
   2  -5   8    7.91    0.82
   2  -5   8    6.72    0.99
  -3   5  -8   16.80    1.31
   3  -5   8   16.48    1.14
   3  -5   8   17.98    1.20
   3  -5   8   17.14    1.23
   3  -5   8   16.59    1.36
  -4   5  -8    4.17    0.82
   4  -5   8    3.64    0.60
   4  -5   8    4.47    0.90
   4  -5   8    3.47    0.76
   4  -5   8    3.83    0.62
  -5   5  -8    0.55    0.55
   5  -5   8    1.77    0.61
   5  -5   8    1.60    0.49
   5  -5   8    1.91    0.50
  -6   5  -8   10.48    1.47
   6  -5   8   12.77    0.99
   4   4  -8   13.28    1.38
   4   4  -8   13.52    1.60
  -4  -4   8   12.79    1.45
  -4  -4   8   15.51    1.46
   3   4  -8    9.71    1.12
   3   4  -8   11.77    1.16
  -3  -4   8   10.82    1.25
  -3  -4   8   10.69    1.31
   2   4  -8    7.99    1.02
   2   4  -8    6.08    0.91
  -2  -4   8    5.24    0.96
  -2  -4   8    7.19    1.03
  -2  -4   8    7.33    1.04
   1   4  -8   30.58    1.72
   1   4  -8   33.55    1.85
  -1  -4   8   33.04    1.87
  -1  -4   8   31.28    1.88
  -1  -4   8   35.42    2.01
   0   4  -8    1.77    0.49
   0   4  -8    2.49    0.49
   0   4  -8    2.84    0.40
   0  -4   8    0.94    0.50
   0  -4   8    2.92    0.62
   0  -4   8    2.53    0.62
  -1   4  -8    5.41    0.75
  -1   4  -8    6.27    0.87
  -1   4  -8    5.74    0.53
   1  -4   8    5.15    0.78
   1  -4   8    6.43    0.88
   1  -4   8    4.24    0.72
  -2   4  -8   13.23    1.03
  -2   4  -8   12.43    0.81
  -2   4  -8   12.26    0.95
   2  -4   8   12.57    1.09
   2  -4   8   14.12    1.03
   2  -4   8   13.90    1.08
  -3   4  -8    3.35    0.65
  -3   4  -8    3.57    0.52
   3  -4   8    3.78    0.73
   3  -4   8    4.29    0.56
   3  -4   8    3.97    0.64
   3  -4   8    3.69    0.63
  -4   4  -8    3.10    0.51
  -4   4  -8    3.02    0.71
   4  -4   8    3.37    0.59
   4  -4   8    3.61    0.57
   4  -4   8    2.08    0.51
   4  -4   8    3.80    0.73
  -5   4  -8    7.89    0.78
  -5   4  -8    7.57    1.10
   5  -4   8    7.59    0.77
   5  -4   8    8.44    1.07
   5  -4   8    7.42    0.80
  -6   4  -8    4.48    0.97
   6  -4   8    3.84    0.62
   6  -4   8    4.68    0.88
   6  -4   8    3.54    0.60
   4   3  -8    0.35    0.53
   4   3  -8    0.09    0.49
  -4  -3   8   -0.08    0.45
  -4  -3   8   -0.03    0.49
  -4  -3   8    0.02    0.57
   3   3  -8   -0.09    0.42
   3   3  -8   -0.61    0.38
  -3  -3   8   -0.15    0.43
  -3  -3   8    0.66    0.59
   2   3  -8    4.27    0.77
   2   3  -8    3.49    0.72
  -2  -3   8    2.98    0.69
  -2  -3   8    2.85    0.70
  -2  -3   8    3.65    0.82
   1   3  -8   16.91    1.27
   1   3  -8   15.56    1.00
   1   3  -8   17.88    1.20
   1   3  -8   17.86    1.30
  -1  -3   8   16.20    1.25
  -1  -3   8   15.97    1.31
  -1  -3   8   17.70    1.29
   0   3  -8    0.15    0.33
   0   3  -8    0.40    0.25
   0   3  -8   -0.21    0.27
   0   3  -8    0.30    0.32
   0   3  -8    0.52    0.37
   0  -3   8    0.22    0.38
   0  -3   8    0.27    0.37
   0  -3   8    0.10    0.35
   0  -3   8   -0.47    0.29
  -1   3  -8   34.57    1.77
  -1   3  -8   34.75    1.88
  -1   3  -8   34.48    1.55
  -1   3  -8   35.65    1.59
   1  -3   8   32.80    1.77
   1  -3   8   32.81    1.85
   1  -3   8   32.01    1.82
   1  -3   8   34.28    1.84
  -2   3  -8   17.59    1.16
  -2   3  -8   18.53    1.02
  -2   3  -8   14.62    1.05
  -2   3  -8   18.57    1.29
   2  -3   8   19.43    1.31
   2  -3   8   16.52    1.22
   2  -3   8   18.29    1.20
   2  -3   8   17.87    1.22
   2  -3   8   18.49    0.97
  -3   3  -8    7.86    0.74
  -3   3  -8    5.16    0.79
  -3   3  -8    6.67    0.64
  -3   3  -8    6.18    0.76
   3  -3   8    7.40    0.98
   3  -3   8    5.91    0.78
   3  -3   8    7.05    0.65
   3  -3   8    7.62    0.94
   3  -3   8    6.26    0.77
  -4   3  -8   56.63    2.33
  -4   3  -8   48.08    2.47
   4  -3   8   52.53    2.49
   4  -3   8   51.79    2.38
   4  -3   8   52.01    2.33
   4  -3   8   52.52    2.29
  -5   3  -8    3.25    0.73
  -5   3  -8    4.73    0.68
   5  -3   8    3.60    0.56
   5  -3   8    2.62    0.65
   5  -3   8    5.22    0.72
  -6   3  -8   23.16    1.71
   6  -3   8   22.52    1.35
   6  -3   8   25.99    1.66
   6  -3   8   25.21    1.47
  -7   3  -8    9.20    1.32
   7  -3   8   11.35    0.98
   7  -3   8   12.30    0.94
   7  -3   8   11.81    1.23
   4   2  -8    1.62    0.65
   4   2  -8    0.64    0.52
  -4  -2   8    0.33    0.59
  -4  -2   8    0.53    0.63
  -4  -2   8    0.68    0.54
   3   2  -8   17.25    1.40
   3   2  -8   12.90    1.16
   3   2  -8   18.83    1.50
  -3  -2   8   15.87    1.31
  -3  -2   8   18.67    1.53
   2   2  -8    7.57    0.92
   2   2  -8    6.37    0.93
   2   2  -8    8.08    0.92
  -2  -2   8    7.18    0.93
  -2  -2   8    7.26    1.05
   1   2  -8   10.33    1.00
   1   2  -8   10.90    0.90
   1   2  -8   10.63    0.85
   1   2  -8   10.29    0.95
   1   2  -8   11.38    0.96
  -1  -2   8   10.83    1.08
  -1  -2   8    9.58    0.98
  -1  -2   8   10.79    0.99
  -1  -2   8   11.55    1.01
   0   2  -8   29.24    1.66
   0   2  -8   29.40    1.48
   0   2  -8   28.91    1.67
   0   2  -8   31.86    1.55
   0  -2   8   30.49    1.77
   0  -2   8   34.36    1.69
   0  -2   8   30.55    1.71
   0  -2   8   30.94    1.70
   0  -2   8   24.88    1.58
  -1   2  -8    1.67    0.34
  -1   2  -8    2.04    0.42
  -1   2  -8    2.28    0.51
  -1   2  -8    1.59    0.48
  -1   2  -8    1.74    0.35
  -1   2  -8    2.56    0.47
   1  -2   8    1.52    0.45
   1  -2   8    1.36    0.44
   1  -2   8    1.10    0.41
   1  -2   8    1.38    0.43
   1  -2   8    2.11    0.54
  -2   2  -8   23.58    1.07
  -2   2  -8   24.96    1.24
  -2   2  -8   22.88    1.34
  -2   2  -8   18.69    1.31
  -2   2  -8   21.47    1.20
   2  -2   8   20.43    1.30
   2  -2   8   22.77    1.37
   2  -2   8   23.80    1.41
   2  -2   8   24.35    1.10
   2  -2   8   21.60    1.37
   2  -2   8   20.46    1.28
  -3   2  -8   22.88    1.42
  -3   2  -8   23.39    1.39
  -3   2  -8   24.39    1.30
  -3   2  -8   26.11    1.39
   3  -2   8   23.79    1.37
   3  -2   8   21.77    1.39
   3  -2   8   23.27    1.36
   3  -2   8   24.73    1.00
   3  -2   8   24.59    1.31
   3  -2   8   24.66    1.46
   3  -2   8   28.02    1.51
  -4   2  -8    0.20    0.30
  -4   2  -8    0.14    0.26
  -4   2  -8    0.35    0.31
   4  -2   8    0.43    0.59
   4  -2   8    0.39    0.34
   4  -2   8   -0.02    0.26
   4  -2   8   -0.26    0.21
   4  -2   8    0.12    0.31
  -5   2  -8    6.40    0.93
  -5   2  -8    7.79    0.78
   5  -2   8    6.80    0.90
   5  -2   8    6.11    0.67
   5  -2   8    7.50    0.81
  -6   2  -8   12.71    1.25
   6  -2   8   14.51    1.07
   6  -2   8   13.25    0.96
   6  -2   8   13.59    1.16
  -7   2  -8    2.00    0.70
   7  -2   8    1.40    0.58
   7  -2   8    1.12    0.42
   7  -2   8    1.42    0.51
   4   1  -8    1.51    0.65
   4   1  -8    2.19    0.66
   4   1  -8    2.65    0.80
  -4  -1   8    2.13    0.78
  -4  -1   8    1.68    0.60
   3   1  -8   -0.24    0.27
   3   1  -8    0.26    0.47
   3   1  -8   -0.25    0.33
  -3  -1   8   -0.08    0.49
  -3  -1   8   -0.11    0.43
   2   1  -8   -0.44    0.34
   2   1  -8   -0.13    0.36
   2   1  -8   -0.02    0.30
   2   1  -8    0.06    0.36
  -2  -1   8    0.05    0.46
  -2  -1   8    0.66    0.40
   1   1  -8   11.99    0.95
   1   1  -8   12.36    1.09
   1   1  -8   13.06    1.00
   1   1  -8   12.59    1.02
  -1  -1   8   11.03    1.11
  -1  -1   8   10.33    1.00
  -1  -1   8   11.74    0.99
  -1  -1   8   11.20    0.96
   0   1  -8   13.12    1.00
   0   1  -8   14.73    1.13
   0   1  -8   15.09    1.02
   0   1  -8   15.37    1.00
   0   1  -8   14.33    1.06
   0  -1   8   15.33    1.07
   0  -1   8   15.24    1.20
   0  -1   8   16.29    1.10
   0  -1   8   15.36    1.09
   0  -1   8   17.59    1.19
  -1   1  -8    9.19    0.61
  -1   1  -8    9.50    0.72
  -1   1  -8   10.80    0.80
  -1   1  -8    9.75    0.89
  -1   1  -8   11.13    0.89
  -1   1  -8    8.94    0.78
   1  -1   8   11.22    0.91
   1  -1   8    8.87    0.90
   1  -1   8   11.84    0.91
   1  -1   8    9.19    0.86
   1  -1   8    8.04    0.81
  -2   1  -8   52.45    2.05
  -2   1  -8   51.16    2.38
  -2   1  -8   50.92    2.15
  -2   1  -8   51.68    2.35
  -2   1  -8   55.20    2.28
  -2   1  -8   52.95    2.27
   2  -1   8   52.49    2.36
   2  -1   8   55.69    2.09
   2  -1   8   54.50    2.39
   2  -1   8   48.47    2.41
   2  -1   8   56.38    2.42
   2  -1   8   53.81    2.36
  -3   1  -8   12.05    0.87
  -3   1  -8   13.54    0.87
  -3   1  -8   13.31    1.00
  -3   1  -8   10.57    0.85
  -3   1  -8   11.19    0.91
   3  -1   8   11.54    0.91
   3  -1   8   13.67    0.98
   3  -1   8   13.39    0.92
   3  -1   8    9.62    0.91
   3  -1   8   10.91    0.89
   3  -1   8   11.14    0.90
  -4   1  -8   49.70    2.26
  -4   1  -8   47.34    2.27
  -4   1  -8   50.06    2.21
   4  -1   8   52.55    2.26
   4  -1   8   47.28    2.26
   4  -1   8   49.39    2.26
   4  -1   8   48.71    2.18
   4  -1   8   48.91    2.27
  -5   1  -8   43.73    2.31
  -5   1  -8   46.16    2.18
  -5   1  -8   48.29    2.19
   5  -1   8   48.15    2.25
   5  -1   8   48.03    2.22
   5  -1   8   47.01    2.10
  -6   1  -8    8.72    1.03
   6  -1   8   11.38    1.01
   6  -1   8   11.17    0.90
   6  -1   8    9.84    0.95
  -7   1  -8   14.63    1.38
   7  -1   8   13.39    1.09
   7  -1   8   15.13    1.08
  -8   1  -8   -0.06    0.53
   4   0  -8    4.34    0.82
  -4   0   8    6.45    0.99
   3   0  -8    5.80    0.94
   3   0  -8    5.26    0.92
   3   0  -8    6.84    0.92
  -3   0   8    4.61    0.94
   2   0  -8   20.93    1.33
   2   0  -8   19.13    1.43
   2   0  -8   18.36    1.36
   2   0  -8   21.18    1.34
  -2   0   8   18.31    1.27
  -2   0   8   17.75    1.44
   1   0  -8    1.01    0.45
   1   0  -8    1.89    0.44
   1   0  -8    1.17    0.50
   1   0  -8    1.81    0.49
  -1   0   8    1.84    0.53
  -1   0   8    1.15    0.45
  -1   0   8    0.89    0.50
  -1   0   8    1.58    0.50
   0   0  -8   25.44    1.42
   0   0  -8   22.07    1.30
   0   0  -8   23.93    1.37
   0   0  -8   21.41    1.43
   0   0  -8   24.88    1.37
   0   0  -8   22.09    1.32
   0   0   8   21.57    1.39
   0   0   8   23.47    1.50
   0   0   8   23.21    1.30
   0   0   8   22.40    1.28
  -1   0  -8   60.20    2.47
  -1   0  -8   55.19    2.39
  -1   0  -8   54.92    2.54
  -1   0  -8   55.27    2.30
  -1   0  -8   53.62    2.35
  -1   0  -8   55.26    2.07
   1   0   8   51.27    2.51
   1   0   8   57.06    2.49
   1   0   8   53.57    2.34
   1   0   8   55.37    2.38
  -2   0  -8    7.75    0.70
  -2   0  -8    8.96    0.73
  -2   0  -8    7.68    0.73
  -2   0  -8    7.33    0.62
  -2   0  -8    9.24    0.84
  -2   0  -8    7.82    0.58
   2   0   8    9.31    0.81
   2   0   8    8.43    0.76
   2   0   8    6.54    0.69
   2   0   8    8.68    0.63
   2   0   8    6.96    0.75
   2   0   8    8.02    0.81
  -3   0  -8   41.03    1.83
  -3   0  -8   41.85    1.87
  -3   0  -8   37.82    1.77
  -3   0  -8   37.31    1.45
  -3   0  -8   37.07    1.89
   3   0   8   39.22    1.88
   3   0   8   37.13    1.78
   3   0   8   35.84    1.81
   3   0   8   36.92    1.80
   3   0   8   36.94    1.91
  -4   0  -8    0.14    0.30
  -4   0  -8   -0.11    0.21
  -4   0  -8    0.44    0.31
  -4   0  -8   -0.05    0.28
   4   0   8    0.47    0.33
   4   0   8    0.44    0.36
   4   0   8    0.21    0.28
   4   0   8    0.42    0.33
   4   0   8    0.66    0.33
   4   0   8    0.46    0.34
  -5   0  -8    0.74    0.39
  -5   0  -8    1.39    0.50
  -5   0  -8    0.75    0.38
   5   0   8    0.18    0.32
   5   0   8    0.19    0.31
   5   0   8    0.71    0.38
   5   0   8    0.71    0.39
  -6   0  -8    0.45    0.37
  -6   0  -8    0.10    0.41
   6   0   8    0.98    0.39
   6   0   8    0.52    0.37
   6   0   8    0.79    0.45
  -7   0  -8   11.40    1.22
   7   0   8   12.81    0.99
   7   0   8   10.91    0.96
  -8   0  -8    0.72    0.58
   8   0   8    0.40    0.40
   8   0   8    0.83    0.49
   3  -1  -8   13.14    1.19
   3  -1  -8   12.46    1.23
   3  -1  -8   11.28    1.19
  -3   1   8   12.43    1.31
  -3   1   8   12.20    1.17
   2  -1  -8    9.16    0.98
   2  -1  -8    8.63    0.87
   2  -1  -8    7.64    0.80
   2  -1  -8    7.57    1.01
  -2   1   8    7.74    1.07
  -2   1   8    6.49    0.77
   1  -1  -8   29.86    1.64
   1  -1  -8   27.87    1.64
   1  -1  -8   30.56    1.77
   1  -1  -8   32.36    1.58
  -1   1   8   29.54    1.52
  -1   1   8   29.21    1.78
   0  -1  -8    2.12    0.51
   0  -1  -8    3.14    0.50
   0  -1  -8    2.59    0.53
   0  -1  -8    1.91    0.51
   0  -1  -8    2.39    0.58
   0  -1  -8    3.23    0.56
   0   1   8    2.71    0.47
   0   1   8    2.84    0.58
   0   1   8    1.97    0.57
   0   1   8    2.64    0.47
  -1  -1  -8    0.85    0.38
  -1  -1  -8    0.08    0.32
  -1  -1  -8    0.77    0.34
  -1  -1  -8    1.04    0.40
  -1  -1  -8    0.49    0.27
  -1  -1  -8    0.75    0.23
  -1  -1  -8    0.79    0.29
   1   1   8    0.56    0.29
   1   1   8    0.74    0.30
   1   1   8    0.17    0.32
   1   1   8    0.59    0.43
  -2  -1  -8    4.12    0.67
  -2  -1  -8    4.39    0.47
  -2  -1  -8    5.40    0.71
  -2  -1  -8    5.83    0.63
  -2  -1  -8    3.55    0.49
   2   1   8    3.67    0.65
   2   1   8    4.02    0.57
   2   1   8    3.72    0.60
   2   1   8    4.44    0.64
   2   1   8    3.80    0.53
  -3  -1  -8   25.79    1.44
  -3  -1  -8   25.66    1.12
  -3  -1  -8   26.33    1.40
  -3  -1  -8   25.46    1.49
   3   1   8   25.47    1.42
   3   1   8   25.82    1.32
   3   1   8   26.09    1.45
   3   1   8   24.08    1.45
   3   1   8   27.11    1.35
  -4  -1  -8   11.94    1.02
  -4  -1  -8   13.14    0.51
  -4  -1  -8   13.45    0.99
  -4  -1  -8   13.89    0.94
   4   1   8   13.11    0.95
   4   1   8   12.51    0.97
   4   1   8   12.79    0.88
   4   1   8   12.28    0.97
   4   1   8   11.69    0.98
   4   1   8   11.83    0.88
  -5  -1  -8   19.81    1.27
  -5  -1  -8   18.59    1.27
   5   1   8   21.29    1.24
   5   1   8   19.21    1.19
   5   1   8   20.11    1.22
   5   1   8   19.47    1.26
  -6  -1  -8   27.37    1.60
  -6  -1  -8   26.64    1.70
  -7  -1  -8    0.56    0.50
   7   1   8    0.32    0.38
   7   1   8    0.68    0.44
  -8  -1  -8   26.93    2.06
   8   1   8   30.17    1.75
   8   1   8   30.36    1.69
   3  -2  -8    6.34    1.03
   3  -2  -8    8.06    1.06
   3  -2  -8    5.98    0.98
  -3   2   8    5.75    0.98
   2  -2  -8    2.42    0.59
   2  -2  -8    1.41    0.57
   2  -2  -8    2.46    0.66
  -2   2   8    2.44    0.67
   1  -2  -8   -0.14    0.32
   1  -2  -8    0.80    0.31
   1  -2  -8    0.25    0.42
   1  -2  -8    0.65    0.39
  -1   2   8    0.70    0.51
  -1   2   8    0.35    0.32
   0  -2  -8   21.28    1.30
   0  -2  -8   23.03    1.16
   0  -2  -8   20.52    1.32
   0  -2  -8   26.05    1.38
   0  -2  -8   20.74    1.41
   0   2   8   21.45    1.14
   0   2   8   19.33    1.39
   0   2   8   20.77    1.11
  -1  -2  -8    4.01    0.47
  -1  -2  -8    3.07    0.64
  -1  -2  -8    3.31    0.62
  -1  -2  -8    3.92    0.63
  -1  -2  -8    4.15    0.59
   1   2   8    3.55    0.67
   1   2   8    4.20    0.48
   1   2   8    4.45    0.66
   1   2   8    3.28    0.46
  -2  -2  -8   49.83    2.36
  -2  -2  -8   49.81    2.12
  -2  -2  -8   53.45    2.29
  -2  -2  -8   51.87    2.28
  -2  -2  -8   52.15    2.41
  -2  -2  -8   50.30    2.03
   2   2   8   51.09    2.10
   2   2   8   50.69    2.30
   2   2   8   49.75    2.06
   2   2   8   47.48    2.35
  -3  -2  -8    2.04    0.49
  -3  -2  -8    1.68    0.43
  -3  -2  -8    1.76    0.33
  -3  -2  -8    1.57    0.46
   3   2   8    1.32    0.35
   3   2   8    1.34    0.36
   3   2   8    1.80    0.47
   3   2   8    1.33    0.42
   3   2   8    1.08    0.44
  -4  -2  -8   43.98    1.68
  -4  -2  -8   45.46    2.14
  -4  -2  -8   42.29    2.14
  -4  -2  -8   46.17    2.07
   4   2   8   42.68    2.11
   4   2   8   45.28    2.13
   4   2   8   43.80    1.91
   4   2   8   44.82    1.95
   4   2   8   44.03    2.15
   4   2   8   42.51    2.02
  -5  -2  -8   22.77    1.43
  -5  -2  -8   23.44    1.42
   5   2   8   18.92    1.25
   5   2   8   21.12    1.24
   5   2   8   23.58    1.27
  -6  -2  -8   13.51    1.12
   6   2   8   13.62    1.17
   6   2   8   12.34    1.06
   6   2   8   12.52    1.00
   7   2   8   20.79    1.36
   7   2   8   24.01    1.47
  -8  -2  -8    0.62    0.59
   8   2   8    0.33    0.44
   8   2   8    0.65    0.43
   3  -3  -8    2.90    0.77
   3  -3  -8    2.41    0.76
   3  -3  -8    4.11    0.78
  -3   3   8    3.42    0.88
   2  -3  -8   14.75    1.31
   2  -3  -8   12.68    1.10
   2  -3  -8   14.28    1.25
  -2   3   8   12.19    1.18
   1  -3  -8    1.87    0.52
   1  -3  -8    1.17    0.53
   1  -3  -8    3.28    0.70
  -1   3   8    1.35    0.53
   0  -3  -8   17.40    1.14
   0  -3  -8   16.52    0.88
   0  -3  -8   15.61    1.21
   0  -3  -8   17.50    1.21
   0   3   8   14.50    0.84
   0   3   8   17.34    1.27
  -1  -3  -8    4.17    0.75
  -1  -3  -8    5.06    0.70
  -1  -3  -8    3.45    0.38
  -1  -3  -8    3.02    0.62
  -1  -3  -8    3.68    0.63
   1   3   8    3.47    0.67
   1   3   8    4.42    0.42
   1   3   8    3.63    0.65
   1   3   8    3.41    0.42
  -2  -3  -8    1.05    0.44
  -2  -3  -8    2.23    0.51
  -2  -3  -8    2.29    0.52
  -2  -3  -8    2.01    0.43
  -2  -3  -8    1.71    0.49
   2   3   8    2.62    0.38
   2   3   8    2.13    0.34
   2   3   8    2.14    0.51
   2   3   8    2.02    0.52
  -3  -3  -8   19.09    1.29
  -3  -3  -8   17.21    1.15
  -3  -3  -8   19.19    1.31
  -3  -3  -8   17.94    1.26
  -3  -3  -8   17.31    0.99
   3   3   8   16.13    0.94
   3   3   8   18.01    0.97
   3   3   8   18.48    1.24
   3   3   8   17.10    1.14
  -4  -3  -8    5.08    0.77
  -4  -3  -8    6.10    0.49
  -4  -3  -8    5.32    0.79
  -4  -3  -8    5.53    0.70
   4   3   8    4.57    0.71
   4   3   8    4.91    0.52
   4   3   8    5.03    0.75
   4   3   8    4.68    0.52
   4   3   8    5.38    0.71
  -5  -3  -8    4.30    0.73
  -5  -3  -8    3.85    0.73
   5   3   8    3.85    0.55
   5   3   8    5.01    0.70
   5   3   8    3.84    0.55
  -6  -3  -8   16.20    1.25
   6   3   8   17.24    1.24
   6   3   8   16.62    1.14
   6   3   8   19.00    1.22
  -7  -3  -8    4.98    0.81
   7   3   8    5.30    0.75
   7   3   8    4.23    0.76
   8   3   8    5.75    0.89
   8   3   8    8.87    0.95
   2  -4  -8    0.92    0.54
   2  -4  -8    0.60    0.44
   2  -4  -8    1.06    0.58
  -2   4   8    1.60    0.64
   1  -4  -8    7.43    1.00
   1  -4  -8    7.58    1.02
   1  -4  -8    6.13    0.83
   0  -4  -8    3.91    0.69
   0  -4  -8    3.35    0.68
   0  -4  -8    3.72    0.65
   0   4   8    4.88    0.82
  -1  -4  -8    6.84    0.90
  -1  -4  -8    6.03    0.80
  -1  -4  -8    5.51    0.76
   1   4   8    6.81    0.89
  -2  -4  -8   18.84    1.16
  -2  -4  -8   19.02    1.38
  -2  -4  -8   18.15    1.21
  -2  -4  -8   19.12    1.33
   2   4   8   19.43    1.35
  -3  -4  -8    2.88    0.47
  -3  -4  -8    1.79    0.53
  -3  -4  -8    3.72    0.88
  -3  -4  -8    3.53    0.61
  -3  -4  -8    3.04    0.62
   3   4   8    3.48    0.39
   3   4   8    2.65    0.36
   3   4   8    3.06    0.66
   3   4   8    3.57    0.60
  -4  -4  -8   12.20    0.98
  -4  -4  -8   10.48    1.00
  -4  -4  -8   11.71    0.78
   4   4   8   11.95    1.01
   4   4   8   10.63    0.71
   4   4   8   12.17    0.96
   4   4   8   10.75    0.71
  -5  -4  -8   27.81    1.57
  -5  -4  -8   27.60    1.69
  -5  -4  -8   29.42    1.31
   5   4   8   27.03    1.61
   5   4   8   30.75    1.41
   5   4   8   27.27    1.55
   5   4   8   27.30    1.36
  -6  -4  -8    0.38    0.42
   6   4   8    0.26    0.34
   6   4   8    0.52    0.41
   6   4   8    0.59    0.43
  -7  -4  -8   14.52    1.23
   7   4   8   11.69    1.12
   7   4   8   13.71    1.14
  -8  -4  -8   -0.38    0.42
   8   4   8    0.42    0.48
   8   4   8    0.51    0.55
   2  -5  -8    7.46    1.17
   2  -5  -8    8.20    1.10
   2  -5  -8   10.09    1.06
  -2   5   8    6.07    1.01
   1  -5  -8    0.67    0.48
   1  -5  -8    0.18    0.43
   1  -5  -8    0.19    0.36
  -1   5   8    0.41    0.49
   0  -5  -8    8.21    0.87
   0  -5  -8    8.56    0.96
   0  -5  -8    8.09    0.95
  -1  -5  -8    5.90    0.82
  -1  -5  -8    7.87    0.90
  -1  -5  -8    6.03    0.80
   1   5   8    5.36    0.81
  -2  -5  -8    0.21    0.34
  -2  -5  -8    0.38    0.34
  -2  -5  -8   -0.10    0.41
   2   5   8    0.18    0.38
  -3  -5  -8    7.26    0.73
  -3  -5  -8    8.74    1.07
  -3  -5  -8    9.14    0.85
   3   5   8    6.36    0.88
  -4  -5  -8    0.51    0.42
  -4  -5  -8    0.24    0.36
  -4  -5  -8    1.06    0.35
   4   5   8    1.23    0.48
  -5  -5  -8    0.42    0.28
  -5  -5  -8   -0.20    0.30
  -5  -5  -8    0.66    0.42
   5   5   8    0.16    0.27
   5   5   8   -0.22    0.38
  -6  -5  -8    0.08    0.36
   6   5   8   -0.33    0.46
   6   5   8    0.14    0.40
  -7  -5  -8    5.99    0.94
   7   5   8    5.71    0.89
  -8  -5  -8    3.72    0.83
   1  -6  -8    8.89    1.20
   1  -6  -8    6.27    0.95
   1  -6  -8    7.74    0.95
  -1   6   8    7.51    1.07
   0  -6  -8   10.14    1.10
   0  -6  -8   10.58    1.11
   0  -6  -8    9.95    1.02
   0   6   8   10.72    1.09
  -1  -6  -8    0.47    0.46
  -1  -6  -8    1.45    0.49
  -1  -6  -8    1.76    0.55
  -2  -6  -8    4.61    0.83
  -2  -6  -8    3.31    0.64
  -2  -6  -8    4.24    0.75
   2   6   8    4.50    0.80
  -3  -6  -8    3.86    0.66
  -3  -6  -8    5.05    0.76
  -3  -6  -8    4.14    0.78
   3   6   8    4.60    0.80
  -4  -6  -8    0.75    0.52
  -4  -6  -8    0.99    0.47
  -4  -6  -8    1.13    0.44
   4   6   8    0.09    0.38
  -5  -6  -8    6.42    0.89
  -5  -6  -8    6.95    0.96
   5   6   8    8.04    0.93
  -6  -6  -8    8.22    1.09
   6   6   8    8.41    0.97
  -7  -6  -8    1.00    0.63
   7   6   8    0.59    0.52
   0  -7  -8    0.21    0.51
   0  -7  -8    0.60    0.43
   0  -7  -8    0.16    0.45
   0   7   8    0.29    0.50
  -1  -7  -8    1.23    0.53
  -1  -7  -8    1.54    0.63
  -1  -7  -8    1.76    0.61
   1   7   8    2.85    0.69
  -2  -7  -8    6.29    0.89
  -2  -7  -8    7.25    1.00
  -2  -7  -8    6.08    0.93
  -3  -7  -8    0.01    0.40
  -3  -7  -8    0.30    0.41
  -3  -7  -8    0.25    0.39
   3   7   8    0.28    0.47
  -4  -7  -8   11.13    1.11
  -4  -7  -8    8.95    0.95
  -4  -7  -8    9.13    0.94
   4   7   8    8.24    0.97
  -5  -7  -8    5.20    0.89
  -5  -7  -8    3.51    0.72
   5   7   8    5.64    0.86
  -6  -7  -8    3.11    0.75
   6   7   8    3.84    0.79
  -2  -8  -8    6.42    0.98
  -2  -8  -8    5.85    0.95
  -2  -8  -8    5.27    0.91
   2   8   8    5.46    0.85
  -3  -8  -8   10.16    1.04
  -3  -8  -8   12.25    1.15
  -3  -8  -8   10.78    1.16
  -4  -8  -8    0.08    0.38
  -4  -8  -8    0.42    0.48
  -4  -8  -8    0.34    0.41
   4   8   8   -0.42    0.64
  -5  -8  -8    4.39    0.88
  -5  -8  -8    4.53    0.79
   5   8   8    3.39    0.76
   0  -7   9   25.34    1.69
   0  -7   9   23.50    1.92
   1  -7   9   13.12    1.26
   1  -7   9   12.15    1.18
   1  -7   9   11.65    1.30
   2  -7   9    3.84    1.04
   2  -7   9    4.57    0.83
   2  -7   9    2.97    0.65
  -1  -6   9   12.81    1.34
  -1  -6   9   11.98    1.24
  -1  -6   9   12.36    1.29
   0  -6   9   10.92    1.20
   0  -6   9   12.70    1.32
   0  -6   9   12.61    1.21
   1  -6   9    3.73    0.85
   1  -6   9    3.80    0.74
   1  -6   9    2.45    0.67
   2  -6   9   24.62    1.60
   2  -6   9   23.45    1.51
   2  -6   9   20.92    1.69
   3  -6   9    3.38    0.66
   3  -6   9    4.58    0.77
   3  -6   9    4.64    0.93
   4  -6   9    7.88    0.89
   4  -6   9    6.66    0.87
   4  -6   9    6.71    1.12
   2   5  -9   13.24    1.22
   2   5  -9   14.26    1.32
  -2  -5   9   13.36    1.36
  -2  -5   9   13.87    1.50
   1   5  -9    1.20    0.54
  -1  -5   9    2.88    0.73
  -1  -5   9    3.21    0.81
  -1  -5   9    2.27    0.70
   0   5  -9    4.96    0.81
   0  -5   9    4.21    0.88
   0  -5   9    4.14    0.81
   0  -5   9    4.34    0.86
   1  -5   9   15.99    1.24
   1  -5   9   15.49    1.26
   1  -5   9   14.50    1.32
   2  -5   9    3.65    0.72
   2  -5   9    5.63    0.83
   2  -5   9    5.30    0.92
   3  -5   9   10.11    1.00
   3  -5   9   10.03    0.94
   3  -5   9   10.18    1.13
  -4   5  -9   25.95    1.79
   4  -5   9   27.08    1.58
   4  -5   9   27.40    1.85
   4  -5   9   25.77    1.59
  -5   5  -9    0.73    0.64
   5  -5   9   -0.03    0.39
   5  -5   9   -0.17    0.50
   5  -5   9   -0.27    0.35
   2   4  -9    3.74    0.79
   2   4  -9    3.73    0.80
  -2  -4   9    2.72    0.76
  -2  -4   9    2.47    0.80
   1   4  -9    6.49    0.90
   1   4  -9    7.78    1.03
  -1  -4   9    7.76    1.10
  -1  -4   9    7.18    1.05
  -1  -4   9    8.73    1.16
   0   4  -9   30.56    1.76
   0   4  -9   27.54    1.57
   0  -4   9   28.53    1.81
   0  -4   9   30.63    1.80
   0  -4   9   29.53    1.85
  -1   4  -9    0.63    0.39
   1  -4   9    0.55    0.46
   1  -4   9   -0.07    0.40
   1  -4   9    0.08    0.40
  -2   4  -9   34.78    1.83
   2  -4   9   32.63    1.84
   2  -4   9   35.34    2.01
   2  -4   9   34.37    1.92
  -3   4  -9   19.78    1.35
   3  -4   9   21.40    1.52
   3  -4   9   21.66    1.35
   3  -4   9   16.89    1.32
  -4   4  -9    5.95    0.92
   4  -4   9    5.38    0.75
   4  -4   9    7.51    1.04
   4  -4   9    5.57    0.80
   4  -4   9    5.99    0.78
  -5   4  -9   15.79    1.43
   5  -4   9   18.65    1.44
   5  -4   9   15.96    1.22
   5  -4   9   15.33    1.14
  -6   4  -9   -0.03    0.52
   6  -4   9    0.52    0.64
   6  -4   9    0.41    0.46
   3   3  -9    0.22    0.59
   3   3  -9    0.77    0.54
  -3  -3   9    0.54    0.52
  -3  -3   9   -0.35    0.59
   2   3  -9   18.23    1.45
   2   3  -9   14.98    1.30
  -2  -3   9   17.32    1.54
  -2  -3   9   15.31    1.34
   1   3  -9    7.59    1.03
   1   3  -9    9.53    0.95
  -1  -3   9   10.09    1.08
  -1  -3   9    7.65    1.10
  -1  -3   9    9.22    1.07
   0   3  -9    3.37    0.54
   0   3  -9    3.21    0.67
   0   3  -9    2.38    0.54
   0  -3   9    1.95    0.62
   0  -3   9    2.30    0.63
   0  -3   9    2.52    0.68
  -1   3  -9   14.47    0.97
  -1   3  -9   15.55    1.01
  -1   3  -9   16.51    1.23
   1  -3   9   16.24    1.22
   1  -3   9   16.86    1.30
   1  -3   9   16.95    1.29
  -2   3  -9    5.13    0.69
  -2   3  -9    4.02    0.69
  -2   3  -9    4.13    0.57
   2  -3   9    4.07    0.73
   2  -3   9    4.27    0.79
   2  -3   9    3.89    0.68
  -3   3  -9    0.00    0.35
  -3   3  -9    0.01    0.25
  -3   3  -9   -0.02    0.29
   3  -3   9    0.22    0.39
   3  -3   9    0.23    0.41
   3  -3   9    0.60    0.46
  -4   3  -9    5.32    0.85
  -4   3  -9    5.64    0.72
   4  -3   9    6.72    0.76
   4  -3   9    4.24    0.69
   4  -3   9    4.76    0.79
   4  -3   9    5.13    0.85
  -5   3  -9    7.69    1.07
   5  -3   9    8.92    0.93
   5  -3   9    8.60    1.11
   5  -3   9    7.60    0.85
  -6   3  -9    0.24    0.50
   6  -3   9   -0.56    0.30
   6  -3   9    0.43    0.43
   6  -3   9    0.38    0.50
   3   2  -9   17.94    1.51
   3   2  -9   14.15    1.36
  -3  -2   9   14.55    1.54
  -3  -2   9   13.79    1.29
   2   2  -9   15.36    1.34
   2   2  -9   15.33    1.28
  -2  -2   9   12.12    1.33
  -2  -2   9   14.66    1.23
   1   2  -9    4.34    0.81
   1   2  -9    4.26    0.73
   1   2  -9    5.13    0.68
  -1  -2   9    4.83    0.94
  -1  -2   9    3.63    0.72
  -1  -2   9    3.15    0.76
   0   2  -9   31.03    1.55
   0   2  -9   28.31    1.57
   0   2  -9   29.57    1.70
   0   2  -9   29.91    1.75
   0  -2   9   27.36    1.79
   0  -2   9   30.44    1.76
   0  -2   9   24.63    1.60
  -1   2  -9    8.90    0.94
  -1   2  -9    9.17    0.76
  -1   2  -9    7.75    0.87
  -1   2  -9   11.50    0.83
   1  -2   9    9.98    0.96
   1  -2   9    9.44    0.99
   1  -2   9    9.05    0.91
  -2   2  -9    7.37    0.60
  -2   2  -9    7.04    0.82
  -2   2  -9    7.72    0.72
  -2   2  -9    7.15    0.82
  -2   2  -9    6.64    0.67
   2  -2   9    7.08    0.82
   2  -2   9    8.20    0.90
   2  -2   9    7.15    0.88
  -3   2  -9   19.29    1.21
  -3   2  -9   21.83    1.31
  -3   2  -9   20.26    1.40
  -3   2  -9   21.46    1.38
   3  -2   9   22.31    1.41
   3  -2   9   22.83    1.46
   3  -2   9   23.55    1.50
  -4   2  -9    1.43    0.45
  -4   2  -9    2.05    0.56
  -4   2  -9    1.66    0.47
   4  -2   9    1.93    0.55
   4  -2   9    1.49    0.45
   4  -2   9    1.85    0.54
   4  -2   9    1.17    0.49
  -5   2  -9    2.16    0.58
   5  -2   9    1.49    0.51
   5  -2   9    2.60    0.57
   5  -2   9    1.49    0.56
  -6   2  -9   10.17    1.12
   6  -2   9    9.39    0.89
   6  -2   9   11.94    1.14
   6  -2   9   10.37    1.04
  -7   2  -9    0.31    0.50
   7  -2   9    0.49    0.42
   7  -2   9    0.42    0.57
   7  -2   9    0.34    0.45
   3   1  -9    3.23    0.82
   3   1  -9    3.61    0.80
  -3  -1   9    2.77    0.85
  -3  -1   9    3.26    0.79
   2   1  -9    2.64    0.67
   2   1  -9    2.90    0.66
   2   1  -9    2.21    0.70
  -2  -1   9    1.25    0.52
  -2  -1   9    1.95    0.72
   1   1  -9   24.38    1.50
   1   1  -9   21.53    1.45
   1   1  -9   23.92    1.65
   1   1  -9   25.27    1.48
   1   1  -9   28.07    1.61
  -1  -1   9   24.31    1.52
  -1  -1   9   24.02    1.69
   0   1  -9    2.01    0.48
   0   1  -9    1.65    0.54
   0   1  -9    0.65    0.44
   0   1  -9    1.78    0.48
   0   1  -9    1.80    0.49
   0  -1   9    2.14    0.58
   0  -1   9    1.60    0.53
   0  -1   9    1.35    0.57
   0  -1   9    2.87    0.60
  -1   1  -9    7.70    0.77
  -1   1  -9    7.48    0.76
  -1   1  -9    7.33    0.81
  -1   1  -9    5.65    0.66
  -1   1  -9    6.83    0.52
  -1   1  -9    6.53    0.89
   1  -1   9    6.65    0.94
   1  -1   9    7.49    0.81
   1  -1   9    7.23    0.78
   1  -1   9    4.72    0.78
  -2   1  -9    9.53    0.67
  -2   1  -9    9.26    0.91
  -2   1  -9    8.04    0.67
  -2   1  -9    8.66    0.84
  -2   1  -9    8.78    0.78
   2  -1   9    8.09    0.87
   2  -1   9    9.01    0.94
   2  -1   9    6.73    0.88
   2  -1   9   10.25    0.94
  -3   1  -9    3.31    0.58
  -3   1  -9    4.99    0.68
  -3   1  -9    4.43    0.61
  -3   1  -9    4.15    0.65
  -3   1  -9    3.75    0.66
   3  -1   9    3.16    0.61
   3  -1   9    3.33    0.69
   3  -1   9    3.63    0.66
   3  -1   9    4.32    0.70
  -4   1  -9    7.76    0.77
  -4   1  -9    6.24    0.78
  -4   1  -9    8.28    0.85
   4  -1   9    7.94    0.78
   4  -1   9    6.53    0.81
   4  -1   9    5.64    0.85
   4  -1   9    7.02    0.81
  -5   1  -9    7.13    0.90
  -5   1  -9    6.31    0.90
   5  -1   9    5.54    0.84
   5  -1   9    6.39    0.88
   5  -1   9    8.74    0.83
  -6   1  -9    0.38    0.46
   6  -1   9    0.14    0.35
   6  -1   9    0.64    0.44
   6  -1   9   -0.10    0.41
  -7   1  -9    0.10    0.50
   7  -1   9    0.76    0.48
   7  -1   9    0.12    0.48
   7  -1   9    0.73    0.41
   3   0  -9    0.91    0.96
   3   0  -9    2.14    0.66
   3   0  -9    1.67    0.68
  -3   0   9    1.51    0.62
  -3   0   9    3.00    0.89
   2   0  -9   12.64    1.11
   2   0  -9   11.18    1.12
   2   0  -9   10.84    1.07
   2   0  -9   13.49    1.29
  -2   0   9    9.32    1.25
  -2   0   9   10.64    1.03
   1   0  -9    5.98    0.96
   1   0  -9    6.66    0.91
   1   0  -9    4.52    0.75
   1   0  -9    6.74    0.79
  -1   0   9    5.14    0.75
  -1   0   9    5.53    0.94
  -1   0   9    6.23    0.83
   0   0  -9    8.01    0.82
   0   0  -9   11.07    0.91
   0   0  -9   11.56    0.96
   0   0  -9    8.82    0.96
   0   0  -9    9.53    0.90
   0   0   9    9.71    0.97
   0   0   9    8.17    0.85
   0   0   9    8.83    0.86
   0   0   9    7.91    1.04
  -1   0  -9   27.27    1.47
  -1   0  -9   24.11    1.55
  -1   0  -9   26.03    1.42
  -1   0  -9   24.26    1.34
  -1   0  -9   24.75    1.47
  -1   0  -9   23.98    1.06
   1   0   9   24.01    1.51
   1   0   9   24.10    1.38
   1   0   9   20.12    1.49
   1   0   9   24.07    1.41
  -2   0  -9    0.16    0.22
  -2   0  -9    0.35    0.24
  -2   0  -9    0.59    0.39
  -2   0  -9    0.51    0.32
  -2   0  -9    0.26    0.29
  -2   0  -9   -0.44    0.24
   2   0   9    0.23    0.42
   2   0   9    1.00    0.38
   2   0   9    0.15    0.29
   2   0   9    0.45    0.40
  -3   0  -9    6.45    0.77
  -3   0  -9    5.00    0.43
  -3   0  -9    4.43    0.73
  -3   0  -9    4.80    0.60
   3   0   9    4.42    0.71
   3   0   9    4.57    0.74
   3   0   9    5.80    0.69
   3   0   9    5.29    0.71
  -4   0  -9   11.85    0.95
  -4   0  -9   12.57    0.98
  -4   0  -9   11.51    1.01
   4   0   9   10.67    0.91
   4   0   9   10.53    0.95
   4   0   9   12.39    1.09
   4   0   9   10.63    0.93
  -5   0  -9    6.27    0.86
  -5   0  -9    5.45    0.82
   5   0   9    7.09    0.78
   5   0   9    7.87    0.85
   5   0   9    5.36    0.83
  -6   0  -9   17.11    1.39
   6   0   9   18.87    1.29
   6   0   9   18.32    1.31
   6   0   9   21.17    1.39
  -7   0  -9   16.19    1.45
   7   0   9   17.81    1.23
   7   0   9   18.38    1.37
   7   0   9   15.69    1.30
   2  -1  -9    5.03    0.82
   2  -1  -9    5.06    0.88
   2  -1  -9    5.62    0.95
  -2   1   9    4.66    0.91
  -2   1   9    4.78    0.75
   1  -1  -9    6.73    0.95
   1  -1  -9    5.37    0.82
   1  -1  -9    5.51    0.72
   1  -1  -9    5.21    0.85
  -1   1   9    5.40    0.70
  -1   1   9    4.44    0.90
   0  -1  -9   26.67    1.56
   0  -1  -9   27.15    1.85
   0  -1  -9   23.32    1.46
   0  -1  -9   26.80    1.42
   0  -1  -9   25.04    1.65
   0   1   9   27.53    1.45
   0   1   9   25.38    1.39
   0   1   9   24.02    1.64
  -1  -1  -9    4.72    0.81
  -1  -1  -9    4.99    0.72
  -1  -1  -9    4.64    0.44
  -1  -1  -9    4.88    0.63
  -1  -1  -9    4.89    0.65
  -1  -1  -9    7.65    0.85
   1   1   9    4.75    0.63
   1   1   9    5.72    0.69
   1   1   9    4.69    0.78
   1   1   9    5.12    0.80
  -2  -1  -9   34.32    1.61
  -2  -1  -9   33.84    1.56
  -2  -1  -9   36.81    1.80
  -2  -1  -9   33.45    1.65
  -2  -1  -9   35.19    1.87
  -2  -1  -9   36.78    1.96
   2   1   9   30.94    1.86
   2   1   9   34.70    1.85
   2   1   9   37.26    1.72
   2   1   9   36.66    1.73
  -3  -1  -9   50.73    2.44
  -3  -1  -9   49.24    1.96
  -3  -1  -9   49.72    2.33
  -3  -1  -9   49.21    2.28
  -3  -1  -9   48.36    2.16
   3   1   9   48.01    2.31
   3   1   9   52.54    2.23
   3   1   9   48.58    2.43
   3   1   9   47.90    2.20
  -4  -1  -9   10.96    1.02
  -4  -1  -9   10.11    0.89
  -4  -1  -9   11.52    1.01
   4   1   9   12.68    1.01
   4   1   9   10.13    0.86
   4   1   9   10.36    0.99
   4   1   9   13.07    0.92
  -5  -1  -9   36.94    2.00
  -5  -1  -9   38.17    2.02
   5   1   9   36.29    1.99
   5   1   9   40.94    1.97
   5   1   9   39.50    1.90
   5   1   9   37.45    1.89
  -6  -1  -9    0.38    0.43
  -6  -1  -9    1.24    0.54
   6   1   9    0.31    0.42
   6   1   9    0.52    0.40
   6   1   9    0.42    0.42
  -7  -1  -9    4.80    0.94
   7   1   9    2.09    0.56
   7   1   9    4.67    0.82
   7   1   9    4.44    0.78
   2  -2  -9    4.15    0.86
   2  -2  -9    4.17    0.75
   2  -2  -9    5.07    0.91
   1  -2  -9   21.56    1.44
   1  -2  -9   20.79    1.52
   1  -2  -9   23.38    1.63
  -1   2   9   20.79    1.59
   0  -2  -9   -0.29    0.28
   0  -2  -9   -0.21    0.35
   0  -2  -9    0.00    0.32
   0   2   9   -0.06    0.28
   0   2   9   -0.36    0.39
  -1  -2  -9   47.91    2.05
  -1  -2  -9   48.14    2.27
  -1  -2  -9   47.84    2.44
  -1  -2  -9   45.94    2.19
   1   2   9   49.58    2.08
   1   2   9   48.65    2.04
   1   2   9   49.06    2.45
  -2  -2  -9    4.01    0.52
  -2  -2  -9    4.00    0.74
  -2  -2  -9    3.95    0.58
  -2  -2  -9    4.77    0.71
  -2  -2  -9    4.68    0.75
   2   2   9    2.95    0.66
   2   2   9    3.27    0.52
   2   2   9    4.32    0.56
   2   2   9    2.45    0.57
  -3  -2  -9   11.73    0.96
  -3  -2  -9   11.90    0.78
  -3  -2  -9   10.84    1.04
  -3  -2  -9   10.97    1.00
   3   2   9   10.13    1.04
   3   2   9   10.51    0.98
   3   2   9   12.42    0.86
   3   2   9   11.90    0.86
  -4  -2  -9    2.07    0.56
   4   2   9    3.69    0.66
   4   2   9    2.00    0.46
   4   2   9    1.81    0.44
   4   2   9    2.16    0.59
  -5  -2  -9    1.34    0.53
   5   2   9    0.80    0.40
   5   2   9    0.95    0.48
   5   2   9    1.80    0.46
   5   2   9    1.63    0.50
  -6  -2  -9    0.99    0.50
   6   2   9    0.86    0.43
   6   2   9    1.09    0.52
   6   2   9    0.72    0.41
   7   2   9    0.52    0.46
  -8  -2  -9    4.69    1.01
   8   2   9    5.65    0.82
   2  -3  -9    8.69    1.18
   2  -3  -9    7.74    1.13
   2  -3  -9   10.37    1.10
  -2   3   9   10.39    1.16
   1  -3  -9    0.98    0.53
   1  -3  -9    1.63    0.56
   1  -3  -9    1.17    0.59
  -1   3   9    0.80    0.57
   0  -3  -9    9.11    0.91
   0  -3  -9    6.94    0.95
   0  -3  -9    8.38    1.12
   0   3   9    9.32    1.13
  -1  -3  -9    9.73    0.95
  -1  -3  -9   10.25    1.05
  -1  -3  -9   11.71    1.00
   1   3   9   11.78    1.14
  -2  -3  -9   -0.12    0.26
  -2  -3  -9    0.22    0.35
  -2  -3  -9    0.65    0.43
   2   3   9   -0.16    0.38
   2   3   9    0.07    0.25
  -3  -3  -9   21.27    1.16
  -3  -3  -9   21.41    1.35
  -3  -3  -9   18.24    1.39
   3   3   9   22.06    1.13
   3   3   9   20.78    1.44
   3   3   9   21.18    1.36
   3   3   9   21.67    1.17
  -4  -3  -9    6.33    0.82
  -4  -3  -9    5.20    0.85
  -4  -3  -9    6.16    0.55
   4   3   9    6.35    0.64
   4   3   9    5.38    0.79
   4   3   9    5.74    0.62
   4   3   9    4.97    0.83
  -5  -3  -9   -0.21    0.33
   5   3   9    0.00    0.42
   5   3   9    0.19    0.30
   5   3   9    0.10    0.28
   5   3   9    0.33    0.39
  -6  -3  -9    3.34    0.72
   6   3   9    5.98    0.84
   6   3   9    5.66    0.75
   6   3   9    5.29    0.70
  -7  -3  -9    9.00    1.15
   7   3   9    9.85    1.09
   1  -4  -9    6.47    1.03
   1  -4  -9    5.89    0.87
   1  -4  -9    4.02    0.90
   0  -4  -9   10.53    1.08
   0  -4  -9    9.87    1.10
   0  -4  -9    9.89    0.97
   0   4   9   10.53    1.13
  -1  -4  -9    0.17    0.40
  -1  -4  -9   -0.20    0.31
  -1  -4  -9    0.05    0.36
   1   4   9   -0.67    0.41
  -2  -4  -9    6.87    0.90
  -2  -4  -9    8.38    0.84
  -2  -4  -9   10.14    1.07
   2   4   9    9.94    1.07
  -3  -4  -9   18.15    1.14
  -3  -4  -9   17.95    1.28
  -3  -4  -9   19.92    1.43
   3   4   9   20.34    1.45
  -4  -4  -9    0.76    0.47
  -4  -4  -9    1.54    0.36
  -4  -4  -9    1.42    0.46
   4   4   9    1.81    0.60
  -5  -4  -9   30.62    1.88
   5   4   9   31.85    1.77
   5   4   9   28.45    1.81
   5   4   9   33.43    1.52
  -6  -4  -9    0.06    0.42
   6   4   9    1.60    0.45
   6   4   9    0.89    0.49
  -7  -4  -9    6.49    0.99
   7   4   9    6.80    0.99
   1  -5  -9    2.95    0.67
   1  -5  -9    3.24    0.80
  -1   5   9    1.65    0.70
   0  -5  -9    0.14    0.36
   0  -5  -9   -0.10    0.39
   0  -5  -9    0.39    0.49
  -1  -5  -9   13.75    1.20
  -1  -5  -9   16.74    1.26
  -1  -5  -9   17.71    1.43
   1   5   9   17.42    1.38
  -2  -5  -9    2.71    0.67
  -2  -5  -9    2.43    0.64
  -2  -5  -9    2.86    0.60
   2   5   9    1.99    0.61
  -3  -5  -9    9.80    0.86
  -3  -5  -9    9.18    0.96
  -3  -5  -9    9.91    1.08
   3   5   9   10.98    1.12
  -4  -5  -9    3.97    0.72
  -4  -5  -9    3.37    0.76
  -4  -5  -9    4.57    0.62
   4   5   9    6.31    0.93
  -5  -5  -9   -0.18    0.40
   5   5   9    0.48    0.53
  -6  -5  -9    0.40    0.48
   6   5   9    1.38    0.58
  -7  -5  -9    6.23    1.01
   7   5   9    8.08    1.10
   0  -6  -9    2.51    0.65
   0  -6  -9    1.85    0.74
   0   6   9    2.87    0.75
  -1  -6  -9    1.64    0.60
  -1  -6  -9    2.08    0.66
  -1  -6  -9    1.15    0.55
  -2  -6  -9    0.17    0.37
  -2  -6  -9   -0.09    0.47
  -2  -6  -9    0.09    0.37
   2   6   9    0.16    0.48
  -3  -6  -9   13.07    1.27
  -3  -6  -9   12.16    1.09
  -3  -6  -9   14.24    1.18
   3   6   9   14.73    1.29
  -4  -6  -9    5.16    0.90
  -4  -6  -9    6.78    0.93
  -4  -6  -9    5.48    0.75
   4   6   9    5.56    0.90
  -5  -6  -9    9.24    1.22
   5   6   9   11.12    1.12
  -6  -6  -9   11.26    1.19
   6   6   9   10.27    1.12
  -2  -7  -9    7.54    1.02
  -2  -7  -9   11.47    1.24
  -2  -7  -9    9.05    1.05
  -3  -7  -9    0.09    0.40
  -3  -7  -9    0.32    0.41
  -3  -7  -9   -0.24    0.44
  -4  -7  -9    5.47    0.88
  -4  -7  -9    3.10    0.75
  -4  -7  -9    3.25    0.69
   4   7   9    4.92    0.90
  -5  -7  -9    2.80    0.78
   5   7   9    2.16    0.67
  -6  -7  -9    0.19    0.47
   6   7   9    0.61    0.57
   1  -6  10    0.12    0.44
   2  -6  10   11.62    1.13
   2  -6  10   10.06    1.11
   1   5 -10    9.75    1.24
  -1  -5  10    9.08    1.44
   0  -5  10   -0.12    0.47
   0  -5  10    0.49    0.53
   0  -5  10    0.07    0.52
   1  -5  10   23.12    1.73
   1  -5  10   25.63    1.72
   1  -5  10   21.30    1.57
   2  -5  10   13.46    1.23
   2  -5  10   13.53    1.34
   2  -5  10   15.73    1.26
   3  -5  10    5.56    0.99
   3  -5  10    4.28    0.80
   3  -5  10    5.28    0.82
  -4   5 -10   16.86    1.45
   4  -5  10   18.12    1.31
   4  -5  10   14.41    1.30
   4  -5  10   23.13    2.05
   1   4 -10    0.72    0.51
   1   4 -10    0.38    0.47
  -1  -4  10   -0.63    0.45
  -1  -4  10    0.68    0.62
   0   4 -10   28.87    1.83
   0   4 -10   29.15    1.66
   0  -4  10   29.22    1.89
   0  -4  10   26.48    1.87
   0  -4  10   29.52    1.89
  -1   4 -10   13.23    1.16
   1  -4  10   10.38    1.16
   1  -4  10   13.19    1.18
   1  -4  10   13.10    1.28
   2  -4  10    7.79    1.00
   2  -4  10    6.48    0.98
   2  -4  10    6.00    0.98
   3  -4  10   34.70    2.08
   3  -4  10   36.54    2.03
   3  -4  10   31.74    1.88
  -4   4 -10    2.31    0.70
   4  -4  10    1.80    0.54
   4  -4  10    2.64    0.65
   4  -4  10    1.72    0.67
  -5   4 -10    8.59    1.23
   5  -4  10   12.29    1.17
   5  -4  10   10.63    1.08
   5  -4  10    9.66    1.30
   1   3 -10   12.80    1.25
   1   3 -10   13.83    1.21
  -1  -3  10   12.87    1.22
  -1  -3  10    8.11    1.24
   0   3 -10    4.05    0.83
   0   3 -10    3.16    0.65
   0  -3  10    3.67    0.82
   0  -3  10    3.72    0.79
   0  -3  10    5.70    0.92
  -1   3 -10    4.90    0.67
  -1   3 -10    6.50    0.93
   1  -3  10    5.83    0.94
   1  -3  10    6.15    0.95
   1  -3  10    6.09    0.90
  -2   3 -10   17.49    1.32
   2  -3  10   15.31    1.25
   2  -3  10   15.19    1.28
   2  -3  10   15.36    1.34
  -3   3 -10    1.72    0.53
  -3   3 -10    2.77    0.61
   3  -3  10    2.78    0.74
   3  -3  10    2.32    0.64
   3  -3  10    2.69    0.67
  -4   3 -10    8.39    1.11
  -4   3 -10    9.83    0.92
   4  -3  10    9.31    1.17
   4  -3  10    8.71    0.95
   4  -3  10    6.39    0.95
  -5   3 -10   15.49    1.36
   5  -3  10   17.77    1.39
   5  -3  10   15.56    1.39
   5  -3  10   16.78    1.30
  -6   3 -10    0.96    0.63
   6  -3  10    0.07    0.48
   6  -3  10    0.74    0.56
   2   2 -10    6.99    1.04
   2   2 -10    7.44    1.16
  -2  -2  10    6.73    1.16
  -2  -2  10    5.89    0.96
   1   2 -10    8.83    1.20
   1   2 -10    8.40    0.94
  -1  -2  10   10.57    1.22
  -1  -2  10   10.16    1.06
   0   2 -10    4.32    1.03
   0   2 -10    2.34    0.66
   0   2 -10    2.83    0.59
   0  -2  10    1.86    0.66
   0  -2  10    1.91    0.72
   0  -2  10    2.94    0.67
  -1   2 -10   34.39    2.04
  -1   2 -10   36.42    1.81
  -1   2 -10   39.88    1.90
   1  -2  10   38.12    2.15
   1  -2  10   35.24    1.99
   1  -2  10   39.53    2.10
  -2   2 -10    7.64    0.78
  -2   2 -10    6.74    0.93
  -2   2 -10    5.67    0.64
   2  -2  10    6.02    0.89
   2  -2  10    5.69    0.90
   2  -2  10    6.64    0.93
  -3   2 -10   31.33    1.76
  -3   2 -10   27.09    1.54
  -3   2 -10   30.53    1.58
   3  -2  10   26.74    1.67
   3  -2  10   29.27    1.75
   3  -2  10   24.71    1.69
  -4   2 -10   36.81    2.16
  -4   2 -10   38.55    1.99
   4  -2  10   37.32    2.00
   4  -2  10   38.36    2.12
   4  -2  10   34.23    2.04
  -5   2 -10    0.62    0.47
   5  -2  10    1.77    0.53
   5  -2  10    1.13    0.56
   5  -2  10    2.17    0.64
  -6   2 -10   29.80    2.00
   6  -2  10   34.41    1.97
   6  -2  10   32.25    1.81
   6  -2  10   33.05    2.02
   2   1 -10    0.58    0.49
   2   1 -10    0.28    0.50
  -2  -1  10   -0.03    0.42
  -2  -1  10   -0.68    0.53
   1   1 -10    9.33    1.03
   1   1 -10   10.02    1.29
  -1  -1  10    8.19    1.18
  -1  -1  10    7.20    0.94
   0   1 -10   14.27    1.17
   0   1 -10   13.39    1.27
   0   1 -10   13.67    1.09
   0  -1  10   14.34    1.18
   0  -1  10   15.11    1.37
  -1   1 -10    0.40    0.36
  -1   1 -10    0.81    0.40
  -1   1 -10    0.95    0.43
  -1   1 -10    0.21    0.39
   1  -1  10    0.16    0.43
   1  -1  10    0.19    0.38
   1  -1  10    0.10    0.44
  -2   1 -10   22.16    1.56
  -2   1 -10   26.28    1.72
  -2   1 -10   22.91    1.51
  -2   1 -10   22.89    1.40
  -2   1 -10   23.32    1.23
   2  -1  10   22.46    1.60
   2  -1  10   24.76    1.50
   2  -1  10   24.45    1.59
  -3   1 -10   17.47    1.35
  -3   1 -10   18.18    1.14
  -3   1 -10   19.12    1.31
  -3   1 -10   17.72    1.22
   3  -1  10   18.07    1.33
   3  -1  10   16.47    1.37
   3  -1  10   19.40    1.36
  -4   1 -10    2.90    0.67
  -4   1 -10    2.59    0.62
   4  -1  10    3.01    0.65
   4  -1  10    2.41    0.60
   4  -1  10    2.28    0.61
  -5   1 -10   10.34    1.13
   5  -1  10   10.60    1.08
   5  -1  10   15.01    1.21
   5  -1  10   16.82    1.33
  -6   1 -10    3.31    0.81
   6  -1  10    2.53    0.70
   6  -1  10    2.77    0.66
   6  -1  10    2.32    0.68
   2   0 -10    6.48    1.03
  -2   0  10    6.07    1.10
  -2   0  10    7.58    1.18
   1   0 -10   10.65    1.17
   1   0 -10   10.74    1.07
  -1   0  10   11.02    1.22
  -1   0  10    8.29    0.90
   0   0 -10    0.81    0.51
   0   0 -10   -0.08    0.32
   0   0 -10    0.46    0.33
   0   0  10   -0.21    0.48
   0   0  10   -0.13    0.37
   0   0  10   -0.39    0.35
  -1   0 -10   16.02    1.06
  -1   0 -10   15.11    1.11
  -1   0 -10   14.78    1.28
   1   0  10   12.81    1.26
   1   0  10   14.42    1.13
   1   0  10   15.22    1.13
   1   0  10   14.55    1.26
  -2   0 -10   11.44    1.11
  -2   0 -10   12.02    0.82
  -2   0 -10    9.96    0.99
  -2   0 -10    9.83    0.93
   2   0  10   10.70    0.96
   2   0  10   11.35    1.15
   2   0  10   11.48    1.08
   2   0  10   10.61    0.94
  -3   0 -10    0.15    0.29
  -3   0 -10   -0.16    0.35
   3   0  10   -0.20    0.37
   3   0  10    0.48    0.38
   3   0  10   -0.01    0.33
   3   0  10   -0.18    0.41
  -4   0 -10   12.91    1.17
  -4   0 -10   14.72    1.11
   4   0  10   13.37    1.14
   4   0  10   15.86    1.19
   4   0  10   13.51    1.24
  -5   0 -10   10.84    1.09
  -5   0 -10   10.46    1.10
   5   0  10   12.36    1.06
   5   0  10   14.29    1.21
   5   0  10   10.66    1.03
  -6   0 -10    1.24    0.65
   6   0  10    1.46    0.55
   6   0  10    1.73    0.55
   6   0  10    2.26    0.65
  -7   0 -10    8.42    1.25
   7   0  10    8.84    1.13
   7   0  10    9.63    1.00
   7   0  10    8.72    1.12
   1  -1 -10    1.43    0.60
   1  -1 -10    0.71    0.56
   1  -1 -10    0.94    0.51
  -1   1  10    0.68    0.61
   0  -1 -10    7.52    0.99
   0  -1 -10    5.88    0.98
   0  -1 -10    5.29    0.81
   0   1  10    5.66    0.97
   0   1  10    6.73    0.74
  -1  -1 -10   11.45    1.01
  -1  -1 -10   11.03    0.92
  -1  -1 -10   12.49    1.18
  -1  -1 -10   11.13    0.92
   1   1  10   11.62    0.92
   1   1  10    9.92    1.12
  -2  -1 -10   -0.04    0.36
  -2  -1 -10    0.47    0.32
  -2  -1 -10    0.06    0.29
   2   1  10   -0.04    0.33
   2   1  10   -0.44    0.37
   2   1  10    0.26    0.42
   2   1  10    0.04    0.31
  -3  -1 -10   26.41    1.43
  -3  -1 -10   25.62    1.70
   3   1  10   28.66    1.57
   3   1  10   24.70    1.62
   3   1  10   27.42    1.51
   3   1  10   25.96    1.72
  -4  -1 -10    8.73    0.98
  -4  -1 -10    6.92    0.78
   4   1  10    7.93    0.85
   4   1  10    8.96    1.12
   4   1  10    8.61    0.94
   4   1  10    7.76    0.85
  -5  -1 -10    4.93    0.85
  -5  -1 -10    3.87    0.76
   5   1  10    4.53    0.86
   5   1  10    4.87    0.78
   5   1  10    5.17    0.77
  -6  -1 -10   12.94    1.30
  -6  -1 -10   13.64    1.32
   6   1  10   18.45    1.34
   6   1  10   14.62    1.21
   6   1  10   14.79    1.29
  -7  -1 -10    4.41    0.93
   7   1  10    3.00    0.73
   7   1  10    2.64    0.72
   7   1  10    1.75    0.61
   1  -2 -10   20.65    1.48
   1  -2 -10   16.71    1.42
   1  -2 -10   22.11    1.64
  -1   2  10   21.11    1.63
   0  -2 -10    1.72    0.63
   0  -2 -10    2.74    0.67
   0  -2 -10    2.42    0.62
   0   2  10    2.37    0.74
  -1  -2 -10   12.00    1.20
  -1  -2 -10   10.32    1.00
  -1  -2 -10   12.13    1.00
   1   2  10   12.89    1.25
  -2  -2 -10    4.20    0.82
  -2  -2 -10    4.90    0.68
  -2  -2 -10    4.35    0.72
   2   2  10    3.92    0.82
   2   2  10    4.64    0.63
  -3  -2 -10    0.44    0.45
   3   2  10    0.73    0.52
   3   2  10    0.48    0.42
   3   2  10    1.03    0.40
  -4  -2 -10    2.21    0.66
   4   2  10    2.47    0.56
   4   2  10    2.64    0.61
   4   2  10    2.90    0.73
   4   2  10    3.77    0.61
  -5  -2 -10   12.62    1.20
   5   2  10   10.80    1.14
   5   2  10   12.95    0.97
   5   2  10   11.30    0.95
   5   2  10   11.66    1.09
  -6  -2 -10   -0.04    0.38
  -6  -2 -10   -0.09    0.43
   6   2  10    0.08    0.50
   6   2  10    0.71    0.43
   6   2  10    0.60    0.47
  -7  -2 -10    3.49    0.87
   7   2  10    3.51    0.73
   7   2  10    2.84    0.75
   7   2  10    2.79    0.69
   1  -3 -10    0.14    0.45
   1  -3 -10   -0.28    0.43
   0  -3 -10    0.39    0.47
   0  -3 -10    0.47    0.43
   0  -3 -10   -0.19    0.41
   0   3  10    0.08    0.49
  -1  -3 -10    5.65    0.96
  -1  -3 -10    7.08    0.91
  -1  -3 -10    4.65    0.79
   1   3  10    4.72    0.90
  -2  -3 -10    1.41    0.62
  -2  -3 -10    0.88    0.41
  -2  -3 -10    2.20    0.59
   2   3  10    1.75    0.71
  -3  -3 -10    3.66    0.57
  -3  -3 -10    3.33    0.77
   3   3  10    4.26    0.84
  -4  -3 -10    8.43    1.12
   4   3  10    8.41    1.10
  -5  -3 -10    2.84    0.74
   5   3  10    3.27    0.57
   5   3  10    2.04    0.65
   5   3  10    3.08    0.69
  -6  -3 -10    9.62    1.09
   6   3  10    7.08    0.82
   6   3  10    8.62    1.13
   6   3  10    7.37    1.03
  -7  -3 -10   13.69    1.34
   7   3  10   14.60    1.20
   7   3  10   13.25    1.52
   7   3  10   14.08    1.24
   0  -4 -10    7.65    1.04
   0  -4 -10    6.70    1.03
   0  -4 -10    5.73    1.01
  -1  -4 -10    1.68    0.63
  -1  -4 -10    3.01    0.69
  -1  -4 -10    2.24    0.61
   1   4  10    1.89    0.68
  -2  -4 -10    3.65    0.69
  -2  -4 -10    5.14    0.93
  -2  -4 -10    4.15    0.77
   2   4  10    4.72    0.87
  -3  -4 -10   22.90    1.35
  -3  -4 -10   20.81    1.59
  -3  -4 -10   24.41    1.54
   3   4  10   19.79    1.58
  -4  -4 -10    0.83    0.54
   4   4  10   -0.11    0.49
  -5  -4 -10   14.56    1.35
   5   4  10   16.31    1.43
  -6  -4 -10    4.18    0.84
   6   4  10    4.68    0.91
  -7  -4 -10    0.82    0.57
  -1  -5 -10   20.29    1.64
  -1  -5 -10   21.12    1.57
  -1  -5 -10   22.67    1.60
  -2  -5 -10    9.52    1.05
  -2  -5 -10   10.91    1.19
  -2  -5 -10    9.38    0.99
   2   5  10    9.34    1.20
  -3  -5 -10    4.35    0.88
  -3  -5 -10    4.90    0.82
  -3  -5 -10    4.49    0.71
   3   5  10    4.94    0.94
  -4  -5 -10    8.43    1.23
   4   5  10    8.95    1.20
  -5  -5 -10    2.04    0.68
   5   5  10    2.64    0.77
  -6  -5 -10    0.66    0.58
   6   5  10    1.30    0.67
  -2  -6 -10    1.74    0.66
  -2  -6 -10    1.53    0.62
  -3  -6 -10   10.06    1.12
  -3  -6 -10    9.70    1.04
  -3  -6 -10   10.52    1.33
   3   6  10    8.10    1.19
  -4  -6 -10    7.94    1.20
   4   6  10    7.52    1.13
  -5  -6 -10    1.65    0.68
   5   6  10    1.11    0.66
   1  -4  11    8.46    1.16
   1  -4  11    7.83    1.11
   2  -4  11   -0.04    0.44
   2  -4  11    0.43    0.58
   2  -4  11   -0.15    0.47
   3  -4  11   14.84    1.40
   3  -4  11   13.60    1.51
   3  -4  11   15.06    1.30
   0   3 -11   12.20    1.31
   0   3 -11   13.19    1.13
   0  -3  11   11.14    1.20
   0  -3  11    9.60    1.33
  -1   3 -11    4.70    0.92
   1  -3  11    4.95    0.90
   1  -3  11    4.54    0.86
   1  -3  11    5.98    1.02
   2  -3  11   17.82    1.50
   2  -3  11   17.95    1.47
   3  -3  11    2.00    0.66
   3  -3  11    2.71    0.74
   3  -3  11    2.01    0.70
  -4   3 -11   -0.04    0.45
   4  -3  11    0.49    0.54
   4  -3  11    0.28    0.50
   4  -3  11    0.87    0.60
   0   2 -11    0.02    0.46
   0   2 -11    0.28    0.41
   0  -2  11   -0.02    0.56
   0  -2  11    0.02    0.42
  -1   2 -11   11.40    1.18
   1  -2  11   12.14    1.19
   1  -2  11   11.17    1.60
   1  -2  11    8.08    1.19
  -2   2 -11   18.67    1.49
   2  -2  11   21.86    1.63
   2  -2  11   21.37    1.56
   2  -2  11   23.49    1.60
  -3   2 -11    1.28    0.59
   3  -2  11    1.90    0.62
   3  -2  11    1.28    0.61
   3  -2  11    1.35    0.58
  -4   2 -11   27.49    1.69
   4  -2  11   26.34    1.74
   4  -2  11   26.07    1.78
   4  -2  11   27.66    1.86
  -5   2 -11    3.79    0.82
   5  -2  11    4.83    0.93
   5  -2  11    4.77    0.91
   5  -2  11    4.55    0.88
   0   1 -11   37.88    2.31
   0   1 -11   41.22    2.16
   0  -1  11   38.49    2.16
   0  -1  11   41.75    2.44
  -1   1 -11    4.39    0.84
  -1   1 -11    3.34    0.78
   1  -1  11    5.61    0.85
   1  -1  11    3.16    0.78
  -2   1 -11   18.91    1.51
   2  -1  11   17.97    1.43
   2  -1  11   18.30    1.39
   2  -1  11   22.37    1.67
  -3   1 -11   13.20    1.22
   3  -1  11   14.21    1.34
   3  -1  11   12.47    1.15
   3  -1  11   12.76    1.20
  -4   1 -11   -0.42    0.43
  -4   1 -11   -0.38    0.30
   4  -1  11    0.11    0.48
   4  -1  11    1.44    0.61
   4  -1  11    0.46    0.45
  -5   1 -11    4.50    0.82
   5  -1  11    2.17    0.71
   5  -1  11    4.48    0.88
   5  -1  11    5.07    0.91
  -6   1 -11    4.30    0.89
   6  -1  11    5.87    0.98
   6  -1  11    4.60    0.83
   0   0 -11    2.27    0.62
   0   0 -11    1.29    0.61
   0   0  11    0.73    0.51
   0   0  11    0.73    0.60
  -1   0 -11    2.35    0.73
  -1   0 -11    2.52    0.60
   1   0  11    4.78    0.94
   1   0  11    2.00    0.54
  -2   0 -11   14.54    1.16
  -2   0 -11   11.77    1.22
   2   0  11   11.64    1.31
   2   0  11   12.92    1.11
  -3   0 -11    5.37    0.92
   3   0  11    4.79    0.92
   3   0  11    4.87    0.87
   3   0  11    6.25    0.90
  -4   0 -11   10.74    1.11
  -4   0 -11    8.15    0.90
   4   0  11    8.71    1.00
   4   0  11    7.83    1.07
   4   0  11    9.73    1.09
  -5   0 -11   23.41    1.61
   5   0  11   26.14    1.65
   5   0  11   23.90    1.66
   5   0  11   27.77    1.83
  -6   0 -11   -0.20    0.46
   6   0  11    0.31    0.53
   6   0  11    0.06    0.46
   0  -1 -11    3.02    0.76
   0  -1 -11    1.00    0.55
   0   1  11    2.68    0.81
  -1  -1 -11   30.93    2.02
  -1  -1 -11   33.58    1.81
   1   1  11   29.77    2.04
  -2  -1 -11    0.77    0.57
   2   1  11    1.46    0.61
   2   1  11    1.33    0.52
  -3  -1 -11   24.59    1.73
   3   1  11   25.47    1.82
   3   1  11   27.65    1.57
  -4  -1 -11   12.22    1.06
  -4  -1 -11   13.53    1.29
   4   1  11   14.15    1.14
   4   1  11   15.13    1.37
   4   1  11   14.00    1.26
  -5  -1 -11    0.68    0.50
  -5  -1 -11   -0.02    0.39
   5   1  11   -0.02    0.45
   5   1  11    0.39    0.54
   5   1  11    0.11    0.45
  -6  -1 -11   11.33    1.19
   6   1  11   14.05    1.17
   6   1  11   10.44    1.47
   6   1  11   11.88    1.25
   0  -2 -11    7.38    1.00
   0   2  11    8.43    1.23
  -1  -2 -11    0.52    0.53
  -1  -2 -11    0.57    0.44
   1   2  11    0.14    0.51
  -2  -2 -11   13.36    1.31
   2   2  11   13.41    1.34
  -3  -2 -11   12.89    1.30
   3   2  11   12.71    1.28
  -4  -2 -11    2.72    0.60
  -4  -2 -11    2.45    0.75
   4   2  11    2.75    0.77
  -5  -2 -11   15.52    1.38
  -5  -2 -11   14.90    1.25
   5   2  11   13.18    1.27
   5   2  11   17.38    1.52
   5   2  11   14.70    1.15
  -6  -2 -11    0.72    0.54
  -6  -2 -11    0.89    0.55
   6   2  11    0.82    0.48
   6   2  11    0.48    0.53
   6   2  11    0.86    0.62
  -1  -3 -11    9.21    1.28
   1   3  11    8.19    1.20
  -2  -3 -11    8.67    0.93
  -2  -3 -11    8.25    1.16
   2   3  11    8.38    1.23
  -3  -3 -11    0.92    0.59
   3   3  11    1.03    0.64
  -4  -3 -11    9.81    1.27
   4   3  11    9.93    1.29
  -5  -3 -11    2.79    0.78
   5   3  11    3.18    0.81
  -6  -3 -11    1.35    0.66
   6   3  11    0.01    0.80
  -2  -4 -11    0.59    0.62
  -2  -4 -11    0.38    0.38
   2   4  11    0.32    0.58
  -3  -4 -11    2.72    0.79
   3   4  11    2.62    0.79
  -4  -4 -11    1.01    0.58
   4   4  11    0.52    0.59
  -5  -4 -11    0.20    0.50
   5   4  11    0.51    0.62
  -4  -5 -11    0.26    0.55
   4   5  11    0.78    0.61
  -3   1 -12    3.68    0.86
   3  -1  12    4.15    0.96
   3  -1  12    3.34    0.82
  -2   0 -12    4.93    0.98
   2   0  12    5.56    1.05
  -3   0 -12   14.01    1.36
   3   0  12   13.24    1.21
   3   0  12   13.14    1.41
  -4   0 -12    0.45    0.53
   4   0  12   -0.33    0.44
   4   0  12    0.76    0.63
  -3  -1 -12    1.01    0.58
   3   1  12    2.12    0.79
  -4  -1 -12    8.27    1.16
   0   0   0    0.00    0.00
;
_shelx_hkl_checksum              34234
_olex2_submission_special_instructions 'No special instructions were received'
loop_
_space_group_symop_operation_xyz
'x, y, z'
'-x, -y, -z'
loop_
_atom_site_label
_atom_site_type_symbol
_atom_site_fract_x
_atom_site_fract_y
_atom_site_fract_z
_atom_site_U_iso_or_equiv
_atom_site_adp_type
_atom_site_occupancy
_atom_site_site_symmetry_order
_atom_site_calc_flag
_atom_site_refinement_flags_posn
_atom_site_refinement_flags_occupancy
_atom_site_disorder_assembly
_atom_site_disorder_group
Br1 Br 0.67700(3) 0.69425(2) 0.92531(2) 0.02087(9) Uani 1 1 d . . . .
O1 O 0.7393(2) 1.27401(17) 0.72522(16) 0.0227(4) Uani 1 1 d . . . .
O2 O 0.8461(2) 1.23121(16) 0.13989(15) 0.0162(3) Uani 1 1 d . . . .
O3 O 0.7636(2) 1.03619(16) 0.05930(15) 0.0160(3) Uani 1 1 d . . . .
O4A O 0.5873(5) 0.5087(4) 0.4385(4) 0.0248(10) Uani 0.487(4) 1 d . P A -1
O4B O 0.8768(5) 0.4626(3) 0.3734(4) 0.0259(10) Uani 0.513(4) 1 d . P A -2
O5A O 0.8170(9) 0.5834(5) 0.2641(4) 0.0383(13) Uani 0.487(4) 1 d . P A -1
O5B O 0.6878(7) 0.6243(4) 0.2847(4) 0.0247(9) Uani 0.513(4) 1 d . P A -2
N1 N 0.7191(3) 1.0279(2) 0.77850(19) 0.0154(4) Uani 1 1 d . . . .
N2 N 0.7596(2) 0.90437(19) 0.31605(18) 0.0134(4) Uani 1 1 d . . . .
N3A N 0.7053(11) 0.5896(18) 0.3921(17) 0.0172(15) Uani 0.487(4) 1 d . P A -1
H1 H 0.714(4) 1.030(3) 0.862(3) 0.026 Uiso 1 1 d R . . .
N3B N 0.7737(11) 0.5879(16) 0.3714(15) 0.0172(15) Uani 0.513(4) 1 d . P A -2
C1 C 0.7345(3) 1.1502(2) 0.6902(2) 0.0153(5) Uani 1 1 d . . . .
C2 C 0.7467(3) 1.0903(2) 0.5444(2) 0.0128(4) Uani 1 1 d . . . .
C3 C 0.7659(3) 1.1474(2) 0.4121(2) 0.0137(4) Uani 1 1 d . . . .
H3 H 0.7752 1.2481 0.3946 0.016 Uiso 1 1 calc R . . .
C4 C 0.7712(3) 1.0468(2) 0.3017(2) 0.0121(4) Uani 1 1 d . . . .
C5 C 0.7441(3) 0.8487(2) 0.4481(2) 0.0127(4) Uani 1 1 d . . . .
C6 C 0.7328(3) 0.6996(2) 0.4881(2) 0.0197(5) Uani 1 1 d . . . .
C7 C 0.7149(4) 0.6578(2) 0.6261(3) 0.0244(5) Uani 1 1 d . . . .
H7 H 0.7078 0.5577 0.6486 0.029 Uiso 1 1 calc R . . .
C8 C 0.7067(3) 0.7589(2) 0.7370(2) 0.0166(5) Uani 1 1 d . . . .
C9 C 0.7192(3) 0.9019(2) 0.7034(2) 0.0132(4) Uani 1 1 d . . . .
C10 C 0.7369(3) 0.9418(2) 0.5603(2) 0.0114(4) Uani 1 1 d . . . .
C11 C 0.7928(3) 1.1019(2) 0.1521(2) 0.0125(4) Uani 1 1 d . . . .
C12 C 0.8778(3) 1.2991(2) 0.0014(2) 0.0187(5) Uani 1 1 d . . . .
H12A H 0.9965 1.2375 -0.0733 0.028 Uiso 1 1 calc GR . . .
H12B H 0.8985 1.3997 0.0101 0.028 Uiso 1 1 calc GR . . .
H12C H 0.7600 1.3060 -0.0261 0.028 Uiso 1 1 calc GR . . .
loop_
_atom_site_aniso_label
_atom_site_aniso_U_11
_atom_site_aniso_U_22
_atom_site_aniso_U_33
_atom_site_aniso_U_23
_atom_site_aniso_U_13
_atom_site_aniso_U_12
Br1 0.02815(14) 0.02103(13) 0.01459(13) 0.00898(9) -0.01024(10) -0.00461(9)
O1 0.0378(10) 0.0200(8) 0.0160(8) 0.0010(7) -0.0134(7) -0.0118(7)
O2 0.0271(8) 0.0157(7) 0.0100(7) 0.0044(6) -0.0085(6) -0.0102(6)
O3 0.0236(8) 0.0168(7) 0.0116(7) 0.0020(6) -0.0102(6) -0.0066(6)
O4A 0.029(2) 0.0201(18) 0.028(2) 0.0052(15) -0.0073(15) -0.0159(15)
O4B 0.0278(19) 0.0134(16) 0.033(2) -0.0029(14) -0.0071(15) -0.0039(13)
O5A 0.062(4) 0.027(2) 0.015(2) -0.0074(17) 0.010(3) -0.027(2)
O5B 0.040(3) 0.0213(19) 0.019(2) 0.0032(15) -0.016(2) -0.0128(18)
N1 0.0219(10) 0.0193(10) 0.0073(9) 0.0022(8) -0.0074(8) -0.0058(8)
N2 0.0137(9) 0.0147(9) 0.0107(9) 0.0014(7) -0.0041(7) -0.0021(7)
N3A 0.019(5) 0.0114(11) 0.017(4) 0.002(2) 0.000(5) -0.005(5)
N3B 0.019(5) 0.0114(11) 0.017(4) 0.002(2) 0.000(5) -0.005(5)
C1 0.0162(11) 0.0202(12) 0.0096(10) 0.0018(9) -0.0041(9) -0.0057(9)
C2 0.0108(10) 0.0166(10) 0.0119(10) 0.0000(8) -0.0046(8) -0.0042(8)
C3 0.0142(10) 0.0157(10) 0.0120(10) 0.0026(8) -0.0041(8) -0.0061(8)
C4 0.0100(10) 0.0153(10) 0.0106(10) 0.0013(8) -0.0031(8) -0.0031(8)
C5 0.0101(10) 0.0150(10) 0.0123(10) 0.0005(8) -0.0040(8) -0.0016(8)
C6 0.0300(13) 0.0125(11) 0.0169(11) -0.0006(9) -0.0096(10) -0.0034(9)
C7 0.0389(14) 0.0126(11) 0.0235(12) 0.0062(9) -0.0150(11) -0.0040(10)
C8 0.0185(11) 0.0171(11) 0.0138(11) 0.0071(9) -0.0074(9) -0.0015(9)
C9 0.0110(10) 0.0175(11) 0.0106(10) 0.0006(8) -0.0037(8) -0.0024(8)
C10 0.0088(10) 0.0152(10) 0.0106(10) 0.0007(8) -0.0038(8) -0.0033(8)
C11 0.0112(10) 0.0135(10) 0.0109(10) 0.0013(8) -0.0024(8) -0.0014(8)
C12 0.0279(12) 0.0199(11) 0.0113(11) 0.0088(9) -0.0078(9) -0.0110(10)
loop_
_atom_type_symbol
_atom_type_description
_atom_type_scat_dispersion_real
_atom_type_scat_dispersion_imag
_atom_type_scat_source
C C 0.0033 0.0016 'International Tables Vol C Tables 4.2.6.8 and 6.1.1.4'
H H 0.0000 0.0000 'International Tables Vol C Tables 4.2.6.8 and 6.1.1.4'
Br Br -0.2901 2.4595 'International Tables Vol C Tables 4.2.6.8 and 6.1.1.4'
N N 0.0061 0.0033 'International Tables Vol C Tables 4.2.6.8 and 6.1.1.4'
O O 0.0106 0.0060 'International Tables Vol C Tables 4.2.6.8 and 6.1.1.4'
loop_
_geom_angle_atom_site_label_1
_geom_angle_atom_site_label_2
_geom_angle_atom_site_label_3
_geom_angle
C11 O2 C12 117.30(16)
C1 N1 H1 124.0(18)
C9 N1 H1 124.5(18)
C9 N1 C1 111.49(17)
C4 N2 C5 116.96(18)
O4A N3A O5A 123.4(13)
O4A N3A C6 122.6(11)
O5A N3A C6 113.9(9)
O4B N3B C6 118.5(11)
O5B N3B O4B 124.9(13)
O5B N3B C6 116.3(10)
O1 C1 N1 126.56(19)
O1 C1 C2 128.82(19)
N1 C1 C2 104.62(17)
C3 C2 C1 135.37(19)
C3 C2 C10 118.41(19)
C10 C2 C1 106.21(17)
C2 C3 H3 122.1
C2 C3 C4 115.88(19)
C4 C3 H3 122.1
N2 C4 C3 126.28(19)
N2 C4 C11 114.77(17)
C3 C4 C11 118.95(18)
N2 C5 C6 126.93(19)
N2 C5 C10 119.36(18)
C10 C5 C6 113.71(18)
C5 C6 N3A 122.0(6)
C5 C6 N3B 117.3(6)
C7 C6 N3A 115.9(6)
C7 C6 N3B 120.7(6)
C7 C6 C5 121.3(2)
C6 C7 H7 118.8
C6 C7 C8 122.4(2)
C8 C7 H7 118.8
C7 C8 Br1 120.03(16)
C9 C8 Br1 121.60(16)
C9 C8 C7 118.38(19)
N1 C9 C10 107.14(18)
C8 C9 N1 135.03(19)
C8 C9 C10 117.83(19)
C2 C10 C5 123.08(19)
C2 C10 C9 110.55(18)
C5 C10 C9 126.37(19)
O2 C11 C4 109.84(17)
O3 C11 O2 126.02(18)
O3 C11 C4 124.14(18)
O2 C12 H12A 109.5
O2 C12 H12B 109.5
O2 C12 H12C 109.5
H12A C12 H12B 109.5
H12A C12 H12C 109.5
H12B C12 H12C 109.5
loop_
_geom_bond_atom_site_label_1
_geom_bond_atom_site_label_2
_geom_bond_distance
Br1 C8 1.885(2)
O1 C1 1.208(3)
O2 C11 1.323(3)
O2 C12 1.450(2)
O3 C11 1.210(2)
O4A N3A 1.228(13)
O4B N3B 1.229(14)
O5A N3A 1.230(14)
O5B N3B 1.226(16)
N1 H1 0.81(3)
N1 C1 1.405(3)
N1 C9 1.387(3)
N2 C4 1.332(3)
N2 C5 1.362(3)
N3A C6 1.491(16)
N3B C6 1.460(15)
C1 C2 1.512(3)
C2 C3 1.365(3)
C2 C10 1.385(3)
C3 H3 0.9500
C3 C4 1.425(3)
C4 C11 1.511(3)
C5 C6 1.428(3)
C5 C10 1.390(3)
C6 C7 1.371(3)
C7 H7 0.9500
C7 C8 1.424(3)
C8 C9 1.363(3)
C9 C10 1.414(3)
C12 H12A 0.9800
C12 H12B 0.9800
C12 H12C 0.9800
loop_
_geom_hbond_atom_site_label_D
_geom_hbond_atom_site_label_H
_geom_hbond_atom_site_label_A
_geom_hbond_distance_DH
_geom_hbond_distance_HA
_geom_hbond_distance_DA
_geom_hbond_angle_DHA
_geom_hbond_site_symmetry_A
N1 H1 O3 0.81(3) 2.09(3) 2.896(2) 169(3) 1_556
loop_
_geom_torsion_atom_site_label_1
_geom_torsion_atom_site_label_2
_geom_torsion_atom_site_label_3
_geom_torsion_atom_site_label_4
_geom_torsion
Br1 C8 C9 N1 1.4(3)
Br1 C8 C9 C10 -178.62(15)
O1 C1 C2 C3 0.1(4)
O1 C1 C2 C10 179.3(2)
O4A N3A C6 N3B 144(5)
O4A N3A C6 C5 -135.8(10)
O4A N3A C6 C7 34.3(13)
O4B N3B C6 N3A -112(4)
O4B N3B C6 C5 137.9(7)
O4B N3B C6 C7 -32.4(8)
O5A N3A C6 N3B -33(3)
O5A N3A C6 C5 47.0(12)
O5A N3A C6 C7 -142.9(9)
O5B N3B C6 N3A 62(3)
O5B N3B C6 C5 -47.7(8)
O5B N3B C6 C7 142.0(7)
N1 C1 C2 C3 -179.0(2)
N1 C1 C2 C10 0.2(2)
N1 C9 C10 C2 -0.4(2)
N1 C9 C10 C5 179.62(19)
N2 C4 C11 O2 -166.57(16)
N2 C4 C11 O3 13.9(3)
N2 C5 C6 N3A -9.6(5)
N2 C5 C6 N3B 10.6(5)
N2 C5 C6 C7 -179.2(2)
N2 C5 C10 C2 -0.6(3)
N2 C5 C10 C9 179.42(18)
N3A C6 C7 C8 -170.2(4)
N3B C6 C7 C8 169.9(4)
C1 N1 C9 C8 -179.5(2)
C1 N1 C9 C10 0.5(2)
C1 C2 C3 C4 179.9(2)
C1 C2 C10 C5 -179.87(19)
C1 C2 C10 C9 0.1(2)
C2 C3 C4 N2 -0.1(3)
C2 C3 C4 C11 -179.86(17)
C3 C2 C10 C5 -0.6(3)
C3 C2 C10 C9 179.42(18)
C3 C4 C11 O2 13.2(3)
C3 C4 C11 O3 -166.33(19)
C4 N2 C5 C6 -179.0(2)
C4 N2 C5 C10 1.3(3)
C5 N2 C4 C3 -1.0(3)
C5 N2 C4 C11 178.73(17)
C5 C6 C7 C8 -0.1(4)
C6 C5 C10 C2 179.65(19)
C6 C5 C10 C9 -0.3(3)
C6 C7 C8 Br1 178.81(18)
C6 C7 C8 C9 -0.7(4)
C7 C8 C9 N1 -179.1(2)
C7 C8 C9 C10 0.9(3)
C8 C9 C10 C2 179.64(18)
C8 C9 C10 C5 -0.4(3)
C9 N1 C1 O1 -179.5(2)
C9 N1 C1 C2 -0.4(2)
C10 C2 C3 C4 0.9(3)
C10 C5 C6 N3A 170.1(4)
C10 C5 C6 N3B -169.7(4)
C10 C5 C6 C7 0.5(3)
C12 O2 C11 O3 -1.8(3)
C12 O2 C11 C4 178.71(16)
