#------------------------------------------------------------------------------
#$Date: 2019-11-04 12:01:43 +0200 (Mon, 04 Nov 2019) $
#$Revision: 222676 $
#$URL: file:///home/coder/svn-repositories/cod/cif/4/03/41/4034118.cif $
#------------------------------------------------------------------------------
#
# This file is available in the Crystallography Open Database (COD),
# http://www.crystallography.net/
#
# All data on this site have been placed in the public domain by the
# contributors.
#
data_4034118
loop_
_publ_author_name
'Kaleta, Ji\<r\'i'
'Bastien, Guillaume'
'Wen, Jin'
'Dra\<c\'insk\'y, Martin'
'Tortorici, Edward'
'C\'isa\<rov\'a, Ivana'
'Beale, Paul D.'
'Rogers, Charles T.'
'Michl, Josef'
_publ_section_title
;
 Bulk Inclusions of Double Pyridazine Molecular Rotors in Hexagonal Tris(
 o-phenylene)cyclotriphosphazene.
;
_journal_issue                   13
_journal_name_full               'The Journal of organic chemistry'
_journal_page_first              8449
_journal_page_last               8467
_journal_paper_doi               10.1021/acs.joc.9b00553
_journal_volume                  84
_journal_year                    2019
_chemical_compound_source        'Synthesized by Dr. Jiri Kaleta'
_chemical_formula_moiety         'C13 H8 Br4'
_chemical_formula_sum            'C13 H8 Br4'
_chemical_formula_weight         483.83
_space_group_crystal_system      monoclinic
_space_group_IT_number           14
_space_group_name_Hall           '-P 2ybc'
_space_group_name_H-M_alt        'P 1 21/c 1'
_atom_sites_solution_hydrogens   mixed
_atom_sites_solution_primary     direct
_audit_creation_method           SHELXL-2014/7
_cell_angle_alpha                90
_cell_angle_beta                 102.868(2)
_cell_angle_gamma                90
_cell_formula_units_Z            2
_cell_length_a                   13.8295(6)
_cell_length_b                   5.7329(2)
_cell_length_c                   9.3551(3)
_cell_measurement_reflns_used    3857
_cell_measurement_temperature    150(2)
_cell_measurement_theta_max      27.5085
_cell_measurement_theta_min      3.0218
_cell_volume                     723.07(5)
_computing_cell_refinement       'SAINT V8.34A (Bruker AXS Inc., 2013)'
_computing_data_collection       'Bruker Instrument Service v2015.5.1.2'
_computing_data_reduction        'SAINT V8.34A (Bruker AXS Inc., 2013)'
_computing_structure_refinement  'SHELXL-2014/7 (Sheldrick, 2014)'
_computing_structure_solution    'SHELXS-97 (Sheldrick, 1990)'
_diffrn_ambient_temperature      150(2)
_diffrn_measured_fraction_theta_full 1.000
_diffrn_measured_fraction_theta_max 1.000
_diffrn_measurement_device_type  'Bruker APEX-II CCD'
_diffrn_measurement_method       '\f and \w scans'
_diffrn_radiation_type           MoK\a
_diffrn_radiation_wavelength     0.71073
_diffrn_reflns_av_R_equivalents  0.0208
_diffrn_reflns_av_unetI/netI     0.0196
_diffrn_reflns_Laue_measured_fraction_full 1.000
_diffrn_reflns_Laue_measured_fraction_max 1.000
_diffrn_reflns_limit_h_max       17
_diffrn_reflns_limit_h_min       -17
_diffrn_reflns_limit_k_max       6
_diffrn_reflns_limit_k_min       -7
_diffrn_reflns_limit_l_max       12
_diffrn_reflns_limit_l_min       -11
_diffrn_reflns_number            6067
_diffrn_reflns_point_group_measured_fraction_full 1.000
_diffrn_reflns_point_group_measured_fraction_max 1.000
_diffrn_reflns_theta_full        25.242
_diffrn_reflns_theta_max         27.496
_diffrn_reflns_theta_min         1.510
_diffrn_source                   'fine-focus sealed tube'
_exptl_absorpt_coefficient_mu    11.107
_exptl_absorpt_correction_T_max  0.36
_exptl_absorpt_correction_T_min  0.06
_exptl_absorpt_correction_type   numerical
_exptl_absorpt_process_details   'SADABS V2014/5 (Bruker AXS Inc.)'
_exptl_crystal_colour            colourless
_exptl_crystal_density_diffrn    2.222
_exptl_crystal_description       plate
_exptl_crystal_F_000             452
_exptl_crystal_size_max          0.369
_exptl_crystal_size_mid          0.188
_exptl_crystal_size_min          0.116
_refine_diff_density_max         0.322
_refine_diff_density_min         -0.508
_refine_diff_density_rms         0.078
_refine_ls_extinction_method     none
_refine_ls_goodness_of_fit_ref   1.054
_refine_ls_hydrogen_treatment    constr
_refine_ls_matrix_type           full
_refine_ls_number_parameters     91
_refine_ls_number_reflns         1664
_refine_ls_number_restraints     0
_refine_ls_restrained_S_all      1.054
_refine_ls_R_factor_all          0.0229
_refine_ls_R_factor_gt           0.0184
_refine_ls_shift/su_max          0.002
_refine_ls_shift/su_mean         0.000
_refine_ls_structure_factor_coef Fsqd
_refine_ls_weighting_details
'w=1/[\s^2^(Fo^2^)+(0.0173P)^2^+0.3635P] where P=(Fo^2^+2Fc^2^)/3'
_refine_ls_weighting_scheme      calc
_refine_ls_wR_factor_gt          0.0394
_refine_ls_wR_factor_ref         0.0411
_reflns_Friedel_coverage         0.000
_reflns_number_gt                1494
_reflns_number_total             1664
_reflns_threshold_expression     'I > 2\s(I)'
_cod_data_source_file            jo9b00553_si_009.cif
_cod_data_source_block           21_JK656
_cod_original_sg_symbol_H-M      'P 21/c'
_cod_database_code               4034118
_shelx_shelxl_version_number     2014/7
_shelx_space_group_comment
;
The symmetry employed for this shelxl refinement is uniquely defined
by the following loop, which should always be used as a source of
symmetry information in preference to the above space-group names.
They are only intended as comments.
;
_shelx_estimated_absorpt_t_min   0.105
_shelx_estimated_absorpt_t_max   0.359
_shelx_res_file
;

    jk656_kaleta_uochb.res created by SHELXL-2014/7


TITL jk656_kaleta_uochb_0ma in P2(1)/c
CELL 0.71073 13.8295 5.7329 9.3551 90.000 102.868 90.000
ZERR 2.00 0.0006 0.0002 0.0003 0.000 0.002 0.000
LATT 1
SYMM -x, y+1/2, -z+1/2
SFAC  C   H   BR
UNIT   26    16   8
OMIT -2 55
L.S.  4
ACTA
BOND $H
FMAP 2
PLAN -21
CONF
HTAB
SIZE 0.116 0.188 0.369
TEMP -123.000
WGHT    0.017300    0.363500
FVAR       0.16235
BR1   3    0.700998    0.171207   -0.064256    11.00000    0.03475    0.02481 =
         0.03960    0.00322   -0.00004   -0.00741
BR2   3    0.541005   -0.233259   -0.126359    11.00000    0.02292    0.03038 =
         0.02374   -0.00209   -0.00146   -0.00485
C1    1    0.942485   -0.034276    0.427445    11.00000    0.02347    0.03208 =
         0.02081   -0.00304   -0.00075    0.00031
C2    1    0.948395    0.099111    0.577902    10.50000    0.02709    0.03918 =
         0.03081   -0.01089    0.00125    0.00184
AFIX   3
H2A   2    0.931401    0.267093    0.570828    10.50000   -1.20000
H2B   2    0.920495    0.015615    0.652168    10.50000   -1.20000
AFIX   0
C3    1    1.012810   -0.222256    0.529573    10.50000    0.03139    0.02878 =
         0.03639   -0.00204   -0.00598    0.00057
AFIX   3
H3A   2    0.984048   -0.303358    0.603833    10.50000   -1.20000
H3B   2    1.052301   -0.325847    0.479885    10.50000   -1.20000
AFIX   0
C4    1    1.034096    0.087674    0.412269    10.50000    0.03846    0.05561 =
         0.01677    0.00578   -0.00186   -0.01578
AFIX   3
H4A   2    1.026202    0.255074    0.386308    10.50000   -1.20000
H4B   2    1.074991    0.003740    0.354460    10.50000   -1.20000
AFIX   0
C5    1    0.854158   -0.089382    0.317798    11.00000    0.02505    0.03257 =
         0.02241   -0.00355    0.00326    0.00118
C6    1    0.783132   -0.139850    0.224686    11.00000    0.02646    0.02867 =
         0.02365   -0.00182    0.00515    0.00212
C7    1    0.698210   -0.219268    0.121337    11.00000    0.02279    0.02709 =
         0.02265   -0.00379    0.00655   -0.00269
AFIX  43
H7    2    0.669818   -0.362822    0.141974    11.00000   -1.20000
AFIX   0
C8    1    0.654984   -0.110529   -0.001629    11.00000    0.01881    0.02269 =
         0.02255   -0.00447    0.00394   -0.00203
HKLF 4 1 1 0 0 0 1 0 0 0 1

REM  jk656_kaleta_uochb_0ma in P2(1)/c
REM R1 =  0.0184 for    1494 Fo > 4sig(Fo)  and  0.0229 for all    1664 data
REM     91 parameters refined using      0 restraints

END

WGHT      0.0173      0.3626

REM No hydrogen bonds found for HTAB generation

REM Highest difference peak  0.322,  deepest hole -0.508,  1-sigma level  0.078
Q1    1   0.7181  0.1881  0.0247  11.00000  0.05    0.32
Q2    1   0.7441  0.0709 -0.0733  11.00000  0.05    0.28
Q3    1   1.0238  0.1402  0.5345  11.00000  0.05    0.25
Q4    1   0.6949 -0.2038  0.0414  11.00000  0.05    0.24
Q5    1   0.5654  0.1748 -0.0312  11.00000  0.05    0.24
Q6    1   0.6965  0.1076 -0.2027  11.00000  0.05    0.24
Q7    1   0.8117 -0.0525  0.2238  11.00000  0.05    0.23
Q8    1   0.7787  0.4959 -0.1037  11.00000  0.05    0.23
Q9    1   0.5373  0.0762  0.0249  11.00000  0.05    0.23
Q10   1   0.4817 -0.1998 -0.0739  11.00000  0.05    0.22
Q11   1   0.7946 -0.1338  0.3301  11.00000  0.05    0.22
Q12   1   0.7810 -0.0812  0.4410  11.00000  0.05    0.21
Q13   1   0.8346  0.3760 -0.0267  11.00000  0.05    0.21
Q14   1   0.8592 -0.1377  0.1349  11.00000  0.05    0.21
Q15   1   0.5863 -0.2927 -0.1549  11.00000  0.05    0.20
Q16   1   0.9427  0.2364  0.5242  11.00000  0.05    0.20
Q17   1   0.6764 -0.2683 -0.1662  11.00000  0.05    0.20
Q18   1   0.6841 -0.4480  0.1549  11.00000  0.05    0.20
Q19   1   0.8613 -0.1662  0.2811  11.00000  0.05    0.20
Q20   1   0.7315 -0.2137 -0.0858  11.00000  0.05    0.20
Q21   1   0.8999 -0.0957  0.6700  11.00000  0.05    0.20
;
_shelx_res_checksum              90398
_shelx_hkl_file
;
   0   0   1   -0.03    0.04
   0   0  -1    0.03    0.05
   0   0   2  294.16    6.61
   0   0  -2  279.18    6.50
   0   0  -2  296.81    6.71
   0   0   2  273.42    6.52
   0   0  -3   -0.06    0.08
   0   0   3   -0.10    0.07
   0   0   3    0.01    0.09
   0   0  -3   -0.02    0.09
   0   0   4  261.54    6.15
   0   0  -4  278.69    6.15
   0   0   4  270.17    6.15
   0   0  -4  269.93    6.15
   0   0   5   -0.02    0.13
   0   0  -5   -0.03    0.13
   0   0   5    0.11    0.15
   0   0   6   62.19    1.59
   0   0  -6   62.68    1.58
   0   0   6   60.95    1.58
   0   0  -7    0.22    0.20
   0   0   7   -0.16    0.18
   0   0  -7    0.21    0.20
   0   0   7   -0.23    0.20
   0   0  -8    4.08    0.37
   0   0  -8    3.94    0.37
   0   0   8    3.30    0.37
   0   0  -9    0.00    0.27
   0   0   9    0.15    0.32
   0   0  10    4.33    0.48
   0   0 -10    3.99    0.43
   0   0  11    0.22    0.41
   0   1   0   -0.62    0.04
   0  -1   0   -0.58    0.05
   0  -1   0   -0.64    0.04
   0   1   1   45.97    1.08
   0   1   1   45.25    1.08
   0  -1  -1   45.76    1.08
   0  -1  -1   45.98    1.08
   0   1   2   19.16    0.52
   0   1   2   19.28    0.53
   0   1  -2   18.94    0.47
   0   1  -2   19.18    0.45
   0  -1   2   18.42    0.46
   0   1   3   15.79    0.49
   0   1  -3   16.54    0.42
   0   1  -3   16.23    0.42
   0   1   3   15.28    0.49
   0  -1  -3   15.40    0.48
   0  -1   3   15.84    0.43
   0  -1   3   16.68    0.43
   0  -1  -3   15.81    0.49
   0   1   4  169.46    4.07
   0   1  -4  176.59    4.00
   0   1   4  175.35    4.08
   0   1  -4  180.71    4.01
   0   1  -4  176.82    4.00
   0  -1  -4  181.46    4.08
   0  -1   4  174.81    4.01
   0  -1   4  173.60    4.01
   0  -1  -4  171.78    4.07
   0   1  -5    0.84    0.14
   0   1  -5    0.99    0.14
   0   1   5    1.41    0.22
   0   1   5    1.01    0.18
   0   1  -5    1.01    0.15
   0  -1   5    0.76    0.14
   0  -1   5    0.90    0.16
   0  -1  -5    0.82    0.18
   0   1  -6  285.52    6.46
   0   1   6  283.08    6.55
   0  -1   6  285.00    6.48
   0  -1   6  281.19    6.48
   0  -1  -6  280.03    6.54
   0   1   7    1.13    0.28
   0   1  -7    1.44    0.21
   0  -1   7    1.44    0.23
   0  -1  -7    1.21    0.26
   0  -1   7    1.15    0.23
   0   1  -8    2.55    0.28
   0   1   8    3.17    0.39
   0  -1  -8    2.55    0.36
   0  -1   8    2.79    0.33
   0  -1  -8    2.51    0.36
   0   1   9   -0.09    0.33
   0   1  -9    0.06    0.23
   0  -1  -9   -0.06    0.31
   0  -1  -9    0.23    0.30
   0  -1   9    0.23    0.28
   0   1  10   55.64    1.72
   0  -1 -10   55.87    1.66
   0  -1  10   56.88    1.64
   0  -1 -10   54.79    1.67
   0   1  11    3.00    0.55
   0  -1 -11    2.62    0.52
   0  -1  11    2.82    0.47
   0   2   0  673.60   15.19
   0   2   0  648.86   15.17
   0  -2   0  683.45   15.23
   0  -2   0  665.90   15.23
   0   2   1   65.66    1.56
   0   2   1   63.66    1.55
   0  -2  -1   66.14    1.56
   0  -2   1   65.31    1.49
   0  -2  -1   66.27    1.56
   0   2   2   31.82    0.84
   0   2   2   32.16    0.84
   0  -2  -2   31.91    0.84
   0  -2  -2   30.53    0.84
   0   2   3   70.57    1.74
   0   2   3   67.41    1.72
   0  -2  -3   70.91    1.74
   0  -2  -3   71.75    1.73
   0  -2   3   70.47    1.60
   0  -2   3   71.78    1.60
   0   2   4  177.00    4.15
   0  -2   4  177.23    4.01
   0   2  -5  114.96    2.68
   0   2   5  119.75    2.85
   0   2  -5  115.15    2.64
   0  -2   5  114.62    2.70
   0  -2  -5  117.35    2.84
   0  -2   5  117.50    2.70
   0   2  -6    6.44    0.32
   0   2  -6    6.75    0.27
   0   2   6    7.23    0.51
   0  -2  -6    7.08    0.48
   0  -2   6    6.66    0.32
   0  -2   6    7.34    0.34
   0   2  -7    9.70    0.36
   0   2   7    9.33    0.60
   0  -2  -7   10.42    0.59
   0  -2   7    9.72    0.45
   0  -2   7    9.06    0.42
   0   2  -8   33.93    0.94
   0   2   8   35.78    1.21
   0  -2   8   36.44    1.04
   0  -2  -8   34.99    1.17
   0   2   9   14.97    0.86
   0  -2  -9   15.65    0.81
   0  -2   9   15.57    0.68
   0  -2  -9   16.11    0.82
   0   2  10    4.84    0.61
   0  -2 -10    4.86    0.55
   0  -2  10    4.47    0.44
   0  -2 -10    5.16    0.55
   0   2  11   10.01    0.81
   0  -2 -11    7.84    0.69
   0  -2  11   10.86    0.72
   0   3   0    0.11    0.09
   0   3   0    0.06    0.10
   0  -3   0    0.04    0.10
   0  -3   0    0.02    0.10
   0   3  -1  316.23    7.21
   0   3   1  321.40    7.29
   0   3   1  321.34    7.29
   0  -3   1  325.20    7.23
   0  -3  -1  323.33    7.30
   0  -3  -1  318.65    7.29
   0   3   2   78.46    1.90
   0  -3  -2   77.85    1.91
   0  -3   2   76.77    1.78
   0  -3   2   78.22    1.78
   0  -3  -2   77.84    1.90
   0   3   3    1.16    0.21
   0  -3  -3    1.70    0.23
   0  -3  -3    1.25    0.22
   0   3   4    2.49    0.29
   0  -3  -4    2.46    0.27
   0   3   5   37.53    1.14
   0  -3   5   37.55    0.90
   0  -3  -5   36.82    1.13
   0  -3   5   37.35    0.91
   0   3   6   89.38    2.32
   0  -3   6   89.47    2.09
   0  -3   6   88.37    2.10
   0  -3  -6   89.06    2.32
   0   3   7   26.20    1.00
   0  -3  -7   25.46    0.98
   0  -3   7   25.78    0.74
   0   3   8    0.35    0.36
   0  -3  -8    0.44    0.36
   0  -3   8    0.33    0.21
   0   3   9    2.91    0.48
   0  -3  -9    3.76    0.53
   0  -3   9    4.06    0.35
   0  -3  -9    3.33    0.49
   0   3  10   25.01    1.19
   0  -3 -10   24.54    1.14
   0  -3  10   26.13    0.89
   0  -3 -10   22.83    1.12
   0   4   0   14.94    0.48
   0  -4   0   15.10    0.51
   0  -4   0   14.88    0.49
   0   4   1    0.66    0.17
   0  -4   1    0.47    0.13
   0  -4  -1    0.38    0.19
   0  -4   1    0.26    0.12
   0  -4  -1    0.23    0.15
   0   4   2    5.10    0.37
   0  -4   2    4.48    0.21
   0  -4  -2    4.55    0.39
   0  -4   2    4.56    0.23
   0  -4  -2    4.29    0.35
   0   4   3   29.17    0.93
   0  -4  -3   30.19    0.99
   0  -4  -3   30.65    0.95
   0   4   4   89.46    2.30
   0  -4  -4   92.04    2.33
   0   4   5   76.71    2.04
   0  -4  -5   76.37    2.04
   0   4   6    2.77    0.41
   0  -4  -6    3.58    0.45
   0   4   7    4.10    0.49
   0  -4  -7    4.83    0.52
   0   4   8   50.92    1.62
   0  -4   8   48.59    1.22
   0  -4  -8   48.87    1.61
   0   4   9    5.61    0.64
   0  -4  -9    5.73    0.62
   0  -4   9    6.58    0.52
   0  -4  -9    5.03    0.60
   0  -4 -10   -0.04    0.48
   0   5   0   -0.01    0.15
   0  -5   0   -0.22    0.20
   0  -5   0   -0.10    0.17
   0   5   1   58.63    1.50
   0  -5  -1   56.89    1.54
   0  -5  -1   58.42    1.54
   0  -5   1   57.98    1.46
   0  -5   1   58.53    1.47
   0  -5   1   58.89    1.47
   0   5   2  140.31    3.40
   0  -5  -2  144.47    3.45
   0  -5   2  141.67    3.29
   0  -5   2  142.74    3.29
   0   5   3    7.78    0.51
   0  -5  -3    7.15    0.53
   0  -5   3    7.01    0.26
   0  -5   3    7.08    0.29
   0   5   4   28.28    0.99
   0  -5  -4   28.64    1.02
   0   5   5   19.33    0.86
   0  -5  -5   20.44    0.90
   0   5   6    2.04    0.44
   0  -5  -6    2.13    0.46
   0   5   7    0.97    0.44
   0  -5  -7    0.80    0.45
   0   5   8    1.01    0.47
   0  -5  -8    1.41    0.52
   0  -5  -8    0.87    0.52
   0  -6   0    0.57    0.28
   0  -6   0    0.27    0.27
   0  -6  -1    4.68    0.43
   0  -6   1    4.47    0.35
   0  -6  -1    5.13    0.43
   0  -6  -2   14.21    0.72
   0  -6   2   14.15    0.53
   0  -6  -2   13.03    0.70
   0  -6   3    0.27    0.16
   0  -6  -3    0.38    0.35
   0  -6  -3   -0.10    0.34
   0  -6  -4   15.10    0.84
   0  -6  -4   17.16    0.86
   0   6   5    8.42    0.95
   0  -6  -5    7.71    0.63
   0  -6  -5    6.04    0.60
   0   6   6   14.78    1.02
   0  -6  -6   14.38    0.93
   0  -6  -6   13.72    0.91
   0   6   7    2.10    0.74
   0  -6  -7    2.08    0.57
   0  -6  -7    2.84    0.58
   0  -7   0    0.08    0.32
   0  -7  -1    0.10    0.34
   0  -7   1    0.19    0.28
   0  -7   2   33.66    1.09
   0  -7  -2   34.26    1.23
   0  -7  -2   35.94    1.24
   0  -7  -3    5.35    0.59
   0  -7  -3    4.83    0.57
   0  -7  -4   11.85    0.90
   0  -7  -4   11.84    0.90
  -1   0  11   -0.62    0.39
  -1   0  10    4.14    0.48
   1   0 -10    4.10    0.43
   1   0  -9   -0.08    0.26
  -1   0   9    0.26    0.31
   1   0  -8   63.22    1.69
  -1   0   8   64.42    1.72
   1   0  -7    0.17    0.20
  -1   0   7   -0.09    0.18
  -1   0   7   -0.04    0.20
   1   0  -6   18.71    0.63
  -1   0   6   18.50    0.62
  -1   0   6   19.85    0.64
   1   0  -6   18.03    0.63
  -1   0   5    0.04    0.13
   1   0  -5    0.01    0.14
   1   0  -5    0.01    0.14
  -1   0   5    0.01    0.12
   1   0  -4  795.94   18.17
  -1   0   4  776.69   18.09
   1   0  -4  790.08   18.05
  -1   0   4  779.37   18.26
   1   0  -4  797.51   18.14
   1   0  -3   -0.06    0.09
  -1   0   3   -0.11    0.08
   1   0  -3    0.10    0.09
   1   0  -3   -0.05    0.08
  -1   0   3   -0.05    0.08
  -1   0   2  180.50    4.30
   1   0  -2  190.96    4.30
   1   0  -2  190.31    4.29
  -1   0   2  179.18    4.21
  -1   0   1   -0.29    0.04
   1   0  -1   -0.19    0.04
   1   0  -1   -0.20    0.05
  -1   0   1   -0.11    0.05
   1   0   0  242.60    6.17
  -1   0   0  299.07    6.37
   1   0   1    0.02    0.04
   1   0   1   -0.07    0.05
  -1   0  -1   -0.03    0.04
  -1   0  -1   -0.07    0.04
  -1   0  -2  327.12    7.56
   1   0   2  330.19    7.59
  -1   0  -2  327.93    7.64
   1   0   2  327.94    7.52
  -1   0  -3    0.09    0.09
   1   0   3   -0.03    0.10
  -1   0  -3   -0.02    0.09
   1   0   3    0.03    0.09
   1   0   4    0.42    0.16
  -1   0  -4    0.23    0.13
   1   0   4    0.08    0.12
  -1   0  -4    0.29    0.13
  -1   0  -5    0.08    0.15
   1   0   5   -0.02    0.13
   1   0   5   -0.02    0.17
   1   0   6   25.02    0.78
  -1   0  -6   23.86    0.75
   1   0   6   23.74    0.76
   1   0   7    0.31    0.24
   1   0   7   -0.13    0.20
  -1   0  -7   -0.07    0.20
  -1   0  -8   85.20    2.20
   1   0   8   86.74    2.24
  -1   0  -9    0.06    0.27
  -1   0  -9   -0.01    0.27
   1   0   9    0.13    0.31
   1   0  10   20.55    0.92
  -1   0 -10   19.43    0.86
  -1   0 -10   20.17    0.86
   1   0  11    0.45    0.42
  -1   1  11    3.53    0.55
   1  -1 -11    3.40    0.49
  -1  -1  11    4.04    0.50
  -1   1  10   96.25    2.60
  -1  -1  10   95.33    2.51
   1  -1 -10   96.73    2.55
   1   1  -9   -0.02    0.22
  -1   1   9    0.26    0.33
   1  -1  -9    0.15    0.29
   1  -1  -9    0.18    0.30
  -1  -1   9   -0.17    0.27
   1   1  -8   96.04    2.36
  -1   1   8   95.33    2.47
  -1  -1   8   96.68    2.42
  -1  -1   8   96.20    2.40
   1  -1  -8   95.06    2.45
   1  -1  -8   97.64    2.46
   1   1  -7    3.61    0.31
  -1   1   7    3.65    0.36
   1  -1  -7    3.42    0.33
   1  -1  -7    3.44    0.34
  -1  -1   7    3.30    0.27
  -1  -1   7    4.28    0.36
   1   1  -6   31.75    0.87
  -1   1   6   32.68    0.97
   1  -1  -6   32.12    0.96
  -1  -1   6   30.93    0.88
  -1  -1   6   32.90    0.90
   1  -1  -6   32.84    0.96
  -1   1   5   44.24    1.19
  -1   1   5   43.25    1.17
   1   1  -5   44.50    1.10
   1   1  -5   44.90    1.10
   1  -1  -5   42.23    1.18
  -1  -1   5   44.23    1.11
  -1  -1   5   45.22    1.12
   1   1  -4   54.13    1.29
  -1   1   4   55.76    1.37
   1   1  -4   54.60    1.29
  -1   1   4   51.90    1.36
   1  -1  -4   55.03    1.37
  -1  -1   4   52.54    1.30
  -1  -1   4   53.93    1.30
   1  -1  -4   54.79    1.37
  -1   1   3   77.53    1.91
   1   1  -3   79.74    1.84
  -1   1   3   79.74    1.91
   1   1  -3   81.36    1.85
  -1  -1   3   79.69    1.85
   1  -1  -3   81.94    1.91
  -1  -1   3   81.13    1.85
   1   1  -2    0.86    0.09
  -1   1   2    0.52    0.11
   1   1  -2    0.80    0.07
   1  -1  -2    0.47    0.11
  -1  -1   2    0.62    0.08
   1  -1  -2    0.62    0.11
  -1   1   1  127.26    2.99
   1   1  -1  133.72    2.98
  -1   1   1  125.66    2.99
   1   1  -1  133.86    2.97
   1  -1  -1  132.79    2.99
  -1  -1   1  134.08    3.00
   1  -1  -1  131.24    2.99
   1  -1  -1  128.71    2.99
   1   1   0    9.70    0.27
  -1   1   0    9.59    0.26
   1   1   0    9.62    0.28
  -1   1   0    9.71    0.27
  -1  -1   0   10.08    0.27
   1  -1   0    9.72    0.26
   1  -1   0   10.11    0.27
  -1  -1   0   10.10    0.28
   1   1   1  119.05    2.74
  -1   1  -1  119.95    2.71
   1   1   1  118.83    2.74
  -1   1  -1  120.67    2.70
  -1  -1  -1  116.59    2.74
   1  -1   1  122.28    2.72
  -1  -1  -1  119.49    2.74
  -1   1  -2  633.20   14.06
   1   1   2  594.40   14.12
  -1   1  -2  614.91   14.14
   1   1   2  619.92   14.33
   1  -1   2  629.75   14.11
   1  -1   2  613.94   14.20
  -1  -1  -2  650.28   14.45
  -1  -1  -2  613.75   14.21
  -1   1  -3   68.29    1.63
  -1   1  -3   68.85    1.60
   1   1   3   67.99    1.67
   1   1   3   69.03    1.68
  -1  -1  -3   70.83    1.68
   1  -1   3   66.62    1.61
   1  -1   3   69.60    1.62
  -1  -1  -3   70.26    1.68
  -1   1  -4   -0.02    0.10
   1   1   4    0.06    0.16
   1   1   4   -0.14    0.13
  -1   1  -4    0.00    0.11
   1  -1   4    0.09    0.12
  -1  -1  -4   -0.01    0.14
   1  -1   4    0.05    0.10
  -1  -1  -4   -0.19    0.14
   1   1   5    3.57    0.31
   1   1   5    2.92    0.27
  -1   1  -5    3.83    0.25
   1  -1   5    3.84    0.25
  -1  -1  -5    3.71    0.29
   1  -1   5    4.19    0.29
   1   1   6  360.95    8.48
  -1   1  -6  373.92    8.38
   1  -1   6  361.45    8.41
   1  -1   6  371.01    8.41
  -1  -1  -6  377.42    8.48
   1   1   7    0.70    0.29
  -1   1  -7    0.28    0.18
  -1   1  -7    0.01    0.17
  -1  -1  -7    0.26    0.24
   1  -1   7    0.46    0.23
   1  -1   7   -0.05    0.18
   1   1   8   64.10    1.81
  -1   1  -8   65.06    1.68
  -1   1  -8   63.29    1.67
   1  -1   8   64.49    1.73
  -1  -1  -8   65.80    1.78
   1   1   9    2.03    0.41
  -1   1  -9    1.50    0.28
  -1  -1  -9    1.60    0.37
   1  -1   9    1.42    0.34
   1   1  10   20.28    0.98
  -1  -1 -10   21.11    0.92
  -1  -1 -10   20.33    0.92
   1  -1  10   20.42    0.88
   1   1  11    0.85    0.46
   1  -1  11    0.70    0.42
  -1   2  11    0.22    0.49
  -1  -2  11    0.64    0.36
   1  -2 -11    0.53    0.44
  -1   2  10    0.31    0.44
  -1  -2  10    0.44    0.31
   1  -2 -10   -0.20    0.39
  -1   2   9   42.92    1.44
   1  -2  -9   46.58    1.44
  -1  -2   9   45.63    1.29
   1  -2  -9   44.30    1.42
   1   2  -8   29.33    0.83
  -1   2   8   29.18    1.06
  -1  -2   8   30.33    0.90
   1  -2  -8   28.99    1.04
   1  -2  -8   29.52    1.04
   1   2  -7   29.03    0.78
  -1   2   7   29.86    1.01
   1  -2  -7   29.22    0.99
   1  -2  -7   28.68    0.99
  -1  -2   7   29.76    0.85
  -1  -2   7   29.03    0.84
   1   2  -6    8.65    0.32
  -1   2   6    8.69    0.52
   1   2  -6    8.68    0.30
  -1  -2   6    8.31    0.35
  -1  -2   6    8.83    0.37
   1  -2  -6    8.95    0.51
  -1   2   5    0.34    0.21
  -1  -2   5   -0.02    0.10
  -1  -2   5   -0.05    0.11
   1  -2  -5    0.05    0.21
  -1   2   4  452.93   10.03
   1  -2  -4  445.41   10.03
   1  -2  -4  456.29   10.03
  -1  -2   4  402.49    9.97
  -1  -2   4  447.76   10.01
  -1   2   3   19.08    0.60
  -1   2   3   18.13    0.57
  -1  -2   3   19.45    0.46
   1  -2  -3   18.94    0.59
   1  -2  -3   18.96    0.60
  -1  -2   3   19.44    0.46
  -1   2   2   31.19    0.82
  -1   2   2   31.14    0.83
  -1  -2   2   32.13    0.80
   1  -2  -2   29.63    0.82
  -1  -2   2   32.71    0.74
   1  -2  -2   31.06    0.83
   1   2  -1   51.77    1.33
   1   2  -1   54.12    1.23
  -1   2   1   54.92    1.30
  -1   2   1   53.59    1.31
  -1  -2   1   55.55    1.26
   1  -2  -1   53.76    1.30
   1  -2  -1   55.17    1.31
  -1   2   0  488.11   10.78
   1   2   0  469.48   10.85
  -1   2   0  477.34   10.80
   1   2   0  474.88   10.78
   1  -2   0  470.98   10.75
  -1  -2   0  466.39   10.86
   1  -2   0  468.00   10.80
  -1  -2   0  459.38   10.78
   1  -2   0  473.25   10.77
   1   2   1  165.74    3.77
   1   2   1  160.14    3.77
  -1   2  -1  164.79    3.74
  -1   2  -1  167.81    3.69
   1  -2   1  163.01    3.71
  -1  -2  -1  163.15    3.78
  -1  -2  -1  167.13    3.77
   1   2   2   72.64    1.76
   1   2   2   72.68    1.76
   1  -2   2   71.18    1.76
  -1  -2  -2   73.74    1.76
   1  -2   2   74.43    1.71
  -1  -2  -2   71.59    1.77
   1   2   3    1.66    0.21
   1   2   3    1.82    0.20
  -1  -2  -3    1.95    0.21
   1  -2   3    2.12    0.14
  -1  -2  -3    2.01    0.21
   1  -2   3    2.31    0.14
   1  -2   4   64.73    1.53
  -1  -2  -4   64.57    1.66
   1   2   5   74.11    1.89
  -1   2  -5   72.38    1.77
  -1   2  -5   70.96    1.68
   1  -2   5   73.19    1.75
  -1  -2  -5   72.46    1.88
   1  -2   5   73.13    1.74
   1   2   6    0.90    0.29
  -1   2  -6    0.49    0.12
   1  -2   6    0.89    0.18
  -1  -2  -6    0.64    0.27
   1  -2   6    0.67    0.16
  -1   2  -7   57.78    1.42
   1   2   7   60.13    1.67
   1  -2   7   58.93    1.50
  -1  -2  -7   58.48    1.64
   1  -2   7   55.27    1.49
  -1   2  -8   33.52    1.04
   1   2   8   33.16    1.18
  -1  -2  -8   33.76    1.15
   1  -2   8   33.59    1.01
   1   2   9   15.09    0.81
  -1  -2  -9   15.70    0.82
   1  -2   9   14.15    0.68
   1   2  10    0.75    0.42
  -1  -2 -10    1.27    0.45
  -1  -2 -10    1.47    0.43
   1  -2  10    0.86    0.34
   1   2  11    1.44    0.54
  -1  -2 -11    0.95    0.47
  -1  -2 -11    1.39    0.47
   1  -2  11    1.24    0.40
  -1   3  10   12.91    0.92
   1  -3 -10   13.83    0.88
  -1  -3  10   13.41    0.64
   1  -3 -10   13.07    0.87
  -1   3   9    4.02    0.52
  -1  -3   9    4.41    0.35
   1  -3  -9    3.47    0.47
   1  -3  -9    3.55    0.49
  -1   3   8    9.96    0.73
  -1  -3   8   10.13    0.46
   1  -3  -8   10.99    0.73
   1  -3  -8   10.14    0.70
  -1   3   7    1.42    0.33
  -1  -3   7    1.98    0.21
   1  -3  -7    1.95    0.39
  -1  -3   7    1.40    0.25
   1  -3  -7    0.95    0.34
  -1   3   6   69.18    1.85
  -1  -3   6   67.36    1.62
  -1  -3   6   67.77    1.62
   1  -3  -6   69.25    1.86
  -1   3   5  102.77    2.51
  -1  -3   5   99.90    2.28
   1  -3  -5   97.01    2.49
  -1  -3   5   98.65    2.28
  -1   3   4   31.31    0.94
   1  -3  -4   30.23    0.93
  -1   3   3  171.18    4.03
   1  -3  -3  175.52    4.03
   1  -3  -3  169.53    4.04
  -1   3   2  144.98    3.45
  -1  -3   2  147.72    3.34
   1  -3  -2  146.72    3.46
  -1  -3   2  152.70    3.35
   1  -3  -2  146.18    3.46
   1   3  -1    6.25    0.21
  -1   3   1    6.12    0.30
   1   3  -1    6.84    0.30
  -1   3   1    5.89    0.28
   1  -3  -1    6.26    0.31
  -1  -3   1    5.89    0.24
  -1  -3   1    6.24    0.25
   1  -3  -1    5.89    0.29
  -1   3   0   -0.04    0.09
   1   3   0    0.07    0.11
   1   3   0   -0.02    0.10
  -1   3   0    0.09    0.11
   1  -3   0   -0.04    0.10
  -1  -3   0    0.15    0.12
   1  -3   0   -0.14    0.11
  -1  -3   0   -0.03    0.10
  -1   3  -1  115.17    2.63
   1   3   1  112.40    2.68
   1   3   1  114.17    2.67
  -1   3  -1  114.52    2.57
   1  -3   1  113.68    2.61
  -1  -3  -1  111.90    2.68
  -1  -3  -1  113.27    2.67
   1   3   2  181.07    4.27
  -1  -3  -2  186.12    4.28
   1  -3   2  187.34    4.16
  -1  -3  -2  184.05    4.29
   1  -3   2  181.61    4.16
   1   3   3  121.76    2.95
   1  -3   3  122.61    2.79
  -1  -3  -3  125.24    2.97
  -1  -3  -3  122.54    2.95
   1   3   4   20.49    0.74
   1  -3   4   20.70    0.52
  -1  -3  -4   20.70    0.74
   1  -3   4   21.18    0.63
   1   3   5   24.11    0.86
  -1  -3  -5   25.75    0.87
   1  -3   5   23.64    0.67
   1  -3   5   23.72    0.63
   1   3   6   46.98    1.42
   1  -3   6   48.26    1.22
  -1  -3  -6   48.04    1.42
   1  -3   6   49.65    1.20
   1   3   7    8.56    0.61
  -1  -3  -7    8.15    0.64
   1  -3   7    8.02    0.39
   1   3   8    4.93    0.55
   1  -3   8    4.02    0.33
  -1  -3  -8    5.10    0.54
   1   3   9    4.33    0.57
  -1  -3  -9    4.42    0.57
   1  -3   9    4.42    0.38
   1   3  10   17.28    1.05
  -1  -3 -10   16.66    0.98
  -1  -3 -10   15.84    0.99
   1  -3  10   16.69    0.73
  -1   4  10    5.53    0.67
   1  -4 -10    4.05    0.62
   1  -4 -10    5.38    0.66
  -1   4   9   31.52    1.29
  -1  -4   9   30.35    0.97
   1  -4  -9   30.70    1.27
   1  -4  -9   31.14    1.28
  -1   4   8   27.75    1.14
  -1  -4   8   28.11    0.76
   1  -4  -8   27.79    1.15
   1  -4  -8   27.83    1.14
  -1   4   7    4.13    0.48
   1  -4  -7    4.69    0.53
   1  -4  -7    4.93    0.55
  -1   4   6    7.73    0.61
   1  -4  -6    9.21    0.64
  -1   4   5    7.75    0.56
   1  -4  -5    7.27    0.56
  -1   4   4   26.76    0.90
   1  -4  -4   26.36    0.90
  -1   4   3   36.83    1.07
   1  -4  -3   36.66    1.09
   1  -4  -3   36.35    1.06
  -1   4   2    1.87    0.24
   1  -4  -2    0.81    0.20
  -1  -4   2    1.41    0.14
   1  -4  -2    1.06    0.23
  -1  -4   2    1.33    0.14
   1   4  -1   42.27    1.01
  -1   4   1   43.35    1.12
   1   4  -1   43.09    1.13
  -1  -4   1   42.14    1.07
   1  -4  -1   40.99    1.12
   1  -4  -1   44.02    1.15
  -1  -4   1   42.26    1.08
   1   4   0   60.47    1.49
  -1   4   0   62.41    1.51
   1  -4   0   62.12    1.53
  -1  -4   0   59.81    1.52
   1  -4   0   62.93    1.53
   1  -4   0   60.76    1.52
  -1  -4   0   61.97    1.53
   1   4   1   68.70    1.71
   1  -4   1   69.30    1.66
  -1  -4  -1   71.21    1.74
   1  -4   1   69.16    1.66
  -1  -4  -1   67.95    1.73
   1   4   2   11.14    0.49
   1  -4   2   10.48    0.36
   1  -4   2    9.85    0.33
  -1  -4  -2   10.09    0.47
  -1  -4  -2   10.78    0.51
   1   4   3   16.93    0.66
   1  -4   3   16.53    0.50
  -1  -4  -3   17.92    0.68
   1  -4   3   16.88    0.43
   1   4   4  142.79    3.47
  -1  -4  -4  142.22    3.49
   1   4   5   51.16    1.47
  -1  -4  -5   48.16    1.46
   1   4   6    3.47    0.44
  -1  -4  -6    3.93    0.48
   1   4   7   55.10    1.68
  -1  -4  -7   54.19    1.68
   1  -4   7   52.59    1.29
   1   4   8   23.59    1.06
  -1  -4  -8   26.09    1.12
   1  -4   8   25.35    0.72
   1   4   9    0.57    0.44
  -1  -4  -9    0.33    0.45
   1  -4   9    0.51    0.28
  -1   5   8    3.16    0.55
   1  -5  -8    2.51    0.51
   1  -5  -8    2.77    0.53
  -1   5   7    0.28    0.42
   1  -5  -7    0.02    0.41
   1  -5  -7    0.29    0.42
  -1   5   6   53.91    1.63
   1  -5  -6   54.49    1.66
   1  -5  -6   51.97    1.65
  -1   5   5   32.24    1.11
   1  -5  -5   31.74    1.13
   1  -5  -5   31.16    1.13
  -1   5   4    2.93    0.38
   1  -5  -4    2.28    0.38
   1  -5  -4    2.69    0.39
  -1   5   3   32.79    1.03
  -1  -5   3   33.66    0.86
  -1  -5   3   33.33    0.83
   1  -5  -3   34.03    1.08
   1  -5  -3   33.82    1.08
  -1   5   2  141.48    3.43
  -1  -5   2  141.53    3.33
  -1  -5   2  142.37    3.32
   1  -5  -2  144.50    3.46
   1  -5  -2  146.40    3.47
  -1   5   1    1.13    0.23
  -1  -5   1    1.23    0.21
   1  -5  -1    1.34    0.25
  -1  -5   1    1.21    0.19
   1  -5  -1    1.06    0.26
   1  -5  -1    1.25    0.27
  -1   5   0   67.60    1.68
   1   5   0   67.57    1.67
   1  -5   0   71.49    1.74
   1  -5   0   66.97    1.71
  -1  -5   0   67.33    1.73
  -1  -5   0   69.19    1.74
   1   5   1   44.64    1.19
  -1  -5  -1   43.51    1.33
   1  -5   1   43.91    1.16
   1  -5   1   43.50    1.14
  -1  -5  -1   45.13    1.25
   1   5   2    6.86    0.45
   1  -5   2    6.63    0.36
  -1  -5  -2    6.99    0.52
   1  -5   2    6.39    0.31
   1   5   3    2.94    0.35
   1  -5   3    2.51    0.18
   1  -5   3    2.64    0.21
  -1  -5  -3    2.85    0.38
   1   5   4   19.97    0.82
  -1  -5  -4   19.70    0.86
   1   5   5    0.38    0.34
  -1  -5  -5    0.07    0.36
   1   5   6    0.69    0.41
  -1  -5  -6    1.48    0.42
   1   5   7    5.65    0.60
  -1  -5  -7    5.74    0.60
   1   5   8    6.89    0.71
  -1  -5  -8    6.55    0.71
  -1   6   7    0.29    0.52
   1  -6  -7    0.26    0.46
   1  -6  -7   -0.12    0.47
  -1   6   6   14.95    1.09
   1  -6  -6   16.28    0.94
   1  -6  -6   15.03    0.93
   1  -6  -5   11.56    0.80
   1  -6  -5   11.30    0.80
   1  -6  -4    3.19    0.49
   1  -6  -4    3.86    0.50
   1  -6  -3   -0.06    0.34
   1  -6  -3    0.36    0.35
  -1  -6   3    0.12    0.16
  -1  -6   2    3.19    0.28
   1  -6  -2    3.47    0.42
   1  -6  -2    3.57    0.42
  -1  -6   1    1.60    0.27
   1  -6  -1    1.77    0.34
  -1  -6   1    2.16    0.28
  -1  -6   0    5.49    0.48
   1  -6   0    5.37    0.40
   1  -6   1    7.72    0.47
  -1  -6  -1    7.54    0.55
   1  -6   2   17.09    0.62
  -1  -6  -2   18.52    0.81
   1  -6   3   13.28    0.48
  -1  -6  -3   14.17    0.78
  -1  -6  -4   88.74    2.44
  -1  -6  -5    1.22    0.44
   1   6   6    3.90    0.88
  -1  -6  -6    2.30    0.52
   1  -7  -4    1.12    0.48
   1  -7  -3    0.49    0.42
  -1  -7   2   48.79    1.31
   1  -7  -2   49.29    1.53
  -1  -7   1    4.62    0.40
   1  -7  -1    4.98    0.48
  -1  -7   0   31.71    1.07
   1  -7   0   32.67    1.08
  -1  -7   0   32.67    1.08
  -1  -7  -1    2.27    0.42
   1  -7   1    2.99    0.36
  -1  -7  -1    3.17    0.44
  -1  -7  -2    0.14    0.40
  -1  -7  -2    0.68    0.42
  -1  -7  -3   10.31    0.82
  -1  -7  -3   11.70    0.83
  -2   0  12    2.16    0.52
  -2   0  11    0.30    0.41
  -2   0  10    0.21    0.35
   2   0 -10    0.04    0.29
  -2   0   9    0.28    0.31
   2   0  -9   -0.15    0.25
   2   0  -8  145.39    3.51
  -2   0   8  145.85    3.53
  -2   0   7   -0.05    0.17
   2   0  -7    0.14    0.20
  -2   0   7    0.06    0.21
   2   0  -6   45.51    1.22
  -2   0   6   48.10    1.24
  -2   0   6   44.67    1.22
  -2   0   5   -0.23    0.14
   2   0  -5   -0.12    0.14
  -2   0   5   -0.12    0.12
   2   0  -4  552.61   12.52
  -2   0   4  563.23   12.85
   2   0  -4  546.05   12.54
  -2   0   4  540.79   12.64
  -2   0   3   -0.14    0.10
  -2   0   3   -0.13    0.08
   2   0  -3    0.03    0.10
   2   0  -3   -0.01    0.09
  -2   0   3   -0.18    0.08
  -2   0   2  333.05    7.65
  -2   0   2  332.62    7.53
   2   0  -2  325.05    7.60
   2   0  -2  339.04    7.64
  -2   0   1   -0.03    0.06
   2   0  -1    0.05    0.06
  -2   0   1    0.05    0.06
   2   0  -1    0.04    0.06
  -2   0   0    2.47    0.24
   2   0   0    1.98    0.27
  -2   0   0    1.39    0.24
  -2   0  -1    0.01    0.07
   2   0   1    0.02    0.08
   2   0   1   -0.01    0.07
  -2   0  -1    0.29    0.09
  -2   0  -2   79.44    1.89
   2   0   2   80.31    1.90
  -2   0  -2   78.58    1.91
   2   0   2   81.68    1.91
  -2   0  -3   -0.39    0.11
   2   0   3   -0.27    0.13
  -2   0  -3   -0.28    0.12
   2   0   3   -0.39    0.11
   2   0   4   25.40    0.73
  -2   0  -4   26.61    0.74
   2   0   4   26.46    0.76
  -2   0  -4   25.50    0.75
   2   0   5   -0.15    0.14
   2   0   5    0.12    0.19
  -2   0  -5    0.00    0.15
   2   0   6   11.71    0.54
  -2   0  -6   11.97    0.50
   2   0   6   10.61    0.48
   2   0   7    0.12    0.26
  -2   0  -7    0.15    0.22
  -2   0  -8  115.68    2.91
   2   0   8  119.95    2.97
  -2   0  -9    0.38    0.29
   2   0   9    0.05    0.34
   2   0  10    9.44    0.77
   2   0  11    0.08    0.43
  -2   1  11    0.28    0.45
  -2  -1  11    0.45    0.38
   2  -1 -11    0.58    0.38
  -2   1  10   24.80    1.05
   2  -1 -10   23.80    0.96
  -2  -1  10   22.52    0.93
   2   1  -9    6.63    0.47
  -2   1   9    6.72    0.54
  -2  -1   9    6.66    0.53
   2  -1  -9    6.90    0.56
  -2   1   8   64.11    1.81
   2   1  -8   68.09    1.72
   2  -1  -8   66.23    1.80
  -2  -1   8   65.89    1.73
  -2  -1   8   68.89    1.75
   2   1  -7   15.43    0.55
  -2   1   7   16.06    0.66
  -2  -1   7   14.13    0.55
   2  -1  -7   15.43    0.64
  -2  -1   7   15.62    0.58
  -2   1   6    1.09    0.25
   2   1  -6    1.13    0.18
   2  -1  -6    1.22    0.24
  -2  -1   6    0.91    0.17
   2  -1  -6    1.18    0.24
  -2  -1   6    1.31    0.21
   2   1  -5    0.20    0.12
   2   1  -5    0.26    0.12
  -2   1   5    0.10    0.15
  -2   1   5    0.14    0.18
   2  -1  -5    0.06    0.16
   2  -1  -5    0.03    0.15
  -2  -1   5    0.50    0.13
  -2  -1   5    0.19    0.13
   2   1  -4    2.63    0.19
  -2   1   4    2.53    0.22
   2   1  -4    2.49    0.17
  -2   1   4    2.59    0.21
  -2  -1   4    2.91    0.18
   2  -1  -4    2.65    0.22
   2  -1  -4    2.03    0.20
   2  -1  -4    2.67    0.23
  -2  -1   4    2.65    0.20
  -2  -1   4    2.39    0.18
  -2   1   3   64.63    1.57
   2   1  -3   66.38    1.52
   2   1  -3   64.53    1.50
  -2   1   3   62.40    1.56
   2  -1  -3   64.14    1.56
   2  -1  -3   63.54    1.56
  -2  -1   3   64.92    1.51
  -2  -1   3   62.82    1.51
   2  -1  -3   63.58    1.56
   2   1  -2  574.84   13.75
   2   1  -2  600.12   13.44
  -2   1   2  589.66   13.69
  -2   1   2  595.92   13.64
   2  -1  -2  587.34   13.72
  -2  -1   2  585.30   13.60
  -2  -1   2  611.43   13.53
  -2   1   1  273.67    6.33
   2   1  -1  283.96    6.53
   2   1  -1  284.98    6.44
  -2   1   1  275.83    6.43
  -2  -1   1  273.67    6.34
  -2  -1   1  278.65    6.44
   2  -1  -1  287.83    6.41
   2  -1  -1  270.40    6.45
  -2   1   0    1.92    0.13
   2   1   0    2.35    0.15
  -2   1   0    2.09    0.17
   2   1   0    2.18    0.17
  -2  -1   0    2.15    0.14
   2  -1   0    1.83    0.16
  -2  -1   0    2.06    0.18
   2  -1   0    1.91    0.14
   2   1   1   25.13    0.68
  -2   1  -1   25.08    0.66
  -2   1  -1   27.76    0.69
   2  -1   1   26.33    0.76
   2  -1   1   25.19    0.84
  -2  -1  -1   25.11    0.68
  -2  -1  -1   25.46    0.68
  -2   1  -2  849.65   18.75
   2   1   2  821.09   18.91
   2   1   2  805.79   19.05
  -2   1  -2  843.08   18.80
  -2  -1  -2  827.09   19.08
   2  -1   2  824.98   19.07
   2  -1   2  828.16   18.88
  -2  -1  -2  811.77   18.80
   2   1   3   -0.16    0.13
  -2   1  -3    0.00    0.12
   2   1   3   -0.31    0.11
  -2   1  -3    0.01    0.09
  -2  -1  -3   -0.08    0.13
   2  -1   3    0.11    0.11
  -2  -1  -3   -0.10    0.14
   2  -1   3    0.02    0.09
  -2   1  -4  257.94    5.74
   2   1   4  255.45    5.83
   2   1   4  253.98    5.81
  -2   1  -4  247.12    5.79
   2  -1   4  253.35    5.77
   2  -1   4  245.89    5.76
  -2  -1  -4  254.38    5.82
   2   1   5   22.34    0.73
  -2   1  -5   21.91    0.64
   2  -1   5   21.44    0.66
  -2  -1  -5   21.02    0.72
   2  -1   5   23.15    0.68
  -2   1  -6  100.83    2.41
   2   1   6  101.37    2.52
  -2  -1  -6   99.35    2.50
   2  -1   6   97.64    2.44
   2  -1   6  101.68    2.45
  -2   1  -7   41.21    1.13
   2   1   7   40.73    1.27
   2  -1   7   41.92    1.19
   2  -1   7   40.81    1.18
  -2  -1  -7   42.41    1.25
  -2   1  -8   90.78    2.29
   2   1   8   93.17    2.44
   2  -1   8   92.85    2.35
  -2  -1  -8   90.14    2.40
   2   1   9    0.62    0.37
  -2   1  -9    0.28    0.45
   2  -1   9    0.46    0.33
  -2  -1  -9    0.57    0.33
   2   1  10    5.05    0.59
   2  -1  10    5.01    0.53
  -2  -1 -10    5.15    0.52
   2   1  11    1.40    0.51
   2  -1  11    1.06    0.44
  -2   2  11   -0.66    0.46
   2  -2 -11    0.04    0.41
  -2  -2  11    0.46    0.35
  -2   2  10    0.14    0.41
   2  -2 -10   -0.10    0.37
  -2  -2  10    0.11    0.30
  -2   2   9    3.00    0.45
  -2  -2   9    3.87    0.37
   2  -2  -9    3.87    0.47
  -2   2   8   83.44    2.24
   2   2  -8   85.26    2.04
  -2  -2   8   88.20    2.10
   2  -2  -8   82.65    2.23
   2  -2  -8   80.25    2.22
  -2   2   7   29.23    0.98
   2   2  -7   28.16    0.77
  -2  -2   7   27.85    0.82
   2  -2  -7   28.19    0.96
   2  -2  -7   28.01    0.96
  -2  -2   7   27.30    0.80
   2   2  -6   44.85    1.12
  -2   2   6   45.23    1.29
   2   2  -6   44.77    1.09
   2  -2  -6   45.74    1.29
  -2  -2   6   44.65    1.14
   2  -2  -6   45.92    1.28
  -2  -2   6   42.69    1.13
  -2   2   5   70.20    1.77
   2   2  -5   68.75    1.64
   2   2  -5   69.80    1.58
   2  -2  -5   66.51    1.76
  -2  -2   5   68.03    1.63
   2  -2  -5   69.07    1.76
  -2  -2   5   66.91    1.63
  -2   2   4  169.25    4.06
   2  -2  -4  173.49    4.06
   2  -2  -4  175.20    4.06
  -2  -2   4  175.67    3.95
   2  -2  -4  173.56    4.07
  -2   2   3   41.70    1.11
  -2   2   3   43.88    1.11
  -2  -2   3   42.88    1.02
   2  -2  -3   40.68    1.10
   2  -2  -3   41.65    1.11
   2  -2  -3   42.02    1.11
  -2  -2   3   42.46    1.01
  -2   2   2  260.39    5.89
  -2   2   2  262.26    5.88
   2  -2  -2  254.28    5.89
   2  -2  -2  252.85    5.88
  -2  -2   2  264.93    5.98
   2  -2  -2  253.68    5.89
  -2   2   1   44.24    1.08
  -2   2   1   43.68    1.07
   2   2  -1   42.52    1.02
   2   2  -1   41.59    1.20
  -2  -2   1   43.34    1.07
   2  -2  -1   43.78    1.08
  -2  -2   1   43.83    1.05
   2  -2  -1   42.80    1.08
  -2   2   0   18.06    0.47
   2   2   0   17.88    0.52
  -2   2   0   17.51    0.50
   2   2   0   17.22    0.49
   2  -2   0   18.19    0.49
   2  -2   0   17.59    0.49
  -2  -2   0   17.53    0.50
  -2  -2   0   17.57    0.51
  -2   2  -1  148.02    3.34
   2   2   1  145.50    3.41
   2   2   1  145.72    3.43
  -2   2  -1  152.78    3.49
   2  -2   1  147.43    3.38
   2  -2   1  146.87    3.39
  -2  -2  -1  151.19    3.43
  -2  -2  -1  144.46    3.42
  -2   2  -2   38.74    0.90
   2   2   2   38.78    1.03
  -2   2  -2   40.58    0.90
   2   2   2   38.39    1.02
  -2  -2  -2   38.57    1.04
   2  -2   2   40.43    1.10
  -2  -2  -2   38.10    1.02
   2   2   3  144.82    3.45
  -2   2  -3  146.31    3.30
  -2   2  -3  147.74    3.29
  -2  -2  -3  146.41    3.45
  -2  -2  -3  145.09    3.44
   2  -2   3  146.26    3.38
  -2   2  -4   30.34    0.77
  -2   2  -4   29.46    0.72
   2   2   4   28.95    0.90
  -2  -2  -4   30.69    0.91
   2  -2   4   29.42    0.79
   2  -2   4   28.90    0.79
  -2   2  -5    5.50    0.34
   2   2   5    5.14    0.44
  -2   2  -5    4.88    0.23
   2  -2   5    5.04    0.30
   2  -2   5    5.66    0.31
  -2  -2  -5    5.36    0.43
  -2   2  -6    7.48    0.31
   2   2   6    7.15    0.51
  -2   2  -6    7.57    0.31
   2  -2   6    7.11    0.39
   2  -2   6    7.30    0.38
  -2  -2  -6    7.44    0.53
   2   2   7   22.04    0.92
  -2   2  -7   24.01    0.67
   2  -2   7   23.25    0.76
   2  -2   7   21.93    0.94
  -2  -2  -7   23.13    0.87
   2   2   8   87.32    2.35
   2  -2   8   82.51    2.17
  -2  -2  -8   87.21    2.32
   2   2   9    9.75    0.77
  -2  -2  -9    8.01    0.69
   2  -2   9    8.46    0.59
   2   2  10    2.10    0.51
   2  -2  10    2.53    0.40
  -2  -2 -10    1.81    0.45
   2   2  11    4.87    0.67
  -2  -2 -11    3.40    0.60
  -2  -2 -11    2.98    0.56
   2  -2  11    3.99    0.49
  -2   3  11    0.70    0.55
  -2  -3  11    1.17    0.35
   2  -3 -11    1.33    0.53
  -2   3  10   17.02    0.99
   2  -3 -10   16.16    0.95
  -2  -3  10   14.56    0.67
  -2   3   9   11.92    0.84
  -2  -3   9   12.80    0.56
   2  -3  -9   12.68    0.83
  -2   3   8    9.97    0.72
   2  -3  -8   10.73    0.71
  -2  -3   8    9.97    0.46
   2  -3  -8   10.94    0.71
  -2   3   7   37.12    1.22
  -2  -3   7   37.62    0.99
   2  -3  -7   38.28    1.20
   2  -3  -7   35.73    1.20
  -2   3   6   66.84    1.81
   2  -3  -6   66.09    1.81
   2  -3  -6   66.37    1.81
  -2  -3   6   65.37    1.58
  -2  -3   6   67.70    1.60
  -2   3   5    7.91    0.51
  -2  -3   5    8.41    0.31
  -2  -3   5    7.72    0.27
   2  -3  -5    8.33    0.51
   2  -3  -5    8.08    0.51
  -2   3   4   52.49    1.41
  -2  -3   4   52.16    1.22
   2  -3  -4   52.27    1.41
   2  -3  -4   52.03    1.41
  -2  -3   4   51.50    1.30
  -2   3   3  139.75    3.34
   2  -3  -3  142.42    3.34
  -2  -3   3  143.50    3.22
   2  -3  -3  139.18    3.34
  -2  -3   3  140.03    3.30
   2  -3  -3  138.71    3.33
  -2   3   2   71.39    1.81
  -2  -3   2   74.97    1.72
   2  -3  -2   74.98    1.82
   2  -3  -2   71.36    1.80
   2  -3  -2   74.39    1.82
  -2   3   1  164.39    3.78
   2   3  -1  160.88    3.89
   2   3  -1  162.53    3.72
  -2   3   1  164.59    3.80
  -2  -3   1  168.07    3.77
  -2  -3   1  164.47    3.76
   2  -3  -1  162.77    3.80
   2  -3  -1  160.41    3.79
   2  -3  -1  165.88    3.80
  -2   3   0   51.36    1.25
  -2   3   0   52.20    1.28
   2   3   0   53.52    1.32
   2   3   0   52.57    1.27
  -2  -3   0   52.25    1.29
  -2  -3   0   52.05    1.30
   2  -3   0   51.25    1.27
   2  -3   0   49.77    1.27
   2   3   1   11.93    0.44
  -2   3  -1   11.38    0.50
  -2   3  -1   12.19    0.34
   2  -3   1   11.88    0.39
  -2  -3  -1   12.57    0.44
  -2  -3  -1   12.85    0.47
   2  -3   1   13.00    0.39
   2   3   2  187.24    4.40
   2  -3   2  181.24    4.30
  -2  -3  -2  190.55    4.41
   2  -3   2  193.59    4.33
  -2  -3  -2  193.94    4.42
   2   3   3   -0.02    0.20
   2  -3   3    0.21    0.13
  -2  -3  -3    0.16    0.18
  -2  -3  -3    0.32    0.21
   2  -3   3    0.56    0.22
   2   3   4   42.15    1.20
   2  -3   4   40.93    1.02
  -2  -3  -4   41.68    1.19
   2  -3   4   39.09    1.17
   2   3   5   16.56    0.70
  -2  -3  -5   17.50    0.71
   2  -3   5   16.79    0.58
   2  -3   5   16.99    0.51
   2   3   6   66.55    1.84
  -2  -3  -6   65.52    1.84
   2  -3   6   65.68    1.61
   2   3   7   55.01    1.67
   2  -3   7   54.96    1.41
  -2  -3  -7   55.51    1.67
   2   3   8    4.24    0.55
  -2  -3  -8    2.89    0.45
   2  -3   8    3.67    0.32
   2   3   9    6.28    0.64
  -2  -3  -9    9.01    0.71
   2  -3   9    6.63    0.51
   2   3  10   18.70    1.09
  -2  -3 -10   16.16    0.99
   2  -3  10   16.70    0.75
  -2   4  10    7.01    0.75
   2  -4 -10    7.86    0.72
  -2   4   9    9.53    0.75
  -2  -4   9    8.48    0.44
   2  -4  -9    7.61    0.66
  -2   4   8    2.78    0.52
  -2  -4   8    2.96    0.24
   2  -4  -8    4.02    0.54
   2  -4  -8    3.09    0.52
  -2   4   7   16.33    0.83
   2  -4  -7   16.74    0.84
   2  -4  -7   13.92    0.81
  -2   4   6    6.96    0.54
   2  -4  -6    6.08    0.52
   2  -4  -6    6.31    0.53
  -2   4   5   10.83    0.61
   2  -4  -5   11.37    0.63
   2  -4  -5   11.38    0.63
  -2   4   4    9.14    0.54
   2  -4  -4    8.83    0.54
   2  -4  -4    9.00    0.54
  -2   4   3   43.06    1.21
   2  -4  -3   43.95    1.23
  -2  -4   3   43.39    1.03
   2  -4  -3   41.31    1.20
  -2  -4   3   42.46    1.11
   2  -4  -3   43.28    1.22
  -2   4   2    0.28    0.19
   2  -4  -2    0.64    0.22
   2  -4  -2    1.07    0.20
  -2  -4   2    0.20    0.13
   2  -4  -2    0.68    0.22
   2   4  -1    3.20    0.20
   2   4  -1    4.59    0.37
  -2   4   1    2.73    0.25
  -2  -4   1    3.15    0.25
  -2  -4   1    3.65    0.28
   2  -4  -1    2.95    0.27
   2  -4  -1    2.72    0.25
   2   4   0  179.10    4.15
  -2   4   0  183.18    4.17
  -2  -4   0  177.26    4.18
   2  -4   0  177.04    4.16
  -2  -4   0  183.62    4.19
   2  -4   0  181.33    4.17
   2   4   1  133.03    3.15
  -2   4  -1  136.18    3.02
  -2   4  -1  123.42    3.11
   2  -4   1  133.71    3.09
  -2  -4  -1  136.81    3.18
  -2  -4  -1  131.43    3.16
   2  -4   1  137.46    3.11
   2   4   2   19.40    0.67
  -2  -4  -2   20.22    0.71
   2  -4   2   20.58    0.59
   2  -4   2   19.13    0.54
  -2  -4  -2   18.67    0.68
   2   4   3  165.60    3.94
   2  -4   3  160.57    3.75
   2  -4   3  169.20    3.88
  -2  -4  -3  165.06    3.96
   2   4   4   74.34    2.01
   2  -4   4   75.96    1.78
  -2  -4  -4   78.72    2.04
   2  -4   4   75.49    1.76
   2   4   5   12.36    0.68
   2  -4   5   12.00    0.36
   2  -4   5   12.64    0.40
  -2  -4  -5   11.97    0.70
   2   4   6   30.18    1.12
  -2  -4  -6   31.64    1.15
   2  -4   6   30.16    0.78
   2   4   7   18.89    0.96
  -2  -4  -7   18.82    0.96
   2  -4   7   19.55    0.58
   2   4   8   12.27    0.90
  -2  -4  -8   13.14    0.89
   2  -4   8   12.73    0.49
   2   4   9    5.00    0.65
  -2  -4  -9    5.10    0.64
   2  -4   9    4.43    0.36
   2  -5  -9    5.39    0.67
  -2   5   8    2.10    0.50
   2  -5  -8    2.22    0.54
  -2   5   7   15.78    0.87
   2  -5  -7   15.17    0.90
   2  -5  -7   14.57    0.89
  -2   5   6   81.08    2.27
   2  -5  -6   82.25    2.29
   2  -5  -6   84.84    2.30
  -2   5   5    4.10    0.45
   2  -5  -5    4.85    0.50
   2  -5  -5    5.07    0.50
  -2   5   4   55.28    1.58
   2  -5  -4   57.01    1.62
   2  -5  -4   55.30    1.61
  -2   5   3   60.67    1.63
  -2  -5   3   56.35    1.50
  -2  -5   3   60.76    1.44
   2  -5  -3   61.11    1.67
   2  -5  -3   61.80    1.68
  -2   5   2   14.56    0.63
  -2  -5   2   15.28    0.51
   2  -5  -2   14.56    0.66
  -2   5   1   11.83    0.50
   2   5  -1   11.27    0.35
  -2  -5   1   11.28    0.48
   2  -5  -1   11.91    0.55
  -2  -5   1   11.44    0.49
  -2   5   0   45.05    1.21
   2   5   0   45.77    1.18
   2  -5   0   46.11    1.29
   2  -5   0   47.14    1.25
  -2  -5   0   44.88    1.26
  -2  -5   0   46.88    1.49
   2   5   1    0.07    0.20
   2  -5   1   -0.21    0.19
  -2  -5  -1   -0.11    0.23
   2  -5   1   -0.07    0.17
   2   5   2   -0.07    0.23
  -2  -5  -2    0.04    0.27
   2  -5   2   -0.06    0.15
   2  -5   2   -0.15    0.17
   2   5   3    0.39    0.28
   2  -5   3    0.37    0.14
   2  -5   3    0.09    0.20
  -2  -5  -3    0.38    0.30
   2   5   4    0.33    0.32
  -2  -5  -4    0.47    0.34
   2   5   5    1.89    0.42
  -2  -5  -5    1.12    0.41
   2   5   6   26.66    1.10
  -2  -5  -6   27.65    1.15
   2   5   7   10.12    0.84
  -2  -5  -7   10.42    0.86
   2   5   8   -0.32    0.47
  -2  -5  -8    0.54    0.49
  -2   6   7    0.28    0.64
   2  -6  -7   -0.03    0.47
  -2   6   6    0.09    0.62
   2  -6  -6   -0.20    0.43
   2  -6  -5    9.62    0.80
   2  -6  -4    0.75    0.41
   2  -6  -3    0.94    0.36
  -2  -6   3    0.56    0.18
  -2  -6   2   14.19    0.55
   2  -6  -2   14.51    0.72
   2  -6  -1    5.44    0.44
  -2  -6   1    5.79    0.45
   2  -6   0   90.52    2.30
  -2  -6   0   91.74    2.31
   2  -6   1    3.68    0.34
  -2  -6  -1    2.83    0.39
   2  -6   2    8.57    0.47
  -2  -6  -2    8.23    0.65
  -2  -6  -3   25.54    1.04
   2  -6   3   25.34    0.79
  -2  -6  -4   34.51    1.27
  -2  -6  -5    0.28    0.41
  -2  -6  -6   37.80    1.45
   2  -7  -4   18.24    1.00
   2  -7  -3    1.89    0.47
   2  -7  -2    5.74    0.56
  -2  -7   2    5.57    0.45
   2  -7  -1    4.40    0.46
  -2  -7   1    3.62    0.39
  -2  -7   1    3.88    0.39
   2  -7   0   22.55    0.89
  -2  -7   0   23.47    0.91
   2  -7   1    8.86    0.58
  -2  -7  -1    8.86    0.70
  -2  -7  -2    7.71    0.62
  -2  -7  -3    2.10    0.49
  -3   0  12   20.75    1.07
  -3   0  11   -0.04    0.40
  -3   0  10   35.40    1.21
   3   0 -10   33.61    1.14
   3   0  -9   -0.01    0.26
  -3   0   9    0.11    0.30
  -3   0   8   93.86    2.39
   3   0  -8   94.05    2.37
  -3   0   7    0.08    0.22
   3   0  -7    0.16    0.20
  -3   0   7   -0.01    0.17
   3   0  -6  333.80    7.54
  -3   0   6  322.20    7.53
  -3   0   6  331.43    7.54
   3   0  -5   -0.08    0.14
  -3   0   5   -0.06    0.12
  -3   0   5    0.01    0.14
  -3   0   4    0.29    0.11
  -3   0   4    0.16    0.11
  -3   0   4    0.21    0.13
   3   0  -4    0.36    0.14
   3   0  -4    0.15    0.12
   3   0  -3   -0.05    0.11
  -3   0   3   -0.05    0.11
   3   0  -3    0.11    0.10
  -3   0   3    0.08    0.10
  -3   0   2  740.96   16.78
   3   0  -2  740.17   16.79
  -3   0   2  704.17   16.67
   3   0  -2  735.31   16.83
   3   0  -1   -0.26    0.12
  -3   0   1   -0.15    0.11
   3   0  -1   -0.15    0.12
  -3   0   1   -0.38    0.10
  -3   0   0   78.34    2.00
   3   0   0   77.65    2.09
   3   0   1   -0.54    0.13
   3   0   1   -0.48    0.16
  -3   0  -1   -0.26    0.15
  -3   0  -1   -0.04    0.16
  -3   0  -2  110.64    2.71
   3   0   2  113.26    2.69
  -3   0  -2  119.23    2.69
   3   0   2  114.94    2.71
   3   0   3    0.09    0.13
  -3   0  -3    0.14    0.12
   3   0   3    0.13    0.12
  -3   0  -3    0.09    0.12
   3   0   4  333.04    7.68
   3   0   4  339.15    7.70
  -3   0  -4  336.88    7.67
   3   0   5   -0.12    0.14
   3   0   5   -0.02    0.20
  -3   0  -5    0.13    0.17
   3   0   6   16.48    0.64
  -3   0  -6   17.04    0.64
   3   0   6   18.40    0.69
   3   0   7    0.26    0.28
  -3   0  -7   -0.04    0.23
  -3   0  -8  106.32    2.67
   3   0   8  104.82    2.71
  -3   0  -9    0.47    0.31
   3   0   9   -0.29    0.32
   3   0  10   59.82    1.83
   3   0  11   -0.10    0.45
  -3   1  12   11.95    0.97
  -3  -1  12   11.55    0.84
  -3   1  11    5.27    0.60
  -3  -1  11    4.81    0.51
   3  -1 -11    4.70    0.53
  -3   1  10    0.16    0.38
  -3  -1  10   -0.16    0.32
   3  -1 -10    0.31    0.34
  -3   1   9   -0.05    0.31
   3   1  -9    0.38    0.24
   3  -1  -9    0.34    0.30
  -3  -1   9    0.35    0.29
   3   1  -8    5.07    0.39
  -3   1   8    5.51    0.46
  -3  -1   8    4.82    0.38
   3  -1  -8    4.88    0.42
  -3  -1   8    5.19    0.45
   3   1  -7   12.79    0.52
  -3   1   7   13.38    0.61
  -3  -1   7   13.51    0.55
  -3  -1   7   11.98    0.50
   3  -1  -7   12.88    0.60
   3   1  -6   50.82    1.30
  -3   1   6   49.73    1.38
   3  -1  -6   51.66    1.38
  -3  -1   6   50.55    1.31
  -3  -1   6   51.47    1.32
   3   1  -5    6.76    0.32
   3   1  -5    7.02    0.30
  -3   1   5    6.39    0.34
  -3   1   5    6.39    0.39
   3  -1  -5    6.25    0.38
  -3  -1   5    6.47    0.30
  -3  -1   5    6.63    0.31
  -3  -1   5    6.91    0.33
  -3   1   4    1.17    0.17
   3   1  -4    1.23    0.15
  -3   1   4    1.35    0.20
   3   1  -4    1.37    0.14
  -3  -1   4    1.12    0.13
   3  -1  -4    1.04    0.17
   3  -1  -4    0.98    0.17
  -3  -1   4    1.06    0.14
   3   1  -3    2.95    0.23
   3   1  -3    3.13    0.17
  -3   1   3    2.62    0.22
  -3   1   3    3.12    0.21
  -3   1   3    3.08    0.21
  -3  -1   3    3.32    0.21
  -3  -1   3    2.92    0.20
   3  -1  -3    3.12    0.25
  -3   1   2 1000.00   22.08
   3   1  -2  940.15   22.42
  -3   1   2  959.05   22.19
   3   1  -2  974.17   22.03
  -3  -1   2  997.75   22.29
  -3  -1   2  933.96   22.17
   3  -1  -2  968.18   22.04
   3  -1  -2  961.46   22.10
   3   1  -1   28.91    0.80
   3   1  -1   27.86    0.86
  -3   1   1   26.52    0.75
  -3   1   1   28.22    0.73
   3  -1  -1   27.00    0.74
  -3  -1   1   30.40    0.89
   3  -1  -1   27.44    0.75
  -3  -1   1   29.33    1.00
  -3   1   0  398.72    9.22
  -3   1   0  400.51    9.46
   3   1   0  423.50    9.52
   3   1   0  371.04    9.23
   3  -1   0  421.49    9.37
  -3  -1   0  418.03    9.49
  -3  -1   0  406.53    9.62
   3  -1   0  404.64    9.36
  -3   1  -1   33.64    0.93
   3   1   1   34.90    0.93
  -3   1  -1   34.52    0.99
   3   1   1   35.72    0.93
   3  -1   1   35.82    1.08
  -3  -1  -1   34.66    0.92
  -3  -1  -1   32.42    0.92
   3  -1   1   35.26    1.13
  -3   1  -2  290.26    6.65
  -3   1  -2  288.78    6.52
   3   1   2  293.09    6.56
   3   1   2  286.83    6.56
  -3  -1  -2  283.11    6.56
   3  -1   2  282.11    6.56
   3  -1   2  285.52    6.63
  -3   1  -3   55.87    1.36
  -3   1  -3   54.02    1.46
   3   1   3   54.63    1.43
   3   1   3   57.13    1.43
   3  -1   3   57.35    1.42
  -3  -1  -3   54.16    1.42
   3  -1   3   55.41    1.40
  -3  -1  -3   56.68    1.43
  -3   1  -4  358.88    8.05
   3   1   4  348.79    8.12
  -3   1  -4  347.32    8.19
   3   1   4  357.95    8.14
   3  -1   4  355.47    8.09
   3  -1   4  361.83    8.09
  -3  -1  -4  354.83    8.12
  -3   1  -5   22.03    0.66
   3   1   5   21.50    0.77
  -3  -1  -5   20.48    0.74
   3  -1   5   22.32    0.70
   3  -1   5   21.42    0.68
   3   1   6    2.37    0.34
  -3   1  -6    2.16    0.24
  -3  -1  -6    2.56    0.32
   3  -1   6    2.03    0.25
   3  -1   6    2.45    0.29
   3   1   7   -0.21    0.30
  -3   1  -7    0.33    0.20
   3  -1   7   -0.14    0.20
   3  -1   7    0.11    0.26
  -3  -1  -7    0.14    0.26
  -3   1  -8    1.66    0.28
   3   1   8    1.85    0.39
   3  -1   8    1.46    0.32
  -3  -1  -8    1.86    0.37
   3   1   9   10.93    0.78
  -3  -1  -9   10.58    0.71
   3  -1   9   12.32    0.68
   3   1  10   12.84    0.88
  -3  -1 -10   12.96    0.79
   3  -1  10   11.69    0.80
   3   1  11    1.00    0.52
   3  -1  11    0.66    0.44
  -3   2  11    4.89    0.64
  -3  -2  11    5.31    0.50
   3  -2 -11    5.74    0.61
  -3   2  10   21.56    1.02
  -3  -2  10   21.81    0.86
   3  -2 -10   22.91    0.99
  -3   2   9    8.05    0.63
  -3  -2   9    6.13    0.50
   3  -2  -9    7.16    0.58
   3   2  -8   50.95    1.35
  -3   2   8   52.46    1.55
   3  -2  -8   52.58    1.54
  -3  -2   8   52.64    1.40
   3   2  -7    3.52    0.26
  -3   2   7    3.47    0.36
   3  -2  -7    3.90    0.39
  -3  -2   7    3.64    0.30
  -3  -2   7    3.91    0.34
  -3   2   6  152.28    3.65
   3   2  -6  153.47    3.54
   3  -2  -6  149.82    3.65
  -3  -2   6  151.71    3.53
  -3  -2   6  149.78    3.52
   3   2  -5    1.37    0.12
   3   2  -5    0.97    0.20
  -3   2   5    1.10    0.25
   3  -2  -5    0.86    0.23
  -3  -2   5    1.21    0.15
  -3  -2   5    1.05    0.17
  -3   2   4    9.96    0.47
   3   2  -4   10.60    0.29
   3   2  -4   10.85    0.36
   3  -2  -4   10.52    0.47
  -3  -2   4   10.39    0.35
  -3  -2   4   10.42    0.37
   3   2  -3  216.38    4.87
  -3   2   3  213.36    4.97
   3   2  -3  212.77    4.85
  -3   2   3  218.91    4.98
  -3  -2   3  213.70    4.94
  -3  -2   3  217.47    4.94
   3  -2  -3  217.16    4.97
   3  -2  -3  213.07    4.97
  -3   2   2  142.96    3.34
   3   2  -2  137.28    3.27
   3   2  -2  143.42    3.26
  -3   2   2  141.12    3.33
   3  -2  -2  142.19    3.34
   3  -2  -2  145.14    3.34
  -3  -2   2  149.38    3.45
  -3  -2   2  144.69    3.50
   3   2  -1  137.04    3.37
   3   2  -1  136.55    3.14
  -3   2   1  137.19    3.16
  -3   2   1  138.70    3.19
  -3   2   1  140.23    3.17
   3  -2  -1  135.96    3.18
  -3  -2   1  137.25    3.23
  -3  -2   1  132.35    3.18
   3  -2  -1  137.11    3.18
  -3   2   0    4.99    0.22
   3   2   0    5.47    0.26
  -3   2   0    4.99    0.29
   3   2   0    4.47    0.29
  -3  -2   0    5.40    0.26
   3  -2   0    4.70    0.25
   3  -2   0    4.71    0.25
  -3  -2   0    5.08    0.28
  -3   2  -1   21.91    0.74
   3   2   1   21.07    0.63
   3   2   1   21.28    0.64
  -3   2  -1   21.36    0.56
   3  -2   1   20.25    0.62
   3  -2   1   21.22    0.64
  -3  -2  -1   21.89    0.63
  -3  -2  -1   21.82    0.65
  -3   2  -2    7.63    0.27
   3   2   2    7.61    0.36
  -3   2  -2    7.55    0.26
   3   2   2    7.83    0.38
   3  -2   2    6.45    0.49
  -3  -2  -2    7.53    0.34
   3  -2   2    8.38    0.48
  -3  -2  -2    6.86    0.37
  -3   2  -3   74.85    1.75
  -3   2  -3   76.22    1.78
   3   2   3   73.74    1.88
   3  -2   3   73.59    1.90
   3  -2   3   78.05    1.90
  -3  -2  -3   72.27    1.87
  -3  -2  -3   75.63    1.90
  -3   2  -4  166.82    3.79
  -3   2  -4  160.04    3.70
   3   2   4  165.99    3.87
  -3  -2  -4  160.89    3.86
   3  -2   4  155.76    3.80
   3  -2   4  164.39    3.79
  -3   2  -5   70.08    1.66
   3   2   5   69.69    1.86
   3  -2   5   69.05    1.76
  -3  -2  -5   68.26    1.83
   3  -2   5   71.07    1.74
  -3   2  -6   53.03    1.30
   3   2   6   54.49    1.53
  -3  -2  -6   50.63    1.48
   3  -2   6   52.62    1.38
   3  -2   6   50.75    1.39
  -3   2  -7    2.27    0.23
   3   2   7    2.83    0.43
   3  -2   7    2.51    0.31
  -3  -2  -7    3.76    0.44
   3   2   8   61.77    1.82
  -3  -2  -8   62.17    1.81
   3  -2   8   61.42    1.67
   3   2   9    1.85    0.46
   3  -2   9    1.74    0.35
  -3  -2  -9    2.17    0.45
   3   2  10   36.46    1.43
  -3  -2 -10   36.98    1.37
   3  -2  10   36.49    1.24
  -3   3  11    6.62    0.72
   3  -3 -11    7.66    0.74
  -3  -3  11    6.78    0.52
  -3   3  10   12.43    0.90
   3  -3 -10   11.95    0.86
  -3  -3  10   13.14    0.64
  -3   3   9    2.76    0.49
  -3  -3   9    2.28    0.30
   3  -3  -9    1.97    0.46
  -3   3   8   22.50    0.97
   3  -3  -8   22.31    0.95
  -3  -3   8   22.09    0.72
  -3   3   7   73.33    2.00
   3  -3  -7   72.47    1.99
  -3  -3   7   72.26    1.78
  -3   3   6   30.65    1.03
   3  -3  -6   31.21    1.05
  -3  -3   6   31.63    0.83
  -3  -3   6   32.82    0.86
  -3   3   5   61.79    1.67
  -3  -3   5   61.86    1.48
   3  -3  -5   61.14    1.66
  -3  -3   5   62.86    1.53
  -3   3   4   17.41    0.66
  -3  -3   4   16.17    0.66
  -3  -3   4   17.12    0.50
   3  -3  -4   18.39    0.65
  -3   3   3    0.88    0.21
  -3  -3   3    1.69    0.26
   3  -3  -3    0.76    0.21
   3  -3  -3    0.69    0.19
  -3  -3   3    1.07    0.19
  -3   3   2   78.31    1.92
   3   3  -2   76.24    1.80
   3   3  -2   78.45    1.78
   3  -3  -2   78.24    1.92
   3  -3  -2   79.14    1.92
  -3  -3   2   76.87    1.89
  -3  -3   2   76.88    1.87
  -3   3   1   82.81    2.01
   3   3  -1   82.74    1.94
   3   3  -1   79.63    2.17
   3  -3  -1   82.94    2.00
   3  -3  -1   81.58    2.00
  -3  -3   1   84.31    1.99
  -3  -3   1   84.92    1.99
   3   3   0   52.04    1.43
  -3   3   0   52.87    1.28
  -3   3   0   52.03    1.35
   3   3   0   53.29    1.31
   3  -3   0   51.27    1.31
   3  -3   0   53.80    1.32
  -3  -3   0   54.48    1.34
  -3  -3   0   52.76    1.35
   3   3   1   67.80    1.67
  -3   3  -1   64.19    1.76
  -3   3  -1   66.39    1.56
  -3  -3  -1   67.77    1.68
  -3  -3  -1   67.79    1.69
   3  -3   1   67.66    1.63
   3  -3   1   66.43    1.62
   3   3   2  106.08    2.58
  -3  -3  -2  110.12    2.61
  -3  -3  -2  102.23    2.58
   3  -3   2  106.65    2.56
   3  -3   2  106.87    2.51
   3   3   3   99.90    2.46
  -3  -3  -3  100.99    2.48
   3  -3   3   97.33    2.53
   3   3   4   68.61    1.85
  -3  -3  -4   70.91    1.87
   3  -3   4   71.14    1.73
   3   3   5   11.92    0.65
   3  -3   5   11.78    0.45
  -3  -3  -5   10.70    0.63
   3   3   6   30.80    1.10
   3  -3   6   29.75    0.86
  -3  -3  -6   30.56    1.09
   3   3   7   10.36    0.75
   3  -3   7   10.04    0.48
  -3  -3  -7   10.78    0.74
   3   3   8   14.38    0.90
   3  -3   8   14.84    0.62
  -3  -3  -8   15.42    0.88
   3   3   9   29.65    1.29
  -3  -3  -9   29.86    1.24
   3  -3   9   30.61    1.00
   3   3  10   20.63    1.18
   3  -3  10   21.19    0.85
  -3  -3 -10   20.10    1.08
  -3   4  10    2.06    0.52
   3  -4 -10    2.22    0.56
  -3   4   9    3.29    0.55
  -3  -4   9    3.46    0.31
   3  -4  -9    2.58    0.52
  -3   4   8    7.53    0.64
  -3  -4   8    7.18    0.41
   3  -4  -8    6.05    0.59
  -3   4   7    2.23    0.41
  -3  -4   7    2.69    0.28
   3  -4  -7    2.38    0.43
  -3   4   6    9.46    0.63
  -3  -4   6    8.89    0.29
  -3  -4   6    9.12    0.43
   3  -4  -6    9.22    0.65
  -3   4   5    0.65    0.31
  -3  -4   5    0.93    0.14
   3  -4  -5    0.15    0.29
  -3  -4   5    0.74    0.11
  -3   4   4   77.79    2.03
   3  -4  -4   76.99    2.03
  -3  -4   4   78.01    1.85
  -3  -4   4   78.01    1.82
  -3   4   3   77.73    2.01
   3  -4  -3   81.58    2.03
  -3  -4   3   76.85    1.86
   3  -4  -3   81.61    2.10
  -3  -4   3   76.81    1.99
  -3   4   2   32.26    0.98
   3  -4  -2   34.43    0.99
  -3  -4   2   33.32    0.89
   3  -4  -2   33.12    0.97
  -3  -4   2   33.32    0.92
   3   4  -1  181.18    4.19
  -3   4   1  182.11    4.29
  -3  -4   1  185.10    4.27
   3  -4  -1  180.03    4.28
  -3  -4   1  190.33    4.26
   3  -4  -1  182.54    4.29
   3   4   0   76.96    1.90
  -3   4   0   78.78    1.95
   3  -4   0   77.90    1.93
  -3  -4   0   81.49    1.96
  -3  -4   0   77.35    1.95
   3  -4   0   78.65    1.92
  -3   4  -1    1.67    0.13
  -3   4  -1    1.42    0.23
   3   4   1    1.61    0.23
   3  -4   1    1.52    0.21
   3  -4   1    1.94    0.19
  -3  -4  -1    1.95    0.24
  -3  -4  -1    1.97    0.27
   3   4   2  150.23    3.63
   3  -4   2  153.21    3.57
  -3  -4  -2  147.69    3.64
  -3  -4  -2  157.98    3.67
   3   4   3   69.24    1.86
  -3  -4  -3   69.35    1.88
   3  -4   3   74.16    1.90
   3  -4   3   69.38    1.69
   3   4   4    3.26    0.39
   3  -4   4    3.04    0.22
  -3  -4  -4    3.03    0.39
   3  -4   4    3.17    0.26
   3   4   5   26.82    1.01
  -3  -4  -5   27.05    1.03
   3  -4   5   27.82    0.74
   3  -4   5   27.02    0.93
   3   4   6   25.67    1.05
   3  -4   6   25.43    0.71
  -3  -4  -6   25.97    1.06
   3   4   7    3.98    0.53
   3  -4   7    3.68    0.32
  -3  -4  -7    4.15    0.56
   3   4   8    5.05    0.64
  -3  -4  -8    5.76    0.64
   3  -4   8    5.41    0.40
   3   4   9    2.37    0.60
  -3  -4  -9    1.84    0.54
   3  -4   9    1.66    0.29
  -3   5   9    0.32    0.46
   3  -5  -9   -0.32    0.49
  -3   5   8   20.15    1.07
   3  -5  -8   19.86    1.06
  -3   5   7   34.16    1.24
   3  -5  -7   29.68    1.21
  -3   5   6   12.96    0.78
   3  -5  -6   14.29    0.81
  -3   5   5   31.49    1.08
   3  -5  -5   29.08    1.09
  -3   5   4   66.36    1.82
  -3  -5   4   65.85    1.55
   3  -5  -4   66.36    1.84
  -3   5   3    3.15    0.36
   3  -5  -3    2.59    0.39
  -3  -5   3    2.82    0.21
  -3   5   2    2.24    0.31
  -3  -5   2    2.54    0.24
   3  -5  -2    1.81    0.32
  -3   5   1    4.33    0.34
   3   5  -1    3.87    0.25
  -3  -5   1    3.97    0.31
   3  -5  -1    4.87    0.39
  -3   5   0    2.35    0.27
   3   5   0    2.48    0.24
   3  -5   0    2.20    0.29
  -3  -5   0    2.41    0.30
   3   5   1    0.03    0.21
  -3  -5  -1    0.40    0.26
   3  -5   1    0.20    0.22
   3   5   2   19.36    0.75
  -3  -5  -2   21.76    0.83
   3  -5   2   20.61    0.69
   3   5   3   15.56    0.70
  -3  -5  -3   15.17    0.75
   3  -5   3   15.44    0.67
   3   5   4    1.15    0.37
  -3  -5  -4    1.16    0.39
   3  -5   4    1.39    0.20
   3   5   5    8.58    0.73
  -3  -5  -5    8.45    0.73
   3   5   6   46.34    1.54
  -3  -5  -6   45.38    1.56
   3   5   7    7.46    0.71
  -3  -5  -7    6.32    0.67
   3   5   8   12.31    0.97
  -3  -5  -8   12.44    1.01
   3  -6  -7    0.10    0.47
   3  -6  -6    0.97    0.48
   3  -6  -5    2.02    0.47
   3  -6  -4   36.85    1.30
  -3  -6   3    1.37    0.21
   3  -6  -3    1.20    0.39
  -3  -6   2    9.32    0.48
   3  -6  -2    8.58    0.64
   3  -6  -1   16.24    0.72
  -3  -6   1   16.21    0.67
   3  -6   0   58.58    1.60
  -3  -6   0   58.61    1.62
  -3  -6  -1    3.11    0.40
   3  -6   1    3.04    0.35
  -3  -6  -2   71.01    1.97
   3  -6   2   70.46    1.82
  -3  -6  -3   18.24    0.92
   3  -6   3   18.45    0.73
  -3  -6  -4    0.36    0.41
  -3  -6  -5    0.67    0.47
  -3  -6  -6   11.44    0.88
   3  -7  -4   21.14    1.07
   3  -7  -3    9.82    0.79
  -3  -7   2    3.61    0.34
   3  -7  -2    3.49    0.49
  -3  -7   1    0.46    0.30
   3  -7  -1    0.03    0.35
  -3  -7   0    0.45    0.34
   3  -7   0    0.06    0.34
   3  -7   1   13.68    0.70
  -3  -7  -1   14.47    0.82
  -3  -7  -2    3.15    0.50
  -3  -7  -3    3.85    0.57
  -4   0  12   27.80    1.18
  -4   0  11   -0.55    0.38
  -4   0  10   98.05    2.58
   4   0 -10   97.56    2.54
  -4   0   9    0.18    0.30
   4   0  -9   -0.03    0.27
   4   0  -8    0.72    0.27
  -4   0   8    0.27    0.27
   4   0  -7   -0.13    0.21
  -4   0   7   -0.04    0.19
  -4   0   7    0.05    0.21
  -4   0   6  179.01    4.13
   4   0  -6  177.87    4.13
  -4   0   6  170.01    4.12
  -4   0   5    0.02    0.13
  -4   0   5   -0.01    0.13
  -4   0   5   -0.01    0.15
   4   0  -5   -0.14    0.16
  -4   0   4   31.99    0.89
  -4   0   4   32.76    0.90
   4   0  -4   33.21    0.90
   4   0  -4   33.14    0.88
   4   0  -3   -0.37    0.11
  -4   0   3   -0.39    0.11
   4   0  -3   -0.05    0.14
  -4   0   3   -0.36    0.13
  -4   0   2   11.89    0.42
   4   0  -2   11.22    0.40
   4   0  -2   11.43    0.42
   4   0  -1   -0.12    0.14
  -4   0   1   -0.32    0.14
  -4   0   1   -0.34    0.15
   4   0  -1    0.06    0.15
   4   0   0  283.40    6.72
   4   0   0  295.91    6.82
  -4   0   0  275.92    6.79
  -4   0   0  290.71    6.71
  -4   0  -1   -0.01    0.15
   4   0   1    0.34    0.22
   4   0   1    0.13    0.15
  -4   0  -1    0.30    0.18
  -4   0  -2  105.40    2.53
   4   0   2  107.56    2.55
   4   0   2  104.18    2.57
  -4   0  -2  104.62    2.57
   4   0   3    0.01    0.15
   4   0   3    0.13    0.14
  -4   0  -3   -0.10    0.13
  -4   0  -3    0.04    0.14
   4   0   4  421.86    9.48
   4   0   4  409.65    9.50
  -4   0  -4  415.18    9.47
   4   0   5    0.00    0.17
  -4   0  -5   -0.02    0.18
   4   0   5    0.20    0.23
   4   0   6  461.27   10.57
  -4   0  -6  460.17   10.53
  -4   0  -7    0.20    0.26
   4   0   7    0.53    0.32
  -4   0  -8   13.95    0.70
   4   0   8   11.92    0.73
   4   0   9   -0.01    0.36
  -4   0  -9   -0.06    0.31
   4   0  10   43.46    1.50
  -4   1  12    5.22    0.64
  -4  -1  12    6.28    0.62
  -4   1  11    3.24    0.51
  -4  -1  11    3.80    0.49
   4  -1 -11    3.71    0.50
  -4   1  10    0.67    0.40
   4  -1 -10    0.56    0.36
  -4  -1  10    0.50    0.34
  -4   1   9    7.52    0.63
   4   1  -9    7.19    0.50
   4  -1  -9    6.53    0.56
  -4  -1   9    6.48    0.54
   4   1  -8    1.20    0.25
  -4   1   8    0.74    0.31
   4  -1  -8    1.48    0.32
  -4  -1   8    1.18    0.28
  -4  -1   8    1.14    0.24
  -4   1   7    0.02    0.23
   4   1  -7    0.00    0.19
  -4  -1   7   -0.03    0.18
  -4  -1   7   -0.19    0.20
   4  -1  -7   -0.12    0.23
   4   1  -6  193.43    4.60
  -4   1   6  202.11    4.67
  -4  -1   6  199.09    4.61
  -4  -1   6  197.69    4.60
   4  -1  -6  199.93    4.66
  -4  -1   6  197.25    4.60
  -4   1   5   20.36    0.67
  -4   1   5   18.56    0.65
   4   1  -5   19.99    0.62
   4  -1  -5   18.76    0.66
  -4  -1   5   20.02    0.61
  -4  -1   5   19.17    0.60
  -4   1   4  184.76    4.29
   4   1  -4  188.51    4.29
  -4   1   4  182.69    4.29
   4   1  -4  180.74    4.23
  -4   1   4  185.74    4.30
  -4  -1   4  185.01    4.26
   4  -1  -4  183.88    4.30
  -4  -1   4  186.74    4.27
   4   1  -3    0.16    0.16
   4   1  -3    0.03    0.11
  -4   1   3    0.08    0.14
  -4   1   3    0.37    0.15
   4  -1  -3    0.29    0.15
   4  -1  -3    0.05    0.14
  -4  -1   3    0.15    0.12
  -4  -1   3    0.01    0.13
   4   1  -2   89.43    2.21
  -4   1   2   92.95    2.23
  -4   1   2   93.11    2.22
   4   1  -2   94.81    2.37
   4  -1  -2   95.00    2.23
  -4  -1   2   92.42    2.32
  -4  -1   2   92.22    2.28
   4  -1  -2   94.51    2.23
   4   1  -1   35.50    1.17
  -4   1   1   37.55    1.01
   4   1  -1   36.62    1.08
  -4   1   1   38.89    0.98
  -4  -1   1   38.66    1.17
  -4  -1   1   38.19    1.25
   4  -1  -1   36.94    1.00
   4  -1  -1   37.06    0.98
   4   1   0  769.84   17.67
  -4   1   0  759.52   17.52
   4   1   0  762.19   17.45
  -4   1   0  769.16   17.64
   4  -1   0  779.35   17.38
  -4  -1   0  713.91   17.67
  -4  -1   0  707.88   17.36
   4  -1   0  779.38   17.64
  -4   1  -1    3.17    0.33
  -4   1  -1    2.45    0.24
   4   1   1    3.43    0.27
   4   1   1    3.10    0.27
  -4  -1  -1    3.46    0.28
  -4  -1  -1    3.26    0.27
   4  -1   1    3.54    0.39
   4  -1   1    2.35    0.34
   4   1   2   15.33    0.54
  -4   1  -2   14.50    0.60
  -4   1  -2   13.60    0.50
   4   1   2   14.99    0.55
   4  -1   2   14.66    0.58
   4  -1   2   15.03    0.67
  -4  -1  -2   15.13    0.53
  -4  -1  -2   15.24    0.54
   4   1   3   38.96    1.05
   4   1   3   37.94    1.07
  -4   1  -3   35.76    0.98
  -4   1  -3   37.05    1.12
   4  -1   3   37.70    1.08
  -4  -1  -3   36.02    1.04
   4  -1   3   36.74    1.04
   4   1   4   45.26    1.28
  -4   1  -4   44.49    1.18
   4  -1   4   45.68    1.24
   4  -1   4   46.60    1.24
  -4  -1  -4   44.74    1.26
  -4   1  -5   25.73    0.77
   4   1   5   25.75    0.88
   4  -1   5   25.62    0.83
  -4  -1  -5   26.75    0.87
   4  -1   5   24.79    0.81
  -4   1  -6    6.68    0.40
   4   1   6    6.38    0.54
   4  -1   6    6.95    0.48
   4  -1   6    5.25    0.41
  -4  -1  -6    6.10    0.49
   4   1   7    5.51    0.49
  -4   1  -7    6.66    0.44
  -4  -1  -7    6.69    0.55
   4  -1   7    7.32    0.51
   4   1   8    0.28    0.37
  -4   1  -8    0.05    0.24
  -4  -1  -8    0.04    0.31
   4  -1   8    0.30    0.31
   4   1   9    0.33    0.42
  -4  -1  -9    0.79    0.38
   4  -1   9    0.51    0.36
   4   1  10   34.98    1.42
  -4  -1 -10   35.03    1.32
   4  -1  10   36.09    1.30
  -4   2  11    0.78    0.49
  -4  -2  11    0.54    0.37
   4  -2 -11    0.41    0.43
  -4   2  10   45.14    1.50
   4  -2 -10   43.34    1.46
  -4  -2  10   44.31    1.35
  -4   2   9    3.98    0.49
  -4  -2   9    3.16    0.37
   4  -2  -9    3.22    0.44
   4   2  -8    7.97    0.44
  -4   2   8    5.88    0.50
   4  -2  -8    7.88    0.60
  -4  -2   8    6.82    0.47
  -4   2   7   37.63    1.19
   4   2  -7   37.64    1.06
  -4  -2   7   37.38    1.05
   4  -2  -7   36.39    1.15
  -4  -2   7   38.03    1.04
   4   2  -6  154.89    3.69
   4  -2  -6  158.57    3.75
  -4  -2   6  158.96    3.64
  -4  -2   6  151.50    3.62
  -4  -2   6  152.91    3.62
   4   2  -5  100.28    2.36
   4   2  -5   99.87    2.52
  -4   2   5  103.68    2.52
   4  -2  -5  100.86    2.51
  -4  -2   5  102.98    2.41
  -4  -2   5  102.97    2.43
   4   2  -4    0.88    0.19
   4   2  -4    0.61    0.11
  -4   2   4    0.53    0.21
  -4  -2   4    0.59    0.14
   4  -2  -4    0.49    0.21
  -4  -2   4    0.65    0.17
   4   2  -3    0.65    0.14
  -4   2   3    0.60    0.19
   4   2  -3    0.43    0.11
  -4  -2   3    0.66    0.20
   4  -2  -3    0.71    0.18
  -4  -2   3    0.26    0.19
   4  -2  -3    0.61    0.19
   4   2  -2   55.90    1.37
  -4   2   2   54.05    1.39
  -4   2   2   55.99    1.42
  -4   2   2   54.33    1.39
   4   2  -2   56.15    1.41
  -4  -2   2   58.89    1.59
   4  -2  -2   55.68    1.41
  -4  -2   2   57.03    1.61
   4  -2  -2   54.66    1.41
   4   2  -1  118.09    2.80
  -4   2   1  119.19    2.84
   4   2  -1  118.79    3.02
  -4   2   1  118.78    2.79
  -4  -2   1  118.07    2.92
   4  -2  -1  120.20    2.81
   4  -2  -1  118.80    2.82
  -4  -2   1  121.60    2.86
   4   2   0  156.48    3.71
  -4   2   0  151.81    3.69
   4   2   0  154.65    3.61
  -4   2   0  155.77    3.58
   4  -2   0  152.53    3.61
  -4  -2   0  157.51    3.67
  -4  -2   0  160.94    3.65
   4  -2   0  151.17    3.62
  -4   2  -1  130.91    3.17
   4   2   1  123.69    3.04
  -4   2  -1  129.61    2.96
   4   2   1  126.40    3.02
   4  -2   1  124.67    3.07
  -4  -2  -1  130.00    3.03
   4  -2   1  126.33    3.04
  -4  -2  -1  125.55    3.04
   4   2   2  107.12    2.58
  -4   2  -2  106.02    2.50
  -4   2  -2  106.73    2.53
   4  -2   2  105.39    2.73
  -4  -2  -2  107.37    2.58
  -4  -2  -2  106.48    2.59
   4  -2   2  104.45    2.72
  -4   2  -3    8.99    0.34
  -4   2  -3    8.39    0.38
   4   2   3    8.62    0.48
  -4  -2  -3    9.25    0.47
   4  -2   3    9.27    0.56
   4  -2   3    7.55    0.50
   4   2   4  110.87    2.76
  -4   2  -4  112.45    2.61
  -4  -2  -4  110.00    2.76
   4  -2   4  115.30    2.73
   4  -2   4  108.54    2.74
  -4   2  -5    0.23    0.14
   4   2   5    1.05    0.30
   4  -2   5    0.29    0.19
  -4  -2  -5    0.62    0.28
   4  -2   5    0.43    0.20
  -4   2  -6  136.02    3.18
   4   2   6  136.54    3.40
   4  -2   6  135.93    3.27
   4  -2   6  133.63    3.30
  -4  -2  -6  137.09    3.38
  -4   2  -7   22.34    0.70
   4   2   7   21.30    0.91
  -4  -2  -7   22.22    0.89
   4  -2   7   22.77    0.81
   4   2   8   10.36    0.79
   4  -2   8   10.40    0.63
  -4  -2  -8   10.09    0.74
   4   2   9   11.63    0.89
  -4  -2  -9   11.12    0.81
   4  -2   9   10.80    0.67
   4   2  10   28.75    1.30
  -4  -2 -10   28.11    1.23
   4  -2  10   28.51    1.09
  -4   3  11   20.28    1.12
   4  -3 -11   20.95    1.09
  -4  -3  11   21.51    0.87
  -4   3  10    1.47    0.48
  -4  -3  10    1.24    0.32
   4  -3 -10    1.71    0.50
  -4   3   9   17.63    0.93
  -4  -3   9   18.36    0.70
   4  -3  -9   17.19    0.92
  -4   3   8   18.98    0.90
  -4  -3   8   21.13    0.71
   4  -3  -8   20.33    0.92
  -4   3   7    2.43    0.40
   4  -3  -7    2.03    0.40
  -4  -3   7    2.14    0.26
  -4   3   6   12.42    0.65
  -4  -3   6   12.65    0.51
   4  -3  -6   11.08    0.61
  -4   3   5   64.67    1.76
   4  -3  -5   67.53    1.77
  -4  -3   5   65.15    1.69
  -4   3   4   72.39    1.90
  -4  -3   4   75.70    2.01
   4  -3  -4   73.44    1.91
  -4   3   3   36.56    1.07
   4   3  -3   37.49    0.89
   4   3  -3   37.50    0.88
   4  -3  -3   36.13    1.06
  -4  -3   3   37.43    1.17
  -4  -3   3   39.19    1.11
   4  -3  -3   38.78    1.08
  -4   3   2   90.67    2.21
   4   3  -2   89.22    2.09
   4   3  -2   87.87    2.15
   4  -3  -2   88.87    2.19
  -4  -3   2   91.40    2.21
  -4  -3   2   87.64    2.21
   4  -3  -2   91.63    2.20
   4   3  -1   67.65    1.94
  -4   3   1   71.94    1.77
   4   3  -1   69.52    1.69
  -4  -3   1   68.86    1.76
  -4  -3   1   71.42    1.76
   4  -3  -1   71.28    1.75
   4  -3  -1   71.36    1.75
  -4   3   0  124.82    3.00
   4   3   0  122.42    2.91
   4  -3   0  127.34    2.93
  -4  -3   0  123.01    2.95
   4  -3   0  123.10    2.92
  -4  -3   0  121.77    2.97
  -4   3  -1    3.13    0.21
  -4   3  -1    2.95    0.34
   4   3   1    2.67    0.27
  -4  -3  -1    3.65    0.31
   4  -3   1    3.18    0.25
  -4  -3  -1    3.96    0.34
   4  -3   1    3.17    0.26
  -4   3  -2   12.07    0.36
  -4   3  -2   12.44    0.41
   4   3   2   12.31    0.54
  -4   3  -2   12.75    0.37
   4  -3   2   11.71    0.49
  -4  -3  -2   11.69    0.50
   4  -3   2   12.21    0.58
  -4  -3  -2   12.57    0.56
   4   3   3   76.70    1.98
  -4   3  -3   77.72    1.76
  -4   3  -3   77.60    1.76
   4  -3   3   74.86    2.07
  -4  -3  -3   76.03    1.99
   4  -3   3   74.74    2.00
   4   3   4   34.00    1.10
  -4  -3  -4   33.30    1.10
   4  -3   4   35.77    1.04
   4  -3   4   34.49    1.13
   4   3   5  160.38    3.90
   4  -3   5  154.24    3.93
  -4  -3  -5  160.17    3.91
   4  -3   5  160.83    3.75
   4   3   6   12.47    0.75
  -4  -3  -6   12.25    0.74
   4  -3   6   12.35    0.53
   4   3   7   17.50    0.88
  -4  -3  -7   19.19    0.93
   4  -3   7   17.54    0.67
   4   3   8   23.98    1.12
   4  -3   8   22.29    0.82
  -4  -3  -8   23.38    1.07
   4   3   9    8.55    0.74
  -4  -3  -9    8.72    0.75
   4  -3   9    9.44    0.61
  -4   4  10    8.44    0.77
   4  -4 -10    8.54    0.75
  -4   4   9    0.52    0.44
   4  -4  -9    0.39    0.41
  -4  -4   9    0.59    0.26
  -4   4   8   15.25    0.89
  -4  -4   8   15.91    0.65
   4  -4  -8   15.63    0.89
  -4   4   7   15.81    0.83
  -4  -4   7   16.25    0.70
   4  -4  -7   16.97    0.86
  -4   4   6   48.76    1.47
  -4  -4   6   47.09    1.35
   4  -4  -6   48.68    1.48
  -4   4   5   35.04    1.14
   4  -4  -5   36.27    1.16
  -4  -4   5   35.46    0.98
  -4  -4   5   34.20    0.91
  -4   4   4   29.00    0.98
   4  -4  -4   29.74    1.00
  -4  -4   4   30.39    0.84
  -4  -4   4   30.32    0.90
  -4   4   3    0.36    0.24
  -4  -4   3   -0.08    0.15
   4  -4  -3   -0.17    0.24
  -4   4   2  101.25    2.53
   4   4  -2  102.32    2.36
   4   4  -2  102.53    2.40
   4  -4  -2  105.57    2.54
  -4  -4   2  103.80    2.47
   4  -4  -2  103.67    2.53
  -4  -4   2   98.94    2.50
  -4   4   1   88.93    2.19
   4   4  -1   86.74    2.07
  -4  -4   1   84.97    2.15
   4  -4  -1   89.82    2.17
   4  -4  -1   85.77    2.15
  -4  -4   1   86.97    2.15
  -4   4   0   13.38    0.58
   4   4   0   13.04    0.50
  -4  -4   0   13.42    0.54
   4  -4   0   13.03    0.50
  -4  -4   0   13.61    0.56
   4  -4   0   12.69    0.54
   4   4   1  100.21    2.42
  -4   4  -1   95.82    2.45
   4  -4   1   98.43    2.36
  -4  -4  -1   94.30    2.43
  -4  -4  -1   99.23    2.46
   4  -4   1  101.94    2.40
   4   4   2   97.29    2.39
   4  -4   2   93.03    2.28
  -4  -4  -2   95.97    2.42
   4  -4   2   94.03    2.36
   4   4   3    1.74    0.32
   4  -4   3    1.72    0.36
  -4  -4  -3    1.62    0.32
   4   4   4    3.01    0.40
  -4  -4  -4    2.96    0.41
   4  -4   4    2.62    0.26
   4   4   5    0.15    0.35
  -4  -4  -5    0.34    0.35
   4  -4   5    0.08    0.18
   4   4   6    5.28    0.53
  -4  -4  -6    5.91    0.56
   4  -4   6    5.64    0.38
   4   4   7    1.49    0.44
   4  -4   7    1.16    0.24
  -4  -4  -7    1.03    0.42
   4   4   8    8.93    0.76
  -4  -4  -8    8.04    0.74
   4  -4   8    8.24    0.48
   4   4   9   12.92    1.03
   4  -4   9   11.17    0.59
  -4  -4  -9   11.54    0.98
   4  -5  -9    1.07    0.53
  -4   5   8   27.35    1.19
   4  -5  -8   27.74    1.21
  -4   5   7   12.53    0.82
   4  -5  -7   12.14    0.84
  -4   5   6    8.23    0.63
   4  -5  -6    8.30    0.65
  -4   5   5    9.51    0.66
   4  -5  -5   11.24    0.72
  -4   5   4    6.58    0.51
   4  -5  -4    5.94    0.51
  -4  -5   4    5.66    0.31
  -4   5   3    0.41    0.28
  -4  -5   3    0.36    0.18
   4  -5  -3    0.84    0.32
  -4   5   2    1.03    0.28
  -4  -5   2    1.42    0.23
   4  -5  -2    0.75    0.29
   4   5  -1    1.80    0.19
  -4   5   1    2.04    0.28
  -4  -5   1    1.94    0.28
   4  -5  -1    1.52    0.30
   4   5   0    1.85    0.24
  -4   5   0    2.56    0.31
  -4  -5   0    1.82    0.30
   4  -5   0    1.42    0.29
   4   5   1   20.23    0.72
   4  -5   1   20.82    0.74
  -4  -5  -1   19.96    0.80
   4   5   2   67.24    1.80
  -4  -5  -2   67.98    1.87
   4  -5   2   66.46    1.76
   4   5   3    1.83    0.36
   4  -5   3    2.50    0.40
  -4  -5  -3    2.19    0.41
   4   5   4   34.85    1.19
   4  -5   4   34.18    1.04
  -4  -5  -4   34.74    1.26
   4   5   5   46.74    1.52
   4  -5   5   45.03    1.15
  -4  -5  -5   45.27    1.54
   4   5   6   26.33    1.17
  -4  -5  -6   25.50    1.16
   4   5   7    1.52    0.52
  -4  -5  -7    1.51    0.53
   4  -6  -7    0.23    0.48
   4  -6  -6    0.96    0.49
   4  -6  -5    2.94    0.50
  -4  -6   4   46.44    1.17
   4  -6  -4   47.57    1.51
   4  -6  -3    0.84    0.37
  -4  -6   3    0.39    0.21
   4  -6  -2   91.97    2.40
  -4  -6   2   90.11    2.26
  -4  -6   1   25.21    0.87
   4  -6  -1   23.77    0.92
  -4  -6   0    0.19    0.30
   4  -6   0    0.28    0.30
   4  -6   1    2.98    0.38
  -4  -6  -1    3.41    0.43
   4  -6   2   53.99    1.54
  -4  -6  -2   56.52    1.67
   4  -6   3    3.21    0.41
  -4  -6  -3    2.93    0.50
  -4  -6  -4    6.71    0.64
  -4  -6  -5    0.76    0.47
   4  -7  -3   15.62    0.92
   4  -7  -2    1.07    0.42
  -4  -7   2    1.01    0.30
   4  -7  -1    4.25    0.50
  -4  -7   1    4.79    0.45
  -4  -7   0    1.69    0.40
   4  -7   0    1.76    0.40
   4  -7   1    7.76    0.63
  -4  -7  -1    6.51    0.59
  -4  -7  -2   23.12    1.09
  -5   0  12    0.29    0.45
  -5   0  11   -0.07    0.39
   5   0 -10   64.26    1.82
  -5   0  10   64.42    1.85
   5   0  -9    0.14    0.28
  -5   0   9   -0.37    0.30
  -5   0   8   19.20    0.78
   5   0  -8   19.85    0.76
   5   0  -7   -0.14    0.22
  -5   0   7   -0.08    0.23
  -5   0   6   25.40    0.81
   5   0  -6   24.16    0.79
  -5   0   6   24.54    0.78
  -5   0   6   24.56    0.78
  -5   0   5    0.13    0.16
  -5   0   5   -0.02    0.18
   5   0  -5    0.06    0.18
  -5   0   4   98.25    2.40
  -5   0   4  101.83    2.41
   5   0  -4   98.29    2.41
   5   0  -3    0.04    0.13
   5   0  -3   -0.01    0.15
  -5   0   3    0.07    0.14
  -5   0   3   -0.14    0.13
  -5   0   2    4.60    0.32
   5   0  -2    3.95    0.33
  -5   0   2    4.60    0.32
   5   0  -2    3.88    0.29
  -5   0   1   -0.15    0.16
  -5   0   1    0.05    0.20
   5   0  -1   -0.04    0.17
   5   0  -1    0.01    0.22
   5   0   0  496.62   11.25
   5   0   0  475.97   11.15
  -5   0   0  479.94   11.23
  -5   0   0  484.05   11.15
   5   0   1   -0.24    0.25
  -5   0  -1    0.03    0.22
  -5   0  -1    0.17    0.21
   5   0   1   -0.04    0.18
   5   0   2  608.69   13.79
  -5   0  -2  586.69   13.81
   5   0   2  618.32   13.85
  -5   0  -2  613.05   14.26
  -5   0  -3   -0.06    0.19
   5   0   3    0.15    0.18
   5   0   3    0.01    0.16
   5   0   4   23.07    0.81
   5   0   4   22.13    0.77
  -5   0  -4   21.87    0.75
  -5   0  -5    0.34    0.23
   5   0   5   -0.01    0.26
  -5   0  -6  259.93    6.14
   5   0   6  265.64    6.20
   5   0   7    0.10    0.31
  -5   0  -7   -0.18    0.25
   5   0   8    5.99    0.55
  -5   0  -8    5.42    0.48
  -5   0  -9   -0.22    0.32
   5   0   9   -0.05    0.40
   5   0  10    8.22    0.70
  -5   1  12    4.95    0.64
  -5  -1  12    5.43    0.60
  -5   1  11    0.60    0.41
   5  -1 -11   -0.22    0.36
  -5  -1  11    0.07    0.38
  -5   1  10    9.63    0.73
  -5  -1  10    9.79    0.69
   5  -1 -10    9.29    0.71
  -5   1   9    3.06    0.42
   5   1  -9    3.81    0.38
  -5  -1   9    3.41    0.40
   5  -1  -9    3.65    0.42
   5   1  -8   63.01    1.69
  -5   1   8   63.94    1.78
  -5  -1   8   64.99    1.72
  -5  -1   8   65.06    1.79
   5  -1  -8   62.64    1.76
  -5   1   7    6.11    0.49
   5   1  -7    5.93    0.41
  -5  -1   7    6.61    0.45
   5  -1  -7    6.21    0.49
  -5  -1   7    6.33    0.41
  -5   1   6   52.21    1.43
   5   1  -6   53.97    1.40
  -5  -1   6   52.93    1.39
  -5  -1   6   52.27    1.38
   5  -1  -6   50.62    1.43
  -5  -1   6   52.00    1.38
   5   1  -5    1.59    0.23
  -5   1   5    1.63    0.26
  -5  -1   5    1.66    0.23
  -5  -1   5    1.50    0.20
   5  -1  -5    1.22    0.23
   5   1  -4  577.17   13.65
   5   1  -4  594.34   13.67
  -5   1   4  596.74   13.64
  -5   1   4  609.22   14.12
  -5  -1   4  606.51   13.76
   5  -1  -4  621.95   13.98
  -5  -1   4  613.91   14.07
   5   1  -3    3.08    0.25
   5   1  -3    4.13    0.36
  -5   1   3    3.09    0.27
  -5   1   3    3.30    0.26
   5  -1  -3    2.67    0.24
   5  -1  -3    3.36    0.26
  -5  -1   3    3.62    0.29
  -5  -1   3    2.96    0.27
   5   1  -2   66.95    1.70
   5   1  -2   69.62    1.82
  -5   1   2   67.48    1.66
  -5   1   2   65.92    1.67
  -5  -1   2   63.67    1.81
  -5  -1   2   68.64    1.79
   5  -1  -2   67.20    1.67
   5  -1  -2   62.40    1.65
  -5   1   1   25.27    0.76
   5   1  -1   27.62    1.00
  -5   1   1   25.81    0.82
   5   1  -1   25.34    0.90
   5  -1  -1   26.80    0.79
  -5  -1   1   25.07    0.93
   5  -1  -1   26.10    0.81
  -5  -1   1   29.29    1.04
   5   1   0  172.09    4.14
  -5   1   0  169.94    4.08
  -5   1   0  182.74    4.35
   5   1   0  170.90    4.29
  -5  -1   0  173.84    4.15
  -5  -1   0  175.67    4.28
   5  -1   0  169.18    4.22
  -5   1  -1   85.83    2.31
   5   1   1   84.60    2.17
  -5   1  -1   89.53    2.22
   5  -1   1   86.96    2.32
   5  -1   1   90.49    2.36
  -5  -1  -1   80.73    2.19
  -5  -1  -1   85.19    2.16
  -5   1  -2   11.63    0.56
   5   1   2   11.55    0.51
  -5   1  -2   12.57    0.53
   5   1   2   11.68    0.49
  -5  -1  -2   12.85    0.52
   5  -1   2   11.90    0.59
   5  -1   2   11.31    0.71
  -5  -1  -2   11.88    0.54
  -5   1  -3   12.01    0.49
   5   1   3   11.77    0.55
   5  -1   3   12.37    0.61
  -5  -1  -3   11.13    0.52
   5  -1   3   10.90    0.53
   5   1   4    7.28    0.50
  -5   1  -4    6.56    0.39
  -5  -1  -4    6.18    0.46
   5  -1   4    6.03    0.41
   5  -1   4    7.01    0.48
   5   1   5   22.62    0.85
  -5   1  -5   21.21    0.72
  -5  -1  -5   20.46    0.77
   5  -1   5   21.34    0.79
   5  -1   5   20.85    0.77
   5   1   6   26.64    1.00
  -5   1  -6   27.67    0.88
   5  -1   6   26.40    0.93
   5  -1   6   28.87    0.96
  -5  -1  -6   26.76    0.96
  -5   1  -7    5.32    0.46
   5   1   7    5.76    0.54
   5  -1   7    5.64    0.49
  -5  -1  -7    4.93    0.47
   5   1   8   45.90    1.53
  -5   1  -8   45.07    1.35
   5  -1   8   46.93    1.46
  -5  -1  -8   47.11    1.47
   5   1   9    1.70    0.47
   5  -1   9    2.58    0.46
  -5  -1  -9    2.99    0.49
   5   1  10   21.32    1.12
   5  -1  10   21.03    1.02
  -5  -1 -10   20.11    1.08
  -5   2  11    1.64    0.49
   5  -2 -11    2.02    0.50
  -5  -2  11    1.83    0.42
  -5   2  10   41.74    1.43
  -5  -2  10   39.85    1.28
   5  -2 -10   39.75    1.39
  -5   2   9    7.15    0.61
   5  -2  -9    7.73    0.66
  -5  -2   9    7.46    0.54
   5   2  -8    1.81    0.28
  -5   2   8    1.55    0.40
  -5  -2   8    1.41    0.29
   5  -2  -8    1.66    0.37
   5   2  -7    3.11    0.33
  -5   2   7    2.55    0.38
   5  -2  -7    2.61    0.38
  -5  -2   7    2.67    0.26
  -5  -2   7    2.99    0.28
  -5  -2   7    2.44    0.29
  -5   2   6   34.27    1.08
   5   2  -6   34.03    1.08
   5  -2  -6   35.32    1.10
  -5  -2   6   33.96    0.97
  -5  -2   6   36.24    1.01
  -5   2   5   64.56    1.76
   5   2  -5   67.42    1.81
  -5  -2   5   66.99    1.68
  -5  -2   5   67.71    1.71
   5  -2  -5   68.55    1.77
   5   2  -4   10.75    0.51
   5   2  -4    9.74    0.36
  -5   2   4    9.87    0.49
  -5  -2   4    9.42    0.43
   5  -2  -4    9.26    0.49
  -5  -2   4    9.68    0.47
   5   2  -3  274.29    6.27
   5   2  -3  275.65    6.19
  -5   2   3  273.63    6.26
   5  -2  -3  274.37    6.26
  -5  -2   3  255.09    6.36
  -5  -2   3  274.88    6.40
   5  -2  -3  271.07    6.26
   5   2  -2   66.23    1.68
   5   2  -2   64.15    1.72
  -5   2   2   63.66    1.69
  -5  -2   2   68.83    1.87
   5  -2  -2   65.63    1.68
  -5  -2   2   72.36    1.91
   5  -2  -2   66.04    1.68
  -5   2   1    9.94    0.46
  -5   2   1   10.27    0.40
   5   2  -1   10.43    0.59
   5   2  -1   10.22    0.43
   5  -2  -1    9.50    0.44
   5  -2  -1   11.24    0.45
  -5  -2   1    9.71    0.48
  -5  -2   1   10.71    0.61
   5   2   0  131.34    3.38
  -5   2   0  134.02    3.12
  -5   2   0  134.07    3.32
   5   2   0  132.96    3.16
   5  -2   0  136.59    3.18
   5  -2   0  132.78    3.19
  -5  -2   0  125.73    3.18
  -5  -2   0  134.54    3.25
   5   2   1    9.59    0.46
  -5   2  -1    9.74    0.40
  -5   2  -1   10.10    0.59
   5  -2   1    8.79    0.53
  -5  -2  -1   10.40    0.46
  -5  -2  -1    9.53    0.47
   5  -2   1    9.56    0.53
  -5   2  -2  294.13    6.68
  -5   2  -2  295.05    6.86
   5   2   2  282.44    6.68
   5  -2   2  286.59    6.83
  -5  -2  -2  290.97    6.71
  -5  -2  -2  276.19    6.68
   5  -2   2  296.78    6.86
  -5   2  -3   30.08    0.85
   5   2   3   30.55    0.97
   5  -2   3   28.42    1.09
  -5  -2  -3   30.51    0.95
   5  -2   3   29.53    1.12
   5   2   4   35.36    1.12
  -5   2  -4   35.42    0.96
   5  -2   4   37.35    1.13
   5  -2   4   32.98    1.12
  -5  -2  -4   35.71    1.13
  -5   2  -5   38.96    1.05
   5   2   5   39.69    1.25
  -5  -2  -5   39.22    1.21
   5  -2   5   40.26    1.17
   5  -2   5   36.83    1.18
  -5   2  -6  140.68    3.34
   5   2   6  141.32    3.56
   5  -2   6  142.14    3.45
  -5  -2  -6  142.30    3.54
  -5   2  -7    7.21    0.46
   5   2   7    7.10    0.60
   5  -2   7    7.48    0.56
  -5  -2  -7    6.00    0.52
   5   2   8    0.42    0.44
  -5  -2  -8    0.26    0.39
   5  -2   8    0.15    0.31
   5   2   9    4.83    0.66
  -5  -2  -9    4.25    0.56
   5  -2   9    5.14    0.52
   5   2  10   15.32    1.08
   5  -2  10   14.45    0.86
  -5  -2 -10   14.47    0.97
  -5   3  11    0.79    0.52
   5  -3 -11    0.17    0.49
  -5  -3  11    0.42    0.35
  -5   3  10    1.66    0.51
   5  -3 -10    1.27    0.49
  -5  -3  10    1.17    0.34
  -5   3   9   17.48    0.93
   5  -3  -9   16.30    0.90
  -5  -3   9   16.48    0.71
  -5   3   8   37.79    1.28
   5  -3  -8   38.94    1.32
  -5  -3   8   38.88    1.14
  -5   3   7   11.82    0.67
   5  -3  -7   11.94    0.67
  -5  -3   7   12.66    0.57
  -5   3   6   -0.16    0.30
  -5  -3   6    0.27    0.17
  -5  -3   6    0.39    0.23
   5  -3  -6    0.21    0.32
  -5   3   5   12.59    0.63
   5  -3  -5   13.75    0.66
  -5  -3   5   13.26    0.64
  -5  -3   5   12.33    0.49
  -5   3   4   85.06    2.20
   5   3  -4   88.26    2.01
   5   3  -4   88.05    2.01
  -5  -3   4   88.09    2.37
   5  -3  -4   86.73    2.21
  -5  -3   4   85.76    2.20
   5   3  -3    0.58    0.14
  -5   3   3    0.89    0.24
   5   3  -3    0.67    0.13
  -5  -3   3    0.75    0.28
   5  -3  -3    0.81    0.25
   5  -3  -3    0.52    0.21
  -5  -3   3    1.12    0.29
  -5   3   2    1.73    0.26
   5   3  -2    1.54    0.18
  -5  -3   2    2.69    0.29
  -5  -3   2    1.27    0.27
   5  -3  -2    1.58    0.25
   5  -3  -2    1.21    0.22
  -5   3   1  104.94    2.60
   5   3  -1  105.24    2.52
   5  -3  -1  107.43    2.57
  -5  -3   1  106.27    2.62
   5  -3  -1  108.06    2.57
  -5  -3   1  102.85    2.60
  -5   3   0  164.55    4.02
   5   3   0  164.45    3.90
  -5  -3   0  167.95    3.96
   5  -3   0  165.73    3.91
   5  -3   0  164.11    3.90
  -5  -3   0  169.24    3.95
   5   3   1  222.16    5.35
  -5   3  -1  237.00    5.50
   5  -3   1  236.52    5.38
  -5  -3  -1  224.86    5.40
  -5  -3  -1  231.79    5.39
   5  -3   1  228.73    5.35
   5   3   2    0.61    0.25
  -5   3  -2    0.69    0.19
   5  -3   2    0.71    0.23
  -5  -3  -2    0.79    0.25
   5  -3   2    0.33    0.32
  -5   3  -3   42.64    1.06
   5   3   3   41.57    1.25
   5  -3   3   43.64    1.38
   5  -3   3   40.58    1.30
  -5  -3  -3   42.28    1.28
   5   3   4   62.28    1.73
  -5   3  -4   60.92    1.47
  -5  -3  -4   62.27    1.74
   5  -3   4   60.58    1.76
   5  -3   4   62.24    1.74
   5   3   5   41.03    1.33
  -5   3  -5   40.19    0.99
   5  -3   5   41.12    1.20
  -5  -3  -5   38.84    1.28
   5   3   6   14.26    0.83
  -5  -3  -6   13.36    0.80
   5  -3   6   14.92    0.64
   5   3   7   27.50    1.17
  -5  -3  -7   27.93    1.14
   5  -3   7   27.56    0.93
   5   3   8   24.73    1.19
  -5  -3  -8   25.44    1.16
   5  -3   8   25.17    0.91
   5   3   9    4.39    0.69
   5  -3   9    5.84    0.49
  -5  -3  -9    4.76    0.65
  -5   4  10    6.61    0.72
   5  -4 -10    5.76    0.69
  -5  -4  10    6.90    0.65
  -5   4   9    9.19    0.74
   5  -4  -9    8.49    0.72
  -5  -4   9    8.43    0.59
  -5   4   8   11.75    0.83
  -5  -4   8   12.56    0.66
   5  -4  -8   11.49    0.83
  -5   4   7    0.49    0.38
  -5  -4   7    0.09    0.32
   5  -4  -7    0.42    0.39
  -5   4   6   50.87    1.53
   5  -4  -6   49.21    1.53
  -5  -4   6   50.40    1.47
  -5   4   5   76.49    2.05
  -5  -4   5   77.55    1.96
   5  -4  -5   75.15    2.05
  -5  -4   5   73.99    1.88
  -5   4   4    1.49    0.33
  -5  -4   4    2.03    0.28
   5  -4  -4    1.40    0.33
  -5   4   3   73.58    1.99
   5  -4  -3   78.31    2.01
  -5  -4   3   77.10    1.93
  -5  -4   3   76.95    2.10
  -5   4   2  146.83    3.55
   5   4  -2  148.85    3.38
   5  -4  -2  146.68    3.53
  -5  -4   2  138.56    3.54
   5  -4  -2  150.01    3.54
  -5  -4   2  149.11    3.50
  -5   4   1    0.72    0.24
   5   4  -1    0.74    0.18
  -5  -4   1    0.39    0.20
   5  -4  -1    0.55    0.22
   5  -4  -1    0.86    0.26
  -5  -4   1    0.61    0.22
  -5   4   0    0.36    0.25
   5   4   0    0.40    0.21
  -5  -4   0    0.30    0.23
   5  -4   0    0.14    0.19
   5  -4   0    0.14    0.22
  -5  -4   0    0.01    0.18
   5   4   1   30.14    0.93
  -5   4  -1   29.59    0.98
   5  -4   1   29.82    0.88
  -5  -4  -1   30.14    0.98
   5  -4   1   29.38    0.94
  -5  -4  -1   27.94    0.94
  -5   4  -2   30.23    0.80
   5   4   2   30.54    0.99
   5  -4   2   29.44    1.02
  -5  -4  -2   32.06    1.04
   5  -4   2   30.36    0.89
   5   4   3   28.45    0.99
   5  -4   3   28.64    1.07
   5  -4   3   28.13    0.87
  -5  -4  -3   28.58    1.03
   5   4   4    5.14    0.48
   5  -4   4    5.99    0.51
  -5  -4  -4    5.54    0.52
   5   4   5   15.92    0.85
   5  -4   5   16.28    0.66
  -5  -4  -5   17.15    0.88
   5   4   6   16.15    0.92
   5  -4   6   16.70    0.65
  -5  -4  -6   17.40    0.94
   5   4   7   12.47    0.93
   5  -4   7   12.69    0.58
  -5  -4  -7   11.71    0.83
   5   4   8    7.43    0.75
  -5  -4  -8    6.85    0.71
   5  -4   8    7.85    0.51
  -5   5   8    7.58    0.69
   5  -5  -8    8.14    0.73
  -5   5   7    0.20    0.42
   5  -5  -7   -0.05    0.43
  -5   5   6    1.61    0.42
  -5  -5   6    1.07    0.17
   5  -5  -6    0.38    0.39
  -5   5   5   -0.36    0.33
  -5  -5   5    0.32    0.17
   5  -5  -5   -0.09    0.36
  -5   5   4    0.42    0.31
  -5  -5   4    0.13    0.18
   5  -5  -4   -0.06    0.33
  -5   5   3    0.34    0.29
   5  -5  -3    0.51    0.32
  -5  -5   3    0.69    0.22
  -5   5   2   49.25    1.42
  -5  -5   2   47.39    1.33
   5  -5  -2   49.14    1.42
  -5   5   1   18.48    0.77
   5   5  -1   18.67    0.61
  -5  -5   1   19.50    0.74
   5  -5  -1   19.21    0.76
  -5   5   0   50.51    1.51
   5   5   0   48.84    1.34
   5  -5   0   50.52    1.42
  -5  -5   0   50.26    1.44
   5   5   1   52.86    1.48
   5  -5   1   54.77    1.51
  -5  -5  -1   54.31    1.56
   5   5   2   16.49    0.74
   5  -5   2   16.10    0.76
  -5  -5  -2   17.42    0.80
   5   5   3    1.96    0.39
   5  -5   3    2.07    0.43
  -5  -5  -3    2.08    0.42
   5   5   4  113.81    2.93
  -5  -5  -4  112.36    2.98
   5  -5   4  110.44    2.84
   5   5   5   20.15    0.97
  -5  -5  -5   19.87    1.01
   5  -5   5   19.01    0.68
   5   5   6    3.24    0.55
   5  -5   6    2.84    0.33
  -5  -5  -6    2.88    0.56
   5   5   7    8.16    0.77
  -5  -5  -7    7.54    0.74
   5  -6  -6   40.43    1.49
   5  -6  -5    6.40    0.62
  -5  -6   4    0.10    0.20
   5  -6  -4   -0.10    0.41
   5  -6  -3    2.24    0.44
  -5  -6   3    2.18    0.30
   5  -6  -2   56.44    1.66
  -5  -6   2   55.93    1.53
   5  -6  -1    5.91    0.50
  -5  -6   1    5.09    0.44
  -5  -6   0   19.71    0.86
   5  -6   0   19.15    0.83
   5  -6   1    7.13    0.61
  -5  -6  -1    7.06    0.56
  -5  -6  -2    0.44    0.38
   5  -6   2    1.18    0.36
   5  -6   3    0.97    0.37
  -5  -6  -3    0.75    0.43
  -5  -6  -4    1.33    0.50
  -5  -6  -5    0.45    0.49
   5  -7  -3    3.30    0.54
   5  -7  -2    8.07    0.66
  -5  -7   2    7.63    0.58
   5  -7  -1    3.91    0.52
  -5  -7   1    4.18    0.45
  -5  -7   0    2.74    0.46
   5  -7   0    2.89    0.45
   5  -7   1    3.91    0.48
  -5  -7  -1    3.50    0.52
  -6   0  12    7.79    0.71
  -6   0  11   -0.32    0.39
   6   0 -10    3.51    0.44
  -6   0  10    4.24    0.51
  -6   0   9    0.17    0.33
   6   0  -9   -0.24    0.28
   6   0  -8    0.33    0.27
  -6   0   8   -0.07    0.28
   6   0  -7   -0.20    0.24
  -6   0   7   -0.15    0.23
  -6   0   6   14.36    0.60
  -6   0   6   13.45    0.56
   6   0  -6   12.94    0.59
  -6   0   6   13.20    0.56
   6   0  -5    0.00    0.19
  -6   0   5    0.01    0.20
  -6   0   5    0.24    0.18
   6   0  -4   68.70    1.80
  -6   0   4   72.30    1.80
  -6   0   4   70.61    1.79
   6   0  -3   -0.15    0.15
   6   0  -3   -0.03    0.17
  -6   0   3    0.11    0.17
  -6   0   3    0.29    0.17
  -6   0   2  430.29   10.03
  -6   0   2  443.97   10.03
   6   0  -2  443.69   10.03
   6   0  -2  430.46   10.01
   6   0  -1   -0.41    0.27
  -6   0   1    0.00    0.21
  -6   0   1    0.25    0.30
   6   0   0   58.84    1.75
  -6   0   0   59.72    1.71
  -6   0   0   59.27    1.81
   6   0   0   61.72    1.80
  -6   0  -1    0.36    0.22
  -6   0  -1    0.42    0.30
   6   0   1    0.12    0.23
   6   0   1   -0.23    0.31
   6   0   2  738.02   16.91
   6   0   2  732.61   16.96
  -6   0  -2  757.90   17.30
   6   0   3   -0.05    0.18
   6   0   3   -0.08    0.24
  -6   0  -3    0.42    0.23
   6   0   4   71.98    2.01
  -6   0  -4   76.75    1.96
   6   0   5    0.59    0.30
  -6   0  -5   -0.01    0.24
   6   0   6   10.37    0.67
  -6   0  -6   10.09    0.61
   6   0   7    0.52    0.36
  -6   0  -7    0.02    0.29
  -6   0  -8    1.52    0.38
   6   0   8    2.12    0.47
   6   0   9    0.53    0.43
   6   0  10    5.87    0.68
  -6   1  11    2.21    0.49
  -6  -1  11    1.85    0.45
   6  -1 -11    1.64    0.44
  -6   1  10    3.59    0.54
  -6  -1  10    3.87    0.46
   6  -1 -10    3.25    0.47
   6   1  -9    0.32    0.28
  -6   1   9   -0.11    0.34
   6  -1  -9    0.35    0.32
  -6  -1   9   -0.20    0.30
  -6   1   8  164.02    3.97
   6   1  -8  158.66    3.91
  -6  -1   8  163.74    3.92
   6  -1  -8  162.04    3.96
   6   1  -7    0.02    0.23
  -6   1   7    0.03    0.29
  -6  -1   7   -0.12    0.19
   6  -1  -7    0.07    0.26
  -6  -1   7    0.23    0.19
  -6  -1   7    0.34    0.25
   6   1  -6   29.82    0.94
  -6   1   6   29.56    0.96
  -6  -1   6   29.51    0.93
   6  -1  -6   28.71    0.95
  -6  -1   6   28.73    0.89
   6   1  -5   34.43    1.03
  -6   1   5   33.76    1.03
  -6  -1   5   34.87    1.01
   6  -1  -5   33.93    1.03
  -6  -1   5   33.13    0.98
  -6   1   4  374.64    8.47
   6   1  -4  362.42    8.52
  -6  -1   4  366.17    8.46
   6  -1  -4  368.27    8.46
  -6  -1   4  373.46    8.47
  -6   1   3   11.86    0.51
  -6   1   3   11.06    0.45
   6   1  -3   10.05    0.63
   6  -1  -3   10.55    0.46
   6  -1  -3   10.96    0.49
  -6  -1   3   11.16    0.54
  -6  -1   3   10.88    0.53
   6   1  -2  123.79    3.06
  -6   1   2  118.67    2.92
  -6   1   2  121.74    2.89
   6   1  -2  118.97    2.98
   6  -1  -2  118.28    2.90
  -6  -1   2  118.83    3.09
  -6  -1   2  118.92    3.11
   6  -1  -2  120.80    2.91
  -6   1   1   -0.37    0.21
   6   1  -1   -0.17    0.25
   6   1  -1    0.42    0.26
  -6   1   1   -0.07    0.17
   6  -1  -1    0.24    0.19
   6  -1  -1   -0.15    0.19
  -6  -1   1    1.05    0.33
  -6  -1   1    0.05    0.21
   6   1   0   13.18    0.69
   6   1   0   12.21    0.62
  -6   1   0   13.77    0.57
  -6   1   0   13.14    0.79
  -6  -1   0   12.93    0.62
  -6  -1   0   10.38    0.71
   6  -1   0   14.30    0.68
   6  -1   0   11.91    0.70
  -6   1  -1   47.54    1.46
   6   1   1   45.63    1.38
   6   1   1   43.25    1.33
   6  -1   1   47.84    1.47
  -6  -1  -1   46.73    1.34
   6  -1   1   47.11    1.47
  -6  -1  -1   48.43    1.43
  -6   1  -2   16.79    0.73
   6   1   2   19.21    0.74
   6  -1   2   18.36    0.84
  -6  -1  -2   18.36    0.75
   6  -1   2   15.34    0.86
  -6   1  -3   61.44    1.58
   6   1   3   58.14    1.64
  -6  -1  -3   57.43    1.61
   6  -1   3   54.78    1.65
   6  -1   3   58.73    1.74
  -6   1  -4   86.72    2.13
   6   1   4   86.91    2.24
  -6  -1  -4   81.12    2.19
   6  -1   4   86.25    2.26
   6  -1   4   79.26    2.20
  -6   1  -5    9.35    0.52
   6   1   5    9.19    0.64
  -6  -1  -5   10.33    0.62
   6  -1   5    9.86    0.61
   6  -1   5    9.34    0.55
  -6   1  -6   51.01    1.42
   6   1   6   48.31    1.52
  -6  -1  -6   50.58    1.51
   6  -1   6   51.49    1.53
  -6   1  -7    0.03    0.26
   6   1   7   -0.02    0.38
   6  -1   7    0.23    0.33
  -6  -1  -7    0.16    0.33
   6   1   8  137.18    3.55
  -6   1  -8  136.24    3.77
   6  -1   8  134.72    3.47
  -6  -1  -8  136.82    3.49
   6   1   9    0.57    0.47
  -6  -1  -9    0.09    0.40
   6  -1   9    0.28    0.40
   6   1  10    1.50    0.57
   6  -1  10    1.40    0.48
  -6   2  11    0.56    0.48
  -6  -2  11   -0.22    0.36
   6  -2 -11    0.77    0.46
  -6   2  10   13.04    0.87
  -6  -2  10   12.41    0.74
   6  -2 -10   13.41    0.85
  -6   2   9   17.62    0.89
   6  -2  -9   17.46    0.87
  -6  -2   9   16.72    0.76
   6   2  -8    1.08    0.30
  -6   2   8    1.26    0.38
  -6  -2   8    1.03    0.30
   6  -2  -8    0.97    0.33
   6   2  -7   34.41    1.14
  -6   2   7   35.26    1.14
  -6  -2   7   34.21    1.03
  -6  -2   7   36.03    1.07
   6  -2  -7   35.60    1.17
  -6   2   6   13.44    0.66
   6   2  -6   12.52    0.68
  -6  -2   6   11.83    0.52
   6  -2  -6   12.52    0.65
  -6  -2   6   12.73    0.58
   6   2  -5    1.83    0.31
  -6   2   5    1.69    0.31
  -6  -2   5    1.37    0.23
  -6  -2   5    1.36    0.26
   6  -2  -5    1.11    0.26
  -6   2   4   43.10    1.23
   6   2  -4   45.32    1.30
  -6  -2   4   42.83    1.29
  -6  -2   4   43.13    1.26
   6  -2  -4   44.51    1.25
  -6   2   3   37.01    1.08
   6   2  -3   36.45    1.12
   6  -2  -3   38.38    1.08
  -6  -2   3   37.58    1.29
   6  -2  -3   38.25    1.15
  -6  -2   3   33.16    1.21
  -6   2   2  178.57    4.32
   6   2  -2  184.78    4.34
   6  -2  -2  181.31    4.29
   6  -2  -2  174.91    4.29
  -6  -2   2  191.97    4.53
  -6  -2   2  183.72    4.48
  -6   2   1   79.42    2.08
   6   2  -1   79.98    2.03
  -6  -2   1   78.03    2.23
   6  -2  -1   82.35    2.03
   6  -2  -1   79.64    2.01
  -6  -2   1   78.08    2.11
  -6   2   0   16.13    0.80
   6   2   0   14.68    0.60
   6  -2   0   16.67    0.65
   6  -2   0   14.69    0.66
  -6  -2   0   15.89    0.74
  -6  -2   0   15.09    0.62
   6   2   1   52.15    1.46
  -6   2  -1   55.88    1.60
   6  -2   1   47.83    1.57
  -6  -2  -1   54.06    1.48
  -6  -2  -1   55.53    1.54
   6  -2   1   54.53    1.60
   6   2   2  326.04    7.70
  -6   2  -2  324.20    7.73
  -6  -2  -2  337.94    7.75
   6  -2   2  341.34    7.87
   6  -2   2  332.97    7.85
  -6   2  -3    9.68    0.49
   6   2   3   10.15    0.55
  -6  -2  -3    9.47    0.55
   6  -2   3   10.35    0.66
   6  -2   3    9.98    0.75
  -6   2  -4   20.27    0.68
   6   2   4   21.49    0.86
  -6  -2  -4   19.82    0.83
   6  -2   4   20.23    0.90
   6  -2   4   18.45    0.85
   6   2   5    1.14    0.35
  -6   2  -5    0.84    0.22
   6  -2   5    1.60    0.35
   6  -2   5    0.62    0.29
  -6  -2  -5    1.43    0.37
  -6   2  -6   45.56    1.24
   6   2   6   45.26    1.48
   6  -2   6   45.36    1.38
  -6  -2  -6   44.24    1.42
   6   2   7   51.94    1.68
   6  -2   7   52.73    1.56
  -6  -2  -7   51.70    1.62
   6   2   8    1.06    0.50
  -6  -2  -8    0.21    0.42
   6  -2   8    0.64    0.36
   6   2   9    4.77    0.64
   6  -2   9    5.58    0.56
  -6  -2  -9    5.43    0.65
   6  -3 -11    1.81    0.54
  -6   3  10   -0.04    0.44
  -6  -3  10   -0.05    0.32
   6  -3 -10    0.23    0.43
  -6   3   9    0.09    0.42
  -6  -3   9   -0.11    0.30
   6  -3  -9    0.05    0.42
  -6   3   8   43.55    1.42
  -6  -3   8   42.11    1.28
   6  -3  -8   42.55    1.42
  -6   3   7    0.86    0.38
   6  -3  -7    1.15    0.40
  -6  -3   7    0.97    0.30
   6   3  -6    1.28    0.16
  -6   3   6    0.87    0.33
   6  -3  -6    1.30    0.36
  -6  -3   6    0.84    0.30
  -6  -3   6    1.21    0.23
   6   3  -5   38.33    0.98
  -6   3   5   37.91    1.20
  -6  -3   5   37.88    1.11
   6  -3  -5   39.82    1.21
  -6  -3   5   37.08    1.28
   6   3  -4   85.22    2.03
  -6   3   4   83.39    2.19
   6  -3  -4   87.05    2.20
  -6  -3   4   83.71    2.34
  -6  -3   4   84.80    2.24
  -6   3   3   68.72    1.82
   6   3  -3   69.03    1.70
   6  -3  -3   68.17    1.81
  -6  -3   3   69.54    1.95
  -6  -3   3   70.20    1.96
   6   3  -2    0.70    0.19
  -6   3   2    1.21    0.27
  -6  -3   2    0.95    0.30
  -6  -3   2    1.21    0.27
   6  -3  -2    0.63    0.24
   6  -3  -2    0.79    0.22
   6   3  -1   15.62    0.58
  -6   3   1   16.09    0.67
   6  -3  -1   16.61    0.63
   6  -3  -1   16.58    0.62
  -6  -3   1   15.86    0.70
  -6  -3   1   13.41    0.63
  -6   3   0  143.81    3.62
   6   3   0  142.45    3.41
   6  -3   0  142.40    3.43
  -6  -3   0  137.66    3.46
  -6  -3   0  144.48    3.52
   6  -3   0  144.99    3.45
  -6   3  -1   94.36    2.41
   6   3   1   89.46    2.27
   6  -3   1   91.17    2.34
  -6  -3  -1   90.81    2.35
  -6  -3  -1   84.84    2.29
   6  -3   1   88.75    2.28
  -6   3  -2    1.68    0.27
   6   3   2    1.29    0.30
  -6  -3  -2    1.50    0.30
   6  -3   2    1.46    0.40
   6  -3   2    1.73    0.32
   6   3   3   94.28    2.46
  -6   3  -3   97.74    2.31
  -6  -3  -3   94.57    2.49
   6  -3   3   99.69    2.61
   6  -3   3   89.02    2.51
  -6   3  -4   79.73    1.91
   6   3   4   82.17    2.17
  -6  -3  -4   78.77    2.17
   6  -3   4   77.78    2.23
   6  -3   4   77.14    2.17
   6   3   5   14.15    0.80
  -6   3  -5   12.03    0.45
  -6  -3  -5   12.08    0.77
   6  -3   5   13.40    0.69
   6   3   6    0.34    0.40
  -6  -3  -6    0.60    0.40
   6  -3   6    0.84    0.31
   6   3   7    0.99    0.49
  -6  -3  -7    0.45    0.43
   6  -3   7    0.32    0.31
   6   3   8   49.94    1.76
   6  -3   8   49.85    1.49
  -6  -3  -8   50.17    1.71
   6   3   9   -0.57    0.53
   6  -3   9    0.08    0.35
  -6  -3  -9    0.83    0.52
  -6   4  10   23.57    1.19
  -6  -4  10   22.43    0.93
   6  -4 -10   20.40    1.14
  -6   4   9   19.95    1.06
   6  -4  -9   19.18    1.05
  -6  -4   9   18.13    0.85
  -6   4   8    1.74    0.47
  -6  -4   8    1.80    0.40
   6  -4  -8    1.19    0.45
  -6   4   7   42.62    1.43
   6  -4  -7   42.91    1.43
  -6  -4   7   41.96    1.45
  -6   4   6   52.34    1.58
   6  -4  -6   51.33    1.58
  -6  -4   6   51.42    1.56
  -6   4   5    2.11    0.38
   6  -4  -5    2.28    0.42
  -6  -4   5    2.37    0.37
  -6   4   4   10.02    0.61
  -6  -4   4   10.24    0.63
   6  -4  -4    8.85    0.62
  -6  -4   4    9.42    0.58
   6   4  -3   71.17    1.73
  -6   4   3   73.80    1.96
  -6  -4   3   72.81    2.05
  -6  -4   3   73.44    1.93
   6  -4  -3   74.23    1.95
  -6   4   2   20.97    0.80
   6   4  -2   19.67    0.63
  -6  -4   2   21.22    0.77
  -6  -4   2   19.19    0.79
   6  -4  -2   18.98    0.75
   6  -4  -2   19.70    0.77
   6   4  -1   26.12    0.80
  -6   4   1   25.98    0.94
   6  -4  -1   25.10    0.85
  -6  -4   1   24.96    0.89
  -6  -4   1   27.23    0.91
   6  -4  -1   25.74    0.89
  -6   4   0    0.98    0.33
   6   4   0    1.23    0.27
  -6  -4   0    0.99    0.26
   6  -4   0    1.26    0.25
   6  -4   0    0.97    0.28
  -6  -4   0    0.97    0.28
   6   4   1   17.04    0.70
  -6   4  -1   15.87    0.73
   6  -4   1   17.17    0.65
  -6  -4  -1   17.87    0.76
   6  -4   1   17.82    0.76
   6   4   2    8.67    0.56
  -6   4  -2    7.55    0.41
   6  -4   2    8.43    0.48
   6  -4   2    8.90    0.67
  -6  -4  -2    8.61    0.61
  -6   4  -3    8.83    0.32
   6   4   3    9.76    0.64
  -6  -4  -3    9.97    0.68
   6  -4   3    9.47    0.73
   6   4   4   10.42    0.72
   6  -4   4    9.21    0.76
  -6  -4  -4   11.20    0.74
   6   4   5    7.02    0.60
   6  -4   5    9.16    0.61
  -6  -4  -5    7.53    0.63
   6   4   6   56.04    1.82
   6  -4   6   59.35    1.59
  -6  -4  -6   55.25    1.79
   6   4   7   41.09    1.55
  -6  -4  -7   41.16    1.55
   6  -4   7   41.11    1.23
   6   4   8    1.96    0.60
   6  -4   8    2.02    0.35
  -6  -4  -8    1.90    0.56
  -6   5   8    2.17    0.54
   6  -5  -8    1.87    0.55
  -6   5   7    1.38    0.47
   6  -5  -7    1.16    0.49
  -6   5   6    4.40    0.52
   6  -5  -6    4.63    0.56
  -6  -5   6    4.61    0.40
  -6   5   5    6.75    0.57
   6  -5  -5    6.14    0.57
  -6  -5   5    6.35    0.44
  -6   5   4   23.98    0.95
  -6  -5   4   22.43    0.77
   6  -5  -4   22.16    0.98
  -6   5   3   49.36    1.49
   6  -5  -3   50.16    1.50
  -6  -5   3   49.08    1.37
  -6   5   2    9.79    0.62
   6  -5  -2   10.54    0.66
  -6  -5   2   10.46    0.57
  -6   5   1    6.30    0.51
   6   5  -1    6.20    0.40
   6  -5  -1    5.70    0.47
  -6  -5   1    7.19    0.55
  -6   5   0  155.43    4.49
   6   5   0  155.85    3.72
  -6  -5   0  154.14    3.82
   6  -5   0  158.01    3.80
   6   5   1   34.18    1.10
   6  -5   1   35.61    1.16
  -6  -5  -1   33.43    1.18
   6   5   2    7.00    0.56
   6  -5   2    5.77    0.54
  -6  -5  -2    5.65    0.53
   6   5   3   22.81    0.98
  -6  -5  -3   24.71    1.04
   6  -5   3   23.57    1.03
   6   5   4   34.89    1.25
  -6  -5  -4   32.40    1.26
   6  -5   4   29.74    1.17
   6   5   5    0.17    0.42
  -6  -5  -5    0.02    0.43
   6  -5   5    0.19    0.28
   6   5   6    6.82    0.68
   6  -5   6    6.58    0.48
  -6  -5  -6    6.87    0.72
   6  -6  -6   40.73    1.50
   6  -6  -5    6.94    0.68
   6  -6  -4   23.38    1.04
  -6  -6   4   23.07    0.78
   6  -6  -3   10.33    0.78
  -6  -6   3    9.65    0.57
  -6  -6   2    2.06    0.35
   6  -6  -2    1.87    0.44
  -6  -6   1    4.52    0.45
   6  -6  -1    4.22    0.49
   6  -6   0    0.68    0.38
  -6  -6   0    0.56    0.36
  -6  -6  -1    5.46    0.55
   6  -6   1    5.61    0.52
   6  -6   2    0.38    0.38
  -6  -6  -2    0.36    0.40
  -6  -6  -3    6.14    0.63
   6  -6   3    6.74    0.58
  -6  -6  -4   13.18    0.94
   6  -7  -1    0.12    0.41
  -6  -7   1   -0.08    0.36
   6  -7   0   46.50    1.51
  -7   0  11    0.13    0.42
   7   0 -10    1.58    0.39
  -7   0  10    1.47    0.43
  -7   0   9   -0.23    0.32
   7   0  -9   -0.05    0.29
   7   0  -8    6.80    0.53
  -7   0   8    5.67    0.48
   7   0  -7   -0.46    0.23
  -7   0   7    0.07    0.27
  -7   0   6   78.59    2.02
   7   0  -6   76.30    2.02
  -7   0   5   -0.16    0.18
  -7   0   5   -0.02    0.21
   7   0  -5   -0.05    0.23
  -7   0   4    0.51    0.24
   7   0  -4    0.97    0.27
  -7   0   4    1.36    0.25
  -7   0   3   -0.03    0.20
  -7   0   3   -0.11    0.20
   7   0  -3   -0.04    0.24
   7   0  -2  517.49   12.14
  -7   0   2  546.06   12.15
  -7   0   2  521.40   12.16
   7   0  -1   -0.39    0.28
   7   0  -1    0.04    0.28
  -7   0   1   -0.16    0.33
  -7   0   1    0.17    0.25
  -7   0   0  168.02    4.35
  -7   0   0  175.00    4.35
   7   0   0  171.43    4.29
   7   0   0  176.19    4.33
   7   0   1   -0.31    0.29
   7   0   1    0.10    0.25
  -7   0  -1   -0.28    0.31
  -7   0  -2  120.17    3.02
   7   0   2  118.70    3.08
   7   0   2  107.59    2.98
   7   0   3    0.25    0.29
  -7   0  -3    0.19    0.25
   7   0   4   92.61    2.56
  -7   0  -4   98.32    2.49
  -7   0  -5    0.09    0.28
   7   0   5    0.33    0.33
  -7   0  -6    3.50    0.43
   7   0   6    3.62    0.49
   7   0   7   -0.06    0.39
  -7   0  -7    0.10    0.32
  -7   0  -8   13.39    0.82
   7   0   8   12.51    0.87
   7   0   9    0.71    0.49
  -7   1  11    0.86    0.45
  -7  -1  11    0.56    0.41
   7  -1 -11    0.58    0.42
  -7   1  10    3.14    0.50
   7  -1 -10    4.49    0.51
  -7  -1  10    3.39    0.47
  -7   1   9    5.07    0.53
   7   1  -9    6.08    0.49
   7  -1  -9    5.92    0.53
  -7  -1   9    5.74    0.50
   7   1  -8  106.38    2.75
  -7   1   8  110.39    2.80
   7  -1  -8  109.70    2.78
  -7  -1   8  105.61    2.74
  -7   1   7   13.53    0.69
   7   1  -7   13.75    0.66
  -7  -1   7   11.73    0.58
   7  -1  -7   12.75    0.66
  -7  -1   7   12.36    0.64
  -7   1   6   71.67    1.91
   7   1  -6   71.73    1.92
  -7  -1   6   73.05    1.89
  -7  -1   6   70.80    1.87
   7  -1  -6   71.04    1.91
  -7   1   5   13.53    0.59
   7   1  -5   13.44    0.67
  -7  -1   5   13.51    0.61
  -7  -1   5   13.09    0.59
   7  -1  -5   14.04    0.62
  -7   1   4    5.09    0.43
   7   1  -4    5.12    0.46
  -7  -1   4    5.00    0.41
   7  -1  -4    4.42    0.37
  -7  -1   4    4.76    0.42
  -7   1   3   30.74    0.98
   7   1  -3   32.41    1.17
   7  -1  -3   31.79    0.98
  -7  -1   3   32.71    1.08
  -7  -1   3   29.66    1.06
  -7   1   2   -0.01    0.23
   7   1  -2    0.10    0.27
  -7  -1   2    0.02    0.23
  -7  -1   2   -0.02    0.34
   7  -1  -2    0.03    0.19
   7  -1  -2   -0.23    0.23
   7   1  -1   51.70    1.57
  -7   1   1   51.01    1.59
  -7  -1   1   53.37    1.57
   7  -1  -1   51.09    1.49
   7  -1  -1   51.13    1.54
   7   1   0   74.49    2.07
  -7   1   0   75.89    2.16
   7  -1   0   71.03    2.12
  -7  -1   0   73.90    2.07
   7  -1   0   72.35    2.09
  -7  -1   0   71.04    2.14
  -7   1  -1    6.93    0.59
   7   1   1    6.56    0.56
  -7  -1  -1    7.00    0.61
   7  -1   1    7.77    0.56
   7  -1   1    6.97    0.59
  -7   1  -2   62.87    1.89
   7   1   2   66.44    1.87
   7  -1   2   66.36    2.01
  -7  -1  -2   71.74    1.93
   7  -1   2   64.57    1.99
   7   1   3    1.60    0.35
  -7   1  -3    2.10    0.34
   7  -1   3    2.13    0.46
   7  -1   3    2.56    0.38
  -7  -1  -3    2.65    0.37
  -7   1  -4  435.25    9.63
   7   1   4  408.55    9.71
   7  -1   4  423.87    9.80
  -7  -1  -4  420.82    9.68
   7  -1   4  396.94    9.73
   7   1   5   24.26    0.98
  -7   1  -5   24.49    0.89
  -7  -1  -5   24.51    0.96
   7  -1   5   23.53    1.01
   7   1   6    2.86    0.51
  -7   1  -6    2.57    0.36
  -7  -1  -6    2.59    0.44
   7  -1   6    3.24    0.47
  -7   1  -7    6.68    0.51
   7   1   7    7.51    0.67
  -7  -1  -7    6.58    0.58
   7  -1   7    6.48    0.60
   7   1   8   93.07    2.67
   7  -1   8   94.13    2.60
  -7  -1  -8   94.53    2.60
   7   1   9    3.62    0.64
   7  -1   9    3.97    0.59
  -7  -1  -9    2.75    0.53
  -7   2  11    3.14    0.57
   7  -2 -11    4.26    0.57
  -7  -2  11    3.16    0.49
  -7   2  10    7.23    0.66
   7  -2 -10    5.30    0.60
  -7  -2  10    7.31    0.58
  -7   2   9    0.75    0.41
  -7  -2   9    0.62    0.34
   7  -2  -9    1.19    0.41
   7   2  -8    0.30    0.31
  -7   2   8   -0.11    0.36
   7  -2  -8    0.15    0.35
  -7  -2   8    0.47    0.30
  -7   2   7   48.12    1.46
   7   2  -7   45.75    1.47
   7  -2  -7   46.95    1.44
  -7  -2   7   47.34    1.38
   7   2  -6   84.64    2.29
  -7   2   6   84.54    2.20
   7  -2  -6   77.43    2.16
  -7  -2   6   85.44    2.17
  -7  -2   6   81.17    2.11
  -7   2   5   20.16    0.81
   7   2  -5   21.88    0.87
  -7  -2   5   21.65    0.78
  -7  -2   5   20.56    0.83
   7  -2  -5   21.04    0.81
  -7   2   4    0.48    0.25
   7   2  -4    0.70    0.29
   7  -2  -4    0.26    0.24
  -7  -2   4    0.53    0.26
  -7  -2   4    0.47    0.31
   7   2  -3   22.01    0.86
  -7   2   3   22.11    0.80
  -7  -2   3   20.42    0.91
   7  -2  -3   21.33    0.77
  -7  -2   3   21.90    1.02
  -7   2   2  353.77    8.20
   7   2  -2  350.43    8.22
   7  -2  -2  350.41    8.15
  -7  -2   2  367.50    8.38
   7  -2  -2  346.49    8.16
  -7  -2   2  351.71    8.32
   7   2  -1   -0.03    0.23
  -7   2   1    0.04    0.28
  -7  -2   1    1.25    0.39
  -7  -2   1    0.40    0.23
   7  -2  -1    0.38    0.21
   7  -2  -1    0.02    0.24
  -7   2   0  106.42    2.90
   7   2   0  102.16    2.64
   7  -2   0  102.61    2.71
  -7  -2   0  105.99    2.81
   7  -2   0  106.29    2.69
  -7  -2   0  102.06    2.68
   7   2   1   26.77    0.94
  -7   2  -1   27.59    1.03
   7  -2   1   25.95    1.08
  -7  -2  -1   27.23    1.03
   7  -2   1   24.80    1.04
  -7   2  -2   61.13    1.78
   7   2   2   60.87    1.73
   7  -2   2   60.99    1.87
  -7  -2  -2   61.00    1.78
   7  -2   2   64.05    1.83
  -7   2  -3   87.98    2.21
   7   2   3   81.56    2.26
   7  -2   3   81.81    2.38
   7  -2   3   83.52    2.44
  -7  -2  -3   87.66    2.30
  -7   2  -4   30.34    0.95
   7   2   4   30.97    1.12
  -7  -2  -4   28.47    1.06
   7  -2   4   28.71    1.18
   7  -2   4   30.18    1.23
  -7   2  -5    8.65    0.51
   7   2   5    9.13    0.67
  -7  -2  -5    8.82    0.70
   7  -2   5    9.99    0.73
  -7   2  -6   10.30    0.55
   7   2   6   11.46    0.82
  -7  -2  -6   11.56    0.78
   7  -2   6   10.48    0.72
   7   2   7    7.03    0.68
   7  -2   7    5.55    0.55
  -7  -2  -7    6.49    0.64
   7   2   8    0.35    0.52
   7  -2   8    0.78    0.42
  -7  -2  -8    0.69    0.46
   7   2   9   16.69    1.12
   7  -2   9   16.58    0.95
  -7  -2  -9   15.07    1.01
  -7   3  10    0.47    0.47
   7  -3 -10    0.43    0.48
  -7  -3  10    0.74    0.37
  -7   3   9    8.38    0.71
   7  -3  -9    8.53    0.70
  -7  -3   9    8.83    0.65
  -7   3   8   41.01    1.41
  -7  -3   8   39.76    1.29
   7  -3  -8   41.07    1.39
  -7   3   7   15.25    0.81
  -7  -3   7   14.88    0.76
   7  -3  -7   14.58    0.81
  -7   3   6    5.87    0.50
   7   3  -6    6.16    0.39
   7  -3  -6    7.54    0.62
  -7  -3   6    6.99    0.57
   7   3  -5    3.02    0.27
  -7   3   5    2.85    0.38
   7  -3  -5    2.80    0.41
  -7  -3   5    2.82    0.35
  -7  -3   5    2.50    0.47
  -7   3   4  111.23    2.81
   7   3  -4  113.79    2.69
  -7  -3   4  112.19    2.96
   7  -3  -4  112.35    2.80
  -7  -3   4  105.80    2.89
   7   3  -3   80.05    1.99
  -7   3   3   77.16    2.09
  -7  -3   3   81.35    2.21
  -7  -3   3   78.78    2.21
   7  -3  -3   79.05    2.07
  -7   3   2    8.81    0.57
   7   3  -2    9.83    0.49
  -7  -3   2    8.76    0.69
  -7  -3   2    8.25    0.58
   7  -3  -2    8.43    0.50
   7  -3  -2    8.91    0.54
  -7   3   1  134.30    3.36
   7   3  -1  134.14    3.23
  -7  -3   1  135.18    3.39
  -7  -3   1  126.96    3.32
   7  -3  -1  130.61    3.25
   7  -3  -1  135.86    3.26
   7   3   0   62.74    1.68
  -7   3   0   63.47    1.94
   7  -3   0   64.32    1.74
  -7  -3   0   58.73    1.73
   7  -3   0   63.61    1.71
  -7  -3   0   61.26    1.80
   7   3   1    4.51    0.40
  -7   3  -1    4.61    0.48
  -7  -3  -1    5.25    0.47
   7  -3   1    4.59    0.43
   7  -3   1    3.81    0.46
   7   3   2    0.53    0.31
  -7   3  -2    0.27    0.26
   7  -3   2    0.26    0.37
   7  -3   2   -0.13    0.27
  -7  -3  -2    0.37    0.30
   7   3   3   19.54    0.86
  -7   3  -3   19.68    0.72
   7  -3   3   20.81    0.88
   7  -3   3   20.81    1.00
  -7  -3  -3   19.88    0.90
  -7   3  -4   63.45    1.58
   7   3   4   61.07    1.80
  -7  -3  -4   61.47    1.84
   7  -3   4   58.60    1.93
   7   3   5   27.83    1.13
  -7  -3  -5   26.60    1.08
   7  -3   5   26.46    1.08
   7   3   6    3.17    0.56
   7  -3   6    2.44    0.43
  -7  -3  -6    2.58    0.52
   7   3   7    8.06    0.74
  -7  -3  -7    8.44    0.74
   7  -3   7    8.88    0.69
   7   3   8   29.19    1.36
  -7  -3  -8   29.00    1.32
   7  -3   8   29.99    1.14
  -7   4   9    1.17    0.49
   7  -4  -9    1.51    0.53
  -7  -4   9    1.95    0.44
  -7   4   8   18.35    0.97
   7  -4  -8   18.47    0.99
  -7  -4   8   16.83    0.96
  -7   4   7   22.50    1.03
   7  -4  -7   21.30    1.02
  -7  -4   7   20.44    1.05
  -7   4   6   11.43    0.75
   7  -4  -6   11.11    0.77
  -7  -4   6   11.90    0.76
  -7   4   5   12.75    0.72
  -7  -4   5   12.43    0.73
   7  -4  -5   12.61    0.75
  -7   4   4    0.44    0.30
   7   4  -4    0.47    0.15
   7  -4  -4    0.38    0.34
  -7  -4   4    1.05    0.35
   7   4  -3    4.59    0.32
  -7   4   3    3.98    0.42
  -7  -4   3    5.94    0.49
   7  -4  -3    3.88    0.44
  -7   4   2   24.09    0.91
   7   4  -2   23.42    0.75
  -7  -4   2   24.67    0.93
   7  -4  -2   23.68    0.88
  -7  -4   2   21.96    0.92
   7   4  -1    0.76    0.25
  -7   4   1    0.66    0.32
   7  -4  -1    0.53    0.25
  -7  -4   1    0.68    0.31
  -7  -4   1    0.42    0.26
   7  -4  -1    0.70    0.29
  -7   4   0    0.05    0.31
   7   4   0   -0.27    0.24
   7  -4   0   -0.19    0.29
  -7  -4   0    0.06    0.29
   7  -4   0   -0.03    0.22
  -7  -4   0   -0.21    0.23
  -7   4  -1    9.10    0.60
   7   4   1    9.62    0.59
  -7  -4  -1    9.01    0.66
   7  -4   1    8.37    0.65
  -7   4  -2   63.75    1.73
   7   4   2   67.84    1.85
   7  -4   2   64.45    2.01
  -7  -4  -2   68.05    1.92
   7   4   3  103.56    2.73
  -7  -4  -3  102.39    2.78
   7  -4   3  104.89    2.82
   7   4   4    0.45    0.40
  -7  -4  -4    0.05    0.39
   7  -4   4   -0.37    0.40
   7   4   5   24.80    1.11
   7  -4   5   24.89    1.06
  -7  -4  -5   25.90    1.15
   7   4   6   47.45    1.67
  -7  -4  -6   48.04    1.70
   7  -4   6   50.14    1.50
   7   4   7   11.33    0.90
  -7  -4  -7   10.91    0.88
   7  -4   7   11.62    0.70
  -7   5   8    3.20    0.58
   7  -5  -8    3.17    0.60
  -7   5   7    2.35    0.51
   7  -5  -7    1.46    0.50
  -7  -5   7    2.09    0.34
  -7   5   6    5.07    0.57
   7  -5  -6    5.21    0.61
  -7  -5   6    5.14    0.41
  -7   5   5    0.47    0.37
   7  -5  -5    0.51    0.42
  -7  -5   5    0.45    0.28
  -7   5   4   81.83    2.27
   7  -5  -4   82.51    2.27
  -7  -5   4   82.03    2.14
  -7   5   3   17.84    0.85
  -7  -5   3   18.13    0.77
   7  -5  -3   17.27    0.84
  -7   5   2    7.90    0.63
   7  -5  -2    6.41    0.54
  -7  -5   2    7.22    0.58
  -7   5   1   50.58    1.61
   7  -5  -1   52.43    1.54
  -7  -5   1   50.71    1.52
   7   5   0   73.37    1.92
   7  -5   0   74.35    2.05
  -7  -5   0   72.06    2.03
   7   5   1    1.30    0.34
  -7  -5  -1    0.65    0.38
   7  -5   1    0.76    0.38
   7   5   2   30.81    1.10
   7  -5   2   29.90    1.22
  -7  -5  -2   29.59    1.17
   7   5   3    9.51    0.71
  -7  -5  -3    8.56    0.70
   7  -5   3   10.30    0.79
   7   5   4    3.67    0.54
   7  -5   4    2.81    0.51
  -7  -5  -4    4.04    0.60
   7   5   5    0.06    0.46
  -7  -5  -5    0.16    0.49
   7  -5   5   -0.24    0.34
   7   5   6    1.57    0.57
  -7  -5  -6    1.31    0.56
   7  -5   6    1.03    0.33
   7  -6  -6    2.58    0.58
  -7  -6   5    1.14    0.27
   7  -6  -5    1.57    0.50
  -7  -6   4   12.17    0.62
   7  -6  -4   12.43    0.85
  -7  -6   3   10.23    0.63
   7  -6  -3   10.62    0.82
  -7  -6   2    4.69    0.46
   7  -6  -2    4.67    0.54
  -7  -6   1    0.53    0.37
   7  -6  -1    0.81    0.41
   7  -6   0    6.52    0.59
  -7  -6   0    6.79    0.59
  -7  -6  -1    0.80    0.42
   7  -6   1    0.03    0.40
  -7  -6  -2   24.75    1.14
   7  -6   2   24.08    1.12
  -7  -6  -3    5.47    0.65
   7  -6   3    7.44    0.63
  -7  -6  -4    2.03    0.58
   7  -6   4    0.97    0.66
  -8   0  11   -0.08    0.43
  -8   0  10   18.66    0.93
   8   0 -10   18.61    0.89
   8   0  -9    0.09    0.33
  -8   0   9    0.30    0.34
  -8   0   8    0.10    0.34
   8   0  -8   -0.06    0.31
   8   0  -7   -0.09    0.29
  -8   0   7    0.30    0.29
   8   0  -6  362.09    8.57
  -8   0   6  377.06    8.57
  -8   0   5   -0.22    0.25
   8   0  -5    0.14    0.29
   8   0  -4  143.45    3.55
  -8   0   3   -0.22    0.28
   8   0  -3   -0.02    0.28
  -8   0   2  171.74    4.37
   8   0  -2  176.39    4.35
   8   0  -1   -0.14    0.28
  -8   0   1   -0.39    0.32
   8   0   0  343.53    8.08
  -8   0   0  338.62    8.12
  -8   0  -1   -0.06    0.32
   8   0   1    0.14    0.34
  -8   0  -2    0.91    0.39
   8   0   2    1.12    0.41
  -8   0  -3    0.27    0.33
   8   0   3   -0.25    0.34
  -8   0  -4    4.59    0.48
   8   0   4    5.37    0.59
   8   0   5    0.75    0.42
  -8   0  -5    0.18    0.31
  -8   0  -6   43.15    1.43
   8   0   6   44.73    1.56
  -8   0  -7    0.09    0.36
   8   0   7    0.64    0.47
  -8   0  -8    1.30    0.45
   8   0   8    1.81    0.54
   8   0   9    0.33    0.54
  -8   1  11   -0.32    0.45
   8  -1 -11    0.74    0.44
  -8  -1  11    0.50    0.45
  -8   1  10   24.18    1.10
  -8  -1  10   25.75    1.04
   8  -1 -10   24.65    1.07
  -8   1   9    0.03    0.39
   8   1  -9    0.55    0.35
   8  -1  -9    0.11    0.36
  -8  -1   9    0.36    0.34
  -8   1   8    9.95    0.70
   8   1  -8    9.02    0.66
  -8  -1   8    9.51    0.67
   8  -1  -8   10.61    0.69
   8   1  -7    1.51    0.36
  -8   1   7    1.08    0.35
   8  -1  -7    0.98    0.33
  -8  -1   7    1.22    0.33
   8   1  -6   17.38    0.81
  -8   1   6   17.25    0.77
  -8  -1   6   16.71    0.72
  -8  -1   6   18.76    0.77
   8  -1  -6   17.35    0.76
  -8   1   5   22.62    0.84
   8   1  -5   20.94    0.91
  -8  -1   5   20.83    0.82
   8  -1  -5   21.94    0.83
  -8  -1   5   21.61    0.84
  -8   1   4    1.52    0.28
  -8  -1   4    1.77    0.32
  -8  -1   4    2.65    0.39
   8  -1  -4    2.11    0.32
  -8   1   3    3.86    0.39
   8   1  -3    3.56    0.49
  -8  -1   3    3.81    0.46
   8  -1  -3    4.20    0.41
  -8  -1   3    2.88    0.44
   8   1  -2   26.86    1.05
  -8   1   2   28.91    1.04
  -8  -1   2   27.27    1.05
  -8  -1   2   27.60    1.18
   8  -1  -2   26.03    0.97
  -8   1   1    4.13    0.50
   8   1  -1    4.25    0.45
   8  -1  -1    3.92    0.44
  -8  -1   1    5.18    0.55
  -8  -1   1    5.71    0.54
   8   1   0  341.68    7.93
  -8   1   0  339.21    7.97
   8  -1   0  327.77    7.94
   8  -1   0  320.79    7.93
  -8  -1   0  335.54    7.98
   8   1   1   10.05    0.73
  -8   1  -1    9.01    0.68
   8  -1   1   10.78    0.65
   8  -1   1    9.64    0.71
  -8  -1  -1    9.89    0.78
  -8   1  -2   16.26    0.87
   8   1   2   15.37    0.80
   8  -1   2   15.68    0.92
   8  -1   2   15.99    0.84
  -8  -1  -2   17.31    0.91
  -8   1  -3    4.63    0.46
   8   1   3    5.13    0.54
   8  -1   3    2.90    0.57
  -8  -1  -3    4.11    0.48
  -8   1  -4  164.88    4.07
   8   1   4  159.57    4.15
   8  -1   4  160.94    4.26
  -8  -1  -4  172.38    4.15
  -8   1  -5   10.91    0.67
   8   1   5    9.65    0.82
   8  -1   5   10.81    0.85
  -8  -1  -5   11.02    0.74
  -8   1  -6   69.54    1.94
   8   1   6   69.21    2.12
   8  -1   6   69.06    2.09
  -8  -1  -6   69.42    2.05
   8   1   7    1.45    0.54
  -8   1  -7    0.97    0.36
  -8  -1  -7    1.24    0.43
   8  -1   7    0.80    0.47
   8   1   8   18.15    1.16
  -8  -1  -8   17.40    1.04
   8  -1   8   18.25    1.07
   8   1   9    3.03    0.63
  -8  -1  -9    3.95    0.61
   8  -1   9    3.36    0.62
  -8   2  11    5.19    0.68
  -8  -2  11    4.82    0.57
   8  -2 -11    3.66    0.59
  -8   2  10   12.03    0.89
   8  -2 -10   13.17    0.88
  -8  -2  10   13.10    0.82
  -8   2   9    4.12    0.57
   8  -2  -9    4.00    0.54
  -8  -2   9    3.84    0.47
  -8   2   8    4.24    0.49
   8   2  -8    4.98    0.57
  -8  -2   8    4.61    0.47
   8  -2  -8    4.17    0.47
  -8   2   7    1.79    0.40
   8   2  -7    2.40    0.44
  -8  -2   7    1.31    0.36
   8  -2  -7    1.13    0.37
   8   2  -6  106.26    2.86
  -8   2   6  106.63    2.77
  -8  -2   6  104.21    2.72
   8  -2  -6  111.51    2.78
  -8  -2   6  108.64    2.79
   8   2  -5   21.51    0.91
  -8   2   5   20.87    0.84
   8  -2  -5   21.35    0.85
  -8  -2   5   20.94    0.85
  -8  -2   5   20.99    0.93
  -8   2   4   77.08    2.06
   8   2  -4   79.84    2.13
   8  -2  -4   79.33    2.05
  -8  -2   4   70.60    2.15
  -8  -2   4   77.21    2.25
  -8   2   3   45.19    1.37
   8   2  -3   45.40    1.42
  -8  -2   3   44.59    1.48
  -8  -2   3   45.85    1.58
   8  -2  -3   45.29    1.35
  -8   2   2  106.75    2.80
   8   2  -2  105.25    2.81
  -8  -2   2  111.82    2.92
  -8  -2   2  109.81    2.87
   8  -2  -2  107.22    2.75
  -8   2   1  118.85    3.16
   8   2  -1  123.26    3.08
   8  -2  -1  119.45    3.03
   8  -2  -1  117.77    3.06
  -8  -2   1  113.90    3.13
  -8  -2   1  124.61    3.22
  -8   2   0   98.16    2.70
   8   2   0   94.51    2.50
   8  -2   0   96.28    2.57
  -8  -2   0   94.63    2.70
   8  -2   0   89.65    2.56
   8   2   1   36.50    1.26
  -8   2  -1   41.28    1.34
   8  -2   1   38.87    1.40
  -8  -2  -1   35.59    1.36
   8  -2   1   40.84    1.36
  -8   2  -2   32.36    1.20
   8   2   2   33.44    1.19
  -8  -2  -2   33.75    1.25
   8  -2   2   32.78    1.27
   8  -2   2   32.00    1.18
  -8   2  -3   32.46    1.13
   8   2   3   33.94    1.22
   8  -2   3   33.64    1.33
   8  -2   3   31.00    1.20
  -8  -2  -3   34.09    1.24
   8   2   4    3.35    0.49
  -8   2  -4    3.22    0.39
   8  -2   4    3.02    0.58
  -8  -2  -4    3.46    0.49
   8  -2   4    4.08    0.49
   8   2   5   41.42    1.46
  -8   2  -5   40.25    1.25
  -8  -2  -5   41.89    1.44
   8  -2   5   38.80    1.49
   8   2   6   51.84    1.75
  -8   2  -6   50.36    1.80
   8  -2   6   51.27    1.72
  -8  -2  -6   53.73    1.73
   8   2   7    5.99    0.69
  -8  -2  -7    5.44    0.61
   8  -2   7    7.02    0.66
   8   2   8    1.44    0.58
   8  -2   8    1.51    0.49
  -8  -2  -8    2.18    0.55
  -8   3  10    7.05    0.74
   8  -3 -10    7.00    0.71
  -8  -3  10    4.97    0.55
  -8   3   9   -0.25    0.44
  -8  -3   9    0.27    0.37
   8  -3  -9    0.50    0.43
  -8   3   8    8.86    0.70
  -8  -3   8    7.99    0.63
   8  -3  -8    8.20    0.69
  -8   3   7   28.84    1.14
   8  -3  -7   30.15    1.15
  -8  -3   7   28.90    1.16
   8   3  -6   11.70    0.57
  -8   3   6   12.26    0.74
   8  -3  -6   12.90    0.76
  -8  -3   6   11.78    0.84
   8   3  -5   97.20    2.44
  -8   3   5  101.73    2.57
  -8  -3   5   82.89    2.88
  -8  -3   5  102.81    2.82
   8  -3  -5  101.46    2.57
  -8   3   4   30.09    1.07
   8   3  -4   31.83    0.98
  -8  -3   4   32.67    1.22
  -8  -3   4   29.62    1.17
   8  -3  -4   30.34    1.07
   8   3  -3    1.20    0.27
  -8   3   3    0.91    0.34
  -8  -3   3    1.45    0.32
   8  -3  -3    1.07    0.31
  -8  -3   3    0.77    0.36
  -8   3   2   12.69    0.74
   8   3  -2   13.52    0.64
  -8  -3   2   12.76    0.82
  -8  -3   2   14.18    0.74
   8  -3  -2   14.43    0.69
  -8   3   1   56.43    1.74
   8   3  -1   55.88    1.59
  -8  -3   1   55.69    1.69
   8  -3  -1   56.98    1.63
   8  -3  -1   55.56    1.61
  -8  -3   1   58.77    1.78
   8   3   0   58.40    1.63
  -8   3   0   57.60    1.86
   8  -3   0   52.52    1.62
  -8  -3   0   59.30    1.79
   8  -3   0   55.83    1.69
  -8   3  -1   81.64    2.20
   8   3   1   78.25    2.12
   8  -3   1   78.20    2.27
   8  -3   1   73.19    2.16
  -8  -3  -1   80.41    2.24
  -8   3  -2    3.35    0.43
   8   3   2    5.02    0.50
   8  -3   2    4.75    0.57
   8  -3   2    5.43    0.52
  -8  -3  -2    5.75    0.58
   8   3   3   15.49    0.83
  -8   3  -3   14.31    0.68
  -8  -3  -3   16.37    0.90
   8  -3   3   16.39    0.95
  -8   3  -4   84.16    2.15
   8   3   4   84.56    2.37
   8  -3   4   81.43    2.49
  -8  -3  -4   85.63    2.41
   8   3   5   10.09    0.76
  -8  -3  -5    8.94    0.75
   8  -3   5    7.99    0.74
   8   3   6    8.69    0.78
  -8  -3  -6    8.55    0.75
   8  -3   6    7.43    0.66
   8   3   7    2.65    0.64
  -8  -3  -7    2.80    0.57
   8  -3   7    2.29    0.47
   8   3   8   13.04    1.12
  -8  -3  -8   12.64    1.04
   8  -3   8   13.33    0.87
  -8   4   9    3.21    0.60
  -8  -4   9    2.84    0.54
   8  -4  -9    3.40    0.62
  -8   4   8    6.56    0.65
  -8  -4   8    6.68    0.69
   8  -4  -8    6.85    0.67
  -8   4   7    0.89    0.42
   8  -4  -7    0.50    0.43
  -8  -4   7   -0.26    0.39
  -8   4   6    5.67    0.58
  -8  -4   6    5.47    0.57
   8  -4  -6    5.86    0.60
  -8   4   5    0.51    0.36
  -8  -4   5    1.20    0.38
   8  -4  -5    0.75    0.40
   8   4  -4    6.29    0.38
  -8   4   4    7.61    0.62
   8  -4  -4    6.73    0.56
  -8  -4   4    7.25    0.61
  -8   4   3   11.41    0.73
   8   4  -3   11.87    0.52
  -8  -4   3   12.55    0.76
   8  -4  -3   10.71    0.67
  -8   4   2   54.09    1.65
   8   4  -2   51.25    1.43
  -8  -4   2   53.52    1.63
   8  -4  -2   52.29    1.55
   8   4  -1   48.65    1.38
  -8   4   1   47.73    1.60
  -8  -4   1   48.87    1.56
   8  -4  -1   48.40    1.49
   8   4   0    6.83    0.54
  -8   4   0    7.51    0.69
  -8  -4   0    6.31    0.57
   8  -4   0    6.33    0.55
   8   4   1   10.11    0.66
  -8   4  -1   10.33    0.67
  -8  -4  -1   10.47    0.74
   8  -4   1    8.74    0.76
  -8   4  -2   84.93    2.26
   8   4   2   89.53    2.35
  -8  -4  -2   88.59    2.45
   8  -4   2   82.83    2.51
   8   4   3   20.40    0.96
   8  -4   3   20.54    1.04
  -8  -4  -3   21.95    1.04
   8   4   4   17.54    0.96
   8  -4   4   16.72    1.01
  -8  -4  -4   17.39    1.01
   8   4   5   45.03    1.57
   8  -4   5   42.54    1.55
  -8  -4  -5   42.48    1.55
   8   4   6   18.18    1.11
   8  -4   6   18.06    0.95
  -8  -4  -6   20.35    1.15
   8   4   7    4.34    0.68
  -8  -4  -7    4.47    0.71
   8  -4   7    2.82    0.48
  -8   5   8   19.24    1.13
   8  -5  -8   19.42    1.12
  -8   5   7   10.97    0.90
   8  -5  -7    9.03    0.75
  -8  -5   7    8.37    0.65
  -8   5   6    5.25    0.59
  -8  -5   6    4.26    0.46
   8  -5  -6    4.90    0.63
  -8   5   5   21.95    1.01
   8  -5  -5   21.25    1.02
  -8  -5   5   21.78    0.90
  -8   5   4   57.18    1.80
   8  -5  -4   60.72    1.80
  -8  -5   4   58.89    1.70
  -8   5   3    2.58    0.45
  -8  -5   3    2.60    0.40
   8  -5  -3    2.26    0.44
  -8   5   2   50.10    1.66
  -8  -5   2   53.66    1.61
   8  -5  -2   52.82    1.62
   8  -5  -1   35.39    1.25
  -8  -5   1   34.86    1.23
   8   5   0    0.36    0.33
   8  -5   0   -0.08    0.37
  -8  -5   0    0.22    0.36
   8   5   1    6.93    0.56
   8  -5   1    7.06    0.64
  -8  -5  -1    7.87    0.64
   8   5   2    9.29    0.74
   8  -5   2    9.82    0.80
  -8  -5  -2    9.64    0.84
   8   5   3    0.08    0.41
  -8  -5  -3   -0.16    0.43
   8  -5   3   -0.48    0.41
   8   5   4    0.43    0.46
  -8  -5  -4    0.53    0.49
   8  -5   4   -1.09    0.40
   8   5   5    0.43    0.52
   8  -5   5    0.26    0.42
  -8  -5  -5    0.91    0.54
   8  -6  -5    0.43    0.47
  -8  -6   5   -0.20    0.27
   8  -6  -4    1.48    0.50
  -8  -6   4    1.21    0.34
   8  -6  -3    0.58    0.45
  -8  -6   3    0.47    0.34
  -8  -6   2    8.47    0.68
   8  -6  -2    8.04    0.67
  -8  -6   1    1.53    0.44
   8  -6  -1    1.10    0.45
  -8  -6   0    3.35    0.52
   8  -6   0    2.61    0.52
   8  -6   1    0.83    0.46
  -8  -6  -1    0.40    0.44
  -8  -6  -2   56.96    1.88
   8  -6   2   56.04    1.90
   8  -6   3    7.10    0.66
  -8  -6  -3    8.47    0.78
  -9   0  11    0.21    0.45
   9   0 -10   50.11    1.61
  -9   0  10   50.20    1.64
   9   0  -9    0.55    0.37
  -9   0   9    0.23    0.37
  -9   0   8   80.32    2.22
   9   0  -8   81.09    2.22
  -9   0   7   -0.25    0.30
   9   0  -7   -0.19    0.32
  -9   0   6   49.26    1.48
   9   0  -6   49.54    1.51
   9   0  -5   -0.24    0.31
  -9   0   5    0.00    0.28
   9   0  -4  210.08    5.15
  -9   0   4  214.39    5.15
   9   0  -3   -0.33    0.28
  -9   0   3   -0.12    0.33
   9   0  -2   -0.07    0.36
  -9   0   2   -0.10    0.35
   9   0  -1   -0.18    0.32
  -9   0   1    0.47    0.35
   9   0   0   18.75    0.93
  -9   0   0   18.41    0.92
   9   0   1   -0.11    0.39
  -9   0  -1    0.18    0.37
   9   0   2   37.13    1.45
  -9   0  -2   36.40    1.43
   9   0   3   -0.17    0.43
  -9   0  -3   -0.15    0.38
   9   0   4   21.08    1.12
  -9   0  -4   19.95    1.00
   9   0   5    0.11    0.48
  -9   0  -5    0.49    0.39
   9   0   6  166.76    4.32
  -9   0  -6  160.96    4.15
   9   0   7    0.86    0.57
  -9   0  -7   -0.29    0.39
   9   0   8   35.14    1.54
  -9   1  11    2.24    0.55
  -9  -1  11    1.78    0.51
   9  -1 -11    2.71    0.53
  -9   1  10   13.43    0.91
  -9  -1  10   16.22    0.88
   9  -1 -10   14.68    0.88
  -9   1   9    6.31    0.62
   9   1  -9    6.26    0.58
   9  -1  -9    5.58    0.56
  -9  -1   9    5.44    0.55
   9   1  -8    0.47    0.37
  -9   1   8    0.41    0.37
   9  -1  -8    0.62    0.37
  -9  -1   8    0.31    0.35
   9   1  -7    1.91    0.42
  -9   1   7    2.18    0.40
   9  -1  -7    2.62    0.43
  -9  -1   7    3.31    0.45
  -9   1   6    4.60    0.46
   9   1  -6    5.49    0.54
  -9  -1   6    4.34    0.46
   9  -1  -6    4.28    0.43
   9   1  -5    4.34    0.52
  -9   1   5    4.10    0.43
  -9  -1   5    5.39    0.52
   9  -1  -5    5.19    0.47
   9   1  -4   84.12    2.45
  -9   1   4   88.54    2.32
   9  -1  -4   87.39    2.31
  -9  -1   4   84.52    2.40
   9   1  -3    9.96    0.73
  -9   1   3   10.37    0.65
   9  -1  -3   10.18    0.62
  -9  -1   3   11.37    0.83
   9   1  -2   11.07    0.73
   9  -1  -2   10.86    0.70
  -9  -1   2   10.86    0.80
   9   1  -1    0.06    0.33
  -9   1   1    0.11    0.38
   9  -1  -1    0.25    0.39
  -9  -1   1    0.24    0.33
   9   1   0  275.47    6.71
  -9   1   0  283.39    6.76
   9  -1   0  278.08    6.73
  -9  -1   0  275.24    6.76
  -9   1  -1    4.84    0.55
   9   1   1    3.01    0.49
   9  -1   1    3.89    0.50
  -9  -1  -1    3.93    0.62
  -9   1  -2  195.34    4.97
   9   1   2  202.72    5.00
   9  -1   2  200.99    5.01
  -9  -1  -2  195.04    5.05
  -9   1  -3    2.39    0.45
   9   1   3    2.69    0.55
  -9  -1  -3    2.58    0.47
   9  -1   3    1.71    0.52
  -9   1  -4   20.08    0.93
   9   1   4   20.72    1.08
   9  -1   4   18.24    1.13
  -9  -1  -4   18.86    1.00
   9   1   5   11.23    0.93
  -9   1  -5   11.50    0.75
   9  -1   5    9.86    0.85
  -9  -1  -5   12.03    0.84
   9   1   6   61.00    2.07
  -9   1  -6   63.85    1.89
   9  -1   6   65.28    2.11
  -9  -1  -6   63.00    1.99
   9   1   7    4.32    0.69
   9  -1   7    4.45    0.65
  -9  -1  -7    4.22    0.60
   9   1   8    0.64    0.59
  -9  -1  -8    1.04    0.51
   9  -1   8    0.21    0.53
  -9   2  11    0.11    0.47
   9  -2 -11    0.44    0.49
  -9  -2  11    0.15    0.44
  -9   2  10   23.03    1.13
   9  -2 -10   22.52    1.12
  -9  -2  10   22.91    1.06
  -9   2   9    1.37    0.46
  -9  -2   9    1.51    0.43
   9  -2  -9    1.69    0.48
  -9   2   8   16.24    0.91
   9  -2  -8   16.33    0.89
  -9  -2   8   16.40    0.85
   9   2  -7    7.67    0.67
  -9   2   7    7.05    0.59
  -9  -2   7    8.35    0.69
   9  -2  -7    8.22    0.63
  -9   2   6   65.92    1.94
   9   2  -6   67.52    2.04
   9  -2  -6   71.64    1.96
  -9  -2   6   72.39    2.05
   9   2  -5   19.28    0.90
  -9   2   5   18.58    0.84
   9  -2  -5   17.51    0.82
  -9  -2   5   18.84    0.87
  -9  -2   5   18.93    0.98
   9   2  -4   97.89    2.59
  -9   2   4   98.05    2.55
   9  -2  -4  100.68    2.54
  -9  -2   4   88.74    2.65
  -9  -2   4   96.17    2.78
  -9   2   3    4.49    0.49
   9   2  -3    3.55    0.47
   9  -2  -3    4.46    0.45
  -9  -2   3    6.13    0.56
  -9  -2   3    4.38    0.54
   9   2  -2   16.46    0.84
  -9   2   2   15.66    0.81
  -9  -2   2   15.90    0.86
   9  -2  -2   16.46    0.81
  -9   2   1   39.69    1.46
   9   2  -1   35.18    1.29
  -9  -2   1   39.33    1.40
   9  -2  -1   35.03    1.27
  -9   2   0   52.39    1.70
   9   2   0   50.11    1.60
   9  -2   0   50.49    1.68
  -9  -2   0   47.88    1.74
   9   2   1   96.07    2.58
  -9   2  -1   95.44    2.58
  -9  -2  -1   87.60    2.69
   9  -2   1   95.30    2.66
  -9   2  -2   24.34    1.09
   9   2   2   25.59    1.10
   9  -2   2   27.97    1.18
  -9  -2  -2   25.96    1.20
   9  -2   2   25.79    1.14
   9   2   3   48.11    1.61
  -9   2  -3   45.92    1.52
   9  -2   3   47.06    1.70
  -9  -2  -3   49.61    1.68
  -9   2  -4    5.78    0.52
   9   2   4    5.11    0.59
  -9  -2  -4    6.35    0.66
   9  -2   4    5.60    0.73
   9   2   5    3.36    0.56
  -9   2  -5    3.29    0.43
   9  -2   5    3.16    0.62
  -9  -2  -5    3.03    0.56
   9   2   6   60.28    2.04
  -9  -2  -6   59.67    2.01
   9  -2   6   65.76    2.09
   9   2   7    2.07    0.61
   9  -2   7    2.37    0.57
  -9  -2  -7    2.16    0.55
   9   2   8   11.40    0.99
   9  -2   8   11.15    0.94
  -9  -2  -8    9.31    0.84
  -9   3  10   12.15    0.96
  -9  -3  10   10.75    0.84
   9  -3 -10    8.78    0.76
  -9   3   9   22.07    1.11
   9  -3  -9   21.91    1.11
  -9  -3   9   23.46    1.08
  -9   3   8    8.91    0.74
  -9  -3   8    9.41    0.78
   9  -3  -8    8.83    0.71
  -9   3   7    0.14    0.41
  -9  -3   7   -0.08    0.41
   9  -3  -7    0.38    0.42
   9   3  -6   10.32    0.62
  -9   3   6   11.05    0.75
   9  -3  -6   10.55    0.76
  -9  -3   6   10.55    0.89
  -9   3   5   32.22    1.16
   9   3  -5   29.30    1.04
  -9  -3   5   33.24    1.35
   9  -3  -5   31.45    1.14
  -9   3   4   16.59    0.84
   9   3  -4   17.97    0.78
  -9  -3   4   18.60    0.99
   9  -3  -4   17.52    0.83
  -9  -3   4   19.30    0.96
   9   3  -3   52.60    1.54
  -9   3   3   54.04    1.64
  -9  -3   3   51.32    1.68
  -9  -3   3   51.32    1.62
   9  -3  -3   53.09    1.58
   9   3  -2   38.41    1.22
  -9   3   2   36.07    1.34
  -9  -3   2   38.09    1.30
  -9  -3   2   36.75    1.41
   9  -3  -2   37.27    1.26
  -9   3   1    9.07    0.76
   9   3  -1    9.41    0.66
   9  -3  -1    9.18    0.68
  -9  -3   1    8.80    0.76
   9   3   0   26.24    1.02
  -9   3   0   25.87    1.14
  -9  -3   0   26.87    1.19
   9  -3   0   24.73    1.08
   9   3   1    1.68    0.40
  -9   3  -1    0.89    0.35
  -9  -3  -1    1.42    0.45
   9  -3   1    0.65    0.47
   9  -3   1    1.68    0.38
  -9   3  -2   38.69    1.36
   9   3   2   40.23    1.39
  -9  -3  -2   42.59    1.53
   9  -3   2   41.96    1.51
   9   3   3    7.62    0.66
  -9   3  -3    5.79    0.50
  -9  -3  -3    6.21    0.65
   9  -3   3    7.33    0.72
   9   3   4   29.81    1.23
   9  -3   4   26.73    1.29
  -9  -3  -4   28.28    1.28
   9   3   5   54.75    1.87
   9  -3   5   56.12    1.97
  -9  -3  -5   57.65    1.92
   9   3   6   23.95    1.27
   9  -3   6   25.20    1.23
  -9  -3  -6   23.07    1.24
   9   3   7   24.25    1.33
  -9  -3  -7   23.43    1.27
   9  -3   7   22.02    1.16
  -9   4   9    6.53    0.72
   9  -4  -9    4.44    0.66
  -9  -4   9    6.36    0.74
  -9   4   8    0.53    0.47
  -9  -4   8    1.28    0.52
   9  -4  -8    1.64    0.53
  -9   4   7    4.41    0.59
  -9  -4   7    4.12    0.58
   9  -4  -7    4.05    0.61
  -9   4   6   15.19    0.88
   9  -4  -6   15.00    0.92
  -9  -4   6   16.00    0.91
  -9   4   5    7.06    0.60
   9  -4  -5    7.11    0.63
  -9  -4   5    8.10    0.67
  -9   4   4    6.95    0.60
  -9  -4   4    6.14    0.61
   9  -4  -4    5.90    0.57
   9   4  -3    6.46    0.48
  -9   4   3    7.23    0.63
   9  -4  -3    4.78    0.50
  -9  -4   3    6.80    0.64
   9   4  -2   61.10    1.68
  -9   4   2   62.66    1.92
   9  -4  -2   59.93    1.81
  -9  -4   2   61.72    1.90
  -9   4   1   38.00    1.48
   9   4  -1   36.11    1.20
  -9  -4   1   38.88    1.42
   9  -4  -1   39.75    1.35
  -9   4   0   28.22    1.19
   9   4   0   31.07    1.08
  -9  -4   0   29.53    1.22
   9  -4   0   28.65    1.18
   9   4   1   75.04    2.09
  -9   4  -1   75.69    2.10
  -9  -4  -1   74.55    2.22
   9  -4   1   71.33    2.25
   9   4   2   29.75    1.13
   9  -4   2   28.53    1.25
  -9  -4  -2   26.65    1.22
   9   4   3    5.10    0.59
  -9  -4  -3    7.31    0.73
   9  -4   3    4.51    0.60
   9   4   4   45.42    1.63
   9  -4   4   44.74    1.68
  -9  -4  -4   52.47    1.77
   9   4   5    6.41    0.69
   9  -4   5    7.49    0.77
  -9  -4  -5    5.38    0.70
   9   4   6    6.53    0.77
   9  -4   6    6.22    0.69
  -9  -4  -6    5.81    0.77
  -9   5   7    0.94    0.49
  -9  -5   7    0.34    0.39
   9  -5  -7    1.06    0.52
  -9   5   6   31.24    1.28
   9  -5  -6   31.98    1.32
  -9  -5   6   31.17    1.18
  -9   5   5   39.00    1.40
   9  -5  -5   37.77    1.42
  -9  -5   5   36.33    1.30
  -9   5   4    0.62    0.41
  -9  -5   4    0.30    0.38
   9  -5  -4   -0.01    0.42
  -9   5   3    9.91    0.81
   9  -5  -3    8.97    0.75
  -9  -5   3    8.30    0.66
   9  -5  -2   25.97    1.09
  -9  -5   2   26.26    1.11
  -9  -5   1    1.60    0.44
   9  -5  -1    0.56    0.43
   9  -5   0    0.68    0.45
  -9  -5   0    1.07    0.43
   9   5   1    1.74    0.44
  -9  -5  -1    1.50    0.48
   9  -5   1    2.03    0.53
   9   5   2    1.48    0.47
   9  -5   2    1.10    0.51
  -9  -5  -2    1.40    0.49
   9   5   3    0.26    0.46
  -9  -5  -3   -0.21    0.44
   9  -5   3    0.43    0.45
   9   5   4   22.19    1.14
  -9  -5  -4   22.36    1.23
   9  -5   4   21.04    1.12
   9   5   5   10.21    0.86
   9  -5   5   10.00    0.82
  -9  -5  -5   10.41    0.94
   9  -6  -5    0.51    0.51
  -9  -6   5   -0.09    0.32
   9  -6  -4    1.07    0.51
  -9  -6   4    1.10    0.37
   9  -6  -3    2.46    0.55
  -9  -6   3    1.97    0.43
   9  -6  -2   50.97    1.73
  -9  -6   2   52.28    1.65
   9  -6  -1    0.58    0.49
  -9  -6   1    0.50    0.43
  -9  -6   0   17.08    1.02
   9  -6   0   15.97    1.02
   9  -6   1   11.54    0.97
  -9  -6  -1   11.31    0.96
  -9  -6  -2   13.45    1.05
   9  -6   2   15.92    1.06
 -10   0  11   -0.09    0.46
 -10   0  10   19.60    1.02
  10   0 -10   19.90    1.06
 -10   0   9   -0.12    0.40
  10   0  -9   -0.06    0.40
 -10   0   8   53.12    1.67
  10   0  -8   53.21    1.69
 -10   0   7    0.13    0.36
  10   0  -7    0.00    0.36
 -10   0   6    4.15    0.49
  10   0  -6    2.96    0.48
 -10   0   5   -0.03    0.33
  10   0  -5   -0.06    0.35
  10   0  -4   38.76    1.39
 -10   0   4   39.92    1.37
 -10   0   3   -0.29    0.40
  10   0  -3   -0.03    0.36
 -10   0   2    3.29    0.60
  10   0  -2    3.23    0.53
  10   0  -1   -0.07    0.35
 -10   0   1    0.33    0.36
 -10   0   0    2.33    0.42
  10   0   0    2.16    0.45
 -10   0  -1   -0.17    0.38
  10   0   1   -0.13    0.40
  10   0   2  125.48    3.38
 -10   0  -2  118.99    3.34
  10   0   3   -0.11    0.47
 -10   0  -3    0.08    0.45
 -10   0  -4   52.24    1.77
  10   0   4   49.31    1.89
  10   0   5    0.29    0.56
 -10   0  -5    0.14    0.43
  10   0   6   72.16    2.38
 -10   0  -6   68.81    2.15
 -10   0  -7    0.28    0.46
  10   0   7   -0.25    0.59
  10   0   8   66.22    2.36
 -10   1  11   -0.59    0.48
 -10  -1  11    0.06    0.46
  10  -1 -11    0.27    0.50
 -10   1  10    6.10    0.67
 -10  -1  10    5.73    0.63
  10  -1 -10    6.02    0.63
 -10   1   9    8.49    0.68
  10   1  -9    8.11    0.78
  10  -1  -9    7.40    0.66
 -10  -1   9    6.50    0.63
  10   1  -8   10.07    0.77
 -10   1   8   10.79    0.78
 -10  -1   8   10.89    0.81
  10  -1  -8   10.00    0.77
  10   1  -7   18.41    0.97
 -10   1   7   19.36    0.92
 -10  -1   7   17.69    0.93
  10  -1  -7   18.31    0.90
  10   1  -6   12.07    0.84
 -10   1   6   12.73    0.77
  10  -1  -6   12.71    0.73
 -10  -1   6   12.64    0.79
 -10   1   5    3.11    0.45
  10   1  -5    2.24    0.52
  10  -1  -5    3.63    0.48
 -10  -1   5    2.01    0.45
  10   1  -4  140.73    3.75
 -10   1   4  146.77    3.65
 -10  -1   4  139.91    3.77
  10  -1  -4  141.76    3.62
  10   1  -3    0.08    0.34
 -10   1   3    0.15    0.38
  10  -1  -3    0.27    0.37
 -10  -1   3    0.37    0.38
 -10   1   2  264.99    6.43
  10   1  -2  260.88    6.27
 -10  -1   2  254.45    6.36
  10  -1  -2  255.57    6.30
 -10   1   1    8.39    0.77
  10   1  -1   10.67    0.72
  10  -1  -1    8.38    0.75
 -10  -1   1   11.97    0.78
 -10   1   0   17.13    0.92
  10   1   0   16.65    0.90
 -10  -1   0   15.33    0.94
  10  -1   0   16.82    0.93
 -10   1  -1   30.65    1.21
  10   1   1   28.29    1.24
 -10  -1  -1   28.88    1.29
  10  -1   1   33.56    1.27
  10   1   2  242.06    6.17
 -10   1  -2  256.82    6.12
  10  -1   2  260.13    6.15
 -10  -1  -2  231.69    6.22
  10   1   3    0.29    0.49
 -10   1  -3    0.50    0.44
 -10  -1  -3    0.74    0.49
  10  -1   3    0.23    0.46
 -10   1  -4    2.40    0.49
  10   1   4    1.49    0.57
  10  -1   4    1.73    0.65
 -10  -1  -4    1.29    0.48
 -10   1  -5    3.49    0.53
  10   1   5    4.22    0.70
 -10  -1  -5    4.09    0.65
  10  -1   5    3.57    0.70
 -10   1  -6    4.90    0.58
  10   1   6    4.28    0.73
 -10  -1  -6    5.31    0.70
  10  -1   6    5.13    0.77
  10   1   7   17.61    1.26
 -10  -1  -7   16.08    1.08
  10  -1   7   17.64    1.28
  10   1   8    8.21    0.93
 -10  -1  -8    7.40    0.81
  10  -1   8    6.39    0.85
 -10   2  10    6.97    0.72
  10  -2 -10    6.84    0.67
 -10  -2  10    6.59    0.67
 -10   2   9    0.28    0.46
 -10  -2   9    0.18    0.41
  10  -2  -9    0.29    0.44
 -10   2   8   47.96    1.58
  10  -2  -8   45.82    1.53
 -10  -2   8   47.68    1.61
  10   2  -7    2.93    0.50
 -10   2   7    2.17    0.43
  10  -2  -7    2.70    0.47
 -10  -2   7    2.72    0.51
 -10   2   6    0.72    0.39
  10   2  -6    0.63    0.39
  10  -2  -6    1.10    0.37
 -10  -2   6    0.18    0.43
 -10   2   5   25.87    1.03
  10   2  -5   26.18    1.06
 -10  -2   5   25.08    1.22
  10  -2  -5   27.51    1.06
 -10   2   4   54.46    1.69
  10   2  -4   55.27    1.71
  10  -2  -4   54.42    1.65
 -10  -2   4   53.59    1.89
 -10   2   3   70.39    2.09
  10   2  -3   70.36    2.04
 -10  -2   3   68.87    2.12
  10  -2  -3   70.92    2.03
  10   2  -2    0.74    0.38
 -10   2   2   -0.39    0.36
 -10  -2   2    0.24    0.36
  10  -2  -2    0.34    0.34
 -10   2   1   12.91    0.95
  10   2  -1   11.94    0.82
 -10  -2   1   14.19    0.90
  10  -2  -1   12.94    0.86
  10   2   0    0.13    0.38
 -10   2   0    0.91    0.38
  10  -2   0   -0.10    0.41
 -10  -2   0    0.44    0.49
  10   2   1   11.63    0.84
 -10   2  -1   12.24    0.80
 -10  -2  -1    7.89    0.78
  10  -2   1   13.14    0.86
  10   2   2   67.06    2.08
 -10   2  -2   71.19    2.08
 -10  -2  -2   64.65    2.19
  10  -2   2   69.95    2.14
  10   2   3   23.16    1.16
 -10   2  -3   21.77    1.06
 -10  -2  -3   22.05    1.23
  10  -2   3   21.04    1.19
  10   2   4   27.21    1.29
 -10   2  -4   24.70    1.07
 -10  -2  -4   25.52    1.28
  10  -2   4   23.73    1.34
 -10   2  -5    5.60    0.57
  10   2   5    7.76    0.82
  10  -2   5    4.64    0.75
 -10  -2  -5    6.58    0.77
  10   2   6   40.28    1.70
  10  -2   6   38.49    1.72
 -10  -2  -6   43.90    1.69
  10   2   7    1.83    0.68
  10  -2   7    0.57    0.59
 -10  -2  -7    1.13    0.59
 -10   3  10   15.51    1.08
 -10  -3  10   13.03    0.99
  10  -3 -10   14.17    1.04
 -10   3   9   12.99    0.96
  10  -3  -9   12.90    0.97
 -10  -3   9   12.34    0.95
 -10   3   8    2.00    0.53
 -10  -3   8    3.51    0.60
  10  -3  -8    2.82    0.54
 -10   3   7   18.18    0.97
  10  -3  -7   19.08    0.99
 -10  -3   7   18.55    1.13
 -10   3   6   30.99    1.20
  10  -3  -6   29.43    1.18
 -10  -3   6   29.59    1.40
 -10   3   5    2.26    0.46
  10   3  -5    1.73    0.38
 -10  -3   5    2.34    0.50
  10  -3  -5    2.19    0.43
 -10   3   4   16.76    0.89
  10   3  -4   15.27    0.80
  10  -3  -4   17.32    0.88
 -10  -3   4   16.87    0.95
 -10   3   3    2.11    0.46
  10   3  -3    1.30    0.37
 -10  -3   3    2.04    0.45
  10  -3  -3    1.86    0.40
 -10   3   2   41.18    1.50
  10   3  -2   39.88    1.35
 -10  -3   2   40.64    1.52
  10  -3  -2   42.00    1.42
  10   3  -1    8.49    0.66
 -10   3   1    6.48    0.73
 -10  -3   1    7.48    0.77
  10  -3  -1    8.24    0.69
  10   3   0   34.88    1.28
 -10   3   0   33.43    1.34
 -10  -3   0   36.84    1.49
  10  -3   0   35.22    1.40
 -10   3  -1   54.01    1.65
  10   3   1   50.99    1.66
  10  -3   1   48.54    1.79
 -10  -3  -1   51.55    1.85
  10   3   2   49.34    1.66
 -10   3  -2   49.62    1.61
  10  -3   2   51.14    1.72
 -10  -3  -2   49.27    1.82
 -10   3  -3   15.78    0.85
  10   3   3   16.16    1.00
 -10  -3  -3   17.03    1.10
  10  -3   3   17.01    1.02
  10   3   4    4.59    0.62
 -10  -3  -4    4.61    0.67
  10  -3   4    4.48    0.67
  10   3   5    2.59    0.65
 -10  -3  -5    2.99    0.67
  10  -3   5    2.89    0.69
  10   3   6   26.91    1.42
  10  -3   6   28.08    1.42
 -10  -3  -6   28.46    1.44
  10   3   7   24.85    1.44
 -10  -3  -7   28.03    1.47
  10  -3   7   26.62    1.37
 -10   4   9    1.38    0.57
  10  -4  -9    1.99    0.62
 -10  -4   9    1.11    0.54
 -10   4   8    2.70    0.57
  10  -4  -8    3.00    0.63
 -10  -4   8    3.85    0.62
 -10   4   7    0.86    0.48
 -10  -4   7    0.44    0.46
  10  -4  -7    1.01    0.51
 -10   4   6   27.65    1.18
  10  -4  -6   28.19    1.19
 -10  -4   6   26.37    1.17
 -10   4   5   16.29    0.92
 -10  -4   5   13.64    0.91
  10  -4  -5   16.63    0.94
 -10   4   4   35.38    1.33
  10  -4  -4   35.11    1.29
 -10  -4   4   31.96    1.33
 -10   4   3   66.36    2.04
  10   4  -3   62.36    1.77
  10  -4  -3   65.13    1.94
 -10  -4   3   64.23    2.05
  10   4  -2    9.52    0.64
 -10   4   2    7.01    0.69
 -10  -4   2   10.06    0.80
  10  -4  -2    9.48    0.77
 -10   4   1   13.49    0.97
  10   4  -1   11.83    0.73
 -10  -4   1   11.67    0.95
  10  -4  -1   11.83    0.89
  10   4   0   43.23    1.41
 -10   4   0   41.07    1.50
  10  -4   0   44.51    1.59
 -10  -4   0   43.49    1.60
  10   4   1   34.66    1.29
 -10  -4  -1   34.11    1.43
  10  -4   1   33.61    1.47
  10   4   2    2.90    0.53
 -10  -4  -2    2.23    0.57
  10  -4   2    2.30    0.54
  10   4   3   27.96    1.25
 -10  -4  -3   27.75    1.36
  10  -4   3   32.93    1.35
  10   4   4   17.88    1.07
 -10  -4  -4   16.25    1.17
  10  -4   4   15.31    1.06
  10   4   5    1.92    0.59
 -10  -4  -5    1.45    0.65
  10  -4   5   -0.03    0.57
  10  -4   6   -0.30    0.54
 -10   5   7    2.36    0.56
  10  -5  -7    2.30    0.61
 -10  -5   7    1.08    0.45
 -10   5   6   17.21    1.06
  10  -5  -6   19.18    1.08
 -10  -5   6   16.13    0.97
 -10   5   5    2.79    0.54
 -10  -5   5    2.36    0.50
  10  -5  -5    1.97    0.55
 -10   5   4    3.01    0.55
 -10  -5   4    2.57    0.52
  10  -5  -4    2.04    0.52
 -10  -5   3    4.87    0.60
  10  -5  -3    4.17    0.59
 -10  -5   2    1.80    0.49
  10  -5  -2    1.38    0.48
  10  -5  -1    0.94    0.49
 -10  -5   1    1.01    0.48
 -10  -5   0   13.91    0.95
  10  -5   0   13.98    1.01
 -10  -5  -1   11.20    0.94
  10  -5   1    9.51    0.89
  10   5   2    4.68    0.66
  10  -5   2    4.70    0.68
 -10  -5  -2    5.24    0.73
  10   5   3   14.42    0.98
  10  -5   3   14.41    1.01
 -10  -5  -3   14.37    1.10
  10   5   4   18.20    1.18
 -10  -5  -4   19.82    1.25
  10  -5   4   17.65    1.11
  10  -6  -4    6.24    0.72
 -10  -6   3    7.74    0.66
  10  -6  -3    6.75    0.73
 -10  -6   2   13.44    0.94
  10  -6  -2   13.54    1.03
  10  -6  -1    0.46    0.52
 -10  -6   1   -0.23    0.45
  10  -6   0   52.21    1.89
 -10  -6   0   54.43    1.82
 -11   0  11    0.04    0.49
  11   0 -10    1.20    0.86
 -11   0  10    0.75    0.50
  11   0  -9    0.12    0.42
 -11   0   9   -0.33    0.42
  11   0  -8   59.55    1.87
 -11   0   8   58.56    1.86
  11   0  -7    0.32    0.41
 -11   0   7    0.28    0.39
  11   0  -6   15.85    0.92
 -11   0   6   14.25    0.89
  11   0  -5    0.60    0.43
 -11   0   5   -0.07    0.35
  11   0  -4   -0.18    0.44
 -11   0   4    0.17    0.37
  11   0  -3   -0.07    0.44
 -11   0   3   -0.34    0.45
 -11   0   2   40.19    1.57
  11   0  -2   36.30    1.39
 -11   0   1    0.60    0.36
  11   0  -1    0.39    0.40
 -11   0   0   22.91    1.07
  11   0   0   22.56    1.04
  11   0   1   -0.30    0.43
 -11   0  -1   -0.04    0.42
  11   0   2   50.72    1.77
 -11   0  -2   50.19    1.80
 -11   0  -3   -0.45    0.48
  11   0   3   -0.82    0.51
 -11   0  -4  167.36    4.46
  11   0   4  169.22    4.63
  11   0   5   -0.54    0.60
 -11   0  -5   -0.25    0.47
  11   0   6    0.66    0.67
 -11   0  -6    1.17    0.53
 -11   0  -7   -0.11    0.51
  11   0   7   -0.40    0.68
 -11   1  10    9.11    0.81
  11  -1 -10    8.71    0.76
 -11  -1  10    9.42    0.80
 -11   1   9    1.17    0.50
 -11  -1   9    1.69    0.49
  11  -1  -9    2.55    0.54
  11   1  -8   30.62    1.31
 -11   1   8   30.87    1.23
  11  -1  -8   30.40    1.24
 -11  -1   8   28.56    1.23
 -11   1   7    1.57    0.46
  11   1  -7    1.65    0.51
  11  -1  -7    1.73    0.49
 -11  -1   7    1.41    0.47
 -11   1   6   77.29    2.22
  11   1  -6   75.93    2.37
 -11  -1   6   77.02    2.32
  11  -1  -6   77.91    2.23
  11   1  -5    2.25    0.55
 -11   1   5    2.83    0.50
  11  -1  -5    3.44    0.51
 -11  -1   5    2.08    0.50
 -11   1   4   20.23    1.05
  11   1  -4   22.06    1.07
 -11  -1   4   19.82    1.16
  11  -1  -4   21.97    1.05
 -11   1   3   11.52    0.89
  11   1  -3   11.55    0.81
  11  -1  -3   11.10    0.78
 -11  -1   3    7.85    0.76
  11   1  -2  269.04    6.46
 -11   1   2  267.25    6.68
 -11  -1   2  263.60    6.52
  11  -1  -2  263.03    6.56
  11   1  -1   10.86    0.84
 -11   1   1   12.10    0.87
 -11  -1   1   13.51    0.86
  11  -1  -1   13.27    0.93
 -11   1   0   15.01    0.89
  11   1   0   14.86    0.95
  11  -1   0   16.19    0.96
 -11  -1   0   15.46    0.95
  11   1   1    0.45    0.48
 -11   1  -1    0.51    0.41
  11  -1   1    0.50    0.39
 -11  -1  -1    0.04    0.43
 -11   1  -2   20.54    1.08
  11   1   2   18.79    1.17
  11  -1   2   19.96    1.11
 -11  -1  -2   17.58    1.19
  11   1   3   20.15    1.26
 -11   1  -3   21.75    1.16
  11  -1   3   23.62    1.23
 -11  -1  -3   17.37    1.14
 -11   1  -4    4.10    0.60
  11   1   4    2.37    0.69
 -11  -1  -4    3.93    0.69
  11  -1   4    3.22    0.68
 -11   1  -5    5.20    0.65
  11   1   5    6.16    0.86
 -11  -1  -5    5.38    0.73
  11  -1   5    4.68    0.83
 -11   1  -6   10.75    1.18
  11   1   6   11.18    1.04
 -11  -1  -6   12.36    1.06
  11  -1   6   12.19    1.14
  11   1   7    0.01    0.70
  11  -1   7    0.35    0.70
 -11  -1  -7   -0.26    0.57
 -11   2  10   -0.26    0.50
  11  -2 -10    0.45    0.52
 -11  -2  10    1.05    0.51
 -11   2   9    3.25    0.61
 -11  -2   9    3.79    0.61
  11  -2  -9    3.58    0.59
 -11   2   8   25.06    1.15
 -11  -2   8   21.82    1.18
  11  -2  -8   22.44    1.11
  11   2  -7   10.62    0.83
 -11   2   7   11.49    0.85
 -11  -2   7   10.88    0.90
  11  -2  -7   10.03    0.83
  11   2  -6    2.68    0.50
 -11   2   6    2.81    0.52
  11  -2  -6    3.12    0.52
 -11  -2   6    2.47    0.59
  11   2  -5    1.66    0.44
 -11   2   5    1.88    0.45
  11  -2  -5    2.18    0.49
 -11  -2   5    1.36    0.55
  11   2  -4   13.06    0.83
 -11   2   4   12.56    0.82
  11  -2  -4   11.90    0.84
 -11  -2   4   11.03    0.90
 -11   2   3   35.33    1.43
  11   2  -3   37.76    1.35
  11  -2  -3   37.54    1.38
 -11  -2   3   36.48    1.41
  11   2  -2   20.69    1.00
 -11   2   2   19.93    1.14
  11  -2  -2   16.25    0.94
 -11  -2   2   20.35    1.00
 -11   2   1   68.41    2.27
  11   2  -1   71.23    2.14
  11  -2  -1   69.75    2.22
 -11  -2   1   72.07    2.18
  11   2   0   53.83    1.82
 -11   2   0   57.48    1.82
  11  -2   0   51.75    1.84
 -11  -2   0   54.87    1.90
 -11   2  -1    6.78    0.63
  11   2   1    5.98    0.71
  11  -2   1    4.98    0.60
 -11  -2  -1    4.03    0.70
 -11   2  -2   31.58    1.28
  11   2   2   28.14    1.35
 -11  -2  -2   28.36    1.52
  11  -2   2   33.45    1.35
  11   2   3    2.81    0.60
 -11   2  -3    3.01    0.55
 -11  -2  -3    3.61    0.74
  11  -2   3    5.73    0.73
  11   2   4  103.28    2.99
 -11   2  -4  102.45    2.83
  11  -2   4   98.51    3.02
 -11  -2  -4   99.24    3.05
  11   2   5    1.79    0.68
 -11  -2  -5    2.91    0.70
  11  -2   5    0.17    0.63
  11   2   6    0.40    0.70
 -11  -2  -6    0.09    0.63
  11  -2   6   -0.60    0.64
  11   2   7    5.86    0.92
 -11  -2  -7    6.26    0.87
  11  -2   7    6.14    0.90
 -11   3   9    0.68    0.53
 -11  -3   9    0.02    0.49
  11  -3  -9    0.47    0.51
 -11   3   8    3.13    0.60
  11  -3  -8    2.22    0.58
 -11  -3   8    1.73    0.58
 -11   3   7   12.19    0.90
  11  -3  -7   12.60    0.93
 -11  -3   7    9.65    0.93
 -11   3   6   32.12    1.28
  11  -3  -6   30.31    1.28
 -11  -3   6   32.59    1.47
 -11   3   5    5.73    0.60
  11   3  -5    7.76    0.60
  11  -3  -5    8.04    0.67
 -11  -3   5    8.87    0.75
  11   3  -4    6.04    0.58
 -11   3   4    6.31    0.64
 -11  -3   4    6.64    0.64
  11  -3  -4    7.52    0.68
 -11   3   3   18.77    1.05
  11   3  -3   18.25    0.94
  11  -3  -3   18.75    1.00
 -11  -3   3   19.37    1.00
 -11   3   2   63.57    2.17
  11   3  -2   65.70    1.97
  11  -3  -2   67.20    2.05
 -11  -3   2   67.90    2.11
  11   3  -1    4.27    0.54
 -11   3   1    4.61    0.65
  11  -3  -1    5.57    0.66
 -11  -3   1    3.91    0.61
  11   3   0    8.46    0.73
 -11   3   0    6.91    0.65
 -11  -3   0    8.01    0.85
  11  -3   0    6.97    0.79
  11   3   1    9.82    0.85
 -11   3  -1    9.55    0.77
  11  -3   1   10.98    0.92
 -11  -3  -1    8.75    0.89
 -11   3  -2   63.88    1.94
  11   3   2   62.04    2.02
  11  -3   2   64.49    2.06
 -11  -3  -2   62.52    2.24
  11   3   3   56.29    1.92
 -11  -3  -3   51.17    2.01
  11  -3   3   57.93    1.91
  11   3   4    1.52    0.60
 -11  -3  -4    2.34    0.69
  11  -3   4    2.29    0.62
  11   3   5   10.04    0.94
 -11  -3  -5    8.52    0.88
  11  -3   5    9.12    0.92
  11   3   6   13.33    1.12
  11  -3   6   13.86    1.15
 -11  -3  -6   15.33    1.30
 -11   4   8    9.17    0.81
 -11  -4   8   10.45    0.87
  11  -4  -8   12.23    1.02
 -11   4   7   23.51    1.22
  11  -4  -7   27.08    1.27
 -11  -4   7   26.30    1.24
 -11   4   6    1.58    0.51
 -11  -4   6    2.25    0.51
  11  -4  -6    2.26    0.56
 -11   4   5    0.81    0.47
  11  -4  -5    1.13    0.50
 -11  -4   5    1.01    0.47
 -11   4   4   52.48    1.81
  11  -4  -4   54.53    1.77
 -11  -4   4   51.61    1.79
 -11   4   3   27.99    1.30
  11  -4  -3   27.84    1.22
 -11  -4   3   26.25    1.28
 -11   4   2    2.35    0.57
  11   4  -2    1.89    0.43
  11  -4  -2    2.02    0.52
 -11  -4   2    1.93    0.55
 -11   4   1   30.01    1.39
  11   4  -1   27.74    1.14
 -11  -4   1   28.05    1.35
  11  -4  -1   31.14    1.35
 -11   4   0   32.35    1.31
  11   4   0   31.89    1.23
 -11  -4   0   32.20    1.47
  11  -4   0   31.02    1.45
  11   4   1    0.36    0.46
 -11  -4  -1    0.91    0.58
  11  -4   1    1.43    0.57
  11   4   2    0.33    0.49
  11  -4   2    0.19    0.49
 -11  -4  -2    0.04    0.52
  11   4   3   -0.12    0.53
  11  -4   3    0.08    0.51
 -11  -4  -3    0.34    0.55
  11   4   4    5.22    0.74
 -11  -4  -4    4.17    0.78
  11  -4   4    3.68    0.68
  11   4   5   -0.64    0.61
 -11  -4  -5   -0.53    0.64
  11  -4   5   -0.89    0.57
 -11   5   6    4.62    0.66
 -11  -5   6    3.99    0.61
  11  -5  -6    3.96    0.67
 -11   5   5    0.77    0.50
 -11  -5   5    0.77    0.49
  11  -5  -5    0.07    0.52
 -11  -5   4    1.00    0.50
  11  -5  -4    0.99    0.53
  11  -5  -3    0.93    0.51
 -11  -5   3    1.02    0.51
 -11  -5   2    0.80    0.51
  11  -5  -2    0.61    0.52
 -11  -5   1    1.45    0.58
  11  -5  -1    1.41    0.57
 -11  -5   0   19.61    1.16
  11  -5   0   18.31    1.21
  11  -5   1    3.09    0.69
 -11  -5  -1    3.52    0.69
 -11  -5  -2   36.32    1.60
  11  -5   2   33.83    1.47
  11  -5   3   21.72    1.22
 -11  -5  -3   22.28    1.37
 -12   0  10   13.71    1.01
  12   0  -9    0.11    0.46
 -12   0   9   -0.17    0.44
 -12   0   8    3.12    0.55
  12   0  -8    2.92    0.57
 -12   0   7   -0.69    0.39
  12   0  -7   -0.27    0.45
  12   0  -6    7.30    0.74
 -12   0   6    5.09    0.65
 -12   0   5   -0.06    0.45
  12   0  -5    0.16    0.46
  12   0  -4   33.86    1.42
 -12   0   4   35.73    1.52
 -12   0   3   -0.68    0.40
  12   0  -3   -0.35    0.40
  12   0  -2   45.20    1.56
 -12   0   2   41.69    1.61
 -12   0   1    0.11    0.39
  12   0  -1    0.02    0.38
  12   0   0  280.82    6.86
 -12   0   0  283.58    6.88
  12   0   1   -0.23    0.46
 -12   0  -1   -0.36    0.43
  12   0   2    0.01    0.50
 -12   0  -2   -0.76    0.43
 -12   0  -3   -0.76    0.49
  12   0   3   -0.57    0.46
  12   0   4  118.82    3.57
 -12   0  -4  120.86    3.48
  12   0   5   -1.54    0.71
 -12   0  -5   -0.69    0.53
 -12   0  -6   25.89    1.42
  12   0   6   27.08    1.68
  12   0   7   -1.28    0.73
 -12   1  10   14.51    1.07
  12  -1 -10   15.29    1.07
 -12  -1  10   18.01    1.09
 -12   1   9   -0.33    0.47
  12  -1  -9    0.80    0.49
 -12  -1   9   -0.21    0.48
 -12   1   8    0.23    0.45
  12   1  -8    0.98    0.52
 -12  -1   8    0.47    0.47
  12  -1  -8    1.22    0.52
 -12   1   7    1.50    0.45
  12   1  -7    2.73    0.60
  12  -1  -7    2.04    0.53
 -12  -1   7    1.70    0.58
 -12   1   6  104.79    2.90
  12   1  -6  103.52    3.04
  12  -1  -6  102.97    2.88
 -12  -1   6  101.49    2.98
  12   1  -5   -0.28    0.45
 -12   1   5    0.24    0.41
  12  -1  -5    0.51    0.48
 -12  -1   5   -0.14    0.46
 -12   1   4   12.69    0.91
  12   1  -4   12.38    0.89
 -12  -1   4   12.84    1.06
  12  -1  -4   13.38    0.88
 -12   1   3    0.53    0.52
  12   1  -3    0.73    0.45
 -12  -1   3    1.02    0.47
  12  -1  -3    0.45    0.45
 -12   1   2   54.69    1.99
  12   1  -2   53.71    1.75
  12  -1  -2   52.90    1.86
 -12  -1   2   52.04    1.76
 -12   1   1    5.93    0.67
  12   1  -1    3.17    0.51
  12  -1  -1    3.90    0.60
 -12  -1   1    3.44    0.52
  12   1   0    3.30    0.58
 -12   1   0    3.97    0.54
 -12  -1   0    3.89    0.56
  12  -1   0    4.13    0.57
  12   1   1    6.93    0.73
 -12   1  -1    7.43    0.70
 -12  -1  -1    6.95    0.75
  12  -1   1    9.40    0.79
  12   1   2    0.20    0.53
 -12   1  -2    1.17    0.48
  12  -1   2    1.08    0.53
 -12  -1  -2    0.71    0.57
  12   1   3    1.77    0.72
 -12   1  -3    1.67    0.54
 -12  -1  -3    0.50    0.56
  12  -1   3    1.32    0.57
  12   1   4   19.49    1.42
 -12   1  -4   19.21    1.15
 -12  -1  -4   19.25    1.33
  12  -1   4   18.09    1.28
  12   1   5    2.65    0.83
 -12   1  -5    1.73    0.57
 -12  -1  -5    1.04    0.64
  12  -1   5    0.74    0.71
  12   1   6   33.07    1.78
 -12  -1  -6   33.59    1.62
  12  -1   6   31.96    1.87
 -12   2  10    1.26    0.58
 -12  -2  10    2.51    0.63
  12  -2 -10    1.53    0.60
 -12   2   9    0.11    0.52
 -12  -2   9    0.33    0.52
  12  -2  -9   -0.24    0.50
 -12   2   8   14.47    1.01
 -12  -2   8   14.62    1.07
  12  -2  -8   16.42    1.03
  12   2  -7    6.02    0.72
 -12   2   7    4.62    0.59
 -12  -2   7    4.72    0.71
  12  -2  -7    5.49    0.67
 -12   2   6    0.48    0.45
  12   2  -6    0.54    0.43
  12  -2  -6   -0.62    0.44
 -12  -2   6   -0.55    0.50
  12   2  -5   20.28    1.01
 -12   2   5   20.99    1.10
  12  -2  -5   21.19    1.09
 -12  -2   5   21.30    1.25
  12   2  -4   31.12    1.27
 -12   2   4   30.56    1.30
 -12  -2   4   29.09    1.32
  12  -2  -4   31.00    1.30
  12   2  -3    1.73    0.46
 -12   2   3    1.86    0.57
 -12  -2   3    2.50    0.51
  12  -2  -3    2.43    0.56
 -12   2   2    4.31    0.69
  12   2  -2    6.00    0.65
  12  -2  -2    4.59    0.67
 -12  -2   2    5.12    0.60
 -12   2   1    1.49    0.48
  12   2  -1    0.81    0.47
  12  -2  -1    0.90    0.58
 -12  -2   1    2.31    0.53
  12   2   0  114.16    3.21
 -12   2   0  119.22    3.18
  12  -2   0  112.58    3.24
 -12  -2   0  118.34    3.29
  12   2   1   16.83    1.11
 -12   2  -1   14.33    0.91
 -12  -2  -1   16.33    1.17
  12  -2   1   17.69    1.03
  12   2   2    0.05    0.56
 -12   2  -2   -0.16    0.42
  12  -2   2    0.29    0.50
 -12  -2  -2   -0.10    0.66
  12   2   3   19.08    1.27
 -12   2  -3   15.24    1.02
  12  -2   3   18.42    1.16
 -12  -2  -3   15.11    1.32
  12   2   4   63.83    2.23
 -12   2  -4   61.97    2.14
  12  -2   4   66.58    2.24
 -12  -2  -4   61.54    2.33
  12   2   5   21.37    1.45
 -12  -2  -5   18.49    1.42
  12  -2   5   19.26    1.40
  12   2   6    0.72    0.75
  12  -2   6   -0.17    0.75
 -12  -2  -6    1.10    0.74
 -12   3   9    2.61    0.63
 -12  -3   9    1.63    0.64
  12  -3  -9    2.92    0.67
 -12   3   8    3.00    0.62
  12  -3  -8    3.36    0.65
 -12  -3   8    2.34    0.70
 -12   3   7    2.81    0.60
  12  -3  -7    2.62    0.60
 -12  -3   7    2.64    0.66
 -12   3   6   24.44    1.21
  12  -3  -6   25.52    1.23
 -12  -3   6   26.40    1.31
 -12   3   5    0.28    0.46
  12   3  -5   -0.03    0.43
 -12  -3   5    0.22    0.44
  12  -3  -5    0.57    0.45
 -12   3   4   -0.10    0.45
  12   3  -4   -0.39    0.38
  12  -3  -4   -0.03    0.46
 -12  -3   4   -0.10    0.39
 -12   3   3    8.82    0.82
  12   3  -3   10.45    0.83
  12  -3  -3    9.02    0.77
 -12  -3   3   11.05    0.85
 -12   3   2   31.10    1.51
  12   3  -2   29.41    1.28
 -12  -3   2   31.69    1.35
  12  -3  -2   31.72    1.38
  12   3  -1   58.61    1.90
 -12   3   1   56.82    1.99
  12  -3  -1   58.52    2.05
 -12  -3   1   60.55    2.01
  12   3   0    0.26    0.51
 -12   3   0   -0.16    0.39
  12  -3   0    0.50    0.54
 -12  -3   0    0.14    0.53
  12   3   1   21.63    1.25
 -12   3  -1   23.37    1.09
  12  -3   1   24.05    1.25
 -12  -3  -1   21.57    1.43
  12   3   2   40.01    1.61
 -12   3  -2   40.13    1.46
  12  -3   2   41.24    1.60
 -12  -3  -2   35.94    1.73
  12   3   3   13.67    1.11
 -12  -3  -3   10.64    1.06
  12  -3   3   16.36    1.11
  12   3   4   -0.54    0.61
  12  -3   4   -0.87    0.52
 -12  -3  -4   -0.31    0.63
  12   3   5   20.11    1.39
 -12  -3  -5   19.62    1.46
  12  -3   5   17.88    1.31
 -12   4   7   11.71    0.93
  12  -4  -7   11.06    0.91
 -12  -4   7    9.92    0.84
 -12   4   6    4.00    0.65
 -12  -4   6    3.19    0.58
  12  -4  -6    4.93    0.69
 -12   4   5   24.02    1.26
 -12  -4   5   21.85    1.15
  12  -4  -5   24.97    1.24
 -12   4   4   22.61    1.23
  12  -4  -4   21.93    1.16
 -12  -4   4   22.52    1.19
 -12   4   3    0.15    0.48
  12  -4  -3    0.16    0.52
 -12  -4   3   -0.21    0.48
  12   4  -2    1.37    0.54
 -12   4   2    1.20    0.55
 -12  -4   2    1.27    0.56
  12  -4  -2    1.77    0.56
  12   4  -1    1.88    0.51
 -12   4   1    1.59    0.49
 -12  -4   1    0.57    0.57
  12  -4  -1    2.08    0.61
  12   4   0   12.71    0.93
 -12  -4   0   10.47    0.98
  12  -4   0    9.22    0.93
  12   4   1    1.25    0.55
 -12  -4  -1    2.48    0.72
  12  -4   1    2.83    0.63
  12   4   2    0.23    0.54
  12  -4   2    0.76    0.54
 -12  -4  -2   -0.56    0.58
  12   4   3   11.96    0.97
  12  -4   3    9.37    0.87
 -12  -4  -3   11.12    1.09
  12   4   4   19.19    1.29
  12  -4   4   19.89    1.21
 -12  -4  -4   18.71    1.44
 -12  -5   5    0.35    0.52
  12  -5  -5    1.16    0.60
  12  -5  -4    7.28    0.78
 -12  -5   4    8.26    0.81
 -12  -5   3    1.01    0.57
  12  -5  -3    0.65    0.54
  12  -5  -2   19.14    1.23
 -12  -5   2   19.75    1.22
 -12  -5   1   29.16    1.48
  12  -5  -1   28.82    1.48
 -12  -5   0    2.52    0.66
  12  -5   0    1.84    0.69
  12  -5   1    5.97    0.81
 -12  -5  -1    5.10    0.79
  12  -5   2   48.61    1.83
 -13   0  10    0.08    0.53
  13   0  -9    0.92    0.51
 -13   0   9    0.27    0.52
 -13   0   8    3.42    0.64
  13   0  -8    3.24    0.62
 -13   0   7   -0.49    0.45
  13   0  -7    0.61    0.50
 -13   0   6   10.66    0.93
  13   0  -6    8.44    0.84
  13   0  -5    0.22    0.54
 -13   0   5   -0.46    0.50
  13   0  -4  141.07    3.90
 -13   0   4  143.95    4.05
 -13   0   3   -0.37    0.48
  13   0  -3    0.06    0.50
 -13   0   2   10.04    0.81
  13   0  -2    8.03    0.74
  13   0  -1    0.23    0.43
 -13   0   1    0.45    0.41
  13   0   0  176.71    4.50
 -13   0   0  171.45    4.48
  13   0   1   -0.22    0.48
 -13   0  -1   -0.01    0.43
  13   0   2   34.22    1.54
 -13   0  -2   38.55    1.54
 -13   0  -3   -0.97    0.51
  13   0   3   -0.25    0.56
 -13   0  -4   15.51    1.16
  13   0   4   11.43    1.04
 -13   0  -5   -0.69    0.58
  13   0   5   -2.06    0.69
  13   0   6   -0.69    0.82
 -13   0  -6    1.13    0.68
 -13   1   9    0.07    0.53
 -13  -1   9    0.27    0.54
  13  -1  -9    1.22    0.56
  13   1  -8   11.94    0.98
 -13   1   8   11.26    0.97
 -13  -1   8   12.29    1.05
  13  -1  -8   11.96    0.99
 -13   1   7    2.06    0.52
  13   1  -7    2.59    0.65
 -13  -1   7    2.49    0.62
  13  -1  -7    2.85    0.60
 -13   1   6   29.25    1.36
  13   1  -6   27.21    1.37
  13  -1  -6   30.18    1.36
 -13  -1   6   29.58    1.47
 -13   1   5   12.44    1.02
  13   1  -5   11.12    0.93
 -13  -1   5   12.37    1.08
  13  -1  -5   12.27    1.00
 -13   1   4   28.06    1.43
  13   1  -4   29.42    1.28
 -13  -1   4   26.60    1.43
  13  -1  -4   27.78    1.31
  13   1  -3    5.01    0.63
 -13   1   3    4.79    0.77
  13  -1  -3    2.98    0.68
 -13  -1   3    4.06    0.63
  13   1  -2    1.43    0.50
 -13   1   2    0.47    0.50
 -13  -1   2    1.16    0.45
  13  -1  -2    1.15    0.51
 -13   1   1    5.99    0.69
  13   1  -1    6.25    0.67
  13  -1  -1    5.47    0.69
 -13  -1   1    5.07    0.62
 -13   1   0    0.63    0.40
  13   1   0    0.55    0.49
 -13  -1   0    1.06    0.49
  13  -1   0    0.85    0.49
 -13   1  -1    3.26    0.55
  13   1   1    2.86    0.60
 -13  -1  -1    2.01    0.53
  13  -1   1    2.95    0.54
 -13   1  -2   43.19    1.59
  13   1   2   40.43    1.64
 -13  -1  -2   41.03    1.73
  13  -1   2   40.98    1.63
  13   1   3    0.19    0.63
 -13   1  -3    1.29    0.55
  13  -1   3    1.63    0.61
 -13  -1  -3    1.53    0.67
  13   1   4    6.68    1.00
 -13   1  -4    5.92    0.79
  13  -1   4    6.64    0.86
 -13  -1  -4    5.39    0.86
  13   1   5   -0.32    0.80
 -13   1  -5    0.03    0.92
 -13  -1  -5    0.71    0.73
  13  -1   5   -0.42    0.68
  13   1   6   59.00    2.49
 -13  -1  -6   58.99    2.33
  13  -1   6   58.71    2.42
 -13   2   9   11.94    1.03
  13  -2  -9   10.66    0.90
 -13  -2   9   10.78    0.98
 -13   2   8   10.73    0.88
  13  -2  -8   11.06    0.91
 -13  -2   8    9.07    0.96
 -13   2   7   -0.01    0.49
  13  -2  -7   -0.15    0.50
 -13  -2   7   -0.30    0.56
  13   2  -6    0.38    0.46
 -13   2   6    0.03    0.49
  13  -2  -6    0.79    0.54
 -13  -2   6    0.84    0.60
 -13   2   5    4.26    0.67
  13   2  -5    4.11    0.58
  13  -2  -5    4.97    0.67
 -13  -2   5    4.56    0.72
 -13   2   4   58.18    2.04
  13   2  -4   57.30    1.85
 -13  -2   4   56.01    1.93
  13  -2  -4   55.69    1.96
  13   2  -3   11.18    0.85
 -13   2   3   11.08    1.01
  13  -2  -3    9.42    0.89
 -13  -2   3    9.94    0.80
  13   2  -2   -0.04    0.43
 -13   2   2    0.47    0.53
 -13  -2   2    0.43    0.44
  13  -2  -2   -0.12    0.52
  13   2  -1   20.10    1.10
 -13   2   1   17.07    1.05
 -13  -2   1   19.50    1.09
  13  -2  -1   19.12    1.21
 -13   2   0  105.66    2.97
  13   2   0  105.38    3.03
 -13  -2   0  110.74    3.09
  13  -2   0  104.88    3.05
  13   2   1    4.56    0.73
 -13   2  -1    3.76    0.56
  13  -2   1    3.51    0.59
 -13  -2  -1    3.99    0.74
 -13   2  -2   14.97    0.99
  13   2   2   13.27    1.07
  13  -2   2   17.43    1.09
 -13  -2  -2   13.46    1.13
 -13   2  -3   -0.45    0.45
  13   2   3   -0.73    0.64
 -13  -2  -3   -0.38    0.66
  13  -2   3    0.26    0.55
  13   2   4   21.44    1.50
  13  -2   4   24.87    1.38
 -13  -2  -4   21.38    1.57
  13   2   5   11.83    1.20
  13  -2   5   13.25    1.12
 -13  -2  -5   10.53    1.12
 -13   3   8    2.03    0.59
 -13  -3   8    1.95    0.69
  13  -3  -8    1.84    0.62
 -13   3   7    5.32    0.74
 -13  -3   7    5.35    0.78
  13  -3  -7    5.11    0.69
 -13   3   6   22.17    1.21
 -13  -3   6   20.67    1.23
  13  -3  -6   21.99    1.22
 -13   3   5   32.79    1.45
  13  -3  -5   30.74    1.38
 -13  -3   5   28.37    1.35
 -13   3   4    6.81    0.81
  13   3  -4    5.41    0.62
  13  -3  -4    7.45    0.80
 -13  -3   4    4.83    0.62
 -13   3   3   19.47    1.26
  13   3  -3   18.02    1.01
  13  -3  -3   20.58    1.21
 -13  -3   3   19.47    1.11
 -13   3   2   25.03    1.38
  13   3  -2   22.39    1.19
 -13  -3   2   24.21    1.23
  13  -3  -2   24.49    1.34
 -13   3   1   16.14    1.06
  13   3  -1   13.34    1.05
  13  -3  -1   15.94    1.21
 -13  -3   1   16.54    1.11
  13   3   0    1.24    0.56
 -13   3   0    1.53    0.48
  13  -3   0    1.97    0.59
 -13  -3   0    1.80    0.65
 -13   3  -1   32.00    1.29
  13   3   1   29.84    1.47
  13  -3   1   32.14    1.43
 -13  -3  -1   30.90    1.62
  13   3   2   11.76    1.01
  13  -3   2   12.78    1.01
 -13  -3  -2    8.55    1.06
  13   3   3    6.10    0.85
 -13  -3  -3    5.23    0.98
  13  -3   3    6.13    0.78
  13   3   4    0.22    0.70
 -13  -3  -4   -0.18    0.79
  13  -3   4    0.49    0.62
 -13   4   7    0.58    0.54
  13  -4  -7    0.67    0.57
 -13  -4   7   -0.12    0.47
 -13   4   6    5.16    0.74
 -13  -4   6    3.96    0.62
  13  -4  -6    4.12    0.68
 -13   4   5    9.80    0.93
  13  -4  -5    7.30    0.79
 -13  -4   5    8.31    0.79
 -13   4   4    6.30    0.81
 -13  -4   4    6.78    0.76
  13  -4  -4    6.67    0.79
 -13   4   3    8.27    0.91
 -13  -4   3    8.13    0.80
  13  -4  -3    7.52    0.83
 -13   4   2    0.72    0.52
 -13  -4   2   -0.63    0.50
  13  -4  -2    1.14    0.63
  13   4  -1    2.08    0.57
 -13  -4   1    2.88    0.70
  13  -4  -1    1.92    0.68
  13   4   0   18.42    1.10
 -13  -4   0   17.32    1.30
  13  -4   0   19.91    1.30
  13   4   1    4.16    0.71
  13  -4   1    4.17    0.70
 -13  -4  -1    3.94    0.85
  13   4   2    0.27    0.59
 -13  -4  -2   -0.40    0.66
  13  -4   2    0.76    0.56
  13   4   3   -0.17    0.64
 -13  -4  -3    0.17    0.73
  13  -4   3    0.09    0.57
  13  -5  -3    1.08    0.63
 -13  -5   3    0.69    0.60
 -13  -5   2   43.87    1.86
  13  -5  -2   50.10    1.95
 -13  -5   1   13.46    1.11
  13  -5  -1   12.85    1.09
  13  -5   0   11.37    1.07
  14   0  -9    0.71    0.57
 -14   0   9    0.31    0.55
 -14   0   8   19.49    1.26
  14   0  -8   22.62    1.30
  14   0  -7    0.80    0.59
 -14   0   7   -0.21    0.54
  14   0  -6    0.37    0.60
 -14   0   6    0.23    0.58
 -14   0   5   -0.76    0.49
  14   0  -5    0.38    0.59
  14   0  -4  112.22    3.23
 -14   0   4  108.73    3.41
  14   0  -3    0.27    0.52
 -14   0   3    0.04    0.48
  14   0  -2   49.32    1.75
 -14   0   2   47.43    1.72
  14   0  -1   -0.33    0.46
 -14   0   1    0.19    0.42
  14   0   0    6.24    0.71
 -14   0   0    5.27    0.62
  14   0   1   -0.57    0.49
 -14   0  -1    0.10    0.48
 -14   0  -2   22.77    1.25
  14   0   2   23.46    1.31
 -14   0  -3   -0.19    0.56
  14   0   3   -0.37    0.61
  14   0   4    3.62    0.79
 -14   0  -4    3.49    0.76
  14   0   5   -1.69    0.71
 -14   0  -5   -1.25    0.59
 -14   1   9    1.09    0.57
  14  -1  -9    1.72    0.61
 -14  -1   9    1.48    0.62
 -14   1   8   16.35    1.16
  14  -1  -8   16.44    1.16
 -14  -1   8   16.41    1.23
 -14   1   7    0.94    0.61
  14   1  -7    0.82    0.57
  14  -1  -7   -0.19    0.53
 -14  -1   7    0.41    0.58
  14   1  -6    3.01    0.63
 -14   1   6    3.55    0.72
 -14  -1   6    3.80    0.79
  14  -1  -6    3.09    0.69
 -14   1   5    2.71    0.69
  14   1  -5    3.42    0.60
  14  -1  -5    3.17    0.70
 -14  -1   5    2.87    0.70
 -14   1   4    4.10    0.77
  14   1  -4    4.91    0.66
 -14  -1   4    6.41    0.81
  14  -1  -4    6.11    0.83
 -14   1   3   13.97    1.18
  14   1  -3   14.62    0.98
 -14  -1   3   12.88    0.99
  14  -1  -3   12.99    1.06
 -14   1   2    8.09    0.79
  14   1  -2   10.46    0.91
  14  -1  -2   12.23    0.97
 -14  -1   2   12.69    0.92
 -14   1   1    1.98    0.51
  14   1  -1    2.53    0.58
 -14  -1   1    3.03    0.58
  14  -1  -1    2.90    0.61
  14   1   0    0.85    0.53
 -14   1   0    0.35    0.41
 -14  -1   0    1.24    0.51
  14  -1   0    1.33    0.54
 -14   1  -1    0.31    0.46
  14   1   1    0.17    0.52
 -14  -1  -1   -0.47    0.48
  14  -1   1    0.17    0.51
  14   1   2  107.76    3.20
 -14   1  -2  111.88    3.11
  14  -1   2  110.47    3.15
 -14  -1  -2  105.32    3.22
  14   1   3    0.34    0.68
 -14   1  -3    0.16    0.50
  14  -1   3   -0.19    0.59
 -14  -1  -3   -0.28    0.58
 -14   1  -4   17.69    1.21
  14   1   4   17.12    1.43
  14  -1   4   19.45    1.35
 -14  -1  -4   19.09    1.43
  14   1   5    1.42    0.91
 -14  -1  -5    0.88    0.78
  14  -1   5    0.74    0.79
 -14   2   8   10.25    0.94
 -14  -2   8    8.63    1.01
  14  -2  -8   11.84    0.98
 -14   2   7    3.95    0.73
  14  -2  -7    2.79    0.64
 -14  -2   7    3.94    0.83
  14   2  -6    0.59    0.48
 -14   2   6    0.63    0.58
  14  -2  -6    0.19    0.55
 -14  -2   6    0.05    0.56
  14   2  -5    1.22    0.50
 -14   2   5    1.96    0.64
 -14  -2   5    1.38    0.56
  14  -2  -5    1.29    0.62
  14   2  -4   58.33    1.91
 -14   2   4   58.41    2.21
  14  -2  -4   59.95    2.13
 -14  -2   4   59.81    2.02
 -14   2   3   -0.49    0.52
  14   2  -3   -0.05    0.46
 -14  -2   3    0.59    0.46
  14  -2  -3    1.10    0.64
 -14   2   2   24.81    1.34
  14   2  -2   25.21    1.21
  14  -2  -2   23.69    1.41
 -14  -2   2   26.90    1.22
 -14   2   1    0.58    0.47
  14   2  -1    0.10    0.46
 -14  -2   1    0.67    0.53
  14  -2  -1    1.56    0.59
 -14   2   0   23.58    1.14
  14   2   0   21.46    1.24
 -14  -2   0   23.55    1.26
  14  -2   0   25.02    1.27
 -14   2  -1   41.11    1.52
  14   2   1   39.15    1.67
 -14  -2  -1   38.61    1.65
  14  -2   1   41.80    1.63
  14   2   2   14.46    1.14
 -14   2  -2   12.93    0.95
  14  -2   2   14.12    1.13
 -14  -2  -2   13.86    1.16
  14   2   3   10.56    1.03
  14  -2   3   14.82    1.17
 -14  -2  -3   10.11    1.11
  14   2   4    2.67    0.89
 -14  -2  -4    2.67    0.90
  14  -2   4    4.24    0.79
 -14   3   7    2.52    0.65
  14  -3  -7    2.53    0.68
 -14  -3   7    2.44    0.66
 -14   3   6   12.19    1.04
 -14  -3   6   10.01    0.91
  14  -3  -6   10.42    0.92
 -14   3   5    9.35    0.96
  14  -3  -5    8.22    0.86
 -14  -3   5    8.05    0.79
 -14   3   4   11.12    1.05
  14   3  -4    8.14    1.15
  14  -3  -4    7.26    0.83
 -14  -3   4    8.39    0.78
 -14   3   3   24.90    1.52
  14   3  -3   24.24    1.19
  14  -3  -3   25.26    1.42
 -14  -3   3   28.08    1.27
  14   3  -2   23.65    1.19
 -14   3   2   22.90    1.32
  14  -3  -2   21.80    1.42
 -14  -3   2   23.04    1.24
  14   3  -1    3.92    0.68
 -14   3   1    4.59    0.67
 -14  -3   1    3.59    0.67
  14  -3  -1    5.42    0.84
 -14   3   0    5.91    0.66
  14   3   0    5.89    0.77
  14  -3   0    6.43    0.81
 -14  -3   0    5.22    0.81
  14   3   1   -0.71    0.62
 -14  -3  -1   -0.62    0.65
  14  -3   1    1.02    0.55
  14   3   2   19.69    1.38
  14  -3   2   24.14    1.29
 -14  -3  -2   20.52    1.53
  14   3   3    0.74    0.77
  14  -3   3    0.91    0.64
 -14  -3  -3    0.68    0.80
 -14   4   5    0.87    0.61
  14  -4  -5    0.96    0.63
 -14  -4   5    0.16    0.52
 -14   4   4    3.38    0.71
  14  -4  -4    2.52    0.67
 -14  -4   4    2.08    0.64
 -14   4   3    1.68    0.65
 -14  -4   3    0.68    0.56
  14  -4  -3   -0.20    0.61
  14  -4  -2    0.00    0.64
 -14  -4   2   -0.20    0.54
  14  -4  -1    0.26    0.66
 -14  -4   1    0.90    0.63
  14   4   0   26.84    1.59
 -14  -4   0   29.45    1.56
  14  -4   0   28.56    1.50
  14   4   1   15.83    1.18
  14  -4   1   17.28    1.20
 -14  -4  -1   16.05    1.33
  15   0  -8   24.92    1.45
 -15   0   8   24.44    1.46
  15   0  -7    0.54    0.64
 -15   0   7   -0.01    0.61
 -15   0   6   35.27    1.81
  15   0  -6   42.08    1.81
  15   0  -5   -0.25    0.60
 -15   0   5   -0.32    0.63
 -15   0   4    9.64    1.02
  15   0  -4    6.30    0.78
 -15   0   3    0.39    0.51
  15   0  -3    0.30    0.56
  15   0  -2   40.23    1.59
 -15   0   2   39.73    1.58
  15   0  -1   -0.17    0.50
 -15   0   1   -0.13    0.41
  15   0   0   -0.28    0.46
 -15   0   0    0.33    0.49
  15   0   1   -0.29    0.54
 -15   0  -1   -0.38    0.48
  15   0   2    0.02    0.57
 -15   0  -2   -0.07    0.52
  15   0   3    0.15    0.62
 -15   0  -3   -0.44    0.54
 -15   0  -4    7.88    0.93
  15   0   4    8.15    0.99
 -15   1   8    2.85    0.71
 -15  -1   8    3.91    0.81
  15  -1  -8    3.81    0.76
  15   1  -7    3.19    0.69
 -15   1   7    3.23    0.75
 -15  -1   7    4.27    0.91
  15  -1  -7    4.38    0.78
 -15   1   6    5.95    0.87
  15   1  -6    3.44    0.68
 -15  -1   6    4.95    0.89
  15  -1  -6    4.52    0.78
  15   1  -5    1.76    0.59
 -15   1   5    1.67    0.73
 -15  -1   5    1.27    0.66
  15  -1  -5    1.65    0.62
 -15   1   4    0.69    0.67
  15   1  -4    0.80    0.51
 -15  -1   4    1.08    0.58
  15  -1  -4    1.12    0.66
 -15   1   3    0.80    0.58
  15   1  -3   -0.21    0.48
 -15  -1   3    0.28    0.48
  15  -1  -3   -0.44    0.57
  15   1  -2   73.58    2.29
 -15   1   2   74.78    2.40
  15  -1  -2   73.68    2.40
 -15  -1   2   73.06    2.29
  15   1  -1    6.20    0.74
 -15   1   1    4.65    0.64
  15  -1  -1    4.93    0.65
 -15  -1   1    5.47    0.65
  15   1   0   11.67    1.01
 -15   1   0   10.73    0.91
  15  -1   0   13.21    1.04
 -15  -1   0   11.75    0.93
  15   1   1    1.61    0.60
 -15   1  -1    0.44    0.50
  15  -1   1    0.57    0.53
 -15  -1  -1    0.36    0.49
  15   1   2   53.49    1.99
 -15   1  -2   49.86    1.85
  15  -1   2   53.42    1.94
 -15  -1  -2   50.74    1.97
  15   1   3    1.09    0.71
 -15   1  -3    0.76    0.58
 -15  -1  -3    1.38    0.69
  15  -1   3    1.32    0.65
  15   1   4   46.60    2.09
  15  -1   4   49.18    2.01
 -15  -1  -4   44.92    2.01
 -15   2   7   -0.17    0.61
  15  -2  -7    0.68    0.63
 -15  -2   7   -0.08    0.63
 -15   2   6   17.51    1.32
  15  -2  -6   17.49    1.27
 -15  -2   6   18.74    1.27
 -15   2   5    0.98    0.66
  15   2  -5   -0.23    0.48
  15  -2  -5    0.19    0.63
 -15  -2   5    0.22    0.52
  15   2  -4    6.74    0.72
 -15   2   4    6.31    0.94
 -15  -2   4    6.19    0.72
  15  -2  -4    5.74    0.79
 -15   2   3    8.50    0.96
  15   2  -3    8.44    0.80
 -15  -2   3    7.78    0.78
  15  -2  -3    8.05    0.98
  15   2  -2   28.21    1.33
 -15   2   2   29.05    1.42
 -15  -2   2   30.78    1.34
  15  -2  -2   28.65    1.53
  15   2  -1    4.86    0.66
 -15   2   1    5.41    0.67
 -15  -2   1    5.53    0.70
  15  -2  -1    6.63    0.83
 -15   2   0    0.45    0.46
  15   2   0    0.85    0.60
 -15  -2   0    0.19    0.55
  15  -2   0    0.93    0.57
  15   2   1    2.41    0.71
 -15   2  -1    2.77    0.58
 -15  -2  -1    2.33    0.70
  15  -2   1    2.86    0.67
  15   2   2    2.47    0.78
 -15   2  -2    2.58    0.61
 -15  -2  -2    2.28    0.74
  15  -2   2    3.52    0.74
  15   2   3   18.12    1.34
 -15  -2  -3   14.14    1.23
  15  -2   3   20.10    1.33
 -15   3   6    4.45    0.83
 -15  -3   6    3.19    0.66
  15  -3  -6    3.16    0.70
 -15   3   5    0.81    0.66
 -15  -3   5    0.29    0.50
  15  -3  -5    0.33    0.65
 -15   3   4    5.40    0.90
 -15  -3   4    5.19    0.67
  15  -3  -4    3.02    0.73
 -15   3   3    4.72    0.80
  15   3  -3    2.64    0.60
  15  -3  -3    3.17    0.82
 -15  -3   3    3.12    0.63
 -15   3   2    9.82    0.94
  15   3  -2    9.96    0.86
 -15  -3   2   11.07    0.93
  15  -3  -2    8.76    0.98
  15   3  -1    9.90    0.89
 -15   3   1   10.13    0.87
  15  -3  -1   11.03    1.03
 -15  -3   1    9.10    0.86
  15   3   0   13.32    1.05
  15  -3   0   16.07    1.20
 -15  -3   0   14.31    1.19
  15   3   1    1.10    0.73
 -15  -3  -1    0.99    0.71
  15  -3   1    0.92    0.61
  15   3   2   13.65    1.17
 -15  -3  -2   11.52    1.18
  15  -3   2   13.16    1.15
 -15  -4   3   18.12    1.24
  15  -4  -3   17.44    1.38
  15  -4  -2    5.89    0.91
 -15  -4   2    6.44    0.83
  15  -4  -1   10.26    1.07
 -15  -4   1   10.35    0.98
 -16   0   7    0.63    0.68
  16   0  -7    0.17    0.67
 -16   0   6   46.76    2.13
  16   0  -6   44.28    1.93
  16   0  -5   -0.61    0.55
 -16   0   5   -0.36    0.64
  16   0  -4    4.15    0.74
 -16   0   4    3.50    0.69
  16   0  -3   -0.04    0.55
 -16   0   3   -0.75    0.51
  16   0  -2   13.32    1.07
 -16   0   2   13.74    1.03
  16   0  -1   -0.27    0.52
 -16   0   1   -0.31    0.42
 -16   0   0    7.49    0.79
  16   0   0    7.76    0.83
 -16   0  -1   -0.01    0.47
  16   0   1   -0.39    0.55
  16   0   2    1.70    0.66
 -16   0  -2    1.93    0.66
 -16   1   7    1.55    0.72
  16   1  -7    1.20    0.74
 -16  -1   7    1.55    0.76
  16  -1  -7    1.04    0.67
  16   1  -6   14.73    1.13
 -16   1   6   15.59    1.31
 -16  -1   6   16.64    1.38
  16  -1  -6   13.97    1.21
 -16   1   5    2.37    0.76
  16   1  -5    2.02    0.61
 -16  -1   5    2.30    0.68
  16  -1  -5    1.94    0.75
  16   1  -4   11.33    0.93
 -16   1   4   10.61    1.11
  16  -1  -4   12.09    1.12
 -16  -1   4   10.50    0.97
 -16   1   3    1.34    0.58
  16   1  -3    1.09    0.57
 -16  -1   3    1.88    0.57
  16  -1  -3    1.54    0.64
  16   1  -2   30.18    1.39
 -16   1   2   28.60    1.41
  16  -1  -2   28.34    1.44
 -16  -1   2   29.47    1.35
 -16   1   1    2.91    0.60
  16   1  -1    2.59    0.65
  16  -1  -1    3.15    0.68
 -16  -1   1    4.17    0.66
  16   1   0   58.08    2.04
 -16   1   0   55.99    1.94
 -16  -1   0   57.02    1.99
  16  -1   0   57.09    2.02
  16   1   1   -0.95    0.53
 -16   1  -1   -0.09    0.50
 -16  -1  -1    0.11    0.55
  16  -1   1   -0.69    0.58
  16   1   2    3.39    0.78
 -16   1  -2    2.10    0.61
  16  -1   2    2.90    0.71
 -16  -1  -2    2.08    0.62
 -16   2   6   17.97    1.44
 -16  -2   6   19.41    1.29
  16  -2  -6   19.80    1.43
 -16   2   5    3.28    0.82
  16   2  -5    2.63    0.61
 -16  -2   5    2.32    0.65
  16  -2  -5    3.12    0.76
 -16   2   4    1.70    0.71
  16   2  -4   -0.10    0.52
  16  -2  -4    1.57    0.79
 -16  -2   4   -0.31    0.48
 -16   2   3    6.77    0.87
  16   2  -3    7.48    0.78
  16  -2  -3    7.14    0.95
 -16  -2   3    8.29    0.80
 -16   2   2   12.50    1.05
  16   2  -2    9.23    0.84
  16  -2  -2    8.68    0.92
 -16  -2   2   13.46    1.03
 -16   2   1    9.27    0.82
  16   2  -1    9.08    0.83
 -16  -2   1   10.46    0.89
  16  -2  -1   12.56    1.01
 -16   2   0    2.94    0.58
  16   2   0    3.48    0.72
  16  -2   0    3.46    0.70
 -16  -2   0    3.14    0.69
 -16   2  -1    3.70    0.63
  16   2   1    3.40    0.74
 -16  -2  -1    5.81    0.82
  16  -2   1    5.48    0.81
 -16   3   4    3.49    0.82
  16  -3  -4    3.14    0.84
 -16  -3   4    3.91    0.67
 -16   3   3    2.43    0.71
  16  -3  -3    0.96    0.72
 -16  -3   3    2.09    0.64
 -16   3   2   10.87    0.95
  16   3  -2   10.14    0.88
 -16  -3   2   10.82    0.91
  16  -3  -2    9.16    1.00
  16   3  -1   -0.08    0.60
 -16  -3   1    0.58    0.58
  16  -3  -1    0.49    0.61
  16   3   0    7.46    0.91
  16  -3   0    8.55    0.92
 -16  -3   0    8.76    0.92
  17   0  -6   10.78    1.04
 -17   0   6   10.04    1.16
  17   0  -5   -0.09    0.61
 -17   0   5    0.10    0.64
  17   0  -4   -0.08    0.60
 -17   0   4   -0.19    0.58
  17   0  -3    0.11    0.55
 -17   0   3    0.38    0.57
  17   0  -2   -0.09    0.59
 -17   0   2    0.14    0.48
  17   0  -1    0.15    0.58
 -17   0   1   -0.11    0.48
 -17   0   0   25.89    1.34
  17   0   0   27.07    1.41
 -17   0  -1   -0.14    0.52
  17   0   1   -0.55    0.58
  17   1  -6    6.12    0.81
 -17   1   6    4.81    0.99
 -17  -1   6    7.22    0.97
  17  -1  -6    6.41    0.98
  17   1  -5    0.29    0.56
 -17   1   5    1.79    0.74
 -17  -1   5    1.15    0.64
  17  -1  -5    1.17    0.67
  17   1  -4   24.56    1.35
 -17   1   4   25.99    1.52
  17  -1  -4   26.33    1.53
 -17  -1   4   24.41    1.38
  17   1  -3   -0.19    0.50
 -17   1   3   -0.07    0.56
 -17  -1   3    0.09    0.52
  17  -1  -3   -0.15    0.62
  17   1  -2   -0.02    0.53
 -17   1   2    0.31    0.53
 -17  -1   2    0.43    0.53
  17  -1  -2   -0.47    0.56
  17   1  -1    2.25    0.65
 -17   1   1    1.72    0.56
 -17  -1   1    1.74    0.54
  17  -1  -1    2.00    0.65
 -17   1   0   37.88    1.58
  17   1   0   38.38    1.65
  17  -1   0   41.22    1.68
 -17  -1   0   39.58    1.62
  17   2  -4   -0.02    0.54
 -17   2   4    0.32    0.66
 -17  -2   4    0.24    0.52
  17  -2  -4    1.17    0.81
 -17   2   3    4.96    0.77
  17   2  -3    4.40    0.70
 -17  -2   3    4.40    0.67
  17  -2  -3    6.17    0.95
 -17   2   2    7.55    0.82
  17   2  -2    8.96    0.87
  17  -2  -2    9.03    0.98
 -17  -2   2    9.24    0.89
  17   2  -1    2.48    0.66
 -17   2   1    2.48    0.62
 -17  -2   1    2.51    0.64
  17  -2  -1    2.96    0.72
   0   0   0    0.00    0.00
;
_shelx_hkl_checksum              14834
loop_
_space_group_symop_operation_xyz
'x, y, z'
'-x, y+1/2, -z+1/2'
'-x, -y, -z'
'x, -y-1/2, z-1/2'
loop_
_atom_site_label
_atom_site_type_symbol
_atom_site_fract_x
_atom_site_fract_y
_atom_site_fract_z
_atom_site_U_iso_or_equiv
_atom_site_adp_type
_atom_site_occupancy
_atom_site_site_symmetry_order
_atom_site_calc_flag
_atom_site_refinement_flags_posn
_atom_site_refinement_flags_adp
_atom_site_refinement_flags_occupancy
Br1 Br 0.70100(2) 0.17121(4) -0.06426(3) 0.03435(8) Uani 1 1 d . . .
Br2 Br 0.54101(2) -0.23326(4) -0.12636(2) 0.02672(7) Uani 1 1 d . . .
C1 C 0.94248(16) -0.0343(4) 0.4274(2) 0.0263(4) Uani 1 1 d . . .
C2 C 0.9484(3) 0.0991(9) 0.5779(5) 0.0332(10) Uani 0.5 1 d . . P
H2A H 0.9314 0.2671 0.5708 0.040 Uiso 0.5 1 d R U P
H2B H 0.9205 0.0156 0.6522 0.040 Uiso 0.5 1 d R U P
C3 C 1.0128(4) -0.2223(8) 0.5296(5) 0.0343(11) Uani 0.5 1 d . . P
H3A H 0.9840 -0.3034 0.6038 0.041 Uiso 0.5 1 d R U P
H3B H 1.0523 -0.3258 0.4799 0.041 Uiso 0.5 1 d R U P
C4 C 1.0341(4) 0.0877(10) 0.4123(5) 0.0382(12) Uani 0.5 1 d . . P
H4A H 1.0262 0.2551 0.3863 0.046 Uiso 0.5 1 d R U P
H4B H 1.0750 0.0037 0.3545 0.046 Uiso 0.5 1 d R U P
C5 C 0.85416(16) -0.0894(4) 0.3178(2) 0.0270(4) Uani 1 1 d . . .
C6 C 0.78313(16) -0.1398(4) 0.2247(2) 0.0263(4) Uani 1 1 d . . .
C7 C 0.69821(16) -0.2193(4) 0.1213(2) 0.0239(4) Uani 1 1 d . . .
H7 H 0.6698 -0.3628 0.1420 0.029 Uiso 1 1 calc R U .
C8 C 0.65498(15) -0.1105(3) -0.0016(2) 0.0215(4) Uani 1 1 d . . .
loop_
_atom_site_aniso_label
_atom_site_aniso_U_11
_atom_site_aniso_U_22
_atom_site_aniso_U_33
_atom_site_aniso_U_23
_atom_site_aniso_U_13
_atom_site_aniso_U_12
Br1 0.03475(14) 0.02481(12) 0.03960(13) 0.00322(9) -0.00004(10) -0.00741(9)
Br2 0.02292(11) 0.03038(12) 0.02374(11) -0.00209(8) -0.00146(8) -0.00485(8)
C1 0.0235(11) 0.0321(11) 0.0208(9) -0.0030(8) -0.0007(8) 0.0003(9)
C2 0.027(2) 0.039(3) 0.031(2) -0.011(2) 0.0012(19) 0.002(2)
C3 0.031(3) 0.029(2) 0.036(2) -0.0020(19) -0.006(2) 0.001(2)
C4 0.038(3) 0.056(4) 0.0168(19) 0.006(2) -0.0019(19) -0.016(3)
C5 0.0251(11) 0.0326(11) 0.0224(9) -0.0036(8) 0.0033(9) 0.0012(9)
C6 0.0265(11) 0.0287(11) 0.0236(10) -0.0018(8) 0.0052(9) 0.0021(9)
C7 0.0228(11) 0.0271(10) 0.0227(9) -0.0038(8) 0.0066(8) -0.0027(8)
C8 0.0188(10) 0.0227(10) 0.0225(9) -0.0045(8) 0.0039(8) -0.0020(8)
loop_
_atom_type_symbol
_atom_type_description
_atom_type_scat_dispersion_real
_atom_type_scat_dispersion_imag
_atom_type_scat_source
C C 0.0033 0.0016 'International Tables Vol C Tables 4.2.6.8 and 6.1.1.4'
H H 0.0000 0.0000 'International Tables Vol C Tables 4.2.6.8 and 6.1.1.4'
Br Br -0.2901 2.4595 'International Tables Vol C Tables 4.2.6.8 and 6.1.1.4'
loop_
_geom_angle_atom_site_label_1
_geom_angle_atom_site_label_2
_geom_angle_atom_site_label_3
_geom_angle
_geom_angle_site_symmetry_1
_geom_angle_site_symmetry_3
C5 C1 C4 129.9(2) . .
C5 C1 C4 128.9(3) . 3_756
C4 C1 C4 101.2(3) . 3_756
C5 C1 C2 126.4(2) . 3_756
C4 C1 C2 42.1(3) . 3_756
C4 C1 C2 89.3(3) 3_756 3_756
C5 C1 C2 127.1(3) . .
C4 C1 C2 88.9(3) . .
C4 C1 C2 41.6(3) 3_756 .
C2 C1 C2 106.4(2) 3_756 .
C5 C1 C3 126.4(2) . 3_756
C4 C1 C3 45.9(3) . 3_756
C4 C1 C3 87.2(3) 3_756 3_756
C2 C1 C3 84.6(3) 3_756 3_756
C2 C1 C3 53.0(3) . 3_756
C5 C1 C3 125.2(2) . .
C4 C1 C3 87.5(3) . .
C4 C1 C3 45.7(3) 3_756 .
C2 C1 C3 53.3(3) 3_756 .
C2 C1 C3 83.8(3) . .
C3 C1 C3 108.3(2) 3_756 .
C5 C1 C1 179.2(2) . 3_756
C4 C1 C1 50.88(19) . 3_756
C4 C1 C1 50.3(2) 3_756 3_756
C2 C1 C1 53.76(19) 3_756 3_756
C2 C1 C1 52.68(19) . 3_756
C3 C1 C1 54.24(19) 3_756 3_756
C3 C1 C1 54.09(19) . 3_756
C4 C2 C3 115.5(5) 3_756 3_756
C4 C2 C1 64.8(4) 3_756 3_756
C3 C2 C1 65.1(3) 3_756 3_756
C4 C2 C1 64.6(3) 3_756 .
C3 C2 C1 64.3(3) 3_756 .
C1 C2 C1 73.6(2) 3_756 .
C4 C2 H2A 178.5 3_756 .
C3 C2 H2A 66.0 3_756 .
C1 C2 H2A 116.4 3_756 .
C1 C2 H2A 116.4 . .
C4 C2 H2B 65.3 3_756 .
C3 C2 H2B 179.0 3_756 .
C1 C2 H2B 115.9 3_756 .
C1 C2 H2B 116.0 . .
H2A C2 H2B 113.2 . .
C4 C3 C2 108.9(4) 3_756 3_756
C4 C3 C1 61.4(3) 3_756 3_756
C2 C3 C1 62.7(3) 3_756 3_756
C4 C3 C1 61.9(3) 3_756 .
C2 C3 C1 61.6(3) 3_756 .
C1 C3 C1 71.7(2) 3_756 .
C4 C3 H3A 69.2 3_756 .
C2 C3 H3A 178.0 3_756 .
C1 C3 H3A 116.4 3_756 .
C1 C3 H3A 116.5 . .
C4 C3 H3B 177.3 3_756 .
C2 C3 H3B 68.5 3_756 .
C1 C3 H3B 116.3 3_756 .
C1 C3 H3B 116.4 . .
H3A C3 H3B 113.4 . .
C2 C4 C3 135.5(6) 3_756 3_756
C2 C4 C1 73.1(4) 3_756 .
C3 C4 C1 72.7(4) 3_756 .
C2 C4 C1 73.8(4) 3_756 3_756
C3 C4 C1 72.4(3) 3_756 3_756
C1 C4 C1 78.8(3) . 3_756
C2 C4 H4A 167.7 3_756 .
C3 C4 H4A 56.8 3_756 .
C1 C4 H4A 115.5 . .
C1 C4 H4A 115.6 3_756 .
C2 C4 H4B 55.2 3_756 .
C3 C4 H4B 169.3 3_756 .
C1 C4 H4B 115.3 . .
C1 C4 H4B 115.2 3_756 .
H4A C4 H4B 112.5 . .
C6 C5 C1 177.7(2) . .
C5 C6 C7 174.7(2) . .
C8 C7 C6 125.7(2) . .
C8 C7 H7 117.1 . .
C6 C7 H7 117.1 . .
C7 C8 Br2 121.09(16) . .
C7 C8 Br1 123.77(16) . .
Br2 C8 Br1 115.13(10) . .
loop_
_geom_bond_atom_site_label_1
_geom_bond_atom_site_label_2
_geom_bond_distance
_geom_bond_site_symmetry_2
Br1 C8 1.877(2) .
Br2 C8 1.8767(19) .
C1 C5 1.444(3) .
C1 C4 1.481(5) .
C1 C4 1.494(5) 3_756
C1 C2 1.566(5) 3_756
C1 C2 1.588(5) .
C1 C3 1.611(5) 3_756
C1 C3 1.614(5) .
C1 C1 1.888(4) 3_756
C2 C4 1.097(7) 3_756
C2 C3 1.427(7) 3_756
C2 C1 1.566(5) 3_756
C2 H2A 0.9900 .
C2 H2B 0.9900 .
C3 C4 1.212(7) 3_756
C3 C2 1.427(7) 3_756
C3 C1 1.611(5) 3_756
C3 H3A 0.9900 .
C3 H3B 0.9900 .
C4 C2 1.097(7) 3_756
C4 C3 1.212(7) 3_756
C4 C1 1.494(5) 3_756
C4 H4A 0.9900 .
C4 H4B 0.9900 .
C5 C6 1.194(3) .
C6 C7 1.420(3) .
C7 C8 1.328(3) .
C7 H7 0.9500 .
loop_
_geom_torsion_atom_site_label_1
_geom_torsion_atom_site_label_2
_geom_torsion_atom_site_label_3
_geom_torsion_atom_site_label_4
_geom_torsion
_geom_torsion_site_symmetry_1
_geom_torsion_site_symmetry_4
C5 C1 C2 C4 109.5(4) . 3_756
C4 C1 C2 C4 -108.3(4) . 3_756
C2 C1 C2 C4 -69.5(4) 3_756 3_756
C3 C1 C2 C4 -139.3(5) 3_756 3_756
C3 C1 C2 C4 -20.7(4) . 3_756
C1 C1 C2 C4 -69.5(4) 3_756 3_756
C5 C1 C2 C3 -111.2(3) . 3_756
C4 C1 C2 C3 31.0(3) . 3_756
C4 C1 C2 C3 139.3(5) 3_756 3_756
C2 C1 C2 C3 69.8(3) 3_756 3_756
C3 C1 C2 C3 118.6(3) . 3_756
C1 C1 C2 C3 69.8(3) 3_756 3_756
C5 C1 C2 C1 179.0(3) . 3_756
C4 C1 C2 C1 -38.8(2) . 3_756
C4 C1 C2 C1 69.5(4) 3_756 3_756
C2 C1 C2 C1 0.001(0) 3_756 3_756
C3 C1 C2 C1 -69.8(3) 3_756 3_756
C3 C1 C2 C1 48.8(2) . 3_756
C5 C1 C3 C4 -112.7(4) . 3_756
C4 C1 C3 C4 108.3(3) . 3_756
C2 C1 C3 C4 135.0(4) 3_756 3_756
C2 C1 C3 C4 19.1(4) . 3_756
C3 C1 C3 C4 66.7(3) 3_756 3_756
C1 C1 C3 C4 66.7(3) 3_756 3_756
C5 C1 C3 C2 112.4(3) . 3_756
C4 C1 C3 C2 -26.7(3) . 3_756
C4 C1 C3 C2 -135.0(4) 3_756 3_756
C2 C1 C3 C2 -115.9(3) . 3_756
C3 C1 C3 C2 -68.2(3) 3_756 3_756
C1 C1 C3 C2 -68.2(3) 3_756 3_756
C5 C1 C3 C1 -179.4(3) . 3_756
C4 C1 C3 C1 41.6(2) . 3_756
C4 C1 C3 C1 -66.7(3) 3_756 3_756
C2 C1 C3 C1 68.2(3) 3_756 3_756
C2 C1 C3 C1 -47.6(2) . 3_756
C3 C1 C3 C1 -0.001(0) 3_756 3_756
C5 C1 C4 C2 -103.3(4) . 3_756
C4 C1 C4 C2 76.3(3) 3_756 3_756
C2 C1 C4 C2 116.3(3) . 3_756
C3 C1 C4 C2 151.2(5) 3_756 3_756
C3 C1 C4 C2 32.5(3) . 3_756
C1 C1 C4 C2 76.3(3) 3_756 3_756
C5 C1 C4 C3 105.5(4) . 3_756
C4 C1 C4 C3 -74.9(3) 3_756 3_756
C2 C1 C4 C3 -151.2(5) 3_756 3_756
C2 C1 C4 C3 -34.9(3) . 3_756
C3 C1 C4 C3 -118.7(3) . 3_756
C1 C1 C4 C3 -74.9(3) 3_756 3_756
C5 C1 C4 C1 -179.6(3) . 3_756
C4 C1 C4 C1 -0.001(1) 3_756 3_756
C2 C1 C4 C1 -76.3(3) 3_756 3_756
C2 C1 C4 C1 40.0(2) . 3_756
C3 C1 C4 C1 74.9(3) 3_756 3_756
C3 C1 C4 C1 -43.8(2) . 3_756
C6 C7 C8 Br2 -178.64(17) . .
C6 C7 C8 Br1 1.3(3) . .
