#------------------------------------------------------------------------------
#$Date: 2019-11-11 15:08:13 +0200 (Mon, 11 Nov 2019) $
#$Revision: 226314 $
#$URL: file:///home/coder/svn-repositories/cod/cif/4/03/47/4034795.cif $
#------------------------------------------------------------------------------
#
# This file is available in the Crystallography Open Database (COD),
# http://www.crystallography.net/
#
# All data on this site have been placed in the public domain by the
# contributors.
#
data_4034795
loop_
_publ_author_name
'Liu, Zhuqing'
'Huang, Fei'
'Wu, Ping'
'Wang, Quannan'
'Yu, Zhengkun'
_publ_section_title
;
 Amide Bond Formation Assisted by Vicinal Alkylthio Migration in
 Enaminones: Metal- and CO-Free Synthesis of \a,\b-Unsaturated Amides.
;
_journal_issue                   10
_journal_name_full               'The Journal of organic chemistry'
_journal_page_first              5731
_journal_page_last               5750
_journal_paper_doi               10.1021/acs.joc.8b00775
_journal_volume                  83
_journal_year                    2018
_chemical_absolute_configuration unk
_chemical_formula_sum            'C15 H17 N O3 S'
_chemical_formula_weight         291.35
_space_group_crystal_system      monoclinic
_space_group_IT_number           4
_space_group_name_Hall           'P 2yb'
_space_group_name_H-M_alt        'P 1 21 1'
_atom_sites_solution_hydrogens   geom
_audit_creation_method           SHELXL-2013
_cell_angle_alpha                90
_cell_angle_beta                 94.45(2)
_cell_angle_gamma                90
_cell_formula_units_Z            2
_cell_length_a                   5.4695(15)
_cell_length_b                   7.8263(16)
_cell_length_c                   17.704(3)
_cell_measurement_reflns_used    1183
_cell_measurement_temperature    293(2)
_cell_measurement_theta_max      25.138
_cell_measurement_theta_min      4.532
_cell_volume                     755.6(3)
_computing_cell_refinement       'Bruker SMART'
_computing_data_collection       'Bruker SMART'
_computing_data_reduction        'Bruker SAINT'
_computing_molecular_graphics    'Bruker SHELXTL'
_computing_publication_material  'Bruker SHELXTL'
_computing_structure_refinement  'SHELXL-2013 (Sheldrick, 2013)'
_computing_structure_solution    'Bruker SHELXTL'
_diffrn_ambient_temperature      293(2)
_diffrn_measured_fraction_theta_full 0.996
_diffrn_measured_fraction_theta_max 0.996
_diffrn_measurement_device_type  'CCD area detector'
_diffrn_measurement_method       'phi and omega scans'
_diffrn_radiation_type           MoK\a
_diffrn_radiation_wavelength     0.71073
_diffrn_reflns_av_R_equivalents  0.0230
_diffrn_reflns_av_unetI/netI     0.0458
_diffrn_reflns_Laue_measured_fraction_full 0.996
_diffrn_reflns_Laue_measured_fraction_max 0.996
_diffrn_reflns_limit_h_max       5
_diffrn_reflns_limit_h_min       -6
_diffrn_reflns_limit_k_max       8
_diffrn_reflns_limit_k_min       -9
_diffrn_reflns_limit_l_max       16
_diffrn_reflns_limit_l_min       -21
_diffrn_reflns_number            3338
_diffrn_reflns_point_group_measured_fraction_full 0.805
_diffrn_reflns_point_group_measured_fraction_max 0.796
_diffrn_reflns_theta_full        25.242
_diffrn_reflns_theta_max         25.999
_diffrn_reflns_theta_min         3.463
_exptl_absorpt_coefficient_mu    0.220
_exptl_absorpt_correction_T_max  1.00000
_exptl_absorpt_correction_T_min  0.80195
_exptl_absorpt_correction_type   multi-scan
_exptl_absorpt_process_details   sadabs
_exptl_crystal_colour            colorless
_exptl_crystal_density_diffrn    1.281
_exptl_crystal_description       prismatic
_exptl_crystal_F_000             308
_exptl_crystal_size_max          0.220
_exptl_crystal_size_mid          0.160
_exptl_crystal_size_min          0.130
_refine_diff_density_max         0.169
_refine_diff_density_min         -0.142
_refine_diff_density_rms         0.034
_refine_ls_abs_structure_details
; 
 Flack x determined using 583 quotients [(I+)-(I-)]/[(I+)+(I-)] 
 (Parsons and Flack (2004), Acta Cryst. A60, s61). 
;
_refine_ls_abs_structure_Flack   0.30(6)
_refine_ls_extinction_coef       0.043(5)
_refine_ls_extinction_expression Fc^*^=kFc[1+0.001xFc^2^\l^3^/sin(2\q)]^-1/4^
_refine_ls_extinction_method     SHELXL
_refine_ls_goodness_of_fit_ref   1.048
_refine_ls_hydrogen_treatment    constr
_refine_ls_matrix_type           full
_refine_ls_number_parameters     184
_refine_ls_number_reflns         2378
_refine_ls_number_restraints     1
_refine_ls_restrained_S_all      1.048
_refine_ls_R_factor_all          0.0501
_refine_ls_R_factor_gt           0.0372
_refine_ls_shift/su_max          0.001
_refine_ls_shift/su_mean         0.000
_refine_ls_structure_factor_coef Fsqd
_refine_ls_weighting_details
'w=1/[\s^2^(Fo^2^)+(0.0330P)^2^] where P=(Fo^2^+2Fc^2^)/3'
_refine_ls_weighting_scheme      calc
_refine_ls_wR_factor_gt          0.0723
_refine_ls_wR_factor_ref         0.0798
_reflns_Friedel_coverage         0.483
_reflns_Friedel_fraction_full    0.581
_reflns_Friedel_fraction_max     0.562
_reflns_number_gt                2005
_reflns_number_total             2378
_reflns_threshold_expression     'I > 2\s(I)'
_cod_data_source_file            jo8b00775_si_002.cif
_cod_data_source_block           LZQ-249
_cod_original_cell_volume        755.5(3)
_cod_original_sg_symbol_H-M      'P 21'
_cod_database_code               4034795
_shelx_space_group_comment
; 
The symmetry employed for this shelxl refinement is uniquely defined 
by the following loop, which should always be used as a source of 
symmetry information in preference to the above space-group names. 
They are only intended as comments. 
;
_shelx_estimated_absorpt_t_min   0.953
_shelx_estimated_absorpt_t_max   0.972
_shelxl_version_number           2013-4
_shelx_res_file
; 
TITL LZQ-249 in P2(1) 
CELL 0.71073   5.469466   7.826293  17.703626  90.0000  94.4520  90.0000 
ZERR   2.00   0.001506   0.001646   0.003234   0.0000   0.0207   0.0000 
LATT -1 
SYMM -x, y+1/2,-z 
SFAC C  H  N  O  S 
UNIT 30 34 2 6 2 
OMIT  -3.00  52.00 
L.S. 10 
ACTA 
BOND  $H 
FMAP 2 
PLAN 20 
wpdb -1 
size 0.22 0.16 0.13 
mpla c4 > c6 
mpla c9 > c14 
htab 
conf 
WGHT    0.033000 
EXTI    0.042957 
FVAR      15.39218 
MOLE 1 
S1    5    0.123117    0.734043    0.845350    11.00000    0.06099    0.04784 = 
         0.04933   -0.01108    0.00147   -0.00625 
N1    3    0.174980    0.352740    0.693178    11.00000    0.04423    0.03568 = 
         0.02859    0.00029    0.00570    0.00284 
O1    4    0.044159    0.625496    0.683898    11.00000    0.12070    0.04665 = 
         0.03587    0.00875    0.01438    0.02785 
O2    4   -0.318596    0.428492    0.796112    11.00000    0.04228    0.07592 = 
         0.04535    0.00718   -0.00483   -0.00703 
O3    4    0.158959    0.183531    0.797207    11.00000    0.09027    0.04337 = 
         0.04206    0.00948    0.02001    0.00251 
C1    1    0.097985    0.506320    0.724425    11.00000    0.04353    0.03952 = 
         0.03448    0.00347    0.00381    0.00082 
C2    1    0.096593    0.517473    0.810230    11.00000    0.03692    0.03588 = 
         0.03061   -0.00006    0.00137    0.00374 
AFIX  13 
H2    2    0.238589    0.453357    0.832290    11.00000   -1.20000 
AFIX   0 
C3    1   -0.131538    0.435621    0.837553    11.00000    0.04186    0.04216 = 
         0.03341   -0.00113    0.00363    0.00170 
C4    1   -0.118945    0.381678    0.917485    11.00000    0.04418    0.06391 = 
         0.03675    0.01228    0.00403    0.00394 
AFIX  13 
H4    2    0.044954    0.372183    0.943733    11.00000   -1.20000 
AFIX   0 
C5    1   -0.320272    0.436740    0.963775    11.00000    0.07301    0.11150 = 
         0.04144    0.00896    0.01568    0.02276 
AFIX  23 
H5A   2   -0.278355    0.462795    1.016767    11.00000   -1.20000 
H5B   2   -0.449322    0.507216    0.939434    11.00000   -1.20000 
AFIX   0 
C6    1   -0.308121    0.257791    0.940162    11.00000    0.07947    0.08965 = 
         0.05431    0.02267    0.01245   -0.02177 
AFIX  23 
H6A   2   -0.429325    0.218114    0.901190    11.00000   -1.20000 
H6B   2   -0.258287    0.173675    0.978555    11.00000   -1.20000 
AFIX   0 
C7    1    0.219343    0.201058    0.734042    11.00000    0.05155    0.03535 = 
         0.04234    0.00347    0.00591    0.00287 
C8    1    0.352258    0.062447    0.695455    11.00000    0.11344    0.05583 = 
         0.06381    0.00981    0.02218    0.03735 
AFIX 137 
H8A   2    0.376200   -0.033648    0.728915    11.00000   -1.50000 
H8B   2    0.508613    0.104388    0.682551    11.00000   -1.50000 
H8C   2    0.257042    0.027870    0.650198    11.00000   -1.50000 
AFIX   0 
C9    1    0.205682    0.356871    0.612433    11.00000    0.03715    0.03376 = 
         0.03081    0.00083    0.00510    0.00157 
C10   1    0.034450    0.281530    0.563031    11.00000    0.04238    0.04633 = 
         0.03887   -0.00373    0.00498   -0.00759 
AFIX  43 
H10   2   -0.102727    0.230166    0.581159    11.00000   -1.20000 
AFIX   0 
C11   1    0.063753    0.281180    0.486521    11.00000    0.05508    0.04962 = 
         0.03987   -0.00826   -0.00130   -0.00007 
AFIX  43 
H11   2   -0.052708    0.229183    0.452996    11.00000   -1.20000 
AFIX   0 
C12   1    0.264828    0.357619    0.460079    11.00000    0.06797    0.05317 = 
         0.03209   -0.00108    0.01254    0.00524 
AFIX  43 
H12   2    0.286515    0.356362    0.408497    11.00000   -1.20000 
AFIX   0 
C13   1    0.434536    0.436108    0.509426    11.00000    0.04980    0.05340 = 
         0.04756    0.00714    0.01951   -0.00131 
AFIX  43 
H13   2    0.569105    0.490367    0.491062    11.00000   -1.20000 
AFIX   0 
C14   1    0.406822    0.435101    0.586485    11.00000    0.03825    0.04981 = 
         0.04282   -0.00009    0.00149   -0.00445 
AFIX  43 
H14   2    0.523151    0.486818    0.620145    11.00000   -1.20000 
AFIX   0 
C15   1   -0.167992    0.828006    0.817042    11.00000    0.07421    0.05316 = 
         0.10784   -0.00598    0.01282    0.01467 
AFIX 137 
H15A  2   -0.204145    0.812053    0.763575    11.00000   -1.50000 
H15B  2   -0.163040    0.947974    0.828362    11.00000   -1.50000 
H15C  2   -0.292939    0.774390    0.844005    11.00000   -1.50000 
AFIX   0 
HKLF 4 
  
REM  LZQ-249 in P2(1) 
REM R1 =  0.0372 for    2005 Fo > 4sig(Fo)  and  0.0501 for all    2378 data 
REM    184 parameters refined using      1 restraints 
  
END 
  
WGHT      0.0322      0.0000 
  
REM Instructions for potential hydrogen bonds 
EQIV $1 x+1, y, z 
HTAB C2 O2_$1 
HTAB C15 O1 
EQIV $2 x, y+1, z 
HTAB C15 O3_$2 
  
REM Highest difference peak  0.169,  deepest hole -0.142,  1-sigma level  0.034 
Q1    1   0.0686  0.5299  0.7704  11.00000  0.05    0.16 
Q2    1   0.0910  0.7330  0.9107  11.00000  0.05    0.14 
Q3    1   0.3554  0.3364  0.5927  11.00000  0.05    0.14 
Q4    1  -0.0333  0.4953  0.8207  11.00000  0.05    0.13 
Q5    1   0.1794  0.2485  0.5952  11.00000  0.05    0.13 
Q6    1  -0.1345  0.4388  0.7696  11.00000  0.05    0.12 
Q7    1  -0.0031  0.7003  0.6939  11.00000  0.05    0.12 
Q8    1  -0.1701  0.7096  0.6592  11.00000  0.05    0.12 
Q9    1   0.2725  0.4495  0.6000  11.00000  0.05    0.11 
Q10   1  -0.2824  0.4161  0.7421  11.00000  0.05    0.11 
Q11   1   0.5170  0.1344  0.6312  11.00000  0.05    0.11 
Q12   1   0.2199  0.3662  0.6340  11.00000  0.05    0.11 
Q13   1  -0.3652  0.7372  0.8090  11.00000  0.05    0.11 
Q14   1  -0.4193  0.7417  0.8811  11.00000  0.05    0.11 
Q15   1   0.5303  0.2936  0.6414  11.00000  0.05    0.11 
Q16   1   0.0189  0.3106  0.9289  11.00000  0.05    0.11 
Q17   1  -0.2890  0.3968  1.0282  11.00000  0.05    0.11 
Q18   1   0.2676  0.1792  0.7860  11.00000  0.05    0.10 
Q19   1   0.0989  0.6415  0.8946  11.00000  0.05    0.10 
Q20   1   0.3780  0.2032  0.4775  11.00000  0.05    0.10 
;
_shelx_res_checksum              94052
_shelx_hkl_file
; 
   0 -10  -3 829.803 588.342   1 
   0 -10  -4 2150.11 775.605   1 
   0 -10  -5-464.643 653.233   1 
   0 -10  -6 4257.11 1074.89   1 
   0 -10  -7 2720.26 1026.19   1 
   0 -10  -8 427.846 709.558   1 
   0  -9   0-272.426 423.128   1 
   0  -9  -1 12629.2 1313.27   1 
   0  -9   1 14303.5 1290.85   1 
   0  -9  -2 4467.33 934.165   1 
   0  -9  -3 2667.20 798.763   1 
   0  -9  -4 5648.63 1074.69   1 
   0  -9  -5 1515.06 660.117   1 
   0  -9  -6 1302.30 694.501   1 
   0  -9  -7 3621.43 950.863   1 
   0  -9  -8 301.458 550.362   1 
   0  -9  -9 469.458 647.473   1 
   0  -9 -10-1074.88 711.558   1 
   0  -8   0 4652.57 749.023   1 
   0  -8   1 621.292 360.892   1 
   0  -8  -1 1057.82 475.581   1 
   0  -8   2 2488.05 501.538   1 
   0  -8  -2 2508.38 608.617   1 
   0  -8  -3 1369.06 544.482   1 
   0  -8   3 1565.02 434.876   1 
   0  -8   4 10983.4 890.946   1 
   0  -8  -4 8680.44 1145.83   1 
   0  -8  -5 4167.49 849.659   1 
   0  -8  -6 2205.61 737.520   1 
   0  -8  -7 7367.32 1177.16   1 
   0  -8  -8 1213.65 655.642   1 
   0  -8  -9 3762.98 988.479   1 
   0  -8 -10 2939.24 924.456   1 
   0  -8 -11 109.954 624.688   1 
   0  -8 -12 487.440 640.272   1 
   0  -8 -13 14789.1 1925.97   1 
   0  -7   0 251.652 278.028   1 
   0  -7  -1 16149.0 1246.54   1 
   0  -7   1 15107.6 1118.48   1 
   0  -7  -2 18368.6 1385.82   1 
   0  -7   2 17463.8 1141.98   1 
   0  -7   3 19075.2 1138.17   1 
   0  -7  -3 17856.1 1409.34   1 
   0  -7   4 48909.1 1668.45   1 
   0  -7  -4 44731.9 1751.49   2 
   0  -7  -4 48156.8 2360.82   1 
   0  -7  -5 8240.65 819.465   2 
   0  -7   5 9800.72 718.158   1 
   0  -7  -5 9562.22 1150.27   1 
   0  -7  -6 2855.28 762.007   1 
   0  -7   6 2562.71 339.341   1 
   0  -7  -6 1268.13 366.920   2 
   0  -7   7 6028.25 396.799   1 
   0  -7  -7 6439.98 788.891   2 
   0  -7  -8 6408.35 1100.44   1 
   0  -7  -9 11322.8 1415.97   1 
   0  -7 -10 4920.42 1032.73   1 
   0  -7 -11 16110.0 1766.42   1 
   0  -7 -12 3460.42 1020.75   1 
   0  -7 -13 1906.56 806.468   1 
   0  -7 -14 1191.78 745.787   1 
   0  -7 -15 6136.08 1288.43   1 
   0  -6   0 14344.9 1019.63   1 
   0  -6  -1 14270.8 1069.00   1 
   0  -6   1 15141.5 995.041   1 
   0  -6   2 32710.8 1375.91   1 
   0  -6  -2 35197.3 1709.10   1 
   0  -6  -3 17965.4 1292.75   1 
   0  -6   3 18112.1 972.128   1 
   0  -6  -3 15986.8 933.320   2 
   0  -6   4 13303.3 775.502   1 
   0  -6  -4 15310.7 1237.38   1 
   0  -6  -4 14291.7 918.387   2 
   0  -6   5 167.945 173.464   1 
   0  -6  -5 80.4264 332.099   1 
   0  -6  -5 123.910 177.669   2 
   0  -6  -6 9441.06 1074.04   1 
   0  -6   6 9951.66 549.635   1 
   0  -6  -6 9753.14 860.482   2 
   0  -6  -7 5138.94 669.016   2 
   0  -6   7 5444.51 326.034   1 
   0  -6  -7 6494.66 923.799   1 
   0  -6  -8 1108.93 512.263   1 
   0  -6  -8 811.190 382.968   2 
   0  -6  -9 9698.05 1198.94   1 
   0  -6 -10 16224.9 1589.62   1 
   0  -6 -11 19970.1 1831.42   1 
   0  -6 -12 23294.5 2017.55   1 
   0  -6 -13 10876.3 1465.06   1 
   0  -6 -14 4642.99 1057.81   1 
   0  -6 -15 12857.5 1680.53   1 
   0  -6 -16 2986.89 926.293   1 
   0  -6 -17 1643.72 795.603   1 
   0  -5   0-20.0754 190.640   1 
   0  -5   1 11206.4 763.798   1 
   0  -5  -1 13744.6 943.847   1 
   0  -5  -2 19188.8 1155.51   1 
   0  -5  -2 17982.2 857.539   2 
   0  -5   2 19709.0 948.517   1 
   0  -5   3 7004.56 538.048   1 
   0  -5  -3 6526.60 565.997   2 
   0  -5  -3 6636.63 744.628   1 
   0  -5  -4 1427.23 326.710   2 
   0  -5   4 1368.52 241.832   1 
   0  -5  -4 1634.11 443.447   1 
   0  -5  -5 43198.5 1543.64   2 
   0  -5  -5 44259.0 1979.61   1 
   0  -5   5 46182.9 1107.37   1 
   0  -5   6 17832.9 607.134   1 
   0  -5  -6 18587.0 1355.44   1 
   0  -5  -6 17518.6 1046.57   2 
   0  -5   7 7516.19 313.420   1 
   0  -5  -7 8839.79 781.432   2 
   0  -5  -7 9241.14 1032.30   1 
   0  -5  -8 25325.0 1367.63   2 
   0  -5  -8 26347.8 1726.41   1 
   0  -5  -9 11838.2 1228.51   1 
   0  -5  -9 12976.4 1039.73   2 
   0  -5 -10 8002.81 1079.60   1 
   0  -5 -11 9242.27 1168.52   1 
   0  -5 -12 4019.67 854.130   1 
   0  -5 -13 8917.69 1276.01   1 
   0  -5 -14 9640.85 1329.06   1 
   0  -5 -15 3362.11 895.615   1 
   0  -5 -16 1211.45 692.093   1 
   0  -5 -17 2573.06 886.716   1 
   0  -5 -18 3572.48 998.187   1 
   0  -5 -19 807.159 621.905   1 
   0  -4   0 93056.1 2012.07   1 
   0  -4  -1 90848.5 1587.54   2 
   0  -4   1 95642.1 1919.63   1 
   0  -4  -1 98111.4 2191.27   1 
   0  -4   2 8226.64 548.057   1 
   0  -4  -2 8722.87 542.291   2 
   0  -4  -2 9389.78 751.320   1 
   0  -4  -3 238281. 2894.13   2 
   0  -4   3 240950. 2595.93   1 
   0  -4  -4 1262.60 382.922   1 
   0  -4   4 891.584 195.104   1 
   0  -4  -4 1080.23 272.000   2 
   0  -4  -5 62737.2 1703.92   2 
   0  -4  -5 62725.7 2152.23   1 
   0  -4   5 63444.1 1095.50   1 
   0  -4  -6 9289.96 889.324   1 
   0  -4  -6 9907.40 720.468   2 
   0  -4  -7 27093.7 1553.43   1 
   0  -4  -7 26272.6 1217.52   2 
   0  -4  -8 18637.3 1360.11   1 
   0  -4  -8 16105.4 1023.89   2 
   0  -4  -9 65256.5 2591.10   1 
   0  -4  -9 62119.9 2060.01   2 
   0  -4 -10 58656.3 2579.71   1 
   0  -4 -10 59096.4 2103.33   2 
   0  -4 -11 6915.47 1000.40   1 
   0  -4 -12 14536.1 1411.01   1 
   0  -4 -13 20327.3 1725.00   1 
   0  -4 -14 30894.6 2205.02   1 
   0  -4 -15 3408.05 906.210   1 
   0  -4 -16 16623.0 1751.06   1 
   0  -4 -17 6412.62 1211.22   1 
   0  -4 -18 5132.42 1107.13   1 
   0  -4 -19 4856.34 1111.52   1 
   0  -4 -20 2232.10 893.878   1 
   0  -3   0 62.1736 89.9426   2 
   0  -3   0 228.175 179.544   1 
   0  -3  -1 217335. 2080.24   2 
   0  -3   1 213188. 2432.67   1 
   0  -3  -1 211691. 2828.33   1 
   0  -3  -2 223727. 2328.92   2 
   0  -3  -2 223407. 3080.35   1 
   0  -3  -3 90349.3 1607.19   2 
   0  -3  -3 92135.4 2101.39   1 
   0  -3  -4 359836. 3433.93   2 
   0  -3  -4 345430. 4321.16   1 
   0  -3  -5 172370. 2588.59   2 
   0  -3  -5 174909. 3240.87   1 
   0  -3   6 46954.4 805.653   1 
   0  -3  -6 46085.1 1435.21   2 
   0  -3  -6 47962.1 1807.63   1 
   0  -3  -7 28402.9 1456.35   1 
   0  -3  -7 28453.5 1208.88   2 
   0  -3   7 27075.8 604.211   1 
   0  -3   8 63682.4 988.632   1 
   0  -3  -8 67661.3 2361.68   1 
   0  -3  -8 64197.1 1907.06   2 
   0  -3  -9 8941.13 769.692   2 
   0  -3  -9 9826.02 972.498   1 
   0  -3   9 8832.23 412.759   1 
   0  -3  10 52835.4 1108.26   1 
   0  -3 -10 55569.9 2327.35   1 
   0  -3 -10 53995.4 1936.67   2 
   0  -3  11 10111.6 548.672   1 
   0  -3 -11 9766.74 1044.18   1 
   0  -3 -12 116131. 3660.34   1 
   0  -3 -13 9392.19 1174.12   1 
   0  -3 -14 76452.2 3221.65   1 
   0  -3 -15 53383.7 2793.64   1 
   0  -3 -16 5734.25 1080.44   1 
   0  -3 -17 3842.37 911.482   1 
   0  -3 -18 10778.8 1462.15   1 
   0  -3 -19 2459.78 860.696   1 
   0  -3 -20-242.426 521.976   1 
   0  -3 -21 5464.38 1248.40   1 
   0  -3 -22 4135.36 1135.09   1 
   0  -2   0 536171. 3428.98   1 
   0  -2   0 559788. 2376.16   2 
   0  -2  -1 36160.7 977.669   1 
   0  -2  -1 36010.4 705.829   2 
   0  -2  -2 325748. 3193.48   1 
   0  -2  -2 327723. 2463.22   2 
   0  -2  -3 276054. 2533.30   2 
   0  -2  -3 269255. 3162.35   1 
   0  -2  -4 45093.7 1139.59   2 
   0  -2  -4 47463.8 1424.51   1 
   0  -2  -5 42948.2 1452.98   1 
   0  -2  -5 42757.3 1210.36   2 
   0  -2   5 42096.8 751.783   1 
   0  -2   6 12635.9 457.801   1 
   0  -2  -6 13225.1 868.158   1 
   0  -2  -6 13720.0 746.909   2 
   0  -2   7 41031.0 919.224   1 
   0  -2  -7 42533.9 1384.85   2 
   0  -2  -7 40162.4 1594.59   1 
   0  -2  -7 42336.3 1295.60   3 
   0  -2   8 1141.47 190.451   1 
   0  -2  -8 881.898 326.804   1 
   0  -2  -8 1105.47 247.022   3 
   0  -2  -9 30483.0 1333.21   2 
   0  -2  -9 31689.8 1578.19   1 
   0  -2  -9 30496.2 1229.00   3 
   0  -2   9 30907.6 958.182   1 
   0  -2  10 79567.1 1648.48   1 
   0  -2 -10 85266.1 2321.02   2 
   0  -2 -10 80470.5 2625.16   1 
   0  -2 -10 76426.4 2069.43   3 
   0  -2 -11 4258.27 664.073   1 
   0  -2 -11 3142.80 463.097   3 
   0  -2  11 3183.56 372.699   1 
   0  -2 -11 3318.79 544.881   2 
   0  -2 -12 5334.68 604.359   3 
   0  -2 -12 6038.49 849.554   1 
   0  -2  12 5341.40 514.182   1 
   0  -2 -13 38360.3 2077.76   1 
   0  -2  13 37906.7 1420.70   1 
   0  -2 -13 37213.6 1639.75   3 
   0  -2 -14 8293.92 816.438   3 
   0  -2 -14 7249.24 986.851   1 
   0  -2 -15 3886.49 809.647   1 
   0  -2 -15 2865.82 503.899   3 
   0  -2 -16 1679.72 656.847   1 
   0  -2 -16 1974.10 509.778   3 
   0  -2 -17 7829.39 865.740   3 
   0  -2 -17 5984.85 1024.02   1 
   0  -2 -18 2292.63 521.029   3 
   0  -2 -18 2215.13 770.812   1 
   0  -2 -19 9694.62 1397.16   1 
   0  -2 -20 3769.21 945.309   1 
   0  -2 -21 1389.43 736.322   1 
   0  -2 -22 7294.41 1354.08   1 
   0  -2 -23 1961.81 863.166   1 
   0  -1  -3 64835.9 1094.92   3 
   0  -1  -3 65039.3 1311.28   1 
   0  -1  -4 171237. 1986.10   3 
   0  -1   4 165583. 1530.48   1 
   0  -1  -4 166842. 2317.87   1 
   0  -1  -5 404296. 3431.38   3 
   0  -1   5 397825. 2763.01   1 
   0  -1  -5 404258. 3937.19   1 
   0  -1  -6 244027. 2926.99   3 
   0  -1   6 241308. 2375.55   1 
   0  -1  -7 106481. 2365.15   1 
   0  -1   7 104628. 1724.33   1 
   0  -1  -7 107998. 2117.09   3 
   0  -1  -8 54536.9 1639.06   3 
   0  -1  -8 56544.5 1848.30   1 
   0  -1   8 55573.5 1371.89   1 
   0  -1  -9 214932. 3460.49   3 
   0  -1   9 218383. 2899.40   1 
   0  -1  -9 214677. 3765.32   1 
   0  -1  10 6902.37 563.816   1 
   0  -1 -10 7745.73 781.558   1 
   0  -1 -10 6402.78 660.572   3 
   0  -1 -11 34687.0 1705.60   1 
   0  -1 -11 31083.3 1492.11   3 
   0  -1  11 35332.3 1337.21   1 
   0  -1  12 36457.6 1444.12   1 
   0  -1 -12 35208.6 1805.96   1 
   0  -1 -12 34839.2 1581.70   2 
   0  -1 -12 35602.0 1669.26   3 
   0  -1 -13 28705.9 1566.63   3 
   0  -1 -13 30116.7 1751.03   1 
   0  -1 -14 14163.8 1153.82   3 
   0  -1 -14 15184.7 1311.50   1 
   0  -1 -15 9189.03 1096.35   1 
   0  -1 -15 7604.56 882.528   3 
   0  -1 -16 2479.80 663.735   1 
   0  -1 -16 1051.12 394.317   3 
   0  -1 -17 6223.81 1016.20   1 
   0  -1 -17 6186.97 863.694   3 
   0  -1 -18 4864.20 828.924   3 
   0  -1 -18 5879.83 1002.88   1 
   0  -1 -19-386.589 343.783   3 
   0  -1 -19 477.681 544.358   1 
   0  -1 -20 1003.87 606.639   1 
   0  -1 -21 965.845 671.879   1 
   0  -1 -22 3611.53 980.237   1 
   0  -1 -23 247.546 603.210   1 
   0  -1 -24 4501.61 1391.81   1 
   0   0  -3 472202. 2878.85   1 
   0   0  -4 41196.7 1114.59   3 
   0   0  -4 39436.9 966.052   1 
   0   0  -5 4170.77 414.513   3 
   0   0  -5 3224.39 330.895   1 
   0   0  -6 285568. 3606.55   3 
   0   0  -6 286021. 3239.42   1 
   0   0   6 288391. 3027.04   1 
   0   0  -7 21028.8 1066.88   3 
   0   0   7 21042.3 895.445   1 
   0   0  -7 20460.4 955.479   1 
   0   0  -8 428581. 5145.64   3 
   0   0  -8 442394. 4697.01   1 
   0   0   8 434090. 4309.59   1 
   0   0  -9 232558. 4029.20   3 
   0   0   9 239475. 3423.67   1 
   0   0  -9 237486. 3734.08   1 
   0   0 -10 47912.6 1775.20   1 
   0   0 -10 43703.8 1847.21   3 
   0   0  10 45963.4 1588.34   1 
   0   0  11 6263.59 635.979   1 
   0   0 -11 9055.54 848.112   1 
   0   0 -11 8423.60 867.532   3 
   0   0 -12 444.371 302.189   3 
   0   0 -12 192.559 259.234   1 
   0   0 -13 11981.7 1064.96   1 
   0   0  13 13374.1 1024.87   1 
   0   0 -13 11258.5 1081.19   3 
   0   0 -14 1055.62 414.544   1 
   0   0 -14 860.423 401.642   3 
   0   0 -15 15.4367 269.387   3 
   0   0 -15-190.979 326.799   1 
   0   0 -16 1107.18 401.816   3 
   0   0 -16 1154.78 529.423   1 
   0   0 -17 46022.3 2481.10   3 
   0   0 -17 40547.9 2357.29   1 
   0   0 -18 2158.44 619.459   3 
   0   0 -18 1295.14 565.624   1 
   0   0 -19 16411.6 1675.92   1 
   0   0 -19 13316.0 1442.96   3 
   0   0 -20 6251.26 1114.00   1 
   0   0 -20 5856.25 997.852   3 
   0   0 -21 2473.66 771.665   1 
   0   0 -22 1106.66 679.607   1 
   0   1   3 62296.1 1124.74   3 
   0   1   4 164957. 2049.50   3 
   0   1  -4 167542. 1689.78   1 
   0   1   5 401139. 3524.14   3 
   0   1  -5 399765. 3081.30   1 
   0   1  -6 238058. 2674.42   1 
   0   1   6 239666. 2985.24   3 
   0   1   7 106095. 2147.72   3 
   0   1  -7 100259. 1930.72   1 
   0   1  -8 51905.2 1517.10   1 
   0   1   8 54761.8 1669.96   3 
   0   1  -9 217176. 4327.35   3 
   0   1   9 215158. 3518.38   3 
   0   1   9 217772. 3600.99   1 
   0   1  -9 210116. 3286.27   1 
   0   1 -10 6617.10 802.828   3 
   0   1 -10 6236.91 645.054   1 
   0   1  10 6872.28 668.117   3 
   0   1 -11 35545.1 1931.51   3 
   0   1 -11 34232.5 1526.35   1 
   0   1 -12 32388.5 1919.77   3 
   0   1 -12 36959.1 1671.83   1 
   0   1  12 36348.5 1714.22   1 
   0   1 -13 29045.2 1898.64   3 
   0   1 -13 29496.9 1582.01   1 
   0   1 -13 30791.6 1483.35   2 
   0   1 -14 14992.3 1226.20   1 
   0   1 -14 15751.5 1451.85   3 
   0   1 -15 7603.34 1061.23   3 
   0   1 -15 6962.80 879.653   1 
   0   1 -16 1413.78 484.907   1 
   0   1 -16 1507.98 575.770   3 
   0   1 -17 6816.79 1016.17   1 
   0   1 -17 7557.06 1176.34   3 
   0   1 -18 6986.26 1088.26   3 
   0   1 -18 6817.10 1020.17   1 
   0   1 -19 706.636 484.645   3 
   0   1 -19 772.970 531.258   1 
   0   1 -20 2401.89 696.747   1 
   0   1 -20 1433.65 610.885   3 
   0   1 -21 635.285 376.379   3 
   0   2   4 45346.4 1237.89   3 
   0   2   5 41451.7 1251.76   3 
   0   2   6 12627.8 737.440   3 
   0   2   7 39077.0 1365.96   3 
   0   2   8 956.851 257.823   3 
   0   2   9 32331.4 1365.34   3 
   0   2  10 76768.3 2227.69   3 
   0   2  11 3563.42 537.480   3 
   0   2 -12 4406.89 847.410   3 
   0   2  12 5159.16 646.480   3 
   0   2  13 38670.0 1771.98   3 
   0   2 -13 34465.4 2278.61   3 
   0   2 -13 35654.1 1526.89   2 
   0   2 -14 6905.69 1070.98   3 
   0   2 -14 7366.82 760.712   2 
   0   2 -15 3480.98 825.810   3 
   0   2 -16 1663.24 628.491   3 
   0   2 -17 6705.09 1161.76   3 
   0   2 -18 773.513 522.321   3 
   0   2 -19 11018.4 1585.50   3 
   0   2 -20 3939.11 976.176   3 
   0   2 -21 117.651 303.436   3 
   0   3   5 176053. 2967.78   3 
   0   3   6 48546.8 1617.39   3 
   0   3   7 27454.0 1265.77   3 
   0   3   8 65754.5 2018.61   3 
   0   3   9 9692.28 817.053   3 
   0   3  10 50838.6 1906.16   3 
   0   3  11 9720.64 885.502   3 
   0   3 -12 112217. 2494.74   2 
   0   3  12 109888. 3004.70   3 
   0   3 -13 8937.29 783.782   2 
   0   3  13 8756.82 915.652   3 
   0   3 -14 77907.8 2359.54   2 
   0   3 -14 75658.0 3693.78   3 
   0   3  14 74064.5 2586.15   3 
   0   3 -15 55426.7 3262.50   3 
   0   3  15 50457.7 2184.65   3 
   0   3 -16 3014.77 932.281   3 
   0   3 -17 3433.09 941.079   3 
   0   3 -18 7543.75 1367.87   3 
   0   3 -19 439.679 440.317   3 
   0   3 -20 733.352 437.098   3 
   0   3 -21 5926.57 1279.11   3 
   0   3 -22 2902.82 977.145   3 
   0   4  -5 59840.3 775.464   2 
   0   4   6 8998.78 806.630   3 
   0   4   7 26529.7 1401.77   3 
   0   4   8 15360.9 1096.23   3 
   0   4  -8 16546.4 690.130   2 
   0   4   9 64965.2 2276.91   3 
   0   4  -9 62207.4 1446.90   2 
   0   4 -10 57483.6 1514.50   2 
   0   4  10 56585.9 2185.69   3 
   0   4  11 8670.13 904.863   3 
   0   4 -11 8196.87 646.062   2 
   0   4 -12 17494.8 978.043   2 
   0   4  12 14967.3 1190.32   3 
   0   4 -13 19737.7 1092.54   2 
   0   4  13 18692.3 1356.05   3 
   0   4  14 26739.9 1657.08   3 
   0   4 -14 27074.3 1336.25   2 
   0   4 -16 18174.1 2103.28   3 
   0   4 -17 8082.60 1513.11   3 
   0   4 -18 5347.75 1205.96   3 
   0   4 -19 5025.37 1263.18   3 
   0   4 -20 1294.40 606.403   3 
   0   4 -21 4081.35 1140.74   3 
   0   4 -22-1118.26 790.454   3 
   0   5   7 9071.30 923.061   3 
   0   5   8 24577.7 1525.60   3 
   0   5  -8 24699.9 720.597   2 
   0   5   9 13629.2 1189.39   3 
   0   5  -9 13130.8 614.321   2 
   0   5  10 7586.55 895.536   3 
   0   5 -10 7676.40 538.914   2 
   0   5  11 7484.27 906.063   3 
   0   5 -11 7224.28 563.969   2 
   0   5 -12 4541.80 488.328   2 
   0   5  12 3497.46 658.816   3 
   0   5 -13 9579.07 748.082   2 
   0   5  13 8756.04 1012.14   3 
   0   5 -17 863.531 670.630   3 
   0   5 -18 4055.85 1217.41   3 
   0   5 -19-53.8277 471.892   3 
   0   5 -20 1709.12 798.588   3 
   0   5 -21 905.879 640.474   3 
   0   6   7 6253.22 851.719   3 
   0   6   8 740.104 351.463   3 
   0   6   9 8457.19 1039.75   3 
   0   6  10 15829.6 1408.29   3 
   0   6  11 18247.7 1550.34   3 
   0   6 -18 2761.48 1026.80   3 
   1 -10  -7-483.597 694.656   1 
   1 -10  -6 6690.92 1300.87   1 
   1 -10  -5 2098.77 754.483   1 
   1 -10  -4 2444.21 783.085   1 
   1 -10  -3 825.509 548.260   1 
   1 -10  -2 2990.51 803.289   1 
  -1 -10  -4 246.358 475.828   1 
  -1 -10  -5-727.505 755.053   1 
  -1 -10  -6 1485.19 763.805   1 
  -1 -10  -7 1902.30 725.913   1 
  -1 -10  -8 2604.41 938.122   1 
   1  -9 -10-17.8713 659.927   1 
   1  -9  -9 1313.57 805.941   1 
   1  -9  -8 1187.42 659.358   1 
   1  -9  -7 2279.98 753.024   1 
   1  -9  -6 325.148 550.055   1 
   1  -9  -5-131.155 540.169   1 
   1  -9  -4 1583.66 649.725   1 
   1  -9  -3 3464.69 817.869   1 
   1  -9  -2 1011.55 560.713   1 
   1  -9  -1 16236.1 1462.40   1 
   1  -9   0 3616.54 757.906   1 
  -1  -9   0 3020.89 761.178   1 
   1  -9   1 1553.63 573.355   1 
  -1  -9  -1 1828.71 632.720   1 
   1  -9   2 10309.6 1084.31   1 
  -1  -9  -2 12410.1 1441.08   1 
  -1  -9  -3 4320.96 983.147   1 
  -1  -9  -4 2875.42 850.215   1 
  -1  -9  -5 573.280 600.747   1 
  -1  -9  -6 4227.19 1001.86   1 
  -1  -9  -7 1065.01 670.976   1 
  -1  -9  -8-566.171 577.073   1 
  -1  -9  -9 883.019 674.988   1 
  -1  -9 -10 228.994 532.911   1 
   1  -8 -13 813.733 728.417   1 
   1  -8 -12 8677.56 1427.97   1 
   1  -8 -11 33.0380 529.457   1 
   1  -8 -10 2293.08 819.049   1 
   1  -8  -9 6084.75 1088.05   1 
   1  -8  -8 10282.1 1381.14   1 
   1  -8  -7 3381.11 862.271   1 
   1  -8  -6 3302.79 873.956   1 
   1  -8  -5 5396.33 943.237   1 
   1  -8  -4 5575.79 936.259   1 
   1  -8  -3-54.4950 412.260   1 
  -1  -8   3 231.654 286.373   1 
  -1  -8   2 5603.85 768.413   1 
   1  -8  -2 5986.43 881.954   1 
   1  -8  -1 5618.92 821.717   1 
  -1  -8   1 4573.59 762.952   1 
   1  -8   0 13172.7 1217.59   1 
  -1  -8   0 13770.6 1299.34   1 
  -1  -8  -1 11021.8 1201.59   1 
   1  -8   1 9995.19 1022.58   1 
  -1  -8  -2 1508.67 540.017   1 
   1  -8   2 490.737 329.362   1 
  -1  -8  -3 520.824 469.243   1 
   1  -8   3 242.612 274.943   1 
  -1  -8  -4 4464.92 923.732   1 
   1  -8   4 4716.85 656.848   1 
  -1  -8  -5 17600.6 1697.47   1 
   1  -8   5 17554.9 1147.76   1 
  -1  -8  -6 2163.83 796.163   1 
  -1  -8  -7 7825.64 1275.08   1 
  -1  -8  -8 8311.16 1288.05   1 
  -1  -8  -9-412.657 553.609   1 
  -1  -8 -10 2856.47 906.396   1 
  -1  -8 -11 4332.15 1069.79   1 
  -1  -8 -12 4078.29 1066.25   1 
   1  -7 -15-64.5189 548.711   1 
   1  -7 -14 29929.8 2513.58   1 
   1  -7 -13 3735.44 994.152   1 
   1  -7 -12 5996.35 1130.62   1 
   1  -7 -11 23506.4 2001.43   1 
   1  -7 -10 921.363 585.488   1 
   1  -7  -9 5337.74 950.808   1 
   1  -7  -8 13738.0 1458.69   1 
   1  -7  -7 2831.48 747.926   1 
   1  -7  -6 147.951 402.292   1 
   1  -7  -5 9617.93 1130.74   1 
  -1  -7   4 15401.2 976.136   1 
   1  -7  -4 15517.1 1343.52   1 
  -1  -7   3 9047.60 843.298   1 
   1  -7  -3 7646.53 975.001   1 
   1  -7  -2 32292.7 1829.05   1 
  -1  -7   2 32383.8 1621.48   1 
  -1  -7   1 11598.6 1039.60   1 
   1  -7  -1 9878.61 1035.20   1 
  -1  -7   0 36993.9 1886.43   1 
   1  -7   0 36452.0 1835.25   1 
   1  -7   1 6529.19 808.854   1 
  -1  -7  -1 7568.01 932.628   1 
  -1  -7  -2 11576.0 1161.88   1 
   1  -7   2 9705.79 920.028   1 
  -1  -7  -2 9788.14 629.185   2 
  -1  -7  -3 15210.2 1404.72   1 
  -1  -7  -3 13868.7 823.697   2 
  -1  -7  -4 295.768 260.572   2 
  -1  -7  -4 252.833 395.844   1 
   1  -7   4 207.050 286.061   1 
  -1  -7  -5 10242.3 1229.80   1 
   1  -7   5 10962.7 866.156   1 
  -1  -7  -5 10607.0 833.871   2 
  -1  -7  -6 4436.89 876.901   1 
  -1  -7  -6 2774.47 519.564   2 
  -1  -7  -7 1918.98 685.146   1 
  -1  -7  -8 7365.25 1170.59   1 
  -1  -7  -9 5837.88 1098.72   1 
  -1  -7 -10 8877.56 1369.77   1 
  -1  -7 -11 5557.29 1115.13   1 
  -1  -7 -12 13414.8 1719.34   1 
  -1  -7 -13 3349.68 1137.62   1 
  -1  -7 -14 1235.50 799.708   1 
  -1  -7 -15 822.520 768.910   1 
   1  -6 -17 1335.57 755.019   1 
   1  -6 -16 2775.21 899.260   1 
   1  -6 -15 9636.23 1447.48   1 
   1  -6 -14 3255.81 963.171   1 
   1  -6 -13 1450.70 647.417   1 
   1  -6 -12 8729.98 1235.96   1 
   1  -6 -11 6986.31 1129.00   1 
   1  -6 -10 24863.4 1874.97   1 
   1  -6  -9 16925.5 1520.19   1 
   1  -6  -8 6672.01 993.359   1 
   1  -6  -7 6031.33 896.430   1 
   1  -6  -7 4702.15 731.069   2 
   1  -6  -6 26837.9 1574.89   2 
   1  -6  -6 29298.6 1803.14   1 
   1  -6  -5 26265.9 1679.82   1 
   1  -6  -4 1206.29 491.368   1 
  -1  -6   4 729.520 258.016   1 
   1  -6  -3 25219.1 1550.95   1 
  -1  -6   3 23164.6 1159.81   1 
   1  -6  -2 10514.3 1024.72   1 
  -1  -6   2 12136.4 911.468   1 
   1  -6  -1 25816.1 1493.52   1 
  -1  -6   1 28128.3 1436.07   1 
  -1  -6   0 9575.52 896.984   1 
  -1  -6   0 8103.10 399.232   2 
  -1  -6  -1 78399.1 2631.68   1 
  -1  -6  -1 74609.2 1428.29   2 
  -1  -6  -2 9561.85 1012.83   1 
  -1  -6  -2 9079.90 576.512   2 
  -1  -6  -3 23493.8 990.126   2 
  -1  -6  -3 22365.4 1549.08   1 
  -1  -6  -4 38706.6 1350.45   2 
  -1  -6  -4 35677.1 1997.70   1 
  -1  -6  -5 6826.49 631.880   2 
  -1  -6  -5 6508.00 969.997   1 
  -1  -6  -6 1702.42 398.051   2 
  -1  -6  -6 3693.74 731.377   1 
  -1  -6  -7 10058.4 1232.70   1 
  -1  -6  -7 6941.63 714.672   2 
  -1  -6  -8 29064.8 1499.78   2 
  -1  -6  -8 27169.1 2023.74   1 
  -1  -6  -9 5525.11 1046.55   1 
  -1  -6 -10 21776.8 1925.02   1 
  -1  -6 -11 12278.2 1511.65   1 
  -1  -6 -12 3437.73 962.935   1 
  -1  -6 -13 18041.6 1957.53   1 
  -1  -6 -14 5398.43 1209.02   1 
  -1  -6 -15 2045.98 946.405   1 
  -1  -6 -16 7431.68 1447.37   1 
   1  -5 -19 149.085 575.476   1 
   1  -5 -18-563.721 647.681   1 
   1  -5 -17 3629.04 954.315   1 
   1  -5 -16 2144.21 683.671   1 
   1  -5 -15 10592.7 1377.38   1 
   1  -5 -14 3007.60 818.984   1 
   1  -5 -13 13800.4 1471.02   1 
   1  -5 -12 27611.1 1969.42   1 
   1  -5 -11 5602.71 929.283   1 
   1  -5 -10 16721.0 1464.75   1 
   1  -5  -9 8399.32 1033.70   1 
   1  -5  -8 4818.59 707.901   2 
   1  -5  -8 5195.99 810.599   1 
   1  -5  -7 2566.54 512.214   2 
   1  -5  -7 4296.52 744.573   1 
   1  -5  -6 16718.2 1178.66   2 
   1  -5  -6 17824.7 1336.68   1 
   1  -5  -5 20069.4 1376.76   1 
   1  -5  -5 18177.7 1195.20   2 
   1  -5  -4 55119.0 1958.79   2 
  -1  -5   4 59884.7 1473.32   1 
   1  -5  -4 61385.4 2328.64   1 
  -1  -5   3 19320.0 948.971   1 
  -1  -5   2 972.855 310.052   1 
  -1  -5   1 85446.6 2256.20   1 
  -1  -5   0 120058. 1438.48   2 
  -1  -5   0 128954. 2922.63   1 
  -1  -5  -1 11503.7 953.933   1 
  -1  -5  -1 11285.7 527.680   2 
  -1  -5  -2 38922.4 1780.20   1 
  -1  -5  -2 38629.2 1094.82   2 
  -1  -5  -3 59362.1 2293.81   1 
  -1  -5  -3 60637.1 1506.94   2 
  -1  -5  -4 4376.57 701.422   1 
  -1  -5  -5 29826.5 1760.27   1 
  -1  -5  -6 23578.7 1632.29   1 
  -1  -5  -7 6420.46 943.641   1 
  -1  -5  -8 36645.3 2179.29   1 
  -1  -5  -9 20021.4 1685.82   1 
  -1  -5 -10 728.138 499.678   1 
   1  -5  10 1059.21 288.318   1 
  -1  -5 -11 3133.97 798.277   1 
   1  -5  11 1994.61 348.706   1 
   1  -5  12 1485.76 282.390   1 
  -1  -5 -12 1933.07 679.833   1 
  -1  -5 -13 15689.7 1720.85   1 
  -1  -5 -14 3139.90 926.760   1 
  -1  -5 -15 6954.84 1263.39   1 
  -1  -5 -16 4795.20 1137.51   1 
  -1  -5 -17 1200.10 655.521   1 
  -1  -5 -18 4540.77 1164.83   1 
   1  -4 -21 3775.70 1069.93   1 
   1  -4 -20 1731.22 797.586   1 
   1  -4 -19 2443.14 873.264   1 
   1  -4 -18 2958.43 952.123   1 
   1  -4 -17 1750.78 749.802   1 
   1  -4 -16 24350.4 2030.77   1 
   1  -4 -15 16268.9 1616.53   1 
   1  -4 -14 15081.3 1515.81   1 
   1  -4 -13 17557.3 1546.59   1 
   1  -4 -12 6033.74 922.064   1 
   1  -4 -11 40741.8 2146.56   1 
   1  -4 -10 3846.53 703.841   1 
   1  -4  -9 56645.7 2213.42   2 
   1  -4  -9 54196.7 2327.47   1 
   1  -4  -8 1069.83 402.395   2 
   1  -4  -8 693.404 325.082   1 
   1  -4  -7 21939.3 1302.48   2 
   1  -4  -7 24935.9 1481.63   1 
   1  -4  -6 44266.9 1736.70   2 
   1  -4  -6 45136.6 1966.42   1 
   1  -4  -5 25627.9 1316.24   2 
   1  -4  -4 75657.0 2190.44   2 
  -1  -4   3 95367.7 1795.17   1 
  -1  -4   2 124815. 2270.31   1 
  -1  -4   1 58074.2 1676.09   1 
  -1  -4   0 28758.2 1257.25   1 
  -1  -4  -1 83163.6 2228.39   1 
  -1  -4  -2 66701.7 2115.79   1 
  -1  -4  -3 115631. 2923.34   1 
  -1  -4  -4 113738. 3022.62   1 
  -1  -4  -5 11316.9 1024.21   1 
  -1  -4  -6 526.955 346.346   1 
  -1  -4  -7 49673.5 2288.08   1 
  -1  -4  -8 13475.1 1256.11   1 
  -1  -4  -9 5126.22 840.928   1 
   1  -4   9 3399.37 476.787   1 
  -1  -4 -10 63696.8 2873.96   1 
   1  -4  10 63347.2 1869.04   1 
   1  -4  11 4456.16 530.288   1 
  -1  -4 -11 4757.09 905.794   1 
   1  -4  12 11965.9 826.249   1 
  -1  -4 -12 11211.6 1334.93   1 
  -1  -4 -13 18360.8 1761.12   1 
   1  -4  13 15526.3 936.949   1 
   1  -4  14 13147.0 872.940   1 
  -1  -4 -14 12822.4 1541.60   1 
  -1  -4 -15 9238.75 1379.42   1 
  -1  -4 -16 621.068 585.100   1 
  -1  -4 -17 5627.38 1156.55   1 
  -1  -4 -18 506.755 546.076   1 
  -1  -4 -19 762.573 713.968   1 
  -1  -4 -20 3642.98 1183.47   1 
   1  -3 -22 2437.73 856.200   1 
   1  -3 -21 53.5339 577.338   1 
   1  -3 -20 7512.90 1322.44   1 
   1  -3 -19 2767.48 889.541   1 
   1  -3 -18 1432.13 645.293   1 
   1  -3 -17 1647.29 649.125   1 
   1  -3 -16 681.348 493.476   1 
   1  -3 -15 12914.7 1356.10   1 
   1  -3 -14 20528.4 1613.34   1 
   1  -3 -13 94634.8 3281.93   1 
   1  -3 -12 37204.5 1997.99   1 
   1  -3 -11 103177. 3183.87   1 
   1  -3 -10 100503. 2909.15   2 
   1  -3 -10 109009. 3140.42   1 
   1  -3  -9 8956.74 864.080   2 
   1  -3  -9 10085.5 954.566   1 
   1  -3  -8 16612.9 1163.58   1 
   1  -3  -8 16200.3 1084.17   2 
   1  -3  -7 49997.3 1806.72   2 
   1  -3  -7 50137.7 1987.31   1 
   1  -3  -6 6601.16 661.652   2 
   1  -3  -5 123648. 2634.40   2 
  -1  -3   4 73002.5 916.391   2 
   1  -3  -4 75486.6 2002.36   2 
  -1  -3   3 141114. 1234.84   2 
   1  -3  -3 144715. 2701.12   2 
  -1  -3   2 301291. 3088.45   1 
  -1  -3   1 69533.4 1627.33   1 
  -1  -3   0 77553.7 1849.66   1 
  -1  -3  -1 26845.5 1159.10   1 
  -1  -3  -2 165351. 3025.60   1 
  -1  -3  -3 39941.4 1580.34   1 
  -1  -3  -4 140412. 3114.48   1 
  -1  -3  -5 6430.18 753.331   1 
  -1  -3  -6 126779. 3244.22   1 
  -1  -3  -7 59626.5 2339.51   1 
  -1  -3  -8 8623.56 984.522   1 
   1  -3   8 8458.39 701.509   1 
   1  -3   9 93084.8 2273.50   1 
  -1  -3  -9 97586.5 3246.74   1 
  -1  -3  -9 94892.7 2877.81   3 
   1  -3  10 29750.6 1303.53   1 
  -1  -3 -10 31937.2 1715.35   3 
  -1  -3 -10 30481.5 1891.91   1 
  -1  -3 -11 3855.42 772.654   1 
   1  -3  11 3550.49 495.762   1 
  -1  -3 -11 3455.10 626.179   3 
  -1  -3 -12 36122.5 1931.72   3 
   1  -3  12 35160.9 1467.62   1 
  -1  -3 -12 36548.4 2240.57   1 
  -1  -3 -13 56135.0 2495.10   3 
  -1  -3 -13 56511.1 2885.33   1 
  -1  -3 -14 49273.1 2811.35   1 
  -1  -3 -14 49791.8 2411.95   3 
  -1  -3 -15 20371.4 1936.60   1 
  -1  -3 -15 19519.5 1573.76   3 
  -1  -3 -16 895.703 502.151   3 
  -1  -3 -16 528.295 584.512   1 
  -1  -3 -17 15516.3 1456.04   3 
  -1  -3 -17 13444.5 1693.58   1 
  -1  -3 -18 1712.55 556.068   3 
  -1  -3 -18 2365.00 862.112   1 
  -1  -3 -19 1698.43 768.033   1 
  -1  -3 -19 1315.47 473.237   3 
  -1  -3 -20 1864.14 947.079   1 
  -1  -3 -21 846.976 760.838   1 
   1  -2 -24 1499.19 815.849   1 
   1  -2 -23 6626.09 1346.55   1 
   1  -2 -22 2437.15 882.717   1 
   1  -2 -21 5039.06 1058.76   1 
   1  -2 -20 609.046 493.503   1 
   1  -2 -19 20375.0 1861.36   1 
   1  -2 -18 9219.66 1234.82   1 
   1  -2 -17 575.681 528.371   1 
   1  -2 -16 17491.4 1545.90   1 
   1  -2 -15 21869.3 1647.65   1 
   1  -2 -14 1417.80 477.672   1 
   1  -2 -13 7135.94 902.113   1 
   1  -2 -12 19408.6 1353.97   1 
   1  -2 -11 29993.4 1560.72   2 
   1  -2 -11 29991.1 1605.63   1 
   1  -2 -10 18583.2 1181.74   2 
   1  -2 -10 16997.6 1164.76   1 
   1  -2  -9 25220.7 1311.84   2 
   1  -2  -9 23950.6 1326.12   1 
   1  -2  -8 33392.3 1456.78   2 
   1  -2  -8 34322.9 1526.20   1 
   1  -2  -7 104576. 2459.93   2 
   1  -2  -7 110142. 2652.24   1 
   1  -2  -6 18287.4 989.770   2 
  -1  -2   5 59994.7 1104.82   2 
   1  -2  -5 60072.3 1698.37   2 
  -1  -2   4 205342. 1924.26   2 
   1  -2  -4 200802. 3055.19   2 
   1  -2  -3 66092.8 1696.60   2 
  -1  -2   3 68074.1 1126.30   2 
  -1  -2   0 399672. 3791.48   1 
  -1  -2  -1 118970. 2227.20   1 
  -1  -2  -2 386455. 4321.23   1 
  -1  -2  -3 218534. 3440.05   1 
  -1  -2  -4 81992.2 2192.60   3 
  -1  -2  -4 80041.2 2194.30   1 
  -1  -2  -5 79690.5 2258.11   3 
  -1  -2  -5 81124.1 2342.84   1 
  -1  -2  -6 74125.7 2333.86   1 
  -1  -2  -6 70676.5 2221.76   3 
  -1  -2  -7 73403.4 2337.70   3 
  -1  -2  -7 75693.7 2471.55   1 
   1  -2   7 74510.7 1991.17   1 
  -1  -2  -8 36348.4 1710.52   3 
  -1  -2  -8 37530.2 1843.16   1 
   1  -2   8 35785.2 1405.67   1 
  -1  -2  -9 5278.55 717.089   3 
  -1  -2  -9 4967.84 737.450   1 
   1  -2   9 5619.99 597.108   1 
  -1  -2 -10 444.792 387.073   1 
   1  -2  10 694.993 285.503   1 
  -1  -2 -10 1006.66 385.481   3 
  -1  -2 -11 68162.7 2615.20   3 
  -1  -2 -11 71425.4 2874.28   1 
   1  -2  11 72942.0 2144.78   1 
  -1  -2 -12 4843.02 760.673   3 
  -1  -2 -12 5277.98 850.310   1 
  -1  -2 -13 15317.4 1346.79   3 
  -1  -2 -13 15402.9 1485.29   1 
  -1  -2 -14 38311.4 2399.22   1 
  -1  -2 -14 35247.1 2080.26   3 
   1  -2  15 12553.6 1009.16   1 
  -1  -2 -15 12088.5 1415.13   1 
  -1  -2 -15 13015.3 1335.61   3 
  -1  -2 -16 6972.65 1010.92   3 
   1  -2  16 6388.57 787.811   1 
  -1  -2 -16 7188.24 1166.36   1 
  -1  -2 -17 24567.0 2168.83   1 
  -1  -2 -17 22870.4 1833.67   3 
  -1  -2 -18 18274.6 1688.25   3 
  -1  -2 -18 17891.3 1949.56   1 
  -1  -2 -19-764.501 647.067   1 
  -1  -2 -19 967.023 484.730   3 
  -1  -2 -20 10828.7 1640.27   1 
  -1  -2 -21 2002.64 835.793   1 
  -1  -2 -22 5865.49 1438.97   1 
  -1  -2 -23 4966.67 1230.71   1 
   1  -1 -23 115.099 545.690   1 
   1  -1 -22 2111.28 798.728   1 
   1  -1 -21 2917.37 873.528   1 
   1  -1 -20 1155.93 587.438   1 
   1  -1 -19 218.408 441.052   1 
   1  -1 -18 2548.28 700.772   1 
   1  -1 -17 4556.60 556.554   3 
   1  -1 -17 3347.08 768.126   1 
   1  -1 -16 30674.3 1892.14   1 
   1  -1 -16 28493.3 1294.39   3 
   1  -1 -15 1668.63 511.589   1 
   1  -1 -15 1044.53 271.443   3 
   1  -1 -14 15511.9 1254.53   1 
   1  -1 -14 14314.7 843.723   3 
   1  -1 -13 43731.1 1951.72   1 
   1  -1 -13 46291.7 1414.70   3 
   1  -1 -12 5061.56 690.331   2 
   1  -1 -12 5204.36 446.697   3 
   1  -1 -12 5065.86 682.866   1 
   1  -1 -11 23089.4 1302.14   2 
   1  -1 -11 21997.5 828.500   3 
   1  -1 -11 22271.0 1286.18   1 
   1  -1 -10 105375. 1603.68   3 
   1  -1 -10 104117. 2655.16   2 
   1  -1 -10 106828. 2664.33   1 
   1  -1  -9 48817.0 939.568   3 
   1  -1  -9 48316.1 1730.94   2 
   1  -1  -9 51285.0 1763.68   1 
   1  -1  -8 39382.4 1493.25   2 
   1  -1  -8 42004.0 1543.62   1 
   1  -1  -7 180318. 3053.65   2 
  -1  -1   6 95185.7 1684.38   2 
   1  -1  -6 97683.0 2129.79   2 
  -1  -1   5 174159. 2138.97   2 
   1  -1  -5 173897. 2716.79   2 
  -1  -1   4 137421. 1829.17   2 
   1  -1  -4 131116. 2267.74   2 
  -1  -1   3 68725.8 1302.17   2 
   1  -1  -3 68702.3 1601.15   2 
  -1  -1  -2 11257.0 705.771   1 
  -1  -1  -3 20748.7 1007.94   1 
  -1  -1  -4 269586. 3820.42   1 
  -1  -1  -5 70429.6 2112.26   3 
  -1  -1  -5 73715.4 2111.20   1 
   1  -1   5 72494.1 1852.73   1 
  -1  -1  -6 116124. 2820.16   3 
  -1  -1  -6 123587. 2884.59   1 
   1  -1   6 115442. 2419.65   1 
  -1  -1  -7 40409.9 1730.84   1 
  -1  -1  -7 41531.9 1776.44   3 
   1  -1   7 40943.0 1492.07   1 
  -1  -1  -8 28270.8 1539.32   3 
  -1  -1  -8 27631.2 1520.07   1 
   1  -1   8 27286.5 1248.56   1 
  -1  -1  -9 50990.1 2148.37   1 
   1  -1   9 50402.2 1752.35   1 
  -1  -1  -9 50336.3 2142.42   3 
  -1  -1 -10 50843.5 2239.18   3 
  -1  -1 -10 48876.6 2194.26   1 
   1  -1  10 49816.7 1791.17   1 
  -1  -1 -11 5672.23 820.132   3 
  -1  -1 -11 7377.16 934.165   1 
  -1  -1 -12 103536. 3437.84   3 
  -1  -1 -12 103097. 3463.44   1 
  -1  -1 -13 2406.72 702.711   1 
   1  -1  13 1512.98 454.958   1 
  -1  -1 -13 2112.29 586.317   3 
  -1  -1 -14 37452.1 2224.33   3 
  -1  -1 -14 36239.9 2252.93   1 
   1  -1  14 37103.4 1740.64   1 
  -1  -1 -15 24162.6 1956.85   1 
  -1  -1 -15 23617.3 1821.05   3 
   1  -1  15 25978.0 1508.12   1 
  -1  -1 -16 3158.63 708.794   3 
  -1  -1 -16 1291.64 539.067   1 
  -1  -1 -17 2015.36 694.582   1 
  -1  -1 -17 1724.14 563.700   3 
  -1  -1 -18 7230.53 1174.72   3 
  -1  -1 -18 8670.19 1337.12   1 
  -1  -1 -19 5519.79 1014.81   3 
  -1  -1 -19 4725.90 1117.95   1 
  -1  -1 -20 193.702 555.936   1 
  -1  -1 -20-220.859 499.105   3 
  -1  -1 -21 1022.20 722.755   1 
  -1  -1 -22 3650.78 1107.76   1 
   1   0 -22 1385.57 602.083   1 
   1   0 -21 1736.03 677.504   1 
   1   0 -20 1086.50 475.810   1 
   1   0 -19 3677.55 816.689   1 
   1   0 -18 12132.1 1258.38   1 
   1   0 -18 14224.8 1200.45   3 
   1   0 -17 31015.9 1742.03   3 
   1   0 -17 28882.2 1835.76   1 
   1   0 -16 2080.04 518.666   1 
   1   0 -16 1301.78 397.153   3 
   1   0 -15 3056.99 545.863   3 
   1   0 -15 2424.22 537.605   1 
   1   0 -14 2171.13 499.744   1 
   1   0 -14 1895.30 412.771   3 
   1   0 -13 25319.4 1438.00   1 
   1   0 -13 23577.1 1321.21   3 
   1   0 -12 39644.9 1667.38   1 
   1   0 -12 37130.0 1676.49   2 
   1   0 -12 37068.5 1566.27   3 
   1   0 -11 4950.32 611.248   2 
   1   0 -11 5498.80 613.413   1 
   1   0 -10 9636.55 787.424   2 
   1   0 -10 10976.3 762.051   3 
   1   0 -10 10042.1 749.277   1 
   1   0  -9 816.201 239.992   3 
   1   0  -9 1761.69 358.893   2 
   1   0  -9 1041.44 300.012   1 
   1   0  -8 453297. 4791.23   2 
   1   0  -8 454450. 4489.31   1 
   1   0  -7 192550. 2977.92   2 
   1   0  -6 472243. 4439.92   2 
   1   0  -5 142637. 2314.30   2 
   1   0  -4 73325.6 1597.59   2 
   1   0  -3 1508.83 235.874   2 
   1   0  -3 2534.77 217.309   3 
   1   0  -2 97.8211 76.9531   3 
   1   0  -1 191090. 2209.93   3 
   1   0   0 779100. 4901.23   3 
   1   0   1 474123. 4194.36   3 
   1   0   2 999999. 6593.21   3 
   1   0   3 677432. 5840.42   3 
   1   0   4 16410.1 982.226   3 
   1   0   5 195784. 3570.41   3 
  -1   0  -6 1097.64 318.328   1 
  -1   0  -6 1457.03 425.423   3 
   1   0   6 1217.36 319.999   3 
  -1   0  -7 15492.3 1051.63   1 
   1   0   7 16392.3 1157.09   3 
   1   0   7 15590.7 950.910   1 
  -1   0  -7 16731.4 1182.49   3 
   1   0   8 12090.9 873.022   1 
   1   0   8 11214.1 1001.32   3 
  -1   0  -8 11547.6 961.148   1 
  -1   0  -8 10614.4 1007.44   3 
   1   0   9 34174.3 1814.52   3 
   1   0   9 34040.9 1485.87   1 
  -1   0  -9 35251.2 1726.68   1 
  -1   0  -9 34748.3 1859.58   3 
   1   0  10 6593.33 858.586   3 
  -1   0 -10 6117.54 773.372   1 
  -1   0 -10 5397.72 791.759   3 
  -1   0 -11 13107.8 1162.40   1 
  -1   0 -11 11606.3 1182.88   3 
  -1   0 -12 983.163 457.446   3 
   1   0  12 863.604 344.208   1 
  -1   0 -12 742.105 395.380   1 
  -1   0 -13 28426.0 1969.31   3 
  -1   0 -13 26318.0 1793.56   1 
   1   0  13 27377.3 1527.12   1 
   1   0  14 5392.56 725.461   1 
  -1   0 -14 5605.11 942.994   3 
  -1   0 -14 4707.39 865.592   1 
  -1   0 -15 111.456 363.229   1 
  -1   0 -15 306.300 341.483   3 
  -1   0 -16 911.106 517.019   1 
  -1   0 -16 1163.71 574.709   3 
  -1   0 -17 9053.62 1260.57   1 
  -1   0 -17 8744.41 1257.70   3 
  -1   0 -18 3706.28 900.829   3 
  -1   0 -18 2326.32 766.696   1 
  -1   0 -19 1256.09 627.736   3 
  -1   0 -20-219.263 296.145   3 
  -1   0 -21 2376.33 778.795   3 
   1   1 -20 1761.22 578.391   1 
   1   1 -19 1536.27 516.398   3 
   1   1 -19 1322.31 523.159   1 
   1   1 -18 2293.85 565.464   1 
   1   1 -18 2466.96 634.007   3 
   1   1 -17 3171.54 687.085   3 
   1   1 -17 4156.07 706.177   1 
   1   1 -16 28695.4 1644.51   1 
   1   1 -16 28704.1 1898.25   3 
   1   1 -15 1249.58 436.821   3 
   1   1 -15 1638.88 442.294   1 
   1   1 -14 15091.4 1068.27   1 
   1   1 -14 14935.0 1298.49   3 
   1   1 -13 41840.1 1804.80   2 
   1   1 -13 43899.5 2105.76   3 
   1   1 -13 43142.9 1687.17   1 
   1   1 -12 4947.84 566.632   1 
   1   1 -12 4612.77 583.736   2 
   1   1 -11 22072.3 1074.99   1 
   1   1 -11 20355.6 1161.49   2 
   1   1 -10 110806. 2202.74   1 
   1   1 -10 105631. 2469.03   2 
   1   1  -9 50244.7 1626.25   2 
   1   1  -9 48176.5 1341.26   1 
   1   1  -8 40047.6 1382.71   2 
   1   1  -8 39088.3 1119.12   1 
   1   1  -7 183151. 2261.23   1 
   1   1  -7 180501. 2755.24   2 
   1   1  -6 100249. 1946.40   2 
   1   1  -5 168563. 2387.00   2 
   1   1  -4 130155. 2007.50   2 
  -1   1   3 69521.0 1009.13   3 
   1   1  -1 868664. 5321.32   3 
   1   1   0 55726.7 1412.51   3 
   1   1   1 877268. 5929.84   3 
   1   1   2 12838.6 768.755   3 
   1   1   3 19969.6 1016.32   3 
   1   1   4 273643. 3911.95   3 
   1   1   5 69198.6 2080.28   3 
   1   1   6 118553. 2854.78   3 
  -1   1  -7 39885.3 1969.64   3 
   1   1   7 36478.8 1683.74   3 
  -1   1  -8 28214.0 1726.51   3 
   1   1   8 27926.8 1541.74   3 
  -1   1  -9 52999.8 2463.88   3 
   1   1   9 50936.4 2162.70   3 
   1   1  10 50151.2 1963.85   1 
   1   1  10 51845.1 2268.57   3 
  -1   1 -10 48645.7 2451.92   3 
   1   1  11 7211.57 795.724   1 
  -1   1 -11 8283.07 1084.00   3 
   1   1  11 7642.65 938.446   3 
   1   1  12 101260. 3415.47   3 
  -1   1 -12 104068. 3860.35   3 
   1   1  12 107008. 3008.29   1 
  -1   1 -13 1302.21 613.715   3 
   1   1  13 1451.92 464.361   3 
  -1   1 -14 37322.1 2463.18   3 
  -1   1 -15 25185.0 2108.69   3 
  -1   1 -16 2619.73 780.538   3 
  -1   1 -17 1914.21 730.799   3 
  -1   1 -18 6319.05 1254.14   3 
  -1   1 -19 3891.75 975.571   3 
  -1   1 -20 1203.61 646.134   3 
  -1   1 -21 2639.15 768.163   3 
  -1   1 -22 2611.56 841.834   3 
   1   2 -20 642.023 397.040   3 
   1   2 -19 22413.5 2016.52   3 
   1   2 -18 10804.2 1066.12   1 
   1   2 -18 11327.1 1432.04   3 
   1   2 -17 553.764 351.325   1 
   1   2 -17 66.3119 411.093   3 
   1   2 -16 16051.4 1166.26   1 
   1   2 -16 15053.3 1550.47   3 
   1   2 -15 23342.0 1317.58   1 
   1   2 -15 21636.8 1782.90   3 
   1   2 -14 1639.34 441.750   2 
   1   2 -14 1800.12 395.459   1 
   1   2 -13 8544.25 854.146   2 
   1   2 -13 6902.00 649.983   1 
   1   2 -12 22037.5 1235.93   2 
   1   2 -12 18417.8 934.703   1 
   1   2 -11 31791.5 1419.14   2 
   1   2 -11 30462.8 1112.60   1 
   1   2 -10 16973.4 993.175   2 
   1   2 -10 18027.4 774.630   1 
   1   2  -9 24724.9 1133.89   2 
   1   2  -9 23892.4 801.243   1 
   1   2  -8 32583.1 817.773   1 
   1   2  -8 33137.4 1215.68   2 
   1   2  -7 102459. 1993.62   2 
   1   2  -7 103990. 1226.93   1 
   1   2  -6 17781.0 778.923   2 
  -1   2   6 18197.2 516.141   3 
   1   2  -6 18221.7 450.005   1 
   1   2  -5 58901.8 1350.26   2 
   1   2  -3 67679.1 1097.24   1 
   1   2  -2 278320. 2472.90   1 
   1   2  -1 563742. 3888.53   1 
   1   2   0 396115. 3560.75   1 
   1   2   1 114522. 2057.26   1 
   1   2   1 115187. 2386.11   3 
   1   2   2 387223. 4531.07   3 
   1   2   2 381020. 3968.26   1 
   1   2   3 217776. 3509.49   3 
   1   2   4 82773.0 2267.20   3 
   1   2   5 78239.0 2311.70   3 
   1   2   6 70033.4 2271.95   3 
   1   2   7 76318.3 2449.83   3 
  -1   2  -8 40387.0 2213.15   3 
   1   2   8 37968.8 1805.45   3 
   1   2   9 6332.39 802.388   3 
  -1   2  -9 5066.51 886.064   3 
   1   2  10 339.829 347.938   3 
  -1   2 -10 446.587 414.931   3 
  -1   2 -11 73173.0 3312.79   3 
   1   2  11 74883.6 2842.87   3 
   1   2  11 69563.2 2497.83   1 
  -1   2 -12 4211.82 901.189   3 
   1   2  12 4058.84 762.994   3 
  -1   2 -13 16808.9 1718.59   3 
   1   2  13 13803.0 1335.88   3 
  -1   2 -14 37123.1 2614.83   3 
   1   2  14 36670.0 2205.83   3 
   1   2  15 10888.4 1280.22   3 
  -1   2 -15 10487.7 1451.27   3 
   1   2  16 6113.21 942.900   3 
  -1   2 -16 8414.77 1357.63   3 
  -1   2 -17 23815.3 2242.77   3 
  -1   2 -18 19600.5 2144.31   3 
  -1   2 -19-663.761 560.213   3 
  -1   2 -20 14826.8 1927.53   3 
  -1   2 -21 2224.96 855.248   3 
  -1   2 -22 5368.93 1214.77   3 
   1   3 -21 2769.60 842.328   3 
   1   3 -20 8554.00 1424.54   3 
   1   3 -19 249.386 399.328   3 
   1   3 -18 1113.28 606.471   3 
   1   3 -17 2361.67 753.115   3 
   1   3 -15 12445.1 1073.18   2 
   1   3 -14 20734.2 1321.12   2 
   1   3 -13 90535.0 2571.77   2 
   1   3 -12 34908.6 1578.75   2 
   1   3 -11 98709.8 2465.06   2 
  -1   3  11 95214.1 1646.81   3 
  -1   3  10 100281. 1735.10   3 
   1   3 -10 99530.8 2298.52   2 
   1   3  -9 7438.27 623.802   2 
  -1   3   9 7921.89 513.302   3 
   1   3  -8 15233.3 805.483   2 
  -1   3   8 15747.7 720.712   3 
   1   3  -7 47657.6 1318.50   2 
  -1   3   7 49952.6 1266.91   3 
   1   3  -6 5041.30 408.274   2 
  -1   3   5 125499. 2349.60   2 
  -1   3   4 76679.3 1761.81   2 
   1   3  -4 72552.5 893.228   1 
  -1   3   3 148846. 2378.89   2 
   1   3  -3 147208. 1624.64   1 
  -1   3   2 302081. 3334.55   2 
   1   3  -2 299141. 2679.53   1 
   1   3  -1 69285.5 1449.83   1 
  -1   3   1 64102.2 1520.35   2 
   1   3   0 74455.5 1636.09   1 
  -1   3   0 75659.8 1670.77   2 
   1   3   1 25208.9 1036.96   1 
   1   3   2 165890. 2813.20   1 
   1   3   2 172976. 3347.05   3 
   1   3   3 38445.1 1621.99   3 
   1   3   3 39336.3 1449.31   1 
   1   3   4 148400. 3262.25   3 
   1   3   4 149658. 2929.41   1 
   1   3   5 5819.38 705.901   3 
   1   3   6 133243. 3292.54   3 
   1   3   7 55998.0 2214.25   3 
   1   3   8 10631.5 1020.26   3 
   1   3   9 94766.0 3083.63   3 
   1   3  10 28352.3 1727.19   3 
  -1   3 -10 32062.2 2280.67   3 
   1   3  11 3506.44 690.341   3 
  -1   3 -11 2722.66 769.482   3 
   1   3  12 36354.8 2103.02   3 
  -1   3 -12 33146.7 2488.09   3 
   1   3  13 55854.8 2680.44   3 
  -1   3 -13 52880.7 3201.43   3 
  -1   3 -14 48546.5 3185.25   3 
   1   3  14 48622.5 2577.27   3 
   1   3  15 23101.7 1821.75   3 
  -1   3 -15 22868.1 2276.28   3 
  -1   3 -16 946.801 585.142   3 
  -1   3 -17 15334.6 1936.67   3 
  -1   3 -18 1971.66 763.561   3 
  -1   3 -19 1069.18 670.895   3 
  -1   3 -20 2259.91 895.222   3 
  -1   3 -21 1535.48 720.006   3 
  -1   3 -22-171.368 652.929   3 
   1   4 -21 4329.77 1183.26   3 
   1   4 -20 567.561 443.777   3 
   1   4 -19 2190.68 746.700   3 
   1   4 -15 15275.1 1210.05   2 
   1   4 -14 14995.7 1111.44   2 
   1   4 -13 15913.6 1104.03   2 
  -1   4  13 16485.2 824.786   3 
   1   4 -12 5840.67 649.787   2 
  -1   4  12 4960.02 493.907   3 
  -1   4  11 42888.7 1449.17   3 
   1   4 -11 41955.1 1549.04   2 
   1   4 -10 3410.60 443.716   2 
  -1   4  10 3398.22 441.240   3 
   1   4  -9 56252.4 1570.65   2 
  -1   4   9 56293.7 1700.53   3 
  -1   4   8 749.341 248.100   3 
   1   4  -8 936.619 240.937   2 
  -1   4   4 80642.6 1881.52   2 
  -1   4   3 97142.3 1990.29   2 
  -1   4   2 123101. 2175.41   2 
   1   4  -1 59495.2 1528.05   1 
  -1   4   1 61280.5 1520.61   2 
   1   4   0 30420.0 1160.05   1 
  -1   4   0 28313.5 1022.92   2 
  -1   4  -1 79220.8 1721.35   2 
   1   4   1 80277.7 2002.00   1 
   1   4   2 67675.1 1953.72   1 
   1   4   3 117021. 3104.52   3 
   1   4   3 120299. 2729.24   1 
   1   4   4 116247. 2804.65   1 
   1   4   4 114804. 3147.85   3 
   1   4   5 11187.5 1023.69   3 
   1   4   5 12794.2 984.136   1 
   1   4   6 180.666 267.178   3 
   1   4   6 900.404 380.301   1 
   1   4   7 50968.1 2269.13   3 
   1   4   7 51182.1 2089.52   1 
   1   4   8 13916.3 1228.49   3 
   1   4   8 12932.5 1104.92   1 
   1   4   9 4389.72 736.722   3 
   1   4  10 65154.0 2776.70   3 
   1   4  11 3868.64 778.308   3 
   1   4  12 13841.4 1382.17   3 
  -1   4 -12 13342.4 1675.80   3 
   1   4  13 17517.1 1578.28   3 
  -1   4 -13 15089.6 1916.76   3 
  -1   4 -14 16262.2 1999.07   3 
   1   4  14 12304.4 1346.65   3 
  -1   4 -15 6849.68 1338.90   3 
  -1   4 -16-1078.57 729.340   3 
  -1   4 -17 4445.03 1167.03   3 
  -1   4 -18 1878.29 890.862   3 
  -1   4 -19 720.756 698.755   3 
  -1   4 -20-317.613 531.384   3 
  -1   4 -21 1236.19 769.733   3 
   1   5 -21 1600.58 757.219   3 
   1   5 -20 1388.97 650.017   3 
   1   5 -13 12668.3 947.247   2 
   1   5 -12 33243.0 1401.88   2 
  -1   5  12 30630.9 1474.02   3 
   1   5 -11 5308.27 523.745   2 
  -1   5  11 5169.53 643.117   3 
  -1   5  10 16737.8 1128.30   3 
  -1   5   9 8466.44 808.754   3 
  -1   5   8 5471.66 648.536   3 
  -1   5   3 19992.3 970.848   2 
  -1   5   2 745.234 259.777   2 
  -1   5   1 85002.7 1781.74   2 
  -1   5   0 126235. 2107.53   2 
  -1   5  -1 10302.9 619.540   2 
  -1   5  -2 38693.4 1173.10   2 
  -1   5  -3 59094.6 1485.48   2 
   1   5   3 60903.8 2142.93   1 
   1   5   4 3954.38 668.224   3 
   1   5   4 4064.17 621.872   1 
   1   5   5 30316.5 1814.59   3 
   1   5   5 32782.6 1710.81   1 
   1   5   6 21751.8 1573.99   3 
   1   5   6 26174.1 1583.28   1 
   1   5   7 7231.80 928.454   3 
   1   5   8 32512.7 1994.80   3 
   1   5   9 20546.1 1618.34   3 
   1   5  10 878.659 431.038   3 
   1   5  11 1818.95 523.155   3 
   1   5  12 2013.20 608.554   3 
  -1   5 -14 2515.97 933.104   3 
  -1   5 -15 8819.27 1617.92   3 
  -1   5 -16 3420.49 1064.05   3 
  -1   5 -17 913.424 739.455   3 
  -1   5 -18 2712.13 975.662   3 
  -1   5 -19 6923.58 1565.33   3 
  -1   6  10 21314.9 1447.45   3 
  -1   6   9 18456.7 1316.57   3 
  -1   6   1 30253.9 1103.09   2 
  -1   6   0 8551.20 585.124   2 
  -1   6  -1 77187.9 1561.49   2 
  -1   6  -2 9648.54 550.427   2 
  -1   6  -3 22424.6 808.263   2 
  -1   6  -4 36724.5 1038.49   2 
  -1   6  -5 6040.24 463.397   2 
  -1   6 -15-231.839 559.003   3 
  -1   6 -16 4223.46 1184.64   3 
  -1   6 -17 940.037 692.202   3 
  -1   7  -5 8259.08 291.229   2 
  -1   7 -15-460.048 603.024   3 
   2 -10  -5 2714.17 893.991   1 
   2 -10  -4 855.859 576.705   1 
   2 -10  -3 2911.65 805.464   1 
   2 -10  -2 1275.97 655.915   1 
   2  -9  -9 4498.95 1190.38   1 
   2  -9  -8 1458.22 705.704   1 
   2  -9  -7 2689.18 859.842   1 
   2  -9  -6 1954.75 739.641   1 
   2  -9  -5 1101.96 572.737   1 
   2  -9  -4 256.580 541.344   1 
   2  -9  -3 5941.35 1058.03   1 
   2  -9  -2 4204.66 875.187   1 
   2  -9  -1 2993.42 754.777   1 
   2  -9   0 8105.27 1092.88   1 
  -2  -9  -1 1043.77 603.287   1 
   2  -9   1 687.051 481.341   1 
   2  -9   2 348.757 452.683   1 
  -2  -9  -2 1255.73 689.831   1 
  -2  -9  -3 11284.1 1543.37   1 
  -2  -9  -4 356.258 505.043   1 
  -2  -9  -5 4083.21 1081.82   1 
  -2  -9  -6 2586.80 924.942   1 
  -2  -9  -7 2470.68 934.867   1 
  -2  -9  -8 2978.53 1037.05   1 
  -2  -9  -9 2335.47 1038.38   1 
   2  -8 -12 7614.75 1358.70   1 
   2  -8 -11 3031.72 917.860   1 
   2  -8 -10 1927.03 669.329   1 
   2  -8  -9 273.851 587.123   1 
   2  -8  -8 17344.5 1717.89   1 
   2  -8  -7 2130.21 775.899   1 
   2  -8  -6 11041.4 1376.24   1 
   2  -8  -5 8228.07 1172.19   1 
   2  -8  -4 2635.37 697.190   1 
   2  -8  -3 823.825 477.397   1 
   2  -8  -2 8338.90 1156.08   1 
   2  -8  -1 3423.59 746.170   1 
  -2  -8   0 8176.29 1079.37   1 
  -2  -8  -1 21966.8 1820.01   1 
  -2  -8  -2 5367.79 1005.72   1 
  -2  -8  -3 4489.72 967.483   1 
  -2  -8  -4 451.914 528.750   1 
  -2  -8  -5 7170.64 1246.09   1 
  -2  -8  -6 3009.67 930.699   1 
  -2  -8  -7 5996.38 1226.89   1 
  -2  -8  -8 5563.28 1213.18   1 
  -2  -8  -9 3762.61 1093.06   1 
  -2  -8 -10 2084.91 837.718   1 
  -2  -8 -11 3024.67 1223.81   1 
   2  -7 -14 4172.23 1080.99   1 
   2  -7 -13 4925.33 1066.18   1 
   2  -7 -12 463.113 552.716   1 
   2  -7 -11 1601.52 765.406   1 
   2  -7 -10 5851.54 1119.53   1 
   2  -7  -9 551.566 520.228   1 
   2  -7  -8 6701.81 1066.64   1 
   2  -7  -7 4141.33 873.691   1 
   2  -7  -6 2700.56 740.635   1 
   2  -7  -5 261.777 400.285   1 
  -2  -7   0 7300.25 972.477   1 
  -2  -7  -1 7500.36 1027.64   1 
  -2  -7  -2 15148.6 1471.75   1 
  -2  -7  -3 16966.5 1632.46   1 
  -2  -7  -4 5253.11 1030.76   1 
  -2  -7  -5 1982.55 768.129   1 
  -2  -7  -6 3189.24 825.589   1 
  -2  -7  -7 2976.43 916.231   1 
  -2  -7  -8 301.474 476.997   1 
  -2  -7  -9 2635.74 911.876   1 
  -2  -7 -10 5872.83 1159.09   1 
  -2  -7 -11 904.439 694.102   1 
  -2  -7 -12 2931.36 1104.19   1 
  -2  -7 -13 2807.31 1017.57   1 
   2  -6 -16 688.801 598.856   1 
   2  -6 -15 4093.55 1040.32   1 
   2  -6 -14 4468.93 1033.77   1 
   2  -6 -13 3520.02 936.016   1 
   2  -6 -12 2928.98 832.475   1 
   2  -6 -11 7173.83 1142.27   1 
   2  -6 -10 2058.46 737.020   1 
   2  -6  -9 12493.2 1414.53   1 
   2  -6  -8 6535.90 1018.34   1 
   2  -6  -7 3657.56 783.287   1 
  -2  -6   2 15567.4 521.429   2 
  -2  -6   0 36804.2 1978.43   1 
  -2  -6  -1 80632.0 2984.14   1 
  -2  -6  -2 31767.6 1965.40   1 
  -2  -6  -3 2389.08 727.278   1 
  -2  -6  -4 33817.0 2177.28   1 
  -2  -6  -5 6928.74 1092.55   1 
  -2  -6  -6 2296.00 721.074   1 
  -2  -6  -7 2522.47 723.029   1 
  -2  -6  -8 11853.2 1506.62   1 
  -2  -6  -9 11320.3 1530.33   1 
  -2  -6 -10 5486.44 1148.50   1 
  -2  -6 -11 10625.8 1532.83   1 
  -2  -6 -12 2221.35 884.755   1 
  -2  -6 -13 124.039 537.889   1 
  -2  -6 -14 891.671 873.983   1 
  -2  -6 -15 2989.82 1070.33   1 
   2  -5 -18 2091.90 731.412   1 
   2  -5 -17 934.468 641.491   1 
   2  -5 -16 306.681 521.367   1 
   2  -5 -15 2813.00 799.274   1 
   2  -5 -14 524.014 509.187   1 
   2  -5 -13 4615.56 916.484   1 
   2  -5 -12 43045.2 2520.61   1 
   2  -5 -11 5434.97 957.916   1 
   2  -5 -10 14576.7 1457.49   1 
   2  -5  -9 31827.7 2023.00   1 
  -2  -5   5 15411.9 468.086   2 
  -2  -5   4 40261.7 845.736   2 
  -2  -5   3 67527.0 1345.98   2 
  -2  -5  -1 8408.99 967.858   1 
  -2  -5  -2 69774.5 2716.15   1 
  -2  -5  -3 27872.4 1814.12   1 
  -2  -5  -4 7504.89 1031.75   1 
  -2  -5  -5 9126.16 1139.27   1 
  -2  -5  -6 19147.3 1662.86   1 
  -2  -5  -7 20653.0 1773.87   1 
  -2  -5  -8 527.278 632.669   1 
  -2  -5  -9 44774.3 2726.72   1 
  -2  -5 -10 159.781 515.586   1 
  -2  -5 -11 1585.17 681.196   1 
  -2  -5 -12 1490.36 683.608   1 
  -2  -5 -13 15463.5 1893.27   1 
  -2  -5 -14 4321.95 1074.58   1 
  -2  -5 -15 2616.95 893.408   1 
  -2  -5 -16 4695.16 1229.57   1 
  -2  -5 -17-115.879 544.494   1 
   2  -4 -20 50.7736 558.744   1 
   2  -4 -19 2071.58 791.492   1 
   2  -4 -18 4137.26 991.825   1 
   2  -4 -17 4207.59 918.338   1 
   2  -4 -16 5571.52 1046.23   1 
   2  -4 -15 12106.3 1401.22   1 
   2  -4 -14 512.006 527.705   1 
   2  -4 -13 23518.2 1829.15   1 
   2  -4 -12 15131.1 1449.49   1 
   2  -4 -11 81342.3 3180.15   1 
   2  -4 -10 31175.4 1955.96   1 
   2  -4  -8 19270.2 1460.61   2 
  -2  -4   7 6205.05 434.608   2 
  -2  -4   6 787.108 182.317   2 
  -2  -4   5 24055.2 842.933   2 
  -2  -4   4 25358.4 933.465   2 
  -2  -4  -2 182732. 4115.32   1 
  -2  -4  -3 15129.0 1266.14   1 
  -2  -4  -4 30820.2 1840.59   1 
  -2  -4  -5 9053.80 1060.66   1 
  -2  -4  -6 6490.56 945.493   1 
  -2  -4  -7 10837.3 1253.27   1 
  -2  -4  -8 26539.1 1975.86   1 
  -2  -4  -9 689.452 508.838   1 
  -2  -4 -10 12534.0 1485.05   1 
  -2  -4 -11 14306.1 1608.77   1 
   2  -4  11 12767.8 1136.35   1 
  -2  -4 -12 429.309 567.564   1 
   2  -4  12-341.598 362.864   1 
  -2  -4 -13-96.0646 504.019   1 
   2  -4  13 276.313 296.195   1 
  -2  -4 -14 2156.34 778.484   1 
  -2  -4 -15 6224.10 1251.19   1 
  -2  -4 -16 5511.12 1297.79   1 
  -2  -4 -17 8124.44 1592.76   1 
  -2  -4 -18 4453.27 1247.58   1 
   2  -3 -22-1898.58 828.766   1 
   2  -3 -21 2348.77 897.920   1 
   2  -3 -20 8007.75 1306.33   1 
   2  -3 -19 2378.23 793.140   1 
   2  -3 -18 2173.84 725.279   1 
   2  -3 -17 4936.77 952.143   1 
   2  -3 -16 18909.5 1678.22   1 
   2  -3 -15 13341.8 1397.13   1 
   2  -3 -14 8912.46 1114.18   1 
   2  -3 -13 27660.7 1833.49   1 
   2  -3 -12 37045.4 2068.92   1 
   2  -3 -11 62572.1 2638.98   1 
   2  -3  -9 10001.0 1063.53   2 
  -2  -3   9 11402.4 714.284   2 
  -2  -3   8 4870.92 463.031   2 
   2  -3  -8 5404.10 787.706   2 
  -2  -3   7 58677.8 1467.58   2 
   2  -3  -7 61125.3 2360.32   2 
  -2  -3   6 20524.3 888.120   2 
  -2  -3   5 79694.7 1769.21   2 
  -2  -3   4 87664.2 1955.04   2 
  -2  -3  -3 25856.1 1549.18   1 
  -2  -3  -4 20689.3 1438.91   1 
  -2  -3  -5 35656.7 1947.74   1 
  -2  -3  -6 69726.7 2722.50   3 
  -2  -3  -6 73392.4 2892.76   1 
  -2  -3  -7 33049.0 1930.03   3 
  -2  -3  -7 31145.6 1956.86   1 
  -2  -3  -8 8679.14 1047.80   3 
  -2  -3  -8 9372.21 1163.83   1 
  -2  -3  -9 16551.7 1545.75   1 
  -2  -3  -9 15752.0 1418.11   3 
  -2  -3 -10 8794.19 1121.00   3 
  -2  -3 -10 9098.21 1208.83   1 
   2  -3  11 9198.88 970.457   1 
  -2  -3 -11 9395.83 1144.02   3 
  -2  -3 -11 9679.83 1295.64   1 
  -2  -3 -12 1174.61 627.577   1 
  -2  -3 -12 1447.37 635.347   3 
   2  -3  12 1882.62 502.529   1 
  -2  -3 -13 26967.6 2036.10   3 
  -2  -3 -13 23343.2 2081.01   1 
   2  -3  13 25471.3 1593.08   1 
  -2  -3 -14 6184.29 1066.20   3 
  -2  -3 -14 4196.06 1019.99   1 
   2  -3  14 5498.12 755.010   1 
  -2  -3 -15 8187.45 1221.68   3 
  -2  -3 -15 8343.81 1367.67   1 
  -2  -3 -16 2768.37 813.172   3 
  -2  -3 -16 3312.49 1079.06   1 
  -2  -3 -17 2182.99 893.753   1 
  -2  -3 -17 4750.75 970.020   3 
  -2  -3 -18-932.008 477.522   3 
  -2  -3 -18 971.222 686.768   1 
  -2  -3 -19 2423.05 923.978   1 
  -2  -3 -19 4623.99 1001.56   3 
  -2  -3 -20 1913.75 654.193   3 
  -2  -3 -20 1054.72 800.751   1 
   2  -2 -23 2884.90 941.764   1 
   2  -2 -22 633.491 792.126   1 
   2  -2 -21 3293.68 892.908   1 
   2  -2 -20 9101.22 1316.86   1 
   2  -2 -19 438.886 514.910   1 
   2  -2 -18 4316.86 886.928   1 
   2  -2 -17 1715.23 614.637   1 
   2  -2 -16-283.694 373.471   1 
   2  -2 -15 40074.9 2198.79   1 
   2  -2 -14 28320.1 1796.53   1 
   2  -2 -13 2421.87 615.626   1 
   2  -2 -12 58151.4 2420.30   1 
   2  -2 -10 23315.5 1542.09   2 
  -2  -2  10 23912.0 1122.96   2 
  -2  -2   9 14996.4 857.562   2 
   2  -2  -9 16661.3 1283.33   2 
  -2  -2   8 60143.1 1651.54   2 
   2  -2  -8 62382.0 2366.61   2 
  -2  -2   7 1793.83 327.255   2 
   2  -2  -7 1968.20 492.349   2 
  -2  -2   6 72906.9 1816.28   2 
  -2  -2   5 77409.6 1929.80   2 
  -2  -2   4 22358.9 1075.26   2 
  -2  -2  -5 36229.6 1878.18   3 
  -2  -2  -6 15545.2 1274.25   3 
  -2  -2  -6 17013.7 1365.15   1 
  -2  -2  -7 12533.0 1181.64   3 
  -2  -2  -7 11757.3 1182.05   1 
  -2  -2  -8 46533.7 2336.47   3 
  -2  -2  -8 50069.5 2465.47   1 
  -2  -2  -9 26101.7 1807.64   3 
  -2  -2  -9 29863.3 1970.90   1 
  -2  -2 -10 779.951 468.970   1 
  -2  -2 -10 1045.36 539.649   3 
   2  -2  10 1103.53 425.436   1 
   2  -2  11 83076.5 2864.55   1 
  -2  -2 -11 80397.9 3466.67   1 
  -2  -2 -11 80476.8 3356.96   3 
  -2  -2 -12 48260.5 2765.18   1 
  -2  -2 -12 49717.2 2719.68   3 
   2  -2  12 49308.8 2202.30   1 
  -2  -2 -13 36059.4 2397.48   3 
   2  -2  13 39066.4 1991.91   1 
  -2  -2 -13 34360.2 2419.90   1 
  -2  -2 -14 44555.5 2731.81   3 
  -2  -2 -14 48189.7 2955.34   1 
  -2  -2 -15 11856.7 1464.21   3 
  -2  -2 -15 13365.5 1653.10   1 
  -2  -2 -16 1779.38 695.367   3 
  -2  -2 -16 182.976 664.898   1 
  -2  -2 -17 6260.71 1116.03   3 
  -2  -2 -17 4162.51 1103.38   1 
  -2  -2 -18 5510.44 1098.66   3 
  -2  -2 -19 1167.75 479.485   3 
  -2  -2 -20 9393.06 1450.77   3 
   2  -1 -23 1165.09 688.436   1 
   2  -1 -22 1548.23 714.734   1 
   2  -1 -21-59.3256 340.422   1 
   2  -1 -20 2863.53 768.779   1 
   2  -1 -19 2056.06 717.085   1 
   2  -1 -18 4432.51 860.275   1 
   2  -1 -17-505.704 427.057   1 
   2  -1 -16 14674.4 1314.30   1 
   2  -1 -15 10771.7 1091.11   1 
   2  -1 -14 10347.4 1035.11   1 
   2  -1 -13 48093.2 2099.36   1 
   2  -1 -12 53617.3 2165.06   1 
   2  -1 -11 7101.22 902.724   2 
  -2  -1  11 6808.53 689.319   2 
  -2  -1  10 66328.6 1938.36   2 
   2  -1 -10 65982.0 2495.67   2 
  -2  -1   9 25851.0 1180.79   2 
   2  -1  -9 27253.8 1561.51   2 
  -2  -1   8 59440.8 1753.39   2 
   2  -1  -8 60299.2 2230.88   2 
  -2  -1   7 127141. 2527.45   2 
   2  -1  -7 126985. 3139.41   2 
   2  -1  -6 78038.3 1391.36   3 
  -2  -1   6 75344.0 1978.28   2 
  -2  -1   5 34906.2 1373.42   2 
   2  -1  -5 36123.0 1085.56   3 
   2  -1  -4 32133.0 1135.97   3 
  -2  -1   4 31549.5 1338.47   2 
   2  -1  -3 175736. 2860.08   3 
   2  -1  -2 237977. 3556.65   3 
   2  -1  -1 163750. 3135.59   3 
   2  -1   0 113817. 2755.17   3 
   2  -1   1 19639.2 1214.88   3 
   2  -1   2 57389.1 2156.94   3 
   2  -1   3 23363.1 1436.99   3 
   2  -1   4 341409. 5721.79   3 
   2  -1   5 7262.39 892.422   3 
  -2  -1  -6 89357.6 3034.25   3 
   2  -1   6 89712.6 3143.01   3 
  -2  -1  -7 75416.3 2886.56   3 
   2  -1   7 74176.4 2961.83   3 
  -2  -1  -8 10942.8 1159.95   3 
   2  -1   8 11550.0 1212.52   3 
  -2  -1  -9 4968.47 878.995   3 
   2  -1  10 39297.2 1933.13   1 
  -2  -1 -10 38427.6 2279.11   3 
  -2  -1 -11 19542.9 1698.65   3 
   2  -1  11 20890.9 1439.41   1 
  -2  -1 -12 109983. 4083.72   3 
   2  -1  12 117175. 3414.31   1 
  -2  -1 -13 27592.6 2144.19   3 
  -2  -1 -14 7497.91 1189.85   3 
  -2  -1 -15 2239.57 732.223   3 
  -2  -1 -16 26734.7 2259.60   3 
  -2  -1 -17 2918.41 859.221   3 
  -2  -1 -18 5437.06 1097.43   3 
  -2  -1 -19 1429.65 603.963   3 
  -2  -1 -20-924.276 528.258   3 
  -2  -1 -21 6176.54 1306.91   3 
   2   0 -21-390.446 443.033   1 
   2   0 -20 5528.16 953.962   1 
   2   0 -19 1489.05 544.817   1 
   2   0 -18 18290.5 1485.80   1 
   2   0 -17 6595.57 891.627   1 
   2   0 -17 4106.60 507.498   3 
   2   0 -16 9986.64 1033.66   1 
   2   0 -16 9138.53 712.542   3 
   2   0 -15 1377.15 428.345   1 
   2   0 -15 761.409 262.384   3 
   2   0 -14 5656.51 577.844   3 
   2   0 -14 6004.88 736.280   1 
   2   0 -13 19455.4 996.788   3 
   2   0 -13 17438.5 1169.78   1 
   2   0 -12 39577.4 1719.74   1 
  -2   0  11 21653.3 1215.90   2 
   2   0 -11 21948.3 1453.94   2 
  -2   0  10 534.936 267.223   2 
   2   0 -10 173.031 286.139   2 
  -2   0   9 4923.54 577.698   2 
   2   0  -9 5124.38 409.439   3 
   2   0  -9 5373.11 694.166   2 
  -2   0   8 15520.5 955.194   2 
   2   0  -8 17202.4 760.127   3 
   2   0  -8 15861.2 1135.46   2 
  -2   0   7 47168.3 1638.40   2 
   2   0  -7 48769.4 1291.49   3 
   2   0  -7 47719.4 1868.73   2 
  -2   0   6 5726.49 618.941   2 
   2   0  -6 7495.24 536.648   3 
   2   0  -5 40150.7 1265.30   3 
   2   0  -4 2755.96 358.088   3 
   2   0  -3 33869.6 1284.70   3 
  -2   0   3 33243.8 1224.50   3 
  -2   0   2 187.996 201.339   3 
   2   0  -2-78.7856 225.306   3 
   2   0  -1 821005. 6896.23   3 
   2   0   0 68894.9 2091.21   3 
   2   0   1 87263.0 2461.87   3 
   2   0   2 233398. 4196.01   3 
   2   0   3 89636.6 2717.12   3 
   2   0   4 21889.1 1430.55   3 
   2   0   5 119636. 3417.37   3 
   2   0   6 28155.5 1732.95   3 
   2   0   7 90814.2 3174.45   3 
  -2   0  -7 78667.8 3017.87   3 
  -2   0  -8 38388.0 2165.69   3 
   2   0   8 40574.9 2226.34   3 
   2   0   9 3285.90 609.941   1 
  -2   0  -9 3244.94 714.609   3 
   2   0   9 3984.09 791.982   3 
   2   0  10 1021.43 422.872   1 
  -2   0 -10 452.184 402.390   3 
   2   0  10 866.280 443.570   3 
  -2   0 -11 1564.85 568.905   3 
   2   0  11 897.445 409.934   1 
   2   0  11 1213.30 582.149   3 
  -2   0 -12 25947.4 2064.23   3 
  -2   0 -13 43898.1 2739.17   3 
  -2   0 -14 6579.67 1163.14   3 
  -2   0 -15 18930.7 1926.64   3 
  -2   0 -16 25470.6 2289.78   3 
  -2   0 -17 2118.44 823.091   3 
  -2   0 -18 6579.48 1263.54   3 
  -2   0 -19 5109.21 1210.54   3 
  -2   0 -20-21.7363 158.985   3 
  -2   0 -21 9236.15 1572.53   3 
  -2   0 -22 5241.23 1183.56   3 
   2   1 -20 1947.06 616.180   1 
   2   1 -19 1973.60 564.099   1 
   2   1 -18 4779.31 767.593   1 
   2   1 -18 2980.67 640.305   3 
   2   1 -17 192.561 306.268   1 
   2   1 -17 631.241 300.656   3 
   2   1 -16 17703.6 1246.03   1 
   2   1 -16 16571.5 1332.24   3 
   2   1 -15 13329.0 1037.45   1 
   2   1 -14 8992.11 818.970   1 
   2   1 -13 47652.2 1755.00   1 
   2   1 -12 50205.8 2215.83   2 
   2   1 -12 53208.1 1775.73   1 
  -2   1  11 5932.90 708.951   2 
   2   1 -11 6471.37 803.698   2 
   2   1 -11 6343.16 623.982   1 
  -2   1  10 65114.1 2072.18   2 
   2   1 -10 67579.7 2415.48   2 
   2   1  -9 27732.1 1486.30   2 
   2   1  -8 59873.3 2106.84   2 
  -2   1   5 34638.4 975.447   3 
   2   1  -5 33977.3 1320.65   3 
   2   1  -4 32977.0 1320.91   3 
  -2   1   4 34038.5 1101.25   3 
   2   1  -3 178191. 3128.64   3 
  -2   1   3 176879. 2808.25   3 
  -2   1   2 240614. 3508.60   3 
   2   1  -2 243357. 3764.08   3 
  -2   1   1 164508. 3118.86   3 
   2   1  -1 162121. 3181.97   3 
   2   1   0 109987. 2713.58   3 
   2   1   1 19775.3 1202.00   3 
   2   1   2 61135.8 2186.27   3 
   2   1   3 25514.5 1465.68   3 
   2   1   4 351890. 5584.74   3 
   2   1   5 9273.81 977.500   3 
   2   1   6 87479.7 3002.87   3 
   2   1   7 76381.8 2897.40   3 
   2   1   8 11144.2 1179.03   3 
  -2   1  -8 9628.26 1166.43   3 
  -2   1  -9 5005.59 919.523   3 
   2   1   9 4973.02 842.510   3 
   2   1   9 4192.58 685.009   1 
  -2   1 -10 39650.1 2491.74   3 
   2   1  10 39522.4 1977.27   1 
   2   1  10 38732.9 2295.71   3 
  -2   1 -11 19611.5 1850.83   3 
   2   1  11 20854.0 1742.01   3 
   2   1  12 111628. 4100.05   3 
  -2   1 -12 114111. 4465.79   3 
  -2   1 -13 28705.5 2312.44   3 
  -2   1 -14 7992.18 1327.61   3 
  -2   1 -15 2333.71 825.890   3 
  -2   1 -16 25609.7 2396.40   3 
  -2   1 -17 3905.41 1026.79   3 
  -2   1 -18 3532.18 1026.09   3 
  -2   1 -19 504.256 526.817   3 
  -2   1 -20 1633.14 658.161   3 
  -2   1 -21 6160.20 1206.35   3 
  -2   1 -22 1533.14 764.905   3 
   2   2 -18 3659.21 604.469   1 
   2   2 -18 5021.80 899.927   3 
   2   2 -17 1124.19 383.445   1 
   2   2 -16 363.931 281.536   1 
   2   2 -15 42622.6 1639.86   1 
   2   2 -14 29297.0 1298.52   1 
   2   2 -13 2299.80 386.876   1 
   2   2 -13 2731.69 597.950   2 
   2   2 -12 58389.1 2356.71   2 
   2   2 -12 56358.9 1601.52   1 
  -2   2  11 36791.4 1698.95   2 
   2   2 -11 41630.6 1923.79   2 
   2   2 -11 38252.7 1251.07   1 
   2   2 -10 21845.0 1360.26   2 
   2   2  -9 14798.9 1077.19   2 
  -2   2   6 74420.4 1317.57   3 
  -2   2   5 79859.4 1659.65   3 
  -2   2   4 23343.6 1029.22   3 
  -2   2   3 65667.7 1893.18   3 
   2   2  -3 68039.5 2118.42   3 
  -2   2   2 162555. 3191.17   3 
   2   2  -2 159103. 3292.67   3 
  -2   2   1 130317. 3045.14   3 
   2   2  -1 130909. 3060.15   3 
  -2   2   0 78340.8 2538.58   3 
   2   2   0 84098.2 2487.60   3 
   2   2   0 80503.7 2192.73   1 
   2   2   1 60611.3 2193.15   3 
   2   2   1 51737.2 1836.40   1 
   2   2   2 88163.5 2421.52   1 
   2   2   2 82515.5 2626.01   3 
   2   2   3 55613.3 2229.29   3 
   2   2   3 58912.3 2065.67   1 
   2   2   4 87148.8 2857.09   3 
   2   2   5 34654.0 1890.17   3 
   2   2   6 16794.7 1360.19   3 
   2   2   7 12858.6 1216.26   3 
   2   2   8 51768.1 2493.79   3 
  -2   2  -8 44591.9 2609.35   3 
   2   2   9 31563.5 1760.86   1 
   2   2   9 31468.8 2007.51   3 
  -2   2  -9 27151.6 2130.80   3 
   2   2  10 955.267 468.187   3 
  -2   2 -10 602.849 495.836   3 
   2   2  11 84488.0 3496.44   3 
  -2   2 -11 86497.9 3989.06   3 
  -2   2 -12 49681.4 3110.43   3 
  -2   2 -13 34052.8 2658.37   3 
  -2   2 -14 51087.1 3332.66   3 
  -2   2 -15 12227.3 1714.73   3 
  -2   2 -16 730.971 550.371   3 
  -2   2 -17 3848.44 1016.68   3 
  -2   2 -18 5443.12 1273.91   3 
  -2   2 -19 599.905 424.954   3 
  -2   2 -20 7425.73 1467.48   3 
  -2   2 -21 5077.43 1223.04   3 
  -2   2 -22 1217.90 650.746   3 
   2   3 -19 2437.67 699.649   3 
   2   3 -15 13793.0 787.835   1 
   2   3 -14 8756.37 586.256   1 
   2   3 -14 8184.82 1012.72   2 
   2   3 -13 30091.4 1751.68   2 
   2   3 -13 28129.1 954.443   1 
   2   3 -12 33252.6 964.091   1 
   2   3 -12 35229.4 1790.97   2 
   2   3 -11 59143.4 1183.53   1 
  -2   3  11 63641.3 2287.73   2 
  -2   3  10 85251.5 2551.80   2 
   2   3 -10 81627.5 1319.22   1 
  -2   3   9 11144.4 924.611   2 
  -2   3   8 4667.61 635.806   2 
  -2   3   7 55307.4 1936.90   2 
  -2   3   7 59934.2 1402.56   3 
  -2   3   6 21277.8 977.548   3 
  -2   3   5 90256.0 2210.62   3 
   2   3  -5 84337.7 1815.42   1 
  -2   3   4 84790.3 2346.33   3 
   2   3  -4 85222.8 1911.90   1 
  -2   3   3 2011.70 429.069   3 
   2   3  -3 1455.72 309.144   1 
  -2   3   2 50249.9 1849.37   2 
  -2   3   2 46786.0 1949.55   3 
   2   3  -2 51508.6 1633.85   1 
   2   3  -1 17911.8 1229.63   3 
  -2   3   1 18366.5 1294.99   3 
   2   3  -1 15826.5 945.143   1 
   2   3   0 7759.96 705.248   1 
  -2   3   0 8488.09 944.679   3 
   2   3   0 9093.35 920.950   3 
   2   3   1 138953. 2960.02   1 
   2   3   1 132784. 3452.61   3 
   2   3   2 37628.2 1873.93   3 
   2   3   2 37468.6 1615.29   1 
   2   3   3 28492.3 1457.65   1 
   2   3   3 25128.0 1582.73   3 
   2   3   4 18711.4 1412.84   3 
   2   3   4 20411.1 1269.59   1 
   2   3   5 39907.1 1825.75   1 
   2   3   5 34440.4 1953.52   3 
   2   3   6 72544.4 2883.68   3 
   2   3   6 76985.9 2604.96   1 
   2   3   7 34850.0 1803.95   1 
   2   3   7 33446.0 2029.38   3 
  -2   3  -8 9957.94 1351.82   3 
   2   3   8 8315.16 1064.15   3 
   2   3   9 19018.5 1609.92   3 
  -2   3  -9 17124.2 1816.80   3 
   2   3  10 9988.23 1234.94   3 
  -2   3 -10 9820.40 1388.97   3 
  -2   3 -11 11873.3 1631.57   3 
  -2   3 -12 1513.77 639.086   3 
  -2   3 -13 24747.0 2401.54   3 
  -2   3 -14 4357.58 1128.92   3 
  -2   3 -15 7124.54 1436.38   3 
  -2   3 -16 3171.55 1034.67   3 
  -2   3 -17 2878.33 996.035   3 
  -2   3 -18 987.434 825.820   3 
  -2   3 -19 4996.90 1285.75   3 
  -2   3 -20 3021.84 1050.58   3 
  -2   3 -21 111.124 319.949   3 
  -2   4  10 27746.1 1555.10   2 
  -2   4   9 3501.03 603.714   2 
  -2   4   9 4094.85 397.165   3 
  -2   4   9 3313.18 325.175   3 
  -2   4   8 20542.7 1249.57   2 
  -2   4   8 22608.8 1061.50   3 
   2   4  -7 5940.06 298.094   1 
  -2   4   7 5891.86 690.272   2 
  -2   4   6 1382.63 422.956   2 
   2   4  -6 1409.99 202.095   1 
  -2   4   5 25129.5 1322.95   2 
   2   4  -5 24213.0 869.409   1 
   2   4  -4 26247.4 1004.31   1 
   2   4  -3 66129.1 1718.61   1 
   2   4  -2 72523.3 1927.39   1 
   2   4  -1 147735. 2875.09   1 
   2   4   0 18340.9 1382.35   3 
   2   4   0 21288.6 1163.78   1 
   2   4   1 4100.30 735.211   3 
   2   4   1 3413.73 538.046   1 
   2   4   2 190475. 3709.06   1 
   2   4   2 182845. 4443.10   3 
   2   4   3 14780.3 1103.92   1 
   2   4   3 13709.2 1268.03   3 
   2   4   4 28910.6 1565.70   1 
   2   4   4 31356.5 1895.29   3 
   2   4   5 8365.66 884.608   1 
  -2   4  -5 8643.91 1245.10   3 
   2   4   5 9569.53 1095.17   3 
   2   4   6 5925.07 768.996   1 
   2   4   6 5174.01 820.768   3 
  -2   4  -6 4956.12 1027.30   3 
   2   4   7 9126.50 1147.89   3 
  -2   4  -7 9517.72 1400.36   3 
   2   4   8 24893.9 1881.38   3 
  -2   4  -8 27780.6 2336.94   3 
  -2   4  -9 258.038 568.253   3 
  -2   4 -10 13854.9 1737.82   3 
  -2   4 -11 12871.1 1770.73   3 
  -2   4 -12-415.989 478.859   3 
  -2   4 -13-274.983 514.410   3 
  -2   4 -14 3126.82 938.788   3 
  -2   4 -15 5376.84 1261.76   3 
  -2   4 -16 5062.23 1287.26   3 
  -2   4 -17 6236.03 1422.07   3 
  -2   4 -18 3473.83 1167.32   3 
  -2   4 -19 4826.14 1272.92   3 
  -2   5  11 4078.38 410.839   3 
  -2   5  10 12165.7 767.633   3 
  -2   5   9 28214.6 1556.28   2 
  -2   5   8 5461.49 735.204   2 
  -2   5   7 50292.8 1934.83   2 
  -2   5   6 41766.6 1739.39   2 
  -2   5   5 16963.0 1108.45   2 
   2   5  -5 17007.7 725.156   1 
  -2   5   4 37867.8 1637.37   2 
   2   5  -4 39068.7 1229.23   1 
   2   5  -3 67175.1 1746.37   1 
   2   5  -2 7473.85 660.310   1 
   2   5  -1 14471.4 940.657   1 
   2   5   0 92973.9 2476.90   1 
   2   5   1 9402.58 881.018   1 
   2   5   2 70503.8 2358.81   1 
   2   5   3 24818.3 1461.04   1 
   2   5   4 7484.73 843.234   1 
  -2   5  -8 335.263 681.277   3 
  -2   5  -9 43617.4 3157.19   3 
  -2   5 -10 913.534 632.203   3 
  -2   5 -11-537.649 556.527   3 
  -2   5 -12 291.486 468.899   3 
  -2   5 -13 12884.9 1940.99   3 
  -2   5 -14 5117.86 1328.14   3 
  -2   5 -15 3914.56 1151.66   3 
  -2   5 -16 6329.01 1511.19   3 
  -2   5 -17-1664.39 748.353   3 
  -2   5 -18-1296.16 916.691   3 
  -2   6   7 4173.72 628.576   2 
  -2   6   6 994.662 401.593   2 
  -2   6   5 23965.0 1328.78   2 
  -2   6   4 17799.0 1132.15   2 
  -2   6   3 6925.88 721.933   2 
   2   6  -2 16769.0 1036.93   1 
   2   6  -1 2190.84 442.753   1 
   2   6   0 34291.3 1605.76   1 
   2   6   1 81417.8 2555.33   1 
   2   6   2 32476.7 1712.80   1 
  -2   6  -9 10996.1 1788.02   3 
  -2   6 -10 6105.83 1341.26   3 
  -2   6 -11 12097.5 1957.25   3 
  -2   6 -12 2737.70 1010.29   3 
  -2   6 -13 4.49385 590.638   3 
  -2   6 -14 1245.13 849.220   3 
  -2   6 -15-34.3937 526.418   3 
  -2   6 -16 709.191 775.403   3 
  -2   7   5 297.924 330.995   2 
  -2   7   4 1790.71 429.940   2 
  -2   7   3 4389.44 607.318   2 
  -2   7   2 3080.89 529.151   2 
  -2   7  -5 807.623 293.602   2 
  -2   7 -10 7329.97 1704.06   3 
  -2   7 -11 321.365 693.373   3 
  -2   7 -12 3013.37 1179.14   3 
  -2   7 -13 4003.57 1290.73   3 
  -2   8   1 4732.60 610.536   2 
   3  -9  -6 1493.84 741.479   1 
   3  -9  -5 492.001 557.247   1 
   3  -9  -4 583.706 574.714   1 
   3  -9  -3 1698.13 705.334   1 
   3  -8 -10 331.303 615.488   1 
   3  -8  -9-822.161 660.612   1 
   3  -8  -8 2585.57 849.736   1 
   3  -8  -7 8598.37 1350.80   1 
   3  -7 -13 3909.55 1088.28   1 
   3  -7 -12 4741.96 1166.16   1 
   3  -7 -11 521.902 602.035   1 
   3  -7 -10 1122.36 861.250   1 
   3  -7  -9 5054.78 1074.67   1 
  -3  -7  -9 1644.11 792.450   1 
  -3  -7 -10 1602.40 862.599   1 
  -3  -7 -11 8427.58 1649.51   1 
  -3  -7 -12 1749.96 973.255   1 
   3  -6 -15 745.314 662.813   1 
   3  -6 -14 1912.50 809.788   1 
   3  -6 -13 3383.75 922.872   1 
   3  -6 -12 1583.89 719.584   1 
   3  -6 -11 1834.41 710.618   1 
  -3  -6   7 7691.88 442.660   2 
  -3  -6   6 1318.62 219.262   2 
  -3  -6   5 6149.47 463.799   2 
  -3  -6   4 14406.6 788.285   2 
  -3  -6 -10 12934.4 1794.94   1 
  -3  -6 -11 1690.85 827.910   1 
  -3  -6 -12 12949.4 1941.47   1 
  -3  -6 -13 1966.52 1142.89   1 
   3  -5 -17 1382.17 537.390   1 
   3  -5 -16 7864.94 1315.92   1 
   3  -5 -15 395.238 508.677   1 
   3  -5 -14 813.071 576.444   1 
   3  -5 -13 3590.50 895.512   1 
   3  -5 -12 12364.9 1463.12   1 
  -3  -5   9 12576.1 745.989   2 
  -3  -5   8 1466.20 283.370   2 
  -3  -5   7 2644.88 368.445   2 
  -3  -5   6 7503.56 616.282   2 
  -3  -5   5 5508.67 583.787   2 
  -3  -5   4 8067.63 730.269   2 
   3  -4 -19 3635.27 991.319   1 
   3  -4 -18-48.6198 469.706   1 
   3  -4 -17 1616.67 749.631   1 
   3  -4 -16 3865.98 897.030   1 
   3  -4 -15 6770.78 1121.31   1 
   3  -4 -14 1248.54 588.180   1 
   3  -4 -13 3180.80 777.827   1 
  -3  -4  11 6273.95 623.524   2 
  -3  -4  10 29328.0 1257.95   2 
  -3  -4   9 1136.31 336.667   2 
  -3  -4   8 29790.8 1280.09   2 
  -3  -4   7 7649.18 686.828   2 
  -3  -4   6 18740.7 1079.98   2 
  -3  -4   5 9749.55 844.163   2 
  -3  -4 -12 19220.3 1930.24   3 
  -3  -4 -13-459.372 565.043   3 
  -3  -4 -14 4374.79 1020.82   3 
  -3  -4 -15 5981.54 1161.92   3 
  -3  -4 -16 8213.76 1409.53   3 
  -3  -4 -17 2245.42 776.534   3 
   3  -3 -21 2827.62 908.029   1 
   3  -3 -20 1568.85 755.795   1 
   3  -3 -19 4571.43 1006.26   1 
   3  -3 -18-135.990 621.345   1 
   3  -3 -17-36.9239 443.758   1 
   3  -3 -16 3557.10 818.295   1 
   3  -3 -15 4018.87 903.257   1 
   3  -3 -14 7627.82 1110.09   1 
  -3  -3  12 51818.3 1868.66   2 
  -3  -3  11 17748.4 1098.00   2 
  -3  -3  10 8619.30 764.925   2 
  -3  -3   9 13594.8 960.308   2 
  -3  -3   8 791.474 336.861   2 
  -3  -3   7 12761.2 964.125   2 
  -3  -3   6 46855.5 1874.08   2 
  -3  -3   5 33632.0 1636.08   2 
  -3  -3  -4 4537.63 840.683   3 
  -3  -3  -5 16522.1 1506.00   3 
  -3  -3  -6 7212.91 1096.16   3 
  -3  -3  -7 21107.2 1784.87   3 
  -3  -3  -8 21161.0 1831.61   3 
  -3  -3  -9 1888.00 660.816   3 
  -3  -3 -10 10542.1 1439.59   3 
  -3  -3 -11 42940.8 2792.16   3 
  -3  -3 -12 3603.49 948.849   3 
  -3  -3 -13 1690.53 784.082   3 
  -3  -3 -14 30864.7 2554.31   3 
  -3  -3 -15 175.293 487.067   3 
  -3  -3 -16 4448.83 1048.66   3 
  -3  -3 -17 1350.42 670.200   3 
  -3  -3 -18 192.548 370.479   3 
  -3  -3 -19 4442.09 1054.83   3 
  -3  -3 -20 2051.58 768.292   3 
   3  -2 -22 143.789 617.951   1 
   3  -2 -21 2077.27 838.899   1 
   3  -2 -20 11325.9 1465.00   1 
   3  -2 -19 675.355 519.899   1 
   3  -2 -18 5285.59 959.773   1 
   3  -2 -17 15920.1 1566.81   1 
   3  -2 -16 5466.04 910.466   1 
   3  -2 -15 2812.60 741.229   1 
  -3  -2  13 15010.2 1122.61   2 
  -3  -2  12 40224.2 1731.27   2 
  -3  -2  11 46854.1 1827.88   2 
  -3  -2  10 20089.0 1236.28   2 
  -3  -2   9 2327.19 481.382   2 
  -3  -2   8 3381.53 567.092   2 
  -3  -2   7 26618.4 1434.32   2 
  -3  -2   6 12479.2 1042.72   2 
  -3  -2   5 8457.88 894.005   2 
   3  -2  -1 34989.0 1870.27   3 
   3  -2   0 36176.9 1974.05   3 
   3  -2   1 17007.5 1410.86   3 
   3  -2   2 138798. 4114.15   3 
  -3  -2  -5 161943. 4607.88   3 
  -3  -2  -6 24330.5 1890.45   3 
  -3  -2  -7 4601.50 873.783   3 
  -3  -2  -8 6728.59 1081.90   3 
  -3  -2  -9 12973.3 1489.60   3 
  -3  -2 -10 1284.77 644.946   3 
  -3  -2 -11 13553.0 1599.81   3 
  -3  -2 -12 4211.23 1000.77   3 
  -3  -2 -13 23423.2 2206.60   3 
  -3  -2 -14 27690.8 2408.14   3 
  -3  -2 -15 2888.05 909.522   3 
  -3  -2 -16 5785.35 1218.37   3 
  -3  -2 -17 1737.45 716.956   3 
  -3  -2 -18 149.453 352.000   3 
  -3  -2 -19 2114.37 918.712   3 
  -3  -2 -20 1394.63 685.606   3 
   3  -1 -22 3186.44 859.909   1 
   3  -1 -21 1158.42 646.935   1 
   3  -1 -20 102.680 333.802   1 
   3  -1 -19 388.312 478.364   1 
   3  -1 -18 1261.23 510.543   1 
   3  -1 -17 831.708 484.834   1 
   3  -1 -16 3342.07 744.701   1 
   3  -1 -15 954.048 529.474   1 
  -3  -1  14 11226.9 1057.54   2 
  -3  -1  13 86541.5 2688.99   2 
  -3  -1  12 13727.5 1079.00   2 
  -3  -1  11 55983.3 2093.64   2 
  -3  -1  10 56819.8 2115.54   2 
  -3  -1   9 32606.0 1609.08   2 
   3  -1  -9 31999.0 1076.37   3 
  -3  -1   8 21255.4 1322.01   2 
   3  -1  -8 21448.2 1005.62   3 
  -3  -1   7 14017.6 1082.20   2 
   3  -1  -7 14357.5 906.238   3 
  -3  -1   6 52731.3 2146.10   2 
   3  -1  -6 47759.5 1741.84   3 
  -3  -1   5 14775.7 1164.13   2 
   3  -1  -5 13273.3 979.627   3 
   3  -1  -4 2242.04 461.898   3 
   3  -1  -3 37488.3 1786.22   3 
   3  -1  -2 171524. 3918.64   3 
   3  -1  -1 22513.4 1483.52   3 
   3  -1   0 68900.4 2659.07   3 
   3  -1   1 19521.6 1457.83   3 
   3  -1   2 20399.1 1550.18   3 
   3  -1   3 3825.60 758.517   3 
   3  -1   4 143460. 4330.63   3 
   3  -1   5 5059.85 846.970   3 
  -3  -1  -6 27948.3 1982.31   3 
   3  -1   6 28709.7 2061.57   3 
  -3  -1  -7 49193.7 2691.27   3 
  -3  -1  -8 14025.6 1539.98   3 
   3  -1   8 15240.0 1388.12   1 
  -3  -1  -9 162.425 371.749   3 
  -3  -1 -10 7269.59 1157.97   3 
  -3  -1 -11 8912.66 1340.42   3 
  -3  -1 -12 4679.16 1040.01   3 
  -3  -1 -13 15548.9 1811.42   3 
  -3  -1 -14 12230.7 1656.12   3 
  -3  -1 -15 4163.32 1075.01   3 
  -3  -1 -16 5459.12 1213.80   3 
  -3  -1 -17 7883.54 1434.28   3 
  -3  -1 -18-570.637 527.493   3 
  -3  -1 -19 1818.83 730.333   3 
  -3  -1 -20 65.3996 256.502   3 
  -3  -1 -21 1022.94 587.679   3 
   3   0 -20 3427.78 733.723   1 
   3   0 -19 837.665 474.896   1 
   3   0 -18-1.70550 340.100   1 
   3   0 -17 5692.37 867.599   1 
   3   0 -16 3665.60 712.572   1 
   3   0 -15 585.151 404.352   1 
   3   0 -15 396.153 142.158   3 
  -3   0  14-127.716 406.485   2 
   3   0 -14 34.2943 114.084   3 
  -3   0  13 4373.94 725.963   2 
   3   0 -13 4132.63 440.639   3 
  -3   0  12 8223.58 869.342   2 
   3   0 -12 9363.41 672.308   3 
  -3   0  11 3508.16 621.432   2 
   3   0 -11 3432.95 433.368   3 
  -3   0  10 6273.29 800.095   2 
   3   0 -10 7732.68 664.803   3 
  -3   0   9 54652.5 2140.46   2 
   3   0  -9 55694.3 1794.01   3 
  -3   0   8 33584.1 1705.80   2 
   3   0  -8 33150.1 1436.91   3 
  -3   0   7 109536. 3070.39   2 
   3   0  -7 106178. 2662.51   3 
  -3   0   6 4074.52 681.327   2 
   3   0  -6 3073.90 501.499   3 
   3   0  -5 1978.39 397.607   3 
  -3   0   5 2287.78 578.673   2 
  -3   0   4 178191. 3506.20   3 
   3   0  -4 177028. 3707.26   3 
  -3   0   3 43501.9 1834.08   3 
   3   0  -3 42460.7 1889.43   3 
   3   0  -2 59285.3 2303.94   3 
  -3   0   2 64578.7 2312.91   3 
  -3   0   1 111404. 3163.92   3 
   3   0  -1 123581. 3396.24   3 
   3   0   0 41067.7 2027.62   3 
   3   0   1 25258.4 1649.09   3 
   3   0   2 83857.0 3079.55   3 
   3   0   3 48212.7 2400.99   3 
   3   0   4 1074.64 525.557   3 
   3   0   5-298.597 327.223   3 
   3   0   6 48373.0 2625.76   3 
   3   0   7 8021.83 1103.37   3 
   3   0   7 6580.47 891.666   1 
  -3   0  -7 6593.90 1045.20   3 
  -3   0  -8 313.850 441.288   3 
  -3   0  -9 23199.8 2027.55   3 
  -3   0 -10 5057.19 1096.47   3 
  -3   0 -11 10013.0 1455.04   3 
  -3   0 -12 11274.4 1548.72   3 
  -3   0 -13 27517.2 2445.52   3 
  -3   0 -14-126.592 471.254   3 
  -3   0 -15 1753.72 727.642   3 
  -3   0 -16 4331.22 1048.10   3 
  -3   0 -17-276.790 481.169   3 
  -3   0 -18 1041.41 760.580   3 
  -3   0 -19 4475.17 1111.17   3 
  -3   0 -20 710.526 623.949   3 
  -3   0 -21-1037.67 644.621   3 
   3   1 -18 2156.50 561.527   1 
   3   1 -17 580.773 368.896   1 
   3   1 -16 4116.87 671.610   1 
   3   1 -15 483.898 298.754   1 
  -3   1  14 11232.4 1142.65   2 
   3   1 -14 9944.92 859.826   3 
   3   1 -14 13344.1 1087.67   1 
  -3   1  13 87305.6 2868.65   2 
   3   1 -13 82922.7 2409.23   3 
  -3   1  12 13202.1 1121.42   2 
   3   1 -12 14191.5 1017.81   3 
  -3   1  11 55363.5 2240.63   2 
   3   1 -11 52732.9 1961.07   3 
  -3   1  10 59320.9 2277.67   2 
   3   1 -10 58040.5 2042.39   3 
  -3   1   9 33745.8 1725.05   2 
   3   1  -9 32360.4 1545.32   3 
  -3   1   8 19461.9 1338.99   2 
   3   1  -8 19835.1 1233.47   3 
  -3   1   7 13820.9 1133.47   2 
   3   1  -7 14646.4 1068.14   3 
  -3   1   6 50026.1 1605.56   3 
   3   1  -6 46995.0 1938.36   3 
  -3   1   5 13807.4 924.855   3 
   3   1  -5 12130.6 1020.17   3 
  -3   1   4 2411.93 460.184   3 
   3   1  -4 1955.86 473.317   3 
  -3   1   3 35852.9 1655.94   3 
   3   1  -3 32737.4 1718.88   3 
  -3   1   2 165858. 3711.36   3 
   3   1  -2 167468. 3956.19   3 
   3   1  -1 22396.8 1502.91   3 
  -3   1   1 21450.1 1434.75   3 
   3   1   0 72713.8 2737.30   3 
   3   1   1 17415.3 1386.69   3 
   3   1   2 19640.1 1507.57   3 
   3   1   3 3167.77 656.423   3 
   3   1   4 140546. 4211.46   3 
   3   1   5 5565.70 914.555   3 
   3   1   6 28219.2 2007.73   3 
  -3   1  -7 48818.5 2800.98   3 
   3   1   7 48150.4 2696.17   3 
  -3   1  -8 14323.0 1579.22   3 
  -3   1  -9-119.025 415.569   3 
  -3   1 -10 9232.51 1416.67   3 
  -3   1 -11 10816.1 1532.56   3 
  -3   1 -12 5613.99 1172.35   3 
  -3   1 -13 17930.6 2018.89   3 
  -3   1 -14 9920.17 1611.08   3 
  -3   1 -15 5586.76 1219.80   3 
  -3   1 -16 6305.21 1368.97   3 
  -3   1 -17 8230.45 1571.93   3 
  -3   1 -18 1239.76 805.512   3 
  -3   1 -19 1891.58 861.367   3 
  -3   1 -20 142.751 266.306   3 
   3   2 -17 16996.2 1156.14   1 
   3   2 -16 3416.49 523.299   1 
   3   2 -15 3763.53 561.272   1 
   3   2 -14 46977.5 1782.64   1 
  -3   2  14 46119.4 2226.62   2 
  -3   2  13 15190.1 1278.92   2 
  -3   2  12 37622.6 1907.13   2 
  -3   2  11 41926.4 1999.42   2 
   3   2 -11 46198.1 2045.30   3 
  -3   2  10 20825.2 1403.39   2 
   3   2 -10 23422.8 1446.61   3 
  -3   2   9 1820.58 534.985   2 
   3   2  -9 1798.32 451.617   3 
   3   2  -8 4497.44 678.070   3 
  -3   2   8 3987.78 679.813   2 
   3   2  -7 23126.1 1455.26   3 
  -3   2   7 24373.9 1517.25   2 
  -3   2   7 26127.7 1031.39   3 
   3   2  -6 12928.9 1103.01   3 
  -3   2   6 11957.0 809.438   3 
  -3   2   5 8262.89 749.619   3 
   3   2  -5 6947.74 837.882   3 
   3   2  -4 72572.9 2614.91   3 
  -3   2   4 76480.9 2367.78   3 
   3   2  -3 30326.6 1739.52   3 
  -3   2   3 33751.9 1678.33   3 
   3   2  -2 18299.1 1376.10   3 
  -3   2   2 16555.2 1249.85   3 
   3   2  -1 35499.7 1940.06   3 
  -3   2   1 23546.7 1558.62   3 
   3   2   0 37103.1 2018.53   3 
   3   2   1 17042.9 1420.15   3 
   3   2   1 16841.3 1262.82   1 
   3   2   2 139936. 4075.57   3 
   3   2   2 138293. 3645.59   1 
   3   2   3 57108.6 2684.66   3 
  -3   2  -3 59677.9 2879.70   3 
   3   2   3 60423.6 2460.34   1 
   3   2   4 313.840 384.884   1 
   3   2   4 9.52963 444.893   3 
   3   2   5 164503. 4705.64   3 
  -3   2  -5 155889. 4946.40   3 
   3   2   5 163756. 4167.16   1 
  -3   2  -6 29433.5 2248.08   3 
   3   2   6 28502.3 2050.79   3 
  -3   2  -7 8091.90 1309.69   3 
  -3   2  -8 6695.73 1159.80   3 
  -3   2  -9 15300.5 1793.15   3 
  -3   2 -10 1285.28 627.062   3 
  -3   2 -11 13540.7 1784.56   3 
  -3   2 -12 6422.88 1344.69   3 
  -3   2 -13 22531.9 2369.81   3 
  -3   2 -14 25875.8 2583.30   3 
  -3   2 -15 2885.40 1000.11   3 
  -3   2 -16 4643.69 1207.02   3 
  -3   2 -17 1466.92 732.076   3 
  -3   2 -18 265.508 553.812   3 
  -3   2 -19 3179.68 1003.05   3 
   3   3 -14 7607.07 630.352   1 
  -3   3  14 7020.26 987.877   2 
  -3   3  13 2114.15 643.706   2 
   3   3 -13 2153.08 368.996   1 
  -3   3  12 50501.6 2263.16   2 
  -3   3  11 18332.9 1384.00   2 
  -3   3  10 8201.67 931.851   2 
  -3   3   9 11198.2 1087.57   2 
  -3   3   8 162.849 320.293   2 
  -3   3   8 535.422 177.999   3 
  -3   3   7 11415.6 1088.30   2 
  -3   3   7 12619.8 813.870   3 
   3   3  -7 11812.1 1144.47   3 
   3   3  -6 46702.4 2233.35   3 
  -3   3   6 47525.5 2132.81   2 
  -3   3   6 47612.7 1748.17   3 
   3   3  -5 33117.9 1895.60   3 
  -3   3   5 29622.0 1715.42   2 
  -3   3   5 30883.9 1550.56   3 
   3   3  -4 13474.4 1240.46   3 
  -3   3   4 12373.5 1187.70   2 
  -3   3   4 11712.5 1050.21   3 
   3   3  -3 65891.5 2704.67   3 
  -3   3   3 66830.4 2589.96   2 
  -3   3   3 67203.4 2548.64   3 
   3   3  -3 63314.5 2238.27   1 
   3   3  -2 14283.3 1291.18   3 
   3   3  -2 15309.6 1146.48   1 
   3   3  -1 6145.53 886.074   3 
   3   3  -1 6326.36 749.458   1 
   3   3   0 13364.9 1284.22   3 
   3   3   0 12069.1 1051.74   1 
   3   3   1 11282.9 1200.88   3 
  -3   3  -1 11135.0 1274.63   3 
   3   3   1 10555.1 1005.38   1 
   3   3   2 3778.32 755.572   3 
  -3   3  -2 2099.74 670.200   3 
   3   3   2 2948.93 583.027   1 
   3   3   3 10771.8 1238.11   3 
  -3   3  -3 10036.5 1314.33   3 
   3   3   3 11077.1 1078.87   1 
  -3   3  -4 7306.85 1131.44   3 
   3   3   4 4870.64 739.830   1 
  -3   3  -5 17930.3 1788.57   3 
  -3   3  -6 8040.64 1258.43   3 
  -3   3  -7 21290.9 2083.15   3 
  -3   3  -8 23071.9 2239.65   3 
  -3   3  -9 1355.18 680.313   3 
  -3   3 -10 11608.6 1678.35   3 
  -3   3 -11 47983.6 3391.34   3 
  -3   3 -12 2194.18 964.178   3 
  -3   3 -13 3410.71 1059.66   3 
  -3   3 -14 29835.6 2881.85   3 
  -3   3 -15 1009.08 644.580   3 
  -3   3 -16 4310.75 1243.87   3 
  -3   3 -17 1541.37 835.004   3 
  -3   3 -18 1160.71 698.538   3 
  -3   4  13 3844.34 786.752   2 
  -3   4  12 4725.78 857.983   2 
   3   4 -12 3898.05 300.381   1 
  -3   4  11 7093.21 933.298   2 
   3   4 -11 5612.43 461.780   1 
  -3   4  10 31383.0 1772.03   2 
   3   4 -10 29666.3 1131.63   1 
  -3   4   9 1175.89 541.612   2 
   3   4  -9 1206.07 279.643   1 
  -3   4   9 1134.84 214.229   3 
  -3   4   8 30040.1 1729.55   2 
  -3   4   8 28726.5 1250.62   3 
   3   4  -8 27641.6 1216.77   1 
  -3   4   7 7521.23 930.642   2 
  -3   4   7 7091.28 721.562   3 
   3   4  -7 7042.22 664.939   1 
  -3   4   6 18613.1 1375.63   2 
  -3   4   6 20313.7 1318.20   3 
   3   4  -6 21467.7 1163.62   1 
  -3   4   5 8168.46 952.146   2 
  -3   4   5 7973.27 899.335   3 
   3   4  -5 9526.93 827.260   1 
  -3   4   4 8545.22 973.585   2 
   3   4  -4 8892.83 818.402   1 
   3   4  -3 3051.67 534.789   1 
  -3   4   3 2886.22 621.715   2 
  -3   4   2 6228.46 846.733   2 
   3   4  -2 5831.46 719.647   1 
  -3   4   1 32733.0 2135.36   3 
   3   4  -1 37121.1 1755.41   1 
   3   4   0 5761.11 760.400   1 
  -3   4   0 4965.38 919.697   3 
   3   4   1 7462.41 861.301   1 
  -3   4  -1 6615.11 1078.00   3 
   3   4   2 43365.0 2052.30   1 
  -3   4  -2 40964.9 2629.07   3 
   3   4   3 39536.4 2027.70   1 
  -3   4  -3 34377.3 2485.17   3 
  -3   4  -4 1598.82 674.199   3 
  -3   4  -5 9852.13 1412.45   3 
  -3   4  -6 5184.21 1144.43   3 
  -3   4  -7 8558.98 1441.96   3 
  -3   4  -8 8647.88 1474.25   3 
  -3   4  -9 2363.38 856.357   3 
  -3   4 -10 11443.8 1731.75   3 
  -3   4 -11 4389.61 1173.04   3 
  -3   4 -12 20810.5 2440.97   3 
  -3   4 -13 693.509 696.079   3 
  -3   4 -14 5962.44 1469.03   3 
  -3   4 -15 5788.56 1363.18   3 
  -3   4 -16 8265.30 1733.48   3 
  -3   4 -17 2753.06 1114.12   3 
  -3   5  12 10833.8 1159.77   2 
  -3   5  11 5639.52 904.625   2 
  -3   5  10 17142.0 1359.85   2 
  -3   5  10 16914.7 768.621   3 
  -3   5   9 11525.7 1115.09   2 
  -3   5   9 11692.7 858.637   3 
   3   5  -9 10302.6 449.451   1 
  -3   5   8 1120.98 453.674   2 
   3   5  -8 1694.67 269.803   1 
  -3   5   8 2113.88 462.170   3 
  -3   5   7 2725.00 610.434   2 
   3   5  -7 2864.14 381.514   1 
  -3   5   7 2759.44 557.278   3 
  -3   5   6 7092.70 881.389   2 
   3   5  -6 8113.36 659.772   1 
  -3   5   5 6315.97 862.232   2 
   3   5  -5 5871.58 618.423   1 
  -3   5   4 7133.37 876.842   2 
   3   5  -4 8163.08 756.305   1 
   3   5  -3 14727.7 1057.22   1 
  -3   5   3 14256.7 1209.40   2 
  -3   5   3 15977.9 1510.63   3 
   3   5  -2 20366.2 1286.92   1 
  -3   5   2 19145.8 1426.56   2 
  -3   5   2 20554.8 1768.98   3 
   3   5  -1 817.558 368.739   1 
  -3   5   1 325.650 431.675   2 
  -3   5   1 1050.80 568.473   3 
   3   5   0 27839.1 1593.69   1 
  -3   5   0 22730.1 1601.43   2 
  -3   5   0 22924.0 1997.68   3 
   3   5   1 104667. 3162.28   1 
  -3   5  -1 99805.9 4220.01   3 
  -3   5  -2 19649.9 1964.82   3 
  -3   5  -3 8153.01 1351.63   3 
  -3   5  -4 4701.69 1089.53   3 
  -3   5  -5 12475.6 1711.67   3 
  -3   5  -6 8334.77 1478.81   3 
  -3   5  -7 20803.1 2268.90   3 
  -3   5  -8 2409.50 941.903   3 
  -3   5  -9 10243.6 1672.21   3 
  -3   5 -10 5264.00 1227.40   3 
  -3   5 -11 6112.32 1405.62   3 
  -3   5 -12 1134.36 856.488   3 
  -3   5 -13 301.528 450.002   3 
  -3   5 -14 4830.95 1312.42   3 
  -3   5 -15 3844.90 1203.52   3 
  -3   6  11 1442.68 530.699   2 
  -3   6  10 5996.32 917.011   2 
  -3   6   9 2512.75 632.851   2 
  -3   6   9 1129.12 405.166   3 
  -3   6   8 17241.0 1348.18   2 
  -3   6   7 8272.51 982.181   2 
  -3   6   6 1473.01 506.684   2 
  -3   6   6 1515.98 556.769   3 
  -3   6   5 6127.13 824.979   2 
   3   6  -5 6867.11 625.970   1 
  -3   6   5 6272.07 1022.49   3 
  -3   6   4 14772.0 1226.61   2 
  -3   6   4 15931.6 1612.17   3 
   3   6  -4 15576.8 994.468   1 
   3   6  -3 401.920 277.762   1 
  -3   6   3 672.303 430.811   2 
  -3   6   3 50.8689 420.830   3 
  -3   6   2 7328.06 890.441   2 
   3   6  -2 6168.00 712.322   1 
  -3   6   2 8065.08 1272.61   3 
   3   6  -1 3244.40 574.085   1 
  -3   6   1 2681.27 591.071   2 
  -3   6   1 1727.05 750.406   3 
  -3   6   0 28572.0 1719.95   2 
  -3   6   0 27343.8 2370.97   3 
   3   6   0 32047.8 1722.65   1 
  -3   6  -1 721.998 486.669   2 
  -3   6  -1-220.258 686.550   3 
  -3   6  -2 13637.0 1270.27   2 
  -3   6  -2 11975.0 1714.07   3 
  -3   6  -3 13802.4 1808.63   3 
  -3   6  -4 2777.97 991.451   3 
  -3   6  -5 4224.00 1166.35   3 
  -3   6  -6 1182.11 723.702   3 
  -3   6  -7 3022.94 912.453   3 
  -3   6  -8 677.449 643.507   3 
  -3   6  -9 6550.46 1483.34   3 
  -3   6 -10 12770.9 2096.26   3 
  -3   6 -11 2627.82 1202.56   3 
  -3   6 -12 12713.4 2191.40   3 
  -3   6 -13 2700.09 1060.96   3 
  -3   7   9 5597.28 866.811   2 
  -3   7   8 1861.78 619.394   2 
  -3   7   7 320.700 406.502   2 
  -3   7   7-2.22168 545.099   3 
  -3   7   6 707.088 414.436   2 
  -3   7   6 1027.83 539.839   3 
  -3   7   5 7126.75 881.864   2 
  -3   7   5 5984.47 1107.54   3 
  -3   7   4 1.38048 326.775   2 
  -3   7   4-502.190 488.742   3 
  -3   7   3 2920.47 595.294   2 
  -3   7   3 2998.23 817.240   3 
  -3   7   2 844.679 385.153   2 
  -3   7   2 922.537 691.633   3 
  -3   7   1 1687.50 529.915   2 
  -3   7   1 2154.85 808.881   3 
  -3   7   0 4900.00 737.755   2 
  -3   7   0 5270.03 1197.24   3 
  -3   7  -1 6330.23 843.185   2 
  -3   7  -1 7288.11 1441.45   3 
  -3   7  -2 23616.7 1583.02   2 
  -3   7  -2 22929.1 2424.61   3 
  -3   7  -3 3896.06 716.746   2 
  -3   7  -3 4027.37 1112.11   3 
  -3   7  -4 9325.63 1046.66   2 
  -3   7  -4 7851.97 1522.06   3 
  -3   7  -5 3862.24 754.761   2 
  -3   7  -5 4691.48 1281.04   3 
  -3   7  -6 4182.12 1284.75   3 
  -3   7  -7 1575.03 890.598   3 
  -3   7  -8 5492.98 1400.04   3 
  -3   7  -9 1725.48 1056.97   3 
  -3   7 -10 834.901 662.439   3 
  -3   7 -11 5702.83 1638.18   3 
  -3   8   7 9027.15 1022.13   2 
  -3   8   6 2870.83 640.284   2 
  -3   8   6 3016.41 862.865   3 
  -3   8   5 916.408 461.171   2 
  -3   8   5 1617.25 867.322   3 
  -3   8   4 1760.07 551.144   2 
  -3   8   4 2752.54 894.909   3 
  -3   8   3 279.595 337.763   2 
  -3   8   3 924.454 590.972   3 
  -3   8   2 1859.05 534.074   2 
  -3   8   2 2431.06 916.046   3 
  -3   8   1 3138.35 647.369   2 
  -3   8   1 3841.93 1109.30   3 
  -3   8   0 5443.66 764.850   2 
  -3   8   0 6141.10 1266.86   3 
  -3   8  -1 4375.57 1129.11   3 
  -3   8  -2 5063.79 1275.65   3 
  -3   8  -3 4795.48 1346.67   3 
  -3   8  -4-149.036 730.814   3 
  -3   8  -5-781.828 890.143   3 
  -3   8  -6 3425.45 1242.00   3 
  -3   8  -7 3144.45 1195.80   3 
  -3   8  -8 1467.27 940.623   3 
  -3   9   4 1810.86 863.755   3 
  -3   9   3 949.657 943.407   3 
  -3   9   2 10098.9 1682.76   3 
  -3   9   1 530.600 693.810   3 
  -3   9   0 5776.64 1456.92   3 
  -3   9  -1 2527.54 1116.84   3 
  -3   9  -2 2801.77 1184.85   3 
  -3   9  -3 3760.49 1265.53   3 
  -3   9  -4 4239.05 1409.17   3 
  -4  -6   5-589.638 314.692   2 
  -4  -6   4 3102.35 588.094   2 
   4  -5 -15 950.426 680.552   1 
  -4  -5  11 2449.10 457.829   2 
  -4  -5  10 4605.00 592.375   2 
  -4  -5   9 4216.37 577.407   2 
  -4  -5   8 3590.56 567.780   2 
  -4  -5   7 7117.09 793.828   2 
  -4  -5   6 493.421 323.172   2 
  -4  -5   5 5112.86 732.327   2 
   4  -4 -17 4074.38 1079.61   1 
   4  -4 -16 3691.67 959.898   1 
  -4  -4  13 2301.09 483.897   2 
  -4  -4  12 1423.61 403.007   2 
  -4  -4  11 3428.44 604.536   2 
  -4  -4  10 6134.85 760.207   2 
  -4  -4   9 14502.8 1150.99   2 
  -4  -4   8 1947.09 508.358   2 
  -4  -4   7 3760.37 646.329   2 
  -4  -4   6 7538.68 945.640   2 
  -4  -4   5 1144.93 472.283   2 
  -4  -4 -10 1945.47 737.490   3 
  -4  -4 -11 647.126 591.806   3 
  -4  -4 -12 6867.34 1332.16   3 
  -4  -4 -13 3372.66 929.155   3 
  -4  -4 -14 2565.16 850.712   3 
  -4  -4 -15 943.086 665.251   3 
  -4  -4 -16 4973.00 1209.36   3 
   4  -3 -19 5014.59 1105.42   1 
   4  -3 -18 5289.57 1064.37   1 
   4  -3 -17 6399.06 1225.82   1 
   4  -3 -16 131.833 567.669   1 
  -4  -3  14 9692.41 993.554   2 
  -4  -3  13 2647.83 613.157   2 
  -4  -3  12 8829.96 942.013   2 
  -4  -3  11 29480.8 1665.11   2 
  -4  -3  10 6336.56 817.909   2 
  -4  -3   9 675.189 419.303   2 
  -4  -3   8 12352.1 1159.80   2 
  -4  -3   7 2395.28 568.759   2 
  -4  -3   6 10219.7 1104.15   2 
  -4  -3  -3 13340.1 1477.72   3 
  -4  -3  -4 28257.4 2198.73   3 
  -4  -3  -5 9035.46 1309.61   3 
  -4  -3  -6 15994.0 1755.95   3 
  -4  -3  -7 10324.5 1449.34   3 
  -4  -3  -8 13683.7 1673.00   3 
  -4  -3  -9 8409.26 1395.33   3 
  -4  -3 -10 10834.8 1597.62   3 
  -4  -3 -11 6601.88 1291.75   3 
  -4  -3 -12 2244.69 902.313   3 
  -4  -3 -13 4587.19 1093.68   3 
  -4  -3 -14 5008.35 1222.39   3 
  -4  -3 -15 7109.08 1360.52   3 
  -4  -3 -16 1244.08 739.965   3 
  -4  -3 -17-640.245 613.136   3 
   4  -2 -21 94.3218 516.664   1 
   4  -2 -20 537.312 546.603   1 
   4  -2 -19 1476.96 758.826   1 
   4  -2 -18-732.202 622.480   1 
   4  -2 -17 151.947 522.415   1 
  -4  -2  15 511.029 445.189   2 
  -4  -2  14 2598.38 608.868   2 
  -4  -2  13 13851.2 1200.90   2 
  -4  -2  12 35847.4 1916.74   2 
  -4  -2  11 17247.0 1364.82   2 
  -4  -2  10 791.620 462.401   2 
  -4  -2   9 423.547 374.241   2 
  -4  -2   8 1454.38 539.864   2 
  -4  -2   7 4662.35 797.141   2 
  -4  -2   6 21554.0 1630.50   2 
   4  -2  -5 4345.67 751.809   3 
   4  -2  -4 40229.5 2150.85   3 
   4  -2  -3-452.914 355.205   3 
   4  -2  -2 6875.12 983.123   3 
   4  -2  -1 3963.89 792.604   3 
  -4  -2   0 1097.51 558.764   3 
   4  -2   0 638.613 334.561   3 
  -4  -2  -1 38207.9 2366.09   3 
   4  -2   1 36732.5 2366.15   3 
  -4  -2  -2 11294.5 1393.62   3 
  -4  -2  -3 22742.2 1939.04   3 
  -4  -2  -4 1915.62 654.052   3 
  -4  -2  -5 858.360 595.652   3 
  -4  -2  -6 11570.7 1497.45   3 
  -4  -2  -7 912.150 598.775   3 
  -4  -2  -8 4673.48 1066.07   3 
  -4  -2  -9 2905.13 831.746   3 
  -4  -2 -10 18844.3 2045.53   3 
  -4  -2 -11 8648.58 1421.76   3 
  -4  -2 -12-577.138 542.267   3 
  -4  -2 -13 9572.07 1552.40   3 
  -4  -2 -14 400.529 451.796   3 
  -4  -2 -15 1502.29 775.086   3 
  -4  -2 -16 2611.84 954.777   3 
  -4  -2 -17-357.747 473.731   3 
   4  -1 -20 916.765 590.923   1 
   4  -1 -19 926.916 600.189   1 
   4  -1 -18 871.285 544.317   1 
   4  -1 -17 1640.02 627.217   1 
  -4  -1  16 730.273 439.591   2 
  -4  -1  15 764.808 403.461   2 
  -4  -1  14 3981.47 710.203   2 
  -4  -1  13 1108.08 471.254   2 
  -4  -1  12 960.604 521.823   2 
  -4  -1  11 25842.9 1695.39   2 
   4  -1 -11 25367.8 1136.13   3 
  -4  -1  10 13961.5 1299.62   2 
   4  -1 -10 13785.9 960.204   3 
  -4  -1   9 31632.2 1929.34   2 
   4  -1  -9 32296.5 1567.75   3 
  -4  -1   8 52996.6 2507.49   2 
   4  -1  -8 52728.3 2127.19   3 
  -4  -1   7 1832.56 655.396   2 
   4  -1  -7 1645.84 478.068   3 
  -4  -1   6 2028.09 594.428   2 
   4  -1  -6 2151.26 511.516   3 
   4  -1  -5 30197.5 1806.07   3 
   4  -1  -4 11348.6 1158.85   3 
  -4  -1   3 3997.29 782.066   3 
   4  -1  -3 4117.20 764.356   3 
  -4  -1   2 62519.0 2738.89   3 
   4  -1  -2 60872.8 2792.34   3 
  -4  -1   1 7967.84 1063.62   3 
   4  -1  -1 6537.48 971.062   3 
  -4  -1   0 45041.9 2474.43   3 
   4  -1   0 42851.9 2478.53   3 
  -4  -1  -1 31103.6 2117.37   3 
   4  -1   1 34497.0 2267.68   3 
  -4  -1  -2 2234.08 725.270   3 
   4  -1   2 1808.29 676.816   3 
  -4  -1  -3 3429.90 832.585   3 
  -4  -1  -4 11986.9 1484.27   3 
  -4  -1  -5 3000.70 810.113   3 
  -4  -1  -6 2312.20 746.678   3 
  -4  -1  -7 4550.52 985.586   3 
  -4  -1  -8 9010.50 1350.17   3 
  -4  -1  -9 1587.53 696.154   3 
  -4  -1 -10 12138.6 1667.28   3 
  -4  -1 -11 10471.0 1606.76   3 
  -4  -1 -12 4296.14 1138.14   3 
  -4  -1 -13-1101.46 739.930   3 
  -4  -1 -14-746.324 597.795   3 
  -4  -1 -15 5090.93 1282.03   3 
  -4  -1 -16 411.992 545.358   3 
  -4  -1 -17 1098.07 712.063   3 
  -4  -1 -18 5168.12 1294.63   3 
   4   0 -19 3760.45 776.133   1 
   4   0 -18-205.516 387.974   1 
   4   0 -17 1265.16 495.599   1 
  -4   0  16 10251.8 1164.21   2 
  -4   0  15 6461.27 959.294   2 
  -4   0  14 20107.1 1549.49   2 
  -4   0  13 250.785 406.984   2 
  -4   0  12 37686.1 2100.70   2 
   4   0 -12 37568.0 1654.14   3 
  -4   0  11 21241.4 1621.36   2 
   4   0 -11 23777.3 1377.57   3 
  -4   0  10 1652.24 620.642   2 
   4   0 -10 1409.12 398.996   3 
  -4   0   9 28933.8 1877.30   2 
   4   0  -9 23986.5 1500.66   3 
  -4   0   8 3495.26 782.229   2 
   4   0  -8 3176.46 617.988   3 
  -4   0   7 3168.71 785.846   2 
   4   0  -7 4328.99 677.814   3 
  -4   0   6 2573.60 676.598   2 
   4   0  -6 1556.33 477.265   3 
   4   0  -5 2383.60 582.524   3 
   4   0  -4 12067.8 1215.55   3 
  -4   0   3 64673.7 2665.02   3 
   4   0  -3 61029.4 2744.57   3 
  -4   0   2 14956.9 1374.10   3 
   4   0  -2 17950.1 1517.78   3 
  -4   0   1 10095.2 1188.25   3 
   4   0  -1 9806.42 1199.48   3 
  -4   0   0 68743.9 3040.94   3 
   4   0   0 72677.5 3191.47   3 
  -4   0  -1 83247.0 3389.64   3 
   4   0   1 80960.0 3415.05   3 
  -4   0  -2 30988.7 2174.33   3 
  -4   0  -3 22321.0 1905.73   3 
  -4   0  -4 13055.8 1530.35   3 
  -4   0  -5 13906.0 1598.10   3 
  -4   0  -6 45094.3 2887.64   3 
  -4   0  -7 6164.42 1181.50   3 
  -4   0  -8 8550.22 1379.13   3 
  -4   0  -9 17940.4 1979.29   3 
  -4   0 -10-317.331 465.655   3 
  -4   0 -11 5974.02 1288.17   3 
  -4   0 -12-894.029 619.548   3 
  -4   0 -13 1922.40 892.274   3 
  -4   0 -14-93.1298 271.178   3 
  -4   0 -15 125.524 560.880   3 
  -4   0 -16 6086.65 1362.36   3 
  -4   0 -17-1689.80 848.571   3 
   4   1 -17 2088.46 553.960   1 
  -4   1  16 1108.96 494.188   2 
  -4   1  15 87.9609 467.245   2 
  -4   1  14 3021.32 684.219   2 
  -4   1  13 906.278 502.996   2 
  -4   1  12 343.827 515.067   2 
   4   1 -12 1013.20 409.240   3 
  -4   1  11 24227.3 1746.18   2 
   4   1 -11 24447.6 1592.09   3 
  -4   1  10 15983.3 1461.89   2 
   4   1 -10 13252.0 1186.67   3 
  -4   1   9 30274.3 1947.58   2 
   4   1  -9 28390.1 1747.66   3 
  -4   1   8 48654.2 2472.74   2 
   4   1  -8 49844.8 2332.73   3 
  -4   1   7 3112.44 720.294   2 
   4   1  -7 2288.96 579.267   3 
  -4   1   6 738.074 337.795   3 
  -4   1   6 2029.35 649.038   2 
   4   1  -5 28554.2 1861.06   3 
  -4   1   5 28380.3 1949.90   2 
   4   1  -4 11789.2 1231.62   3 
   4   1  -3 2511.03 658.315   3 
  -4   1   2 61375.6 2691.18   3 
   4   1  -2 61258.0 2831.72   3 
  -4   1   1 6860.48 1027.39   3 
   4   1  -1 6657.91 1004.13   3 
  -4   1   0 43073.7 2442.04   3 
   4   1   0 41841.7 2429.93   3 
  -4   1  -1 32491.0 2189.74   3 
  -4   1  -2 2431.47 733.697   3 
  -4   1  -3 4312.22 906.666   3 
  -4   1  -4 13412.1 1549.50   3 
  -4   1  -5 2770.89 827.288   3 
  -4   1  -6 1597.05 758.742   3 
  -4   1  -7 3852.33 987.352   3 
  -4   1  -8 7873.08 1319.77   3 
  -4   1  -9 2486.34 863.439   3 
  -4   1 -10 14171.9 1892.88   3 
  -4   1 -11 14223.8 1942.34   3 
  -4   1 -12 5442.73 1245.34   3 
  -4   1 -13 253.399 584.829   3 
  -4   1 -14 638.647 623.409   3 
  -4   1 -15 6482.88 1454.53   3 
  -4   1 -16-530.689 455.085   3 
  -4   1 -17 4554.82 1257.12   3 
  -4   2  16 3273.01 822.900   2 
  -4   2  15-13.1177 374.743   2 
  -4   2  14 2980.34 681.621   2 
  -4   2  13 14860.1 1412.19   2 
  -4   2  12 39173.2 2201.01   2 
   4   2 -12 32727.9 1964.52   3 
  -4   2  11 20541.5 1661.18   2 
   4   2 -11 17584.8 1488.41   3 
  -4   2  10 650.357 424.530   2 
   4   2 -10-573.667 393.325   3 
  -4   2   9-171.160 470.294   2 
   4   2  -9 596.984 338.835   3 
  -4   2   8 1164.71 331.157   3 
  -4   2   8 608.784 470.605   2 
   4   2  -8 990.448 437.641   3 
  -4   2   7 4149.72 603.837   3 
   4   2  -7 3275.74 679.772   3 
  -4   2   7 4695.58 886.753   2 
  -4   2   6 21155.9 1355.29   3 
   4   2  -6 23221.4 1719.71   3 
  -4   2   6 21739.5 1725.25   2 
   4   2  -5 3561.95 738.455   3 
  -4   2   5 3613.00 872.715   2 
   4   2  -4 38841.8 2270.83   3 
  -4   2   4 43545.3 2428.85   2 
   4   2  -3 726.802 417.752   3 
  -4   2   2 6839.34 990.615   3 
   4   2  -2 7681.52 1072.67   3 
  -4   2   1 2972.38 735.793   3 
  -4   2   0 1649.83 600.649   3 
  -4   2  -1 41797.5 2543.26   3 
  -4   2  -2 11267.7 1433.31   3 
  -4   2  -3 24650.0 2077.46   3 
  -4   2  -4 1845.08 672.950   3 
  -4   2  -5 58.0043 505.491   3 
  -4   2  -6 10722.6 1579.28   3 
  -4   2  -7 544.213 607.806   3 
  -4   2  -8 2363.03 954.093   3 
  -4   2  -9 4161.07 1150.31   3 
  -4   2 -10 19938.2 2237.41   3 
  -4   2 -11 9605.55 1734.11   3 
  -4   2 -12 425.577 651.089   3 
  -4   2 -13 9393.23 1720.26   3 
  -4   2 -14 287.328 556.828   3 
  -4   2 -15 3901.80 1159.78   3 
  -4   2 -16 558.592 466.761   3 
  -4   3  16-34.9128 519.814   2 
  -4   3  15 485.559 438.713   2 
  -4   3  14 10385.0 1234.35   2 
  -4   3  13 3286.49 816.422   2 
  -4   3  12 9050.43 1161.54   2 
  -4   3  11 34317.5 2109.62   2 
  -4   3  10 6265.62 985.128   2 
  -4   3   9 669.904 248.619   3 
  -4   3   9 1165.39 608.994   2 
  -4   3   8 12610.4 1352.32   2 
  -4   3   8 13188.9 924.391   3 
  -4   3   7 2192.37 478.391   3 
  -4   3   7 1892.87 627.337   2 
  -4   3   6 8979.97 1165.29   2 
  -4   3   6 6149.70 784.324   3 
  -4   3   5 2665.90 737.652   2 
  -4   3   4-234.080 426.993   2 
  -4   3   3 7475.96 1024.89   3 
  -4   3   3 6262.60 1005.17   2 
  -4   3   2 19391.8 1654.53   3 
   4   3  -2 18938.5 1500.96   1 
   4   3  -1 5023.72 811.825   1 
  -4   3   1 6263.27 1048.69   3 
  -4   3   0 20740.9 1847.46   3 
  -4   3  -1 68664.8 3371.66   3 
  -4   3  -2 10315.6 1439.60   3 
  -4   3  -3 11711.8 1565.20   3 
  -4   3  -4 26011.0 2302.97   3 
  -4   3  -5 8639.64 1448.50   3 
  -4   3  -6 16320.2 1977.29   3 
  -4   3  -7 12456.6 1806.54   3 
  -4   3  -8 14930.9 1963.65   3 
  -4   3  -9 11126.8 1767.43   3 
  -4   3 -10 12213.3 1889.37   3 
  -4   3 -11 7725.24 1590.01   3 
  -4   3 -12 3332.25 1026.98   3 
  -4   3 -13 2282.10 962.303   3 
  -4   3 -14 5740.54 1535.99   3 
  -4   3 -15 6618.87 1621.43   3 
  -4   4  15 1675.18 690.348   2 
  -4   4  14 6826.66 1046.80   2 
  -4   4  13 2463.36 731.378   2 
  -4   4  12 1095.53 562.259   2 
  -4   4  11 4009.26 838.491   2 
  -4   4  10 6277.52 969.023   2 
  -4   4   9 14850.0 1431.54   2 
  -4   4   9 13367.5 849.095   3 
   4   4  -9 13195.4 1119.21   1 
   4   4  -8 1742.30 419.759   1 
  -4   4   8 3539.28 787.026   2 
  -4   4   8 3446.24 565.917   3 
  -4   4   7 4480.60 850.687   2 
  -4   4   7 4036.94 687.214   3 
   4   4  -7 4142.53 641.051   1 
  -4   4   6 7094.01 1024.45   2 
   4   4  -6 6079.34 809.833   1 
  -4   4   5 907.124 597.967   2 
   4   4  -5 1086.15 414.698   1 
   4   4  -4 7653.28 915.205   1 
  -4   4   4 6050.41 999.157   2 
  -4   4   4 6184.12 944.388   3 
  -4   4   3 13586.5 1410.52   2 
  -4   4   3 14812.2 1493.46   3 
   4   4  -3 11851.8 1164.36   1 
  -4   4   2 9830.05 1239.78   2 
  -4   4   2 11236.3 1361.72   3 
   4   4  -2 11570.4 1176.74   1 
  -4   4   1 15517.3 1649.04   3 
  -4   4   0 19285.6 1873.54   3 
  -4   4  -1 12123.9 1555.27   3 
  -4   4  -2 7803.28 1350.41   3 
  -4   4  -3 18825.3 2022.74   3 
  -4   4  -4 26384.3 2450.24   3 
  -4   4  -5 10579.6 1621.97   3 
  -4   4  -6 18512.9 2133.30   3 
  -4   4  -7 8996.85 1623.15   3 
  -4   4  -8 1216.52 888.383   3 
  -4   4  -9 1867.92 1013.63   3 
  -4   4 -10 3323.46 1257.33   3 
  -4   4 -11 368.219 827.773   3 
  -4   4 -12 5257.95 1340.99   3 
  -4   4 -13 3555.06 1094.33   3 
  -4   4 -14 19.8221 444.314   3 
  -4   5  14 3852.36 864.444   2 
  -4   5  13 6020.71 1000.94   2 
  -4   5  12 160.855 521.669   2 
  -4   5  11 1866.61 680.904   2 
  -4   5  10 4651.91 853.857   2 
  -4   5   9 5131.94 888.051   2 
  -4   5   8 3074.54 757.624   2 
  -4   5   8 2478.39 576.769   3 
  -4   5   7 7954.45 1101.81   2 
   4   5  -6 996.520 332.415   1 
  -4   5   6 1441.37 587.885   2 
   4   5  -5 5059.16 717.014   1 
  -4   5   5 5719.80 939.108   2 
  -4   5   5 4538.00 879.595   3 
   4   5  -4 4766.63 726.271   1 
  -4   5   4 4125.39 811.406   2 
  -4   5   4 4638.95 909.225   3 
   4   5  -3 5542.75 774.207   1 
  -4   5   3 5046.18 915.669   2 
  -4   5   3 5279.71 1034.37   3 
  -4   5   2 199.924 511.876   2 
  -4   5   2 443.134 476.659   3 
  -4   5   1 8300.99 1140.37   2 
  -4   5   1 9452.77 1382.18   3 
  -4   5   0 10584.6 1518.15   3 
  -4   5  -1 13372.1 1721.31   3 
  -4   5  -2 12149.0 1725.94   3 
  -4   5  -3 10817.2 1700.95   3 
  -4   5  -4 4723.98 1272.71   3 
  -4   5  -5 364.919 723.316   3 
  -4   5  -6 7857.38 1549.18   3 
  -4   5  -7 48.7569 808.103   3 
  -4   5  -8 2116.52 1042.84   3 
  -4   5  -9 1449.55 923.575   3 
  -4   5 -10 2279.10 970.205   3 
  -4   5 -11 539.832 717.543   3 
  -4   5 -12 233.870 718.655   3 
  -4   6  13 5272.11 982.750   2 
  -4   6  12 634.796 518.971   2 
  -4   6  11 443.612 528.548   2 
  -4   6  10 2027.02 680.764   2 
  -4   6   9 997.972 508.000   2 
  -4   6   8 3157.84 748.113   2 
  -4   6   7 1586.79 636.250   2 
  -4   6   6 4616.19 842.935   2 
  -4   6   6 3015.25 747.142   3 
  -4   6   5 1406.09 628.222   2 
  -4   6   5 487.573 515.039   3 
  -4   6   4 3513.46 761.131   2 
  -4   6   4 3402.19 921.000   3 
  -4   6   3 2672.58 677.924   2 
  -4   6   3 2099.18 803.675   3 
  -4   6   2 326.149 451.650   2 
  -4   6   2-118.705 418.581   3 
  -4   6   1 733.712 509.710   2 
  -4   6   1-484.012 579.715   3 
  -4   6   0 4578.83 868.299   2 
  -4   6   0 4364.14 1086.95   3 
  -4   6  -1 6369.68 1039.16   2 
  -4   6  -1 5621.96 1176.44   3 
  -4   6  -2 3684.55 1055.47   3 
  -4   6  -3 4506.42 1244.15   3 
  -4   6  -4 5495.41 1344.09   3 
  -4   6  -5 2377.61 1069.14   3 
  -4   6  -6 4528.89 1330.60   3 
  -4   6  -7 1956.65 976.963   3 
  -4   6  -8-1250.26 852.463   3 
  -4   6  -9 3481.07 1329.02   3 
  -4   6 -10 4463.61 1300.93   3 
  -4   7  12 3180.48 861.699   2 
  -4   7  11 3390.01 851.934   2 
  -4   7  10 848.392 601.225   2 
  -4   7   9 1019.45 559.284   2 
  -4   7   8 3218.24 733.180   2 
  -4   7   7 636.729 459.285   2 
  -4   7   6 1348.74 554.921   2 
  -4   7   5 1110.01 572.234   2 
  -4   7   5 3562.93 1013.25   3 
  -4   7   4 500.908 462.716   2 
  -4   7   4-75.0977 369.417   3 
  -4   7   3 590.568 416.627   2 
  -4   7   3 1017.93 620.270   3 
  -4   7   2 1956.17 620.260   2 
  -4   7   2 1400.89 668.782   3 
  -4   7   1 2979.13 773.448   2 
  -4   7   1 1073.94 891.693   3 
  -4   7   0 255.415 446.895   2 
  -4   7   0 1051.84 761.266   3 
  -4   7  -1 1017.01 569.873   2 
  -4   7  -1 673.064 543.495   3 
  -4   7  -2 4605.53 915.793   2 
  -4   7  -2 3379.82 1131.72   3 
  -4   7  -3 2238.75 741.012   2 
  -4   7  -3 1338.53 910.640   3 
  -4   7  -4 7548.42 1126.78   2 
  -4   7  -4 6328.69 1536.33   3 
  -4   7  -5 6049.76 1540.14   3 
  -4   7  -6-375.002 579.716   3 
  -4   7  -7-118.396 678.027   3 
  -4   7  -8 7385.90 1868.61   3 
  -4   8  10 701.861 485.871   2 
  -4   8   9 958.692 541.696   2 
  -4   8   8 332.412 520.347   2 
  -4   8   7 1298.17 576.881   2 
  -4   8   6 1802.46 613.607   2 
  -4   8   5 191.859 428.139   2 
  -4   8   4 2409.77 684.338   2 
  -4   8   3 2436.55 695.877   2 
  -4   8   3 1597.13 832.217   3 
  -4   8   2 315.080 450.154   2 
  -4   8   2 750.438 785.613   3 
  -4   8   1 4116.38 810.944   2 
  -4   8   1 2653.14 1069.08   3 
  -4   8   0 1006.19 779.967   3 
  -4   8  -1 3020.91 1149.88   3 
  -4   8  -2 842.680 802.747   3 
  -4   8  -3 696.958 775.515   3 
  -4   8  -4 1613.63 1167.55   3 
  -4   8  -5 1623.44 1050.10   3 
  -4   9   1 5237.24 1397.65   3 
  -4   9   0 3900.54 1326.99   3 
  -4   9  -1 3788.40 1262.73   3 
  -5  -5   9 956.333 417.906   2 
  -5  -5   8 2639.22 622.475   2 
  -5  -5   7 1304.66 459.354   2 
  -5  -5   6 2000.63 638.945   2 
  -5  -5   5-623.641 457.838   2 
  -5  -4  14 686.079 397.101   2 
  -5  -4  13 7487.68 954.315   2 
  -5  -4  12 2703.38 631.223   2 
  -5  -4  11-315.372 393.197   2 
  -5  -4  10 2019.32 572.713   2 
  -5  -4   9 10780.6 1187.82   2 
  -5  -4   8 2247.50 655.536   2 
  -5  -4   7 1495.22 580.925   2 
  -5  -4   6 1227.40 592.106   2 
  -5  -3  16 2096.25 607.961   2 
  -5  -3  15 524.398 450.485   2 
  -5  -3  14 4251.47 777.420   2 
  -5  -3  13 149.036 336.036   2 
  -5  -3  12 265.932 420.661   2 
  -5  -3  11 7636.56 1049.84   2 
  -5  -3  10 3032.86 770.464   2 
  -5  -3   9 2527.25 717.314   2 
  -5  -3   8-222.329 468.636   2 
  -5  -3   7 14080.4 1497.24   2 
  -5  -3   6-283.878 447.384   2 
  -5  -3  -4 1189.16 696.859   3 
  -5  -3  -5 800.545 668.413   3 
  -5  -3  -6 3667.91 1084.03   3 
  -5  -3  -7 2983.74 1000.52   3 
  -5  -3  -8-34.0170 380.575   3 
  -5  -3  -9 2207.70 926.789   3 
  -5  -3 -10 799.712 669.027   3 
  -5  -3 -11 1364.88 723.283   3 
  -5  -3 -12-568.619 614.572   3 
   5  -2 -19 2573.71 887.044   1 
   5  -2 -18 2952.75 888.491   1 
  -5  -2  17 1582.15 604.007   2 
  -5  -2  16 1372.58 627.835   2 
  -5  -2  15 9912.75 1191.75   2 
  -5  -2  14-128.846 512.855   2 
  -5  -2  13 1092.64 597.588   2 
  -5  -2  12 13108.3 1389.37   2 
  -5  -2  11 11908.1 1361.08   2 
  -5  -2  10 3762.78 804.633   2 
  -5  -2   9 2716.24 720.518   2 
  -5  -2   8-83.0785 478.473   2 
  -5  -2   7 2758.04 762.006   2 
  -5  -2   6 4746.83 970.969   2 
   5  -2  -6 3800.82 762.188   3 
   5  -2  -5 3170.63 772.246   3 
   5  -2  -4 596.591 548.195   3 
  -5  -2   0 1501.58 714.590   3 
  -5  -2  -1 4270.62 963.259   3 
  -5  -2  -2 31206.5 2451.99   3 
  -5  -2  -3 6602.83 1282.17   3 
  -5  -2  -4 27194.4 2382.46   3 
  -5  -2  -5 8569.19 1447.00   3 
  -5  -2  -6 3588.51 986.062   3 
  -5  -2  -7 7721.43 1377.72   3 
  -5  -2  -8 5507.75 1256.36   3 
  -5  -2  -9 1393.16 733.459   3 
  -5  -2 -10 6138.39 1328.23   3 
  -5  -2 -11 6738.92 1417.74   3 
  -5  -2 -12-968.664 664.200   3 
  -5  -2 -13 6829.11 1441.75   3 
   5  -1 -19 789.778 633.815   1 
  -5  -1  17 1021.17 601.962   2 
  -5  -1  16 3673.65 804.140   2 
  -5  -1  15 61.3442 471.540   2 
  -5  -1  14 4499.81 870.067   2 
  -5  -1  13 1831.40 682.953   2 
  -5  -1  12 7228.78 1117.85   2 
  -5  -1  11 10.6785 439.501   2 
  -5  -1  10 15254.6 1559.29   2 
  -5  -1   9 310.047 601.446   2 
  -5  -1   8 17117.2 1688.70   2 
  -5  -1   7 6425.05 1133.78   2 
   5  -1  -7 9044.53 1146.91   3 
  -5  -1   6 2845.34 844.481   2 
   5  -1  -6 3132.35 810.272   3 
   5  -1  -5 2739.26 686.796   3 
   5  -1  -4 7897.78 1109.96   3 
  -5  -1   3 7978.17 1211.36   3 
  -5  -1   2 9453.41 1332.69   3 
  -5  -1   1 11264.9 1413.46   3 
  -5  -1   0 22796.4 2070.37   3 
  -5  -1  -1 10191.8 1523.84   3 
  -5  -1  -2 27372.2 2307.05   3 
  -5  -1  -3 28649.7 2405.88   3 
  -5  -1  -4 1715.50 733.683   3 
  -5  -1  -5 821.697 683.640   3 
  -5  -1  -6 8074.10 1446.62   3 
  -5  -1  -7 318.482 521.883   3 
  -5  -1  -8 2319.33 973.121   3 
  -5  -1  -9 6323.54 1326.69   3 
  -5  -1 -10 2917.31 965.236   3 
  -5  -1 -11 1442.67 880.212   3 
  -5  -1 -12 7901.60 1669.40   3 
  -5  -1 -13-939.519 686.735   3 
  -5  -1 -14 2038.81 942.412   3 
  -5   0  17 31.2716 381.219   2 
  -5   0  16 5188.68 913.304   2 
  -5   0  15 526.831 427.174   2 
  -5   0  14-395.049 520.411   2 
  -5   0  13 2636.47 806.741   2 
  -5   0  12 4002.00 888.302   2 
  -5   0  11 766.172 609.207   2 
  -5   0  10 5441.18 1059.78   2 
  -5   0   9 5239.76 985.984   2 
  -5   0   8 2049.77 633.919   2 
   5   0  -8 2990.69 695.204   3 
  -5   0   7 2288.61 839.051   2 
   5   0  -7 2604.43 684.615   3 
  -5   0   6 21514.4 1947.97   2 
   5   0  -6 18551.9 1704.65   3 
  -5   0   5 5801.98 982.520   3 
   5   0  -5 6695.04 1056.07   3 
  -5   0   4-89.4673 362.207   3 
  -5   0   3 9321.04 1250.20   3 
  -5   0   2 1764.28 699.480   3 
  -5   0   1 33616.2 2348.70   3 
  -5   0   0 9356.49 1340.75   3 
  -5   0  -1 18992.8 1922.50   3 
  -5   0  -2 1074.05 724.932   3 
  -5   0  -3 19915.1 1998.47   3 
  -5   0  -4-115.743 684.164   3 
  -5   0  -5 2300.75 834.456   3 
  -5   0  -6 551.209 538.929   3 
  -5   0  -7-3.38214 648.609   3 
  -5   0  -8-91.7466 642.813   3 
  -5   0  -9-646.105 882.496   3 
  -5   0 -10 2410.87 1010.12   3 
  -5   0 -11 2747.52 1001.98   3 
  -5   0 -12 2471.40 1048.68   3 
  -5   0 -13-1358.46 849.244   3 
  -5   0 -14 5621.05 1380.00   3 
  -5   1  16 3054.64 809.450   2 
  -5   1  15 558.502 477.529   2 
  -5   1  14 3452.83 836.302   2 
  -5   1  13 2516.58 730.834   2 
  -5   1  12 7953.36 1199.57   2 
  -5   1  11 672.575 621.206   2 
  -5   1  10 14705.1 1600.78   2 
  -5   1   9 508.602 591.168   2 
  -5   1   8 15630.3 1675.89   2 
  -5   1   7 7927.25 1267.78   2 
  -5   1   6 3979.86 797.141   3 
  -5   1   6 3456.04 976.788   2 
  -5   1   5 3248.77 745.158   3 
  -5   1   5 2876.58 861.534   2 
  -5   1   4 6004.45 977.367   3 
  -5   1   3 8414.53 1168.07   3 
  -5   1   2 8298.27 1230.45   3 
  -5   1   1 12317.2 1526.37   3 
  -5   1   0 25573.6 2170.24   3 
  -5   1  -1 12138.9 1554.27   3 
  -5   1  -2 29849.0 2456.90   3 
  -5   1  -3 27837.5 2416.39   3 
  -5   1  -4 1821.59 847.185   3 
  -5   1  -5 2063.05 825.879   3 
  -5   1  -6 5630.19 1270.48   3 
  -5   1  -7 745.099 772.253   3 
  -5   1  -8 4348.35 1342.41   3 
  -5   1  -9 7797.07 1536.99   3 
  -5   1 -10 4012.09 1252.44   3 
  -5   1 -11 529.736 608.094   3 
  -5   1 -12 6477.51 1455.27   3 
  -5   1 -13 493.425 585.362   3 
  -5   2  15 9825.60 1320.50   2 
  -5   2  14 549.993 522.600   2 
  -5   2  13 1492.45 678.899   2 
  -5   2  12 15456.7 1605.91   2 
  -5   2  11 12135.4 1459.69   2 
  -5   2  10 2522.59 807.959   2 
  -5   2   9 2867.52 831.682   2 
  -5   2   8-49.6083 419.243   2 
  -5   2   7 3311.50 844.186   2 
  -5   2   6 4550.92 800.909   3 
  -5   2   6 3346.94 984.866   2 
  -5   2   5 2136.58 600.547   3 
  -5   2   5 3444.31 933.744   2 
  -5   2   4-16.6246 396.345   3 
  -5   2   3 1258.61 580.177   3 
  -5   2   2 4633.23 961.562   3 
  -5   2   1 20545.3 1927.58   3 
  -5   2   0 1398.70 730.578   3 
  -5   2  -1 3882.60 1043.60   3 
  -5   2  -2 30913.0 2523.12   3 
  -5   2  -3 5120.71 1224.30   3 
  -5   2  -4 28427.4 2559.94   3 
  -5   2  -5 10360.2 1668.51   3 
  -5   2  -6 5755.83 1273.57   3 
  -5   2  -7 7588.58 1489.80   3 
  -5   2  -8 3742.21 1109.65   3 
  -5   2  -9 2158.38 870.697   3 
  -5   2 -10 3665.30 1145.49   3 
  -5   2 -11 6680.54 1567.50   3 
  -5   2 -12 1215.66 905.173   3 
  -5   2 -13 7212.09 1443.34   3 
  -5   3  14 4117.89 943.709   2 
  -5   3  13 1255.67 717.589   2 
  -5   3  12 581.732 714.374   2 
  -5   3  11 8657.91 1289.88   2 
  -5   3  10 3033.31 861.808   2 
  -5   3   9 3001.89 885.055   2 
  -5   3   8 611.944 645.380   2 
  -5   3   7 12007.9 1533.04   2 
  -5   3   6 221.146 382.537   3 
  -5   3   6 1136.91 648.258   2 
  -5   3   5 7477.58 1060.93   3 
  -5   3   5 4523.85 1007.00   2 
  -5   3   4 4472.14 876.005   3 
  -5   3   4 3619.19 896.467   2 
  -5   3   3 80.2430 420.179   3 
  -5   3   2 6577.59 1129.01   3 
  -5   3   1 2384.75 757.055   3 
  -5   3   0 558.202 615.338   3 
  -5   3  -1 12079.5 1667.23   3 
  -5   3  -2 27180.2 2471.81   3 
  -5   3  -3 855.289 593.199   3 
  -5   3  -4 307.877 597.002   3 
  -5   3  -5 214.170 475.555   3 
  -5   3  -6 4810.16 1262.53   3 
  -5   3  -7 3916.65 1180.82   3 
  -5   3  -8 580.392 753.444   3 
  -5   3  -9 4783.72 1315.90   3 
  -5   3 -10 962.572 727.921   3 
  -5   3 -11 2268.32 1356.06   3 
  -5   3 -12 1162.92 914.079   3 
  -5   4  13 7850.08 1244.59   2 
  -5   4  12 2735.01 837.485   2 
  -5   4  11 831.791 562.959   2 
  -5   4  10 1889.16 762.329   2 
  -5   4   9 12245.2 1488.10   2 
  -5   4   8 2129.26 791.030   2 
  -5   4   7 2292.08 857.006   2 
  -5   4   7 3121.70 742.249   3 
  -5   4   6 1275.89 727.672   2 
  -5   4   6 1965.39 629.779   3 
  -5   4   5 6120.53 1177.72   2 
  -5   4   5 6618.89 1071.60   3 
  -5   4   4 28.8284 428.003   3 
  -5   4   4-566.491 647.000   2 
  -5   4   3 1499.90 679.913   3 
  -5   4   3 1909.87 792.559   2 
  -5   4   2 14153.4 1668.52   3 
  -5   4   2 18299.8 1848.34   2 
  -5   4   1 3792.04 990.663   3 
  -5   4   0 10344.4 1564.44   3 
  -5   4  -1 759.493 659.084   3 
  -5   4  -2 494.443 546.914   3 
  -5   4  -3 271.782 586.385   3 
  -5   4  -4 4069.25 1145.52   3 
  -5   4  -5 686.083 717.722   3 
  -5   4  -6 5435.39 1373.40   3 
  -5   4  -7 2039.77 1163.64   3 
  -5   4  -8-245.397 618.326   3 
  -5   4  -9 2149.67 1132.98   3 
  -5   4 -10-305.110 673.465   3 
  -5   4 -11 3840.31 1409.45   3 
  -5   5  12 4461.41 999.450   2 
  -5   5  11 4895.43 1022.13   2 
  -5   5  10 1555.73 643.155   2 
  -5   5   9 1375.31 697.209   2 
  -5   5   8 5193.44 1065.57   2 
  -5   5   7 451.003 484.650   2 
  -5   5   6 1940.02 732.182   2 
  -5   5   5-163.590 542.985   2 
  -5   5   5 1338.10 723.832   3 
  -5   5   4 2517.94 881.601   2 
  -5   5   4 5523.26 1085.88   3 
  -5   5   3 4662.59 1137.48   2 
  -5   5   3 5304.90 1128.44   3 
  -5   5   2 250.605 575.544   2 
  -5   5   2 1012.33 736.378   3 
  -5   5   1 5926.90 1154.09   2 
  -5   5   1 5099.92 1185.96   3 
  -5   5   0 9208.15 1541.01   3 
  -5   5  -1 209.942 718.457   3 
  -5   5  -2 8101.03 1465.66   3 
  -5   5  -3 5751.03 1366.52   3 
  -5   5  -4 2145.38 983.231   3 
  -5   5  -5 501.066 724.854   3 
  -5   5  -6 8737.20 1724.20   3 
  -5   5  -7 5381.68 1402.07   3 
  -5   5  -8 3671.27 1254.82   3 
  -5   5  -9 2492.43 1140.88   3 
  -5   6  10 314.856 555.449   2 
  -5   6   9 1879.59 750.925   2 
  -5   6   8 1653.33 773.285   2 
  -5   6   7 2589.39 802.632   2 
  -5   6   6 2390.15 823.634   2 
  -5   6   5 1333.12 664.428   2 
  -5   6   4 1480.87 761.127   2 
  -5   6   4 2844.24 843.614   3 
  -5   6   3 1933.78 781.864   2 
  -5   6   3 3426.01 1005.84   3 
  -5   6   2 263.865 657.681   2 
  -5   6   2 979.283 677.799   3 
  -5   6   1 2674.34 905.138   2 
  -5   6   1 1228.33 819.087   3 
  -5   6   0 1566.51 770.686   2 
  -5   6   0 760.954 800.188   3 
  -5   6  -1 4381.30 1018.12   2 
  -5   6  -1 3357.84 1100.20   3 
  -5   6  -2 1168.73 925.663   3 
  -5   6  -3 2043.35 936.305   3 
  -5   6  -4 2434.20 1148.47   3 
  -5   6  -5 1628.14 798.968   3 
  -5   6  -6 1694.82 1012.08   3 
  -5   6  -7 4091.16 1530.99   3 
  -5   7   8 1997.60 731.099   2 
  -5   7   7-595.680 630.533   2 
  -5   7   6 16.4978 595.396   2 
  -5   7   5 2813.17 839.843   2 
  -5   7   4 1065.96 689.583   2 
  -5   7   3 284.832 476.168   2 
  -5   7   2 438.419 538.208   2 
  -5   7   2-1956.45 997.025   3 
  -5   7   1 863.069 553.842   2 
  -5   7   1-435.941 688.360   3 
  -5   7   0-42.1545 572.581   2 
  -5   7   0-212.823 546.501   3 
  -5   7  -1 155.534 536.728   2 
  -5   7  -1 223.017 736.055   3 
  -5   7  -2 199.683 576.025   2 
  -5   7  -2 2461.88 1104.71   3 
  -5   7  -3 392.367 619.535   2 
  -5   7  -3-476.204 748.437   3 
  -5   7  -4 1936.67 834.148   2 
  -5   7  -4 594.902 715.337   3 
  -5   8  -1-1807.26 1063.13   3 
  -6  -5   5-424.947 547.905   2 
  -6  -4  11 831.794 388.543   2 
  -6  -4  10 3572.94 822.272   2 
  -6  -4   9 909.273 590.045   2 
  -6  -4   8-17.9919 468.223   2 
  -6  -4   7 155.786 500.486   2 
  -6  -4   6 1898.00 677.381   2 
  -6  -4   5 2649.93 846.678   2 
  -6  -3  14-658.786 454.316   2 
  -6  -3  13-188.255 414.538   2 
  -6  -3  12 1151.60 579.923   2 
  -6  -3  11 1457.78 780.185   2 
  -6  -3  10 3402.91 876.969   2 
  -6  -3   9-223.482 488.982   2 
  -6  -3   8-1905.21 724.965   2 
  -6  -3   7 369.783 523.865   2 
  -6  -3   6 3178.79 977.170   2 
  -6  -3  -6 1258.99 778.987   3 
  -6  -2  14 5210.57 1038.88   2 
  -6  -2  13-954.272 629.386   2 
  -6  -2  12 1445.73 543.120   2 
  -6  -2  11 939.115 566.768   2 
  -6  -2  10 1211.45 607.517   2 
  -6  -2   9-997.796 657.638   2 
  -6  -2   8 972.672 643.213   2 
  -6  -2   7 1630.13 681.084   2 
  -6  -2   6 593.410 574.484   2 
  -6  -2  -1 8276.79 1448.37   3 
  -6  -2  -2 6207.73 1402.70   3 
  -6  -2  -3 2672.78 930.291   3 
  -6  -2  -4 2268.84 843.716   3 
  -6  -2  -5 5989.56 1363.87   3 
  -6  -2  -6 1816.75 843.658   3 
  -6  -2  -7-51.9809 608.440   3 
  -6  -2  -8 2215.39 1103.23   3 
  -6  -1  14 3836.09 929.052   2 
  -6  -1  13-1284.67 646.126   2 
  -6  -1  12-5.46659 468.243   2 
  -6  -1  11 1428.60 621.669   2 
  -6  -1  10 1663.41 748.403   2 
  -6  -1   9 5386.39 1150.13   2 
  -6  -1   8 1299.98 600.835   2 
  -6  -1   7 6763.11 1279.63   2 
  -6  -1   6-1155.30 745.536   2 
  -6  -1   2 606.183 636.572   3 
  -6  -1   1 1732.54 716.062   3 
  -6  -1   0 19490.9 2069.53   3 
  -6  -1  -1 271.440 673.311   3 
  -6  -1  -2-93.3985 662.150   3 
  -6  -1  -3 4143.19 1121.43   3 
  -6  -1  -4 2240.18 870.271   3 
  -6  -1  -5 1066.28 694.512   3 
  -6  -1  -6 1508.58 843.086   3 
  -6  -1  -7 312.631 845.907   3 
  -6  -1  -8 830.722 838.687   3 
  -6  -1  -9 501.405 853.854   3 
  -6   0  13 3099.56 970.155   2 
  -6   0  12 3760.18 936.952   2 
  -6   0  11 2.83741 312.047   2 
  -6   0  10 140.806 467.338   2 
  -6   0   9 7050.04 1241.07   2 
  -6   0   8 1901.65 752.905   2 
  -6   0   7 691.164 681.977   2 
  -6   0   6-746.930 646.915   2 
  -6   0   5 1343.35 731.586   2 
  -6   0   4 2471.08 828.932   3 
  -6   0   3 293.136 476.920   3 
  -6   0   2 582.522 563.780   3 
  -6   0   1-82.8702 608.294   3 
  -6   0   0 508.648 583.645   3 
  -6   0  -1 4964.48 1117.10   3 
  -6   0  -2 8117.29 1494.78   3 
  -6   0  -3 5036.83 1189.77   3 
  -6   0  -4 160.067 606.134   3 
  -6   0  -5 5948.15 1363.71   3 
  -6   0  -6 2210.38 938.951   3 
  -6   0  -7 1995.26 1046.39   3 
  -6   0  -8 3797.87 1127.16   3 
  -6   0  -9 1030.85 836.972   3 
  -6   1  12-1124.87 602.218   2 
  -6   1  11 2241.74 869.587   2 
  -6   1  10 1799.54 766.101   2 
  -6   1   9 5497.68 1166.39   2 
  -6   1   8 752.795 628.341   2 
  -6   1   7 6210.15 1269.16   2 
  -6   1   6 621.030 434.263   3 
  -6   1   6-293.298 655.166   2 
  -6   1   5 2239.30 736.686   3 
  -6   1   5 41.6131 594.377   2 
  -6   1   4 1439.02 603.575   3 
  -6   1   3 1077.27 685.842   3 
  -6   1   2-222.338 537.187   3 
  -6   1   1 1965.45 840.036   3 
  -6   1   0 20530.9 2177.30   3 
  -6   1  -1 1311.77 719.788   3 
  -6   1  -2-1666.76 846.768   3 
  -6   1  -3 2980.07 948.225   3 
  -6   1  -4 3412.00 1132.33   3 
  -6   1  -5-417.788 713.460   3 
  -6   1  -6 1619.34 864.533   3 
  -6   1  -7 1298.71 795.934   3 
  -6   1  -8 119.128 673.030   3 
  -6   1  -9 2104.40 1009.61   3 
  -6   2  11 318.406 481.608   2 
  -6   2  10 1313.07 715.018   2 
  -6   2   9 1401.23 718.115   2 
  -6   2   8 1303.09 718.787   2 
  -6   2   7 1673.57 580.218   3 
  -6   2   7 2009.28 852.095   2 
  -6   2   6 1370.19 600.781   3 
  -6   2   6 623.466 661.846   2 
  -6   2   5 5081.78 959.562   3 
  -6   2   5 4011.52 1121.15   2 
  -6   2   4 2074.15 775.811   3 
  -6   2   4 4604.88 1142.50   2 
  -6   2   3 686.107 490.421   3 
  -6   2   2 6915.83 1318.82   3 
  -6   2   1 1310.64 712.557   3 
  -6   2   0 1105.91 786.921   3 
  -6   2  -1 8273.21 1451.78   3 
  -6   2  -2 5486.38 1315.06   3 
  -6   2  -3 2527.76 1034.72   3 
  -6   2  -4 1319.53 952.318   3 
  -6   2  -5 8545.54 1571.05   3 
  -6   2  -6 2883.37 1120.27   3 
  -6   2  -7 986.564 683.824   3 
  -6   2  -8 4161.08 1331.32   3 
  -6   3   9 2211.50 863.430   2 
  -6   3   8 1002.20 685.488   2 
  -6   3   7-431.159 522.973   2 
  -6   3   6 3642.54 992.330   2 
  -6   3   5 879.085 492.839   3 
  -6   3   5-873.697 772.366   2 
  -6   3   4-24.7911 525.373   3 
  -6   3   4 282.663 716.491   2 
  -6   3   3 1038.08 657.897   3 
  -6   3   3 6.52375 611.354   2 
  -6   3   2 114.030 459.827   3 
  -6   3   1 1051.10 722.737   3 
  -6   3   0 2299.02 909.070   3 
  -6   3  -1 4301.34 1109.16   3 
  -6   3  -2 2625.79 955.536   3 
  -6   3  -3 7268.19 1560.11   3 
  -6   3  -4 230.029 705.908   3 
  -6   3  -5-824.090 844.701   3 
  -6   3  -6 3235.81 1266.92   3 
  -6   3  -7 4678.81 1488.45   3 
  -6   4   8 317.350 615.348   2 
  -6   4   7-672.026 778.054   2 
  -6   4   6 905.422 707.849   2 
  -6   4   5 1887.77 934.084   2 
  -6   4   4 1379.14 742.457   3 
  -6   4   4 1888.84 897.532   2 
  -6   4   3 1295.23 709.174   3 
  -6   4   3 1134.71 725.154   2 
  -6   4   2 6523.58 1259.49   3 
  -6   4   2 8662.05 1535.61   2 
  -6   4   1 3999.96 1054.53   3 
  -6   4   0 1412.33 823.382   3 
  -6   4  -1 5986.10 1363.00   3 
  -6   4  -2 102.509 522.485   3 
  -6   4  -3 3786.51 1299.40   3 
  -6   4  -4-991.138 880.356   3 
  -6   4  -5 3837.07 1254.59   3 
  -6   4  -6 803.668 895.105   3 
  -6   5   5-173.347 792.165   2 
  -6   5   4 2922.55 1084.53   2 
  -6   5   3 7725.17 1448.03   2 
  -6   5   2 1471.65 877.815   3 
  -6   5   2 1032.71 878.000   2 
  -6   5   1 6098.08 1312.03   3 
  -6   5   1 3858.89 1063.51   2 
  -6   5   0 5234.42 1306.50   3 
  -6   5   0 3749.90 1210.18   2 
  -6   5  -1 3097.50 1105.71   3 
  -6   5  -2 5741.22 1491.62   3 
  -6   5  -3 2895.58 1209.56   3 
  -6   5  -4 749.798 861.154   3 
  -6   5  -5 376.476 680.316   3 
  -6   6   1 2623.99 984.542   3 
  -6   6   0 680.122 579.351   3 
  -6   6  -1-588.106 921.018   3 
  -6   6  -2 1754.76 814.527   3 
  -7  -1   0 3622.17 1103.98   3 
  -7  -1  -1-115.588 496.149   3 
  -7  -1  -2-761.269 762.226   3 
  -7   0   3 7196.34 1369.62   3 
  -7   0   2 4387.33 1205.13   3 
  -7   0   1 3126.74 1079.91   3 
  -7   0   0 1044.44 758.280   3 
  -7   0  -1-1383.95 812.566   3 
  -7   0  -2 1600.10 925.365   3 
  -7   0  -3-886.266 804.953   3 
  -7   1   4 661.161 663.236   3 
  -7   1   3 3235.73 1002.05   3 
  -7   1   2 1076.78 655.518   3 
  -7   1   1 776.204 668.247   3 
  -7   1   0 729.402 808.129   3 
  -7   1  -1-1785.54 962.926   3 
  -7   1  -2-1627.47 914.795   3 
  -7   1  -3-245.767 669.379   3 
  -7   2   3 1442.29 801.121   3 
  -7   2   2-222.385 541.279   3 
  -7   2   1-604.383 676.843   3 
  -7   2   0-83.0361 572.540   3 
  -7   2  -1 2331.12 897.507   3 
  -7   2  -2 2928.50 1008.57   3 
  -7   2  -3-1034.42 929.073   3 
  -7   3   2 2032.59 906.293   3 
  -7   3   1 680.527 798.323   3 
  -7   3   0 1916.34 859.127   3 
  -7   3  -1 874.804 820.354   3 
  -7   3  -2 2665.78 1144.48   3 
  -7   4  -1-31.8787 809.316   3 
   0   0   0    0.00    0.00   0 
TITL LZQ-249 in P2(1) 
REM P2(1) (#4 in standard setting) 
CELL 0.71073   5.469466   7.826293  17.703626  90.0000  94.4520  90.0000 
ZERR   11.00   0.001506   0.001646   0.003234   0.0000   0.0207   0.0000 
LATT -1 
SYMM -x, y+1/2,-z 
SFAC C H N O S 
UNIT 11.00 11.00 11.00 11.00 11.00 
TREF 
HKLF 4 
END 
;
_shelx_hkl_checksum              74852
loop_
_space_group_symop_operation_xyz
'x, y, z'
'-x, y+1/2, -z'
loop_
_atom_site_label
_atom_site_type_symbol
_atom_site_fract_x
_atom_site_fract_y
_atom_site_fract_z
_atom_site_U_iso_or_equiv
_atom_site_adp_type
_atom_site_occupancy
_atom_site_site_symmetry_order
_atom_site_calc_flag
_atom_site_refinement_flags_posn
_atom_site_refinement_flags_adp
S1 S 0.12312(17) 0.73404(12) 0.84535(4) 0.0529(3) Uani 1 1 d . .
N1 N 0.1750(5) 0.3527(3) 0.69318(12) 0.0360(6) Uani 1 1 d . .
O1 O 0.0442(6) 0.6255(3) 0.68390(11) 0.0673(9) Uani 1 1 d . .
O2 O -0.3186(5) 0.4285(3) 0.79611(12) 0.0549(7) Uani 1 1 d . .
O3 O 0.1590(5) 0.1835(3) 0.79721(11) 0.0578(7) Uani 1 1 d . .
C1 C 0.0980(6) 0.5063(4) 0.72442(16) 0.0391(8) Uani 1 1 d . .
C2 C 0.0966(6) 0.5175(4) 0.81023(15) 0.0345(7) Uani 1 1 d . .
H2 H 0.2386 0.4534 0.8323 0.041 Uiso 1 1 calc R U
C3 C -0.1315(6) 0.4356(4) 0.83755(16) 0.0391(8) Uani 1 1 d . .
C4 C -0.1189(7) 0.3817(5) 0.91748(16) 0.0482(9) Uani 1 1 d . .
H4 H 0.0450 0.3722 0.9437 0.058 Uiso 1 1 calc R U
C5 C -0.3203(8) 0.4367(7) 0.9638(2) 0.0747(14) Uani 1 1 d . .
H5A H -0.2784 0.4628 1.0168 0.090 Uiso 1 1 calc R U
H5B H -0.4493 0.5072 0.9394 0.090 Uiso 1 1 calc R U
C6 C -0.3081(8) 0.2578(7) 0.9402(2) 0.0741(13) Uani 1 1 d . .
H6A H -0.4293 0.2181 0.9012 0.089 Uiso 1 1 calc R U
H6B H -0.2583 0.1737 0.9786 0.089 Uiso 1 1 calc R U
C7 C 0.2193(6) 0.2011(4) 0.73404(16) 0.0430(8) Uani 1 1 d . .
C8 C 0.3523(10) 0.0624(5) 0.6955(2) 0.0769(14) Uani 1 1 d . .
H8A H 0.3762 -0.0336 0.7289 0.115 Uiso 1 1 calc R U
H8B H 0.5086 0.1044 0.6826 0.115 Uiso 1 1 calc R U
H8C H 0.2570 0.0279 0.6502 0.115 Uiso 1 1 calc R U
C9 C 0.2057(6) 0.3569(4) 0.61243(15) 0.0338(7) Uani 1 1 d . .
C10 C 0.0345(6) 0.2815(4) 0.56303(15) 0.0424(8) Uani 1 1 d . .
H10 H -0.1027 0.2302 0.5812 0.051 Uiso 1 1 calc R U
C11 C 0.0638(7) 0.2812(4) 0.48652(17) 0.0484(9) Uani 1 1 d . .
H11 H -0.0527 0.2292 0.4530 0.058 Uiso 1 1 calc R U
C12 C 0.2648(7) 0.3576(5) 0.46008(16) 0.0506(9) Uani 1 1 d . .
H12 H 0.2865 0.3564 0.4085 0.061 Uiso 1 1 calc R U
C13 C 0.4345(7) 0.4361(5) 0.50943(19) 0.0494(9) Uani 1 1 d . .
H13 H 0.5691 0.4904 0.4911 0.059 Uiso 1 1 calc R U
C14 C 0.4068(6) 0.4351(4) 0.58648(17) 0.0437(8) Uani 1 1 d . .
H14 H 0.5232 0.4868 0.6201 0.052 Uiso 1 1 calc R U
C15 C -0.1680(9) 0.8280(6) 0.8170(2) 0.0781(13) Uani 1 1 d . .
H15A H -0.2041 0.8121 0.7636 0.117 Uiso 1 1 calc R U
H15B H -0.1630 0.9480 0.8284 0.117 Uiso 1 1 calc R U
H15C H -0.2929 0.7744 0.8440 0.117 Uiso 1 1 calc R U
loop_
_atom_site_aniso_label
_atom_site_aniso_U_11
_atom_site_aniso_U_22
_atom_site_aniso_U_33
_atom_site_aniso_U_23
_atom_site_aniso_U_13
_atom_site_aniso_U_12
S1 0.0610(6) 0.0478(5) 0.0493(5) -0.0111(4) 0.0015(4) -0.0062(5)
N1 0.0442(17) 0.0357(14) 0.0286(11) 0.0003(11) 0.0057(11) 0.0028(13)
O1 0.121(3) 0.0466(15) 0.0359(11) 0.0087(12) 0.0144(14) 0.0278(17)
O2 0.0423(15) 0.0759(18) 0.0454(12) 0.0072(12) -0.0048(11) -0.0070(14)
O3 0.090(2) 0.0434(15) 0.0421(12) 0.0095(10) 0.0200(12) 0.0025(13)
C1 0.044(2) 0.0395(18) 0.0345(15) 0.0035(16) 0.0038(15) 0.0008(16)
C2 0.0369(19) 0.0359(17) 0.0306(14) -0.0001(13) 0.0014(13) 0.0037(15)
C3 0.042(2) 0.0422(18) 0.0334(15) -0.0011(14) 0.0036(15) 0.0017(17)
C4 0.044(2) 0.064(2) 0.0368(15) 0.0123(17) 0.0040(14) 0.0039(19)
C5 0.073(3) 0.111(4) 0.0414(19) 0.009(2) 0.0157(19) 0.023(3)
C6 0.079(3) 0.090(4) 0.054(2) 0.023(3) 0.012(2) -0.022(3)
C7 0.052(2) 0.035(2) 0.0423(17) 0.0035(15) 0.0059(15) 0.0029(16)
C8 0.113(4) 0.056(3) 0.064(2) 0.010(2) 0.022(2) 0.037(3)
C9 0.0372(18) 0.0338(16) 0.0308(13) 0.0008(13) 0.0051(13) 0.0016(15)
C10 0.042(2) 0.046(2) 0.0389(15) -0.0037(15) 0.0050(14) -0.0076(16)
C11 0.055(2) 0.050(2) 0.0399(16) -0.0083(15) -0.0013(15) -0.0001(18)
C12 0.068(3) 0.053(2) 0.0321(15) -0.0011(16) 0.0125(17) 0.005(2)
C13 0.050(2) 0.053(2) 0.0476(17) 0.0071(17) 0.0195(16) -0.0013(18)
C14 0.038(2) 0.050(2) 0.0428(16) -0.0001(15) 0.0015(14) -0.0045(17)
C15 0.074(3) 0.053(2) 0.108(3) -0.006(2) 0.013(3) 0.015(2)
loop_
_atom_type_symbol
_atom_type_description
_atom_type_scat_dispersion_real
_atom_type_scat_dispersion_imag
_atom_type_scat_source
C C 0.0033 0.0016 'International Tables Vol C Tables 4.2.6.8 and 6.1.1.4'
H H 0.0000 0.0000 'International Tables Vol C Tables 4.2.6.8 and 6.1.1.4'
N N 0.0061 0.0033 'International Tables Vol C Tables 4.2.6.8 and 6.1.1.4'
O O 0.0106 0.0060 'International Tables Vol C Tables 4.2.6.8 and 6.1.1.4'
S S 0.1246 0.1234 'International Tables Vol C Tables 4.2.6.8 and 6.1.1.4'
loop_
_geom_angle_atom_site_label_1
_geom_angle_atom_site_label_2
_geom_angle_atom_site_label_3
_geom_angle
C15 S1 C2 104.07(19)
C7 N1 C1 124.6(2)
C7 N1 C9 119.9(2)
C1 N1 C9 115.5(2)
O1 C1 N1 119.9(2)
O1 C1 C2 122.2(3)
N1 C1 C2 117.9(3)
C3 C2 C1 111.3(3)
C3 C2 S1 109.4(2)
C1 C2 S1 113.0(2)
C3 C2 H2 107.6
C1 C2 H2 107.6
S1 C2 H2 107.6
O2 C3 C4 122.8(3)
O2 C3 C2 120.2(3)
C4 C3 C2 116.7(3)
C3 C4 C5 117.7(3)
C3 C4 C6 117.5(3)
C5 C4 C6 58.8(3)
C3 C4 H4 116.7
C5 C4 H4 116.7
C6 C4 H4 116.7
C6 C5 C4 60.9(3)
C6 C5 H5A 117.7
C4 C5 H5A 117.7
C6 C5 H5B 117.7
C4 C5 H5B 117.7
H5A C5 H5B 114.8
C5 C6 C4 60.3(3)
C5 C6 H6A 117.7
C4 C6 H6A 117.7
C5 C6 H6B 117.7
C4 C6 H6B 117.7
H6A C6 H6B 114.9
O3 C7 N1 122.0(3)
O3 C7 C8 121.4(3)
N1 C7 C8 116.6(3)
C7 C8 H8A 109.5
C7 C8 H8B 109.5
H8A C8 H8B 109.5
C7 C8 H8C 109.5
H8A C8 H8C 109.5
H8B C8 H8C 109.5
C10 C9 C14 120.5(3)
C10 C9 N1 119.7(3)
C14 C9 N1 119.8(3)
C9 C10 C11 120.3(3)
C9 C10 H10 119.8
C11 C10 H10 119.8
C12 C11 C10 119.7(3)
C12 C11 H11 120.2
C10 C11 H11 120.2
C11 C12 C13 120.1(3)
C11 C12 H12 120.0
C13 C12 H12 120.0
C12 C13 C14 120.4(3)
C12 C13 H13 119.8
C14 C13 H13 119.8
C9 C14 C13 119.0(3)
C9 C14 H14 120.5
C13 C14 H14 120.5
S1 C15 H15A 109.5
S1 C15 H15B 109.5
H15A C15 H15B 109.5
S1 C15 H15C 109.5
H15A C15 H15C 109.5
H15B C15 H15C 109.5
loop_
_geom_bond_atom_site_label_1
_geom_bond_atom_site_label_2
_geom_bond_distance
S1 C15 1.790(5)
S1 C2 1.807(3)
N1 C7 1.402(4)
N1 C1 1.402(4)
N1 C9 1.453(3)
O1 C1 1.199(4)
O2 C3 1.213(4)
O3 C7 1.198(3)
C1 C2 1.522(4)
C2 C3 1.515(4)
C2 H2 0.9800
C3 C4 1.473(4)
C4 C5 1.487(5)
C4 C6 1.495(5)
C4 H4 0.9800
C5 C6 1.465(7)
C5 H5A 0.9700
C5 H5B 0.9700
C6 H6A 0.9700
C6 H6B 0.9700
C7 C8 1.500(5)
C8 H8A 0.9600
C8 H8B 0.9600
C8 H8C 0.9600
C9 C10 1.365(4)
C9 C14 1.369(4)
C10 C11 1.376(4)
C10 H10 0.9300
C11 C12 1.366(5)
C11 H11 0.9300
C12 C13 1.370(5)
C12 H12 0.9300
C13 C14 1.384(4)
C13 H13 0.9300
C14 H14 0.9300
C15 H15A 0.9600
C15 H15B 0.9600
C15 H15C 0.9600
loop_
_geom_torsion_atom_site_label_1
_geom_torsion_atom_site_label_2
_geom_torsion_atom_site_label_3
_geom_torsion_atom_site_label_4
_geom_torsion
C7 N1 C1 O1 -173.6(3)
C9 N1 C1 O1 5.7(5)
C7 N1 C1 C2 9.0(5)
C9 N1 C1 C2 -171.7(3)
O1 C1 C2 C3 101.5(4)
N1 C1 C2 C3 -81.2(3)
O1 C1 C2 S1 -22.1(4)
N1 C1 C2 S1 155.2(2)
C15 S1 C2 C3 -52.7(3)
C15 S1 C2 C1 71.9(3)
C1 C2 C3 O2 -26.7(4)
S1 C2 C3 O2 98.8(3)
C1 C2 C3 C4 158.7(3)
S1 C2 C3 C4 -75.7(3)
O2 C3 C4 C5 -44.4(5)
C2 C3 C4 C5 130.0(4)
O2 C3 C4 C6 22.9(5)
C2 C3 C4 C6 -162.7(3)
C3 C4 C5 C6 107.0(4)
C3 C4 C6 C5 -107.3(4)
C1 N1 C7 O3 11.6(5)
C9 N1 C7 O3 -167.6(3)
C1 N1 C7 C8 -166.9(3)
C9 N1 C7 C8 13.8(5)
C7 N1 C9 C10 74.7(4)
C1 N1 C9 C10 -104.6(3)
C7 N1 C9 C14 -104.8(4)
C1 N1 C9 C14 75.9(4)
C14 C9 C10 C11 0.9(5)
N1 C9 C10 C11 -178.6(3)
C9 C10 C11 C12 -0.4(5)
C10 C11 C12 C13 -0.9(5)
C11 C12 C13 C14 1.5(6)
C10 C9 C14 C13 -0.3(5)
N1 C9 C14 C13 179.3(3)
C12 C13 C14 C9 -1.0(5)
