#------------------------------------------------------------------------------
#$Date: 2019-11-04 12:31:38 +0200 (Mon, 04 Nov 2019) $
#$Revision: 222738 $
#$URL: file:///home/coder/svn-repositories/cod/cif/4/03/41/4034196.cif $
#------------------------------------------------------------------------------
#
# This file is available in the Crystallography Open Database (COD),
# http://www.crystallography.net/
#
# All data on this site have been placed in the public domain by the
# contributors.
#
data_4034196
loop_
_publ_author_name
'Bandaru, Siva Sankar Murthy'
'Bhilare, Shatrughn'
'Cardozo, Jesvita'
'Chrysochos, Nicolas'
'Schulzke, Carola'
'Sanghvi, Yogesh S.'
'Gunturu, Krishna Chaitanya'
'Kapdi, Anant R.'
_publ_section_title
;
 Pd/PTABS: Low-Temperature Thioetherification of Chloro(hetero)arenes.
;
_journal_issue                   14
_journal_name_full               'The Journal of organic chemistry'
_journal_page_first              8921
_journal_page_last               8940
_journal_paper_doi               10.1021/acs.joc.9b00840
_journal_volume                  84
_journal_year                    2019
_chemical_formula_moiety         'C16 H12 N2 S2'
_chemical_formula_sum            'C16 H12 N2 S2'
_chemical_formula_weight         296.40
_space_group_crystal_system      triclinic
_space_group_IT_number           2
_space_group_name_Hall           '-P 1'
_space_group_name_H-M_alt        'P -1'
_atom_sites_solution_hydrogens   geom
_audit_creation_method           SHELXL-2018/3
_cell_angle_alpha                111.03(3)
_cell_angle_beta                 106.70(3)
_cell_angle_gamma                96.14(3)
_cell_formula_units_Z            2
_cell_length_a                   7.7620(16)
_cell_length_b                   10.205(2)
_cell_length_c                   10.415(2)
_cell_measurement_reflns_used    8139
_cell_measurement_temperature    170(2)
_cell_measurement_theta_max      59.0
_cell_measurement_theta_min      7.0
_cell_volume                     716.9(4)
_computing_cell_refinement       'X-Area by STOE & Cie GmbH 2010'
_computing_data_collection       'X-Area by STOE & Cie GmbH 2010'
_computing_data_reduction        'X-Area by STOE & Cie GmbH 2010'
_computing_molecular_graphics    'XP Version 5.1 by Bruker AXS 1998'
_computing_publication_material  'CIFTAB (Sheldrick, 2015)'
_computing_structure_refinement  'SHELXL-2018/3 (Sheldrick, 2015)'
_computing_structure_solution    'SHELXT-2018 (Sheldrick, 2015)'
_diffrn_ambient_temperature      170(2)
_diffrn_detector_area_resol_mean 6.67
_diffrn_measured_fraction_theta_full 0.994
_diffrn_measured_fraction_theta_max 0.986
_diffrn_measurement_device_type  'STOE IPDS2T'
_diffrn_measurement_method       \w
_diffrn_radiation_type           MoK\a
_diffrn_radiation_wavelength     0.71073
_diffrn_reflns_av_R_equivalents  0.0212
_diffrn_reflns_av_unetI/netI     0.0231
_diffrn_reflns_Laue_measured_fraction_full 0.994
_diffrn_reflns_Laue_measured_fraction_max 0.986
_diffrn_reflns_limit_h_max       10
_diffrn_reflns_limit_h_min       -10
_diffrn_reflns_limit_k_max       12
_diffrn_reflns_limit_k_min       -14
_diffrn_reflns_limit_l_max       14
_diffrn_reflns_limit_l_min       -14
_diffrn_reflns_number            8139
_diffrn_reflns_point_group_measured_fraction_full 0.994
_diffrn_reflns_point_group_measured_fraction_max 0.986
_diffrn_reflns_theta_full        25.242
_diffrn_reflns_theta_max         29.480
_diffrn_reflns_theta_min         3.501
_diffrn_source                   'fine-focus sealed tube'
_exptl_absorpt_coefficient_mu    0.361
_exptl_absorpt_correction_T_max  0.9909
_exptl_absorpt_correction_T_min  0.9711
_exptl_absorpt_correction_type   numerical
_exptl_absorpt_process_details   'face indexed'
_exptl_crystal_colour            colourless
_exptl_crystal_density_diffrn    1.373
_exptl_crystal_description       platelet
_exptl_crystal_F_000             308
_exptl_crystal_size_max          0.156
_exptl_crystal_size_mid          0.149
_exptl_crystal_size_min          0.064
_refine_diff_density_max         0.285
_refine_diff_density_min         -0.222
_refine_diff_density_rms         0.042
_refine_ls_extinction_method     none
_refine_ls_goodness_of_fit_ref   1.040
_refine_ls_hydrogen_treatment    constr
_refine_ls_matrix_type           full
_refine_ls_number_parameters     181
_refine_ls_number_reflns         3932
_refine_ls_number_restraints     0
_refine_ls_restrained_S_all      1.040
_refine_ls_R_factor_all          0.0479
_refine_ls_R_factor_gt           0.0331
_refine_ls_shift/su_max          0.000
_refine_ls_shift/su_mean         0.000
_refine_ls_structure_factor_coef Fsqd
_refine_ls_weighting_details
'w=1/[\s^2^(Fo^2^)+(0.0414P)^2^+0.1741P] where P=(Fo^2^+2Fc^2^)/3'
_refine_ls_weighting_scheme      calc
_refine_ls_wR_factor_gt          0.0821
_refine_ls_wR_factor_ref         0.0879
_reflns_Friedel_coverage         0.000
_reflns_number_gt                3069
_reflns_number_total             3932
_reflns_threshold_expression     'I > 2\s(I)'
_cod_data_source_file            jo9b00840_si_002.cif
_cod_data_source_block           shelx
_cod_original_cell_volume        717.0(3)
_cod_database_code               4034196
_shelx_shelxl_version_number     2018/3
_shelx_space_group_comment
;
The symmetry employed for this shelxl refinement is uniquely defined
by the following loop, which should always be used as a source of
symmetry information in preference to the above space-group names.
They are only intended as comments.
;
_shelx_estimated_absorpt_t_min   0.946
_shelx_estimated_absorpt_t_max   0.977
_exptl_absorpt_special_details
;
programs X-Red32 and X-Shape by STOE & Cie GmbH 2010
;
_shelx_res_file
;
TITL SIV-01-362 in P-1
    shelx.res
    created by SHELXL-2018/3 at 16:08:57 on 22-Nov-2018
CELL  0.71073   7.7620  10.2054  10.4151  111.030  106.698   96.139
ZERR     2.00   0.0016   0.0020   0.0021    0.030    0.030    0.030
LATT   1
SFAC  C    H    N    S
UNIT  32 24 4 4
MERG   2
FMAP   2
PLAN  -5
ACTA
SIZE     0.064   0.149   0.156
BOND   $H
LIST   4
L.S.  24
TEMP  -103.00
WGHT    0.041400    0.174100
FVAR       0.32265
S1    4    0.177768    0.919084    0.843728    11.00000    0.04334    0.03532 =
         0.03140    0.00440    0.00262    0.02139
S2    4    0.711070    0.678668    0.968210    11.00000    0.03176    0.03235 =
         0.02877    0.00871    0.00482    0.01387
N1    3    0.423839    0.772145    0.875100    11.00000    0.03108    0.02879 =
         0.02729    0.01073    0.00798    0.01110
N2    3    0.167537    0.656489    0.649221    11.00000    0.02918    0.02718 =
         0.03131    0.00875    0.00494    0.00825
C1    1    0.262004    0.763642    0.779006    11.00000    0.02871    0.02685 =
         0.02828    0.01190    0.00914    0.00952
C2    1    0.500414    0.660500    0.834349    11.00000    0.02601    0.02743 =
         0.02707    0.01206    0.00822    0.00807
C3    1    0.417240    0.542742    0.699602    11.00000    0.03150    0.02617 =
         0.03346    0.00812    0.00825    0.01040
AFIX  43
H3    2    0.473409    0.464241    0.669717    11.00000   -1.20000
AFIX   0
C4    1    0.249553    0.546563    0.612473    11.00000    0.03287    0.02646 =
         0.03251    0.00532    0.00381    0.00685
AFIX  43
H4    2    0.187846    0.466631    0.520672    11.00000   -1.20000
AFIX   0
C5    1   -0.038875    0.882593    0.705205    11.00000    0.03301    0.02530 =
         0.03291    0.01171    0.00900    0.01222
C6    1   -0.051074    0.867444    0.564970    11.00000    0.03652    0.03273 =
         0.03376    0.01323    0.01291    0.01444
AFIX  43
H6    2    0.056927    0.869747    0.539429    11.00000   -1.20000
AFIX   0
C7    1   -0.221119    0.848976    0.462514    11.00000    0.04845    0.03725 =
         0.03377    0.01298    0.00617    0.01481
AFIX  43
H7    2   -0.230474    0.836268    0.365617    11.00000   -1.20000
AFIX   0
C8    1   -0.376607    0.848942    0.500359    11.00000    0.03527    0.03668 =
         0.05297    0.01654   -0.00026    0.00913
AFIX  43
H8    2   -0.492964    0.837230    0.429800    11.00000   -1.20000
AFIX   0
C9    1   -0.364734    0.865704    0.639286    11.00000    0.03301    0.04633 =
         0.07266    0.02995    0.02174    0.01217
AFIX  43
H9    2   -0.472698    0.866557    0.664959    11.00000   -1.20000
AFIX   0
C10   1   -0.195992    0.881442    0.742717    11.00000    0.04303    0.04065 =
         0.04578    0.02450    0.02137    0.01651
AFIX  43
H10   2   -0.188304    0.891357    0.838574    11.00000   -1.20000
AFIX   0
C11   1    0.770380    0.513594    0.884478    11.00000    0.02697    0.02954 =
         0.02694    0.01074    0.00513    0.01072
C12   1    0.725095    0.398469    0.918343    11.00000    0.04519    0.03938 =
         0.03594    0.02083    0.01861    0.01668
AFIX  43
H12   2    0.659271    0.406879    0.983906    11.00000   -1.20000
AFIX   0
C13   1    0.775670    0.270833    0.856701    11.00000    0.05296    0.03381 =
         0.03837    0.01923    0.01382    0.01450
AFIX  43
H13   2    0.745331    0.191874    0.880498    11.00000   -1.20000
AFIX   0
C14   1    0.869819    0.258399    0.761033    11.00000    0.03732    0.03225 =
         0.03418    0.00802    0.00611    0.01524
AFIX  43
H14   2    0.904228    0.170736    0.718524    11.00000   -1.20000
AFIX   0
C15   1    0.914289    0.373017    0.726785    11.00000    0.04063    0.03891 =
         0.04150    0.01181    0.02007    0.01322
AFIX  43
H15   2    0.978032    0.363691    0.659732    11.00000   -1.20000
AFIX   0
C16   1    0.866519    0.501801    0.789634    11.00000    0.03660    0.03227 =
         0.04022    0.01506    0.01597    0.00959
AFIX  43
H16   2    0.899711    0.581429    0.767596    11.00000   -1.20000
AFIX   0
HKLF    4




REM  SIV-01-362 in P-1
REM wR2 = 0.0879, GooF = S = 1.040, Restrained GooF = 1.040 for all data
REM R1 = 0.0331 for 3069 Fo > 4sig(Fo) and 0.0479 for all 3932 data
REM 181 parameters refined using 0 restraints

END

WGHT      0.0380      0.1911

REM Highest difference peak  0.285,  deepest hole -0.222,  1-sigma level  0.042
Q1    1   0.4666  0.6028  0.7634  11.00000  0.05    0.29
Q2    1   0.7345  0.5733  0.9029  11.00000  0.05    0.26
Q3    1   0.7526  0.4613  0.9004  11.00000  0.05    0.25
Q4    1   0.5890  0.6636  0.8879  11.00000  0.05    0.24
Q5    1   0.2262  0.8329  0.8138  11.00000  0.05    0.23
;
_shelx_res_checksum              12162
_shelx_hkl_file
;
  -3   1 -11    4.24    0.29
  -3   4  -6    0.71    0.17
  -3   5  -7    8.94    0.25
  -3   6 -12    0.28    0.35
  -3   6  -8    2.52    0.27
  -2   6  -5   33.36    0.28
  -2   7  -6   -0.23    0.20
  -2   9  -9    4.74    0.32
  -1  10  -8    0.69    0.26
  -1  11 -10    3.08    0.29
   0  -8  -6    7.83    0.20
   0   5  -2   20.58    0.17
   1  -9  -4    2.55    0.21
   1  -6   0  103.48    0.33
   1  10  -6    0.41    0.24
   1  12  -9    0.89    0.35
   2 -10  -4    0.67    0.23
   2   0   1  309.70    0.30
   2  12  -8    0.34    0.29
   3 -10  -2   13.35    0.33
   4 -10  -1    0.47    0.28
   4  -9   0    1.33    0.26
   6   0   1    0.44    0.13
   7  -7   1    0.36    0.28
   8  -9   0    4.26    0.40
   8  -5   1    6.33    0.31
   8  -4   1    1.79    0.25
   8   3  -1    0.14    0.14
   9  -8   0    2.19    0.39
   9  -1   0    0.83    0.25
  -3   0  -9    4.16    0.23
  -3   0  -6    9.75    0.16
  -3   2 -11    0.52    0.30
  -3   3  -6    6.76    0.19
  -3   5 -12    0.15    0.35
  -3   5  -8   12.28    0.30
  -3   6 -11    0.27    0.35
  -3   6 -10    1.10    0.30
  -3   6  -9    0.48    0.26
  -2  -4  -7   15.01    0.12
  -2   8  -8   19.88    0.33
  -2   9 -11    0.09    0.34
  -2   9 -10    0.53    0.34
  -1   5  -3   62.68    0.27
  -1   9  -7    7.33    0.26
  -1  11 -11   -0.04    0.35
   0  -8  -7    0.31    0.16
   0  -8  -5   11.17    0.19
   0  -6  -1    2.96    0.13
   0   3  -1  947.65    0.61
   0  10  -7    2.28    0.27
   0  12 -11    3.07    0.46
   1   7  -3    1.53    0.14
   1   9  -5   34.96    0.33
   2  11  -7    0.13    0.27
   3 -11  -4    5.12    0.33
   3  -7   1    6.33    0.21
   3  12  -8    1.18    0.33
   4 -11  -2    0.77    0.29
   4  -8   1    3.48    0.21
   5  -8   1    0.79    0.16
   6 -11  -1   11.53    0.45
   6 -10   0    2.01    0.34
   6  -8   1   16.99    0.33
   7 -11  -1   15.86    0.55
   7  -8   1    2.72    0.28
   7  -1   1    3.18    0.17
   7   9  -5    0.08    0.16
   8  -6   1    1.85    0.31
   8  -3   1    6.18    0.25
   9   2  -1    0.24    0.19
  10  -5   0    0.21    0.38
  10  -4   0   -0.16    0.35
  -3   0  -8    0.93    0.17
  -3   0  -7    0.21    0.16
  -3   1 -10   13.37    0.29
  -3   1  -6    5.93    0.16
  -3   2  -6    4.19    0.17
  -3   3 -11    2.62    0.29
  -3   4 -11   19.09    0.40
  -3   4  -7   11.81    0.24
  -3   5 -11    3.85    0.33
  -3   5 -10   20.07    0.37
  -3   5  -9   22.36    0.35
  -2   2  -3  332.95    0.48
  -2   4  -4    0.61    0.13
  -2   9 -12    0.46    0.38
  -1   3  -2    3.16    0.10
  -1   6  -4    1.26    0.16
  -1   8  -6   14.80    0.26
  -1  10  -9   27.50    0.42
   0  -8  -4    0.12    0.15
   0  -7  -2   10.10    0.15
   0  -4   0   91.50    0.22
   0   6  -3   41.72    0.24
   0   9  -6    0.63    0.22
   0  11  -9    6.61    0.34
   1  -9  -3   10.68    0.24
   1  -3   1    0.00    0.09
   1   8  -4    7.92    0.19
   1  11  -8    0.84    0.32
   1  12 -10    0.28    0.35
   2 -10  -3    4.48    0.24
   2  -9  -1    0.87    0.19
   2  -8   0   18.49    0.25
   2  -6   1    1.89    0.14
   3 -11  -3    4.04    0.35
   3 -10  -1   28.49    0.38
   3  -9   0    5.14    0.25
   4  -4   2   24.56    0.23
   4   1   1   95.55    0.22
   4  12  -8   -0.22    0.30
   5 -11  -1    7.07    0.40
   5 -10   0    1.22    0.31
   5  -5   2   93.79    0.46
   5  -4   2    0.33    0.19
   7 -10   0   11.18    0.37
   7   2   0    0.07    0.11
   7   4  -1    1.41    0.08
   8 -10   0    0.31    0.37
   8  -7   1    6.72    0.34
   8  -2   1    9.78    0.29
   8   1   0    4.77    0.19
   9   4  -2    0.01    0.14
  10  -3   0   13.25    0.41
  -3   1  -9    4.22    0.23
  -3   1  -7   33.43    0.27
  -3   2 -10    1.82    0.24
  -3   3 -10    1.30    0.27
  -3   3  -7    9.42    0.21
  -3   4 -10    0.55    0.29
  -3   4  -9   -0.20    0.22
  -3   4  -8    0.69    0.20
  -2  -4  -6    6.85    0.08
  -2   5  -5   14.42    0.21
  -2   6  -6   50.19    0.35
  -2   7  -7    2.48    0.20
  -2   8  -9    4.38    0.28
  -1  -5  -2    0.42    0.08
  -1  -3  -1   16.82    0.07
  -1   0  -1   57.79    0.10
  -1   7  -5   21.05    0.24
  -1   9  -8   15.92    0.32
  -1  10 -10    3.41    0.35
   0   7  -4   97.47    0.39
   0   8  -5   -0.33    0.20
   0  11 -10    0.07    0.32
   1  -8  -1   -0.16    0.15
   1  -4   1  144.63    0.32
   1  -2   1    0.39    0.09
   2  10  -6    2.85    0.22
   2  12  -9    1.07    0.35
   3  -8   1    8.51    0.24
   3   1   1    6.89    0.08
   3  11  -7    0.17    0.25
   4 -10   0    1.99    0.29
   4  -5   2   97.11    0.40
   4  -3   2   19.00    0.19
   5  -9   1   11.55    0.30
   5  -6   2    9.96    0.24
   5  -3   2    1.46    0.17
   5   1   1    2.11    0.11
   6  -9   1    8.37    0.31
   6  -6   2    0.09    0.21
   6  -5   2    9.97    0.26
   6  -4   2   10.99    0.24
   7  -9   1   -0.21    0.32
   8  -8   1    6.61    0.39
   9  -6   1    3.19    0.32
   9  -5   1   19.41    0.44
   9   0   0    8.69    0.29
  10  -2   0   -0.14    0.31
  10   1  -1    0.38    0.25
  -3   1  -8    1.57    0.17
  -3   2  -9   17.23    0.27
  -3   2  -8   53.54    0.38
  -3   2  -7    3.22    0.16
  -3   3  -9    0.62    0.20
  -3   3  -8    0.63    0.19
  -2  -2  -3   16.75    0.08
  -2   7  -8   27.25    0.35
  -2   8 -12    0.13    0.36
  -2   8 -11    0.08    0.35
  -2   8 -10   11.94    0.36
  -1  -6  -3    0.14    0.09
  -1  10 -12   -0.25    0.39
  -1  10 -11    4.15    0.37
   0  10  -8   -0.10    0.27
   1  -7   0   26.91    0.22
   1  10  -7    6.99    0.28
   1  12 -11    2.43    0.45
   2 -10  -2   13.97    0.27
   2  -7   1    8.81    0.20
   2   9  -5   13.47    0.24
   3 -11  -2    0.87    0.28
   3  -5   2   46.10    0.27
   3  -4   2   75.33    0.30
   3  -3   2   11.31    0.15
   3  12  -9    1.50    0.35
   4 -11  -1    3.69    0.32
   4  -9   1    8.28    0.28
   4  -6   2   33.60    0.27
   4  -2   2   15.67    0.18
   4  11  -7    1.79    0.27
   5  -7   2    1.80    0.22
   5  11  -7    0.01    0.25
   6 -11   0    7.15    0.44
   6  -7   2    0.37    0.25
   6  -3   2   41.88    0.32
   6  10  -6    0.54    0.23
   7 -11   0    0.11    0.40
   7   0   1   25.75    0.24
   8  -9   1    0.50    0.37
   9  -7   1    0.76    0.38
   9  -4   1    5.34    0.32
  -2   1  -3   17.55    0.13
  -2   3  -4   97.70    0.32
  -2   7 -12    0.41    0.37
  -2   7  -9    2.77    0.26
  -1   8  -7   22.52    0.30
  -1   9  -9   11.48    0.33
   0  -8  -3   -0.04    0.14
   0  -5   0  177.35    0.35
   0  11 -12    1.67    0.44
   0  11 -11    2.14    0.30
   1  -9  -2    2.87    0.18
   1  -5   1    2.85    0.13
   1  11  -9    4.30    0.34
   2   7  -3   11.35    0.16
   2   8  -4    0.20    0.15
   2  11  -8    0.29    0.27
   2  12 -10    2.95    0.38
   3  -6   2   23.01    0.24
   3  10  -6    0.86    0.22
   4  -7   2   71.80    0.41
   4  12  -9    0.24    0.35
   5 -11   0    3.30    0.37
   5 -10   1   13.68    0.36
   5  -2   2    0.20    0.13
   6 -10   1   15.29    0.39
   6   7  -3    4.73    0.12
   7 -10   1    4.76    0.39
   7  -7   2    1.64    0.28
   7  -6   2    1.00    0.27
   7  -5   2   13.36    0.30
   7  -4   2    0.08    0.21
   8  -1   1    0.24    0.21
   9  -8   1    7.18    0.45
   9  -3   1    1.92    0.27
  -2   5  -6   40.94    0.31
  -2   6  -7   13.18    0.25
  -2   7 -11   -0.16    0.34
  -2   7 -10    2.18    0.30
  -1   4  -3   42.16    0.21
  -1   7  -6   -0.05    0.20
  -1   9 -10    0.09    0.31
   0   9  -7    2.59    0.23
   0  10  -9    4.80    0.33
   1   9  -6    0.14    0.22
   2 -11  -4    9.48    0.37
   2  -9   0    7.52    0.23
   3 -10   0    0.38    0.25
   3  -9   1   22.33    0.32
   3  -2   2  192.90    0.39
   3   6  -2    0.89    0.10
   3   9  -5   16.52    0.26
   4 -12  -2    3.85    0.38
   4  10  -6    1.52    0.20
   5 -12  -1    0.02    0.38
   5  -8   2   26.91    0.34
   5   6  -2    0.12    0.08
   6  -8   2    0.87    0.19
   6  -2   2   15.70    0.21
   6   8  -4    2.61    0.15
   6   9  -5    0.01    0.18
   7  -8   2   11.67    0.38
   7  -3   2    3.52    0.23
   8 -10   1    2.37    0.43
  10  -1   0    0.69    0.28
  -2  -3  -9    0.54    0.16
  -2  -1  -3    7.79    0.09
  -2   0  -3  106.56    0.22
  -2   4  -5    0.40    0.11
  -2   6 -12   16.58    0.46
  -2   6  -8   -0.10    0.22
  -1   5  -4    0.20    0.14
  -1   6  -5    0.15    0.16
  -1   8  -8   -0.07    0.23
  -1   9 -12    2.29    0.40
  -1   9 -11    3.53    0.32
   0  -7  -1   42.46    0.24
   0   4  -2    7.21    0.11
   0   8  -6   10.35    0.25
   0  10 -10    6.31    0.34
   1 -10  -5    0.06    0.24
   1 -10  -4    0.19    0.22
   1  -6   1   95.92    0.33
   1  -1   1    3.02    0.06
   1   5  -2   26.74    0.16
   1   8  -5   11.16    0.24
   1  10  -8    4.30    0.27
   1  11 -10   -0.10    0.34
   2 -11  -3    1.57    0.28
   2 -10  -1   13.53    0.28
   2  -8   1    2.95    0.21
   2  10  -7   16.07    0.31
   2  12 -11    3.37    0.44
   3 -11  -1    7.06    0.32
   3  -7   2    0.54    0.18
   3   8  -4   11.28    0.20
   3  11  -8    8.65    0.34
   3  12 -10    0.44    0.39
   4 -11   0   14.00    0.39
   4 -10   1    3.37    0.29
   4  -8   2    1.74    0.20
   4   6  -2    3.24    0.11
   5  -9   2    8.30    0.28
   5   9  -5    2.42    0.20
   6 -12   0    7.86    0.49
   6 -11   1    5.49    0.37
   6  -9   2    0.03    0.29
   6   1   1    9.63    0.15
   6   3   0    1.09    0.08
   7 -11   1    2.96    0.39
   8  -7   2    5.85    0.37
   8  -6   2   14.98    0.35
   8  -5   2    6.65    0.30
   9  -2   1    0.02    0.24
  10  -4   1    0.87    0.39
  -2  -2 -10    3.23    0.23
  -2  -1 -11    0.10    0.26
  -2   5 -12    0.48    0.34
  -2   6 -11    2.01    0.33
  -2   6 -10    1.45    0.28
  -2   6  -9    3.05    0.27
  -1   2  -2    3.90    0.09
   0  -8  -2   -0.05    0.14
   0   7  -5    0.68    0.17
   0   9  -8   13.28    0.31
   0  10 -12    1.65    0.36
   0  10 -11    1.15    0.36
   1  -9  -1    7.11    0.19
   1  -8   0   34.33    0.26
   1   6  -3   19.58    0.20
   1   7  -4   15.69    0.21
   1  11 -11   -0.02    0.40
   2  -5   2    3.07    0.14
   2  -4   2   10.91    0.15
   2  11  -9    0.51    0.32
   4 -12  -1    0.03    0.34
   4  -1   2   15.79    0.15
   4   9  -5    6.24    0.20
   4  11  -8    1.33    0.29
   5 -12   0    0.29    0.37
   5 -11   1    3.95    0.35
   5  -1   2    0.06    0.12
   7  -9   2    1.80    0.24
   8  -8   2   -0.11    0.34
   8  -4   2   -0.03    0.26
   8   6  -3    4.54    0.10
  -2  -3  -4   52.30    0.12
  -2   2  -4  147.13    0.36
  -2   4 -12    0.38    0.34
  -2   4  -6   24.38    0.25
  -2   5 -11    0.22    0.32
  -2   5  -7    1.30    0.21
  -1  -4  -1   29.32    0.11
  -1   7  -7    1.41    0.20
  -1   8 -13    1.62    0.44
  -1   8 -12    0.18    0.36
  -1   8 -10    5.91    0.31
  -1   8  -9   -0.17    0.18
   0  -6   0    2.77    0.11
   0   5  -3    0.59    0.12
   0   6  -4    3.16    0.15
   1 -10  -3    3.37    0.22
   1  11 -12    0.71    0.43
   2 -11  -2    0.60    0.29
   2  -6   2   11.93    0.19
   2  -3   2   69.55    0.23
   2   9  -6   13.18    0.28
   3 -12  -2    6.97    0.39
   3 -11   0   15.11    0.35
   3 -10   1    0.22    0.23
   3  -8   2   14.68    0.27
   4  -9   2   -0.01    0.23
   4   7  -3    0.25    0.13
   5 -10   2   12.27    0.34
   5   7  -3    2.34    0.13
   5   8  -4    0.32    0.15
   5  11  -8    1.11    0.28
   6 -10   2   28.06    0.47
   7 -10   2   10.51    0.43
   7  -2   2    3.50    0.19
   8  -9   2    0.25    0.36
   8  -3   2   23.67    0.33
   8   0   1    0.04    0.19
   8   2   0    1.26    0.15
   9  -8   2    7.69    0.48
   9  -7   2    1.46    0.39
   9  -6   2   -0.08    0.36
   9   1   0    0.25    0.19
  10  -3   1    4.22    0.39
  -2   2 -12    2.11    0.30
  -2   3 -12    2.36    0.32
  -2   3  -5   53.48    0.27
  -2   5 -10    0.75    0.28
  -2   5  -9    2.34    0.27
  -2   5  -8    3.75    0.23
  -1  -7  -5    2.46    0.10
  -1   8 -11    8.17    0.37
   0   8  -7   10.68    0.25
   0   9  -9   14.17    0.33
   1 -10  -2    1.89    0.23
   1  -7   1    5.81    0.17
   1   9  -7    2.07    0.24
   1  10  -9   -0.11    0.25
   2 -10   0    1.21    0.20
   2  -9   1   16.44    0.27
   2  -7   2   36.01    0.27
   2  11 -10    0.97    0.35
   3  -1   2   75.92    0.24
   3   3   0    6.96    0.04
   3  10  -7    9.39    0.28
   3  11  -9    2.52    0.34
   4 -12   0    1.31    0.35
   4 -11   1   22.21    0.42
   4  -6   3   33.36    0.30
   5  -7   3    1.91    0.21
   5  -6   3   17.50    0.28
   5  -5   3   28.54    0.33
   6 -12   1   19.58    0.56
   6  -7   3    4.41    0.28
   6  -6   3   13.10    0.31
   6  -5   3   25.77    0.33
   6  -1   2    6.62    0.15
   8 -10   2    7.89    0.47
   8   8  -5   -0.10    0.17
   9  -5   2    0.05    0.31
   9  -1   1    8.59    0.29
  -2  -3  -8   13.77    0.18
  -2   0 -11    0.09    0.26
  -2   1  -4   93.54    0.28
  -2   4 -11    0.74    0.28
  -2   4  -7   89.16    0.43
  -1  -6  -2   13.06    0.13
  -1   6  -6    3.92    0.14
  -1   7 -13    0.22    0.40
  -1   7  -8   27.82    0.33
   0  -9  -5    0.42    0.16
   0  -9  -4    0.18    0.16
   0   9 -13    3.81    0.45
   0   9 -10    0.16    0.29
   1  10 -10    7.15    0.37
   2 -11  -1    0.56    0.28
   2  -2   2   25.63    0.15
   2   4  -1  107.61    0.21
   2   8  -5    5.12    0.21
   2  10  -8    2.13    0.28
   2  11 -11    0.24    0.39
   3 -12  -1    2.76    0.33
   3  -9   2   29.88    0.34
   4 -10   2   12.24    0.33
   4  -7   3  106.17    0.50
   4  -5   3   30.11    0.27
   4  -4   3    3.66    0.17
   4  10  -7    1.79    0.27
   5 -12   1    3.47    0.40
   5  -8   3    5.10    0.27
   5  -4   3    4.63    0.20
   6 -11   2    3.92    0.37
   6  -8   3    0.98    0.27
   6  -4   3    0.43    0.22
   7 -11   2    0.23    0.41
   7  -8   3   14.12    0.38
   7  -7   3    0.31    0.29
   7  -6   3    0.55    0.29
   7   1   1   -0.13    0.14
   8   7  -4    3.31    0.15
   9  -4   2   12.82    0.37
   9   3  -1    6.33    0.18
  -2  -2  -9    0.96    0.17
  -2  -1 -10    0.14    0.23
  -2   1 -11    1.31    0.24
  -2   2 -11    0.97    0.26
  -2   3 -11   12.41    0.32
  -2   3  -6    4.24    0.18
  -2   4 -10    3.50    0.25
  -2   4  -9   22.18    0.31
  -2   4  -8    0.78    0.20
  -1  -7  -4    0.22    0.09
  -1   3  -3    1.50    0.11
  -1   4  -4  193.03    0.44
  -1   5  -5    0.72    0.15
  -1   7 -12    0.06    0.34
  -1   7 -11    0.37    0.32
  -1   7 -10    0.86    0.28
  -1   7  -9    0.19    0.25
   0  -9  -3    9.73    0.21
   0  -8  -1   14.38    0.19
   0   2  -1   59.94    0.14
   0   7  -6    3.23    0.19
   0   9 -12   -0.13    0.33
   0   9 -11    0.28    0.30
   1  -9   0    1.81    0.17
   1   8  -6   66.45    0.41
   1   9  -8    3.87    0.26
   1  10 -13    0.29    0.40
   1  10 -11    1.98    0.34
   2  -8   2    2.31    0.21
   2  11 -12    0.52    0.46
   3   9  -6    5.86    0.21
   3  11 -10    0.78    0.33
   4  -8   3    9.71    0.25
   4  11  -9    1.70    0.32
   5 -11   2    0.38    0.32
   5  -9   3    5.30    0.29
   5  10  -7    3.45    0.25
   6  -9   3    1.11    0.30
   7  -9   3    1.86    0.35
   7  -5   3    5.93    0.27
   7  -1   2    0.66    0.18
   8  -7   3    0.69    0.35
   8  -2   2    0.26    0.20
  -2   0 -10    1.11    0.24
  -2   2  -5   30.04    0.21
  -2   3 -10   21.74    0.34
  -1  -6  -8    3.73    0.12
  -1  -5  -1   10.90    0.11
  -1  -1  -1  236.19    0.12
  -1   6 -13    0.16    0.39
  -1   6  -7    8.23    0.23
   0  -7   0    5.25    0.14
   0   8  -8    1.11    0.16
   1 -10  -1   18.37    0.27
   1  -8   1   83.54    0.38
   1  10 -12    0.01    0.33
   2 -10   1    0.44    0.21
   2   7  -4   19.85    0.20
   2   9  -7    2.66    0.22
   2  10  -9    0.74    0.29
   3 -12   0    2.18    0.31
   3 -11   1    0.68    0.25
   3 -10   2   -0.21    0.27
   3  -7   3   47.72    0.34
   3  -6   3   21.77    0.21
   3  -5   3   95.86    0.38
   3  10  -8    6.37    0.28
   4 -12   1    0.66    0.33
   4 -11   2    0.69    0.31
   4  -9   3    0.20    0.23
   4  -3   3    3.05    0.15
   5  -3   3   33.12    0.27
   5  11  -9    0.35    0.31
   6 -12   2    0.25    0.41
   6 -10   3    5.27    0.34
   6  -3   3   10.37    0.25
   7 -10   3    0.06    0.35
   7  -4   3    3.62    0.23
   7   9  -6   -0.01    0.22
   8  -9   3    3.89    0.44
   8  -8   3    0.58    0.34
   8  -6   3   34.46    0.49
   9  -3   2    2.75    0.28
  -2  -3  -7    1.21    0.12
  -2   0  -4    0.96    0.09
  -2   1 -10    0.50    0.23
  -2   2 -10    0.73    0.22
  -2   3  -9   -0.12    0.20
  -2   3  -8    1.96    0.20
  -2   3  -7    0.80    0.18
  -1  -7  -3    1.27    0.10
  -1   5 -13    0.35    0.38
  -1   6 -12    2.75    0.35
  -1   6  -8   41.40    0.35
   0  -9  -2   10.99    0.21
   0   6  -5   10.27    0.19
   0   8 -13    0.07    0.43
   0   8  -9   -0.09    0.25
   1  -5   2   15.25    0.17
   1  -4   2    9.97    0.13
   1   7  -5   33.35    0.28
   1   9  -9    2.73    0.29
   2 -12  -2    0.97    0.31
   2 -11   0   13.48    0.32
   2   6  -3    6.61    0.14
   3  -8   3    0.41    0.20
   3  -4   3    5.17    0.12
   3  11 -11    0.00    0.38
   4   9  -6    0.57    0.23
   4  11 -10    2.85    0.38
   5 -12   2   10.28    0.45
   5 -10   3   -0.28    0.27
   5   0   2   29.95    0.20
   8 -10   3    1.73    0.47
   8  -5   3   -0.24    0.27
  -2  -3  -6    2.95    0.11
  -2  -3  -5   20.07    0.12
  -2  -2  -8    0.20    0.16
  -2  -2  -4   14.45    0.10
  -2  -1  -9    3.13    0.20
  -2  -1  -4    0.11    0.08
  -2   1  -5   74.81    0.27
  -2   2  -9   24.41    0.29
  -2   2  -6   13.45    0.19
  -1   4 -13    2.92    0.38
  -1   5  -6   14.46    0.22
  -1   6 -11    2.73    0.31
  -1   6 -10    0.30    0.27
  -1   6  -9    0.07    0.24
   0  -5   1   12.78    0.13
   0  -4   1  140.16    0.28
   0   7  -7    1.09    0.20
   0   8 -12    0.82    0.32
   0   8 -11    0.76    0.31
   0   8 -10    0.44    0.27
   1 -11  -3    6.76    0.29
   1  -6   2   86.22    0.32
   1   8  -7    1.23    0.22
   1   9 -10    3.54    0.29
   2  -9   2    0.35    0.20
   2  10 -10    0.39    0.30
   3   8  -5    1.18    0.17
   3  11 -12    0.07    0.44
   4 -10   3   33.73    0.42
   4   0   2    6.18    0.10
   4  10  -8    7.68    0.31
   5 -11   3    3.26    0.31
   5   9  -6    0.94    0.22
   5  11 -10    1.12    0.39
   6 -11   3   12.32    0.45
   6   0   2    1.62    0.15
   7 -11   3    3.65    0.44
   7  -3   3   14.81    0.29
   7   8  -5   -0.08    0.19
   8  -4   3    4.39    0.32
   9  -7   3    4.58    0.42
   9  -6   3    0.31    0.35
   9   0   1    3.87    0.24
  -2   0  -9    8.48    0.21
  -2   1  -9    0.74    0.19
  -2   2  -8    0.34    0.17
  -2   2  -7    0.96    0.16
  -1   1  -2  838.98    0.55
  -1   3 -13    4.10    0.38
  -1   4  -5   78.94    0.32
  -1   5 -12    6.71    0.36
   0  -8   0    2.27    0.16
   0  -6   1   57.41    0.25
   0  -3   1  929.33    0.61
   0   3  -2    1.57    0.09
   0   4  -3    1.56    0.11
   0   5  -4   10.97    0.16
   1 -11  -2    6.35    0.30
   1 -10   0   37.75    0.34
   1  -9   1    8.82    0.21
   1  -7   2    4.84    0.17
   1  -3   2    2.86    0.10
   1   6  -4    2.88    0.15
   1   9 -13   -0.02    0.39
   1   9 -12    1.88    0.36
   1   9 -11    0.06    0.30
   2 -12  -1   10.29    0.33
   2  -6   3   23.17    0.23
   2  -5   3    0.02    0.13
   2   8  -6    3.20    0.21
   2   9  -8   12.37    0.32
   2  10 -13    0.41    0.42
   2  10 -12    0.47    0.40
   2  10 -11    0.54    0.33
   3 -12   1    1.43    0.33
   3 -11   2    2.23    0.28
   3  -9   3    2.38    0.22
   3  -3   3   42.38    0.24
   3   9  -7    0.68    0.22
   3  10  -9    1.58    0.29
   4 -13   1    0.55    0.39
   4 -12   2    9.52    0.40
   4  11 -11    0.19    0.39
   5  -8   4    9.71    0.28
   5  -7   4    5.49    0.26
   5  -2   3   -0.05    0.14
   5  10  -8    0.06    0.28
   6  -8   4    5.20    0.31
   6  -7   4    1.77    0.28
   6  10  -8    0.44    0.30
   8  -1   2   11.81    0.27
   9  -5   3    0.28    0.35
   9  -2   2    1.36    0.27
  -2  -2  -7   12.89    0.17
  -2  -1  -8   19.54    0.23
  -2   0  -8    0.13    0.18
  -2   0  -5   68.63    0.26
  -2   1  -8    2.31    0.16
  -2   1  -7    1.90    0.17
  -2   1  -6  204.76    0.48
  -1   4 -12    1.38    0.31
  -1   5 -11   24.21    0.41
  -1   5  -7    1.77    0.21
   0  -9  -1    1.78    0.18
   0   7 -13    1.57    0.37
   0   7 -12    0.80    0.32
   0   7  -8    3.21    0.21
   1   5  -3    2.26    0.12
   1   8  -8    2.23    0.22
   2 -11   1   11.82    0.30
   2 -10   2    1.85    0.23
   2  -7   3   77.60    0.38
   2  -1   2  175.02    0.29
   2   1   1   74.80    0.11
   3 -13   0    0.17    0.36
   3 -10   3   33.49    0.38
   3   7  -4    0.24    0.13
   4 -11   3    8.89    0.35
   4  -7   4    9.56    0.24
   4  -6   4   42.76    0.35
   4  -2   3   19.17    0.19
   4   8  -5    9.50    0.20
   5 -13   2    3.14    0.45
   5  -9   4   10.84    0.32
   5  -6   4    7.85    0.24
   5   2   1    0.51    0.08
   6 -12   3    0.92    0.37
   6  -9   4   13.19    0.35
   6  -6   4    7.15    0.28
   6  -2   3    0.44    0.15
   7  -9   4    0.03    0.39
   7  -8   4   15.57    0.41
   7  -7   4    6.61    0.35
   7   3   0   11.47    0.10
   8   1   1    2.25    0.17
  -2  -2  -6    0.09    0.12
  -2  -2  -5   31.67    0.17
  -2  -1  -7    0.09    0.14
  -2  -1  -5    1.31    0.10
  -2   0  -7   31.89    0.24
  -2   0  -6    3.63    0.14
  -1  -7  -2   12.92    0.14
  -1  -6  -1    2.89    0.11
  -1   2  -3    6.64    0.11
  -1   3  -4    5.77    0.13
  -1   5 -10   15.78    0.35
  -1   5  -9   19.64    0.31
  -1   5  -8    0.17    0.21
   0   6  -6    3.89    0.18
   0   7 -11    4.80    0.33
   0   7 -10    3.07    0.26
   0   7  -9    2.37    0.25
   1 -11  -1   -0.03    0.21
   1  -8   2    4.75    0.20
   1   4  -2    0.12    0.08
   1   7  -6    3.74    0.21
   2 -12   0    8.33    0.31
   2  -8   3   52.73    0.37
   2  -4   3   18.06    0.18
   2   9  -9    0.74    0.28
   3  10 -10    0.51    0.30
   4  -9   4    1.08    0.25
   4  -8   4    0.63    0.15
   4  -5   4   17.05    0.25
   4  10  -9    0.08    0.29
   5 -12   3   14.29    0.44
   5 -10   4    0.33    0.31
   5  -5   4    4.77    0.22
   6 -10   4   -0.09    0.30
   6  -5   4    3.33    0.23
   6   8  -5    2.25    0.19
   7 -10   4    0.00    0.40
   7  -6   4    6.60    0.29
   7   0   2   13.31    0.20
   8  -9   4   10.57    0.49
   8  -8   4    0.20    0.36
   8  -7   4    1.83    0.36
   8  -3   3    1.52    0.22
   9  -4   3    5.71    0.33
   9   2   0    0.36    0.16
  -2  -1  -6   16.83    0.17
  -1  -5  -9    0.32    0.16
  -1   0 -12    2.48    0.32
  -1   2 -12    0.39    0.30
  -1   3 -12    1.20    0.31
  -1   4 -11    0.30    0.27
  -1   4  -6   11.91    0.20
   0  -7   1   27.50    0.20
   0   6 -13   10.24    0.45
   1 -10   1    1.63    0.19
   1   8 -13    1.38    0.38
   1   8 -12    1.86    0.31
   1   8  -9    1.00    0.25
   2  -9   3   19.69    0.30
   2   7  -5    5.01    0.18
   2   9 -10    1.12    0.28
   3 -13   1    1.65    0.35
   3 -12   2   13.74    0.38
   3  -7   4   16.37    0.26
   3   0   2  397.38    0.43
   3   9  -8    1.91    0.29
   3  10 -12    0.34    0.41
   3  10 -11    0.19    0.33
   4 -13   2    0.68    0.38
   4 -12   3    2.43    0.36
   4 -10   4    5.70    0.28
   4   2   1    3.14    0.06
   4   9  -7    0.02    0.22
   5 -11   4   10.62    0.37
   5  -4   4   51.16    0.37
   5  10  -9    0.08    0.31
   6 -11   4    5.20    0.40
   6   2   1    5.00    0.10
   7 -11   4    7.17    0.47
   7  -5   4    2.87    0.25
   7  -2   3    1.31    0.18
   7   7  -4    4.28    0.17
   8  -6   4    1.77    0.33
  -1   1 -12    0.63    0.28
  -1   4 -10    3.19    0.27
   0 -10  -4    2.12    0.18
   0 -10  -3    0.19    0.18
   0  -9   0   10.61    0.21
   0   5  -5   31.43    0.23
   0   6 -12   12.04    0.39
   0   6  -7    8.93    0.23
   1 -11   0    9.42    0.26
   1  -9   2    0.54    0.18
   1   0   1   58.98    0.11
   1   8 -11    2.58    0.32
   1   8 -10    0.48    0.24
   2 -12   1    1.98    0.28
   2 -11   2    4.55    0.26
   2  -3   3   16.35    0.17
   2   8  -7    6.07    0.23
   2   9 -13    0.86    0.40
   2   9 -12   -0.15    0.35
   2   9 -11    0.37    0.32
   3 -11   3   -0.01    0.27
   3  -8   4   97.89    0.49
   3  -6   4   22.22    0.25
   3  -2   3    1.46    0.12
   3   8  -6    2.74    0.20
   4  -4   4    2.67    0.18
   4  10 -10    0.11    0.32
   5 -13   3    2.82    0.46
   5   9  -7    0.42    0.24
   6 -12   4   -0.01    0.42
   6  -4   4   -0.11    0.19
   6   9  -7    0.11    0.25
   6  10  -9    0.08    0.31
  -1  -2 -11    2.92    0.26
  -1   3 -11   12.05    0.33
  -1   3  -5  164.58    0.42
  -1   4  -9    1.56    0.23
  -1   4  -8    0.62    0.22
  -1   4  -7   61.19    0.36
   0 -10  -2    1.13    0.19
   0  -8   1  138.52    0.43
   0  -2   1   61.24    0.14
   0   5 -13    0.82    0.36
   0   6 -11    0.07    0.27
   0   6  -8   16.76    0.27
   1  -2   2    4.09    0.10
   1   6  -5   20.31    0.22
   1   7  -7    0.22    0.20
   2 -10   3    8.36    0.28
   3  -9   4    0.20    0.16
   3  -5   4   13.29    0.22
   3   4  -1   19.50    0.11
   3   5  -2   26.39    0.16
   3   9  -9    0.65    0.30
   4 -11   4    1.50    0.33
   4  10 -11    0.54    0.36
   5 -12   4    1.20    0.38
   5  -1   3    2.08    0.15
   5   7  -4    0.52    0.15
   6   7  -4    1.45    0.16
   7  -4   4   40.50    0.40
   8  -5   4    1.01    0.29
   9  -3   3    0.85    0.32
   9  -1   2    0.14    0.23
  -1  -1 -11    0.46    0.26
  -1   2 -11    0.47    0.26
  -1   3 -10    0.68    0.22
   0 -10  -1    1.47    0.20
   0   6 -10    2.29    0.25
   0   6  -9    5.31    0.25
   1 -12  -2    4.63    0.32
   1 -11   1   20.31    0.33
   1  -7   3   11.96    0.21
   1  -6   3   -0.04    0.14
   1   7 -13   -0.19    0.39
   1   7  -8    2.39    0.20
   2 -13   0    5.00    0.38
   2   6  -4    8.51    0.16
   2   8  -8    3.19    0.25
   3 -13   2    1.11    0.38
   3 -12   3   16.24    0.41
   3 -10   4    0.04    0.26
   4 -13   3    1.00    0.41
   4   8  -6    1.41    0.21
   4   9  -8    1.65    0.24
   4  10 -12    0.53    0.41
   5  -9   5    1.98    0.28
   5  -8   5   15.94    0.34
   5  -7   5   24.09    0.35
   5  10 -10    1.00    0.34
   6 -10   5    0.40    0.34
   6  -9   5    2.06    0.36
   6  -8   5    5.97    0.34
   6  -7   5    2.31    0.29
   6  -1   3    6.24    0.18
   6  10 -10   -0.06    0.36
   7 -10   5    2.71    0.39
   7  -9   5    1.11    0.38
   7  -8   5    0.02    0.34
   7   6  -3    8.54    0.15
   8  -2   3    4.88    0.24
   8   8  -6    0.04    0.23
  -1  -7  -1   55.74    0.23
  -1  -5   0   69.76    0.20
  -1  -4   0   19.42    0.11
  -1  -3 -10    2.82    0.22
  -1   0 -11    1.06    0.25
  -1   1 -11    0.85    0.24
  -1   2  -4   15.67    0.15
  -1   3  -9    7.36    0.25
  -1   3  -6   51.64    0.29
   0   4 -13    2.55    0.34
   0   4  -4    2.63    0.10
   0   5 -12    1.90    0.32
   0   5  -6  114.49    0.42
   1 -12  -1    0.67    0.28
   1 -10   2    7.37    0.23
   1  -8   3    2.08    0.20
   1  -5   3   58.43    0.25
   1   6 -14    0.67    0.39
   1   7 -12   -0.29    0.31
   1   7 -11    2.06    0.27
   1   7  -9   11.82    0.28
   2 -12   2    7.45    0.32
   2 -11   3    5.63    0.30
   2  -8   4    0.15    0.19
   2  -7   4   30.61    0.28
   2  -6   4    0.77    0.17
   2   7  -6    6.83    0.22
   2   8 -13    0.74    0.38
   2   8  -9    4.14    0.28
   3 -11   4    3.61    0.28
   3  -4   4    0.82    0.16
   3   7  -5    6.05    0.21
   3   8  -7    9.06    0.24
   3   9 -13    0.24    0.39
   3   9 -12    9.77    0.41
   3   9 -11    3.83    0.32
   3   9 -10    0.77    0.30
   4 -12   4    0.02    0.35
   4  -9   5    2.93    0.27
   4  -8   5    7.34    0.27
   4  -7   5   14.66    0.27
   4  -1   3    9.10    0.14
   4   6  -3    1.12    0.13
   5 -13   4    1.29    0.47
   5 -10   5    0.29    0.29
   5  -6   5   12.07    0.27
   5  -3   4   31.38    0.28
   5  10 -11    0.41    0.38
   6 -11   5    0.22    0.38
   6  -6   5   18.08    0.34
   6  -3   4   -0.18    0.18
   7  -7   5   31.39    0.49
   8  -8   5   -0.08    0.42
   8  -4   4    9.86    0.34
   8   0   2    0.00    0.17
  -1  -8  -3   10.68    0.14
  -1   2 -10    0.35    0.22
  -1   3  -8    1.85    0.21
  -1   3  -7   68.22    0.35
   0  -9   1    0.30    0.15
   0  -7   2   34.50    0.24
   0  -6   2  181.44    0.42
   0  -5   2   19.88    0.17
   0   3 -13    0.07    0.34
   0   5 -11    9.69    0.32
   1 -12   0    2.41    0.28
   1  -9   3    5.27    0.21
   1  -4   3   40.06    0.21
   1   5  -4    1.92    0.13
   1   6 -13    2.00    0.35
   1   6  -6    8.22    0.20
   1   7 -10    2.56    0.25
   2 -13   1    0.63    0.31
   2  -9   4   30.01    0.34
   2   8 -12    1.69    0.34
   2   8 -11    1.66    0.29
   2   8 -10    8.90    0.32
   4 -10   5    3.07    0.30
   4  -6   5   31.61    0.32
   4  -3   4    9.99    0.19
   4   9  -9    4.35    0.29
   5 -11   5   19.86    0.43
   5   8  -6    3.77    0.23
   5   9  -8    1.55    0.27
   6 -12   5    4.10    0.47
   6   9  -8    3.00    0.32
   7  -6   5    2.84    0.31
   7  -3   4    6.03    0.25
   7  -1   3    2.86    0.18
   7   2   1    0.45    0.10
   7   8  -6    3.36    0.27
   7   9  -8    0.45    0.30
   8  -7   5    0.57    0.34
   9   1   1    4.04    0.18
  -1  -8  -4   20.57    0.13
  -1  -8  -2    0.10    0.11
  -1  -6   0   10.41    0.13
  -1  -4  -9    1.16    0.18
  -1  -2 -10    2.09    0.24
  -1   0  -2  286.69    0.28
  -1   1 -10   -0.11    0.24
  -1   1  -3  167.77    0.29
   0 -10   0    2.74    0.18
   0   2 -13    0.30    0.34
   0   3  -3   47.89    0.20
   0   4 -12    1.11    0.31
   0   5 -10    1.43    0.27
   0   5  -9   -0.09    0.21
   0   5  -8    1.16    0.20
   0   5  -7   49.12    0.32
   1 -11   2    1.51    0.25
   1   5 -14   -0.25    0.40
   2 -10   4    8.47    0.28
   2  -5   4   35.99    0.23
   2  -2   3  326.58    0.48
   2   5  -3   15.35    0.15
   2   7 -14    1.31    0.44
   3 -13   3   -0.02    0.32
   3 -12   4    3.85    0.35
   3  -8   5  162.87    0.63
   4 -13   4    7.32    0.45
   4 -11   5    3.13    0.31
   4   9 -10    1.21    0.30
   5 -12   5   12.84    0.46
   5  -5   5    0.39    0.20
   5   1   2    0.40    0.10
   5   6  -3    2.77    0.14
   6  -5   5   -0.02    0.22
   6   6  -3    0.26    0.13
   7   5  -2    0.82    0.10
  -1  -1 -10    0.24    0.25
  -1   0 -10   15.14    0.27
  -1   2  -9   11.72    0.24
  -1   2  -5    4.85    0.14
   0  -8   2   91.45    0.37
   0  -4   2    6.66    0.09
   0   3 -12    0.10    0.31
   0   4 -11   20.61    0.36
   0   4  -5   10.59    0.17
   1 -12   1    1.09    0.29
   1 -10   3   12.19    0.26
   1   6 -12    3.19    0.34
   1   6  -7    2.78    0.20
   2 -13   2    0.31    0.31
   2 -12   3    0.79    0.30
   2   7 -13    1.05    0.35
   2   7  -7    0.31    0.21
   3 -10   5   -0.23    0.25
   3  -9   5   11.96    0.23
   3  -7   5    8.45    0.24
   3  -3   4   12.04    0.17
   3  -1   3   16.97    0.16
   3   8  -8    0.18    0.22
   4 -12   5    0.20    0.33
   4  -5   5    3.32    0.23
   4   5  -2    4.82    0.11
   4   8  -7    0.03    0.20
   4   9 -13    0.40    0.44
   4   9 -12    0.12    0.39
   4   9 -11    0.08    0.33
   5   9  -9   -0.04    0.28
   6   1   2    4.28    0.13
   7  -5   5    2.20    0.28
   8  -6   5    0.94    0.33
   8   7  -5    3.17    0.22
   9  -4   4    8.93    0.41
   9  -2   3    1.32    0.28
  -1  -8  -1    0.57    0.14
  -1  -7   0   44.17    0.22
  -1  -6  -7   10.51    0.15
  -1  -5  -8    0.57    0.15
  -1  -3   0    0.02    0.06
  -1   1  -9    2.58    0.22
  -1   2  -8  152.60    0.53
  -1   2  -6   19.53    0.21
   0 -11  -2    1.33    0.22
   0 -10   1   32.41    0.32
   1   4  -3  156.11    0.34
   1   5 -13    3.35    0.37
   1   6 -11    8.89    0.31
   1   6  -8   16.75    0.26
   2 -11   4    2.23    0.29
   2  -4   4    0.83    0.13
   2   6  -5    6.31    0.17
   2   7 -12    4.37    0.32
   2   7  -8   -0.02    0.20
   3 -13   4   12.33    0.40
   3 -11   5   20.10    0.40
   3  -6   5   11.82    0.23
   3   6  -4   14.94    0.20
   3   7  -6   17.84    0.27
   3   8 -13    1.71    0.39
   3   8  -9    0.48    0.26
   4   7  -5    1.46    0.15
   5 -10   6    3.20    0.31
   5  -9   6   14.74    0.40
   5  -2   4    0.62    0.17
   5   9 -10    2.42    0.35
   6 -11   6    0.31    0.39
   6 -10   6    2.57    0.40
   6  -9   6   12.53    0.43
   6  -8   6   -0.03    0.30
   6   9  -9    1.56    0.30
   7 -10   6    6.51    0.50
   7  -9   6   -0.15    0.41
   7   9  -9   -0.28    0.32
   8  -3   4    0.09    0.23
  -1  -3  -9   26.10    0.29
  -1   2  -7    6.96    0.19
   0 -11  -3   -0.02    0.20
   0 -11  -1    0.41    0.20
   0  -9   2   14.05    0.22
   0   2 -12    0.04    0.28
   0   2  -2    0.10    0.06
   0   4 -10    6.00    0.28
   0   4  -6    0.17    0.15
   1 -12   2    6.25    0.32
   1 -11   3    0.46    0.24
   1  -8   4   17.02    0.27
   1  -7   4    8.21    0.22
   1  -3   3    1.45    0.10
   1   5  -5   11.05    0.17
   1   6 -10    9.24    0.29
   1   6  -9   38.66    0.37
   2 -13   3    0.11    0.34
   2   6 -14    3.17    0.42
   2   7 -11   23.43    0.40
   2   7 -10    4.08    0.26
   2   7  -9    1.14    0.24
   3  -5   5    0.62    0.19
   3   8 -12    1.80    0.32
   3   8 -11    0.31    0.32
   3   8 -10    0.06    0.27
   4 -13   5   10.76    0.49
   4  -9   6    8.49    0.29
   4  -2   4    7.00    0.18
   4   1   2   88.40    0.21
   5 -11   6    1.07    0.38
   5  -8   6   12.75    0.33
   5  -4   5    5.85    0.21
   5   8  -7    0.20    0.24
   5   9 -12    2.09    0.42
   5   9 -11    0.96    0.35
   6  -7   6    1.87    0.27
   6  -4   5   13.64    0.27
   6  -2   4    0.13    0.17
   7  -8   6    0.10    0.35
   8  -5   5   16.29    0.40
   8  -1   3   11.27    0.25
   9   0   2    0.95    0.22
  -1  -2  -9    0.29    0.19
  -1  -1  -9    4.59    0.22
  -1   0  -9    0.48    0.18
  -1   1  -8    3.26    0.20
  -1   1  -4   18.18    0.16
   0 -11   0    2.16    0.23
   0  -1 -12    0.19    0.31
   0   0 -12    0.36    0.34
   0   1 -12    6.84    0.31
   0   3 -11    8.48    0.31
   0   4  -9   72.90    0.45
   0   4  -8   53.52    0.37
   0   4  -7   38.64    0.29
   1 -13   0    0.01    0.31
   1  -9   4    9.51    0.25
   1  -6   4    1.49    0.16
   1   4 -13    0.23    0.34
   1   5 -12    5.16    0.33
   2 -12   4    2.97    0.31
   2 -10   5    7.75    0.28
   2  -9   5    6.93    0.24
   2  -8   5    8.34    0.19
   2  -7   5    0.03    0.20
   2   0   2   33.06    0.12
   2   6 -13   15.87    0.46
   3 -12   5    1.08    0.35
   3   7 -14   -0.03    0.43
   4 -11   6    0.84    0.33
   4 -10   6    1.97    0.29
   4  -8   6    2.02    0.27
   4  -4   5   20.53    0.25
   4   8  -8    6.99    0.27
   5 -12   6    3.77    0.43
   5  -7   6    8.45    0.29
   5   5  -2   18.57    0.15
   5   7  -5   -0.06    0.15
   6   8  -7   -0.09    0.24
   6   9 -10    1.75    0.34
   7  -7   6   15.19    0.44
   7  -4   5    7.26    0.30
   7  -2   4    8.39    0.26
   7   1   2   -0.12    0.13
   7   7  -5   -0.09    0.19
   7   8  -7    0.11    0.27
  -1  -8   0    0.22    0.13
   0 -10   2    0.67    0.18
   0  -8   3   25.73    0.25
   0  -7   3   58.98    0.30
   0  -6   3   40.12    0.24
   0  -3   2    1.27    0.06
   0   3  -4   25.60    0.18
   1 -13   1   14.04    0.38
   1 -10   4    0.34    0.23
   1  -5   4    0.21    0.14
   1  -1   2  840.11    0.55
   1   5 -11   28.39    0.40
   2  -6   5   31.74    0.28
   2   5 -14    3.12    0.44
   2   6  -6    0.28    0.18
   3 -13   5    3.18    0.43
   3  -9   6    0.96    0.25
   3   7 -13    0.91    0.34
   3   7  -7    1.54    0.22
   4 -12   6    2.74    0.37
   4  -7   6   -0.27    0.24
   4   8 -13    0.00    0.38
   4   8  -9    5.98    0.31
   5  -6   6    9.52    0.31
   5   0   3   53.92    0.24
   6  -6   6    2.75    0.26
   6   5  -2   15.12    0.14
   6   9 -11    0.25    0.38
  -1  -6   1    4.19    0.13
  -1  -5   1    3.90    0.11
  -1  -4  -8    1.17    0.16
  -1   0  -8    3.25    0.18
  -1   1  -7   55.76    0.30
  -1   1  -6    0.03    0.15
  -1   1  -5    0.39    0.12
   0 -11   1    5.02    0.22
   0   2 -11    3.42    0.25
   0   3 -10   22.38    0.32
   1 -12   3    3.34    0.29
   1   3 -13    1.60    0.36
   1   3  -2  143.07    0.26
   1   4 -12    2.42    0.34
   1   5 -10   55.55    0.45
   1   5  -6    1.87    0.12
   2 -13   4    6.71    0.39
   2 -11   5    4.77    0.27
   2  -3   4   99.16    0.32
   2   6 -12    6.48    0.34
   3 -11   6   14.49    0.36
   3 -10   6    0.07    0.26
   3  -8   6    2.99    0.25
   3  -4   5   -0.11    0.18
   3   7 -12    0.01    0.31
   4 -13   6    1.71    0.41
   4  -6   6   13.39    0.28
   4   4  -1   67.33    0.17
   4   6  -4    6.58    0.17
   4   7  -6    3.44    0.18
   4   8 -12    0.51    0.34
   4   8 -11    0.21    0.34
   4   8 -10    0.40    0.30
   5   8  -8    4.26    0.25
   6   0   3    0.39    0.14
   7  -6   6    1.29    0.31
   8  -4   5    5.16    0.34
   9   5  -3    2.69    0.17
  -1  -9  -2    3.10    0.13
  -1  -9  -1    4.45    0.16
  -1  -7   1   14.07    0.16
   0  -9   3   22.76    0.26
   0  -5   3    0.10    0.12
   0  -3 -11    1.51    0.30
   0   1 -11    1.00    0.26
   0   3  -9    0.95    0.22
   1 -13   2    7.40    0.33
   1 -11   4    1.11    0.26
   1   2 -13    2.51    0.36
   1   5  -9   16.14    0.28
   1   5  -8    7.86    0.24
   1   5  -7    4.12    0.19
   2 -12   5   -0.13    0.32
   2  -5   5   14.19    0.22
   2   4 -14    0.70    0.42
   2   5 -13    0.65    0.37
   2   5  -4   46.08    0.24
   2   6 -11    1.42    0.28
   2   6  -7    2.05    0.21
   3 -12   6    2.44    0.34
   3  -7   6   27.63    0.31
   3  -2   4   17.43    0.17
   3   6 -14    1.06    0.42
   3   6  -5   -0.13    0.15
   3   7 -11    0.36    0.27
   3   7  -9    2.32    0.24
   3   7  -8    1.64    0.23
   4   0   3   14.05    0.14
   4   7 -14    2.66    0.46
   5 -11   7    0.27    0.38
   5 -10   7    0.64    0.36
   5  -9   7   11.00    0.38
   5  -3   5    1.16    0.17
   5   8 -13    0.47    0.42
   5   8  -9    7.50    0.31
   6 -10   7    3.37    0.44
   6  -9   7    2.96    0.40
   6  -3   5    0.87    0.23
   6   8  -8    2.31    0.26
   7   4  -1    1.32    0.08
   7   8  -8    0.12    0.29
   8  -2   4    1.54    0.25
   8   6  -4    1.24    0.18
   8   8  -8    0.09    0.29
   9  -1   3    0.15    0.25
  -1  -8   1   45.18    0.25
  -1  -3  -8   12.04    0.21
  -1  -2  -8    1.85    0.17
  -1  -1  -8    2.82    0.15
  -1   0  -7    3.39    0.18
  -1   0  -3    1.19    0.08
   0 -12  -1    8.70    0.30
   0 -11   2   20.80    0.29
   0 -10   3    0.15    0.19
   0  -2 -11   10.90    0.35
   0   0 -11    2.37    0.25
   0   2 -10    0.33    0.21
   0   3  -8   16.13    0.26
   0   3  -5    2.86    0.14
   1  -9   5   17.41    0.29
   1  -8   5   25.32    0.30
   1  -4   4  190.47    0.44
   1   1 -13    3.77    0.38
   1   3 -12    0.40    0.27
   1   4 -11    0.00    0.27
   1   4  -4   89.03    0.29
   2  -1   3   17.89    0.14
   2   3  -1  117.32    0.20
   2   6 -10    2.24    0.25
   2   6  -9   11.72    0.27
   2   6  -8    1.33    0.20
   3  -6   6   26.13    0.32
   3   7 -10    0.14    0.25
   4 -11   7   -0.31    0.32
   4 -10   7    1.07    0.31
   4  -3   5   -0.01    0.16
   5 -12   7   -0.22    0.43
   5  -8   7    2.60    0.33
   5  -5   6    0.67    0.22
   5   7  -6    2.47    0.22
   5   8 -12    0.53    0.38
   5   8 -11   -0.25    0.32
   5   8 -10    5.64    0.34
   6  -8   7   24.89    0.46
   6  -5   6   24.95    0.38
   7  -3   5    0.06    0.23
   7   0   3   10.65    0.19
   8   2   1    7.97    0.12
   8   7  -6   -0.01    0.23
  -1  -9  -3    7.91    0.13
  -1  -9   0    4.77    0.16
  -1  -5  -7    0.14    0.14
  -1  -4   1    1.42    0.08
   0 -12   0    4.09    0.24
   0 -12   1    2.22    0.26
   0  -1 -11    0.42    0.25
   0   3  -7    3.18    0.18
   0   3  -6    0.22    0.15
   1 -13   3    0.36    0.30
   1 -12   4    2.45    0.29
   1 -10   5    3.20    0.26
   1  -7   5   20.09    0.25
   1  -2   3    6.71    0.11
   2 -14   4    0.59    0.39
   2 -13   5    4.67    0.37
   2 -11   6   -0.21    0.26
   2 -10   6   25.81    0.38
   2  -9   6   17.25    0.26
   2  -8   6   19.44    0.29
   2   3 -14    0.14    0.41
   2   5 -12    3.26    0.35
   3 -13   6   -0.09    0.40
   3   5 -14    0.70    0.40
   3   6 -13    0.37    0.33
   4 -12   7    3.84    0.41
   4  -9   7   26.57    0.37
   4  -8   7    2.28    0.28
   4  -5   6   10.43    0.24
   4   7 -13    2.03    0.38
   4   7  -7   11.82    0.25
   5  -1   4   11.88    0.18
   6  -1   4   11.76    0.20
   6   8  -9    1.60    0.28
   7  -8   7    0.41    0.41
   7  -5   6    6.31    0.31
   7   8  -9    0.23    0.34
  -1   0  -6   29.50    0.20
   0 -11   3    4.66    0.27
   0  -9   4    2.80    0.20
   0  -8   4    2.84    0.20
   0  -7   4   91.71    0.39
   0  -4   3    1.12    0.08
   0   1 -10   -0.25    0.21
   0   2  -9   12.90    0.25
   0   2  -3   30.55    0.16
   1 -11   5    3.44    0.30
   1  -6   5   -0.06    0.17
   1   2 -12    0.14    0.27
   1   4 -10    3.14    0.25
   2 -12   6    0.02    0.35
   2  -7   6    0.73    0.20
   2  -4   5    0.53    0.16
   2   4 -13    0.26    0.32
   2   5  -5    4.78    0.16
   3 -11   7    0.21    0.29
   3 -10   7    0.05    0.28
   3  -9   7    4.59    0.27
   3   6 -12    1.08    0.33
   3   6  -6    2.94    0.19
   4   6 -14    1.50    0.41
   4   7 -12    0.05    0.32
   4   7  -8   -0.02    0.24
   5  -7   7   17.55    0.37
   6  -7   7    2.44    0.32
   6   6  -4    0.15    0.15
   6   7  -6    1.92    0.20
   6   8 -12    0.16    0.39
   6   8 -11    2.38    0.36
   6   8 -10    4.91    0.36
   7  -7   7    3.05    0.35
   7   6  -4    0.03    0.16
   8  -5   6    7.05    0.43
   8   1   2    1.40    0.14
  -1  -9   1   25.47    0.23
  -1  -7   2    0.41    0.13
  -1  -6   2   57.46    0.25
  -1  -1  -7   32.47    0.22
  -1   0  -5   70.93    0.25
  -1   0  -4   43.44    0.18
   0 -12   2    2.37    0.24
   0 -10   4    5.83    0.25
   0  -6   4    2.80    0.16
   1 -13   4    4.26    0.33
   1   3 -11    4.62    0.29
   1   4  -9    1.43    0.22
   1   4  -5   52.58    0.26
   2 -14   5    0.10    0.39
   2   5 -11    0.91    0.24
   3 -12   7   -0.14    0.36
   3  -8   7   -0.10    0.25
   3  -5   6    1.29    0.23
   3  -3   5   63.35    0.32
   3   1   2    1.42    0.07
   3   6 -11    7.28    0.29
   4  -7   7    1.29    0.27
   4  -1   4   38.26    0.22
   4   6  -5    9.60    0.22
   4   7 -11    2.32    0.31
   4   7 -10    0.42    0.27
   4   7  -9    0.36    0.27
   5  -4   6    0.33    0.18
   5   7 -13    0.36    0.37
   5   7  -7    0.37    0.19
   6  -4   6   16.01    0.33
   7  -1   4   -0.07    0.19
   7   8 -11    1.58    0.40
   7   8 -10    0.52    0.33
   8  -3   5    0.64    0.30
   9   6  -5    0.03    0.24
  -1  -8   2    1.23    0.13
  -1  -4  -7    3.91    0.16
  -1  -2  -7   19.09    0.21
   0  -4 -10    2.46    0.24
   0  -2   2    0.19    0.09
   0   0 -10    9.95    0.26
   0   2  -8    1.16    0.19
   1 -12   5    3.83    0.28
   1  -5   5    0.78    0.15
   1   1 -12    3.89    0.31
   1   4  -8    0.20    0.19
   1   4  -7    7.93    0.19
   1   4  -6    0.25    0.15
   2 -13   6    0.91    0.38
   2  -6   6   47.49    0.31
   2  -2   4  147.12    0.36
   2   3 -13    1.46    0.35
   2   4 -12    2.01    0.33
   2   4  -3    3.11    0.11
   2   5 -10    3.09    0.26
   2   5  -6    2.42    0.18
   3 -13   7    1.29    0.44
   3   0   3  220.13    0.35
   3   4 -14    0.73    0.42
   3   5 -13    3.51    0.35
   3   6 -10   16.91    0.33
   3   6  -7    1.11    0.22
   4  -4   6   32.14    0.30
   4   6 -13    0.04    0.38
   5 -11   8    0.08    0.44
   5 -10   8   14.62    0.50
   5  -6   7    4.38    0.29
   5   4  -1    5.58    0.09
   6  -9   8    0.18    0.42
   6  -6   7    0.20    0.28
   7  -4   6   -0.24    0.29
   8   0   3    2.18    0.17
   8   7  -7    0.07    0.29
  -1 -10  -1    9.37    0.19
  -1 -10   0    6.54    0.19
  -1  -9   2    0.12    0.17
  -1  -6  -6   14.55    0.15
  -1  -5   2   25.76    0.16
  -1  -3  -7    5.06    0.15
  -1  -1  -6    0.34    0.14
   0 -12   3   10.44    0.29
   0 -11   4    2.62    0.23
   0  -5   4   10.92    0.16
   0  -3 -10    1.10    0.24
   0  -2 -10    9.07    0.29
   0  -1 -10   20.89    0.30
   0   1  -9    1.91    0.20
   0   2  -7    9.41    0.19
   0   2  -4   61.40    0.23
   1 -13   5    0.03    0.35
   1 -10   6    2.67    0.27
   1  -9   6    0.17    0.23
   1  -8   6   14.04    0.26
   1  -3   4    5.32    0.14
   1   0 -12    8.49    0.33
   1   2 -11    8.83    0.32
   1   3 -10    4.49    0.26
   2 -11   7    2.08    0.33
   2 -10   7   -0.13    0.27
   2  -9   7  108.43    0.59
   2   5  -9   15.48    0.27
   2   5  -8   40.82    0.34
   2   5  -7   51.72    0.33
   3  -7   7    7.03    0.25
   3   5  -4    8.57    0.15
   3   6  -9   24.94    0.32
   3   6  -8    0.11    0.21
   4 -12   8    4.94    0.45
   4 -11   8    0.00    0.37
   4 -10   8    2.10    0.35
   4  -6   7    1.15    0.24
   4   5 -14    0.33    0.35
   5  -9   8    0.02    0.36
   5  -2   5    0.29    0.16
   5   7 -12    0.74    0.35
   5   7 -11    1.16    0.31
   5   7  -8   11.82    0.28
   6  -2   5    4.71    0.22
   6   4  -1   14.53    0.11
   6   7  -7    0.12    0.22
   7  -6   7   15.77    0.43
   7   7  -7    2.84    0.27
  -1 -10  -2    1.63    0.14
  -1 -10   1    0.45    0.17
  -1  -1  -2   54.10    0.12
   0 -13   1    0.42    0.29
   0 -13   2    6.79    0.34
   0  -9   5    1.63    0.22
   0  -8   5    0.13    0.20
   0   2  -6   57.01    0.28
   0   2  -5   17.98    0.17
   1 -14   4    0.15    0.35
   1 -11   6   11.06    0.31
   1  -7   6    0.25    0.20
   1  -2 -12    0.34    0.30
   1  -1 -12    0.94    0.29
   1   3  -3  201.74    0.34
   2 -12   7    2.72    0.36
   2  -8   7    7.91    0.27
   2  -5   6   41.33    0.32
   2   2 -13    0.24    0.35
   2   4 -11   -0.37    0.27
   3  -4   6    0.72    0.20
   3   3 -14    6.80    0.46
   3   4 -13    1.05    0.35
   3   5 -12    9.01    0.33
   4  -9   8    6.38    0.34
   4  -2   5    1.22    0.14
   4   6 -12    0.04    0.31
   4   6  -6   12.01    0.23
   5  -8   8   -0.05    0.34
   5   6  -5    1.97    0.18
   5   7 -10    4.97    0.32
   5   7  -9   26.30    0.40
   6  -8   8   17.01    0.48
   6   7 -13    3.36    0.43
   6   7  -8   -0.25    0.27
   7  -2   5    6.58    0.25
   8  -4   6    6.77    0.37
   8   5  -3    1.38    0.15
   8   6  -5    4.97    0.26
  -1 -10   2   22.25    0.27
  -1  -8   3    9.06    0.21
  -1  -7   3    2.29    0.17
  -1  -1  -5    2.05    0.12
   0 -12   4    0.07    0.27
   0 -10   5   13.19    0.28
   0  -7   5    0.67    0.19
   0  -3   3   45.40    0.19
   0   0  -9    3.58    0.20
   0   1  -8   18.52    0.25
   1 -12   6    6.88    0.36
   1   1 -11    0.67    0.25
   1   3  -9    0.10    0.22
   2 -13   7    1.60    0.40
   2  -7   7    2.23    0.21
   2  -3   5   52.98    0.27
   2   1 -13    2.84    0.38
   2   3 -12    1.83    0.30
   3 -12   8    3.70    0.40
   3 -11   8    2.38    0.32
   3 -10   8    0.03    0.32
   3  -9   8    1.18    0.28
   3  -6   7    1.31    0.21
   3  -1   4    8.47    0.14
   3   5 -11   -0.04    0.25
   4  -8   8    2.57    0.33
   4   6 -11   -0.58    0.28
   5  -5   7    6.31    0.26
   5   6 -13    0.00    0.37
   6  -5   7    6.88    0.30
   6   7 -12    0.50    0.36
   6   7 -11    1.35    0.35
   6   7  -9    0.91    0.24
   7   7  -8    0.73    0.26
   8  -1   4    3.95    0.23
   8   7  -8    0.71    0.29
   9   4  -2    0.12    0.13
  -1  -9   3   39.51    0.28
  -1  -6   3   18.12    0.19
  -1  -3   1   13.39    0.09
  -1  -2  -6   73.45    0.28
   0 -13   3    0.26    0.26
   0 -11   5    1.62    0.25
   0  -5  -9    3.93    0.25
   1 -14   5    0.30    0.37
   1 -13   6    0.70    0.35
   1  -6   6    4.06    0.20
   1  -4   5   80.35    0.32
   1   2 -10    4.14    0.25
   2   0 -13    1.50    0.38
   2   4 -10   11.61    0.28
   3 -13   8    1.20    0.40
   3   5  -5    9.35    0.17
   4  -5   7    3.66    0.23
   4   3   0    1.72    0.05
   4   4 -14    0.48    0.44
   4   5 -13   -0.01    0.34
   4   6 -10    0.25    0.27
   4   6  -7   49.22    0.36
   5  -7   8    3.58    0.33
   5  -3   6    4.13    0.20
   5   5  -3   13.57    0.17
   6  -7   8    2.54    0.37
   6  -3   6    2.26    0.23
   6   7 -10    1.31    0.29
   7  -5   7    8.45    0.35
   7   7 -12    2.09    0.42
   7   7  -9    0.32    0.29
   8   7  -9   -0.06    0.33
  -1 -11   0    0.16    0.18
  -1 -11   1   -0.11    0.19
  -1 -10   3    5.76    0.23
  -1  -5  -6    3.45    0.14
  -1  -4   2   -0.01    0.09
  -1  -3  -6    4.60    0.16
  -1  -1  -4   95.39    0.25
   0 -13   4    0.34    0.30
   0 -12   5    3.04    0.30
   0  -7  -8    1.94    0.19
   0  -6   5   10.58    0.19
   0  -4   4    2.30    0.13
   0  -1  -9   15.41    0.25
   1 -11   7    5.42    0.32
   1 -10   7    7.12    0.30
   1  -9   7    6.34    0.26
   1   0 -11    7.48    0.30
   1   3  -8   29.89    0.29
   1   3  -4   76.07    0.26
   2 -11   8    0.25    0.31
   2 -10   8    7.49    0.31
   2   2 -12    9.53    0.37
   2   3 -11    3.30    0.29
   2   4  -9    5.37    0.22
   2   4  -4   56.50    0.25
   3  -8   8    0.81    0.21
   3  -2   5    0.46    0.14
   3   3 -13    2.08    0.38
   3   4 -12    2.63    0.34
   3   5 -10    0.96    0.24
   4 -11   9    1.76    0.40
   4  -7   8   12.32    0.34
   4  -3   6   -0.11    0.16
   4   6  -9    0.01    0.23
   4   6  -8    8.02    0.25
   5 -10   9    3.40    0.46
   5   5 -14   -0.35    0.39
   5   6 -12    0.76    0.34
   5   6  -6    7.27    0.20
   6   5  -3    0.00    0.14
   6   6 -13    0.07    0.37
   7   5  -3    4.20    0.17
   7   7 -11    0.14    0.34
   7   7 -10    0.25    0.34
   8  -2   5    0.35    0.25
   8   7 -10   -0.22    0.37
   9   6  -6    0.29    0.25
  -1 -11   2    5.41    0.24
  -1  -4  -6   34.06    0.21
  -1  -1  -3   19.38    0.10
   0 -10   6    0.60    0.25
   0  -9   6    0.32    0.22
   0  -4  -9    0.37    0.21
   0  -3  -9    6.64    0.26
   0  -2  -9    0.21    0.19
   0   0  -8    4.65    0.22
   0   1  -7   72.08    0.33
   0   1  -2    5.75    0.06
   1 -14   6    3.58    0.42
   1 -12   7    2.61    0.34
   1  -8   7   21.47    0.30
   1  -1 -11    1.13    0.26
   1   3  -7   18.68    0.23
   1   3  -5   11.66    0.16
   2 -13   8    1.92    0.43
   2 -12   8   20.80    0.45
   2  -9   8    0.48    0.26
   2  -6   7   12.97    0.26
   2  -4   6   25.33    0.26
   3  -7   8   25.34    0.38
   3  -5   7    8.87    0.25
   3   5  -9    8.13    0.26
   3   5  -6    8.24    0.21
   4 -10   9    3.97    0.42
   4   3 -14    3.21    0.46
   4   5 -12   -0.26    0.29
   4   5  -4    0.39    0.13
   5  -9   9    7.27    0.44
   5  -6   8   10.34    0.36
   5   6 -11    3.81    0.35
   7  -3   6    5.18    0.25
   9   5  -4    1.07    0.22
  -1 -11  -1    1.93    0.17
  -1 -11   3    3.98    0.24
  -1  -9   4   22.90    0.26
  -1  -8   4    7.34    0.20
  -1  -7  -5    2.84    0.10
  -1  -7   4   15.12    0.20
  -1  -5   3    2.02    0.13
  -1  -2   0    4.35    0.04
   0 -13   5    0.09    0.30
   0 -11   6    0.32    0.27
   0  -8   6    9.11    0.26
   1 -13   7   -0.14    0.37
   1  -7   7    1.73    0.20
   1  -5   6   13.83    0.22
   1  -3 -11    3.06    0.29
   1  -2 -11    5.70    0.31
   1   1 -10    6.65    0.25
   1   2  -9   22.47    0.29
   1   3  -6   20.50    0.18
   2  -8   8   18.54    0.34
   2   1 -12    0.55    0.31
   2   4  -8   19.37    0.27
   2   4  -5   71.51    0.30
   3 -12   9    0.02    0.42
   3 -11   9    0.10    0.38
   3 -10   9    7.08    0.37
   3  -3   6    6.17    0.19
   3   2 -13    0.60    0.36
   3   4 -11    8.29    0.30
   3   5  -8    0.41    0.19
   3   5  -7    0.63    0.20
   4  -9   9    1.37    0.37
   4  -6   8    2.89    0.28
   4   4 -13    0.43    0.32
   4   5 -11    0.25    0.26
   5  -4   7   -0.05    0.22
   5   4 -14    1.29    0.42
   5   5 -13   -0.14    0.34
   5   6 -10   14.79    0.36
   5   6  -9   24.80    0.41
   5   6  -7    3.56    0.21
   6  -6   8    3.34    0.33
   6  -4   7    2.71    0.28
   6   6 -12   -0.03    0.39
   6   6  -6    5.51    0.22
   7   6  -6    0.57    0.22
   9   1   2    1.35    0.12
  -1 -10   4    1.18    0.19
  -1  -2  -5    8.66    0.13
   0 -12   6    2.42    0.30
   0  -7   6    2.06    0.20
   0  -5   5   28.82    0.20
   0   1  -6   54.45    0.27
   1  -2   4   16.23    0.15
   1  -1   3  169.24    0.30
   2   0 -12    0.20    0.34
   2   2 -11   13.31    0.34
   2   3 -10    3.77    0.24
   2   4  -7    8.29    0.16
   2   4  -6   30.05    0.24
   3  -9   9    4.43    0.36
   3   3 -12    1.19    0.33
   4  -8   9   13.98    0.42
   4  -4   7   25.52    0.30
   5  -8   9    4.92    0.36
   5   0   4   36.28    0.23
   5   6  -8    0.31    0.21
   6   6 -11   -0.10    0.33
   7  -4   7    0.00    0.30
   7   6 -12    0.26    0.43
   9   6  -7    0.16    0.28
  -1 -12   1    0.14    0.21
  -1 -12   2    0.45    0.25
  -1 -11   4    1.59    0.22
  -1  -6   4    2.80    0.15
   0 -13   6    1.13    0.35
   0  -6  -8    0.88    0.21
   0  -1  -8   20.37    0.23
   0   0  -7   15.29    0.23
   0   1  -5   15.10    0.16
   0   1  -3   31.32    0.15
   1 -12   8    0.04    0.35
   1 -11   8   28.57    0.47
   1 -10   8    1.08    0.27
   1  -9   8   14.35    0.31
   1  -3   5  163.34    0.42
   1   0 -10    2.85    0.22
   1   2  -8    4.75    0.22
   2 -12   9    0.23    0.38
   2 -11   9    0.61    0.34
   2  -7   8   25.36    0.35
   2  -5   7    1.13    0.22
   2  -1 -12   -0.19    0.33
   2  -1   4   93.13    0.27
   3  -6   8    2.13    0.28
   3   1 -13    6.74    0.41
   3   4 -10   -0.16    0.24
   3   4  -3    0.19    0.10
   4   3 -13    0.74    0.40
   4   4 -12   -0.13    0.30
   4   4  -2    0.07    0.10
   4   5 -10   -0.21    0.25
   4   5  -5   21.23    0.22
   5  -1   5    0.54    0.16
   5   1   3    0.29    0.10
   5   5 -12    8.14    0.35
   6  -1   5   39.81    0.31
   6   0   4    0.61    0.13
   6   1   3    1.76    0.11
   6   5 -13    0.25    0.38
   6   6 -10    4.73    0.33
   6   6  -9    1.19    0.31
   6   6  -8   -0.02    0.25
   6   6  -7   10.59    0.25
   7   6  -7    0.03    0.25
   8   6  -7    4.98    0.31
   9   6  -8    2.12    0.37
  -1 -12   0    2.12    0.22
  -1 -12   3    2.53    0.22
  -1 -10   5    2.76    0.22
  -1  -9   5   32.48    0.32
  -1  -8   5   11.25    0.23
   0 -11   7    0.14    0.29
   0 -10   7    2.00    0.27
   0  -9   7    2.53    0.25
   0  -6   6    3.70    0.20
   0   1  -4    1.63    0.10
   1 -13   8   -0.23    0.40
   1  -6   7    7.15    0.24
   1  -1 -10    0.50    0.26
   1   1  -9   19.83    0.28
   2 -10   9    4.59    0.33
   2  -2 -12    6.72    0.37
   2  -2   5   30.50    0.21
   2   0   3  105.84    0.23
   2   1 -11    2.09    0.30
   2   2   0    0.20    0.04
   2   3  -9   26.82    0.30
   3  -8   9    0.40    0.32
   3  -4   7   10.96    0.24
   3   0 -13    4.89    0.38
   3   2 -12    6.74    0.36
   3   3 -11   -0.26    0.26
   4 -10  10    3.24    0.42
   4  -7   9    8.75    0.34
   4  -5   8   -0.01    0.25
   4  -1   5   70.97    0.31
   4   0   4    7.50    0.14
   4   5  -9    2.05    0.25
   5  -7   9    0.16    0.36
   5  -5   8   21.60    0.37
   5   3 -14    1.50    0.45
   5   4 -13    0.64    0.37
   5   5 -11    1.07    0.29
   6  -7   9    2.87    0.41
   6  -5   8   -0.39    0.28
   7   6 -11    3.56    0.35
   7   6 -10    1.17    0.33
   7   6  -8    0.13    0.28
   8   5  -4    1.54    0.20
   8   6 -11    0.39    0.40
   8   6  -8    2.35    0.33
  -1 -12   4    2.37    0.24
  -1 -11  -2    2.88    0.15
  -1 -11   5    0.09    0.23
  -1  -7   5   33.01    0.29
  -1  -4   3  154.13    0.34
  -1  -3  -5   26.45    0.17
  -1  -2  -4    0.21    0.09
   0 -12   7    0.80    0.32
   0  -8  -7   -0.02    0.16
   0  -8   7    9.81    0.26
   0  -5  -8    0.13    0.20
   0  -3   4   24.73    0.17
   0  -2  -8    4.77    0.18
   0  -2   3   29.65    0.16
   1  -8   8    0.32    0.22
   1  -5 -10    0.08    0.28
   1  -4   6   12.41    0.21
   1   0   2  274.49    0.28
   1   2  -7   16.58    0.22
   1   2  -2   70.40    0.18
   2  -9   9    4.23    0.30
   2  -6   8   -0.22    0.21
   2  -3   6    4.35    0.18
   2   2 -10    7.82    0.28
   3 -11  10    0.03    0.42
   3   4  -9   11.77    0.25
   4  -2   6    1.68    0.17
   4   4 -11    1.06    0.27
   4   5  -8   90.54    0.48
   4   5  -7  181.63    0.61
   4   5  -6    0.04    0.18
   5  -2   6   13.32    0.22
   6  -2   6   -0.02    0.21
   6   5 -12    0.27    0.37
   7  -1   5    0.34    0.21
   7   0   4    0.81    0.15
   7   5  -4   22.04    0.25
   7   6  -9    0.01    0.28
   8   4  -2   10.98    0.18
   8   6 -10    1.47    0.35
   8   6  -9    0.58    0.32
  -1  -5   4    1.95    0.14
  -1  -3   2  140.28    0.26
   0 -13   7    3.27    0.37
   0  -4  -8    3.56    0.21
   0  -4   5   10.34    0.17
   0  -3  -8   14.50    0.22
   1 -12   9    3.46    0.37
   1 -11   9   -0.26    0.30
   1  -7   8   25.66    0.31
   1  -4 -10    2.93    0.28
   1  -3 -10    1.19    0.26
   1  -2 -10    3.19    0.23
   2  -8   9    3.84    0.30
   2   0 -11    8.35    0.28
   2   3  -8    0.56    0.19
   3 -10  10    2.11    0.40
   3  -7   9    0.56    0.29
   3  -5   8   11.45    0.28
   3   4  -8    2.60    0.22
   3   4  -4   31.48    0.21
   4  -9  10    0.43    0.39
   4   2 -13    6.78    0.39
   4   3 -12    2.50    0.32
   5  -3   7    1.95    0.24
   5   4 -12    1.24    0.34
   5   5 -10    0.20    0.27
   5   5  -5   17.98    0.25
   6   4 -13    0.21    0.36
   9   5  -5    2.42    0.25
  -1 -13   2    2.52    0.28
  -1 -13   3    1.64    0.31
  -1 -13   4    1.81    0.30
  -1 -12   5    3.06    0.27
  -1 -11   6    3.52    0.27
  -1 -10   6    0.38    0.22
  -1  -9   6   -0.26    0.22
  -1  -6  -5   -0.02    0.10
  -1  -6   5   19.01    0.23
  -1  -4  -5   29.47    0.18
   0 -12   8    1.14    0.37
   0 -11   8    0.05    0.32
   0 -10   8    0.06    0.29
   0  -7   7    0.79    0.16
   0  -5   6  112.97    0.42
   0  -1  -7    0.61    0.15
   0   0  -6   21.95    0.19
   1 -13   9    0.05    0.44
   1 -10   9   24.58    0.42
   1  -5   7    1.55    0.22
   1   0  -9    2.44    0.21
   1   1  -8   12.90    0.24
   1   2  -6    0.70    0.13
   2 -12  10    2.45    0.44
   2 -11  10    0.10    0.38
   2  -4   7   86.17    0.43
   2   3  -7    0.13    0.16
   3  -9  10   -0.01    0.39
   3   1 -12    1.62    0.31
   3   3 -10   -0.12    0.22
   3   3  -1    4.19    0.07
   3   4  -7    6.87    0.20
   4  -6   9    0.65    0.29
   4  -3   7    0.44    0.19
   4   1   3    0.37    0.08
   4   4 -10    7.90    0.29
   5  -8  10    1.23    0.43
   5  -6   9    2.02    0.32
   5   3 -13   -0.03    0.37
   5   4  -2    0.20    0.12
   5   5  -9    2.09    0.26
   6  -6   9    2.21    0.36
   6  -3   7    3.89    0.23
   6   5 -11    1.12    0.35
   7  -2   6    7.54    0.26
   7   1   3    8.32    0.13
   7   3   0   11.02    0.10
   7   5 -12   -0.26    0.41
  -2  -7   1    4.22    0.13
  -1 -13   5    0.44    0.33
  -1 -12   6    9.30    0.34
  -1  -8   6   64.36    0.41
  -1  -5  -5   42.28    0.20
   0 -13   8    2.19    0.38
   0  -9   8   12.94    0.31
   0  -1   2    6.04    0.08
   1  -9   9   11.04    0.32
   1   2  -5  115.18    0.34
   1   2  -3  329.01    0.42
   2 -10  10    3.35    0.37
   2  -7   9    2.29    0.29
   2  -1 -11    2.44    0.28
   2   1 -10    1.59    0.25
   2   2  -9    0.10    0.22
   2   3  -3  257.19    0.40
   3  -2   6    4.10    0.17
   3  -1   5   22.91    0.19
   3   0 -12    8.18    0.34
   3   2 -11    6.48    0.28
   3   4  -6  117.23    0.42
   3   4  -5  243.93    0.52
   4  -8  10    6.94    0.38
   4   1 -13    0.53    0.41
   5  -4   8    0.60    0.28
   5   5  -8    2.55    0.24
   5   5  -7    1.84    0.21
   5   5  -6    4.47    0.20
   6   5 -10    5.30    0.32
   6   5  -5   -0.08    0.19
   7  -3   7    0.89    0.28
   7   4  -2    5.58    0.15
   7   5 -11    0.05    0.35
   9   5  -6    0.57    0.30
  -2  -8   1   27.93    0.20
  -2  -8   2   29.51    0.22
  -2  -7   0    2.00    0.11
  -2  -7   2    4.73    0.15
  -1  -7   6    3.85    0.22
   0  -8   8    1.35    0.23
   0  -6   7    8.81    0.23
   1  -8   9    0.25    0.26
   1  -6   8   40.41    0.35
   1  -1  -9    4.40    0.22
   1   2  -4   51.65    0.21
   2  -9  10    0.47    0.31
   2  -5   8    3.17    0.23
   2  -2 -11    1.94    0.29
   2   3  -6   15.27    0.20
   2   3  -4   71.96    0.27
   3  -8  10    4.02    0.37
   3  -6   9    0.46    0.28
   3  -3   7    9.56    0.22
   3   0   4  140.00    0.32
   3   3  -9    7.31    0.23
   4  -4   8   14.13    0.29
   4   0 -13    0.20    0.35
   4   2 -12    6.52    0.38
   4   3 -11    0.25    0.26
   4   4  -9    3.28    0.23
   5   2 -13    0.24    0.41
   5   3   0   62.07    0.15
   5   4 -11    1.42    0.22
   6  -4   8    0.01    0.29
   6   3 -13    0.30    0.36
   6   4 -12    2.03    0.35
   6   4  -2   58.60    0.26
   6   5  -9    1.25    0.28
   7   5  -5   32.76    0.31
   8   5 -11    1.39    0.38
   9   3  -1    5.46    0.16
   9   4  -3    0.55    0.19
  -2  -9   1    1.78    0.15
  -2  -9   2   -0.07    0.16
  -2  -9   3    0.34    0.17
  -2  -8   0    3.44    0.11
  -2  -8   3   13.82    0.20
  -2  -6   0    0.38    0.08
  -2  -6   1    7.41    0.11
  -1 -13   6    1.29    0.32
  -1 -11   7    3.22    0.30
  -1 -10   7    7.32    0.31
  -1  -9   7    1.95    0.24
  -1  -4   4   88.80    0.29
  -1  -2  -3   14.63    0.09
   0 -12   9    3.48    0.37
   0 -11   9    6.23    0.34
   0  -7  -7    2.75    0.18
   0  -2  -7   14.17    0.19
   0   0  -5    0.60    0.12
   1 -12  10   -0.24    0.40
   1 -11  10    2.63    0.37
   1  -3   6   50.56    0.29
   1  -2   5    4.78    0.14
   1   0  -8    0.87    0.20
   1   1  -7    5.62    0.19
   2  -4 -11    0.26    0.30
   2  -3 -11    0.59    0.29
   2   0 -10   11.72    0.29
   2   3  -5   38.78    0.21
   3 -10  11    3.31    0.44
   3  -1 -12    0.35    0.34
   3   1 -11    9.78    0.33
   4  -7  10    1.88    0.36
   5  -7  10    1.76    0.39
   5   3 -12    1.50    0.30
   6   5  -8    2.08    0.27
   6   5  -7   12.77    0.27
   6   5  -6    8.08    0.22
   7   5 -10   -0.37    0.30
   8  -1   5    0.16    0.20
   8   5 -10    0.02    0.35
   8   5  -6    0.03    0.24
   9   5  -9    0.10    0.39
   9   5  -7    0.22    0.28
  -2 -10   2    0.79    0.15
  -2 -10   3   12.11    0.23
  -2  -9   4    8.01    0.22
  -2  -7   3   10.61    0.16
  -2  -6   2    7.00    0.14
  -1 -12   7    0.50    0.30
  -1  -8   7    0.92    0.22
  -1  -6   6    7.72    0.19
  -1  -5   5   10.63    0.14
  -1  -3  -4   19.53    0.14
   0 -13   9    0.34    0.41
   0 -10   9    4.55    0.33
   0  -7   8    3.33    0.23
   0  -4   6    0.12    0.15
   0  -3   5    3.11    0.14
   0  -1  -6    0.62    0.13
   1 -10  10    3.93    0.36
   1  -7   9    0.07    0.25
   1  -6  -9    3.72    0.27
   1  -4   7   60.74    0.37
   1  -2  -9    1.26    0.21
   2 -11  11    0.49    0.44
   2  -8  10   10.60    0.39
   2  -6   9    2.68    0.29
   2   1  -9    7.70    0.26
   2   2  -8    3.70    0.16
   3  -7  10    1.45    0.34
   3  -4   8    0.81    0.21
   3  -2 -12   -0.06    0.34
   3   2 -10   -0.20    0.23
   4  -5   9    0.02    0.27
   4   1 -12    0.45    0.33
   4   3 -10    0.36    0.23
   4   4  -8   10.94    0.26
   5  -5   9    4.71    0.31
   5   1 -13    0.16    0.38
   5   4 -10    1.52    0.25
   6  -5   9   -0.22    0.34
   6   3   0    1.26    0.08
   6   4 -11    0.44    0.33
   7   4 -12   -0.36    0.37
   7   5  -9    0.27    0.27
   7   5  -8    0.15    0.25
   7   5  -7    3.13    0.25
   7   5  -6    3.29    0.23
   8   0   4    0.17    0.15
   8   5  -9    2.39    0.34
   8   5  -8    4.62    0.32
   8   5  -7    0.18    0.25
   9   5  -8    0.38    0.32
  -2 -10   4    1.40    0.22
  -2  -8   4   -0.24    0.16
  -1 -13   7    0.08    0.32
  -1  -8  -4   19.98    0.14
  -1  -3   3  208.99    0.36
  -1  -2   1 1000.00    0.49
   0  -9  -6    0.58    0.17
   0  -9   9   13.95    0.32
   0  -6  -7    1.97    0.19
   0  -5   7   49.70    0.33
   0  -3  -7    0.71    0.14
   1  -9  10    0.24    0.32
   1  -5  -9    0.59    0.25
   1  -5   8    0.28    0.21
   1  -4  -9    1.82    0.26
   1  -3  -9   15.86    0.27
   1  -1   4   17.55    0.14
   2 -10  11    2.79    0.40
   2  -3   7    0.86    0.18
   2  -2   6   12.34    0.19
   2  -1 -10   38.15    0.40
   2   1   2   73.73    0.14
   3  -9  11    7.49    0.45
   3  -5   9   21.11    0.34
   3   0 -11    3.60    0.33
   3   3  -8   13.55    0.25
   4   2 -11    4.51    0.31
   4   4  -7    0.71    0.22
   4   4  -4    0.19    0.13
   5   2 -12    0.31    0.30
   5   3 -11    1.26    0.30
   5   4  -9    1.47    0.24
   6   2 -13    5.34    0.44
   6   3 -12    1.43    0.36
   8   4 -12    0.99    0.41
   8   4  -3    8.80    0.22
  -2 -11   3    4.65    0.24
  -2 -11   4   30.67    0.34
  -2 -10   1    2.18    0.15
  -2 -10   5    2.52    0.23
  -2  -9   0    1.26    0.12
  -2  -9   5   13.43    0.24
  -2  -7   4   18.86    0.21
  -2  -6   3    6.53    0.14
  -1 -12   8    1.77    0.33
  -1 -11   8    0.78    0.28
  -1 -10   8    3.75    0.29
  -1  -9   8    4.08    0.28
  -1  -7   7    0.08    0.21
   0  -8   9    0.18    0.25
   0  -5  -7    1.31    0.17
   0  -4  -7   48.31    0.30
   0  -2   4   58.82    0.21
   0   0  -4    2.70    0.09
   1  -1  -8   18.46    0.27
   1   1  -6    2.43    0.14
   2  -7  10    2.08    0.31
   2  -4   8    0.92    0.20
   2  -1   5   73.62    0.28
   2   2  -7    6.20    0.19
   4  -6  10   15.85    0.40
   4   0 -12   -0.11    0.34
   4   4  -6    2.90    0.20
   4   4  -5   -0.19    0.16
   5  -6  10    0.14    0.35
   5   0 -13    1.47    0.42
   6   4 -10    0.66    0.28
   7   4 -11    0.09    0.32
   8   4 -11    0.48    0.43
   9   4  -4   -0.01    0.25
  -2 -11   2   -0.01    0.18
  -2 -11   5    2.07    0.25
  -2  -8   5    4.57    0.20
  -2  -5   1   28.50    0.14
  -1 -13   8    1.61    0.38
   0 -12  10   16.81    0.47
   0 -11  10    0.33    0.35
   0 -10  10    5.96    0.33
   0  -6   8   15.93    0.27
   1 -11  11   -0.09    0.39
   1  -8  10    5.30    0.30
   1  -6   9   -0.18    0.25
   1   0  -7    0.27    0.16
   2  -9  11   -0.06    0.35
   2  -2 -10    5.52    0.28
   2   0  -9    6.52    0.27
   3  -8  11    8.26    0.44
   3  -6  10    0.27    0.28
   3  -1 -11    2.11    0.28
   3   1 -10   21.21    0.35
   3   2  -9    1.43    0.21
   3   3  -7   16.19    0.23
   4  -2   7    0.34    0.20
   4   3  -9    6.66    0.25
   5  -3   8    2.83    0.25
   5  -2   7   50.80    0.36
   5  -1   6    0.11    0.15
   5   4  -8    9.44    0.27
   6   1 -13    0.13    0.38
   7   3 -12    0.23    0.37
   7   4 -10   -0.08    0.34
  -2 -12   4    3.78    0.27
  -2 -11   6   -0.02    0.27
  -2 -10   6    3.30    0.22
  -2  -9   6   13.37    0.26
  -2  -7  -1    0.36    0.06
  -2  -7   5    4.96    0.19
  -2  -6   4    8.08    0.17
  -2  -5   0    3.08    0.07
  -2  -5   2    3.41    0.10
  -1 -12   9    0.53    0.32
  -1 -11   9    4.64    0.34
  -1  -8   8    1.87    0.23
  -1  -6   7    2.41    0.20
  -1  -5   6    1.99    0.17
  -1  -4   5   52.53    0.27
   0  -9  10    0.42    0.28
   0  -7   9    3.18    0.26
   0  -2  -6   32.58    0.22
   1 -10  11    4.14    0.37
   2  -5 -10    2.36    0.32
   2  -5   9    2.88    0.24
   2  -4 -10    5.47    0.34
   2  -3 -10    0.34    0.26
   2   1  -8    1.40    0.22
   3   1   3    2.14    0.08
   3   3  -6   70.19    0.33
   4  -3   8    5.52    0.24
   4  -1 -12    7.36    0.40
   4  -1   6   51.32    0.28
   4   1 -11    3.16    0.30
   4   2 -10    2.84    0.25
   5   1 -12    0.96    0.38
   5   3 -10    0.38    0.26
   5   4  -7    0.26    0.23
   5   4  -4   14.11    0.20
   6  -3   8    4.97    0.31
   6  -2   7    0.16    0.20
   6  -1   6   10.77    0.22
   6   2 -12    0.28    0.36
   6   3 -11    5.65    0.34
   6   4  -9    0.08    0.27
   7   4  -3    0.25    0.15
   8   3 -12    3.66    0.49
   8   4 -10    2.79    0.36
   9   4 -10    0.28    0.40
  -2 -12   3    2.34    0.24
  -2 -12   5    0.45    0.24
  -2 -12   6    0.52    0.28
  -2 -11   1    1.52    0.17
  -2  -8   6    2.43    0.22
  -2  -5   3   14.77    0.17
  -1 -13   9    0.68    0.40
  -1 -10   9    0.37    0.26
  -1  -4  -4   -0.09    0.09
  -1  -2  -2    3.09    0.05
   0  -1  -5    3.33    0.12
   0   0  -3   33.96    0.14
   1  -9  11    3.64    0.36
   1  -7  10    0.78    0.29
   1  -2  -8   70.01    0.38
   1   1  -5    4.01    0.14
   2  -8  11   -0.13    0.32
   2  -6  10    1.60    0.30
   2   0   4    0.87    0.11
   2   2  -6  103.51    0.37
   3  -3   8    0.45    0.19
   3  -2 -11    0.07    0.30
   3  -2   7    3.34    0.17
   4  -7  11    0.71    0.41
   4  -4   9    0.14    0.26
   4  -2 -12   -0.18    0.38
   4   3  -8   28.06    0.32
   5  -4   9    4.29    0.30
   5   0   5    3.31    0.14
   5   2 -11    3.82    0.29
   5   4  -6   16.19    0.24
   5   4  -5   38.24    0.28
   6   4  -8    0.38    0.25
   7   4  -9    1.89    0.30
   9   4  -9    0.35    0.36
   9   4  -5    0.14    0.25
  -2 -12   2    0.02    0.21
  -2 -11   7    0.11    0.26
  -2 -10   0    2.95    0.12
  -2 -10   7   15.78    0.31
  -2  -9   7    2.66    0.23
  -2  -8  -1   21.24    0.10
  -2  -6  -1    2.30    0.04
  -1  -9   9    2.98    0.28
  -1  -7   8    2.48    0.17
  -1  -3   4   74.32    0.26
  -1  -2   2   71.46    0.18
   0 -12  11    3.23    0.42
   0 -11  11    2.35    0.40
   0  -8  -6    7.63    0.21
   0  -8  10    0.79    0.27
   0  -5   8    1.08    0.21
   0  -4   7   37.64    0.26
   0  -3   6    0.15    0.15
   0  -1   3   31.58    0.15
   1  -7  -8    6.50    0.28
   1  -4   8    0.29    0.24
   1  -3   7   64.20    0.34
   1  -2   6   19.44    0.20
   2  -1  -9   35.42    0.34
   3  -7  11    0.33    0.31
   3  -4 -11    2.73    0.34
   3  -4   9    0.38    0.22
   3  -3 -11   10.85    0.37
   3  -1   6    5.50    0.15
   3   0 -10    0.21    0.25
   3   1  -9    7.78    0.25
   3   2  -8    0.18    0.20
   3   3  -5    0.34    0.14
   3   3  -4  177.43    0.40
   3   3  -3    9.19    0.13
   4  -5  10    0.29    0.31
   4   0 -11   -0.09    0.29
   4   0   5    4.22    0.15
   4   3  -1   17.98    0.13
   5  -5  10    2.32    0.34
   5   0 -12    2.40    0.38
   5   3  -9   10.81    0.28
   6   0   5   11.71    0.18
   6   3 -10    3.10    0.28
   6   4  -7    1.08    0.20
   6   4  -4    7.81    0.19
   7  -2   7    0.56    0.25
   7  -1   6    0.89    0.20
   7   2 -12    0.06    0.38
   7   3 -11   -0.09    0.33
   7   4  -8    0.61    0.30
   8   3 -11    4.82    0.39
   8   3  -1    0.11    0.14
   8   4  -9    0.38    0.28
   9   4  -8    0.62    0.31
   9   4  -7    1.12    0.31
   9   4  -6    0.53    0.29
  -2 -13   4    0.32    0.28
  -2 -13   5    2.77    0.29
  -2 -13   6    0.46    0.29
  -2 -12   7    0.26    0.30
  -2  -8   7    5.67    0.23
  -2  -7   6    6.66    0.23
  -2  -6   5    6.10    0.17
  -1 -12  10    0.24    0.40
  -1 -11  10    0.05    0.36
  -1  -8   9    1.54    0.24
  -1  -7  -4    0.09    0.10
   0 -10  11    0.83    0.35
   0  -6   9    5.27    0.25
   0  -3  -6   23.09    0.21
   1  -8  11    8.26    0.39
   1  -6  -8   11.54    0.30
   1  -5   9   17.75    0.29
   1  -3  -8   26.08    0.28
   1  -1  -7   -0.02    0.17
   1   0   3    1.11    0.07
   2  -9  12    0.75    0.45
   2  -7  11    0.03    0.34
   2   1  -7   35.63    0.28
   2   2  -5  105.77    0.34
   3  -5  10   19.51    0.37
   4   2  -9   10.60    0.27
   4   3  -7    5.38    0.20
   6   1 -12    0.01    0.35
   6   2 -11    0.43    0.32
   6   4  -6    3.89    0.21
   6   4  -5   14.05    0.22
   7   4  -7    2.10    0.24
   8   2 -12    2.80    0.42
   8   4  -8   -0.08    0.28
   8   4  -7    0.35    0.29
   8   4  -5    0.51    0.19
  -2 -13   7    0.42    0.32
  -2 -12   8    0.09    0.33
  -2 -11   8    0.43    0.28
  -2 -10   8    1.57    0.29
  -2  -5   4   43.72    0.24
  -1 -10  10    6.87    0.37
  -1  -6   8   17.36    0.28
  -1  -5  -4   29.11    0.16
  -1  -5   7    4.76    0.20
  -1  -4   6    0.09    0.16
   0  -9  11    0.38    0.32
   0  -7  10    3.21    0.27
   0  -2   5   18.24    0.19
   0   0  -2   73.76    0.16
   1 -10  12    0.30    0.37
   1  -6  10    0.77    0.28
   1  -5  -8    2.46    0.24
   1  -4  -8   -0.17    0.19
   1   0  -6   -0.02    0.14
   1   1  -4   81.38    0.25
   2  -4   9   21.55    0.32
   2  -3   8    2.48    0.21
   2  -2  -9   -0.14    0.20
   2  -2   7    0.81    0.17
   2   0  -8   24.96    0.29
   3  -1 -10    3.34    0.28
   4  -6  11    2.76    0.37
   4  -1 -11   11.53    0.40
   4   1 -10    9.62    0.24
   5  -1 -12   -0.02    0.38
   5   1 -11    2.90    0.30
   5   2 -10    0.57    0.26
   7   3 -10    5.90    0.37
   7   4  -6   13.69    0.26
   7   4  -5    1.01    0.19
   8   4  -6    1.60    0.22
   9   3  -2   -0.03    0.17
  -2 -13   8    0.20    0.35
  -2  -9   8   11.18    0.32
  -2  -7   7   -0.12    0.23
  -2  -6   6   -0.14    0.20
  -1  -9  10    3.29    0.30
  -1  -7   9   11.22    0.28
  -1  -6  -4    1.47    0.10
  -1  -3  -3    2.04    0.08
   0 -11  12    1.87    0.40
   0  -7  -6   18.72    0.23
   0  -4  -6   17.18    0.20
   1  -9  12    1.90    0.41
   1  -7  11    0.45    0.30
   1  -1   5    0.37    0.12
   2  -8  12   -0.21    0.40
   2  -5  10    0.75    0.28
   2   2  -4  159.59    0.36
   3  -6  11    0.75    0.36
   3   0   5    1.30    0.13
   3   2  -7    6.27    0.16
   4   3  -6    4.70    0.20
   5  -2 -12    0.55    0.37
   5   3  -8    3.34    0.23
   6   0 -12    5.42    0.42
   6   3  -9    0.00    0.27
   7   0   5    1.98    0.16
   7   1 -12    4.80    0.44
   7   2 -11    0.39    0.33
   8   2   1    7.58    0.12
   8   3 -10    0.31    0.32
   9   3 -10    0.13    0.34
  -2 -12   1    0.88    0.17
  -2 -12   9    0.95    0.36
  -2 -11   9    0.80    0.33
  -2 -10   9    0.25    0.27
  -2  -8   8    3.30    0.25
  -2  -5   5    4.59    0.16
  -2  -4   1  106.06    0.21
  -2  -4   2    9.82    0.11
  -1 -12  11    1.70    0.42
  -1 -11  11    0.18    0.40
  -1  -8  10    0.05    0.25
  -1  -3   5   11.63    0.16
  -1  -2   3  326.63    0.42
   0 -10  12    1.47    0.38
   0  -8  11    0.57    0.31
   0  -6  -6    0.52    0.17
   0  -5  -6   -0.06    0.15
   0  -4   8   54.32    0.38
   0  -2  -5    1.14    0.14
   0  -1  -4    3.43    0.10
   1  -2  -7   63.66    0.35
   2  -6  -9    7.00    0.33
   2  -6  11    1.45    0.33
   2  -3  -9   11.08    0.28
   2  -1   6  199.30    0.47
   2   2  -3    5.53    0.12
   3  -2 -10    1.19    0.27
   3   0  -9    0.28    0.23
   3   1  -8    3.25    0.22
   4  -2 -11    0.04    0.33
   4   0 -10    0.24    0.26
   4   2  -8    1.85    0.21
   5   0 -11    2.38    0.34
   6   1 -11    6.12    0.35
   6   2 -10    0.27    0.28
   7   3  -9    0.59    0.28
   7   3  -1   -0.10    0.13
   8   1 -12    0.37    0.43
   8   2 -11   -0.13    0.40
   9   3  -9    0.26    0.36
  -2 -13   9    0.45    0.38
  -2  -9   9    0.59    0.28
  -2  -4   3    2.97    0.11
  -1 -10  11    2.57    0.34
   0  -6  10    2.37    0.28
   0  -5   9   -0.07    0.17
   0  -3   7    3.29    0.19
   1  -8  12    0.57    0.40
   1  -5  10   16.09    0.38
   1  -4   9    1.59    0.24
   1  -3   8    1.43    0.21
   1   1  -3  171.80    0.30
   2  -5  -9    0.13    0.25
   2  -4  -9   14.45    0.29
   2  -1  -8   -0.04    0.20
   2   1  -6   48.80    0.27
   2   2  -2  239.39    0.32
   3  -7  12    2.24    0.41
   3  -3 -10    1.52    0.29
   3   2  -6   10.02    0.19
   4  -4  10    3.21    0.32
   4  -3 -11    1.17    0.37
   4  -3   9   30.43    0.35
   4  -2   8    2.52    0.23
   4   1  -9    3.66    0.24
   4   3  -5    0.64    0.15
   5  -3   9    0.50    0.27
   5  -2   8    6.63    0.28
   5   1 -10    5.35    0.29
   5   1   4    6.27    0.10
   5   2  -9   11.71    0.30
   5   3  -7    7.12    0.26
   5   3  -1    4.39    0.11
   6  -1 -12    1.70    0.43
   6   3  -8    3.27    0.26
   7   0 -12    1.35    0.41
   8   3  -9   -0.03    0.30
   9   3  -3    1.45    0.22
  10   3  -7    0.49    0.33
  10   3  -6   -0.09    0.34
  10   3  -5    0.01    0.31
  -2 -12  10    2.13    0.38
  -2 -11   0    1.52    0.12
  -2 -11  10    0.47    0.35
  -2  -7   8    0.07    0.22
  -2  -6   7    2.79    0.22
  -2  -4   4   54.26    0.24
  -1  -9  11    0.23    0.31
  -1  -6   9   37.03    0.37
  -1  -5   8    7.52    0.19
  -1  -4   7    7.46    0.21
   0  -9  12   -0.47    0.37
   0  -7  11    3.84    0.32
   0  -1   4    1.50    0.10
   1  -6  11    2.46    0.35
   1  -2   7    6.84    0.20
   1   0  -5  158.03    0.38
   2  -7  12    0.16    0.37
   2   0  -7   10.91    0.22
   3  -5 -10    0.40    0.30
   3  -4 -10    9.33    0.34
   3  -4  10    0.51    0.27
   3  -3   9    0.61    0.22
   3  -2   8   52.38    0.38
   4  -5  11    0.33    0.35
   4  -4 -11    0.31    0.35
   4  -1   7    5.43    0.19
   4   1   4   75.43    0.22
   4   3  -4   54.74    0.26
   4   3  -3    5.83    0.15
   5  -4  10    0.40    0.29
   5  -1 -11    3.32    0.35
   5  -1   7    2.04    0.20
   6  -2 -12   -0.28    0.39
   6  -2   8    0.96    0.26
   6   3  -1    0.88    0.12
   7   1 -11    8.17    0.40
   7   2 -10    2.55    0.34
   7   3  -8    1.59    0.29
   8   3  -8   -0.02    0.26
   8   3  -2    0.09    0.17
   9   2   0    0.36    0.15
   9   3  -8    0.06    0.33
  -3 -10   5    0.13    0.22
  -3 -10   6    1.04    0.25
  -3  -9   4    4.78    0.21
  -3  -9   5   15.96    0.27
  -2 -10  10    0.31    0.33
  -2  -8   9    4.93    0.28
  -2  -5   6    2.13    0.13
  -1 -11  12    0.50    0.43
  -1  -7  10    2.47    0.25
   0  -2   6   57.57    0.28
   1  -8  -7    0.90    0.25
   1  -3  -7    0.32    0.16
   1  -1  -6   13.80    0.19
   3  -5  11    3.59    0.34
   3  -1  -9    2.28    0.23
   4  -1 -10    7.53    0.31
   4   2  -7   28.00    0.28
   5   3  -6    0.32    0.20
   6   0 -11    0.09    0.32
   6   1   4    4.72    0.10
   6   2  -9    7.66    0.30
   6   3  -7    1.65    0.22
   7  -1 -12    0.04    0.44
   8   1 -11    1.44    0.39
   8   2 -10    0.03    0.32
   9   2 -10    1.91    0.42
   9   3  -7    2.17    0.30
  -3 -11   5    5.28    0.26
  -3 -11   6    0.19    0.22
  -3 -11   7   -0.03    0.30
  -3 -10   4   -0.03    0.19
  -3 -10   7   10.17    0.30
  -3  -9   6    5.53    0.22
  -3  -8   4   11.34    0.18
  -3  -8   5    1.32    0.17
  -2 -12  11    3.36    0.44
  -2  -9  10    0.32    0.31
  -1 -10  12   -0.43    0.37
  -1  -8  11    2.62    0.31
  -1  -3   6   20.09    0.21
  -1  -2   4   52.02    0.21
   0  -8  12    0.30    0.35
   0  -3  -5   74.18    0.29
   1  -7  12   -0.10    0.36
   2  -5  11    0.40    0.31
   2  -4  10    2.97    0.26
   2  -3   9    0.12    0.20
   2  -2  -8    3.94    0.22
   2  -2   8    0.33    0.20
   2   0   5   70.63    0.27
   3  -6  12   -0.13    0.38
   3  -1   7   30.65    0.25
   3   0  -8   16.70    0.28
   3   1  -7    8.94    0.21
   3   2  -5   39.07    0.24
   5  -2 -11    0.12    0.35
   5   0 -10    1.01    0.28
   5   2  -8   24.66    0.31
   5   3  -5   -0.36    0.17
   6  -1   7    2.12    0.20
   6   1 -10    5.17    0.30
   7   3  -7    0.13    0.24
   8   3  -7    1.77    0.26
   9   3  -6    0.25    0.25
   9   3  -5   -0.16    0.23
  -3 -12   5    0.59    0.26
  -3 -12   6    7.80    0.29
  -3 -12   7    6.82    0.33
  -3 -11   4    0.91    0.24
  -3 -11   8    8.10    0.33
  -3 -10   8    5.99    0.26
  -3  -9   3   -0.02    0.16
  -3  -9   7    0.03    0.21
  -3  -8   3    5.87    0.17
  -3  -8   6    2.43    0.20
  -3  -7   4    0.36    0.17
  -3  -7   5    5.87    0.22
  -2 -11  11    0.93    0.35
  -2 -10  11    0.06    0.33
  -2  -8  10    9.00    0.30
  -2  -7   9    0.74    0.23
  -2  -6   8    1.32    0.16
  -2  -5   7   52.02    0.33
  -2  -4   5   71.24    0.30
  -1  -9  12    1.50    0.34
  -1  -6  10    9.46    0.28
  -1  -5   9   14.64    0.27
   0  -9  -5    0.68    0.17
   0  -6  11    0.18    0.26
   0  -5  10    1.49    0.28
   0  -4   9   72.01    0.45
   1  -8  13    0.54    0.46
   1  -7  -7   12.15    0.28
   1  -4  -7   10.48    0.20
   1  -1   6    0.05    0.13
   1   0   4   43.07    0.18
   1   1   0   86.47    0.08
   2  -6  12   15.63    0.45
   2   1  -5    5.67    0.15
   3  -2  -9   19.88    0.33
   4  -2 -10    1.41    0.29
   4   0  -9    4.08    0.24
   4   1  -8    1.62    0.22
   5  -3 -11    0.52    0.36
   5   1  -9   19.78    0.35
   5   3  -4   -0.08    0.17
   6  -1 -11   11.17    0.43
   6   3  -6    0.08    0.20
   7   0 -11    0.95    0.35
   7   1 -10    3.67    0.32
   7   2  -9   20.52    0.38
   7   3  -6    5.47    0.27
   7   3  -2   11.04    0.19
   8   2  -9   -0.20    0.33
   8   3  -6    4.10    0.27
   9   1   2    1.19    0.13
   9   2  -9    1.06    0.37
  10   2  -8   -0.01    0.38
  -3 -13   6    1.03    0.32
  -3 -13   7    1.02    0.36
  -3 -12   8    1.59    0.33
  -3 -11   9    2.15    0.36
  -3 -10   3    0.64    0.17
  -3  -9   8    1.72    0.27
  -3  -8   7    8.61    0.25
  -3  -7   3   18.23    0.19
  -3  -7   6   17.93    0.26
  -2  -4   0   47.99    0.11
  -1  -7  11    1.56    0.29
  -1  -4   8    0.36    0.20
   0  -9  13    3.00    0.41
   0  -7  12    0.47    0.33
   0  -3   8   15.15    0.26
   1  -6  -7    0.36    0.19
   1  -5  -7   12.69    0.23
   1  -5  11   23.08    0.41
   1  -4  10    2.92    0.27
   1  -3   9    7.45    0.24
   2  -3  -8    5.22    0.22
   2  -1  -7    0.02    0.19
   2   1   3    7.37    0.08
   3  -3  -9    1.28    0.26
   4  -3 -10    0.51    0.30
   4   0   6    0.16    0.14
   4   2  -6   33.75    0.27
   5  -4 -11    1.22    0.41
   5   0   6    9.64    0.18
   5   3  -3    8.32    0.15
   6   2  -8    7.00    0.28
   6   3  -5    2.06    0.19
   6   3  -2    1.25    0.14
   7   3  -5    3.22    0.23
   8   0 -11    0.70    0.39
   8   1 -10    0.34    0.38
   8   3  -5    0.35    0.22
   8   3  -4    1.35    0.20
   9   1 -10    1.80    0.45
  10   2  -2   -0.22    0.25
  -3 -12   4    1.26    0.24
  -3 -12   9    0.93    0.33
  -3 -10   9    1.38    0.30
  -3  -8   8   -0.10    0.24
  -2 -11  12    0.72    0.47
  -2  -9  11    0.52    0.30
  -2  -6   9   11.65    0.26
  -2  -4   6   30.14    0.25
  -1 -10  13    0.65    0.44
  -1  -8  12    1.84    0.34
  -1  -4  -3   87.95    0.20
  -1  -3   7   19.09    0.23
  -1  -2   5  115.17    0.34
   0  -1  -3  213.26    0.31
   0  -1   5   15.21    0.17
   1  -6  12    2.59    0.36
   1  -2  -6    0.56    0.15
   1   0  -4  214.76    0.39
   2  -7  -8    3.45    0.30
   2  -4  -8    3.15    0.22
   2  -1   7    1.50    0.16
   2   0  -6   38.50    0.26
   3  -7  -9    3.34    0.36
   3  -1  -8    1.20    0.23
   3   1   4    0.88    0.09
   3   2  -4   28.73    0.20
   4  -5 -10    0.25    0.33
   4  -4 -10    5.81    0.36
   4  -1  -9    0.28    0.23
   5  -1 -10    3.55    0.29
   5   2  -7    1.43    0.23
   6  -2 -11    0.43    0.37
   6   0 -10    9.24    0.34
   6   1  -9    6.39    0.29
   6   3  -4   48.06    0.30
   7  -1 -11    2.77    0.38
   7   2  -8    7.23    0.31
   7   3  -4    0.25    0.16
   8   2  -8    1.99    0.28
   9   2  -8    0.70    0.34
  10   2  -7    5.07    0.39
  -3 -12  10    0.52    0.39
  -3 -11   3    0.30    0.18
  -3 -11  10    0.44    0.34
  -3  -9   2    0.92    0.14
  -3  -9   9    0.56    0.29
  -3  -8   2    4.76    0.14
  -3  -7   7    1.04    0.21
  -3  -6   4   14.22    0.18
  -3  -6   5    0.61    0.16
  -2 -10  12    0.94    0.41
  -2  -8  11    1.60    0.30
  -2  -7  10    3.20    0.27
  -2  -5   8   39.00    0.34
  -2  -3   3  255.20    0.40
   0  -8  -5   11.01    0.21
   0  -8  13    0.09    0.43
   0  -4  -5    1.23    0.14
   0  -2  -4    1.35    0.10
   0  -2   7    9.21    0.19
   1  -7  13    0.25    0.42
   1  -2   8  148.99    0.52
   1  -1  -5    0.24    0.14
   2  -6  -8    0.46    0.22
   2  -5  -8   15.16    0.29
   3  -6  -9    2.50    0.31
   3  -5  -9   -0.02    0.26
   3  -5  12   -0.04    0.37
   3  -4  -9    0.36    0.26
   3  -4  11   18.14    0.40
   3  -3  10    1.37    0.25
   3   0   6    9.74    0.17
   3   1  -6    4.68    0.18
   4  -4  11    0.51    0.33
   4  -3  10    4.85    0.28
   4  -2   9    2.17    0.25
   5   0  -9    0.66    0.25
   5   1  -8    6.66    0.24
   6  -3 -11    0.77    0.41
   7   0 -10    2.54    0.32
   8  -1 -11    0.36    0.42
   9   2  -1    0.24    0.19
  10   2  -6    1.03    0.33
  -3 -10  10    0.59    0.31
  -3  -8   9    0.12    0.28
  -3  -7   2    1.58    0.14
  -3  -7   8    2.30    0.24
  -3  -6   3   10.40    0.17
  -3  -6   6    2.92    0.20
  -2  -9  12    0.05    0.33
  -2  -4   7    7.61    0.21
  -2  -3   2  118.97    0.24
  -2  -3   4   72.00    0.27
  -1  -9  -3    7.81    0.14
  -1  -9  13   -0.17    0.37
  -1  -6  11    7.89    0.31
  -1  -5  10   55.72    0.45
  -1  -4   9    1.94    0.22
   0  -5  11    8.90    0.33
   0  -4  10    5.98    0.29
   0   0   2   75.74    0.17
   2  -5  12    0.31    0.35
   2  -4  11    1.38    0.29
   2  -3  10   21.03    0.34
   2  -2  -7    0.47    0.18
   2   1  -4    0.45    0.12
   3  -2   9   17.08    0.27
   3   0  -7   10.91    0.22
   4   0  -8   13.18    0.26
   4   1  -7    1.61    0.20
   4   2  -5    9.25    0.19
   5  -2 -10    1.65    0.30
   5  -2   9    0.08    0.26
   6  -4 -11    6.01    0.46
   6  -1 -10   13.64    0.39
   6   0   6   27.64    0.24
   6   2  -7    1.52    0.23
   7  -2 -11    2.73    0.42
   7   1  -9    0.27    0.21
   8   0 -10    3.42    0.36
   8   1  -9    0.79    0.33
   9   0 -10    0.97    0.40
   9   1  -9    0.49    0.38
   9   2  -7    2.27    0.31
  10   2  -5    1.75    0.28
  10   2  -4    0.34    0.28
  -3 -11  11   -0.02    0.39
  -3 -10   2    7.26    0.16
  -3  -9  10    0.49    0.29
  -3  -6   7    1.04    0.23
  -2  -6  10    2.75    0.26
  -2  -3   5   38.59    0.23
  -1  -7  12   -0.01    0.30
   0  -7  -5    6.43    0.18
   0  -7  13    1.80    0.37
   0  -6  12   11.26    0.37
   0  -5  -5   -0.09    0.14
   0  -3   9    0.82    0.23
   1  -9  -6    0.13    0.23
   1  -3  -6    0.36    0.15
   2  -2   9   24.41    0.32
   3  -2  -8   53.85    0.40
   3   2  -3   20.66    0.15
   4  -2  -9    0.22    0.27
   4  -1   8    0.76    0.20
   5  -3 -10    0.16    0.33
   5   2  -6    5.80    0.22
   6   0  -9   10.84    0.31
   6   1  -8    3.71    0.24
   7  -3 -11    1.46    0.47
   7   2  -7    0.89    0.26
   7   2   1    0.40    0.10
   8  -2 -11    1.31    0.44
   8   2  -7   -0.03    0.25
   8   2   0    1.25    0.15
   9   2  -6    1.17    0.28
  10   1  -8   14.04    0.51
  -3 -12   3    0.41    0.20
  -3 -10  11    0.18    0.34
  -3  -8  10   -0.12    0.28
  -3  -7   9    3.26    0.26
  -2 -10  13    0.69    0.43
  -2  -8  12    2.29    0.34
  -2  -7  11   23.58    0.34
  -2  -5   9   14.43    0.27
  -1  -8  13    1.51    0.39
  -1  -3   8   30.71    0.30
  -1  -2   6    0.97    0.10
   0  -6  -5   10.46    0.17
   0  -1   6   54.57    0.28
   1  -5  12    5.57    0.36
   1  -4  11    0.22    0.27
   1  -3  10    0.93    0.23
   1  -1   7   55.12    0.30
   1   0   5   71.34    0.25
   2   0   6    3.68    0.16
   3  -1   8    1.30    0.20
   4  -3  -9    0.06    0.31
   5  -4 -10    1.28    0.34
   5  -1  -9    5.27    0.29
   5  -1   8   13.74    0.28
   6  -2 -10    0.55    0.35
   6   2  -6    0.15    0.23
   7  -1 -10    0.51    0.34
   8   2  -6    3.56    0.27
   9   1  -8    0.38    0.33
   9   2  -5   -0.12    0.29
   9   2  -2    0.05    0.22
  -3 -11  12    0.78    0.43
  -3  -9  11    4.36    0.37
  -3  -6   2    1.19    0.11
  -3  -6   8   -0.30    0.22
  -3  -5   4    8.88    0.16
  -3  -5   5    9.20    0.17
  -3  -5   6    9.04    0.21
  -2  -9  13    0.61    0.40
  -2  -4   8   18.34    0.27
  -2  -3   6   15.01    0.20
  -1  -5  -3    0.42    0.09
   0  -2   8    1.04    0.20
   0   0   3   35.37    0.16
   1  -8  -6    1.00    0.21
   1  -6  13   -0.08    0.36
   1  -4  -6    4.08    0.19
   2  -3  -7   27.44    0.28
   2  -1  -6    4.71    0.17
   2   0  -5    6.24    0.15
   3  -3  -8    3.48    0.24
   3   1  -5   38.23    0.24
   3   2  -2   51.18    0.18
   4  -1  -8    7.74    0.26
   4   2  -4    2.65    0.14
   5  -5 -10    2.21    0.36
   5   0  -8   27.66    0.34
   5   1  -7   14.86    0.27
   5   2  -5    1.10    0.18
   7   0  -9    0.38    0.28
   7   1  -8    0.79    0.26
   7   2  -6   -0.05    0.22
   8  -1 -10    1.25    0.38
   8   0  -9    0.36    0.32
   8   1  -8    0.27    0.30
   9  -1 -10    0.49    0.42
   9   0  -9    0.05    0.39
   9   2  -4    6.50    0.26
  10   1  -7    0.86    0.36
  -3 -11   2   -0.18    0.16
  -3 -10  12    0.03    0.42
  -3  -8  11    0.34    0.30
  -3  -7  10    0.39    0.27
  -3  -5   3  115.51    0.33
  -3  -5   7    0.03    0.20
  -2  -6  11    1.13    0.28
  -2  -3   1  112.71    0.19
  -1  -7  13   -0.14    0.40
  -1  -6  12    3.55    0.32
  -1  -5  11   28.85    0.35
  -1  -4  10    3.23    0.26
  -1  -1   3  167.52    0.30
   0  -5  12    2.31    0.35
   0  -4  11   19.38    0.35
   1  -2   9   11.33    0.25
   2  -1   8    2.00    0.18
   3  -8  -8    0.15    0.31
   3  -1  -7    8.55    0.24
   3   0  -6    1.87    0.16
   3   2   0   85.09    0.15
   4  -7  -9    6.43    0.40
   4  -6  -9    0.60    0.34
   4  -5  -9    3.68    0.32
   4  -4  -9    7.59    0.31
   4   0  -7   58.31    0.38
   4   1  -6   25.90    0.22
   5  -2  -9   21.74    0.38
   6  -3 -10    0.88    0.35
   6  -1  -9    2.70    0.28
   7  -2 -10    2.32    0.37
   8   2  -5    0.77    0.23
  -4 -12   8    0.16    0.35
  -4 -12   9    0.33    0.35
  -4 -11   7    1.72    0.27
  -4 -11   8    1.28    0.28
  -4 -11   9    1.14    0.33
  -4 -10   6    1.22    0.24
  -4 -10   7    2.22    0.24
  -4 -10   8    8.77    0.32
  -4 -10   9    0.83    0.30
  -4  -9   6    0.46    0.24
  -4  -9   7    0.21    0.23
  -4  -9   8    1.60    0.24
  -3  -9  12   10.34    0.42
  -3  -6   9   23.08    0.32
  -2  -8  13    0.68    0.39
  -2  -7  12    4.08    0.26
  -2  -5  10    2.95    0.24
  -1  -8  -3   10.26    0.14
  -1  -3  -2   18.28    0.09
  -1  -3   9   -0.41    0.21
  -1  -2  -1  174.62    0.12
  -1  -2   7   16.19    0.23
  -1  -1   4   81.50    0.25
   0  -6  13    8.74    0.42
   0  -3  -4   23.41    0.16
   0  -3  10   22.09    0.33
   1  -7  -6    0.66    0.21
   1  -6  -6    2.84    0.21
   1  -5  -6   27.20    0.26
   1  -2  -5   22.16    0.19
   1   0  -3    1.85    0.09
   2  -8  -7    2.82    0.27
   2  -4  -7    2.16    0.19
   2  -4  12    0.71    0.33
   2  -3  11   11.47    0.37
   2   1  -3  306.26    0.43
   2   1   4    0.13    0.09
   3  -7  -8    0.68    0.30
   3  -5  -8   19.43    0.36
   3  -4  -8    1.65    0.22
   3  -3  11    1.79    0.29
   6  -5 -10    4.98    0.43
   6  -4 -10    3.57    0.42
   6  -1   8    1.14    0.22
   6   0  -8    4.40    0.27
   6   1  -7   28.80    0.33
   6   2  -5    2.46    0.21
   7   2  -5    2.43    0.22
   8  -2 -10    0.23    0.41
   8   2  -4    1.87    0.24
   8   2  -1    0.24    0.16
   9   1  -7    8.38    0.37
  10   0  -8   -0.14    0.40
  10   1  -6    0.23    0.33
  -4 -12   7    1.53    0.28
  -4 -11   6    0.78    0.25
  -4 -11  10    2.47    0.38
  -4 -10  10    0.18    0.33
  -4  -9   9    4.64    0.31
  -4  -8   6    0.98    0.21
  -4  -8   7    0.27    0.21
  -4  -8   8    7.18    0.29
  -3  -7  11    0.03    0.28
  -3  -5   8    0.25    0.21
  -2  -4   9    4.91    0.23
  -2  -3   7   -0.01    0.13
  -1  -6  -3    0.03    0.10
   0 -10  -4    2.10    0.19
   0  -1   7   71.47    0.35
   0   0   4    2.79    0.12
   1  -5  13   -0.02    0.41
   1  -4  12    1.14    0.36
   1   1   1  242.13    0.13
   2  -7  -7    7.23    0.26
   2  -6  -7    0.81    0.23
   2  -5  -7    3.92    0.21
   3  -6  -8    0.90    0.26
   3  -2  10    1.43    0.23
   3   0   7    0.10    0.16
   4  -2  -8   18.13    0.31
   4  -2  10    3.57    0.30
   4   0   7    9.46    0.18
   4   1   5    1.18    0.10
   4   2  -3    1.72    0.13
   5  -3  -9    6.46    0.31
   5  -1  -8    6.91    0.26
   5   2  -4    0.20    0.15
   7  -3 -10    3.35    0.37
   7  -1  -9    6.96    0.35
   7   0  -8    0.38    0.26
   7   1  -7    1.84    0.27
   8  -1  -9   -0.13    0.30
   8   1  -7   10.40    0.32
   8   2  -3    0.34    0.21
   9  -1  -9    2.70    0.42
   9   0  -8    0.03    0.35
  10   1  -5    0.77    0.31
  10   1  -1    0.39    0.26
  -4 -12   6    0.91    0.31
  -4 -11  11   -0.21    0.41
  -4 -10   5    0.52    0.23
  -4 -10  11    0.27    0.38
  -4  -9   5    5.90    0.20
  -4  -9  10    1.35    0.33
  -4  -8   9    6.15    0.31
  -3  -9  13    0.72    0.35
  -3  -8  12    1.57    0.34
  -3  -6  10   16.24    0.33
  -3  -4   5  236.64    0.52
  -3  -4   6  116.79    0.42
  -2  -6  12    5.41    0.35
  -1  -7  -3    1.13    0.10
  -1  -6  13    1.56    0.39
  -1  -5  12    4.41    0.35
  -1  -1   1   14.31    0.07
  -1  -1   5    3.31    0.14
   0  -2   9   13.66    0.26
   1  -3  11   12.72    0.33
   1  -1  -4  145.63    0.33
   1  -1   8    3.28    0.19
   1   0   6   29.33    0.21
   2  -2  -6    2.57    0.18
   2  -2  10    0.86    0.22
   3  -2  -7   16.74    0.27
   3   1   5   42.64    0.20
   5  -4  -9   -0.48    0.33
   5   0  -7   25.00    0.30
   5   0   7    0.55    0.15
   5   1  -6   13.54    0.24
   5   1   5   12.63    0.13
   6  -2  -9    1.30    0.28
   6   2  -4    1.19    0.17
   7  -4 -10    2.08    0.43
   7   0   6    0.06    0.11
   7   2  -4    6.76    0.20
   7   2   0    0.12    0.13
   8  -3 -10    1.12    0.39
   8   0  -8    1.48    0.29
   9   1  -6    1.78    0.30
   9   1   1    3.57    0.19
  10   0  -7    0.87    0.39
  10   1  -4    0.66    0.28
  10   1  -3    0.22    0.29
  -4 -11   5    0.76    0.25
  -4  -9  11    0.01    0.37
  -4  -8   5    9.41    0.20
  -4  -8  10    0.19    0.28
  -4  -7   6    3.16    0.19
  -4  -7   7   11.98    0.25
  -4  -7   8    0.18    0.25
  -3  -8   1    0.60    0.08
  -3  -5   2   25.17    0.16
  -3  -5   9    8.36    0.25
  -3  -4   4   30.44    0.21
  -3  -4   7    6.93    0.21
  -2  -7  13    1.04    0.34
  -2  -5  11    1.21    0.26
  -2  -3   8    0.72    0.20
  -2  -2   4  160.32    0.36
  -2  -2   5  103.51    0.33
  -1 -11  -2    2.75    0.15
  -1  -4  11   -0.36    0.26
  -1  -2   8    4.80    0.22
   0  -5  13    0.26    0.37
   0  -4  12    0.80    0.34
   0  -1  -2    4.71    0.09
   1   1   2   53.74    0.12
   2   0   7   31.35    0.25
   3  -1   9    3.78    0.24
   3   1  -4  112.39    0.32
   4  -3  -8    8.23    0.29
   4  -1  -7    7.13    0.24
   4   1  -5    0.42    0.15
   5  -6  -9    0.22    0.34
   5  -5  -9    4.97    0.36
   6  -3  -9    7.61    0.35
   6   1  -6   19.69    0.31
   6   2   1    4.54    0.10
   7  -2  -9    5.52    0.35
   7   2  -3    9.54    0.23
   8   1  -6    1.87    0.28
  10  -1  -8   -0.44    0.43
  -4 -10  12    1.06    0.43
  -4  -7   5    1.16    0.15
  -4  -7   9    0.09    0.28
  -3  -9   1    5.52    0.10
  -3  -8  13    1.78    0.40
  -3  -7   1    3.92    0.09
  -3  -7  12    0.13    0.34
  -3  -6  11    7.17    0.32
  -2  -4  10   11.14    0.23
  -2  -2   3    4.84    0.09
  -1  -3  10    3.50    0.27
   0  -9  -4    0.31    0.17
   0  -4  -4    2.04    0.13
   0  -3  11    8.92    0.32
   0  -2  -3   10.10    0.10
   0   0   5    0.59    0.14
   1 -10  -5   -0.01    0.25
   1  -3  -5    6.82    0.16
   1  -2  10    0.28    0.22
   2  -1  -5   25.76    0.21
   2  -1   9    0.42    0.22
   2   0  -4    1.06    0.12
   3  -3  -7    6.18    0.24
   3  -1  -6   33.18    0.28
   4  -4  -8   -0.30    0.29
   4  -1   9    0.68    0.22
   4   0  -6    5.66    0.21
   5  -2  -8   62.56    0.48
   5   2  -3   20.36    0.20
   6  -1  -8    0.07    0.24
   6   0  -7   14.21    0.29
   6   2  -3   20.02    0.23
   7   1  -6    5.30    0.26
   7   2  -1    7.82    0.18
   8  -2  -9    0.80    0.34
   9  -2  -9    1.19    0.36
   9  -1  -8    4.65    0.38
   9   0  -7   -0.04    0.33
   9   1  -5    0.78    0.27
  10   0  -6    0.57    0.36
  -4 -12   5   -0.13    0.25
  -4 -10   4    0.27    0.18
  -4  -9   4    8.56    0.19
  -4  -9  12    0.19    0.39
  -4  -8   4    2.53    0.18
  -4  -8  11    0.18    0.33
  -4  -7  10    0.19    0.26
  -4  -6   6   12.19    0.23
  -4  -6   7   48.12    0.36
  -3 -12   2    1.05    0.14
  -3  -5  10    0.96    0.25
  -3  -4   3    0.49    0.11
  -3  -4   8    2.07    0.22
  -2  -6  13   14.80    0.43
  -2  -3   9   25.48    0.30
  -2  -2   6  104.26    0.37
  -1  -1   6    2.65    0.11
   0  -1   8   18.45    0.25
   1   1   3   20.09    0.11
   2  -3  -6   70.81    0.36
   2   1  -2   40.07    0.15
   3   0  -5    0.49    0.15
   4  -8  -8    1.62    0.37
   4  -7  -8   13.84    0.43
   4  -5  -8   -0.05    0.24
   5   1  -5    7.44    0.21
   6  -4  -9    0.08    0.34
   7  -3  -9    1.45    0.34
   7  -1  -8    7.98    0.31
   7   0  -7    3.96    0.28
   8  -1  -8   -0.08    0.33
   8   0  -7    0.89    0.29
   8   1  -5    5.74    0.26
   9   1  -4    6.17    0.32
  -4  -6   5    8.94    0.22
  -4  -6   8    6.91    0.25
  -4  -6   9    0.22    0.24
  -3  -7  13    1.00    0.34
  -3  -6  12    0.73    0.31
  -2  -7  14    0.70    0.40
  -2  -5  12    3.60    0.32
  -2  -4  11    0.17    0.25
  -2  -2   2  246.06    0.34
  -2  -2   7    6.92    0.19
  -1  -6  14    1.08    0.45
  -1  -5  13    3.14    0.38
  -1  -4  12    2.22    0.33
  -1  -2   9   22.13    0.31
   0  -2  10    0.14    0.22
   1  -4  13    2.43    0.38
   1  -1   9    2.38    0.22
   1   0   7    3.64    0.18
   2  -9  -6    0.08    0.28
   2  -3  12    2.98    0.33
   2   1   5    1.30    0.11
   3  -4  -7    9.82    0.25
   4  -6  -8    1.30    0.29
   4  -2  -7   22.10    0.31
   4   2   1    2.96    0.06
   5  -3  -8   13.15    0.34
   5  -1  -7   62.85    0.42
   5  -1   9    3.24    0.24
   6  -6  -9    0.49    0.37
   6  -5  -9    9.40    0.42
   6  -2  -8   -0.06    0.26
   6   2   0   13.28    0.16
   7  -4  -9    0.00    0.35
   8  -3  -9    0.28    0.34
   9  -3  -9    0.33    0.39
   9   0  -6   12.23    0.39
   9   1  -3    5.43    0.28
   9   1   0    0.13    0.19
  10  -1  -7    0.15    0.38
  10   0  -5    2.25    0.35
  -4 -11   4    2.66    0.20
  -4  -9  13    0.33    0.44
  -4  -8  12    0.50    0.37
  -4  -7   4    6.28    0.15
  -4  -7  11    2.13    0.35
  -3  -6   1    4.63    0.09
  -3  -5  11    0.56    0.27
  -3  -4   9   11.26    0.21
  -3  -3   5    0.62    0.15
  -3  -3   6   68.98    0.33
  -1  -3  11    4.49    0.30
  -1  -1   7    5.41    0.19
   0  -8  -4   -0.13    0.15
   0  -5  -4    7.28    0.16
   0   0   6   22.40    0.21
   1  -9  -5    0.69    0.23
   1  -4  -5    9.11    0.17
   1  -3  12    1.21    0.32
   2  -4  -6    0.21    0.17
   2  -2  11    0.72    0.31
   3  -8  -7    7.83    0.33
   3  -7  -7    2.26    0.30
   3  -5  -7    8.86    0.25
   3  -2  11   -0.04    0.31
   4   1  -4    6.81    0.16
   4   2   0    5.93    0.09
   5   0  -6    0.51    0.20
   5   2  -1   40.79    0.20
   5   2   1    0.59    0.08
   6   1  -5    2.60    0.21
   6   2  -1    6.60    0.15
   7  -5  -9    9.83    0.49
   7  -2  -8    0.51    0.27
   7   1  -5    7.43    0.23
   8  -4  -9    5.03    0.44
   8   1   2    1.38    0.14
   9  -2  -8    0.63    0.38
   9  -1  -7    5.11    0.35
   9   1  -1    0.44    0.23
  -5 -11   9   -0.18    0.36
  -5 -11  10    1.04    0.37
  -5 -10   9   -0.17    0.33
  -5 -10  10    1.03    0.36
  -4  -6  10    0.24    0.27
  -4  -5   6    0.44    0.19
  -4  -5   7  175.47    0.60
  -4  -5   8   90.18    0.47
  -3  -3   4  174.78    0.40
  -3  -3   7   16.15    0.24
  -2  -3  10    3.71    0.26
  -2  -2   8    3.98    0.20
   0  -7  -4    0.29    0.14
   0  -6  -4   42.17    0.25
   0  -4  13    2.47    0.35
   0  -3  12    0.74    0.33
   1  -8  -5    7.56    0.25
   1  -2  -4    1.90    0.12
   1  -2  11    0.10    0.28
   1   0  -2    0.84    0.08
   1   1   4   97.37    0.25
   2  -8  -6    2.35    0.27
   3  -6  -7    4.31    0.27
   3  -2  -6    6.78    0.21
   3   0   8    1.03    0.18
   3   1  -3  169.28    0.35
   5  -4  -8    2.26    0.28
   5   2   0    2.88    0.11
   6  -3  -8   14.84    0.36
   6  -1  -7   -0.28    0.23
   6   0  -6    0.00    0.22
   6   0   7    5.08    0.17
   7  -6  -9    0.38    0.44
   7   0  -6    0.38    0.22
   8  -5  -9    0.48    0.46
   8  -2  -8   -0.22    0.30
   8  -1  -7    0.02    0.26
   8   0  -6    2.14    0.29
   8   1  -4    0.65    0.21
  10  -1  -6    2.32    0.40
  10   0  -4    0.75    0.29
  -5 -11   8    0.80    0.28
  -5 -10   8   -0.02    0.27
  -5 -10  11    1.01    0.39
  -5  -9   8    1.77    0.27
  -5  -9   9    0.16    0.28
  -5  -9  10    2.48    0.34
  -4  -8  13    0.20    0.35
  -4  -7  12    0.05    0.30
  -4  -6   4    6.62    0.16
  -4  -6  11    0.32    0.29
  -4  -5   9    2.42    0.25
  -3 -10   1    4.89    0.08
  -3  -7  14    0.70    0.44
  -3  -6  13    0.84    0.35
  -3  -4  10    0.28    0.18
  -3  -3   8   13.40    0.26
  -2  -8  -1   20.92    0.10
  -2  -6  14    3.11    0.43
  -2  -5  13    0.62    0.34
  -2  -4  12    1.51    0.30
  -1  -5  14   -0.37    0.36
  -1  -2  10    4.05    0.25
   0  -1   9    1.83    0.20
   1  -7  -5    3.54    0.20
   1  -5  -5   20.69    0.20
   2  -7  -6    3.36    0.21
   2  -6  -6    7.65    0.23
   2  -5  -6    4.34    0.19
   2  -2  -5    1.45    0.15
   2   0   8    0.23    0.16
   4  -3  -7   10.16    0.27
   4  -1  -6    8.59    0.18
   4   0  -5    0.36    0.16
   4   0   8   17.62    0.23
   5  -7  -8    1.54    0.38
   5  -6  -8    0.69    0.33
   5  -5  -8   15.55    0.37
   5  -2  -7    0.46    0.21
   5   1  -4    7.29    0.19
   7  -3  -8    0.60    0.28
   7  -1  -7    1.10    0.25
   7   1  -4    0.47    0.19
   9  -3  -8    0.41    0.38
   9   0  -5   11.99    0.35
  10  -2  -7    7.57    0.48
  10   0  -3    0.73    0.30
  -5 -10   7    3.79    0.29
  -5  -9   7    0.69    0.24
  -5  -9  11    1.93    0.36
  -5  -8   8    3.79    0.25
  -5  -8   9    7.39    0.31
  -5  -8  10    6.42    0.34
  -4 -12   4    0.02    0.20
  -4  -8   3    5.11    0.16
  -4  -5   5   20.60    0.22
  -3  -5  12    6.78    0.33
  -3  -4   2    8.44    0.11
  -1  -4  13    1.12    0.34
  -1  -1   8   12.80    0.25
   0 -11  -3   -0.02    0.20
   0  -2  11    3.00    0.27
   1  -6  -5   -0.06    0.15
   2  -1  10    0.74    0.20
   3  -1  -5   53.40    0.29
   3  -1  10   12.32    0.29
   3   1   6    1.64    0.13
   4  -9  -7    0.19    0.35
   4   1   6   10.60    0.15
   6  -4  -8    7.71    0.35
   6   1  -4    0.12    0.18
   8  -3  -8    1.30    0.32
   8   1  -3    0.35    0.20
   9  -2  -7    0.05    0.32
   9  -1  -6    2.93    0.32
  10   0  -2    1.67    0.31
  -5 -11   7    0.13    0.27
  -5  -9  12    1.74    0.43
  -5  -8   7   -0.15    0.22
  -5  -8  11    0.24    0.34
  -4  -9   3    0.26    0.13
  -4  -7   3    0.22    0.15
  -4  -7  13    2.74    0.36
  -4  -6  12    0.22    0.31
  -4  -5  10    0.34    0.24
  -3  -4  11    7.22    0.30
  -3  -3   3    9.36    0.15
  -3  -3   9    7.28    0.25
  -2  -3  11    3.37    0.29
  -2  -2   9   -0.05    0.23
  -2  -1   5    5.59    0.15
  -1  -3  12    0.32    0.31
   0   0   7   15.94    0.21
   1  -3  13    3.50    0.39
   1  -1  -3    4.08    0.10
   1  -1  10   -0.01    0.21
   1   0   8    2.53    0.17
   1   1   5    1.79    0.13
   2  -1  -4   17.25    0.17
   2   0  -3  114.14    0.28
   2   1   6   16.25    0.17
   3  -3  -6   39.82    0.33
   3   0  -4    5.60    0.14
   4  -8  -7    2.70    0.37
   4  -4  -7   11.09    0.27
   4  -1  10    0.14    0.25
   5  -1  -6   32.50    0.32
   5   0  -5   44.01    0.31
   6  -7  -8   11.32    0.47
   6  -6  -8    2.75    0.34
   6  -5  -8    0.76    0.34
   6  -2  -7    2.01    0.25
   7  -4  -8    1.00    0.31
   8  -4  -8    0.82    0.38
   8  -2  -7    7.21    0.37
   8   0  -5   26.31    0.38
   8   1  -2    7.46    0.25
   8   1   1    2.45    0.16
   9  -4  -8    3.81    0.42
   9   0  -4    1.02    0.28
  10  -3  -7    2.10    0.41
  10  -1  -5    0.18    0.34
  -5 -10   6    1.54    0.24
  -5  -9   6    0.87    0.22
  -5  -8  12    0.19    0.39
  -5  -7   7    0.30    0.22
  -5  -7   8   10.89    0.28
  -5  -7   9   24.42    0.37
  -5  -7  10    5.59    0.33
  -4 -10   3    0.72    0.15
  -4  -5   4    0.06    0.16
  -4  -5  11    0.27    0.28
  -4  -4   6    2.79    0.21
  -4  -4   7    0.43    0.23
  -4  -4   8   10.51    0.28
  -3  -6  14    0.54    0.43
  -3  -5  13    3.76    0.37
  -2  -7  -1    0.37    0.06
  -2  -5  14    3.62    0.43
  -2  -4  13    0.09    0.33
  -2  -1   4    0.53    0.12
  -2  -1   6   48.42    0.27
  -1 -10  -2    1.95    0.14
  -1  -4  -2   23.30    0.11
  -1   0   4  214.43    0.39
  -1   0   5  159.87    0.38
   0  -3  -3   61.89    0.20
   0  -3  13    0.85    0.36
   2  -2  12    2.07    0.35
   4  -7  -7    2.54    0.29
   4  -6  -7    3.19    0.27
   4  -5  -7    2.57    0.28
   4  -2  -6    6.62    0.21
   4   1  -3    6.63    0.15
   5  -3  -7    0.42    0.23
   5   0   8    1.08    0.17
   6  -1  -6    0.44    0.21
   6   0  -5    0.42    0.23
   7  -5  -8    1.89    0.40
   7  -2  -7   -0.14    0.19
   7   0  -5   25.41    0.32
   7   1  -3    4.45    0.18
   8  -5  -8   -0.29    0.35
   8  -1  -6    7.13    0.31
   8   1   0    4.11    0.19
  10  -2  -6    0.60    0.38
  -5 -11   6    0.17    0.24
  -5  -8   6    3.26    0.21
  -5  -7  11    1.48    0.34
  -4  -7  14    2.05    0.47
  -4  -6  13    0.16    0.38
  -4  -4   9    2.58    0.23
  -3  -4  12    2.46    0.34
  -3  -3  10    0.22    0.23
  -3  -2   6    9.63    0.19
  -3  -2   7    6.02    0.20
  -2  -2  10    7.68    0.28
  -2  -1   7   36.03    0.28
  -1  -4  14    0.08    0.38
  -1  -2  11    8.16    0.32
  -1  -1   9   19.13    0.27
  -1   0   3    1.81    0.09
   0  -1  10    0.03    0.21
   1  -3  -4   52.48    0.25
   1  -2  12    0.10    0.29
   2 -10  -5    3.39    0.32
   2  -3  -5   69.77    0.32
   3  -9  -6    1.70    0.29
   3  -4  -6   38.13    0.34
   5  -4  -7   10.07    0.30
   5   1  -3   80.11    0.32
   6  -3  -7    0.48    0.26
   6   1  -3    1.86    0.17
   7  -7  -8   -0.19    0.42
   7  -6  -8    6.16    0.41
   7  -1  -6   14.56    0.30
   7   1   3    7.82    0.13
   8  -6  -8    2.34    0.45
   9  -3  -7   -0.04    0.37
   9  -1  -5    2.44    0.30
   9   0  -3    0.12    0.25
  10  -1  -4    0.40    0.32
  -5  -8  13    0.12    0.42
  -5  -7   6    2.59    0.20
  -5  -7  12    0.63    0.39
  -5  -6   7    3.21    0.24
  -5  -6   8    0.85    0.23
  -5  -6   9   24.02    0.38
  -5  -6  10   14.82    0.35
  -4  -6   3    0.60    0.13
  -4  -5  12    0.14    0.32
  -4  -4   5    0.18    0.15
  -4  -4  10    8.07    0.29
  -3  -5   1    0.05    0.07
  -3  -2   5   38.75    0.23
  -3  -2   8   -0.33    0.20
  -2  -3  12    1.61    0.33
  -2  -1   3  309.94    0.43
  -1  -3  13    2.01    0.37
  -1   0   6   -0.02    0.13
   0  -2  12    0.15    0.30
   0   0   8    5.09    0.20
   2   0   9    8.18    0.23
   3  -8  -6   14.52    0.37
   3  -5  -6    4.35    0.25
   3   0   9    3.96    0.23
   3   1  -2    0.30    0.09
   4  -1  -5   74.30    0.36
   4   0  -4    0.62    0.13
   7  -3  -7    0.77    0.28
   7   1  -2    0.52    0.18
   8  -3  -7   12.01    0.38
   8   0  -4    1.56    0.22
   9  -2  -6    0.07    0.32
  10  -3  -6    0.03    0.37
  10  -2  -5    0.10    0.37
  -5  -7  13    1.17    0.36
  -5  -6  11    4.64    0.35
  -4  -6  14    0.70    0.39
  -4  -4  11    1.35    0.26
  -3  -5  14   -0.14    0.44
  -3  -3  11   -0.42    0.28
  -3  -2   4   28.66    0.20
  -2  -2   1    1.33    0.06
  -2  -1   8    1.42    0.23
  -1  -1  10    5.87    0.27
  -1   0   7    0.14    0.17
   0 -10  -3    0.37    0.17
   1 -10  -4    0.10    0.23
   1  -1  11    0.62    0.28
   1   0   9    0.63    0.19
   1   1   6    0.09    0.12
   2  -9  -5    4.08    0.28
   2  -4  -5    6.67    0.19
   2  -1  11    1.53    0.24
   3  -7  -6    0.45    0.23
   3  -6  -6   -0.22    0.21
   3  -2  -5    7.04    0.19
   4  -3  -6  167.99    0.60
   5  -8  -7    1.94    0.36
   5  -7  -7    0.77    0.32
   5  -6  -7   34.32    0.47
   5  -5  -7   28.86    0.40
   5  -2  -6   15.57    0.23
   6  -4  -7    1.80    0.26
   7   0  -4    8.50    0.26
   8  -2  -6   13.79    0.36
   8  -1  -5   -0.13    0.28
   9  -4  -7    1.20    0.35
   9   0  -2    0.04    0.22
   9   0   2    0.88    0.20
  10  -1  -3    1.57    0.31
  -6 -10  10   -0.16    0.35
  -5  -9   5    2.41    0.21
  -5  -8   5    0.57    0.19
  -5  -6   6    6.97    0.21
  -5  -6  12    1.29    0.35
  -5  -5   8    2.48    0.24
  -5  -5   9    2.21    0.27
  -4 -11   3    2.03    0.15
  -4  -5  13    0.32    0.37
  -4  -4   4   -0.01    0.16
  -4  -3   7    5.47    0.21
  -4  -3   8   27.91    0.32
  -3  -4  13    0.67    0.35
  -3  -2   9    1.89    0.22
  -2  -4  14    1.19    0.38
  -2  -2  11   13.62    0.34
  -1  -2  12    0.69    0.31
   2   1   7   -0.06    0.15
   3  -1  11    3.94    0.28
   3   1   7   13.22    0.19
   4   0   9    3.94    0.21
   5  -1  -5   23.17    0.26
   5   0  -4   15.19    0.22
   5   1   6    9.71    0.11
   6  -5  -7    0.20    0.29
   6  -2  -6    7.19    0.25
   6   0  -4    6.36    0.23
   6   1  -2    0.23    0.17
   7  -4  -7    2.68    0.29
   7  -2  -6    0.77    0.25
   8  -4  -7    0.50    0.24
   8   0  -3    0.82    0.21
   9  -5  -7    2.61    0.42
   9  -3  -6    1.97    0.34
   9  -1  -4    1.70    0.28
   9   0  -1   -0.02    0.24
  10  -1  -2    3.21    0.35
  -6 -10   9   -0.18    0.31
  -6  -9   9    2.36    0.33
  -6  -9  10    1.63    0.34
  -6  -9  11    0.55    0.35
  -5 -10   5    0.15    0.20
  -5  -7   5   -0.14    0.20
  -5  -5   7    1.56    0.21
  -5  -5  10   -0.13    0.28
  -4  -5   3    2.73    0.14
  -4  -4  12    0.10    0.32
  -4  -3   6    5.55    0.15
  -4  -3   9    6.41    0.25
  -3  -3  12    1.39    0.34
  -3  -2  10   -0.12    0.24
  -2  -3  13    0.37    0.36
  -2  -1   9    7.39    0.26
  -1  -9  -2    2.99    0.13
  -1   0   2    0.95    0.08
  -1   0   8    0.56    0.18
   0  -4  -3   43.74    0.20
   0  -1  11    1.17    0.27
   0   0   9    3.35    0.20
   0   1   4    3.41    0.10
   0   1   5    3.66    0.14
   1  -9  -4    2.07    0.24
   1  -4  -4    2.67    0.14
   2  -8  -5   11.27    0.26
   2  -5  -5   16.53    0.23
   2  -2  -4  107.11    0.33
   3  -1  -4    8.14    0.16
   4  -9  -6    0.67    0.37
   4  -4  -6   21.35    0.31
   4   1  -2    3.57    0.12
   5  -3  -6   28.28    0.32
   6  -8  -7    2.90    0.40
   6  -7  -7   -0.25    0.36
   6  -6  -7   23.92    0.46
   6  -1  -5    4.52    0.23
   7  -5  -7    0.98    0.32
   7  -1  -5    0.28    0.17
   8  -5  -7    1.75    0.37
   9  -2  -5    4.12    0.34
   9   0   1    3.67    0.23
  10  -4  -6    0.69    0.40
  10  -3  -5    0.17    0.39
  10  -2  -4   -0.17    0.36
  -6  -8   9    0.94    0.29
  -6  -8  10    4.80    0.33
  -6  -8  11    2.17    0.33
  -6  -8  12   -0.02    0.40
  -5  -6  13    0.16    0.34
  -5  -5  11    1.44    0.29
  -4  -5  14    0.33    0.40
  -4  -3   5    0.20    0.15
  -4  -3  10    0.48    0.24
  -3  -4  14    0.83    0.42
  -3  -3   2   36.37    0.16
  -2  -3   0    0.19    0.04
   0  -9  -3    9.80    0.20
   0  -2  13   -0.06    0.35
   0   1   3  217.36    0.31
   1   1   7   32.42    0.23
   2  -7  -5    0.09    0.20
   2  -6  -5    1.36    0.17
   3  -3  -5   17.10    0.23
   3   0  -3   19.49    0.14
   4  -8  -6   10.72    0.39
   4  -5  -6    7.95    0.28
   4  -2  -5   52.43    0.32
   5   1  -2    8.08    0.15
   6  -3  -6    0.17    0.23
   7  -8  -7   -0.13    0.42
   7  -7  -7    0.37    0.39
   7  -6  -7    4.38    0.37
   7  -3  -6    1.45    0.26
   7   1   0   10.93    0.20
   7   1   1    0.05    0.15
   7   1   2    0.03    0.13
   8  -7  -7    0.48    0.44
   8  -6  -7    6.61    0.40
   8  -3  -6    0.48    0.29
   9  -4  -6    0.20    0.34
  10  -1  -1    0.36    0.28
  10  -1   0    0.78    0.32
  -6 -10   8   -0.23    0.27
  -6  -9   8    3.03    0.28
  -6  -8   8    2.07    0.30
  -6  -7   9    0.70    0.24
  -6  -7  10    1.11    0.32
  -6  -7  11    2.02    0.37
  -5 -11   5    0.67    0.21
  -5  -6   5    2.13    0.16
  -5  -5   6    4.56    0.20
  -5  -5  12    7.85    0.37
  -5  -4   8    9.71    0.26
  -5  -4   9    1.34    0.27
  -4  -4  13    0.64    0.35
  -4  -3  11    0.10    0.27
  -3  -2   3   21.09    0.16
  -3  -2  11    5.40    0.29
  -3  -1   7    8.44    0.20
  -2  -2  12   10.27    0.35
  -2  -1  10    1.73    0.26
  -1  -5  -2    0.22    0.08
  -1  -2  13    2.69    0.38
  -1  -1  11    0.74    0.25
   0  -2  -2   63.37    0.16
   0   1   6    0.46    0.13
   1  -8  -4    3.44    0.21
   1  -5  -4    1.75    0.14
   1  -2  -3    4.73    0.10
   1   0  10   15.48    0.29
   2 -11  -4    9.59    0.37
   2   0  10    1.11    0.25
   3 -10  -5    2.82    0.31
   4  -7  -6    0.76    0.26
   4  -6  -6   27.04    0.37
   4   1   7    6.55    0.15
   5  -4  -6    8.41    0.27
   7   0  -3    5.01    0.21
   8  -2  -5   12.34    0.34
   8  -1  -4   22.86    0.35
   8   0  -2    0.47    0.20
   9  -1  -3    7.14    0.31
  10  -2  -3    1.69    0.34
  -6  -7   8    0.21    0.27
  -6  -7  12    0.67    0.37
  -5  -5  13    0.01    0.38
  -5  -4   7    0.27    0.23
  -5  -4  10    1.89    0.27
  -3  -3  13    2.06    0.36
  -3  -1   6    4.48    0.14
  -3  -1   8    3.05    0.21
  -2  -3  14    0.17    0.42
  -2  -1   2   39.08    0.16
  -2   0   5    6.84    0.15
  -2   0   6   39.60    0.26
  -2   0   7   11.21    0.21
  -1  -8  -2    0.11    0.12
  -1   0   9    1.60    0.20
   0  -8  -3    0.11    0.14
   0  -5  -3    2.55    0.13
   0  -1  12    6.94    0.34
   0   0  10    9.69    0.29
   1  -7  -4    1.35    0.16
   1  -6  -4   15.09    0.19
   1  -1  12    1.05    0.30
   2  -1  -3    9.13    0.13
   3   0  10   14.63    0.31
   4  -1  -4   29.15    0.23
   5  -9  -6    9.91    0.42
   5  -5  -6    6.89    0.28
   5  -2  -5    2.27    0.21
   6  -4  -6   11.10    0.30
   7  -4  -6   11.36    0.33
   7  -2  -5    2.57    0.26
   7  -1  -4   -0.22    0.25
   8  -4  -6    0.66    0.31
   8   0   4    0.20    0.16
   9  -5  -6    7.96    0.43
   9  -3  -5    7.79    0.37
   9  -2  -4    1.08    0.29
  10  -4  -5   -0.20    0.41
  10  -3  -4   -0.16    0.37
  -6 -10   7   -0.17    0.28
  -6  -9   7    0.62    0.25
  -6  -8   7   -0.16    0.23
  -6  -7  13    3.07    0.43
  -6  -6   9    0.91    0.29
  -6  -6  10    5.28    0.34
  -6  -6  11    0.72    0.33
  -5  -4  11    2.03    0.28
  -4  -4  14    0.32    0.40
  -4  -3   4   52.82    0.26
  -4  -3  12    2.25    0.32
  -4  -2   7   27.18    0.28
  -4  -2   8    1.81    0.21
  -4  -2   9   10.44    0.27
  -3  -1   5   37.41    0.22
  -3  -1   9    7.41    0.26
  -2  -2  13    0.43    0.31
  -2  -1  11    2.37    0.30
   0   1   7    0.88    0.15
   1   1   8    2.69    0.20
   2  -3  -4    3.16    0.16
   2   0  -2   43.91    0.16
   2   1   8   18.72    0.22
   3  -9  -5    7.17    0.30
   3  -4  -5   41.05    0.31
   4  -3  -5   45.80    0.33
   4   0  -3   43.85    0.22
   5  -8  -6   36.43    0.50
   5  -7  -6    0.62    0.30
   5  -6  -6    1.11    0.28
   5   0  -3    1.95    0.16
   6  -2  -5   30.67    0.32
   6   0  -3    8.24    0.20
   8  -5  -6    3.47    0.35
   8   0  -1    8.82    0.26
   9  -6  -6    0.03    0.42
   9  -1  -2    0.46    0.25
  10  -2  -2    0.68    0.37
  -6  -7   7    0.39    0.25
  -6  -6   8    0.38    0.23
  -6  -6  12   -0.04    0.36
  -5  -8   4    0.26    0.15
  -5  -5   5   17.88    0.22
  -5  -5  14   -0.22    0.43
  -5  -4   6   15.11    0.24
  -5  -4  12    0.69    0.34
  -4  -8   2   10.08    0.12
  -4  -7   2    2.34    0.10
  -4  -4   3    1.39    0.12
  -4  -2   6   30.85    0.23
  -4  -2  10    3.02    0.25
  -3  -4   1   19.45    0.11
  -3  -3  14    6.20    0.47
  -3  -2  12    6.32    0.34
  -2   0   4    0.96    0.12
  -2   0   8   24.73    0.28
  -1  -7  -2   12.57    0.15
  -1  -6  -2   12.54    0.13
  -1  -1  12    3.62    0.31
  -1   0  10    2.87    0.23
   0  -7  -3    0.48    0.14
   0  -6  -3   30.37    0.21
   1 -11  -3    6.11    0.30
   2 -10  -4    0.81    0.28
   3  -8  -5   16.54    0.33
   3  -5  -5   35.85    0.32
   3  -2  -4    1.19    0.14
   3   1   8    0.02    0.15
   5  -1  -4    0.07    0.17
   6  -9  -6    0.80    0.37
   6  -8  -6    0.44    0.35
   6  -7  -6    6.68    0.38
   6  -6  -6    5.67    0.33
   6  -5  -6    2.14    0.22
   6  -1  -4    0.26    0.20
   7  -5  -6    0.12    0.29
   7   0  -2    4.03    0.21
   8  -6  -6    7.02    0.43
   8  -3  -5   -0.10    0.28
   8  -1  -3   22.46    0.31
   9  -4  -5    0.11    0.35
  10  -5  -5    3.96    0.44
  -6  -6  13    0.07    0.38
  -6  -5   9    1.81    0.26
  -6  -5  10    5.99    0.32
  -6  -5  11    0.80    0.35
  -5  -9   4    3.14    0.16
  -5  -7   4    0.73    0.15
  -5  -4  13    0.06    0.38
  -5  -3   8    2.91    0.24
  -5  -3   9   11.48    0.29
  -5  -3  10   -0.15    0.26
  -4  -3  13   -0.06    0.40
  -4  -2   5    8.71    0.18
  -4  -2  11    4.19    0.28
  -3  -1   4  116.01    0.33
  -3  -1  10   21.32    0.34
  -2 -11   0    1.37    0.13
  -2   0   9    5.96    0.25
  -1   1   5    0.00    0.13
  -1   1   6   13.56    0.18
   0   1   2    4.89    0.07
   0   1   8   20.03    0.23
   1  -1  -2    1.33    0.09
   1   0  11    1.21    0.30
   3  -7  -5    0.21    0.20
   3  -6  -5    0.04    0.20
   4 -10  -5    5.51    0.38
   5  -3  -5    1.56    0.21
   6  -3  -5    5.33    0.23
   6   1   0    8.97    0.16
   7  -8  -6    0.32    0.40
   7  -7  -6    3.44    0.40
   7  -6  -6    1.16    0.24
   7  -3  -5    1.65    0.26
   8  -7  -6    1.97    0.29
   8  -2  -4   34.99    0.41
   9  -3  -4    1.80    0.35
   9  -2  -3    1.56    0.27
   9  -1  -1    3.02    0.24
  10  -4  -4    5.13    0.42
  10  -3  -3    0.07    0.36
  10  -2  -1    1.52    0.31
  -7  -8  11    1.69    0.41
  -6  -6   7    8.70    0.24
  -6  -5   8    1.70    0.26
  -6  -5  12    0.43    0.36
  -5  -6   4   10.22    0.19
  -5  -3   7    7.63    0.26
  -5  -3  11    1.09    0.30
  -4  -6   2    2.73    0.11
  -3  -2  13    0.58    0.36
  -3  -1  11    9.67    0.30
  -2  -1  12    0.40    0.32
  -1   1   7    0.16    0.17
   0 -11  -2    1.13    0.22
   0   0  11    2.31    0.26
   2  -9  -4    6.33    0.27
   2  -4  -4   13.04    0.19
   2   0  11   -0.09    0.27
   4  -9  -5    1.27    0.30
   4  -4  -5    0.44    0.22
   7  -2  -4   20.44    0.31
   7  -1  -3   14.43    0.29
   7   0   6    0.11    0.10
   8  -4  -5    0.19    0.29
   8   0   1   -0.11    0.20
   8   0   2   -0.09    0.17
   8   0   3    1.91    0.17
   9  -5  -5    0.62    0.38
  -7  -8  10    0.62    0.34
  -6  -9   6    0.10    0.24
  -6  -8   6    0.44    0.23
  -6  -5  13   -0.05    0.39
  -5 -10   4    0.98    0.16
  -5  -4   5   39.11    0.28
  -5  -4  14    1.07    0.43
  -5  -3  12    0.86    0.32
  -4  -9   2    0.44    0.08
  -4  -3  14    3.47    0.47
  -4  -2  12    6.42    0.38
  -2   0  10   11.91    0.31
  -1 -11  -1    2.01    0.17
  -1  -1  13    3.07    0.38
  -1   0  11    7.72    0.31
  -1   1   4  144.75    0.33
   1 -10  -3    2.90    0.25
   1  -3  -3   10.67    0.13
   1   1   9    4.25    0.20
   2   1   9    2.35    0.21
   3 -11  -4    4.42    0.34
   3  -1  -3    5.75    0.14
   4  -8  -5   -0.24    0.25
   4  -5  -5    1.08    0.24
   4  -2  -4  161.68    0.48
   5 -10  -5    0.49    0.39
   5  -4  -5    1.65    0.21
   6   0  -2   22.48    0.23
   6   1   1    8.97    0.15
   6   1   4    4.44    0.10
   7  -4  -5   16.06    0.33
   7   0  -1    7.38    0.21
   8  -5  -5   14.80    0.38
   8  -1  -2    5.86    0.24
   9  -6  -5    1.13    0.38
   9  -1   0    0.22    0.22
  10  -5  -4   -0.32    0.41
  10  -3  -2    2.17    0.35
  10  -2   0   -0.13    0.28
  -7  -9   9    0.23    0.36
  -7  -7  10    0.00    0.34
  -7  -7  11    0.28    0.38
  -7  -7  12    2.20    0.39
  -6 -10   6    0.51    0.23
  -6  -7   6    1.74    0.20
  -6  -5   7   11.48    0.26
  -6  -4   9   -0.16    0.28
  -6  -4  10    0.20    0.28
  -6  -4  11   -0.05    0.32
  -5  -5   4    1.61    0.16
  -5  -3   6   -0.14    0.18
  -4  -1   7    2.03    0.21
  -4  -1   8    1.41    0.16
  -4  -1   9    3.77    0.24
  -3 -10   1    5.00    0.09
  -3  -2   2   52.93    0.19
  -3  -2  14    0.28    0.46
  -3  -1  12    1.45    0.32
  -3   0   6    2.39    0.17
  -3   0   7   11.22    0.22
  -3   0   8   15.92    0.28
  -2   0   3  114.03    0.27
  -1   1   8   19.22    0.25
   0  -1  -1  602.20    0.31
   0   1   9   14.68    0.25
   2  -8  -4    1.27    0.20
   2  -5  -4   33.53    0.26
   2   2   4   14.52    0.11
   3  -3  -4    0.80    0.16
   3   0  -2    0.01    0.10
   4  -7  -5   34.64    0.41
   4  -6  -5   36.82    0.37
   4   1   8    7.95    0.17
   5  -9  -5   11.78    0.42
   5  -2  -4    1.03    0.18
   6  -4  -5    1.96    0.17
   6  -2  -4   61.29    0.39
   6  -1  -3   11.44    0.24
   8  -6  -5    3.71    0.34
   8  -3  -4    2.81    0.28
   8  -2  -3    0.38    0.26
   9  -7  -5    4.06    0.42
   9  -4  -4    2.71    0.32
   9  -3  -3    1.04    0.26
   9  -2  -2    9.34    0.33
   9  -1   2    0.09    0.23
   9  -1   3    0.84    0.24
  10  -4  -3    1.66    0.39
  -7  -8   9    0.18    0.31
  -7  -7   9    0.43    0.34
  -7  -6  11    4.52    0.38
  -7  -6  12    0.11    0.41
  -6  -6   6    6.03    0.22
  -6  -4   8    0.06    0.24
  -6  -4  12    2.00    0.34
  -5  -3  13    0.52    0.33
  -5  -2   8   24.40    0.31
  -5  -2   9   12.25    0.28
  -5  -2  10    0.64    0.26
  -4  -5   2    4.54    0.12
  -4  -3   3    6.02    0.13
  -4  -2   4    2.57    0.15
  -4  -2  13    6.04    0.42
  -4  -1   6   27.65    0.26
  -4  -1  10   10.42    0.31
  -3  -1   3  169.24    0.35
  -3   0   9    0.61    0.23
  -2  -1  13    3.60    0.40
  -2   0  11    8.53    0.30
  -1   1   9    3.87    0.24
   0   0  12    1.42    0.31
   2  -7  -4    0.69    0.18
   2  -6  -4   72.02    0.37
   2  -2  -3   54.90    0.23
   2   2   5   31.10    0.17
   3 -10  -4    0.96    0.29
   3   1   9    0.87    0.18
   3   2   4   12.73    0.08
   4  -1  -3   97.46    0.34
   4   0  -2   38.84    0.21
   5  -8  -5    1.49    0.30
   5  -7  -5   17.04    0.34
   5  -6  -5    0.14    0.25
   5  -5  -5   11.64    0.23
   5  -1  -3   -0.06    0.15
   5   0  -2    0.18    0.13
   6  -9  -5    1.55    0.38
   6  -5  -5    5.94    0.27
   6   1   2    4.04    0.13
   6   1   3    1.71    0.11
   7  -9  -5    1.18    0.42
   7  -6  -5    0.81    0.28
   7  -5  -5    3.50    0.22
   8  -8  -5    0.47    0.39
   8  -7  -5    3.50    0.40
   9  -5  -4    0.04    0.32
  -7  -6  10    0.62    0.33
  -6  -4  13    0.17    0.36
  -5  -3   5    0.00    0.20
  -5  -3  14    1.03    0.45
  -5  -2   7    1.42    0.22
  -5  -2  11    3.72    0.31
  -4  -1  11    2.85    0.29
  -3   0   5    0.91    0.15
  -3   0  10    0.08    0.27
  -2   1   6    5.25    0.18
  -2   1   7   -0.25    0.18
  -1  -1   0   91.78    0.08
  -1   0  12    7.73    0.34
  -1   1   3    4.13    0.10
   0 -10  -2    1.29    0.20
   1  -9  -3   10.42    0.23
   1   0  12    2.73    0.30
   1   1  10   -0.02    0.24
   1   2   5    9.10    0.14
   2 -11  -3    0.76    0.29
   4 -11  -4    1.95    0.37
   4  -3  -4   11.59    0.22
   6  -8  -5   -0.26    0.33
   6  -7  -5   13.18    0.38
   6  -6  -5    2.64    0.29
   7  -8  -5    0.42    0.38
   7  -7  -5   14.96    0.43
   7  -3  -4    8.42    0.22
   7  -1  -2   24.15    0.30
   8  -4  -4    5.42    0.32
   8  -1  -1    3.59    0.22
   9  -2  -1    4.80    0.33
  10  -5  -3    0.54    0.40
  10  -4  -2    0.94    0.40
  10  -3  -1    6.38    0.37
  -7  -9   8    0.47    0.28
  -7  -8   8    0.27    0.27
  -7  -6   9   -0.01    0.29
  -7  -5  11    0.03    0.35
  -7  -5  12   -0.34    0.37
  -6  -5   6    7.83    0.22
  -6  -4   7    0.99    0.21
  -6  -3   9   -0.35    0.27
  -6  -3  10    3.33    0.29
  -6  -3  11    5.04    0.34
  -5 -11   4    0.07    0.15
  -5  -2  12    0.20    0.32
  -4  -2  14    2.09    0.45
  -4  -1   5    0.49    0.15
  -4  -1  12    0.17    0.30
  -3  -1  13    6.93    0.41
  -2   1   5   26.17    0.21
  -2   1   8   -0.13    0.20
   0  -3  -2   14.48    0.10
   0   1  10   20.06    0.29
   1 -12  -2    4.11    0.28
   1  -4  -3   76.57    0.27
   1   2   4    0.14    0.09
   1   2   6   71.31    0.29
   2   2   3   16.93    0.08
   2   2   6    0.09    0.12
   3  -9  -4   11.35    0.32
   3  -4  -4  114.83    0.42
   3   2   5    0.04    0.08
   5  -3  -4   29.54    0.30
   6  -3  -4   18.84    0.28
   6   0  -1   -0.04    0.17
   7  -2  -3    0.70    0.23
   8  -3  -3   -0.18    0.30
   9  -7  -4    4.84    0.41
   9  -6  -4    3.72    0.40
   9  -4  -3    2.66    0.34
   9  -3  -2    6.71    0.33
  10  -6  -3   -0.09    0.40
  10  -3   0   14.66    0.44
  -7  -7   8    0.59    0.26
  -7  -5  10    0.27    0.33
  -6  -3   8    3.01    0.26
  -6  -3  12    1.69    0.32
  -5  -4   4   12.48    0.18
  -5  -2   6    5.96    0.23
  -5  -2  13    0.15    0.40
  -3   0  11    3.88    0.31
  -2   0  12    0.97    0.32
  -2   1   9   34.43    0.34
  -1   1  10    0.18    0.23
   1  -8  -3    4.56    0.18
   2   1  10    0.18    0.22
   3  -8  -4    0.66    0.22
   3  -5  -4    0.10    0.19
   4 -10  -4    4.05    0.34
   7  -4  -4    3.77    0.27
   8  -5  -4    7.62    0.33
   8  -2  -2    3.49    0.23
   8  -1   0    2.49    0.24
   9  -2   0    8.02    0.31
  -7  -6   8   -0.31    0.27
  -7  -5   9    0.42    0.28
  -6  -8   5    2.47    0.19
  -6  -7   5    0.80    0.18
  -6  -4   6    3.46    0.24
  -6  -3  13   -0.36    0.36
  -5  -1   8    6.32    0.24
  -5  -1   9   20.06    0.33
  -5  -1  10    5.06    0.29
  -4  -1  13    0.56    0.41
  -4   0   7   59.46    0.38
  -4   0   8   12.95    0.26
  -4   0   9    3.70    0.26
  -3   0   4    5.87    0.15
  -1 -10  -1    8.86    0.18
   0  -9  -2   10.37    0.20
   0   2   5    1.54    0.12
   0   2   6   33.32    0.22
   1  -7  -3    1.12    0.14
   1  -6  -3    7.74    0.19
   1  -5  -3   28.13    0.20
   1   2   7   18.53    0.20
   2 -10  -3    4.55    0.28
   3  -7  -4   29.47    0.33
   3  -6  -4    4.81    0.22
   3  -2  -3   85.25    0.31
   4  -9  -4   24.45    0.40
   4  -4  -4   21.19    0.27
   5 -10  -4    0.58    0.37
   5  -4  -4    3.92    0.23
   5   1   1    1.88    0.12
   6  -4  -4   25.80    0.32
   6  -2  -3   -0.05    0.22
   6  -1  -2   40.24    0.30
   7  -5  -4   13.84    0.32
   8  -9  -4    0.22    0.44
   8  -7  -4    0.28    0.32
   8  -6  -4    8.16    0.36
   9  -5  -3   -0.21    0.34
  10  -5  -2    0.01    0.39
  10  -4  -1    3.15    0.37
  -7  -8   7    0.51    0.25
  -7  -5   8    0.31    0.27
  -7  -4  10   -0.28    0.32
  -7  -4  11    0.50    0.32
  -7  -4  12    0.02    0.36
  -7  -4  13    0.29    0.42
  -6  -9   5    0.00    0.18
  -6  -6   5    3.81    0.18
  -6  -3   7    1.96    0.20
  -6  -2   9    7.02    0.28
  -6  -2  10    0.54    0.27
  -6  -2  11    0.29    0.31
  -5  -7   3    2.26    0.13
  -5  -1   7   14.52    0.27
  -5  -1  11    3.09    0.32
  -4  -4   2   -0.01    0.10
  -4   0  10    0.38    0.28
  -3  -3   1    4.12    0.07
  -3   0  12    7.86    0.38
  -3   1   8    1.65    0.22
  -2 -10   0    2.75    0.14
  -2  -1   1   60.72    0.16
  -2   0  13    1.50    0.36
  -2   1   4   18.37    0.17
  -2   1  10   37.17    0.40
  -1   1  11    0.73    0.30
   0 -12  -1    8.86    0.30
   0   1  11    0.54    0.25
   0   2   7   14.61    0.19
   1 -11  -2    5.89    0.28
   1   1  11    0.02    0.27
   2  -3  -3    4.84    0.14
   2  -1  -2   14.27    0.11
   2   2   7   12.24    0.17
   3 -11  -3    4.34    0.36
   3   2   6   12.73    0.13
   4  -8  -4    0.02    0.27
   4  -5  -4    0.25    0.22
   4  -2  -3   33.27    0.24
   5  -9  -4    5.84    0.32
   5  -2  -3    8.51    0.20
   5   0  -1   14.37    0.19
   6 -10  -4    5.05    0.42
   6  -5  -4   13.31    0.29
   7  -9  -4    0.05    0.41
   7  -6  -4    1.85    0.29
   7  -3  -3   97.55    0.52
   7  -1  -1    0.44    0.17
   8  -8  -4    8.45    0.35
   8  -4  -3    0.82    0.28
   9  -6  -3   15.55    0.46
   9  -4  -2    4.36    0.31
   9  -3  -1    6.94    0.33
   9  -2   1    0.07    0.27
  10  -6  -2    0.00    0.38
  -7  -9   7    0.49    0.27
  -7  -7   7    3.48    0.24
  -7  -4   9    1.27    0.30
  -6  -5   5    0.13    0.19
  -6  -2   8    7.27    0.27
  -6  -2  12    0.68    0.34
  -5  -8   3    3.97    0.13
  -5  -6   3    3.10    0.14
  -5  -3   4    0.06    0.14
  -5  -2   5    1.34    0.18
  -5  -1  12    1.01    0.37
  -4  -2   3    1.85    0.13
  -4  -1   4    6.82    0.16
  -4   0   6    6.16    0.20
  -4   0  11    0.37    0.30
  -3   1   6   34.94    0.27
  -3   1   7    8.81    0.23
  -3   1   9    2.33    0.24
  -2   0   2   45.62    0.17
  -1   2   6    0.70    0.17
  -1   2   7   63.13    0.35
   0   2   4    1.13    0.10
   0   2   8    5.96    0.21
   1  -2  -2    9.86    0.11
   1   2   3   14.84    0.10
   1   2   8    1.63    0.17
   2  -9  -3   33.22    0.37
   3   1  10    2.15    0.21
   4  -7  -4    9.67    0.28
   4  -6  -4    5.29    0.25
   5  -8  -4    6.39    0.33
   5  -5  -4   17.73    0.28
   6  -9  -4    2.99    0.37
   6  -8  -4    3.08    0.31
   6  -6  -4    4.20    0.27
   7  -8  -4    5.47    0.38
   7  -7  -4   21.58    0.43
   7  -2  -2   53.23    0.39
   7   0   2   12.73    0.19
   7   0   5    1.87    0.15
   8  -3  -2    1.63    0.28
   8  -2  -1   -0.07    0.20
   8  -1   1    0.40    0.19
   9  -7  -3    1.26    0.41
  10  -5  -1    2.58    0.42
  10  -4   0   -0.04    0.35
  -8  -7  10   -0.18    0.36
  -8  -6  11    0.27    0.39
  -7  -6   7    0.17    0.22
  -7  -4   8    1.16    0.29
  -7  -3  11    0.17    0.35
  -7  -3  12    0.19    0.33
  -6 -10   5    0.07    0.18
  -6  -3   6    0.34    0.20
  -6  -2  13    6.02    0.44
  -5  -1   6   14.29    0.25
  -5  -1  13    0.77    0.42
  -4   0  12   -0.09    0.35
  -3   0  13    5.47    0.42
  -3   1  10    2.56    0.29
  -2   1  11    2.16    0.26
  -1  -3  -1   16.39    0.07
  -1   2   5   23.50    0.20
  -1   2   8   70.48    0.41
   0  -8  -2   -0.27    0.16
   0  -4  -2   84.13    0.23
   2 -12  -2    0.96    0.28
   2  -4  -3   57.25    0.28
   2   0  -1   24.32    0.12
   2   1  11    0.28    0.26
   4 -11  -3    4.95    0.37
   4   1   9    0.62    0.15
   5  -7  -4   15.17    0.33
   5  -6  -4    0.97    0.17
   5  -1  -2    3.04    0.15
   6  -7  -4    0.95    0.27
   6  -3  -3    0.90    0.20
   6   0   0    0.90    0.13
   7   0   3   10.68    0.20
   8  -5  -3    0.98    0.30
   9  -8  -3    2.80    0.42
   9  -5  -2    4.35    0.39
   9  -2   2    1.44    0.28
  -8  -6  10    1.25    0.36
  -8  -5  11    1.04    0.40
  -7  -5   7    3.75    0.25
  -7  -3   9    0.10    0.27
  -7  -3  10    5.56    0.34
  -7  -3  13   -0.10    0.43
  -6  -4   5   13.78    0.25
  -6  -2   7    1.65    0.23
  -5  -5   3   13.27    0.17
  -5   0   9    0.46    0.22
  -4   0   5   -0.03    0.16
  -3  -1   2    0.22    0.11
  -3   1   5   54.10    0.28
  -3   1  11    1.78    0.30
  -1 -12   0    1.98    0.22
  -1  -9  -1    4.09    0.16
  -1   1  12    0.74    0.29
   0   1  12    0.59    0.32
   0   2   9    0.40    0.21
   2  -8  -3    0.91    0.18
   2   2   8    0.30    0.15
   3 -10  -3    1.30    0.27
   3  -3  -3    8.05    0.16
   3  -1  -2    3.81    0.09
   4  -1  -2    0.90    0.14
   4   0  -1  222.19    0.41
   5 -11  -3    0.05    0.40
   5  -3  -3   26.16    0.26
   7  -4  -3    3.49    0.19
   7   0   4    0.43    0.15
   8  -6  -3    1.42    0.30
   8  -1   5    0.09    0.19
   9  -4  -1    7.00    0.36
   9  -3   0    0.23    0.26
  10  -6  -1   -0.23    0.41
  -8  -7   9    0.14    0.32
  -8  -5  10    0.14    0.37
  -6  -1   9    5.67    0.29
  -6  -1  10    5.05    0.31
  -6  -1  11    5.65    0.35
  -5   0   8   29.49    0.34
  -5   0  10    0.96    0.26
  -5   0  11    2.83    0.35
  -4   0  13    0.06    0.38
  -4   1   8    7.16    0.25
  -4   1   9    0.16    0.24
  -3   0   3   20.34    0.17
  -2   1  12    0.08    0.31
  -2   2   7    0.89    0.19
  -2   2   8    3.70    0.24
  -1   1   2    1.16    0.06
  -1   2   9    1.60    0.22
   0  -7  -2    9.34    0.17
   0  -5  -2    0.97    0.11
   1 -10  -2    1.76    0.21
   1   2   9    0.31    0.20
   2  -7  -3    3.88    0.18
   2  -6  -3   90.72    0.40
   2  -5  -3   46.06    0.27
   3  -9  -3    4.75    0.27
   3   0  -1    2.41    0.09
   3   2   7    2.93    0.13
   4 -10  -3   21.36    0.42
   4  -3  -3   15.46    0.21
   5   1   2    0.45    0.10
   6 -11  -3   -0.55    0.38
   6  -4  -3   13.33    0.26
   6  -2  -2    0.28    0.20
   6  -1  -1   15.03    0.22
   7 -10  -3   18.96    0.56
   7  -5  -3   -0.08    0.25
   7  -1   0    3.71    0.18
   8  -9  -3    4.12    0.40
   8  -8  -3    8.59    0.43
   8  -7  -3    0.29    0.31
   8  -4  -2    0.05    0.28
   8  -2   0    4.54    0.24
   8  -1   3   11.36    0.25
   8  -1   4    4.03    0.23
   9  -6  -2    4.92    0.40
  10  -5   0    0.00    0.38
  -8  -6   9   -0.15    0.31
  -8  -4  11    1.01    0.37
  -8  -4  12    1.16    0.44
  -7  -7   6   -0.01    0.24
  -7  -4   7    1.71    0.22
  -7  -3   8    2.12    0.28
  -7  -2  10    2.73    0.32
  -7  -2  11   -0.25    0.33
  -7  -2  12    0.52    0.37
  -6  -1   8    3.87    0.25
  -6  -1  12    0.15    0.33
  -5  -9   3    0.09    0.10
  -5  -4   3    0.39    0.14
  -5  -2   4    0.36    0.15
  -5  -1   5    8.61    0.21
  -5   0   7   25.49    0.31
  -5   0  12    2.13    0.37
  -4  -3   2   21.94    0.15
  -4   1   7    7.58    0.24
  -4   1  10    7.45    0.31
  -3   1  12   -0.16    0.35
  -2   1   3    9.29    0.10
  -2   2   6    2.99    0.18
  -2   2   9    0.02    0.20
  -1   2   4    2.03    0.12
   0 -11  -1    0.45    0.20
   0  -6  -2    7.66    0.13
   0   2   3   10.59    0.11
   0   2  10    9.28    0.29
   2 -11  -2    0.85    0.29
   3 -12  -2    6.59    0.37
   3  -4  -3   86.76    0.36
   5 -10  -3    4.76    0.36
   6 -10  -3    7.98    0.43
   7  -9  -3    0.10    0.36
   7  -6  -3   14.09    0.34
   7  -3  -2   96.51    0.51
   7  -2  -1   14.21    0.26
   8  -3  -1    0.35    0.24
   9  -8  -2    0.39    0.39
   9  -7  -2   15.45    0.51
   9  -3   1    1.75    0.30
  -8  -5   9    1.63    0.33
  -8  -4  10    2.56    0.35
  -7  -8   6    4.10    0.25
  -7  -6   6    0.27    0.20
  -7  -2   9   19.62    0.38
  -7  -2  13    4.10    0.48
  -6  -3   5    2.92    0.19
  -6  -2   6    0.52    0.20
  -6  -1  13   -0.47    0.38
  -5   0  13    0.82    0.43
  -4   1  11   11.52    0.38
  -2 -12   1    0.77    0.18
  -2   2   5    1.11    0.14
  -1   2  10    2.99    0.23
   1 -12  -1    0.98    0.30
   2   2   9    0.74    0.18
   3  -8  -3   12.64    0.27
   4  -9  -3   21.99    0.37
   4  -4  -3    8.13    0.20
   4   1   1   91.84    0.22
   5  -4  -3   25.34    0.29
   5  -2  -2   10.22    0.19
   6  -9  -3    1.78    0.35
   6  -5  -3   19.19    0.30
   7  -8  -3   14.33    0.37
   7  -7  -3    0.02    0.27
   8  -5  -2    9.52    0.34
   9  -5  -1    0.94    0.33
   9  -4   0    5.92    0.33
  -8  -8   8    0.27    0.28
  -8  -7   8    0.60    0.28
  -8  -6   8    2.60    0.33
  -8  -3  12    3.70    0.44
  -7  -9   6    0.13    0.23
  -7  -5   6    3.62    0.23
  -7  -3   7    0.13    0.23
  -6  -7   4    1.66    0.17
  -6  -6   4   -0.14    0.16
  -6  -1   7   28.29    0.32
  -5   0   6    0.45    0.20
  -4  -1   3    7.09    0.14
  -4   0   4    1.28    0.14
  -4   1   6    9.24    0.21
  -4   1  12    7.24    0.39
  -3   1   4    8.05    0.13
  -3   2   7   17.66    0.27
  -3   2   8   53.29    0.40
  -3   2   9   19.80    0.35
  -2  -9   0    1.38    0.12
  -2   2  10    5.38    0.28
  -1  -8  -1    0.47    0.14
   1  -9  -2    2.89    0.19
   1  -3  -2   68.75    0.22
   1   2  10    1.89    0.24
   2  -2  -2   22.06    0.15
   3  -7  -3   13.44    0.25
   3  -6  -3    2.55    0.20
   3  -5  -3   10.45    0.20
   4 -12  -2    3.82    0.39
   4  -8  -3    0.24    0.24
   4  -5  -3   77.78    0.40
   5  -9  -3    1.30    0.28
   5  -8  -3   15.65    0.33
   5  -5  -3    9.88    0.25
   5   0   0    2.92    0.13
   6  -8  -3   16.65    0.38
   6  -7  -3    1.20    0.26
   6  -6  -3    3.25    0.25
   7  -4  -2    1.93    0.24
   7  -1   1    2.53    0.19
   8 -10  -2    0.14    0.42
   8  -6  -2    0.16    0.32
   8  -2   1    9.80    0.26
   9  -6  -1    0.57    0.35
   9  -3   2    2.14    0.32
  -8  -4   9   -0.31    0.31
  -8  -3  10    0.05    0.32
  -8  -3  11    4.38    0.39
  -7  -2   8    6.62    0.31
  -7  -1  11    7.70    0.37
  -6  -5   4    3.29    0.17
  -6   0   9   11.14    0.32
  -6   0  10    9.66    0.35
  -6   0  11    0.17    0.32
  -6   0  12    4.35    0.38
  -5  -3   3    8.28    0.17
  -5   1   9    6.21    0.29
  -5   1  10    3.05    0.30
  -3 -12   2    1.18    0.14
  -3   2  10    1.46    0.27
  -2   2  11    2.19    0.30
  -1   2  11    6.18    0.31
   0   1   1  623.50    0.32
   0   2  11   10.04    0.36
   2 -10  -2   14.98    0.28
   3 -11  -2    0.38    0.29
   3  -2  -2  127.47    0.34
   3   2   8    1.97    0.14
   4  -7  -3    0.11    0.22
   4  -6  -3    1.02    0.23
   4  -2  -2    1.26    0.14
   5  -7  -3    6.20    0.27
   5  -6  -3    1.15    0.20
   5  -1  -1    5.34    0.15
   6  -3  -2   11.01    0.25
   8  -9  -2    5.46    0.44
   8  -8  -2   13.45    0.44
   8  -7  -2    3.02    0.33
   8  -4  -1   15.48    0.35
   8  -3   0    8.67    0.26
   9  -7  -1    1.72    0.39
  -8  -5   8    5.01    0.29
  -7  -4   6   13.52    0.26
  -7  -1   9    0.38    0.26
  -7  -1  10    4.21    0.32
  -7  -1  12    4.71    0.40
  -6  -8   4    2.42    0.16
  -6  -2   5    2.31    0.20
  -6  -1   6   19.54    0.29
  -6   0   8    4.54    0.26
  -6   0  13   -0.22    0.42
  -5   1   8    6.30    0.26
  -5   1  11    2.89    0.35
  -4   1   5   74.29    0.35
  -4   1  13    1.51    0.44
  -3  -2   1   10.82    0.10
  -3   2   6    6.18    0.20
  -1 -11   0    0.38    0.19
   0 -10  -1    1.70    0.20
   1  -8  -2    9.15    0.19
   4 -11  -2    0.80    0.34
   5 -11  -2    6.84    0.36
   5   1   3    0.13    0.10
   6 -11  -2    2.93    0.44
   6  -2  -1   -0.05    0.18
   6  -1   0   25.12    0.23
   7 -10  -2    2.47    0.43
   7  -5  -2    2.89    0.26
   7  -3  -1    5.43    0.24
   7  -2   0   13.47    0.26
   8  -2   2    0.16    0.24
   9  -8  -1    0.17    0.42
   9  -5   0    4.09    0.34
   9  -4   1    5.34    0.32
   9  -3   3    0.25    0.28
  -8  -4   8    0.04    0.27
  -8  -3   9    0.14    0.33
  -8  -2  11    0.31    0.40
  -8  -2  12    3.27    0.45
  -7  -2   7    1.65    0.25
  -6  -4   4    7.81    0.16
  -5  -1   4    6.89    0.18
  -5   0   5   45.37    0.32
  -5   1   7   63.07    0.42
  -5   1  12   -0.01    0.39
  -4  -2   2    7.58    0.12
  -4   2   8   18.12    0.31
  -4   2   9    0.17    0.26
  -3   2  11    0.22    0.29
  -2   2   4  106.52    0.33
  -2   2  12    4.94    0.38
  -1  -7  -1   55.26    0.24
  -1   2   3    4.95    0.10
  -1   2  12    0.17    0.34
   1 -11  -1    0.44    0.24
   1  -7  -2   42.20    0.28
   1  -4  -2  114.84    0.30
   1   2  11    2.39    0.26
   2 -12  -1   10.03    0.37
   2  -9  -2    6.63    0.24
   2   2  10    3.02    0.23
   3 -10  -2   14.06    0.34
   5  -3  -2   71.51    0.36
   6 -10  -2    2.45    0.37
   6  -4  -2    0.21    0.20
   6   0   2    1.76    0.13
   7  -9  -2    0.89    0.33
   7  -8  -2    4.14    0.34
   7  -7  -2    5.17    0.29
   7  -6  -2   32.92    0.40
   8  -5  -1    0.04    0.28
   9  -6   0   -0.06    0.31
  -8  -7   7   -0.23    0.30
  -8  -6   7    5.75    0.31
  -8  -2  10    0.36    0.36
  -7  -3   6    5.55    0.23
  -7  -1   8    1.08    0.28
  -6   0   7   13.62    0.27
  -4   2   7   23.24    0.31
  -4   2  10    1.50    0.26
  -4   2  11   -0.03    0.30
  -3   2   5    6.68    0.19
  -3   2  12   -0.23    0.34
  -1  -4  -1   29.15    0.11
  -1   3   7    0.07    0.16
  -1   3   8   26.36    0.31
   0 -12   0    3.50    0.26
   0   3   6   23.06    0.22
   0   3   7    0.57    0.16
   1  -6  -2   30.65    0.23
   1  -5  -2    3.20    0.15
   1  -1  -1    1.73    0.06
   2  -3  -2    8.25    0.14
   4 -10  -2   13.69    0.34
   4  -1  -1    1.59    0.13
   5 -10  -2    5.85    0.36
   6  -9  -2    3.27    0.32
   6  -5  -2    8.18    0.24
   8 -10  -1    1.96    0.44
   8  -6  -1   -0.19    0.30
   8  -4   0   23.77    0.37
   8  -3   1    5.54    0.29
   9  -7   0    0.05    0.35
   9  -5   1   17.69    0.45
   9  -4   2   13.54    0.37
  -8  -8   7    0.64    0.28
  -8  -5   7    0.02    0.24
  -8  -3   8    0.19    0.29
  -8  -2   9   -0.04    0.32
  -7  -6   5    1.02    0.22
  -7   0  10    2.80    0.33
  -7   0  11    0.28    0.37
  -7   0  12    0.87    0.41
  -6  -9   4    0.64    0.14
  -6  -3   4   48.84    0.30
  -6   1   9    2.57    0.29
  -6   1  10   13.38    0.38
  -6   1  11    9.96    0.43
  -5  -2   3   19.87    0.19
  -5   1   6   33.71    0.32
  -3   0   2    0.32    0.10
  -3   1   3    5.81    0.14
  -2   3   7   28.95    0.30
  -2   3   8    5.11    0.22
  -1  -6  -1    2.85    0.11
  -1   3   6    0.41    0.15
  -1   3   9   15.13    0.30
   0   3   8   13.76    0.22
   1   3   6    5.13    0.15
   1   3   7    4.47    0.17
   2  -8  -2   21.36    0.28
   3 -12  -1    1.60    0.34
   3  -9  -2    0.30    0.21
   3  -3  -2  345.00    0.58
   4  -3  -2    5.85    0.16
   5  -9  -2    2.21    0.31
   5  -4  -2    4.10    0.20
   6  -8  -2   18.98    0.37
   6  -7  -2    0.29    0.24
   6  -6  -2    6.41    0.28
   7 -11  -1   14.64    0.56
   7  -4  -1    3.06    0.24
   8  -9  -1    5.03    0.42
   8  -8  -1    0.81    0.34
   8  -7  -1   11.09    0.39
   9  -8   0    1.62    0.43
  -9  -4  10    0.35    0.40
  -8  -4   7    0.47    0.30
  -8  -1  11    1.84    0.38
  -8  -1  12    0.42    0.43
  -7  -7   5    0.04    0.18
  -7  -5   5   33.58    0.31
  -7  -2   6   -0.04    0.21
  -7  -1   7    1.81    0.26
  -7   0   9    0.02    0.28
  -6  -1   5    2.89    0.22
  -6   0   6    0.17    0.22
  -6   1   8   -0.16    0.25
  -6   1  12    1.43    0.38
  -5   2   9   22.29    0.38
  -5   2  10    1.92    0.32
  -4   0   3   44.92    0.24
  -4   1   4   29.11    0.23
  -4   2   6    6.62    0.21
  -4   2  12    0.56    0.38
  -3  -9   1    5.25    0.11
  -2   1   2   14.48    0.11
  -2   3   6   73.16    0.36
  -2   3   9   10.51    0.28
  -1  -5  -1   10.68    0.10
  -1   3   5    6.49    0.17
   0  -9  -1    1.25    0.14
   0  -2  -1  225.31    0.24
   0   3   5   75.96    0.28
   0   3   9    6.74    0.26
   1   2   2    2.95    0.05
   3  -1  -1   59.55    0.22
   3   1   1    6.62    0.08
   3   2   9    1.38    0.16
   4 -12  -1    0.57    0.35
   4  -9  -2    2.56    0.29
   5 -12  -1   -0.02    0.38
   5  -2  -1    1.19    0.16
   5   1   4    6.24    0.10
   6  -3  -1   58.44    0.38
   6   0   3    0.33    0.14
   7 -10  -1    0.94    0.34
   7  -5  -1    8.72    0.28
   7  -3   0    1.66    0.21
   7  -2   1   17.02    0.25
   8  -5   0    1.12    0.28
   8  -2   5    0.23    0.24
   9  -6   1    2.64    0.36
   9  -4   3    6.18    0.34
  -9  -5   9   -0.20    0.36
  -8  -2   8    2.22    0.31
  -8  -1  10    0.96    0.34
  -7  -8   5   -0.03    0.18
  -7  -4   5    1.34    0.19
  -7   0   8    0.36    0.26
  -5   0   4   15.08    0.22
  -5   2   8   62.73    0.47
  -5   2  11    0.38    0.35
  -3   2   4    1.19    0.14
  -3   3   7    6.32    0.25
  -3   3   8    3.52    0.23
  -3   3   9    1.18    0.24
  -2 -11   1    1.21    0.17
  -2  -8   0    4.03    0.11
  -2   0   1   24.87    0.12
  -2   3  10    0.26    0.25
  -1   3  10    1.39    0.23
   1 -10  -1   17.51    0.28
   1   3   5   26.95    0.17
   1   3   8   10.87    0.20
   2 -13   0    6.01    0.38
   2 -11  -1    0.49    0.25
   2  -7  -2   10.11    0.21
   2  -4  -2  132.52    0.36
   2  -1  -1   38.04    0.16
   3  -8  -2    8.32    0.24
   3  -4  -2   26.00    0.21
   4  -8  -2   14.68    0.30
   4  -4  -2    4.06    0.18
   5  -8  -2    1.89    0.20
   5  -7  -2   19.21    0.31
   5  -6  -2   16.52    0.28
   5  -5  -2    8.47    0.19
   5  -1   0   62.05    0.29
   6 -11  -1   10.70    0.46
   6  -2   0   47.81    0.33
   6  -1   1    8.66    0.17
   7  -9  -1   18.59    0.43
   7  -6  -1    7.72    0.28
   8  -4   1    2.77    0.27
   8  -3   2   22.61    0.33
   9  -7   1    0.29    0.38
   9  -5   2    0.41    0.31
  -9  -4   9    0.09    0.34
  -9  -3  10    0.17    0.34
  -8  -3   7    1.31    0.26
  -8  -1   9    0.17    0.34
  -7  -3   5    2.93    0.23
  -6  -2   4    1.11    0.17
  -6   1   7   -0.03    0.22
  -5   1   5   22.47    0.26
  -5   2   7    0.11    0.21
  -5   2  12   -0.08    0.34
  -4  -1   2    3.21    0.13
  -4   2   5   52.98    0.32
  -3   3  10    1.48    0.27
  -2   2   3   55.32    0.23
  -2   3   5   71.81    0.32
  -2   3  11    0.48    0.33
  -1 -10   0    6.47    0.19
   0   2   2   66.02    0.16
   0   3  10    0.79    0.25
   2  -6  -2    1.40    0.16
   2  -5  -2   26.02    0.21
   3 -11  -1    8.11    0.32
   3  -7  -2   53.71    0.37
   3  -5  -2    3.51    0.17
   4 -11  -1    2.89    0.34
   4  -7  -2   23.47    0.31
   4  -6  -2    8.57    0.25
   4  -5  -2    9.35    0.21
   4   1   2   86.42    0.21
   5 -11  -1    7.53    0.40
   6 -10  -1    0.69    0.34
   6  -4  -1  146.34    0.57
   7  -8  -1    5.99    0.33
   7  -7  -1   14.17    0.34
   7  -1   4    0.19    0.16
   8 -10   0    0.53    0.42
   8  -9   0    3.94    0.36
   8  -7   0    9.76    0.37
   8  -6   0    0.01    0.28
   9  -8   1    7.39    0.45
  -9  -6   8    2.10    0.37
  -9  -3   9    0.00    0.31
  -8   0  11    0.69    0.38
  -7  -1   6    5.22    0.26
  -7   0   7    2.94    0.27
  -7   1   9    6.68    0.32
  -7   1  10    0.53    0.33
  -7   1  11    3.32    0.36
  -7   1  12    0.51    0.44
  -6   0   5    0.60    0.21
  -6   2  10    1.41    0.34
  -6   2  11    0.72    0.35
  -5  -1   3   81.76    0.32
  -4   3   8    8.73    0.29
  -4   3   9    0.42    0.28
  -4   3  10   -0.19    0.29
  -3   3   6   41.58    0.33
  -3   3  11    9.85    0.38
  -2  -2   0    0.19    0.04
  -1   3  11    2.16    0.32
   0 -11   0    2.66    0.23
   0  -8  -1   13.69    0.17
   0   3   4   25.14    0.17
   1 -12   0    2.43    0.26
   1   3   9   25.83    0.30
   3 -13   0    0.15    0.35
   3  -6  -2   -0.01    0.18
   4  -2  -1    0.43    0.13
   5  -3  -1   10.13    0.20
   5   1   5   12.75    0.13
   5   1   6    9.35    0.12
   6   0   4    0.72    0.13
   6   0   7    4.78    0.16
   7 -11   0    0.29    0.35
   7  -4   0    0.06    0.23
   7  -2   2    3.43    0.22
   7  -1   5    0.52    0.19
   7  -1   6    0.89    0.20
   8  -8   0    8.17    0.37
   8  -3   3    1.68    0.25
   9  -6   2    0.32    0.37
   9  -5   3    0.54    0.34
  -9  -5   8    0.27    0.31
  -9  -2  10    1.81    0.38
  -8  -7   6    0.38    0.24
  -8  -6   6    1.87    0.23
  -8  -5   6    0.02    0.21
  -8  -2   7    0.15    0.27
  -8  -1   8    0.75    0.30
  -8   0  10    3.42    0.35
  -6   1   6   -0.12    0.20
  -6   2   9    2.12    0.28
  -6   2  12    0.03    0.42
  -5  -5   2   18.18    0.15
  -5   2   6   16.13    0.27
  -4   3   7    9.78    0.27
  -4   3  11    1.04    0.36
  -3  -1   1    0.78    0.08
  -1 -12   1   -0.04    0.23
  -1   3   4   54.26    0.24
   0 -13   1    0.29    0.26
   1  -9  -1    7.36    0.22
   2 -10  -1   13.20    0.29
   5 -10  -1    8.97    0.36
   6 -12   0    7.42    0.49
   6  -9  -1   17.64    0.33
   6  -8  -1    2.53    0.27
   6  -5  -1   33.81    0.32
   6   0   5   11.62    0.19
   7  -3   1    0.53    0.20
   8  -5   1    6.37    0.31
   8  -4   2    0.15    0.30
   9  -8   2    7.93    0.48
   9  -7   2    1.16    0.38
  -9  -4   8    0.21    0.32
  -9  -2   9    1.16    0.36
  -8  -4   6    1.08    0.22
  -8   0   9   -0.04    0.36
  -7  -9   5    0.14    0.17
  -7  -2   5    3.06    0.21
  -7   1   8    7.60    0.31
  -6  -1   4    0.41    0.18
  -6   2   8    0.27    0.19
  -5  -4   2    0.08    0.10
  -5   3   9    6.64    0.30
  -5   3  10    0.40    0.29
  -4   1   3   99.45    0.34
  -4   3  12    1.76    0.36
  -3   3   5   17.33    0.23
   0   3  11    2.11    0.30
   1   3   4   19.91    0.13
   2 -12   0    8.46    0.32
   2   3   6    2.97    0.10
   2   3   7    0.96    0.12
   3 -10  -1   28.65    0.37
   4 -10  -1    0.05    0.26
   5 -12   0    0.26    0.38
   5  -9  -1   13.55    0.34
   6  -7  -1    0.10    0.25
   6  -6  -1    0.62    0.16
   6  -3   0   21.73    0.27
   6   0   6   24.29    0.23
   7 -10   0   12.30    0.43
   7  -5   0    0.28    0.24
   8 -10   1    1.99    0.44
   8  -6   1    1.10    0.32
   8  -3   4    0.27    0.26
   9  -6   3    0.28    0.35
  -9  -3   8    0.21    0.32
  -9  -1  10    2.52    0.43
  -8  -8   6    0.47    0.23
  -8  -3   6    4.35    0.25
  -8  -1   7   10.68    0.33
  -8   0   8    1.00    0.29
  -8   1  11   -0.04    0.38
  -7   0   6    0.16    0.23
  -7   2  11    2.71    0.38
  -6  -6   3    0.06    0.13
  -6  -5   3   -0.08    0.14
  -6  -4   3   18.38    0.20
  -6   2   7    2.02    0.25
  -5  -6   2    0.15    0.08
  -5   1   4    0.45    0.17
  -5   3   8   13.76    0.32
  -5   3  11    0.39    0.36
  -4   2   4  163.07    0.48
  -4   3   6  173.83    0.60
  -3   2   3   86.62    0.30
  -2  -7   0    2.20    0.10
  -2   3   4    3.11    0.14
  -1   1   1    1.72    0.07
  -1   2   2    9.66    0.10
   0  -7  -1   40.74    0.23
   1   3  10    2.23    0.23
   2  -9  -1    0.92    0.19
   2   3   8   12.45    0.19
   3 -12   0    2.13    0.32
   3  -2  -1   18.00    0.16
   4 -12   0    0.82    0.35
   4  -9  -1    9.64    0.29
   5  -8  -1    1.08    0.24
   5  -4  -1    0.43    0.17
   5   0   2   30.02    0.20
   6 -11   0    6.71    0.42
   6  -2   1    6.65    0.22
   7  -9   0   23.63    0.45
   7  -8   0    3.01    0.32
   7  -7   0    6.97    0.31
   7  -6   0    3.09    0.28
   7  -2   3    1.76    0.21
   8  -9   1    0.06    0.39
   8  -8   1    6.26    0.40
   8  -7   1    7.74    0.36
   8  -3   5    1.22    0.31
   9  -7   3    4.33    0.42
  -9  -1   9    0.40    0.34
  -8   1  10    1.02    0.39
  -7  -1   5    7.28    0.23
  -7   1   7    1.37    0.24
  -7   2   9    5.38    0.34
  -7   2  10    2.21    0.33
  -6  -3   3   25.66    0.23
  -6   1   5    4.43    0.23
  -5  -3   2    0.72    0.12
  -5   0   3    1.75    0.15
  -5   2   5    1.64    0.20
  -5   3   7    0.23    0.23
  -4  -4   1   64.66    0.17
  -3 -11   2    0.20    0.15
  -3   1   2    4.20    0.12
  -2   4   8    2.72    0.22
  -1  -9   0    4.51    0.17
   0  -3  -1    3.61    0.08
   1 -13   1   12.28    0.35
   1 -11   0    9.28    0.25
   1  -8  -1    0.09    0.15
   1  -2  -1  522.00    0.46
   2   3   5   19.79    0.12
   3  -9  -1    2.79    0.23
   4  -3  -1   39.18    0.24
   4  -1   0   28.65    0.19
   5 -11   0    3.09    0.36
   5  -7  -1    0.15    0.22
   5  -6  -1   53.45    0.38
   5  -5  -1    3.74    0.22
   5  -2   0   41.30    0.26
   6 -10   0    1.83    0.35
   7 -11   1    2.61    0.40
   7  -4   1   11.55    0.26
   8  -5   2    6.66    0.30
   8  -4   3    3.73    0.27
  -9  -6   7   -0.08    0.31
  -9  -5   7    0.42    0.27
  -9  -4   7    1.44    0.33
  -9  -2   8    0.92    0.34
  -9   0  10    0.82    0.39
  -8  -2   6    3.35    0.25
  -8   1   9    0.18    0.32
  -7  -5   4   20.14    0.24
  -7  -4   4    1.94    0.20
  -6   0   4    6.71    0.22
  -6   2   6    7.24    0.25
  -6   3   9    7.25    0.38
  -6   3  10    0.72    0.35
  -6   3  11    0.93    0.40
  -4  -5   1    4.24    0.06
  -4   0   2   37.82    0.21
  -4   3   5   46.69    0.33
  -3   4   7   10.07    0.27
  -3   4   8    1.98    0.22
  -3   4   9    0.59    0.25
  -3   4  10    7.97    0.36
  -2   4   7    1.70    0.19
  -2   4   9   14.25    0.31
  -2   4  10    5.01    0.34
  -1   4   7   10.83    0.20
  -1   4   8    0.07    0.18
  -1   4   9    2.46    0.25
   0 -10   0    2.49    0.18
   0  -6  -1    2.40    0.12
   2  -2  -1    0.45    0.08
   4 -11   0   15.18    0.41
   4  -8  -1   12.45    0.28
   5  -1   1   11.75    0.16
   6 -12   1   19.44    0.55
   6  -9   0   22.22    0.39
   6  -4   0  118.58    0.51
   7  -3   2    3.90    0.20
   8 -10   2    8.79    0.45
   8  -6   2   15.11    0.38
  -9  -3   7    2.07    0.31
  -8   0   7    0.99    0.27
  -8   1   8    0.33    0.29
  -7  -6   4   -0.03    0.16
  -7  -3   4   -0.21    0.16
  -7   1   6   14.75    0.31
  -7   2   8   -0.06    0.19
  -6  -2   3   20.26    0.23
  -6   3   8   15.66    0.35
  -5  -2   2   81.33    0.30
  -5   3   6   28.00    0.32
  -4  -3   1   17.77    0.12
  -4   4   8   -0.04    0.25
  -4   4   9    7.36    0.32
  -4   4  10    6.35    0.35
  -3   3   4    0.69    0.15
  -2 -10   1    1.99    0.14
  -2   4   6    0.82    0.16
  -1 -13   2    3.00    0.27
  -1   3   3   11.29    0.13
  -1   4   6    4.42    0.16
   0 -12   1    2.74    0.24
   0  -5  -1   20.43    0.16
   0  -4  -1    6.49    0.11
   0   3   3   65.77    0.21
   0   4   7   49.52    0.31
   1  -7  -1  140.31    0.43
   2 -13   1    0.30    0.32
   2 -11   0   12.27    0.32
   2  -8  -1   16.71    0.24
   2   3   9    0.65    0.16
   3 -13   1    1.35    0.35
   3 -11   0   14.97    0.34
   3  -8  -1    3.02    0.22
   3  -3  -1  214.54    0.44
   4 -13   1    0.13    0.36
   4  -7  -1    0.39    0.22
   4  -5  -1    7.65    0.19
   4  -4  -1    1.68    0.15
   5 -10   0    1.27    0.31
   6  -8   0    0.61    0.26
   6  -5   0   24.22    0.31
   7 -10   1    3.58    0.36
   7  -5   1   12.90    0.30
   8  -9   2   -0.05    0.41
   8  -8   2    0.35    0.37
   8  -7   2    6.62    0.37
   8  -5   3   -0.18    0.27
   8  -4   4    8.35    0.33
  -9  -1   8    0.02    0.30
  -9   0   9    0.17    0.39
  -8  -1   6    1.83    0.28
  -8   2  10    1.06    0.39
  -8   2  11    0.99    0.44
  -7  -2   4    6.53    0.22
  -7   0   5   25.07    0.32
  -7   2   7    0.45    0.25
  -6  -7   3    4.19    0.12
  -6   3   7    0.90    0.24
  -4  -9   2    0.55    0.09
  -4   4   7   10.91    0.28
  -4   4  11    0.19    0.34
  -3   4   6   38.81    0.33
  -3   4  11    1.85    0.35
  -2 -12   2    0.25    0.20
  -2   2   2   21.00    0.13
  -2   4  11    0.65    0.31
  -1 -11   1   -0.08    0.20
  -1   4  10    2.35    0.25
   0   4   6   17.16    0.20
   0   4   8    3.57    0.20
   2  -7  -1    2.18    0.20
   3  -7  -1    6.25    0.22
   4  -6  -1    1.79    0.14
   5 -12   1    3.46    0.41
   5  -3   0   31.38    0.26
   6 -11   1    5.83    0.41
   6  -7   0   55.25    0.45
   6  -6   0    3.41    0.22
   6  -3   1   21.64    0.26
   7  -9   1   -0.04    0.22
   7  -8   1    2.69    0.32
   7  -7   1    0.38    0.28
   7  -6   1    8.81    0.30
   8  -4   5    5.50    0.33
  -9  -2   7    2.14    0.31
  -9   1  10   -0.28    0.42
  -8  -6   5    5.17    0.25
  -8  -5   5    0.17    0.20
  -8  -4   5    0.37    0.20
  -8  -3   5    0.02    0.24
  -8   2   9    0.39    0.35
  -7  -7   4    3.94    0.17
  -7   3   9    1.00    0.32
  -7   3  10    2.78    0.36
  -7   3  11    1.43    0.43
  -6   2   5   29.65    0.32
  -5   2   4    1.11    0.17
  -5   4   8    2.52    0.28
  -5   4   9   -0.16    0.32
  -5   4  10    1.64    0.30
  -5   4  11    1.24    0.40
  -4   2   3   33.34    0.24
  -2   3   3    4.98    0.14
  -2   4   5    6.93    0.18
  -1   4   5   10.38    0.17
   0   4   9    0.15    0.21
   1 -12   1    1.30    0.29
   1 -10   0   36.47    0.34
   1  -6  -1    4.51    0.14
   1  -3  -1  274.45    0.38
   2  -3  -1   73.97    0.25
   3  -6  -1   81.00    0.38
   3  -5  -1   12.99    0.19
   3  -4  -1    0.40    0.13
   4 -12   1    0.35    0.35
   4 -10   0    2.24    0.28
   5  -9   0   10.81    0.32
   6  -2   2   16.13    0.21
   7 -11   2    0.17    0.41
   7  -4   2    0.21    0.21
   7  -3   3   14.23    0.27
   7  -2   6    6.76    0.28
   8  -6   3   34.19    0.48
   8  -5   4    1.06    0.31
  -9  -1   7    8.15    0.37
  -9   0   8   -0.18    0.35
  -9   1   9    2.68    0.38
  -8  -2   5    0.47    0.25
  -8   0   6    2.23    0.29
  -8   1   7   -0.31    0.27
  -7  -1   4    0.40    0.21
  -7   3   8    0.29    0.28
  -6  -1   3    1.83    0.16
  -6   1   4    0.54    0.21
  -5  -1   2    8.09    0.15
  -5   1   3    0.16    0.15
  -5   3   5    1.47    0.21
  -5   4   7   10.10    0.31
  -4  -2   1   11.11    0.12
  -4   3   4   11.80    0.21
  -4   4   6   20.84    0.30
  -3  -8   1    0.61    0.08
  -3   0   1    2.56    0.09
  -3   4   5   42.07    0.31
  -2  -6   0    0.31    0.08
  -2   1   1   37.00    0.16
  -1  -8   0   -0.01    0.13
   0  -9   0   10.39    0.21
   1  -5  -1    8.84    0.14
   1  -4  -1   14.53    0.15
   2 -12   1    2.31    0.30
   2 -10   0    1.22    0.20
   2  -6  -1    9.07    0.18
   2  -4  -1   27.79    0.19
   2   1   1   73.60    0.11
   3 -12   1    1.55    0.33
   3 -10   0    0.60    0.27
   3  -1   0   12.85    0.13
   4  -2   0    0.72    0.13
   4   1   3    0.37    0.08
   5 -13   2    2.70    0.44
   5 -11   1    3.58    0.37
   5  -8   0    0.18    0.23
   5  -4   0   37.46    0.30
   5   0   3   51.79    0.24
   6 -12   2   -0.04    0.41
   6 -10   1   15.01    0.38
   6  -4   1    1.18    0.20
   7 -10   2   10.14    0.44
   7  -5   2   13.07    0.30
   7  -2   7    0.44    0.23
   8  -9   3    3.92    0.44
   8  -8   3    0.43    0.39
   8  -7   3    0.85    0.33
  -8   2   8    0.12    0.29
  -7   1   5   -0.12    0.23
  -7   2   6    0.67    0.24
  -6   3   6    0.02    0.22
  -6   4   9   -0.05    0.33
  -6   4  10    2.78    0.37
  -6   4  11    5.18    0.45
  -4   1   2    0.85    0.13
   0 -13   2    6.13    0.31
   0   4   5    1.24    0.11
   0   4  10    2.25    0.24
   1   3   3    2.46    0.08
   2  -5  -1   61.08    0.27
   4  -9   0    1.29    0.25
   5  -7   0    0.15    0.21
   5  -6   0   42.66    0.35
   5  -5   0   22.01    0.27
   5  -2   1   20.57    0.21
   6  -9   1    9.36    0.33
   6  -1   4   11.46    0.20
   7  -9   2    1.68    0.33
   7  -6   2    1.53    0.25
   7  -3   4    6.47    0.25
   8  -6   4    1.63    0.33
   8  -5   5   15.52    0.40
 -10  -2   8    0.19    0.38
  -9  -5   6    0.48    0.26
  -9  -4   6    0.38    0.25
  -9  -3   6    0.37    0.25
  -9   1   8    4.40    0.39
  -8  -7   5    2.53    0.21
  -8  -1   5    6.87    0.24
  -8   3  10    1.23    0.42
  -7   3   7    0.09    0.28
  -6   0   3    8.08    0.19
  -6   4   8    7.20    0.32
  -5   4   6    8.32    0.27
  -4   4   5    0.51    0.22
  -3   2   2  129.37    0.34
  -3   3   3    8.53    0.13
  -2   4   4   13.25    0.20
  -1   4   4    2.85    0.15
   0 -11   1    4.97    0.22
   1  -9   0    1.82    0.17
   1   4   7    3.49    0.15
   2   3   4   52.23    0.13
   3  -9   0    4.96    0.25
   4 -13   2    0.96    0.38
   4 -11   1   21.73    0.41
   4  -8   0   47.47    0.38
   5 -10   1   15.68    0.38
   5  -1   2   -0.09    0.14
   6 -11   2    3.61    0.37
   6  -8   1   17.71    0.35
   6  -7   1   34.07    0.38
   6  -6   1   10.36    0.28
   6  -5   1    0.47    0.22
   7 -11   3    3.77    0.45
   7  -8   2   11.98    0.39
   7  -7   2    1.31    0.28
   7  -4   3    3.47    0.23
   8  -9   4    9.56    0.49
   8  -8   4   -0.17    0.33
   8  -7   4    1.91    0.37
   8  -5   6    8.01    0.42
  -9  -6   6   -0.04    0.25
  -9  -2   6    1.15    0.28
  -9   0   7    0.18    0.29
  -9   2   9    1.11    0.40
  -8   1   6    7.17    0.28
  -8   2   7    7.94    0.36
  -8   3   9    0.86    0.34
  -7   0   4    8.90    0.24
  -7   4   9   -0.02    0.33
  -7   4  10    1.33    0.43
  -6   2   4   59.55    0.39
  -6   4   7    2.09    0.25
  -5   0   2    0.04    0.15
  -5   3   4   29.30    0.29
  -4 -11   3    2.45    0.15
  -4   5   8    0.16    0.26
  -4   5   9    3.97    0.31
  -4   5  10    0.08    0.31
  -3   5   7    9.57    0.26
  -3   5   8   18.78    0.34
  -3   5   9   -0.32    0.26
  -3   5  10    0.02    0.31
  -2   5   8   15.73    0.31
  -2   5   9    0.34    0.27
  -1 -12   2    0.71    0.24
   1 -13   2    6.89    0.33
   1   4   6   35.00    0.22
   1   4   8    1.19    0.15
   2 -13   2   -0.17    0.32
   2  -9   0    7.27    0.23
   3 -13   2    1.33    0.38
   3 -11   1    0.78    0.26
   4  -3   0   18.61    0.20
   4  -1   1    9.25    0.15
   5 -12   2    9.92    0.41
   6  -3   2   41.24    0.31
   6  -2   3    0.44    0.15
   6  -1   5   38.27    0.30
   7 -10   3    0.23    0.33
   7  -3   5   -0.09    0.23
   8  -6   5    0.62    0.33
 -10  -1   8   12.67    0.47
  -9  -1   6    1.66    0.29
  -8   0   5   24.43    0.36
  -8   3   8    1.10    0.34
  -7   2   5    2.39    0.25
  -7   3   6    1.64    0.25
  -7   4   8    0.68    0.28
  -6   3   5    5.60    0.18
  -5   2   3    9.20    0.19
  -5   5   9    6.23    0.36
  -5   5  10    2.21    0.39
  -4  -1   1   19.17    0.14
  -4   5   7    2.42    0.27
  -3 -12   3    0.32    0.21
  -3   4   4  115.60    0.42
  -2  -9   1    2.04    0.15
  -2   5   7    3.69    0.20
  -2   5  10    2.51    0.32
  -1 -10   1    0.33    0.15
  -1  -7   0   42.07    0.21
   0  -8   0    2.15    0.16
   1 -11   1   19.47    0.31
   1   4   9    0.69    0.18
   2 -11   1   11.28    0.31
   3  -8   0    5.12    0.24
   4  -7   0    8.98    0.24
   4  -4   0   76.40    0.34
   5 -13   3    2.81    0.42
   5  -9   1   11.99    0.30
   5  -3   1    0.19    0.17
   6 -12   3    1.69    0.41
   6 -10   2   27.85    0.47
   6  -1   8    0.66    0.21
   7  -9   3    1.57    0.33
   7  -5   3    5.04    0.27
   7  -4   4   37.00    0.42
   8  -8   5    0.05    0.43
   8  -7   5    0.20    0.38
   8  -6   6    0.04    0.39
 -10  -3   7    0.42    0.33
 -10   0   8    0.03    0.40
  -9   1   7    4.60    0.37
  -9   2   8    0.08    0.38
  -8   2   6   14.50    0.33
  -7  -8   4    0.65    0.12
  -7   1   4   -0.15    0.20
  -6   1   3   10.82    0.22
  -6   4   6   11.35    0.30
  -6   5  10    4.21    0.38
  -5   4   5    0.89    0.21
  -5   5   8   14.51    0.36
  -4   3   3   14.93    0.20
  -3   5   6    4.43    0.22
  -2 -11   2   -0.01    0.19
  -2   5   6    4.76    0.19
  -1   5   7   12.92    0.26
  -1   5   8    2.44    0.24
   0   4   4    2.58    0.12
   1  -8   0   33.20    0.29
   2  -8   0   17.60    0.27
   3  -2   0    5.54    0.12
   4 -12   2    8.84    0.40
   4 -10   1    3.53    0.27
   4  -6   0   -0.11    0.13
   4  -5   0   -0.02    0.17
   5 -11   2    0.05    0.35
   5  -8   1    0.25    0.24
   5   0   4   35.55    0.22
   6  -9   2    0.19    0.28
   6  -4   2   11.03    0.24
   6  -1   6   10.54    0.21
   6  -1   7    1.95    0.20
   7 -11   4    6.75    0.47
   7  -8   3   14.79    0.41
   7  -7   3    0.36    0.29
   7  -6   3    0.38    0.28
   7  -3   6    4.27    0.24
 -10  -2   7    5.55    0.39
  -9   0   6   11.26    0.36
  -9   3   9    0.21    0.38
  -8  -8   5   -0.10    0.17
  -8  -3   4    0.99    0.22
  -8   1   5    0.23    0.25
  -8   3   7   10.93    0.37
  -8   4   9    4.52    0.38
  -7  -4   3    0.25    0.14
  -7  -3   3    3.08    0.18
  -7  -2   3    9.66    0.22
  -7   4   7    3.00    0.30
  -6   5   8    0.50    0.31
  -6   5   9    8.34    0.39
  -5   5   7   29.27    0.39
  -4   2   2    1.69    0.13
  -4   4   4   21.67    0.25
  -4   5   6    8.88    0.27
  -3 -10   2    7.06    0.17
  -3   1   1   59.89    0.22
  -2  -5   0    3.07    0.07
  -2  -1   0  165.10    0.18
  -2   3   2    9.07    0.14
  -1   3   2   68.58    0.22
  -1   5   6   25.35    0.27
  -1   5   9    0.48    0.23
   0 -12   2    3.62    0.28
   1   4   5   30.42    0.19
   2  -1   0   36.98    0.15
   3 -12   2   13.51    0.39
   3 -10   1   -0.04    0.26
   3  -7   0    4.65    0.22
   3   1   2    1.12    0.07
   4 -13   3    0.84    0.42
   5  -7   1    1.31    0.22
   5  -4   1  107.37    0.44
   6 -11   3   13.31    0.45
   6  -8   2    1.06    0.25
   6  -5   2    9.00    0.26
   6  -2   4   -0.11    0.19
   7 -10   4    0.17    0.35
   7  -5   4    2.82    0.28
 -10  -1   7    0.94    0.36
 -10   1   8    0.07    0.42
  -9   2   7   -0.07    0.34
  -8  -4   4   -0.14    0.21
  -8  -2   4    1.61    0.20
  -7  -1   3    3.98    0.21
  -7   3   5    1.59    0.23
  -6  -3   2    0.94    0.14
  -6  -2   2    6.42    0.16
  -6   3   4   18.56    0.28
  -5   1   2    2.77    0.15
  -5   5   6    7.53    0.29
  -4   0   1  222.52    0.42
  -3   5   5   37.37    0.32
  -2   4   3   57.58    0.27
  -2   5   5   18.19    0.23
  -1 -13   3    1.84    0.32
  -1   5  10   -0.03    0.28
   0 -10   1   32.23    0.31
   1 -12   2    6.18    0.29
   2 -12   2    7.18    0.32
   2 -10   1    0.19    0.23
   3  -6   0   11.60    0.20
   4 -11   2    0.62    0.29
   4  -9   1    8.09    0.28
   5 -12   3   14.21    0.48
   5 -10   2   12.03    0.35
   5  -6   1   60.77    0.40
   5  -5   1   46.54    0.34
   5  -2   2   -0.10    0.14
   6 -12   4    0.15    0.43
   6 -10   3    6.02    0.34
   6  -7   2    0.85    0.24
   6  -6   2    0.65    0.23
   6  -3   3   11.44    0.22
   7  -9   4    0.47    0.38
   7  -6   4    7.15    0.32
   7  -4   5    6.11    0.27
 -10   0   7    0.18    0.38
  -9  -4   5    0.27    0.27
  -9  -3   5    0.00    0.23
  -9  -2   5    0.07    0.28
  -9   1   6    3.74    0.34
  -9   3   8    0.59    0.38
  -8  -5   4    1.39    0.20
  -8  -1   4    0.92    0.20
  -8   3   6    1.03    0.28
  -8   4   8    1.64    0.34
  -7  -5   3    4.04    0.16
  -7   2   4   20.88    0.31
  -7   4   6   12.90    0.33
  -7   5   9   10.55    0.46
  -6  -4   2   56.68    0.25
  -6   4   5    1.91    0.23
  -6   5   7   -0.04    0.25
  -5   3   3   27.40    0.27
  -5   4   4    4.34    0.22
  -4   5   5    0.83    0.23
  -3   3   2  343.57    0.58
  -3   4   3   89.53    0.36
  -1   2   1  530.67    0.46
  -1   4   3   79.54    0.28
   0  -7   0    5.68    0.14
   0   3   2   14.68    0.11
   1 -10   1    1.44    0.19
   2  -7   0    0.32    0.17
   3 -13   3    0.47    0.36
   3  -5   0   41.47    0.26
   3  -4   0   24.50    0.20
   3  -3   0   19.08    0.15
   4  -2   1   35.72    0.21
   5 -13   4    3.45    0.48
   5   0   5    3.24    0.15
   7  -8   4   15.52    0.41
   7  -7   4    6.42    0.35
   7  -4   6   -0.05    0.28
  -9  -5   5    2.42    0.24
  -9  -1   5    0.70    0.27
  -8   0   4    1.62    0.22
  -8   2   5   11.76    0.33
  -8   4   7    0.45    0.33
  -7   0   3    5.14    0.21
  -7   5   8    2.69    0.34
  -6  -1   2    0.28    0.14
  -6   2   3    0.25    0.20
  -6   5   6    2.53    0.25
  -4   6   8    2.06    0.31
  -4   6   9    0.48    0.32
  -2   2   1    0.25    0.09
  -1 -11   2    5.42    0.23
  -1  -9   1   24.18    0.23
  -1  -6   0    9.95    0.13
  -1   5   5   21.61    0.20
   0 -13   3    0.41    0.27
   0   5   7    1.14    0.16
   0   5   8   -0.04    0.18
   1  -7   0   25.58    0.22
   2 -13   3    0.41    0.33
   3 -11   2    2.62    0.27
   3  -9   1   23.19    0.32
   4 -12   3    1.86    0.34
   4  -8   1    2.98    0.17
   4   1   4   71.07    0.21
   5 -11   3    3.69    0.33
   5  -9   2    8.46    0.30
   6 -11   4    6.02    0.41
   6  -9   3    1.25    0.30
   6  -4   3    0.99    0.20
   7 -10   5    2.27    0.44
   7  -5   5    2.05    0.28
   7  -4   7   -0.08    0.30
 -10  -3   6    0.00    0.30
 -10  -2   6    1.53    0.36
 -10   1   7    0.27    0.37
 -10   2   8    0.29    0.40
  -9   0   5   12.72    0.34
  -9   2   6    0.10    0.32
  -9   3   7    0.44    0.37
  -8   5   9    0.52    0.45
  -7   5   7    1.22    0.31
  -6   0   2   22.27    0.24
  -5   2   2    9.43    0.19
  -5   5   5   10.61    0.28
  -5   6   8    0.38    0.34
  -5   6   9    0.40    0.33
  -4   4   3    8.38    0.20
  -4   6   7    3.36    0.27
  -3   5   4    0.03    0.18
  -3   6   7    4.11    0.28
  -3   6   8    0.25    0.26
  -3   6   9    2.51    0.31
  -2 -12   3    1.73    0.24
  -2   5   4   34.85    0.28
   0   2   1  218.58    0.24
   0   5   6    0.27    0.14
   0   5   9    4.03    0.24
   1 -13   3    0.19    0.30
   2  -6   0    0.79    0.15
   4 -10   2   10.42    0.32
   4  -7   1   30.18    0.30
   5  -8   2   27.10    0.35
   5  -3   2    1.91    0.17
   6  -8   3    1.11    0.27
   6  -7   3    4.16    0.26
   6  -5   3   26.08    0.33
   6  -3   4    0.27    0.18
   7  -9   5    1.82    0.38
   7  -8   5   -0.27    0.35
   7  -7   5   28.45    0.47
   7  -6   5    2.96    0.30
   7  -5   6    5.72    0.32
 -10  -1   6   -0.13    0.32
  -9   4   8    2.49    0.43
  -8  -6   4    1.88    0.18
  -8   1   4   20.61    0.33
  -8   5   8   -0.02    0.36
  -7   1   3   13.29    0.25
  -7   3   4    8.05    0.28
  -7   4   5   15.47    0.33
  -6   4   4   26.85    0.32
  -6   6   8    3.35    0.37
  -6   6   9    0.13    0.33
  -5   6   7   35.98    0.47
  -4 -12   4   -0.19    0.21
  -4   1   1    1.86    0.12
  -4   3   2    6.82    0.17
  -4   5   4    0.14    0.21
  -3  -7   1    4.45    0.10
  -2  -8   1   27.43    0.21
  -2   6   8    1.21    0.26
   0 -11   2   19.48    0.31
   0  -9   1    0.07    0.17
   0   4   3   46.12    0.20
   1 -11   2    1.90    0.28
   1  -6   0  100.53    0.34
   2 -14   4    1.02    0.35
   2 -11   2    4.99    0.27
   2  -9   1   15.44    0.26
   2  -5   0  116.62    0.35
   2  -2   0    3.49    0.10
   3 -12   3   17.26    0.44
   3  -8   1    7.20    0.25
   4 -13   4    8.89    0.42
   4  -6   1   26.10    0.27
   4  -3   1    1.40    0.10
   5 -12   4    1.16    0.35
   5 -10   3   -0.22    0.29
   5  -7   2    1.89    0.22
   5  -4   2    0.46    0.19
   5   0   6    8.99    0.18
   5   0   8    0.84    0.17
   6 -10   4    0.06    0.32
   6  -6   3   12.54    0.29
   7  -5   7    9.34    0.38
 -10   0   6    0.48    0.35
 -10   2   7    7.74    0.46
  -9  -6   5    0.19    0.23
  -9   1   5    2.58    0.29
  -8   3   5    0.09    0.25
  -8   4   6    0.36    0.28
  -7   5   6    0.34    0.29
  -7   6   9    0.71    0.43
  -6  -5   2   14.41    0.14
  -6   1   2   40.33    0.31
  -6   3   3    0.91    0.19
  -6   5   5    6.51    0.27
  -6   6   7   24.24    0.47
  -5 -11   4    0.04    0.16
  -5  -2   1   40.79    0.20
  -5   6   6    1.34    0.30
  -4   6   6   27.00    0.38
  -3   2   1   18.04    0.14
  -3   6   6   -0.19    0.20
  -2   6   7    0.74    0.20
  -2   6   9    7.26    0.31
  -1   5   4    2.10    0.16
   0  -6   0    2.74    0.12
   1  -9   1    7.96    0.21
   1   4   4    0.19    0.09
   2  -4   0  195.04    0.41
   2  -3   0   21.40    0.15
   3 -10   2    0.23    0.26
   3  -1   1  266.14    0.40
   4 -11   3    9.39    0.36
   4  -9   2    0.30    0.22
   4  -5   1    0.99    0.16
   4  -4   1   81.93    0.32
   4  -1   2   14.55    0.15
   5  -6   2    9.23    0.24
   5  -5   2   92.03    0.46
   5  -2   3    0.51    0.16
   5   0   7    0.42    0.15
   6 -11   5   -0.18    0.37
   6  -9   4   13.77    0.38
   6  -4   4   -0.03    0.19
   6  -2   7    0.22    0.23
   6  -2   8    0.85    0.25
   7  -9   6    0.01    0.40
   7  -8   6   -0.44    0.36
   7  -7   6   14.14    0.43
   7  -6   6    0.77    0.31
 -10   1   6    2.47    0.34
  -9   3   6    1.73    0.32
  -9   4   7    1.11    0.38
  -8   2   4   34.71    0.42
  -8   5   7    1.50    0.37
  -7  -6   3    7.99    0.15
  -7   2   3    1.07    0.21
  -7   6   8    5.79    0.45
  -5  -3   1    4.62    0.10
  -5  -1   1   56.50    0.24
  -5   4   3   24.50    0.24
  -5   5   4   17.50    0.27
  -2 -13   4    0.20    0.28
  -2 -10   2    0.79    0.15
  -2   0   0  398.78    0.35
  -2   6   6    8.38    0.22
  -1 -12   3    2.40    0.27
   0   5   5    0.11    0.13
   2 -12   3    0.87    0.30
   3 -13   4   12.27    0.44
   3  -7   1    6.39    0.20
   4   0   3   13.47    0.14
   5 -11   4   10.72    0.38
   5  -9   3    5.09    0.28
   6  -8   4    5.75    0.30
   6  -5   4    3.13    0.25
   6  -3   5    0.54    0.20
   7  -7   7    3.30    0.39
   7  -6   7   14.20    0.43
 -10   3   7    2.32    0.44
  -9   2   5    3.63    0.34
  -8   4   5   -0.16    0.27
  -7   4   4    4.06    0.24
  -7   6   7    4.18    0.39
  -6   6   6    5.48    0.32
  -5   0   1   14.42    0.16
  -5   3   2   71.78    0.36
  -4   6   5   37.29    0.37
  -3 -11   3    0.30    0.19
  -3   4   2   26.72    0.21
  -3   6   5    0.10    0.20
  -2   4   2  137.53    0.37
  -1  -5   0   68.40    0.20
   0 -12   3    9.59    0.31
   1 -12   3    2.85    0.29
   1  -5   0  372.89    0.55
   2 -10   2    1.90    0.21
   2  -8   1    2.80    0.21
   4 -13   5   10.67    0.45
   4 -12   4    0.01    0.32
   4  -8   2    1.85    0.21
   5 -12   5   10.97    0.44
   5  -8   3    4.63    0.27
   6 -10   5    0.07    0.31
   6  -7   4    1.46    0.27
   6  -6   4    7.04    0.28
   7  -8   7    1.47    0.40
 -10   2   6    0.80    0.37
  -9  -3   4    0.68    0.24
  -9  -2   4    6.13    0.25
  -9  -1   4    6.99    0.28
  -9   0   4    0.87    0.31
  -9   4   6    0.84    0.36
  -8  -2   3    0.42    0.18
  -8  -1   3    0.30    0.20
  -8   0   3    0.14    0.23
  -8   3   4    2.83    0.26
  -8   5   6    3.10    0.35
  -8   6   8    1.98    0.45
  -7   5   5    3.78    0.22
  -6   2   2    0.17    0.19
  -6   4   3   12.83    0.25
  -6   5   4   14.15    0.29
  -5   6   5    0.16    0.25
  -5   7   8    1.73    0.39
  -4   2   1   -0.05    0.13
  -4   5   3   78.83    0.40
  -4   7   9    5.42    0.43
  -3   5   3    9.67    0.17
  -2   5   3   46.31    0.27
  -2   6   5    1.41    0.17
  -1 -10   2   20.84    0.27
  -1  -8   1   43.67    0.26
  -1   6   7    0.53    0.21
  -1   6   8   11.43    0.27
  -1   6   9    3.23    0.29
   0  -5   0  174.06    0.35
   1  -8   1   80.38    0.38
   2 -14   5    0.36    0.36
   2 -13   4    6.93    0.36
   3 -11   3   -0.01    0.28
   3  -9   2   27.93    0.33
   3  -6   1   33.51    0.26
   4 -10   3   31.74    0.40
   5 -10   4    0.31    0.30
   5  -3   3   34.53    0.27
   6 -11   6    0.11    0.35
   6  -9   5    1.24    0.36
   6  -4   5   13.58    0.27
   6  -3   6    1.75    0.21
 -10  -3   5   -0.13    0.30
 -10  -2   5    2.06    0.29
 -10  -1   5    0.74    0.31
 -10   0   5    2.57    0.33
  -9   3   5    7.41    0.37
  -9   5   7    1.45    0.41
  -8  -3   3    0.62    0.19
  -8   6   7    5.18    0.39
  -7  -1   2    0.51    0.17
  -7   3   3   99.23    0.52
  -7   6   6    0.75    0.30
  -6   6   5    2.50    0.28
  -6   7   8   11.66    0.46
  -5   1   1    5.15    0.15
  -5   7   7    0.28    0.31
  -4   4   2    4.33    0.17
  -4   7   7    2.26    0.29
  -4   7   8   14.10    0.41
  -3  -9   2    0.80    0.12
  -3  -1   0    2.02    0.07
  -2   3   1   74.80    0.25
  -1 -13   4    1.84    0.27
  -1   4   2  118.60    0.30
  -1   6   6    3.04    0.20
   0 -13   4   -0.01    0.29
   0 -10   2    0.36    0.21
   0  -8   1  130.54    0.42
   1 -14   5    0.19    0.39
   1 -13   4    4.08    0.33
   1 -10   2    6.98    0.23
   1  -4   0   17.99    0.14
   3 -12   4    4.12    0.35
   3  -2   1    6.44    0.12
   4 -11   4    1.77    0.32
   4  -7   2   68.51    0.41
   4  -2   2   14.56    0.17
   5 -11   5   18.76    0.46
   5  -7   3    1.64    0.20
   5  -6   3   15.68    0.27
   5  -4   3    5.51    0.21
   6 -10   6    2.94    0.42
   6  -8   5    6.13    0.34
   6  -7   5    1.77    0.31
   6  -5   5   -0.04    0.22
   6  -3   7    3.72    0.26
 -10   3   6    0.03    0.40
  -9   1   4    2.00    0.27
  -8   1   3   22.09    0.31
  -7  -2   2    2.21    0.15
  -7   0   2    3.77    0.17
  -7   7   8   -0.06    0.43
  -6   7   7   -0.25    0.35
  -5   5   3    9.53    0.24
  -4   6   4    5.36    0.24
  -3   3   1  211.87    0.44
  -3   6   4    4.32    0.21
  -3   7   8    0.95    0.28
  -3   7   9    2.33    0.34
   1  -3   0    1.82    0.09
   1  -2   0  180.41    0.27
   2 -11   3    5.69    0.30
   2  -7   1    8.10    0.19
   3 -13   5    2.48    0.41
   3  -5   1   20.95    0.21
   3  -4   1   10.39    0.16
   3  -3   1    1.52    0.12
   4 -12   5    0.05    0.36
   4  -9   3    0.56    0.24
   4  -6   2   33.11    0.30
   5 -12   6    3.75    0.43
   5  -9   4   10.19    0.31
   5  -5   3   26.53    0.32
   5  -2   4    0.58    0.14
   6  -9   6   12.96    0.43
   6  -6   5   16.92    0.34
   6  -4   6   14.75    0.29
  -8   5   5   15.14    0.34
  -5   6   4    0.91    0.16
 -10   0   3    0.53    0.31
 -10   2   3    1.56    0.26
  -9  -4   3    1.12    0.39
  -9   1   2    0.10    0.26
  -8  -3   2   -0.09    0.30
  -7  -7   3    0.58    0.33
  -7  -5   2    0.98    0.29
  -6  -8   3    6.79    0.35
  -6   8   4    3.14    0.15
  -5  -7   2    4.52    0.27
  -5  -5   1    0.31    0.20
  -5  -1   0   26.33    0.26
  -4 -12   5    0.27    0.35
  -3 -11   4    0.86    0.29
  -3  -8   2    4.12    0.24
  -3  -6   1    3.87    0.21
  -3   8   5   16.28    0.30
  -1   7   5    3.46    0.23
   0 -12   5    2.58    0.22
   0  -8   2   90.49    0.37
   0   6   5   10.24    0.28
   1  -9   3    5.41    0.13
   1   5   5   43.54    0.41
   1   5   9    0.06    0.39
   2 -12   6    0.28    0.14
   2   4   6    6.02    0.28
   2   4   7   14.96    0.39
   2   4   8    3.57    0.38
   3   2   5   -0.09    0.21
   4  -4   4    2.83    0.13
   4  -3   4   10.23    0.18
   4  -1   5   68.71    0.42
   4   0   6    0.04    0.25
   4   0   7    8.81    0.29
   4   0   9    3.45    0.41
   5  -5   7    5.94    0.23
   5  -4   8    0.97    0.30
   5  -4   9    4.32    0.35
   5  -4  10    0.44    0.36
 -10  -1   3   -0.06    0.33
 -10   3   3   -0.20    0.25
  -9  -1   2   -0.12    0.30
  -9   0   2    0.30    0.26
  -9   2   2    9.34    0.25
  -8  -6   3    4.94    0.37
  -7  -9   4    0.11    0.42
  -7  -2   1    8.35    0.26
  -6  -4   1   13.84    0.29
  -5  -9   3    0.02    0.33
  -5  -2   0    3.40    0.20
  -5   8   4    6.83    0.18
  -4 -11   4    2.44    0.35
  -4  -8   2    9.54    0.32
  -4  -6   1    2.16    0.21
  -4  -3   0    1.85    0.17
  -3 -10   3    0.53    0.31
  -2 -10   3   10.99    0.27
  -2  -4   0   49.75    0.26
  -1 -10   3    5.51    0.21
  -1   2   0  180.51    0.13
  -1   6   3    8.36    0.19
  -1   7   6    0.72    0.24
  -1   7   7   14.11    0.40
  -1   7   8    6.38    0.42
   0 -11   4    2.98    0.19
   0  -6   1   54.51    0.24
   0  -2   0   34.60    0.11
   0   3   1    3.47    0.11
   0   5   3    2.43    0.17
   0   6   6    0.47    0.28
   0   6   8    1.39    0.39
   1  -5   1    3.14    0.09
   1   3   2   19.73    0.18
   1   4   3   90.28    0.39
   1   5   6    3.32    0.29
   1   5   7    0.33    0.33
   1   5   8    1.16    0.37
   2 -13   7    1.43    0.17
   2 -11   5    4.62    0.15
   2   1   2   74.50    0.27
   2   3   4   51.55    0.36
   3 -11   6   13.75    0.09
   3   0   3  217.59    0.50
   3   1   4    0.91    0.19
   3   2   6   12.81    0.30
   3   2   7    2.70    0.28
   3   2   8    2.38    0.33
   3   2   9    2.26    0.35
   4   0   8   18.14    0.39
   5  -8   9    4.52    0.27
   5  -7   8    3.66    0.23
   5  -6   8   10.16    0.29
   5  -5   8   22.88    0.32
   5  -5   9    5.03    0.35
   5  -5  10    0.29    0.34
 -10  -2   3    0.18    0.34
  -9  -5   3    3.86    0.44
  -9   3   2    7.26    0.25
  -8  -4   2   11.20    0.37
  -8   5   2   10.53    0.16
  -7  -3   1    0.14    0.26
  -7   4   1    2.97    0.14
  -7   6   2   36.39    0.12
  -6 -10   4    2.35    0.42
  -6  -7   2    0.18    0.27
  -6   5   1   36.39    0.14
  -5   3   0   31.08    0.17
  -3  -4   0    0.29    0.16
  -3   8   6   14.96    0.32
  -3   8   7    8.56    0.38
  -3   8   8    0.45    0.34
  -2   7   4    0.61    0.17
  -1  -4   0   19.31    0.16
  -1   4   1   14.74    0.12
   0   6   7    2.04    0.31
   2   2   3   17.28    0.20
   3  -6   3   22.15    0.07
   4  -7   5   14.64    0.14
   4  -2   5    0.89    0.20
   4  -1   6   53.76    0.41
   4  -1  10    0.16    0.40
   5  -7   9    0.05    0.25
   5  -7  10    0.55    0.32
   5  -6   9    2.56    0.30
   5  -6  10    0.01    0.32
 -10   4   3    1.71    0.22
  -9  -2   2    0.03    0.29
  -8  -7   3   -0.11    0.42
  -8  -1   1    8.63    0.31
  -8   0   1   10.31    0.26
  -8   1   1    3.09    0.22
  -8   2   1    0.26    0.20
  -7  -8   3    1.93    0.39
  -7  -6   2    1.26    0.30
  -6  -9   3    2.13    0.39
  -6  -5   1   33.68    0.40
  -6  -1   0    9.70    0.24
  -6   0   0    0.77    0.17
  -6   1   0   25.09    0.23
  -6   2   0   48.86    0.27
  -5 -11   4    0.08    0.41
  -5  -8   2    1.66    0.33
  -5  -6   1    6.47    0.28
  -5  -3   0   62.61    0.39
  -4 -10   3    0.46    0.33
  -4  -4   0   33.87    0.30
  -4   8   5    0.37    0.20
  -3  -7   1    4.45    0.23
  -2  -9   2    0.10    0.21
  -2  -7   1    3.99    0.21
  -1  -7   1   14.11    0.21
  -1   5   2    3.66    0.13
   0 -10   3   -0.11    0.15
   0   4   2   87.10    0.30
   1 -13   6    0.57    0.21
   1 -12   5    4.01    0.20
   1   1   1  244.37    0.34
   1   4   4    0.05    0.19
   2 -10   4    7.00    0.13
   2   3   5   20.75    0.29
   2   3   9    0.60    0.36
   3  -1   3   16.24    0.17
   3   1   5   42.69    0.36
   3   1  10    2.94    0.44
   4  -1   7    5.54    0.30
   4  -1   8    0.59    0.30
   4  -1   9    0.52    0.35
  -9  -3   2    0.02    0.34
  -8  -5   2    0.59    0.37
  -8  -2   1    0.27    0.30
  -7  -4   1    1.24    0.29
  -6  -2   0   14.01    0.26
  -4  -7   1    8.99    0.27
  -4   7   3    0.12    0.14
  -4   8   6   11.61    0.30
  -3  -9   2    0.42    0.26
  -3   6   2    0.14    0.10
  -2 -13   5    2.33    0.33
  -2 -12   4    3.47    0.34
  -2  -5   0    2.98    0.16
  -2   7   5   -0.12    0.20
  -2   7   8    3.71    0.40
  -1 -13   5    0.28    0.27
  -1  -9   2    0.54    0.18
  -1   6   4   16.43    0.25
   0  -3   0   52.74    0.16
   0   5   4    8.15    0.24
   1 -11   4    0.98    0.16
   1   4   9    0.66    0.32
   2   3   6    2.79    0.24
   2   3   7    1.03    0.27
   2   3   8   12.53    0.38
   3   0   4  142.92    0.47
   3   1   6    1.24    0.23
   3   1   8    0.19    0.30
   3   1   9    0.82    0.36
   4  -3   5   -0.13    0.15
   4  -2   6    1.62    0.20
   4  -2  10    3.81    0.40
  -9   4   2    4.61    0.20
  -8   3   1   -0.29    0.17
  -7  -7   2    1.71    0.37
  -6  -8   2    0.97    0.32
  -5 -10   3    3.13    0.36
  -5  -4   0   20.69    0.29
  -5   8   5    2.01    0.21
  -4  -9   2    0.43    0.29
  -4   8   7    3.45    0.33
  -4   8   8    2.33    0.33
  -3 -12   4    1.26    0.34
  -3  -5   0    1.51    0.17
  -3   5   1   13.68    0.09
  -3   7   4   29.60    0.28
  -2   7   6    3.23    0.26
  -2   7   7    7.64    0.34
  -1 -12   4    2.19    0.24
  -1   6   5   -0.07    0.20
  -1   6   9    5.25    0.42
   0   5   9    5.06    0.43
   1  -8   2    4.63    0.14
   1   4   5   30.64    0.32
   1   4   8    1.00    0.31
   2   0   2   34.83    0.18
   2   2   4   14.30    0.22
   2   2  10    3.65    0.38
   3   1   7   13.67    0.32
   4  -6   5   30.76    0.21
   4  -4   5   19.90    0.21
   4  -2   7    0.36    0.23
   4  -2   8    2.65    0.27
   4  -2   9    2.59    0.33
 -10  -1   2    3.72    0.37
 -10   0   2    1.60    0.34
 -10   1   2    4.26    0.31
  -9  -4   2    0.00    0.36
  -8  -6   2    1.34    0.41
  -8  -3   1    0.04    0.32
  -7  -5   1    4.06    0.32
  -7   0   0    2.67    0.22
  -7   1   0    3.53    0.20
  -7   8   5    0.43    0.15
  -6  -6   1    2.67    0.28
  -6  -3   0    1.09    0.23
  -6   3   0   22.69    0.19
  -6   8   5   -0.02    0.17
  -5  -7   1   21.99    0.37
  -4 -12   4    0.15    0.36
  -4  -5   0    2.12    0.21
  -3 -11   3    0.23    0.32
  -2 -11   3    3.84    0.28
  -2   6   3   91.61    0.35
  -1 -11   3    3.96    0.27
  -1  -5   0   69.04    0.29
  -1   6   6    2.38    0.26
  -1   6   7    0.31    0.28
  -1   6   8   11.99    0.41
   0 -14   6    1.05    0.30
   0 -13   5    0.01    0.25
   0  -9   2   14.92    0.20
   0  -7   1   27.73    0.21
   0   5   5   -0.20    0.21
   0   5   6    0.21    0.25
   0   5   7    1.76    0.27
   0   5   8   -0.04    0.33
   1   2   2    3.11    0.11
   1   3   3    2.20    0.14
   1   4   6   32.08    0.32
   1   4   7    3.86    0.27
   3  -2   3    1.37    0.11
   3   0   5    1.38    0.20
   3   0  10   15.91    0.50
   4  -5   5    2.25    0.14
   4  -3   6    0.15    0.20
   4  -3  10    4.84    0.40
 -10  -2   2   -0.15    0.38
 -10   2   2    0.58    0.25
  -9  -5   2    0.14    0.40
  -9   0   1    0.07    0.29
  -9   6   3   14.70    0.17
  -8  -4   1    5.28    0.35
  -7  -1   0   10.50    0.27
  -7   2   0   14.07    0.22
  -6 -10   3    0.21    0.41
  -6   7   3    1.67    0.09
  -5  -9   2   10.12    0.34
  -5  -5   0    1.44    0.23
  -5   7   3    5.84    0.13
  -4 -11   3    2.20    0.38
  -3  -8   1    0.56    0.25
  -3  -6   0    9.13    0.23
  -3  -1  -1    6.97    0.14
  -3   0  -1   19.87    0.16
  -3   7   5    0.13    0.21
  -3   7   9    2.92    0.37
  -2  -8   1   26.54    0.30
  -1  -8   1   43.58    0.34
  -1   5   3   29.87    0.24
   0 -12   4    0.11    0.23
   0  -4   0   87.99    0.24
   0   4   3   46.16    0.27
   1 -10   3   10.88    0.19
   1  -6   1   90.47    0.25
   1   3  10    2.24    0.39
   2   1   3    7.29    0.12
   2   2   5   31.29    0.31
   2   2   8   -0.02    0.27
   2   2   9    0.57    0.31
   3  -1   4    8.71    0.17
   3  -1  11    4.06    0.42
   3   0   6    9.82    0.25
   3   0   9    3.23    0.35
   4 -11   9    1.34    0.18
   4  -8   6    2.35    0.12
   4  -4  11    0.84    0.39
   4  -3   7    0.26    0.22
   4  -3   9   29.54    0.44
 -10   3   2    2.13    0.27
 -10   5   3    0.70    0.18
  -9  -1   1    0.18    0.30
  -9   1   1    3.40    0.25
  -9   2   1    5.51    0.26
  -8   4   1   15.45    0.20
  -7  -8   2    0.17    0.41
  -7  -6   1    0.35    0.31
  -7  -2   0   -0.19    0.25
  -6  -7   1    3.75    0.35
  -6  -4   0    0.90    0.24
  -5   8   7    1.70    0.26
  -4  -8   1    1.35    0.26
  -4  -6   0    7.52    0.25
  -4  -2  -1    3.15    0.17
  -4  -1  -1   91.52    0.35
  -4   0  -1   15.93    0.18
  -3 -10   2    6.93    0.32
  -3  -2  -1   13.17    0.17
  -3   7   6   -0.08    0.24
  -3   7   8    1.23    0.31
  -2 -10   2    0.69    0.24
  -2  -6   0    0.67    0.14
  -1 -10   2   20.93    0.31
  -1   5  10    0.65    0.38
   0 -11   3    4.64    0.23
   0   4  10    2.55    0.43
   1   3   4   20.86    0.24
   1   3   9   24.68    0.44
   2  -9   3   18.62    0.15
   2   2   6    0.45    0.19
   2   2   7   11.84    0.31
   3  -3   3   42.11    0.18
   3   0   7    0.21    0.25
   3   0   8    0.55    0.25
   4  -4   6   32.18    0.27
   4  -4  10    3.32    0.35
   4  -3   8    5.73    0.27
  -9  -2   1    0.36    0.31
  -8  -5   1    0.83    0.41
  -7  -3   0   11.49    0.33
  -7   5   1    9.19    0.12
  -7   8   6    0.27    0.21
  -6  -9   2    2.44    0.37
  -6   8   6    0.27    0.22
  -5  -8   1    0.45    0.32
  -5  -1  -1    1.73    0.20
  -5   0  -1   23.31    0.23
  -5   4   0   39.44    0.14
  -4 -10   2    0.91    0.31
  -4   1  -1    9.61    0.14
  -4   6   2    9.14    0.11
  -3  -3  -1   89.72    0.37
  -3   1  -1  275.12    0.40
  -3   7   7    2.20    0.28
  -2 -13   4    0.41    0.34
  -2  -2  -1    6.49    0.13
  -2  -1  -1   72.60    0.22
  -2   6   4   76.76    0.37
  -2   6   9    8.51    0.42
  -1  -6   0   10.27    0.19
   1   3   8   11.01    0.32
   2  -7   2   34.69    0.14
   2   1  10    0.45    0.34
   3  -5   3   98.14    0.19
   3  -4   3    5.06    0.09
   3  -1  10   11.55    0.43
   4 -10   8    1.55    0.15
   4  -9   7   27.56    0.21
   4  -7   6    0.04    0.14
   4  -5   6    9.78    0.20
   4  -5  11    0.00    0.36
   4  -4   7   25.63    0.31
   4  -4   9    0.30    0.27
  -9  -3   1    6.99    0.38
  -9   3   1    6.16    0.25
  -9   5   2    4.66    0.17
  -8  -1   0    4.30    0.28
  -8   0   0    0.62    0.22
  -8   1   0    2.83    0.24
  -7  -4   0   12.54    0.39
  -7   3   0    1.80    0.15
  -6  -5   0    2.29    0.20
  -5 -10   2    3.48    0.42
  -5  -6   0    3.20    0.28
  -5  -2  -1    0.98    0.21
  -5   1  -1   12.03    0.17
  -4  -3  -1   15.15    0.20
  -4   4   0   80.27    0.12
  -3 -12   3    0.81    0.35
  -3  -9   1    5.34    0.31
  -3  -7   0   52.94    0.41
  -2 -12   3    1.90    0.32
  -2  -9   1    2.43    0.25
  -2  -3  -1   25.14    0.20
  -2   0  -1  292.70    0.39
  -2   6   5    1.49    0.19
  -2   6   8    0.86    0.31
  -1 -13   4    1.22    0.31
  -1   5   4    1.76    0.18
  -1   5   9    1.09    0.36
   0  -8   1  138.47    0.46
   0  -5   0  167.68    0.37
   0   2   1  220.84    0.31
   0   3   2   15.02    0.15
   0   4   4    2.15    0.19
   0   4   9    0.24    0.32
   1   0   1   59.64    0.15
   1   2  11    2.60    0.42
   1   3   5   25.60    0.28
   1   3   6    5.73    0.23
   1   3   7    4.91    0.27
   2  -1   2  170.30    0.31
   2   1   4    0.16    0.10
   2   1   9    3.12    0.33
   3  -2   4   16.72    0.19
   3  -2  11    0.69    0.40
   3  -1   5   23.95    0.26
   3  -1   9    4.15    0.33
   4  -6   6   13.75    0.19
   4  -6  11    2.01    0.34
   4  -5  10    0.34    0.28
   4  -4   8   14.56    0.28
  -9  -4   1    0.22    0.41
  -8  -6   1    0.70    0.44
  -8  -2   0    1.47    0.30
  -7  -7   1    3.23    0.40
  -7   8   7    0.00    0.23
  -6  -8   1    0.47    0.36
  -6  -1  -1    8.56    0.24
  -6   0  -1    0.63    0.18
  -6   4   0  119.88    0.31
  -5  -3  -1   83.10    0.45
  -4  -9   1   12.01    0.40
  -4  -7   0    0.95    0.25
  -4  -4  -1    2.65    0.21
  -4   7   5   35.08    0.35
  -4   7   9    7.56    0.40
  -3  -4  -1   44.29    0.31
  -2  -7   0    2.20    0.21
  -2  -4  -1    5.75    0.17
  -2   6   6    7.44    0.25
  -2   6   7    0.89    0.26
  -1 -12   3    2.09    0.29
  -1   4   2  123.09    0.32
  -1   5   5   22.13    0.28
  -1   5   8    2.76    0.33
   0 -10   2    0.35    0.17
   0   3  11    2.10    0.43
   0   4   5    1.45    0.21
   0   4   6   17.85    0.28
   0   4   7   50.32    0.45
   0   4   8    3.98    0.29
   1 -14   6    2.13    0.25
   1 -13   5    0.24    0.20
   1 -12   4    2.27    0.18
   1  -9   2    0.05    0.14
   1   2   3   15.55    0.18
   1   2  10    1.84    0.37
   2 -13   6    0.28    0.15
   2 -12   5   -0.06    0.14
   2   0   3  105.41    0.33
   2   0  11    0.00    0.36
   2   1   5    1.04    0.18
   2   1   8   19.60    0.35
   3  -1   6    5.17    0.24
   3  -1   7   32.05    0.35
   3  -1   8    1.08    0.25
   4 -10   9    3.18    0.21
   4  -7  11    0.38    0.36
   4  -6  10   15.34    0.40
   4  -5   7    3.57    0.19
   4  -5   8    0.11    0.23
   4  -5   9    0.37    0.25
 -10  -1   1    0.26    0.37
 -10   0   1    5.38    0.37
 -10   1   1    0.50    0.32
 -10   4   2    1.00    0.23
  -8  -3   0    0.01    0.34
  -8   2   0    4.55    0.21
  -7  -5   0    0.55    0.34
  -6  -6   0    1.08    0.29
  -6  -2  -1    4.55    0.25
  -6   1  -1    8.40    0.19
  -5  -9   1    0.57    0.38
  -5  -7   0    0.45    0.28
  -5  -4  -1   21.25    0.33
  -5   2  -1   21.15    0.19
  -5   7   4   16.20    0.19
  -4 -11   2    1.12    0.37
  -4   2  -1   36.24    0.17
  -4   7   6    0.88    0.23
  -4   7   7    3.08    0.29
  -4   7   8   14.97    0.38
  -3 -11   2   -0.19    0.34
  -2 -11   2    0.13    0.27
  -1  -9   1   24.77    0.29
  -1  -7   0   41.90    0.30
  -1   5   6   27.45    0.34
  -1   5   7   12.30    0.32
   1  -7   1    5.28    0.12
   2   0  10    0.93    0.35
   2   1   6   16.11    0.27
   2   1   7    0.27    0.20
   3  -2  10    1.79    0.31
   4 -10  10    2.66    0.26
   4  -9   8    5.96    0.18
   4  -8   7    2.60    0.15
   4  -7   7    1.44    0.15
   4  -6   7    0.50    0.16
   4  -6   8    3.66    0.23
   4  -6   9    1.31    0.25
  -8  -4   0   -0.10    0.38
  -6  -3  -1    1.42    0.25
  -4  -5  -1   -0.28    0.21
  -3  -8   0    3.59    0.28
  -3  -5  -1    0.26    0.20
  -3   6   9    3.63    0.38
  -2  -5  -1   33.75    0.28
  -2   5  10    2.89    0.40
  -1 -11   2    5.31    0.27
  -1  -3  -1   17.43    0.16
  -1  -2  -1  173.47    0.32
  -1   4  10    2.56    0.42
   0 -13   4    0.16    0.25
   0  -6   0    2.94    0.13
   0   3  10    0.91    0.32
   1 -11   3    0.07    0.17
   1   1   2   56.58    0.21
   1   1  11   -0.36    0.36
   1   2   9    0.16    0.28
   2 -11   4    2.19    0.14
   3  -3   4   12.13    0.16
   3  -3  11    2.27    0.33
   3  -2   5    0.19    0.16
   3  -2   9   16.91    0.36
   4  -9   9    1.88    0.21
   4  -9  10    0.03    0.26
   4  -8   8    2.40    0.20
   4  -8  10    6.72    0.31
   4  -7   8   13.23    0.25
   4  -7   9    8.37    0.28
   4  -7  10    1.06    0.26
 -10   2   1    1.49    0.26
  -9  -2   0    0.10    0.38
  -9  -1   0    0.53    0.34
  -9   0   0    9.88    0.34
  -9   1   0    0.75    0.28
  -9   4   1    7.04    0.22
  -8   3   0    8.88    0.23
  -8   7   4    0.13    0.10
  -7  -6   0    0.22    0.36
  -7  -2  -1    0.48    0.28
  -7  -1  -1   -0.23    0.26
  -7   0  -1   24.19    0.31
  -6  -9   1    0.03    0.43
  -6  -7   0    1.07    0.35
  -6  -4  -1    0.98    0.28
  -6   2  -1    6.43    0.16
  -5  -5  -1    0.62    0.24
  -5   6   2   17.97    0.11
  -4 -10   1   -0.48    0.36
  -4  -8   0    2.12    0.31
  -4   5   1    7.53    0.06
  -3 -10   1    5.08    0.34
  -3   6   4    4.61    0.15
  -3   6   8    0.77    0.29
  -2 -10   1    2.08    0.26
  -2  -8   0    3.40    0.25
  -2   1  -1   81.91    0.19
  -2   5   3   46.39    0.24
  -2   5   9   -0.04    0.31
  -1  -4  -1   30.56    0.21
  -1  -1  -1  243.25    0.34
   0 -12   3    9.65    0.28
   0  -9   1    0.12    0.18
   0   3   3   65.53    0.28
   0   3   9    6.34    0.33
   1   2   4    0.10    0.10
   1   2   8    1.99    0.26
   2  -1  11    0.88    0.41
   2   0   4    1.15    0.14
   2   0   9    8.64    0.33
   3  -3  10    1.12    0.33
   3  -2   6    4.81    0.20
   3  -2   7    2.92    0.22
   3  -2   8   51.63    0.44
   4  -8   9   13.66    0.27
  -9  -3   0    6.91    0.43
  -8  -5   0    2.85    0.44
  -8   5   1   -0.08    0.12
  -7  -3  -1   13.19    0.36
  -7   1  -1    2.75    0.20
  -7   4   0    0.21    0.13
  -6   7   4    1.05    0.14
  -5 -10   1    0.65    0.44
  -5  -8   0    1.76    0.34
  -5   7   7    0.12    0.26
  -5   7   8    2.39    0.29
  -4  -6  -1   10.94    0.30
  -3  -6  -1    7.26    0.24
  -3   2  -1    6.78    0.08
  -3   6   5    0.14    0.17
  -3   6   6   -0.04    0.21
  -3   6   7    4.03    0.25
  -2 -13   3   -0.14    0.34
  -2  -6  -1    2.04    0.21
  -1 -10   1    0.17    0.23
  -1  -8   0    0.03    0.19
  -1   4   3   80.56    0.30
  -1   4   9    2.27    0.33
   0   2  11   10.90    0.46
   0   3   8   14.26    0.32
   1   0  12    2.75    0.44
   1   1  10    0.28    0.32
   1   2   5    9.24    0.20
   1   2   6   71.32    0.42
   1   2   7   17.40    0.26
   2  -2   2   25.66    0.12
   2  -2  12    1.34    0.43
   2   0   8   -0.12    0.26
   3  -4  11   19.64    0.46
 -10   3   1    5.73    0.29
  -9   2   0    8.44    0.26
  -7  -7   0    0.03    0.42
  -7  -4  -1    1.52    0.35
  -7   2  -1   16.93    0.25
  -7   7   4   22.74    0.19
  -6  -8   0    2.50    0.37
  -6  -5  -1    0.59    0.28
  -5  -6  -1    3.46    0.28
  -5   7   6    0.96    0.20
  -4   6   3    0.74    0.12
  -3 -12   2    1.37    0.40
  -3  -9   0    0.50    0.27
  -2 -12   2   -0.24    0.31
  -2   4  11    0.86    0.42
  -2   5   4   35.29    0.27
  -2   5   8   17.51    0.37
  -1 -13   3    1.24    0.31
  -1  -5  -1   10.29    0.18
  -1   3  11    2.91    0.43
  -1   4   8    0.03    0.27
   0 -11   2   19.26    0.29
   0  -7   0    5.77    0.16
   0   3   4   25.80    0.23
   0   3   7    0.42    0.22
   1 -10   2    6.91    0.19
   1  -8   1   81.17    0.31
   2 -10   3    7.86    0.14
   2  -8   2    2.36    0.09
   2  -1   3   16.77    0.15
   2  -1  10    0.78    0.30
   2   0   5   68.63    0.33
   2   0   6    3.53    0.22
   2   0   7   31.11    0.33
   3  -4   4    0.52    0.11
   3  -3   5   64.89    0.30
   3  -3   9    0.47    0.25
  -8  -2  -1    8.08    0.38
  -8  -1  -1    2.91    0.30
  -8   0  -1    0.13    0.25
  -6  -6  -1    6.62    0.34
  -5  -2  -2   22.23    0.30
  -5  -1  -2    0.88    0.22
  -5   3  -1    0.07    0.11
  -4  -9   0    6.44    0.35
  -4  -7  -1   -0.02    0.25
  -4  -3  -2    6.55    0.23
  -4  -2  -2   19.19    0.25
  -4  -1  -2   88.58    0.39
  -4   6   9    0.97    0.32
  -3 -11   1   -0.31    0.34
  -3  -7  -1   13.32    0.31
  -3  -2  -2    7.28    0.18
  -3   5   2    3.77    0.10
  -3   5  10    0.23    0.37
  -2  -9   0    1.68    0.27
  -2   5   5   18.64    0.24
  -2   5   6    4.20    0.22
  -2   5   7    3.91    0.27
  -1   4   4    2.65    0.16
  -1   4   7   11.08    0.29
   0   1  12    0.44    0.42
   0   2  10    9.71    0.37
   0   3   5   79.29    0.39
   0   3   6   23.21    0.28
   1   0  11    1.19    0.34
   1   1   3   20.62    0.17
   1   1   9    4.20    0.27
   2  -2  11    0.48    0.36
   2  -1   9    0.24    0.27
   3  -6  12    0.11    0.37
   3  -5  11    3.56    0.34
   3  -4  10    0.61    0.28
   3  -3   6    6.40    0.18
   3  -3   7    8.83    0.23
   3  -3   8    0.78    0.22
 -10   5   2   -0.03    0.16
  -9   3   0    0.20    0.23
  -9   7   5    3.92    0.16
  -8  -3  -1    1.47    0.37
  -8   1  -1    0.60    0.23
  -7  -5  -1    0.90    0.33
  -6  -1  -2    4.24    0.26
  -6   3  -1   22.18    0.18
  -6   7   5   12.68    0.22
  -6   7   7    0.42    0.25
  -6   7   8   11.86    0.34
  -5  -9   0    0.44    0.36
  -5  -7  -1    0.18    0.30
  -5  -3  -2    3.97    0.24
  -5   0  -2   29.81    0.27
  -4  -4  -2    4.68    0.23
  -4   0  -2    6.31    0.16
  -4   6   8    2.10    0.30
  -3  -4  -2    5.25    0.21
  -3  -3  -2   18.11    0.20
  -3  -1  -2    1.74    0.14
  -2 -11   1    1.51    0.31
  -2  -7  -1    0.38    0.22
  -2   4  10    5.71    0.40
  -1 -12   2    0.07    0.27
  -1  -6  -1    3.20    0.19
  -1   2  12   -0.16    0.42
  -1   3  10    1.55    0.36
  -1   4   5   10.48    0.23
  -1   4   6    4.45    0.23
   0 -10   1   32.84    0.34
   0   2   2   66.58    0.22
   1 -14   5    0.15    0.24
   1 -13   4    3.28    0.24
   1  -4   0   18.59    0.11
   1  -1  12    1.06    0.42
   1   1   8    2.08    0.24
   2  -3  12    3.07    0.41
   3  -4   9   -0.14    0.23
 -10   1   0    0.63    0.32
  -8  -4  -1   -0.09    0.40
  -8   2  -1    9.27    0.27
  -8   4   0   23.44    0.23
  -7  -6  -1    0.24    0.36
  -6  -7  -1    0.61    0.36
  -6  -3  -2   12.45    0.33
  -6  -2  -2    8.12    0.27
  -6   0  -2    1.35    0.21
  -6   6   2    7.20    0.07
  -5  -4  -2    2.71    0.25
  -5   1  -2    0.00    0.17
  -4   3  -1    1.51    0.08
  -4   6   7    3.21    0.28
  -3 -10   0    1.14    0.35
  -3   0  -2  394.47    0.60
  -3   5   9    0.35    0.30
  -2  -3  -2    0.51    0.14
  -2  -2  -2  153.99    0.41
  -1 -11   1    0.01    0.28
  -1  -9   0    4.66    0.23
  -1   0  -1   59.79    0.15
   0 -13   3    0.09    0.28
   0  -8   0    2.88    0.17
   0   1  11    0.38    0.35
   0   2   9    0.34    0.25
   1 -12   3    2.95    0.22
   1  -5   0  367.55    0.44
   1   0  10   15.23    0.38
   1   1   4   95.49    0.35
   1   1   7   33.36    0.33
   2  -2  10    0.65    0.31
   2  -1   4   90.11    0.31
   2  -1   8    1.92    0.22
   3  -8   4   97.82    0.15
   3  -6  11    1.36    0.34
   3  -5   4   13.75    0.13
   3  -5  10   18.80    0.36
   3  -4   5   -0.04    0.15
   3  -4   8    0.28    0.22
 -10   2   0   -0.14    0.30
 -10   4   1    3.36    0.25
 -10   6   3    0.25    0.10
  -9  -2  -1   -0.09    0.39
  -9  -1  -1    4.63    0.39
  -9   0  -1    4.32    0.33
  -7  -2  -2   -0.26    0.32
  -7  -1  -2   -0.37    0.26
  -7   3  -1    0.37    0.14
  -7   7   5   15.58    0.22
  -7   7   8   -0.01    0.30
  -6  -4  -2    0.50    0.32
  -6   1  -2    6.87    0.20
  -5  -8  -1    5.86    0.37
  -5  -5  -2    3.28    0.28
  -5   6   9    0.19    0.36
  -4 -10   0    0.18    0.36
  -4  -8  -1    4.66    0.33
  -4  -5  -2   11.74    0.28
  -4   1  -2   14.58    0.17
  -4   6   5   37.89    0.30
  -4   6   6   28.44    0.30
  -3  -8  -1   35.42    0.42
  -3  -5  -2   10.15    0.25
  -3   4  11    2.99    0.42
  -2 -10   0    2.65    0.28
  -2  -8  -1   21.78    0.34
  -2  -4  -2    2.63    0.17
  -2   4   9   15.03    0.40
  -1  -7  -1   54.79    0.36
  -1   2  11    6.45    0.39
  -1   3   9   16.18    0.38
   0  -5  -1   20.38    0.19
   0  -4  -1    6.42    0.12
   0  -3  -1    3.69    0.09
   0   2   8    6.07    0.27
   1  -9   1    7.93    0.17
   1  -6   0   98.25    0.29
   1  -1  11    1.29    0.33
   1   1   5    1.83    0.17
   1   1   6    0.00    0.19
   2  -4  12    0.51    0.38
   2  -3  11   11.73    0.41
   2  -1   5   76.27    0.34
   2  -1   6  200.23    0.59
   2  -1   7    1.53    0.21
   3  -4   6    0.27    0.18
   3  -4   7   11.22    0.22
  -9   1  -1    7.59    0.32
  -9   5   1    0.60    0.15
  -8   7   5    3.80    0.17
  -7  -3  -2    4.79    0.34
  -7   0  -2   12.99    0.28
  -7   7   6    4.13    0.23
  -6  -5  -2    1.57    0.29
  -4  -6  -2   11.64    0.31
  -4   5  10    0.45    0.37
  -3  -6  -2    1.68    0.24
  -3   5   8   20.60    0.35
  -2  -5  -2    5.70    0.22
  -2  -1  -2   75.07    0.27
  -2   3  11    0.80    0.40
  -1   3   2   70.91    0.22
  -1   3   8   27.74    0.35
   0 -12   2    2.77    0.23
   0   0  12    1.19    0.36
   0   1  10   19.84    0.41
   1 -11   2    1.89    0.20
   1  -3   0    1.76    0.05
   1  -2  12    0.68    0.42
   1  -1   1    3.28    0.05
   1   0   2  283.57    0.37
   1   0   9    0.60    0.25
   2 -13   5    4.65    0.17
   2 -12   4    2.40    0.15
   2  -2   9   24.81    0.38
   3 -11   6   14.82    0.10
   3  -7  11    0.17    0.29
   3  -6   4   22.82    0.13
   3  -6  10    0.18    0.30
   3  -5   9   22.50    0.32
  -8   3  -1    5.72    0.22
  -8   7   6    1.77    0.21
  -8   7   7    0.34    0.25
  -7  -4  -2    5.22    0.41
  -7   1  -2    0.34    0.19
  -5  -6  -2    0.09    0.32
  -5   6   3    0.70    0.12
  -5   6   8    0.67    0.29
  -4  -9  -1    0.04    0.38
  -3  -9  -1    0.02    0.32
  -3   5   7    9.21    0.25
  -2 -12   1    1.14    0.34
  -2   4   8    2.80    0.25
  -1 -13   2    2.36    0.33
  -1 -10   0    6.52    0.27
  -1  -8  -1    0.44    0.20
  -1   1  12    0.50    0.39
   0  -9   0   11.24    0.22
   0  -6  -1    3.05    0.15
   0   1   1  565.03    0.40
   0   2   3   10.66    0.14
   0   2   7   14.30    0.25
   1   0   8    3.17    0.22
   2  -9   2    0.34    0.11
   2  -3   2   70.72    0.15
   2  -3  10   20.36    0.39
   2  -2   3  326.04    0.44
   2  -2   8    0.32    0.20
   3  -8  11    7.84    0.34
   3  -5   5    0.58    0.13
   3  -5   8   11.63    0.23
 -10   3   0   14.65    0.36
  -9   2  -1    0.24    0.25
  -9   4   0    6.19    0.22
  -8  -3  -2    0.71    0.41
  -8  -2  -2   11.13    0.42
  -8  -1  -2    1.89    0.33
  -8   0  -2    0.03    0.27
  -7  -5  -2    4.44    0.42
  -6  -6  -2   -0.07    0.37
  -6   2  -2   16.72    0.21
  -5   2  -2    0.06    0.13
  -4  -7  -2    0.66    0.30
  -4   5   9    3.41    0.31
  -3 -11   0    2.06    0.41
  -3  -7  -2    0.71    0.27
  -3   1  -2   74.80    0.25
  -3   4  10   10.66    0.41
  -3   5   4    0.26    0.15
  -3   5   5   37.87    0.31
  -3   5   6    4.67    0.20
  -2 -11   0    1.51    0.36
  -2  -9  -1    4.36    0.30
  -2  -6  -2   89.02    0.44
  -2   2  12    6.34    0.47
  -2   3  10    0.27    0.33
  -2   4   7    2.08    0.23
  -1 -12   1    0.11    0.30
  -1  -4  -2   24.85    0.22
  -1  -3  -2   18.23    0.18
  -1   2  10    2.74    0.29
  -1   3   7   -0.10    0.21
   0 -11   1    4.96    0.22
   0  -2  -1  221.27    0.31
   0   0  11    2.66    0.34
   0   1   9   14.85    0.33
   0   2   4    1.60    0.14
   0   2   5    1.03    0.16
   0   2   6   33.68    0.29
   1  -7   0   25.94    0.19
   1  -1  10    0.20    0.29
   2 -11   3    5.29    0.15
   2  -5  12   -0.18    0.36
   2  -4  11    0.95    0.32
   3  -9  11    6.66    0.34
   3  -7   4   15.51    0.10
   3  -7  10    0.36    0.24
   3  -6   9    0.39    0.21
   3  -5   6    1.01    0.16
   3  -5   7    8.90    0.19
  -8   1  -2   10.79    0.35
  -7   2  -2    3.37    0.22
  -7   6   2   36.15    0.11
  -6   6   9    0.44    0.31
  -5  -7  -2   -0.04    0.32
  -5  -3  -3    1.18    0.26
  -5  -2  -3    4.47    0.25
  -5  -1  -3    0.27    0.20
  -5   6   7   37.73    0.36
  -4  -3  -3   -0.22    0.20
  -4  -2  -3   78.54    0.42
  -4   2  -2   14.46    0.17
  -2  -7  -2    1.51    0.25
  -2   0  -2   33.99    0.17
  -2   4   3   57.33    0.24
  -2   4   6    0.62    0.20
  -1  -5  -2    0.30    0.17
  -1  -2  -2    3.15    0.12
  -1   3   3   11.49    0.15
  -1   3   6    0.48    0.21
   0  -7  -1   41.84    0.29
   0  -1  12    6.39    0.37
   1 -10   1    1.14    0.20
   1  -2  11    0.40    0.33
   1   0   7    3.46    0.21
   2  -3   9    0.01    0.24
   2  -2   4  143.92    0.36
   2  -2   7    1.26    0.22
   3 -12   8    3.03    0.16
   3 -10  11    3.13    0.31
   3  -6   8    2.11    0.21
  -7   4  -1   11.68    0.17
  -7   5   0    0.10    0.09
  -6  -7  -2    0.02    0.43
  -6  -3  -3   -0.08    0.30
  -6  -2  -3   24.59    0.38
  -6  -1  -3    1.82    0.28
  -6   4  -1    1.36    0.12
  -5  -4  -3    0.09    0.27
  -5   0  -3   52.54    0.36
  -5   5  10    2.37    0.33
  -5   6   4    0.76    0.13
  -5   6   6    1.22    0.18
  -4  -8  -2    1.64    0.38
  -4  -4  -3    0.62    0.23
  -4  -1  -3    0.21    0.20
  -4   4  11    0.47    0.35
  -4   5   8    0.16    0.27
  -3 -10  -1    1.75    0.38
  -3  -8  -2    3.13    0.30
  -3  -4  -3    9.13    0.23
  -3  -3  -3   13.27    0.25
  -3  -2  -3   26.70    0.26
  -3   4   9    0.89    0.28
  -2   3   9   10.82    0.31
  -2   4   4   13.86    0.18
  -2   4   5    6.66    0.19
  -1 -11   0    0.31    0.28
  -1  -9  -1    4.17    0.25
  -1  -6  -2   12.67    0.25
  -1   1  11    0.23    0.31
  -1   2   9    1.54    0.26
  -1   3   4   55.99    0.27
  -1   3   5    7.00    0.19
   0 -13   2    6.42    0.34
   0 -10   0    2.65    0.25
   0  -2  13   -0.40    0.42
   0   1   8   19.91    0.31
   1 -13   3    0.23    0.23
   1  -8   0   33.97    0.24
   1  -4  13    2.63    0.42
   1  -3  12    1.41    0.37
   1  -1   9    2.95    0.27
   1   0   3    1.16    0.08
   1   0   6   29.07    0.27
   2  -6  12   15.65    0.44
   2  -4  10    2.71    0.30
   2  -2   5   29.38    0.22
   2  -2   6   12.49    0.22
   3 -12   9    0.12    0.18
   3  -8  10    4.15    0.25
   3  -7   9    0.29    0.19
   3  -6   5   12.27    0.15
  -9  -1  -2    1.35    0.36
  -9   0  -2    1.43    0.34
  -9   3  -1    2.04    0.22
  -8   2  -2    0.23    0.23
  -7  -2  -3    4.47    0.33
  -6  -4  -3    0.55    0.33
  -6   0  -3    0.47    0.21
  -6   5   0   25.78    0.11
  -6   6   8    2.60    0.28
  -5  -8  -2    5.22    0.39
  -5  -5  -3    6.30    0.34
  -4  -5  -3    7.58    0.29
  -4   0  -3   13.85    0.22
  -3  -5  -3    8.13    0.26
  -3  -1  -3    2.31    0.16
  -3   3  11   11.49    0.41
  -2 -10  -1    4.57    0.34
  -2  -8  -2    1.30    0.26
  -2   2  11    2.88    0.34
  -1   0  12    7.08    0.41
   0  -8  -1   13.94    0.24
   0   0  10    8.23    0.30
   1 -12   2    6.50    0.26
   1   0   4   43.57    0.23
   1   0   5   72.03    0.32
   2  -7   1    8.13    0.10
   2  -6   1    1.61    0.06
   2  -5  11   -0.11    0.30
   2  -3   8    2.29    0.22
   3 -11  10   -0.21    0.24
   3 -10  10    2.08    0.26
   3  -9  10    0.08    0.22
   3  -6   6   27.63    0.22
   3  -6   7    1.16    0.15
 -10   4   0    0.02    0.22
 -10   5   1    2.28    0.19
  -9   1  -2    0.38    0.31
  -8   4  -1    2.17    0.17
  -8   5   0    0.96    0.13
  -7  -4  -3    4.98    0.40
  -7  -3  -3    0.30    0.38
  -7  -1  -3    8.71    0.31
  -7   0  -3   10.23    0.30
  -7   6   9    0.36    0.29
  -6  -5  -3    0.57    0.36
  -6   3  -2   42.58    0.26
  -5  -6  -3    1.62    0.33
  -5   1  -3    1.86    0.20
  -5   4  -1  110.41    0.24
  -5   5   9    5.35    0.33
  -4  -9  -2    0.07    0.39
  -4  -6  -3    5.54    0.31
  -4   4  10    6.19    0.35
  -4   5   2    9.86    0.11
  -4   5   7    2.48    0.21
  -3  -6  -3    0.15    0.23
  -3   4   8    1.93    0.27
  -2  -4  -3    2.56    0.20
  -2  -3  -3   51.83    0.32
  -2   1  12   -0.01    0.32
  -1  -7  -2   12.99    0.27
  -1  -1  -2   54.16    0.20
  -1  -1  13    3.53    0.43
  -1   1  10    0.27    0.25
  -1   2   8   67.40    0.46
   0 -12   1    2.67    0.26
   0  -1  11    1.24    0.31
   0   1   7    1.06    0.20
   1  -2  10    0.31    0.25
   1  -1   8    3.10    0.23
   2 -10   2    1.67    0.12
   3 -11   9    0.20    0.19
   3  -8   9   -0.16    0.19
   3  -7   8   27.67    0.28
  -8  -2  -3    2.27    0.34
  -8  -1  -3    1.52    0.37
  -7   3  -2    3.65    0.17
  -6  -6  -3    0.46    0.42
  -6   1  -3    5.84    0.23
  -6   6   3    3.07    0.12
  -6   6   7   26.48    0.33
  -5   3  -2    1.72    0.14
  -5   4  11    2.25    0.41
  -3  -9  -2    1.27    0.34
  -3   0  -3  219.22    0.50
  -3   2  12    0.24    0.42
  -3   3  10    1.37    0.33
  -3   4   1    0.40    0.06
  -2  -5  -3   24.58    0.29
  -2  -2  -3   15.65    0.20
  -2   2  -1    1.38    0.05
  -2   2  10    5.49    0.34
  -2   3   8    5.24    0.25
  -1 -10  -1    9.06    0.31
   0  -3  13    0.26    0.38
   0  -2  12    0.54    0.34
   0   0   9    3.30    0.25
   1 -11   1   19.70    0.27
   1  -9   0    1.76    0.15
   1  -5  13    0.49    0.40
   1  -4  12    0.94    0.36
   1  -3  11   12.05    0.36
   2  -7  12    0.08    0.32
   2  -6  11    1.63    0.29
   2  -5   1    0.50    0.04
   2  -5  10    0.86    0.25
   2  -4   9   21.63    0.32
   2  -3   7    0.86    0.19
   3 -11   7    0.60    0.13
   3 -10   9    7.34    0.23
   3  -9   9    4.63    0.23
   3  -8   8    0.34    0.18
   3  -7   5    8.77    0.13
   3  -7   6   28.95    0.22
   3  -7   7    7.44    0.18
 -10   3  -1    4.47    0.34
  -9   2  -2    1.26    0.27
  -8   0  -3    1.37    0.34
  -7   1  -3    3.16    0.24
  -7   6   8    7.19    0.28
  -6   5  10    4.53    0.36
  -5  -7  -3    1.85    0.40
  -4  -7  -3   16.12    0.40
  -4   1  -3    7.91    0.17
  -4   5   6    8.71    0.21
  -3  -7  -3   11.04    0.36
  -3   2  -2  193.40    0.34
  -3   4   7   10.85    0.25
  -2 -11  -1    0.73    0.39
  -2  -9  -2    4.90    0.34
  -2  -6  -3   24.77    0.33
  -2   0  13    0.90    0.39
  -1 -12   0    2.26    0.34
  -1  -8  -2    0.04    0.24
  -1   0  11    7.90    0.35
  -1   2   7   62.37    0.39
   0 -11   0    2.62    0.24
   0  -9  -1    1.09    0.19
   0  -5  -2    1.14    0.14
   0  -4  -2   83.99    0.30
   0   1   2    4.92    0.10
   0   1   6    0.50    0.17
   1  -2   9   10.69    0.29
   1  -1   7   54.40    0.36
   2 -13   4    5.56    0.18
   2 -12   3    0.78    0.16
   2  -8   1    2.49    0.10
   2  -8  12    0.13    0.36
   2  -3   3   15.51    0.11
   2  -3   6    4.13    0.17
   3 -11   8    1.97    0.16
   3  -9   5   12.51    0.11
   3  -8   5  168.08    0.32
  -9   4  -1    5.17    0.23
  -9   5   0    4.20    0.18
  -8   1  -3   11.21    0.34
  -8   3  -2   23.61    0.29
  -6   2  -3    0.44    0.19
  -6   6   4    4.52    0.15
  -6   6   5    2.33    0.17
  -5  -3  -4    1.77    0.28
  -5  -2  -4   11.51    0.32
  -5   5   8   14.35    0.33
  -4  -8  -3    0.51    0.38
  -4  -3  -4    0.64    0.23
  -4   3  11    1.64    0.35
  -4   4   9    7.32    0.30
  -4   5   5    1.25    0.15
  -3 -10  -2   -0.31    0.40
  -3   3  -1    1.42    0.06
  -2  -7  -3   14.46    0.33
  -2  -1  -3    7.76    0.13
  -2   1  -2  172.47    0.31
  -2   1  11    2.69    0.30
  -2   3   7   29.03    0.33
  -1  -1  12    3.47    0.34
  -1   1   9    3.73    0.26
   0  -6  -2    7.64    0.20
   0  -1  -1  570.32    0.40
   0  -1  10    0.07    0.25
   0   0   8    4.74    0.22
   0   1   5    3.86    0.15
   1  -6  -1    5.17    0.13
   1  -6  13    0.57    0.39
   1  -5  -1    8.86    0.12
   1  -3  10    0.51    0.27
   2  -4   8    0.62    0.20
   2  -3   4   98.96    0.29
   2  -3   5   52.70    0.25
   3 -10   6   -0.03    0.10
   3 -10   8    0.13    0.15
   3  -9   8    1.47    0.17
   3  -8   6    3.17    0.14
   3  -8   7    0.08    0.15
  -7   2  -3    1.61    0.22
  -6  -4  -4    7.56    0.39
  -6  -3  -4    1.35    0.35
  -6  -2  -4    7.62    0.36
  -6  -1  -4    4.95    0.31
  -6   5   9   10.19    0.37
  -5  -5  -4    0.96    0.33
  -5  -4  -4    3.02    0.31
  -5  -1  -4    6.63    0.27
  -5   2  -3    0.15    0.15
  -5   4  10    2.19    0.34
  -4  -5  -4    1.82    0.28
  -4  -4  -4    9.01    0.29
  -4  -2  -4    4.26    0.18
  -4  -1  -4   71.98    0.43
  -3  -8  -3    0.53    0.34
  -3  -3  -4    5.39    0.22
  -3   2  11    0.15    0.32
  -3   3   9    1.30    0.27
  -3   4   6   39.48    0.32
  -2 -10  -2    1.69    0.35
  -2   2   9    0.40    0.25
  -1 -11  -1    1.99    0.32
  -1  -9  -2    3.66    0.27
  -1  -5  -3    0.10    0.21
  -1  -4  -3   88.94    0.39
  -1  -3  -3    2.33    0.15
  -1  -2  13    2.67    0.41
  -1   2   6    0.81    0.18
   0 -13   1    1.11    0.28
   0 -10  -1    1.58    0.27
   0  -7  -2   10.18    0.22
   0  -3  -2   14.80    0.15
   0  -2  11    3.06    0.35
   0   1   3  222.93    0.40
   0   1   4    3.71    0.13
   1 -13   2    6.85    0.29
   1 -10   0   36.20    0.31
   1  -7  -1  143.44    0.42
   1  -5  12    6.78    0.37
   1  -4  11    0.53    0.30
   1  -1   2  845.27    0.56
   1  -1   6    0.59    0.16
   2 -14   5    0.08    0.15
   2 -11   2    4.92    0.17
   2  -9   1   15.61    0.18
   2  -9  12    0.13    0.35
   2  -7  11   -0.08    0.27
   2  -6  10    1.12    0.25
   2  -5   9    2.98    0.21
   3 -10   7    0.37    0.13
   3  -9   6    1.07    0.12
   3  -9   7    5.23    0.15
  -9   3  -2    2.89    0.27
  -7  -3  -4   -0.06    0.41
  -7  -2  -4    0.12    0.38
  -7  -1  -4   23.86    0.44
  -6  -5  -4   -0.19    0.41
  -6   0  -4    0.24    0.26
  -6   4  11    6.70    0.42
  -5   0  -4   36.08    0.34
  -5   5   7   30.73    0.33
  -4  -6  -4    0.05    0.29
  -4   2  12    0.34    0.39
  -4   3  -2   19.28    0.15
  -4   4   8   -0.33    0.20
  -3  -5  -4   17.65    0.34
  -3  -4  -4    6.82    0.20
  -3  -2  -4   12.64    0.25
  -3   1  -3   16.68    0.17
  -3   1  12    0.11    0.35
  -2  -8  -3    0.35    0.30
  -2   0  12    0.12    0.35
  -2   3   6   75.11    0.39
  -1  -6  -3   -0.04    0.21
  -1   0  10    3.39    0.27
   0 -12   0    3.34    0.33
   0  -8  -2    0.09    0.22
   0  -4  13    2.12    0.37
   0  -3  12    0.42    0.30
   1 -12   1    1.01    0.25
   1  -8  -1    0.24    0.16
   1  -4  -1   14.39    0.12
   1  -2   8  148.28    0.58
   1  -1   5    0.22    0.14
   2  -4   7   88.93    0.39
  -9   1  -3    0.60    0.34
  -8   2  -3    5.56    0.27
  -8   6   7    6.85    0.27
  -7   0  -4    0.98    0.29
  -7   6   6    0.97    0.21
  -5  -6  -4    0.16    0.36
  -4   0  -4    6.32    0.23
  -4   2  -3   18.83    0.18
  -4   3  10    0.21    0.31
  -3  -9  -3    0.28    0.40
  -3  -6  -4   -0.40    0.29
  -3  -1  -4    1.09    0.18
  -3   4   5   42.26    0.28
  -2  -4  -4    2.50    0.20
  -2  -1  13    3.00    0.41
  -2   0  -3  107.62    0.33
  -2   3   5   70.91    0.33
  -1 -10  -2    2.49    0.30
  -1  -7  -3    0.84    0.24
  -1  -2  -3   15.34    0.18
  -1   0  -2  283.87    0.38
  -1   1   8   19.29    0.28
  -1   2   5   21.45    0.19
   0  -1   9    2.10    0.23
   0   0   7   16.59    0.25
   1  -7  13    0.04    0.38
   1  -3   9    8.65    0.26
   1  -1   3  168.31    0.32
   1  -1   4   17.81    0.17
   2  -8  11   -0.19    0.25
 -10   4  -1    1.58    0.26
  -8  -1  -4    0.37    0.41
  -7   4  -2   -0.05    0.15
  -7   5   9   12.80    0.40
  -7   6   3   16.14    0.14
  -7   6   5    0.96    0.17
  -6   1  -4   11.08    0.25
  -6   4  -2   10.39    0.16
  -6   5   8    0.04    0.23
  -5   1  -4   11.45    0.24
  -5   3  11    0.26    0.31
  -5   4   9    0.45    0.28
  -5   5   6    6.68    0.22
  -4  -7  -4    5.38    0.41
  -4   1  13    2.25    0.42
  -3  -7  -4    0.93    0.34
  -3   0  13    5.60    0.39
  -3   2  10    2.13    0.28
  -3   3   8    2.92    0.25
  -3   4   4  119.14    0.36
  -2  -9  -3    4.00    0.36
  -2  -5  -4   20.59    0.31
  -2  -3  -4   51.03    0.35
  -2   1  10   37.10    0.38
  -2   2   8    3.86    0.24
  -1  -8  -3   11.06    0.33
  -1  -2  12    0.23    0.29
  -1  -1  11    0.87    0.26
  -1   2   2    9.89    0.10
  -1   2   4    1.88    0.14
   0 -11  -1    0.59    0.25
   0  -9  -2   10.12    0.28
   0  -2  -2   65.09    0.21
   0  -2  10    0.16    0.27
   1 -11   0    9.10    0.27
   1  -9  -1    6.78    0.22
   1  -6  12    2.70    0.34
   1  -5  11   23.88    0.40
   1  -4  10    3.07    0.27
   1  -2   7    6.92    0.22
   2 -10   1    0.29    0.14
   2  -9  11   -0.03    0.29
   2  -7  10    2.09    0.24
   2  -6   9    2.35    0.20
   2  -5   8    3.09    0.20
   2  -4   2   11.01    0.07
   2  -4   6   23.51    0.21
 -10   5   0   -0.06    0.18
  -9   2  -3    2.54    0.31
  -8   0  -4    0.73    0.35
  -8   4  -2    0.15    0.19
  -7   1  -4    0.15    0.26
  -7   3  -3   15.37    0.24
  -7   6   4    1.95    0.15
  -6   3  -3   12.00    0.19
  -6   4  10    3.85    0.33
  -4   4   7   10.81    0.25
  -3   0  -4  141.36    0.46
  -2  -6  -4    0.04    0.25
  -2  -2  -4   14.61    0.22
  -2   0  11    8.06    0.34
  -2   3   4    3.15    0.14
  -1  -3  13    2.97    0.37
  -1   0   9    1.70    0.25
  -1   1  -1    2.80    0.04
  -1   1   7    0.04    0.19
  -1   2   3    4.92    0.11
   0  -5  13    0.18    0.40
   0  -4  12    0.68    0.33
   0  -3  11    9.03    0.32
   0   0   6   22.22    0.23
   1  -8  13    0.44    0.39
 -10   6   3    0.23    0.10
  -8   1  -4    4.18    0.34
  -8   3  -3    1.40    0.22
  -8   5  -1    6.19    0.16
  -8   6   6    8.77    0.23
  -7   5  -1   13.49    0.15
  -6  -4  -5    7.51    0.44
  -6  -3  -5    5.28    0.43
  -6  -2  -5    0.73    0.35
  -5  -4  -5    0.65    0.34
  -5  -3  -5    1.78    0.32
  -5  -2  -5    4.49    0.31
  -5   2  12   -0.10    0.34
  -5   3  -3   33.85    0.25
  -5   5   1    3.74    0.05
  -5   5   5   12.22    0.20
  -4  -4  -5   11.69    0.36
  -4  -3  -5    0.31    0.26
  -4  -2  -5    1.05    0.26
  -4   1  -4   39.08    0.29
  -4   2  11    0.23    0.31
  -4   3   9   -0.17    0.27
  -3  -8  -4    0.48    0.40
  -3   1  11    2.11    0.34
  -3   3   7    6.08    0.22
  -2 -10  -3    4.09    0.42
  -2  -7  -4    8.47    0.34
  -2  -1  12    0.57    0.33
  -2   3   3    4.57    0.11
  -1 -11  -2    3.07    0.36
  -1  -9  -3    8.03    0.34
  -1  -1  -3   20.25    0.17
   0  -6  -3   32.20    0.30
   0  -5  -3    2.28    0.19
   0  -4  -3   45.40    0.27
   0  -1   8   17.59    0.27
   1 -13   1   13.14    0.33
   1  -7  12    0.14    0.32
   1  -3   8    2.15    0.23
   1  -2   6   19.19    0.21
   2 -13   3    0.09    0.16
   2 -12   2    6.82    0.18
   2 -10  11    2.14    0.27
   2  -8  10   10.92    0.27
   2  -7   0    0.43    0.11
   2  -5   7    1.46    0.16
   2  -4   5    0.52    0.11
  -9   4  -2   13.55    0.31
  -9   6   6    0.57    0.23
  -8   5   9    0.22    0.31
  -8   6   5    4.35    0.19
  -7  -2  -5    0.55    0.42
  -7   2  -4    8.91    0.28
  -7   5   8    2.44    0.29
  -6  -1  -5    0.54    0.33
  -6   2  -4    0.14    0.19
  -6   5   7    0.32    0.20
  -5  -5  -5    0.37    0.35
  -5  -1  -5   12.14    0.31
  -5   4   8    2.45    0.24
  -4  -5  -5    1.33    0.31
  -4  -1  -5    1.60    0.24
  -4   1  12    6.94    0.43
  -3  -5  -5    7.64    0.31
  -3  -4  -5    8.15    0.29
  -3  -3  -5    1.36    0.24
  -3   0  12    8.43    0.39
  -3   2   9   18.89    0.34
  -2  -8  -4    3.95    0.36
  -2  -3  14    0.81    0.38
  -2  -2  13    0.34    0.34
  -2  -1  -4    0.19    0.15
  -2   1   9   35.58    0.37
  -2   2   7    0.49    0.16
  -1  -6  -4    1.19    0.24
  -1  -5  -4   29.83    0.32
  -1  -5  14    0.70    0.40
  -1  -4  -4   -0.08    0.19
  -1  -1  10    6.35    0.28
   0 -12  -1    8.97    0.37
   0 -10  -2    0.84    0.27
   0  -7  -3    0.57    0.20
   0  -2   9   13.47    0.27
   0   0   5    0.59    0.14
   1 -10  -1   17.82    0.28
   1  -7  -2   44.09    0.30
   1  -6  -2   30.03    0.23
   1  -6  11    2.87    0.27
   1  -4   9    1.12    0.23
   1  -3  -1  270.17    0.33
   2 -14   4    0.86    0.17
   2 -11  11    1.12    0.28
   2  -8   0   17.88    0.17
   2  -7   9    2.31    0.20
   2  -6   8    0.10    0.17
   2  -4   4    0.63    0.11
  -9   3  -3    0.83    0.30
  -9   5  -1   18.16    0.25
  -8   2  -4    1.76    0.30
  -7  -1  -5    7.69    0.37
  -7   0  -5    1.98    0.38
  -6   0  -5   12.21    0.35
  -6   3  11    0.96    0.38
  -5   0  -5    3.07    0.27
  -5   2  -4    0.43    0.17
  -5   3  10    0.29    0.31
  -5   4  -2    0.61    0.10
  -4  -6  -5    2.54    0.28
  -4   0  13    0.34    0.42
  -4   4   6   20.60    0.25
  -3  -6  -5    2.75    0.33
  -3  -2  -5    0.05    0.21
  -3  -1  13    6.75    0.42
  -3   2  -3    1.83    0.13
  -1 -10  -3    0.55    0.32
  -1  -7  -4    0.25    0.27
  -1  -4  13    0.98    0.40
  -1  -3  -4   19.79    0.23
  -1  -3  12    0.10    0.33
  -1  -2  11    8.57    0.31
  -1   0   8    0.60    0.19
  -1   1   6   13.99    0.21
   0  -8  -3    0.15    0.21
   0  -6  13    9.57    0.38
   0  -5  12    2.51    0.31
   0  -3  -3   64.65    0.28
   0  -3  10   21.96    0.34
   1 -12   0    2.61    0.24
   1  -8  -2    9.01    0.23
   1  -5  -2    3.63    0.13
   1  -5  10   16.21    0.32
   2 -11   1   12.26    0.21
   2  -9   0    7.72    0.17
   2  -9  10    0.70    0.21
   2  -6   0    0.46    0.08
   2  -4   3   18.88    0.11
  -9   6   5    1.07    0.19
  -8   6   3    1.93    0.10
  -8   6   4    8.63    0.17
  -7   4  10    1.79    0.34
  -6   4   9    0.48    0.26
  -6   5   6    2.89    0.21
  -5   5   3    9.92    0.14
  -4   0  -5    4.42    0.24
  -4   2  10    1.70    0.30
  -4   4  -1   85.25    0.15
  -3  -7  -5    0.33    0.35
  -3  -1  -5   42.10    0.35
  -3   1  -4    8.96    0.17
  -3   1  10    2.80    0.28
  -3   3   6   40.69    0.30
  -2  -9  -4   -0.08    0.38
  -2  -5  -5    6.32    0.28
  -2  -4  -5   15.12    0.30
  -2  -3  -5   19.79    0.28
  -2   0  10   12.32    0.32
  -2   1  -3   16.91    0.15
  -2   2   6    2.20    0.19
  -1  -8  -4   20.75    0.42
  -1  -2  -4    0.22    0.15
   0 -11  -2    1.60    0.34
   0  -4  11   20.64    0.37
   0  -1   7   70.97    0.36
   1 -11  -1   -0.20    0.24
   1  -8  12   -0.02    0.31
   1  -3   7   67.83    0.36
   1  -2   0  180.12    0.13
   1  -2   5    5.28    0.14
   2 -10  10    3.38    0.26
   2  -8   9    4.26    0.23
   2  -5   6   41.91    0.24
  -8   5   8   -0.02    0.29
  -7   1  -5    0.49    0.29
  -7   4  -3    3.29    0.18
  -6   1  -5   37.73    0.41
  -6   2  12    0.61    0.41
  -5   1  -5    0.55    0.21
  -5   2  11    0.15    0.33
  -5   5   2    7.78    0.10
  -4   2  -4    7.43    0.17
  -4   3  -3    3.53    0.15
  -4   3   8    8.96    0.25
  -4   4   5    0.83    0.17
  -3   2   8   53.29    0.39
  -2  -6  -5    2.91    0.33
  -2  -4  14    1.23    0.43
  -2  -2  -5   31.33    0.30
  -2  -1  11    2.45    0.30
  -2   0  -4    1.25    0.15
  -2   1   8   -0.21    0.20
  -1  -6  14    1.52    0.44
   0  -9  -3    9.18    0.30
   0  -7  13    1.81    0.38
   0   0   4    3.06    0.12
   1  -9  -2    2.67    0.21
   1  -9  12    0.86    0.36
   1  -7  11    0.52    0.26
   1  -4  -2  117.54    0.31
   2 -12  10    1.92    0.27
   2 -11  10    0.11    0.24
   2 -10   0    1.02    0.15
   2  -7   8   25.69    0.28
   2  -6   7   12.52    0.21
  -9   6   4    3.60    0.16
  -8   1  -5    0.34    0.37
  -8   4  -3    4.13    0.25
  -7   3  -4    6.66    0.23
  -7   5   7    1.40    0.21
  -6  -2  -6   -0.26    0.40
  -6   3  -4   -0.16    0.17
  -6   5  -1    0.58    0.08
  -5  -4  -6    0.06    0.39
  -5  -3  -6    9.80    0.43
  -5  -2  -6    1.64    0.33
  -5   3   9    7.28    0.29
  -5   4   7   10.70    0.24
  -4  -4  -6    3.95    0.36
  -4  -3  -6    3.96    0.33
  -4   1  11   11.70    0.38
  -3   0  -5    1.39    0.22
  -3   0  11    3.80    0.32
  -2  -7  -5    8.07    0.38
  -2  -3  13    1.25    0.27
  -2  -2  12   10.02    0.30
  -1  -9  -4    0.99    0.33
  -1  -5  13    3.44    0.36
  -1  -1   9   18.56    0.25
  -1   0  -3    1.31    0.10
  -1   1   5    0.30    0.13
   0  -6  -4   44.47    0.35
   0  -6  12   11.30    0.40
   0  -5  -4    7.91    0.23
   0  -2  -3   10.56    0.15
   0  -2   8    0.62    0.21
   0  -1  -2    4.66    0.10
   1 -13   0   -0.02    0.31
   1  -6  10    0.43    0.22
   1  -5   9   18.35    0.28
   1  -4   8    0.64    0.19
   2 -13   2    0.10    0.18
  -9   6   3   15.69    0.16
  -8   3  -4    0.15    0.25
  -7   3  11    1.71    0.37
  -7   4   9    0.04    0.30
  -6  -1  -6    0.22    0.35
  -6   2  -5    4.79    0.25
  -6   3  10    0.73    0.30
  -6   4  -3    0.96    0.13
  -6   4   8    8.12    0.27
  -5  -1  -6    9.97    0.37
  -5   1  12    0.31    0.38
  -4  -5  -6   -0.23    0.36
  -4  -2  -6    0.19    0.26
  -4   0  12   -0.19    0.36
  -4   1  -5   71.97    0.41
  -3  -5  -6    0.48    0.29
  -3  -4  -6   19.00    0.39
  -3  -3  -6    3.97    0.28
  -3  -3  14    5.64    0.47
  -3  -2  13    0.73    0.36
  -3  -1  12    1.51    0.31
  -3   3  -2   11.49    0.10
  -3   3   5   16.82    0.20
  -2  -8  -5    1.03    0.40
  -2  -1  -5    1.18    0.18
  -2   0   9    5.43    0.23
  -2   2  -2   26.01    0.12
  -2   2   5    1.22    0.14
  -1  -6  -5   -0.08    0.25
  -1  -5  -5   42.34    0.40
  -1  -4  -5   29.18    0.32
  -1  -4  12    2.09    0.34
  -1  -3  11    4.14    0.31
  -1  -2  10    4.00    0.26
  -1  -1  -4   96.19    0.35
  -1   0   7    0.29    0.17
   0 -10  -3    0.14    0.29
   0  -7  -4    0.06    0.23
   0  -5  11    8.76    0.33
   0  -4  -4    2.77    0.19
   0  -3   9    0.97    0.22
   0  -1   6   53.92    0.29
   0   0   3   35.59    0.17
   1 -12  -1    0.83    0.29
   1 -10  -2    2.19    0.22
   1 -10  12   -0.16    0.34
   1  -3   6   51.02    0.28
   1  -2   4   15.26    0.15
   2 -12   1    1.99    0.20
   2  -9   9    4.79    0.20
   2  -5   5   14.16    0.15
  -9   4  -3    5.97    0.28
  -8   5  -2    5.80    0.18
  -7   0  -6   -0.01    0.41
  -7   2  -5    7.09    0.30
  -6   0  -6   27.67    0.46
  -5   0  -6    9.67    0.33
  -5   0  13    1.25    0.39
  -5   2  -5    0.08    0.20
  -5   3  -4   33.39    0.25
  -4  -1  -6   11.24    0.31
  -4  -1  13    1.05    0.37
  -4   2   9   -0.06    0.27
  -4   3   7   10.44    0.23
  -4   4   4   21.78    0.19
  -3  -6  -6    4.15    0.41
  -3  -2  -6   12.78    0.30
  -3   1   9    2.12    0.25
  -2  -5  14    5.16    0.47
  -1 -10  -4    2.25    0.41
  -1  -7  -5    2.68    0.33
  -1  -7  14   -0.09    0.43
  -1  -3  -5   25.89    0.29
   0  -8  -4    0.08    0.25
   0  -8  13   -0.02    0.35
   0  -4  10    5.48    0.26
   1  -8  11    8.11    0.31
   1  -7  -3    0.83    0.18
   1  -6  -3    7.67    0.19
   2 -11   0   13.94    0.24
   2 -10   9    4.14    0.23
   2  -8  -1   16.85    0.19
   2  -8   8   20.53    0.27
   2  -7  -1    2.04    0.13
   2  -5   0  116.24    0.20
  -8   2  -5    0.19    0.32
  -7   5  -2   13.85    0.17
  -6   2  11    0.51    0.34
  -5   2  10    1.55    0.31
  -5   4   6    8.79    0.20
  -4   0  -6   -0.01    0.24
  -3  -1  -6    1.31    0.23
  -3   2   7   17.43    0.28
  -2  -5  -6    0.45    0.29
  -2  -4  -6    6.02    0.28
  -2  -4  13    0.47    0.36
  -2  -3  -6    2.77    0.24
  -2  -1  10    1.18    0.25
  -2   1   7    0.15    0.17
  -1  -8  -5    1.30    0.35
  -1  -6  13    1.99    0.38
  -1  -1   8   12.79    0.25
  -1   1   4  150.82    0.36
   0 -11  -3    0.04    0.34
   0  -9  -4    0.12    0.30
   0  -7  12    0.70    0.33
   0  -3  -4   24.43    0.23
   0   0   2   77.16    0.18
   1 -11  -2    6.39    0.32
   1  -8  -3    4.36    0.21
   1  -7  10    0.93    0.22
   1  -5  -3   27.72    0.23
   1  -4   7   62.93    0.35
   1  -3  -2   67.93    0.22
   1  -2   3    6.37    0.09
   2 -11   9    0.31    0.21
   2  -9  -1    0.75    0.16
   2  -7   7    1.87    0.15
   2  -6  -1    8.68    0.13
   2  -6   6   48.80    0.25
  -9   5  -2    0.07    0.19
  -8   4   9    5.74    0.33
  -7   1  -6    0.71    0.34
  -7   3  10    3.63    0.34
  -6   1  -6   11.60    0.36
  -6   5   4   13.60    0.18
  -5  -3  -7   12.05    0.52
  -5   1  -6    0.35    0.26
  -5   3   8   14.96    0.27
  -5   4  -3    5.66    0.15
  -4   1  10    8.35    0.31
  -3  -4  14    0.66    0.37
  -3   0  10    0.35    0.25
  -3   1  -5   24.19    0.26
  -3   2  -4   18.06    0.18
  -2  -7  -6    4.03    0.39
  -2  -6  -6    0.21    0.33
  -2  -3  12    1.93    0.29
  -2  -2  11   12.87    0.32
  -2   0  -5   67.36    0.35
  -2   1  -4   93.53    0.32
  -1  -2  -5    9.19    0.21
  -1   1  -2  849.58    0.56
   0  -9  13    1.84    0.38
   0  -2   7    9.77    0.22
   0  -1   5   14.72    0.17
   1  -9  -3   10.72    0.27
   1  -9  11    4.56    0.28
   1  -6   9    0.26    0.21
   1  -5   8    0.18    0.18
   1  -4  -3   79.19    0.31
   2 -12   9    0.09    0.21
   2 -10  -1   13.39    0.23
   2  -5   4   37.16    0.17
  -9   5   7    1.83    0.25
  -8   4  -4    9.04    0.29
  -7   3  -5   -0.02    0.23
  -7   4  -4   41.12    0.34
  -7   4   8    0.36    0.23
  -6   1  12    1.52    0.33
  -6   3  -5    1.02    0.23
  -6   3   9    8.27    0.30
  -6   4   7    2.13    0.20
  -5  -2  -7    3.05    0.43
  -5   1  11    3.18    0.34
  -4  -4  -7    1.93    0.41
  -4  -3  -7    2.09    0.36
  -4  -2  -7    2.21    0.32
  -4   0  11    0.05    0.32
  -4   2  -5    1.40    0.18
  -4   3  -4   10.05    0.19
  -3  -3  13    2.43    0.38
  -3  -2  12    5.87    0.36
  -3  -1  11    8.59    0.32
  -3   0  -6    9.37    0.25
  -3   3   4    0.63    0.12
  -2  -6  14    2.61    0.43
  -2  -2  -6    0.17    0.15
  -2   0   8   24.55    0.29
  -2   2   4  108.68    0.32
  -1  -9  -5    2.28    0.40
  -1  -5  12    4.99    0.32
  -1  -4  11   -0.04    0.27
  -1  -3  10    3.94    0.26
  -1  -2   9   21.83    0.29
  -1   0   6    0.03    0.11
   0 -10  -4    2.56    0.34
   0  -6  -5   10.91    0.29
   0  -6  11    0.31    0.28
   0  -5  -5    0.07    0.22
   0  -3   8   16.21    0.28
   1  -3   5  163.34    0.39
   2 -13   1    0.23    0.22
   2 -12   0    7.96    0.25
   2  -9   8    0.47    0.18
  -8   3  -5    1.01    0.30
  -7   2  -6    6.98    0.36
  -6  -1  -7    0.42    0.38
  -6   2  -6    0.11    0.28
  -6   4  -4    0.21    0.19
  -5  -1  -7    2.88    0.35
  -5  -1  13   -0.29    0.42
  -5   0  12    2.31    0.37
  -4  -3  14    2.63    0.40
  -4  -2  13    6.41    0.42
  -4  -1  -7    6.93    0.31
  -4  -1  12   -0.18    0.32
  -4   1  -6   53.51    0.41
  -4   2   8   18.07    0.29
  -4   3   6  174.20    0.53
  -4   4  -2   24.87    0.13
  -3  -5  -7    1.72    0.39
  -3  -4  -7    0.38    0.35
  -3  -3  -7    8.13    0.35
  -3   1   8    1.82    0.22
  -2  -1  -6   16.86    0.27
  -1  -7  13    0.40    0.35
  -1  -6  -6   15.73    0.38
  -1  -5  -6    2.96    0.30
  -1  -4  -6   32.52    0.36
  -1  -1  -5    1.48    0.16
  -1   0  -4   45.37    0.23
  -1   1   3    3.94    0.10
   0  -8  12    0.38    0.32
   0  -7  -5    6.48    0.31
   0  -5  10    1.08    0.23
   0  -4  -5    1.73    0.22
   0  -4   9   72.57    0.45
   0  -2  -4    1.37    0.14
   0  -1  -3  220.33    0.39
   1 -12  -2    4.76    0.35
   1 -10  -3    3.17    0.27
   1 -10  11    4.53    0.28
   1  -8  10    5.95    0.25
  -9   4  -4    8.47    0.36
  -8   3  10    1.64    0.38
  -7   2  11    2.94    0.39
  -7   5   5    3.86    0.17
  -6   0  -7    6.16    0.40
  -6   2  10    1.14    0.28
  -6   5  -2    9.84    0.13
  -5   0  -7    0.15    0.33
  -5   2  -6   13.52    0.27
  -5   2   9   23.01    0.34
  -5   3  -5    1.59    0.17
  -5   4   5    1.33    0.14
  -3  -2  -7    3.18    0.29
  -3   2   6    6.52    0.19
  -3   3  -3   43.47    0.19
  -2  -5  13    1.02    0.35
  -2  -1   9    7.54    0.25
  -2   1   6    4.23    0.17
  -2   2  -3  329.99    0.44
  -1  -7  -6    3.63    0.37
  -1  -3  -6    5.41    0.24
   0  -8  -5   10.82    0.37
   1 -11  11   -0.11    0.27
   1  -8  -4    3.36    0.23
   1  -7  -4    0.85    0.20
   1  -7   9    0.23    0.22
   1  -6  -4   14.46    0.24
   1  -5  -4    1.92    0.18
   1  -2  -1  532.66    0.38
   1  -2   2    3.94    0.07
   2 -13   8    1.55    0.20
   2 -11  -1    0.40    0.22
   2 -10   8    7.44    0.21
   2  -9  -2    6.57    0.22
   2  -8  -2   20.74    0.21
   2  -8   7    8.41    0.17
   2  -7  -2   10.30    0.16
   2  -7   6    0.25    0.13
   2  -6   5   31.61    0.19
   2  -5  -1   60.45    0.20
  -8   4   8    1.43    0.29
  -8   5  -3    0.04    0.18
  -7   1  12    0.14    0.40
  -7   5  -3    6.06    0.17
  -6   1  -7    2.02    0.38
  -6   5   3   20.26    0.17
  -5   3   7    0.16    0.19
  -4   0  -7    8.93    0.31
  -4   1   9    0.47    0.24
  -3  -5  14    0.46    0.41
  -3  -1  -7   13.64    0.32
  -3   0   9    0.34    0.21
  -3   1  -6    5.85    0.23
  -3   3   3    8.66    0.13
  -2  -7  14    0.91    0.42
  -2  -6  -7    2.33    0.42
  -2  -5  -7    0.29    0.30
  -2  -4  -7   15.21    0.37
  -2  -4  12    2.11    0.30
  -2  -3  -7    0.88    0.27
  -2  -3  11    2.70    0.26
  -2  -2  10    7.41    0.27
  -1  -8  -6    0.36    0.39
  -1  -6  12    2.88    0.35
  -1  -2  -6   71.12    0.41
  -1  -1   7    4.75    0.15
   0  -9  -5    0.71    0.36
   0  -9  12    0.05    0.31
   0  -7  11    4.11    0.27
   0  -3  -5   74.56    0.38
   0  -2   6   56.99    0.29
   1 -11  -3    7.60    0.34
   1  -9  -4    3.21    0.28
   1  -9  10    0.25    0.23
   1  -6   8   40.98    0.32
   1  -4   6   12.37    0.17
   1  -3  -3   10.87    0.15
   2 -12   8   20.74    0.27
   2 -11   8    0.02    0.18
   2  -6  -2    1.35    0.15
   2  -5   3    0.03    0.07
  -9   5  -3    0.64    0.22
  -9   5   6    9.34    0.27
  -7   3   9    1.54    0.27
  -7   4   7    3.55    0.24
  -6   1  11   11.22    0.40
  -6   3   8   17.36    0.29
  -6   4   6   12.50    0.22
  -5   1  -7    1.98    0.30
  -5   1  10    3.93    0.31
  -5   4  -4   53.78    0.28
  -4  -4  14   -0.04    0.42
  -4  -3  -8    0.66    0.36
  -4   2  -6    1.41    0.20
  -4   4   2    4.31    0.09
  -3  -4  13    0.98    0.34
  -3  -1  10   21.25    0.34
  -3   2  -5    0.01    0.15
  -2  -2  -7   12.10    0.31
  -2   0  -6    3.58    0.21
  -2   1  -5   75.26    0.34
  -2   2   3   53.82    0.20
  -1  -8  13    1.58    0.38
  -1  -5  11   28.10    0.39
  -1  -2   8    4.76    0.21
  -1   0   5  155.25    0.40
  -1   1  -3  168.35    0.32
   0  -6  10    2.60    0.25
   0  -1   4    1.44    0.11
   1  -5   7    1.43    0.16
   1  -4  -4    2.41    0.17
   2 -13   0    5.84    0.28
   2 -12  -1    9.94    0.30
   2 -10  -2   14.90    0.25
 -10   6   1    0.00    0.00
  -8   2  11    0.95    0.39
  -8   4  -5    5.42    0.34
  -7   3  -6    4.34    0.30
  -7   4  -5    6.19    0.24
  -6  -1  13    0.09    0.42
  -6   0  12    5.03    0.41
  -6   3  -6    2.27    0.25
  -5  -3  14    1.34    0.43
  -5  -2  13    0.38    0.35
  -5  -1  -8    0.38    0.41
  -5   0  11    2.28    0.33
  -4  -3  13    0.68    0.36
  -4  -2  -8    8.01    0.44
  -4  -1  11    3.08    0.28
  -4   0  10    0.21    0.28
  -4   1  -7    5.47    0.30
  -4   2   7   22.61    0.28
  -4   3  -5    0.23    0.16
  -4   3   5   47.43    0.27
  -3  -4  -8    1.33    0.41
  -3  -3  -8    4.24    0.37
  -3  -3  12    1.08    0.28
  -3  -2  11    5.72    0.29
  -3   0  -7    0.23    0.25
  -2  -6  13   14.79    0.46
  -2   0   7   10.51    0.21
  -1  -6  -7   11.27    0.39
  -1  -5  -7    0.26    0.33
  -1  -4  -7    3.12    0.26
  -1  -4  10    3.42    0.25
  -1  -3   9   -0.25    0.21
  -1   0  -5   70.92    0.32
   0 -10  12    1.51    0.33
   0  -7  -6   20.00    0.42
   0  -6  -6    0.61    0.28
   0  -5  -6    0.40    0.25
   0  -5   9    0.26    0.22
   0  -4  -6   17.84    0.28
   0  -4   8   51.65    0.35
   0  -3   7    2.93    0.19
   0  -2  -5    1.43    0.17
   0  -1  -4    3.62    0.14
   1 -10  -4   -0.20    0.29
   1 -10  10    3.88    0.26
   1  -3   4    5.29    0.11
   2  -9   7  109.02    0.40
  -9   4   8    3.45    0.29
  -7   2  -7    0.36    0.37
  -7   2  10    2.80    0.33
  -6   2  -7    0.38    0.31
  -6   4  -5   13.88    0.24
  -5  -1  12    1.21    0.34
  -5   0  -8    1.38    0.35
  -4  -2  12    5.72    0.26
  -4  -1  -8    9.39    0.41
  -3  -6  14    0.33    0.44
  -3  -2  -8    2.02    0.32
  -3   1   7    7.76    0.23
  -2  -8  14   -0.09    0.39
  -2  -5  12    3.28    0.34
  -2  -1  -7    0.01    0.22
  -2   1   5   25.50    0.21
  -2   2  -4  144.64    0.36
  -1  -9  13    0.11    0.37
  -1  -7  -7    0.64    0.40
  -1  -7  12   -0.24    0.31
  -1  -3  -7    4.49    0.27
  -1  -1  -6    0.03    0.20
  -1   1   2    1.12    0.08
   0  -8  -6    8.84    0.39
   0  -8  11    0.48    0.26
   1  -8  -5    8.27    0.30
   1  -8   9   -0.02    0.19
   1  -7  -5    3.58    0.25
   1  -6  -5   -0.11    0.21
   1  -5  -5   20.89    0.27
   1  -2  -2    9.84    0.10
   2 -11  -2    0.52    0.22
   2  -8  -3    0.93    0.17
   2  -7  -3    3.38    0.16
   0   0   0    0.00    0.00
;
_shelx_hkl_checksum              32905
loop_
_space_group_symop_operation_xyz
'x, y, z'
'-x, -y, -z'
loop_
_atom_site_label
_atom_site_type_symbol
_atom_site_fract_x
_atom_site_fract_y
_atom_site_fract_z
_atom_site_U_iso_or_equiv
_atom_site_adp_type
_atom_site_occupancy
_atom_site_site_symmetry_order
_atom_site_calc_flag
_atom_site_refinement_flags_posn
_atom_site_refinement_flags_adp
S1 S 0.17777(6) 0.91908(4) 0.84373(4) 0.04092(11) Uani 1 1 d . .
S2 S 0.71107(5) 0.67867(4) 0.96821(4) 0.03294(10) Uani 1 1 d . .
N1 N 0.42384(16) 0.77215(12) 0.87510(12) 0.0295(2) Uani 1 1 d . .
N2 N 0.16754(15) 0.65649(12) 0.64922(12) 0.0314(2) Uani 1 1 d . .
C1 C 0.26200(18) 0.76364(14) 0.77901(14) 0.0277(3) Uani 1 1 d . .
C2 C 0.50041(17) 0.66050(14) 0.83435(14) 0.0267(2) Uani 1 1 d . .
C3 C 0.41724(19) 0.54274(14) 0.69960(15) 0.0320(3) Uani 1 1 d . .
H3 H 0.473409 0.464241 0.669717 0.038 Uiso 1 1 calc R U
C4 C 0.2496(2) 0.54656(15) 0.61247(15) 0.0345(3) Uani 1 1 d . .
H4 H 0.187846 0.466631 0.520672 0.041 Uiso 1 1 calc R U
C5 C -0.03888(19) 0.88259(14) 0.70520(15) 0.0306(3) Uani 1 1 d . .
C6 C -0.0511(2) 0.86744(15) 0.56497(15) 0.0338(3) Uani 1 1 d . .
H6 H 0.056927 0.869747 0.539429 0.041 Uiso 1 1 calc R U
C7 C -0.2211(2) 0.84898(16) 0.46251(17) 0.0418(4) Uani 1 1 d . .
H7 H -0.230474 0.836268 0.365617 0.050 Uiso 1 1 calc R U
C8 C -0.3766(2) 0.84894(17) 0.50036(19) 0.0458(4) Uani 1 1 d . .
H8 H -0.492964 0.837230 0.429800 0.055 Uiso 1 1 calc R U
C9 C -0.3647(2) 0.86570(18) 0.6393(2) 0.0480(4) Uani 1 1 d . .
H9 H -0.472698 0.866557 0.664959 0.058 Uiso 1 1 calc R U
C10 C -0.1960(2) 0.88144(16) 0.74272(18) 0.0392(3) Uani 1 1 d . .
H10 H -0.188304 0.891357 0.838574 0.047 Uiso 1 1 calc R U
C11 C 0.77038(18) 0.51359(14) 0.88448(14) 0.0287(3) Uani 1 1 d . .
C12 C 0.7251(2) 0.39847(16) 0.91834(16) 0.0369(3) Uani 1 1 d . .
H12 H 0.659271 0.406879 0.983906 0.044 Uiso 1 1 calc R U
C13 C 0.7757(2) 0.27083(16) 0.85670(16) 0.0405(3) Uani 1 1 d . .
H13 H 0.745331 0.191874 0.880498 0.049 Uiso 1 1 calc R U
C14 C 0.8698(2) 0.25840(16) 0.76103(16) 0.0372(3) Uani 1 1 d . .
H14 H 0.904228 0.170736 0.718524 0.045 Uiso 1 1 calc R U
C15 C 0.9143(2) 0.37302(16) 0.72678(17) 0.0401(3) Uani 1 1 d . .
H15 H 0.978032 0.363691 0.659732 0.048 Uiso 1 1 calc R U
C16 C 0.8665(2) 0.50180(15) 0.78963(16) 0.0356(3) Uani 1 1 d . .
H16 H 0.899711 0.581429 0.767596 0.043 Uiso 1 1 calc R U
loop_
_atom_site_aniso_label
_atom_site_aniso_U_11
_atom_site_aniso_U_22
_atom_site_aniso_U_33
_atom_site_aniso_U_23
_atom_site_aniso_U_13
_atom_site_aniso_U_12
S1 0.0433(2) 0.03532(19) 0.03140(18) 0.00440(14) 0.00262(15) 0.02139(16)
S2 0.03176(17) 0.03235(17) 0.02877(16) 0.00871(13) 0.00482(13) 0.01387(14)
N1 0.0311(6) 0.0288(5) 0.0273(5) 0.0107(4) 0.0080(4) 0.0111(5)
N2 0.0292(6) 0.0272(5) 0.0313(5) 0.0088(5) 0.0049(5) 0.0083(4)
C1 0.0287(6) 0.0269(6) 0.0283(6) 0.0119(5) 0.0091(5) 0.0095(5)
C2 0.0260(6) 0.0274(6) 0.0271(6) 0.0121(5) 0.0082(5) 0.0081(5)
C3 0.0315(7) 0.0262(6) 0.0335(6) 0.0081(5) 0.0082(5) 0.0104(5)
C4 0.0329(7) 0.0265(6) 0.0325(6) 0.0053(5) 0.0038(6) 0.0068(5)
C5 0.0330(7) 0.0253(6) 0.0329(6) 0.0117(5) 0.0090(5) 0.0122(5)
C6 0.0365(7) 0.0327(7) 0.0338(7) 0.0132(6) 0.0129(6) 0.0144(6)
C7 0.0484(9) 0.0373(7) 0.0338(7) 0.0130(6) 0.0062(7) 0.0148(7)
C8 0.0353(8) 0.0367(8) 0.0530(9) 0.0165(7) -0.0003(7) 0.0091(6)
C9 0.0330(8) 0.0463(9) 0.0727(12) 0.0300(9) 0.0217(8) 0.0122(7)
C10 0.0430(8) 0.0407(8) 0.0458(8) 0.0245(7) 0.0214(7) 0.0165(6)
C11 0.0270(6) 0.0295(6) 0.0269(6) 0.0107(5) 0.0051(5) 0.0107(5)
C12 0.0452(8) 0.0394(7) 0.0359(7) 0.0208(6) 0.0186(6) 0.0167(6)
C13 0.0530(9) 0.0338(7) 0.0384(7) 0.0192(6) 0.0138(7) 0.0145(7)
C14 0.0373(7) 0.0322(7) 0.0342(7) 0.0080(6) 0.0061(6) 0.0152(6)
C15 0.0406(8) 0.0389(8) 0.0415(8) 0.0118(6) 0.0201(7) 0.0132(6)
C16 0.0366(7) 0.0323(7) 0.0402(7) 0.0151(6) 0.0160(6) 0.0096(6)
loop_
_atom_type_symbol
_atom_type_description
_atom_type_scat_dispersion_real
_atom_type_scat_dispersion_imag
_atom_type_scat_source
C C 0.0033 0.0016 'International Tables Vol C Tables 4.2.6.8 and 6.1.1.4'
H H 0.0000 0.0000 'International Tables Vol C Tables 4.2.6.8 and 6.1.1.4'
N N 0.0061 0.0033 'International Tables Vol C Tables 4.2.6.8 and 6.1.1.4'
S S 0.1246 0.1234 'International Tables Vol C Tables 4.2.6.8 and 6.1.1.4'
loop_
_geom_angle_atom_site_label_1
_geom_angle_atom_site_label_2
_geom_angle_atom_site_label_3
_geom_angle
C1 S1 C5 104.13(7)
C2 S2 C11 101.76(7)
C2 N1 C1 115.87(11)
C1 N2 C4 114.47(12)
N2 C1 N1 127.69(12)
N2 C1 S1 120.79(10)
N1 C1 S1 111.51(10)
N1 C2 C3 122.05(12)
N1 C2 S2 113.02(10)
C3 C2 S2 124.92(11)
C4 C3 C2 116.08(13)
C4 C3 H3 122.0
C2 C3 H3 122.0
N2 C4 C3 123.80(13)
N2 C4 H4 118.1
C3 C4 H4 118.1
C10 C5 C6 120.01(13)
C10 C5 S1 118.54(11)
C6 C5 S1 121.23(11)
C7 C6 C5 119.67(14)
C7 C6 H6 120.2
C5 C6 H6 120.2
C8 C7 C6 120.19(15)
C8 C7 H7 119.9
C6 C7 H7 119.9
C9 C8 C7 120.31(15)
C9 C8 H8 119.8
C7 C8 H8 119.8
C8 C9 C10 120.35(16)
C8 C9 H9 119.8
C10 C9 H9 119.8
C9 C10 C5 119.46(15)
C9 C10 H10 120.3
C5 C10 H10 120.3
C16 C11 C12 120.12(13)
C16 C11 S2 120.15(11)
C12 C11 S2 119.70(11)
C11 C12 C13 119.98(14)
C11 C12 H12 120.0
C13 C12 H12 120.0
C14 C13 C12 119.98(14)
C14 C13 H13 120.0
C12 C13 H13 120.0
C13 C14 C15 120.03(14)
C13 C14 H14 120.0
C15 C14 H14 120.0
C14 C15 C16 120.34(14)
C14 C15 H15 119.8
C16 C15 H15 119.8
C11 C16 C15 119.53(14)
C11 C16 H16 120.2
C15 C16 H16 120.2
loop_
_geom_bond_atom_site_label_1
_geom_bond_atom_site_label_2
_geom_bond_distance
S1 C1 1.7624(14)
S1 C5 1.7704(16)
S2 C2 1.7582(15)
S2 C11 1.7756(14)
N1 C2 1.3321(17)
N1 C1 1.3338(17)
N2 C1 1.3262(18)
N2 C4 1.3397(18)
C2 C3 1.3905(19)
C3 C4 1.3699(19)
C3 H3 0.9500
C4 H4 0.9500
C5 C10 1.384(2)
C5 C6 1.386(2)
C6 C7 1.382(2)
C6 H6 0.9500
C7 C8 1.373(2)
C7 H7 0.9500
C8 C9 1.369(3)
C8 H8 0.9500
C9 C10 1.386(2)
C9 H9 0.9500
C10 H10 0.9500
C11 C16 1.380(2)
C11 C12 1.382(2)
C12 C13 1.385(2)
C12 H12 0.9500
C13 C14 1.375(2)
C13 H13 0.9500
C14 C15 1.378(2)
C14 H14 0.9500
C15 C16 1.385(2)
C15 H15 0.9500
C16 H16 0.9500
