#------------------------------------------------------------------------------
#$Date: 2019-11-04 14:49:10 +0200 (Mon, 04 Nov 2019) $
#$Revision: 223058 $
#$URL: file:///home/coder/svn-repositories/cod/cif/4/03/45/4034569.cif $
#------------------------------------------------------------------------------
#
# This file is available in the Crystallography Open Database (COD),
# http://www.crystallography.net/
#
# All data on this site have been placed in the public domain by the
# contributors.
#
data_4034569
loop_
_publ_author_name
'Qin, Pengjin'
'Holland, Ryan L.'
'Bunker, Kevin D.'
'O'Connor, Joseph M'
'Baldridge, Kim K.'
'Rheingold, Arnold L.'
_publ_section_title
;
 Acid-Induced Liberation of Polysubstituted Cyclopentadiene Ligands from
 Cyclopentadienyl Cobalt: A [2 + 2 + 1] Cycloaddition Route toward
 1,2,4-Trisubstituted Cyclopentadienes.
;
_journal_issue                   21
_journal_name_full               'The Journal of organic chemistry'
_journal_page_first              13992
_journal_page_last               14004
_journal_paper_doi               10.1021/acs.joc.9b02182
_journal_volume                  84
_journal_year                    2019
_chemical_formula_moiety         'C4 H8 Co F6 O8'
_chemical_formula_sum            'C4 H8 Co F6 O8'
_chemical_formula_weight         357.03
_space_group_crystal_system      triclinic
_space_group_IT_number           2
_space_group_name_Hall           '-P 1'
_space_group_name_H-M_alt        'P -1'
_atom_sites_solution_hydrogens   difmap
_atom_sites_solution_primary     dual
_atom_sites_solution_secondary   difmap
_audit_creation_date             2017-01-12
_audit_creation_method
;
Olex2 1.2-beta
(compiled 2017.01.04 svn.r3372 for OlexSys, GUI svn.r5289)
;
_cell_angle_alpha                75.059(12)
_cell_angle_beta                 64.690(11)
_cell_angle_gamma                71.468(11)
_cell_formula_units_Z            2
_cell_length_a                   8.1249(14)
_cell_length_b                   9.0422(14)
_cell_length_c                   9.2650(15)
_cell_measurement_reflns_used    1392
_cell_measurement_temperature    100.0
_cell_measurement_theta_max      23.337
_cell_measurement_theta_min      3.118
_cell_volume                     577.49(17)
_computing_cell_refinement       'SAINT v8.37A (Bruker, 2016)'
_computing_data_collection       'APEX3 v2016.1-0 (Bruker, 2016)'
_computing_data_reduction        'SAINT v8.37A (Bruker, 2016)'
_computing_molecular_graphics    'Olex2 (Dolomanov et al., 2009)'
_computing_publication_material  'Olex2 (Dolomanov et al., 2009)'
_computing_structure_refinement  'ShelXL (Sheldrick, 2015)'
_computing_structure_solution    'ShelXT (Sheldrick, 2015)'
_diffrn_ambient_temperature      100.0
_diffrn_detector                 'Bruker APEX-II CCD'
_diffrn_detector_area_resol_mean 8.258
_diffrn_detector_type            'CCD Area Detector'
_diffrn_measured_fraction_theta_full 1.000
_diffrn_measured_fraction_theta_max 0.999
_diffrn_measurement_device       'Kappa Four-Circle Diffractometer'
_diffrn_measurement_device_type  'Bruker APEX II Ultra'
_diffrn_measurement_method       '\w and \f scans'
_diffrn_radiation_monochromator  'Double Bounce Multilayer Mirrors'
_diffrn_radiation_probe          x-ray
_diffrn_radiation_type           MoK\a
_diffrn_radiation_wavelength     0.71073
_diffrn_radiation_xray_symbol    K-L~3~
_diffrn_reflns_av_unetI/netI     0.0667
_diffrn_reflns_Laue_measured_fraction_full 1.000
_diffrn_reflns_Laue_measured_fraction_max 0.999
_diffrn_reflns_limit_h_max       9
_diffrn_reflns_limit_h_min       -9
_diffrn_reflns_limit_k_max       10
_diffrn_reflns_limit_k_min       -10
_diffrn_reflns_limit_l_max       11
_diffrn_reflns_limit_l_min       -11
_diffrn_reflns_number            4179
_diffrn_reflns_point_group_measured_fraction_full 1.000
_diffrn_reflns_point_group_measured_fraction_max 0.999
_diffrn_reflns_theta_full        25.000
_diffrn_reflns_theta_max         25.389
_diffrn_reflns_theta_min         2.400
_diffrn_source                   'Micro Focus Rotating Anode'
_diffrn_source_type              'Bruker TXS'
_diffrn_standards_number         0
_exptl_absorpt_coefficient_mu    1.603
_exptl_absorpt_correction_T_max  0.091642
_exptl_absorpt_correction_T_min  0.061194
_exptl_absorpt_correction_type   multi-scan
_exptl_absorpt_process_details
;
 TWINABS-2012/1 (Bruker,2012) was used for absorption correction.
 
For component 1:
 wR2(int) was 0.1522 before and 0.0451 after correction.
 The Ratio of minimum to maximum transmission not present.
 The \l/2 correction factor is Not present
 
For component 2:
 wR2(int) was 0.1464 before and 0.0453 after correction.
 The Ratio of minimum to maximum transmission is 0.68.
 The \l/2 correction factor is Not present

Final HKLF 4 output contains 16012 reflections, Rint = 0.0616
 (7262 with I > 3sig(I), Rint = 0.0432)
;
_exptl_crystal_colour            Red
_exptl_crystal_colour_primary    red
_exptl_crystal_density_diffrn    2.053
_exptl_crystal_description       Needle
_exptl_crystal_F_000             354
_exptl_crystal_size_max          0.131
_exptl_crystal_size_mid          0.054
_exptl_crystal_size_min          0.042
_refine_diff_density_max         0.532
_refine_diff_density_min         -0.572
_refine_diff_density_rms         0.113
_refine_ls_extinction_method     none
_refine_ls_goodness_of_fit_ref   1.057
_refine_ls_hydrogen_treatment    constr
_refine_ls_matrix_type           full
_refine_ls_number_parameters     177
_refine_ls_number_reflns         4179
_refine_ls_number_restraints     0
_refine_ls_restrained_S_all      1.057
_refine_ls_R_factor_all          0.0784
_refine_ls_R_factor_gt           0.0551
_refine_ls_shift/su_max          0.000
_refine_ls_shift/su_mean         0.000
_refine_ls_structure_factor_coef Fsqd
_refine_ls_weighting_details
'w=1/[\s^2^(Fo^2^)+(0.0446P)^2^+0.6807P] where P=(Fo^2^+2Fc^2^)/3'
_refine_ls_weighting_scheme      calc
_refine_ls_wR_factor_gt          0.1087
_refine_ls_wR_factor_ref         0.1202
_reflns_Friedel_coverage         0.000
_reflns_number_gt                3235
_reflns_number_total             4179
_reflns_threshold_expression     'I > 2\s(I)'
_cod_data_source_file            jo9b02182_si_002.cif
_cod_data_source_block           PQ_0331
_cod_depositor_comments
;
The following automatic conversions were performed:

data item '_diffrn_radiation_probe' value 'X-ray' was changed to
'x-ray' in accordance with the
/home/data/users/saulius/crontab/automatic-downloads/current/ACS/lib/dictionaries/cif_core.dic
dictionary named 'cif_core.dic' version 2.4.2 last updated on
2011-04-26.

data item '_exptl_crystal_colour_primary' value 'Red' was changed to
'red' in accordance with the
/home/data/users/saulius/crontab/automatic-downloads/current/ACS/lib/dictionaries/cif_core.dic
dictionary named 'cif_core.dic' version 2.4.2 last updated on
2011-04-26.

Automatic conversion script
Id: cif_fix_values 6909 2019-04-08 15:41:33Z antanas 
;
_cod_original_cell_volume        577.49(18)
_cod_database_code               4034569
_shelx_shelxl_version_number     2016/6
_shelx_space_group_comment
;
The symmetry employed for this shelxl refinement is uniquely defined
by the following loop, which should always be used as a source of
symmetry information in preference to the above space-group names.
They are only intended as comments.
;
_shelx_estimated_absorpt_t_max   0.936
_shelx_estimated_absorpt_t_min   0.817
_olex2_refinement_description
;
1. Twinned data refinement
 Scales: 0.486(2) 0.514(2)
2. Fixed Uiso
 At 1.5 times of:
  All O(H,H) groups
3.a Rotating group:
 O1S(H1SA,H1SB), O2S(H2SA,H2SB), O3S(H3SA,H3SB), O4S(H4SA,H4SB)
;
_shelx_res_file
;
TITL PQ_0331 in P-1
    pq_0331.res
    created by SHELXL-2016/6 at 09:48:00 on 12-Jan-2017
REM SHELXT solution in P-1
REM R1 0.118, Rweak 0.024, Alpha 0.064, Orientation as input
REM Formula found by SHELXT: C4 O7 F7 Co
CELL 0.71073 8.1249 9.0422 9.265 75.059 64.69 71.468
ZERR 2 0.0014 0.0014 0.0015 0.012 0.011 0.011
LATT 1
SFAC C H O F Co
UNIT 8 16 16 12 2
EQIV $1 2-X,1-Y,1-Z
EQIV $2 1-X,1-Y,2-Z
EQIV $3 1-X,1-Y,1-Z
EQIV $4 1-X,2-Y,1-Z

L.S. 10
PLAN  20
SIZE 0.131 0.054 0.042
TEMP -173.15
HTAB O4S O1'_$1
HTAB O4S O2_$2
HTAB O2S O1_$3
HTAB O2S O2'_$4
HTAB O3S O2
HTAB O3S O2'
HTAB O1S O4S_$1
HTAB O1S O2S_$3
BOND $H
list 4
ACTA 50
fmap 2 53
REM <olex2.extras>
REM <HklSrc "%.\\twin5.hkl">
REM </olex2.extras>

WGHT    0.044600    0.680700
BASF   0.51414
FVAR       0.85923
CO1   5    0.660734    0.593963    0.612521    11.00000    0.02012    0.01954 =
         0.02188   -0.00225   -0.00598   -0.00697
F1    4    0.180127    0.293345    0.851574    11.00000    0.04974    0.04547 =
         0.03166    0.00554   -0.02005   -0.03007
F1'   4    0.864274    1.041751    0.203506    11.00000    0.05641    0.05252 =
         0.03277    0.01395   -0.01854   -0.02564
F2    4    0.392726    0.164705    0.946629    11.00000    0.04901    0.02335 =
         0.05258    0.00365   -0.01786   -0.01415
F2'   4    1.102906    0.890157    0.254849    11.00000    0.02953    0.02359 =
         0.05558   -0.00317    0.00687   -0.00712
F3    4    0.136186    0.305684    1.094557    11.00000    0.04502    0.04629 =
         0.02210    0.00116   -0.00061   -0.03087
F3'   4    0.953863    1.101040    0.364685    11.00000    0.03568    0.02641 =
         0.04450   -0.00196   -0.00986   -0.01682
O1    3    0.488164    0.432818    0.745128    11.00000    0.02161    0.01883 =
         0.01988   -0.00184   -0.00548   -0.00707
O1'   3    0.843801    0.743349    0.465526    11.00000    0.02184    0.01742 =
         0.02463   -0.00001   -0.00742   -0.00715
O1S   3    0.798404    0.447442    0.434859    11.00000    0.01793    0.02411 =
         0.02642   -0.00375   -0.00376   -0.00762
AFIX   7
H1SA  2    0.757054    0.361292    0.468259    11.00000   -1.50000
H1SB  2    0.919124    0.421972    0.413699    11.00000   -1.50000
AFIX   0
O2    3    0.286301    0.551457    0.962048    11.00000    0.02955    0.02333 =
         0.02003   -0.00343   -0.00459   -0.00957
O2'   3    0.658407    0.972312    0.554298    11.00000    0.02521    0.01865 =
         0.03247   -0.00276   -0.00652   -0.00545
O2S   3    0.469558    0.713652    0.498669    11.00000    0.02544    0.01696 =
         0.02149   -0.00428   -0.00645   -0.00763
AFIX   7
H2SA  2    0.517236    0.689979    0.401180    11.00000   -1.50000
H2SB  2    0.451640    0.814782    0.493976    11.00000   -1.50000
AFIX   0
O3S   3    0.533255    0.734411    0.793184    11.00000    0.02465    0.02228 =
         0.02596   -0.00254   -0.00585   -0.00860
AFIX   7
H3SA  2    0.423105    0.714372    0.847053    11.00000   -1.50000
H3SB  2    0.520736    0.831751    0.746404    11.00000   -1.50000
AFIX   0
O4S   3    0.859592    0.473169    0.714486    11.00000    0.02584    0.01746 =
         0.02054   -0.00194   -0.00928   -0.00495
AFIX   7
H4SA  2    0.914830    0.379818    0.685078    11.00000   -1.50000
H4SB  2    0.809703    0.466101    0.820326    11.00000   -1.50000
AFIX   0
C1    1    0.354953    0.443376    0.880283    11.00000    0.02031    0.02233 =
         0.02330    0.00474   -0.01172   -0.00650
C1'   1    0.798295    0.890302    0.461991    11.00000    0.02067    0.02454 =
         0.02234   -0.00154   -0.00983   -0.00616
C2    1    0.263905    0.299302    0.945626    11.00000    0.02883    0.02845 =
         0.02435   -0.00041   -0.00811   -0.01098
C2'   1    0.934093    0.980812    0.319152    11.00000    0.02639    0.03318 =
         0.02566   -0.00329   -0.00439   -0.00995
HKLF 5




REM  PQ_0331 in P-1
REM R1 =  0.0551 for    3235 Fo > 4sig(Fo)  and  0.0784 for all    4179 data
REM    177 parameters refined using      0 restraints

END

WGHT      0.0446      0.6807

REM Highest difference peak  0.532,  deepest hole -0.572,  1-sigma level  0.113
Q1    1   0.6403  0.5638  0.5159  11.00000  0.05    0.53
Q2    1   0.5215  0.6239  0.5784  11.00000  0.05    0.53
Q3    1   0.9259  0.4399  0.3637  11.00000  0.05    0.49
Q4    1   0.4012  0.4560  0.8045  11.00000  0.05    0.46
Q5    1   0.6972  0.6374  0.6843  11.00000  0.05    0.45
Q6    1   0.7458  0.3777  0.3996  11.00000  0.05    0.44
Q7    1   0.8461  0.6058  0.5893  11.00000  0.05    0.43
Q8    1   0.3599  0.2234  0.8589  11.00000  0.05    0.43
Q9    1   1.1215  0.8991  0.3842  11.00000  0.05    0.42
Q10   1   0.7831  0.8180  0.4452  11.00000  0.05    0.42
Q11   1   0.3195  0.7647  0.4582  11.00000  0.05    0.41
Q12   1   0.7528  0.5227  0.4857  11.00000  0.05    0.41
Q13   1   0.5937  0.6349  0.6375  11.00000  0.05    0.40
Q14   1   0.9028  0.4832  0.5555  11.00000  0.05    0.40
Q15   1   0.7411  0.5390  0.5845  11.00000  0.05    0.39
Q16   1   0.7811  0.5462  0.6556  11.00000  0.05    0.39
Q17   1   0.3363  0.1208  0.8581  11.00000  0.05    0.39
Q18   1   0.7020  0.9429  0.5261  11.00000  0.05    0.39
Q19   1   0.1602  0.5642  0.9547  11.00000  0.05    0.38
Q20   1   0.5644  0.6784  0.7242  11.00000  0.05    0.38
;
_shelx_res_checksum              71464
_shelx_hkl_file
;
  -1   0   0 53.0372 3.15391   1
   1   0   0 56.1263 2.85556   1
  -2   0   0 130.821 4.58564   1
   2   0   0 135.875 4.40637   1
  -3   0   0 121.988 4.79443   1
   3   0   0 117.488 4.62900   1
  -4   0   0 536.163 9.22838   1
   4   0   0 534.425 10.4006   1
  -5   0   0 157.586 13.4969   1
  -5  -4  -4 175.030 26.7955  -2
   5   0   0 175.030 26.7955   1
  -6  -5  -5 987.310 24.3635  -2
   6   0   0 987.310 24.3635   1
  -7  -6  -6 101.477 16.8251  -2
   7   0   0 101.477 16.8251   1
  -8  -7  -7 71.5493 36.3210  -2
   8   0   0 71.5493 36.3210   1
  -8  -7  -8 28.3171 34.1257  -2
   8  -1   0 28.3171 34.1257   1
   8   7   8 99.1674 17.6282  -2
  -8   1   0 99.1674 17.6282   1
  -7  -6  -7 144.160 20.1012  -2
   7  -1   0 144.160 20.1012   1
   7   6   7 158.103 20.1158  -2
  -7   1   0 158.103 20.1158   1
  -6  -5  -6 458.984 23.7853  -2
   6  -1   0 458.984 23.7853   1
  -5  -4  -5 104.242 15.9498  -2
   5  -1   0 104.242 15.9498   1
  -5   1   0 109.861 9.22730   1
   4  -1   0 44.0655 5.15696   1
  -4   1   0 36.7024 3.99734   1
   3  -1   0 6.84370 2.56667   1
  -3   1   0 5.32346 2.69712   1
   2  -1   0 84.4488 3.56900   1
  -2   1   0 84.9585 5.04662   1
   1  -1   0 5101.43 18.4673   1
  -1   1   0 5217.09 35.4652   1
   0   0  -1 1961.97 23.4502  -2
   0  -1   0 1961.97 23.4502   1
   0   0   1 1826.87 12.2598  -2
   0   1   0 1826.87 12.2598   1
  -1  -1   0 39.3445 4.03622   1
  -1  -1   0 62.4562 6.96561  -2
   1   1   0 62.4562 6.96561   1
  -2  -1   0 1557.78 16.5417   1
   2   1   0 1546.14 11.7086   1
  -3  -1   0 3.86628 2.54301   1
   3   1   0 5.94917 1.96382   1
  -4  -1   0 17.5285 3.80064   1
   4   1   0 12.5521 2.69969   1
  -5  -1   0 604.378 31.2868   1
   5   1   0 592.271 14.0655   1
   6   5   4 416.647 32.0177  -2
  -6  -1   0 416.647 32.0177   1
  -6  -5  -4 308.240 17.2781  -2
   6   1   0 308.240 17.2781   1
  -7  -6  -5 11.1749 8.36974  -2
   7   1   0 11.1749 8.36974   1
  -8  -7  -6 19.0193 23.4804  -2
   8   1   0 19.0193 23.4804   1
   8  -2   0 21.3638 15.3124   1
  -8   2   0 41.1433 10.0578   1
  -7  -6  -8 252.853 35.2153  -2
   7  -2   0 252.853 35.2153   1
   7   6   8 252.471 22.0851  -2
  -7   2   0 252.471 22.0851   1
  -6  -5  -7 22.4939 11.4700  -2
   6  -2   0 22.4939 11.4700   1
   6   5   7 45.8388 12.1051  -2
  -6   2   0 45.8388 12.1051   1
  -5  -4  -6 692.223 28.4028  -2
   5  -2   0 692.223 28.4028   1
   5   4   6 697.745 21.0855  -2
  -5   2   0 697.745 21.0855   1
   4  -2   0 744.884 15.5258   1
  -4   2   0 753.477 15.8190   1
   3  -2   0 81.2282 4.31735   1
  -3   2   0 71.5432 4.59420   1
   2  -2   0 136.866 3.83342   1
  -2   2   0 149.051 7.41408   1
   1  -2   0 117.440 5.23855   1
  -1   2   0 121.191 4.91104   1
   0   0  -2 645.428 14.3325  -2
   0  -2   0 645.428 14.3325   1
   0   0   2 623.440 11.2262  -2
   0   2   0 623.440 11.2262   1
  -1  -2   0 1251.59 20.1859   1
  -1  -1   1 2860.62 43.7271  -2
   1   2   0 2860.62 43.7271   1
  -2  -2   0 140.404 8.55890   1
   2   2   0 134.566 3.81466   1
  -3  -2   0 2117.36 29.6609   1
   3   2   0 2112.35 17.4525   1
  -4  -2   0 155.670 7.17563   1
   4   2   0 156.079 6.08715   1
  -5  -2   0 540.794 14.4508   1
   5   2   0 536.660 13.4358   1
   6   5   3 11.9569 21.0243  -2
  -6  -2   0 11.9569 21.0243   1
  -6  -5  -3 5.63009 10.4473  -2
   6   2   0 5.63009 10.4473   1
   7   6   4 82.4264 22.7283  -2
  -7  -2   0 82.4264 22.7283   1
  -7  -6  -4 59.4328 9.98881  -2
   7   2   0 59.4328 9.98881   1
  -8  -7  -5 107.231 16.5012  -2
   8   2   0 107.231 16.5012   1
  -7  -6  -9 46.6764 18.5517  -2
   7  -3   0 46.6764 18.5517   1
   7   6   9 90.8936 14.2469  -2
  -7   3   0 90.8936 14.2469   1
  -6  -5  -8 130.310 15.5694  -2
   6  -3   0 130.310 15.5694   1
   6   5   8 149.450 14.8996  -2
  -6   3   0 149.450 14.8996   1
  -5  -4  -7 440.890 23.9460  -2
   5  -3   0 440.890 23.9460   1
   5   4   7 498.905 18.5337  -2
  -5   3   0 498.905 18.5337   1
   4  -3   0 147.353 10.7361   1
  -4   3   0 161.436 10.3889   1
   3  -3   0 10.5675 1.52882   1
  -3   3   0 11.2035 3.63741   1
   2  -3   0 2520.10 25.0889   1
  -2   3   0 2534.94 27.8996   1
   1  -3   0 40.3254 3.27809   1
  -1   3   0 44.4796 4.38319   1
   0   0  -3 91.9825 9.07425  -2
   0  -3   0 91.9825 9.07425   1
   0   0   3 104.472 5.05611  -2
   0   3   0 104.472 5.05611   1
   1   1  -2 214.110 12.5259  -2
  -1  -3   0 214.110 12.5259   1
  -1  -1   2 205.420 8.17841  -2
   1   3   0 205.420 8.17841   1
  -2  -3   0 3600.78 43.3252   1
   2   3   0 3560.22 33.5975   1
  -3  -3   0 0.66471 4.35766   1
   3   3   0 1.27595 1.95709   1
  -4  -3   0 412.112 9.35243   1
   4   3   0 400.876 10.4094   1
  -5  -3   0 34.2018 6.77824   1
   5   3   0 29.5864 4.87702   1
   6   5   2 127.886 27.3018  -2
  -6  -3   0 127.886 27.3018   1
  -6  -5  -2 105.214 14.5910  -2
   6   3   0 105.214 14.5910   1
   7   6   3 223.253 31.4283  -2
  -7  -3   0 223.253 31.4283   1
  -7  -6  -3 152.265 15.8049  -2
   7   3   0 152.265 15.8049   1
   8   7   4 376.350 39.9281  -2
  -8  -3   0 376.350 39.9281   1
  -8  -7  -4 321.011 21.5196  -2
   8   3   0 321.011 21.5196   1
   7  -4   0 19.6942 10.1074   1
   7   6  10 53.3759 11.5500  -2
  -7   4   0 53.3759 11.5500   1
  -6  -5  -9 22.4032 11.7523  -2
   6  -4   0 22.4032 11.7523   1
   6   5   9 35.1523 8.64713  -2
  -6   4   0 35.1523 8.64713   1
  -5  -4  -8 35.9181 8.59062  -2
   5  -4   0 35.9181 8.59062   1
   5   4   8 56.4164 9.35211  -2
  -5   4   0 56.4164 9.35211   1
   4  -4   0 17.9970 5.59672   1
  -4   4   0 15.6023 4.17667   1
   3  -4   0 1170.01 20.1280   1
  -3   4   0 1134.05 20.2678   1
   2  -4   0 583.390 13.0442   1
  -2   4   0 579.009 12.9044   1
   1  -4   0 36.1810 3.44859   1
  -1   4   0 29.6464 4.20551   1
   0   0  -4 43.4428 8.97965  -2
   0  -4   0 43.4428 8.97965   1
   0   0   4 31.7168 5.13524  -2
   0   4   0 31.7168 5.13524   1
   1   1  -3 392.609 15.7769  -2
  -1  -4   0 392.609 15.7769   1
  -1  -1   3 428.489 11.8579  -2
   1   4   0 428.489 11.8579   1
  -2  -4   0 844.186 33.7807   1
   2   4   0 845.622 17.5767   1
  -3  -4   0 80.8528 10.4128   1
   3   4   0 84.1139 6.52405   1
  -4  -4   0 427.039 17.5652   1
   4   4   0 414.932 10.4415   1
  -5  -4   0 34.3447 8.01735   1
   5   4   0 27.8437 5.07923   1
   6   5   1 540.478 21.2372  -2
  -6  -4   0 540.478 21.2372   1
  -6  -5  -1 572.518 33.0028  -2
   6   4   0 572.518 33.0028   1
   7   6   2 304.920 33.4938  -2
  -7  -4   0 304.920 33.4938   1
  -7  -6  -2 291.284 18.4733  -2
   7   4   0 291.284 18.4733   1
   8   7   3 99.6063 33.5034  -2
  -8  -4   0 99.6063 33.5034   1
  -8  -7  -3 29.6152 18.3418  -2
   8   4   0 29.6152 18.3418   1
  -6  -5 -10 65.4437 14.5929  -2
   6  -5   0 65.4437 14.5929   1
   6   5  10 97.5873 10.7392  -2
  -6   5   0 97.5873 10.7392   1
  -5  -4  -9 32.6491 9.52700  -2
   5  -5   0 32.6491 9.52700   1
   5   4   9 16.8725 7.82379  -2
  -5   5   0 16.8725 7.82379   1
   4  -5   0 7.65760 5.10376   1
  -4   5   0 15.0658 4.02432   1
   3  -5   0 756.253 19.9385   1
  -3   5   0 744.135 16.6722   1
   2  -5   0 149.448 9.58998   1
  -2   5   0 161.070 8.07340   1
   1  -5   0 558.168 13.2935   1
  -1   5   0 571.066 14.5443   1
   0   0  -5 75.2186 10.5861  -2
   0  -5   0 75.2186 10.5861   1
   0   0   5 107.952 11.8598  -2
   0   5   0 107.952 11.8598   1
   1   1  -4 985.448 25.0621  -2
  -1  -5   0 985.448 25.0621   1
  -1  -1   4 1030.44 18.9090  -2
   1   5   0 1030.44 18.9090   1
  -2  -5   0 4.67730 5.06808   1
   2   5   0 4.95618 3.48943   1
  -3  -5   0 1008.46 28.1730   1
   3   5   0 1005.50 21.7188   1
  -4  -5   0 287.646 16.5414   1
   4   5   0 296.887 10.5534   1
  -5  -5   0 -6.8597 5.02604   1
   5   5   0 3.93325 5.40115   1
   6   5   0 170.498 35.4248  -2
  -6  -5   0 170.498 35.4248   1
   6   5   0 69.8899 15.3677   1
   7   6   1 369.516 38.4791  -2
  -7  -5   0 369.516 38.4791   1
  -7  -6  -1 283.984 26.6701  -2
   7   5   0 283.984 26.6701   1
   8   7   2 32.0626 31.5380  -2
  -8  -5   0 32.0626 31.5380   1
  -8  -7  -2 22.1068 17.2702  -2
   8   5   0 22.1068 17.2702   1
  -5  -4 -10 28.6376 9.66642  -2
   5  -6   0 28.6376 9.66642   1
   5   4  10 -4.2429 6.43523  -2
  -5   6   0 -4.2429 6.43523   1
  -4  -3  -9 90.0971 19.1456  -2
   4  -6   0 90.0971 19.1456   1
  -4   6   0 74.2905 8.55725   1
   3  -6   0 6.10238 5.05331   1
  -3   6   0 2.50001 3.73925   1
   2  -6   0 -0.0977 3.84896   1
  -2   6   0 1.79852 3.63248   1
   1  -6   0 137.973 8.32188   1
  -1   6   0 146.322 10.1784   1
   0   0  -6 823.608 41.6841  -2
   0  -6   0 823.608 41.6841   1
   0   0   6 736.166 38.3329  -2
   0   6   0 736.166 38.3329   1
   1   1  -5 437.832 19.0461  -2
  -1  -6   0 437.832 19.0461   1
  -1  -1   5 449.978 13.4661  -2
   1   6   0 449.978 13.4661   1
   2   2  -4 201.239 23.6797  -2
  -2  -6   0 201.239 23.6797   1
  -2  -2   4 208.729 14.2900  -2
   2   6   0 208.729 14.2900   1
  -3  -6   0 114.248 13.5540   1
   3   6   0 114.855 10.1299   1
  -4  -6   0 232.983 19.0151   1
   4   6   0 241.923 10.6637   1
  -5  -6   0 32.4168 9.62106   1
   5   6   0 37.0890 8.60753   1
   6   5  -1 229.885 37.7450  -2
  -6  -6   0 229.885 37.7450   1
   6   6   0 254.330 20.7581   1
   7   6   0 41.3243 28.1160  -2
  -7  -6   0 41.3243 28.1160   1
  -7  -6   0 48.9749 18.5889  -2
   7   6   0 48.9749 18.5889   1
   8   7   1 139.176 33.8484  -2
  -8  -6   0 139.176 33.8484   1
  -8  -7  -1 95.8039 21.6154  -2
   8   6   0 95.8039 21.6154   1
  -5  -4 -11 59.8807 12.9333  -2
   5  -7   0 59.8807 12.9333   1
   5   4  11 30.3371 9.37249  -2
  -5   7   0 30.3371 9.37249   1
  -4  -3 -10 99.7443 15.2142  -2
   4  -7   0 99.7443 15.2142   1
  -4   7   0 -3.8742 3.93113   1
   3  -7   0 30.0987 7.06012   1
  -3   7   0 28.3178 6.67608   1
   2  -7   0 3.50321 4.69362   1
  -2   7   0 7.39503 5.36273   1
   1  -7   0 423.036 14.0359   1
  -1   7   0 440.427 18.9114   1
   0  -7   0 829.317 41.3406   1
   0   7   0 770.047 26.1365   1
   1   1  -6 105.630 13.1633  -2
  -1  -7   0 105.630 13.1633   1
  -1  -1   6 93.8259 13.1018  -2
   1   7   0 93.8259 13.1018   1
   2   2  -5 318.815 20.0738  -2
  -2  -7   0 318.815 20.0738   1
  -2  -2   5 287.879 14.4279  -2
   2   7   0 287.879 14.4279   1
  -3  -7   0 83.0428 12.4384   1
   3   7   0 56.1192 8.10412   1
  -4  -7   0 16.9485 8.79831   1
   4   7   0 20.0805 5.50116   1
  -5  -7   0 217.488 19.7210   1
   5   7   0 232.125 18.8772   1
   6   5  -2 73.9409 30.7306  -2
  -6  -7   0 73.9409 30.7306   1
   6   7   0 44.2298 10.7760   1
   7   6  -1 6.77321 30.2265  -2
  -7  -7   0 6.77321 30.2265   1
  -7  -6   1 9.95593 19.9540  -2
   7   7   0 9.95593 19.9540   1
  -4  -3 -11 38.0847 19.6686  -2
   4  -8   0 38.0847 19.6686   1
   3  -8   0 12.9084 5.92840   1
  -3   8   0 1.18014 5.02049   1
   2  -8   0 13.4473 7.07434   1
  -2   8   0 12.8577 7.57188   1
   1  -8   0 514.215 16.1319   1
  -1   8   0 493.994 22.4907   1
   0  -8   0 10.5003 4.46428   1
   0   8   0 13.5298 7.73395   1
   1   1  -7 247.991 28.7695  -2
  -1  -8   0 247.991 28.7695   1
  -1  -1   7 210.980 18.5184  -2
   1   8   0 210.980 18.5184   1
   2   2  -6 154.604 17.2417  -2
  -2  -8   0 154.604 17.2417   1
  -2  -2   6 133.191 17.6602  -2
   2   8   0 133.191 17.6602   1
   3   3  -5 30.7295 23.4470  -2
  -3  -8   0 30.7295 23.4470   1
   3   8   0 21.0535 6.38957   1
  -4  -8   0 174.740 19.0191   1
   4   8   0 178.400 16.7782   1
  -5  -8   0 122.538 17.0157   1
   5   8   0 102.396 14.0471   1
   6   5  -3 130.149 34.3004  -2
  -6  -8   0 130.149 34.3004   1
   6   8   0 40.2589 10.4391   1
   7   6  -2 87.9203 19.5105  -2
  -7  -8   0 87.9203 19.5105   1
  -7  -6   2 71.6264 16.4382  -2
   7   8   0 71.6264 16.4382   1
   2  -9   0 1.09367 4.92524   1
  -2   9   0 6.91345 7.40387   1
   1  -9   0 2.75592 4.76195   1
  -1   9   0 -7.8893 6.87975   1
   0  -9   0 7.32799 5.20182   1
   0   9   0 -4.2831 6.42747   1
   1   1  -8 303.883 35.4162  -2
  -1  -9   0 303.883 35.4162   1
  -1  -1   8 279.477 21.3732  -2
   1   9   0 279.477 21.3732   1
   2   2  -7 25.0948 19.4254  -2
  -2  -9   0 25.0948 19.4254   1
  -2  -2   7 -1.2152 12.4727  -2
   2   9   0 -1.2152 12.4727   1
   3   3  -6 132.800 27.0532  -2
  -3  -9   0 132.800 27.0532   1
   3   9   0 8.80500 8.79855   1
  -4  -9   0 66.4266 13.8768   1
   4   9   0 65.6011 11.6524   1
  -5  -9   0 106.097 14.4938   1
   5   9   0 107.508 14.6354   1
  -6  -9   0 65.6599 13.2465   1
   6   9   0 50.6337 11.9046   1
   0 -10   0 32.1187 7.10660   1
   0  10   0 24.0795 9.82944   1
   1   1  -9 33.2045 24.6837  -2
  -1 -10   0 33.2045 24.6837   1
  -1  -1   9 2.20673 14.5920  -2
   1  10   0 2.20673 14.5920   1
   2   2  -8 17.0529 18.0358  -2
  -2 -10   0 17.0529 18.0358   1
  -2  -2   8 7.88846 11.2568  -2
   2  10   0 7.88846 11.2568   1
   3   3  -7 126.199 32.1591  -2
  -3 -10   0 126.199 32.1591   1
   3  10   0 36.6278 11.8058   1
  -4 -10   0 60.4179 13.4261   1
   4  10   0 46.2560 16.2776   1
   3  10  -1 7.25426 9.23558   1
   3   4  -7 105.244 29.7667  -2
  -3 -10   1 105.244 29.7667   1
  -2  -3   8 167.674 17.0097  -2
   2  10  -1 167.674 17.0097   1
   2   3  -8 247.812 35.2756  -2
  -2 -10   1 247.812 35.2756   1
  -1  -2   9 246.740 24.3905  -2
   1  10  -1 246.740 24.3905   1
   1   2  -9 346.747 37.8313  -2
  -1 -10   1 346.747 37.8313   1
   0  10  -1 27.4822 9.73173   1
   0 -10   1 26.1208 6.54934   1
   5   9  -1 -1.2306 7.37823   1
  -5  -9   1 3.76360 8.04345   1
   4   9  -1 12.0273 7.97711   1
  -4  -9   1 13.3502 8.05788   1
   3   9  -1 10.5691 10.4385   1
   3   4  -6 25.5138 27.0269  -2
  -3  -9   1 25.5138 27.0269   1
  -2  -3   7 217.775 19.3174  -2
   2   9  -1 217.775 19.3174   1
   2   3  -7 186.977 24.3308  -2
  -2  -9   1 186.977 24.3308   1
  -1  -2   8 219.066 20.7991  -2
   1   9  -1 219.066 20.7991   1
   1   2  -8 301.028 34.4914  -2
  -1  -9   1 301.028 34.4914   1
   0   9  -1 10.6813 8.12576   1
   0  -9   1 3.19826 5.88335   1
  -1   9  -1 5.00849 7.59030   1
   1  -9   1 9.66361 5.39917   1
  -2   9  -1 57.4615 11.8389   1
   2  -9   1 64.9547 9.06626   1
   6   8  -1 53.4570 11.8867   1
  -6  -8   1 72.9373 13.2686   1
   5   8  -1 228.650 20.4721   1
  -5  -8   1 279.145 23.5442   1
   4   8  -1 13.2349 5.84859   1
  -4  -8   1 13.1339 9.02394   1
   3   8  -1 36.7534 7.64983   1
   3   4  -5 53.2163 28.2498  -2
  -3  -8   1 53.2163 28.2498   1
  -2  -3   6 141.252 16.0849  -2
   2   8  -1 141.252 16.0849   1
   2   3  -6 156.739 17.2399  -2
  -2  -8   1 156.739 17.2399   1
  -1  -2   7 113.736 15.7610  -2
   1   8  -1 113.736 15.7610   1
   1   2  -7 131.273 24.0212  -2
  -1  -8   1 131.273 24.0212   1
   0   8  -1 1.26190 6.50423   1
   0  -8   1 -5.3740 8.61029   1
  -1   8  -1 178.895 17.2617   1
   1  -8   1 235.859 14.6487   1
  -2   8  -1 12.6813 7.08101   1
   2  -8   1 15.3864 5.77322   1
  -3   8  -1 0.66985 5.50236   1
   3  -8   1 5.83722 5.43364   1
   4   2  11 85.1767 12.8807  -2
  -4   8  -1 85.1767 12.8807   1
  -4  -2 -11 83.5637 16.5086  -2
   4  -8   1 83.5637 16.5086   1
  -7  -7   1 136.617 24.3260  -2
   7   7  -1 136.617 24.3260   1
   7   7  -1 180.229 41.8696  -2
  -7  -7   1 180.229 41.8696   1
   6   7  -1 255.637 21.6883   1
  -6  -7   1 251.361 18.6238   1
   5   7  -1 88.7141 12.4958   1
  -5  -7   1 103.515 13.4579   1
   4   7  -1 74.6190 9.12486   1
  -4  -7   1 83.8505 13.1446   1
   3   7  -1 129.957 11.9387   1
  -3  -7   1 116.444 15.1870   1
  -2  -3   5 20.2162 8.26156  -2
   2   7  -1 20.2162 8.26156   1
   2   3  -5 47.9632 13.4478  -2
  -2  -7   1 47.9632 13.4478   1
  -1  -2   6 147.481 14.4151  -2
   1   7  -1 147.481 14.4151   1
   1   2  -6 166.120 15.8664  -2
  -1  -7   1 166.120 15.8664   1
   0   7  -1 122.997 13.6377   1
   0  -7   1 108.557 18.8644   1
  -1   7  -1 411.311 19.2686   1
   1  -7   1 412.211 15.7923   1
  -2   7  -1 2.01035 3.85361   1
   2  -7   1 4.01995 4.35611   1
  -3   7  -1 49.3485 7.42792   1
   3  -7   1 45.1846 7.84198   1
   4   2  10 9.44516 10.0845  -2
  -4   7  -1 9.44516 10.0845   1
  -4  -2 -10 28.2324 14.2890  -2
   4  -7   1 28.2324 14.2890   1
   5   3  11 2.85201 6.66587  -2
  -5   7  -1 2.85201 6.66587   1
  -5  -3 -11 32.3995 8.51864  -2
   5  -7   1 32.3995 8.51864   1
  -7  -7   0 15.5005 15.8583  -2
   7   6  -1 15.5005 15.8583   1
   7   7   0 32.8427 31.5297  -2
  -7  -6   1 32.8427 31.5297   1
   6   6  -1 213.091 25.9918   1
   6   6  -1 443.140 44.2920  -2
  -6  -6   1 443.140 44.2920   1
   5   6  -1 6.42435 6.41057   1
  -5  -6   1 -4.0875 6.16853   1
   4   6  -1 563.637 17.6641   1
  -4  -6   1 548.970 23.4969   1
   3   6  -1 43.5960 7.59308   1
  -3  -6   1 17.1087 7.94025   1
  -2  -3   4 -1.9447 7.50628  -2
   2   6  -1 -1.9447 7.50628   1
   2   3  -4 1.07063 11.4137  -2
  -2  -6   1 1.07063 11.4137   1
  -1  -2   5 11.3808 5.49785  -2
   1   6  -1 11.3808 5.49785   1
   1   2  -5 11.7348 9.61919  -2
  -1  -6   1 11.7348 9.61919   1
   0   6  -1 1083.78 28.0460   1
   0  -6   1 1094.49 28.3216   1
  -1   6  -1 83.1548 9.74103   1
   1  -6   1 73.0153 8.21627   1
  -2   6  -1 217.173 10.5379   1
   2  -6   1 220.446 13.6008   1
  -3   6  -1 0.51611 3.77070   1
   3  -6   1 1.43221 4.45182   1
  -4   6  -1 62.6100 7.89813   1
  -4  -2  -9 85.7093 21.0013  -2
   4  -6   1 85.7093 21.0013   1
   5   3  10 2.96161 6.62140  -2
  -5   6  -1 2.96161 6.62140   1
  -5  -3 -10 12.7431 8.39309  -2
   5  -6   1 12.7431 8.39309   1
  -6   6  -1 53.5394 7.50269   1
   6  -6   1 68.8957 16.6152   1
  -8  -8  -2 -10.448 13.5341  -2
   8   5  -1 -10.448 13.5341   1
   8   8   2 -4.9402 34.1838  -2
  -8  -5   1 -4.9402 34.1838   1
  -7  -7  -1 75.2591 16.8613  -2
   7   5  -1 75.2591 16.8613   1
   7   7   1 156.477 34.7118  -2
  -7  -5   1 156.477 34.7118   1
   6   5  -1 10.3379 10.0174   1
   6   6   0 319.528 42.2392  -2
  -6  -5   1 319.528 42.2392   1
   5   5  -1 37.6462 6.63772   1
  -5  -5   1 32.6463 8.07450   1
   4   5  -1 545.358 16.1617   1
  -4  -5   1 515.136 20.4401   1
   3   5  -1 202.065 9.55310   1
  -3  -5   1 208.470 15.2240   1
  -2  -3   3 63.9998 10.4656  -2
   2   5  -1 63.9998 10.4656   1
   2   3  -3 86.0122 6.89842  -2
  -2  -5   1 86.0122 6.89842   1
  -1  -2   4 590.433 14.5341  -2
   1   5  -1 590.433 14.5341   1
   1   2  -4 566.545 14.3738  -2
  -1  -5   1 566.545 14.3738   1
   0  -1   5 369.152 12.7322  -2
   0   5  -1 369.152 12.7322   1
   0   1  -5 332.500 15.1034  -2
   0  -5   1 332.500 15.1034   1
  -1   5  -1 164.193 9.54740   1
   1  -5   1 150.011 6.60601   1
  -2   5  -1 777.209 15.9988   1
   2  -5   1 746.743 21.4937   1
  -3   5  -1 53.0064 6.61084   1
   3  -5   1 39.8322 5.88760   1
   4   2   8 50.3294 10.3733  -2
  -4   5  -1 50.3294 10.3733   1
   4  -5   1 20.7739 6.23512   1
   5   3   9 228.262 12.6953  -2
  -5   5  -1 228.262 12.6953   1
  -5  -3  -9 272.233 15.0805  -2
   5  -5   1 272.233 15.0805   1
   6   4  10 174.926 13.5771  -2
  -6   5  -1 174.926 13.5771   1
  -6  -4 -10 132.308 13.1834  -2
   6  -5   1 132.308 13.1834   1
  -8  -8  -3 97.2346 18.3107  -2
   8   4  -1 97.2346 18.3107   1
   8   8   3 28.2834 32.3593  -2
  -8  -4   1 28.2834 32.3593   1
  -7  -7  -2 128.959 17.6649  -2
   7   4  -1 128.959 17.6649   1
   7   7   2 133.813 31.5328  -2
  -7  -4   1 133.813 31.5328   1
   6   4  -1 66.0772 11.7460   1
   6   6   1 66.6601 33.2711  -2
  -6  -4   1 66.6601 33.2711   1
   5   4  -1 25.9521 5.53464   1
  -5  -4   1 27.5740 6.54578   1
   4   4  -1 289.408 11.7852   1
  -4  -4   1 303.102 14.3519   1
   3   4  -1 1.79689 1.83636   1
  -3  -4   1 11.0460 5.00582   1
  -2  -3   2 153.234 19.9475  -2
   2   4  -1 153.234 19.9475   1
  -2  -4   1 90.8698 5.40346   1
  -1  -2   3 1055.46 17.8668  -2
   1   4  -1 1055.46 17.8668   1
   1   2  -3 1103.46 18.2344  -2
  -1  -4   1 1103.46 18.2344   1
   0  -1   4 202.109 8.22411  -2
   0   4  -1 202.109 8.22411   1
   0   1  -4 195.877 13.2378  -2
   0  -4   1 195.877 13.2378   1
  -1   4  -1 341.721 5.86682   1
   1  -4   1 347.686 8.30958   1
  -2   4  -1 7.43803 3.17606   1
   2  -4   1 2.78052 3.22029   1
  -3   4  -1 -0.2010 2.96357   1
   3  -4   1 3.72650 2.93423   1
  -4   4  -1 276.709 11.3511   1
   4  -4   1 291.904 13.2885   1
   5   3   8 212.000 13.1297  -2
  -5   4  -1 212.000 13.1297   1
  -5  -3  -8 181.837 12.3313  -2
   5  -4   1 181.837 12.3313   1
   6   4   9 12.2222 7.28151  -2
  -6   4  -1 12.2222 7.28151   1
  -6  -4  -9 14.1838 8.06638  -2
   6  -4   1 14.1838 8.06638   1
   7   5  10 67.4137 11.9954  -2
  -7   4  -1 67.4137 11.9954   1
  -7  -5 -10 43.2105 19.5214  -2
   7  -4   1 43.2105 19.5214   1
  -8  -8  -4 364.112 30.1938  -2
   8   3  -1 364.112 30.1938   1
   8   8   4 269.142 41.7104  -2
  -8  -3   1 269.142 41.7104   1
  -7  -7  -3 135.291 13.4917  -2
   7   3  -1 135.291 13.4917   1
   7   7   3 162.253 27.1940  -2
  -7  -3   1 162.253 27.1940   1
   6   3  -1 26.6039 10.9314   1
   6   6   2 -9.7649 30.4932  -2
  -6  -3   1 -9.7649 30.4932   1
   5   3  -1 -0.9802 2.55015   1
  -5  -3   1 -3.3056 4.03612   1
   4   3  -1 73.4138 5.68504   1
  -4  -3   1 74.9349 5.35626   1
   3   3  -1 7.72969 2.14382   1
  -3  -3   1 0.54228 1.83328   1
   2   3  -1 5524.87 29.6948   1
  -2  -3   1 5572.43 35.9733   1
  -1  -2   2 5225.67 38.9872  -2
   1   3  -1 5225.67 38.9872   1
   1   2  -2 5305.48 38.1393  -2
  -1  -3   1 5305.48 38.1393   1
   0  -1   3 11.5270 4.49729  -2
   0   3  -1 11.5270 4.49729   1
   0   1  -3 5.82080 8.03776  -2
   0  -3   1 5.82080 8.03776   1
  -1   3  -1 102.414 2.94403   1
   1  -3   1 95.2142 4.62091   1
  -2   3  -1 284.430 8.79908   1
   2  -3   1 269.965 10.2639   1
  -3   3  -1 61.7675 6.67382   1
   3  -3   1 55.1595 5.18674   1
  -4   3  -1 182.506 11.0899   1
   4  -3   1 175.189 10.2920   1
   5   3   7 146.493 12.3192  -2
  -5   3  -1 146.493 12.3192   1
  -5  -3  -7 154.402 10.9476  -2
   5  -3   1 154.402 10.9476   1
   6   4   8 35.0323 8.13221  -2
  -6   3  -1 35.0323 8.13221   1
  -6  -4  -8 40.4608 11.2708  -2
   6  -3   1 40.4608 11.2708   1
   7   5   9 104.106 14.9050  -2
  -7   3  -1 104.106 14.9050   1
  -7  -5  -9 55.9619 18.7051  -2
   7  -3   1 55.9619 18.7051   1
  -8  -8  -5 324.988 21.7045  -2
   8   2  -1 324.988 21.7045   1
  -7  -7  -4 33.4381 8.07296  -2
   7   2  -1 33.4381 8.07296   1
   7   7   4 22.6622 15.5625  -2
  -7  -2   1 22.6622 15.5625   1
  -6  -6  -3 90.6754 12.6752  -2
   6   2  -1 90.6754 12.6752   1
   6   6   3 42.9909 29.1514  -2
  -6  -2   1 42.9909 29.1514   1
   5   2  -1 11.9030 3.45399   1
  -5  -2   1 9.97032 5.53940   1
   4   2  -1 11.6222 2.73991   1
  -4  -2   1 9.02747 2.22005   1
   3   2  -1 1413.66 14.1644   1
  -3  -2   1 1404.01 14.2366   1
   2   2  -1 2100.41 15.6481   1
  -2  -2   1 2099.92 18.9548   1
  -1  -2   1 25.8858 3.61106  -2
   1   2  -1 25.8858 3.61106   1
   1   2  -1 25.4157 4.51361  -2
  -1  -2   1 25.4157 4.51361   1
   0  -1   2 1899.63 16.8194  -2
   0   2  -1 1899.63 16.8194   1
   0   1  -2 1747.30 35.4220  -2
   0  -2   1 1747.30 35.4220   1
  -1   2  -1 6.48959 1.65489   1
   1  -2   1 -0.6089 1.96306   1
  -2   2  -1 7.59096 3.12522   1
   2  -2   1 5.51295 1.54739   1
  -3   2  -1 51.7500 3.34429   1
   3  -2   1 56.1928 3.58153   1
  -4   2  -1 1099.49 17.7967   1
   4  -2   1 1102.84 13.9298   1
   5   3   6 23.5825 8.88058  -2
  -5   2  -1 23.5825 8.88058   1
  -5  -3  -6 17.3409 7.82030  -2
   5  -2   1 17.3409 7.82030   1
   6   4   7 89.1075 9.93995  -2
  -6   2  -1 89.1075 9.93995   1
  -6  -4  -7 66.4394 12.3756  -2
   6  -2   1 66.4394 12.3756   1
   7   5   8 231.486 21.9905  -2
  -7   2  -1 231.486 21.9905   1
  -7  -5  -8 208.571 22.1385  -2
   7  -2   1 208.571 22.1385   1
  -8   2  -1 18.6108 7.01012   1
   8  -2   1 10.0777 9.62941   1
  -8  -8  -6 -5.4293 24.4377  -2
   8   1  -1 -5.4293 24.4377   1
  -7  -7  -5 59.4460 9.92736  -2
   7   1  -1 59.4460 9.92736   1
   7   7   5 104.238 16.6884  -2
  -7  -1   1 104.238 16.6884   1
  -6  -6  -4 732.049 25.4433  -2
   6   1  -1 732.049 25.4433   1
   6   6   4 783.300 44.0167  -2
  -6  -1   1 783.300 44.0167   1
   5   1  -1 8.66096 3.15090   1
  -5  -1   1 -2.6025 7.61742   1
   4   1  -1 31.0050 3.89351   1
  -4  -1   1 40.7669 12.1185   1
   3   1  -1 96.9441 5.78892   1
  -3  -1   1 71.3065 13.2117   1
   2   1  -1 50.9217 3.71352   1
  -2  -1   1 51.3849 3.65133   1
  -1  -2   0 2729.49 31.3966  -2
   1   1  -1 2729.49 31.3966   1
  -1  -1   1 1759.73 14.9573   1
   0  -1   1 77.1344 3.73126  -2
   0   1  -1 77.1344 3.73126   1
   0  -1   1 34.9371 3.92653   1
  -1   1  -1 4.14443 2.00049   1
   1  -1   1 -1.1964 2.63422   1
  -2   1  -1 223.771 6.05990   1
   2  -1   1 229.344 5.59136   1
  -3   1  -1 773.040 13.1007   1
   3  -1   1 759.276 10.0811   1
  -4   1  -1 99.6578 7.07821   1
   4  -1   1 98.1327 5.21310   1
   5   3   5 446.888 26.0135  -2
  -5   1  -1 446.888 26.0135   1
  -5  -3  -5 433.019 22.0211  -2
   5  -1   1 433.019 22.0211   1
   6   4   6 158.413 14.4242  -2
  -6   1  -1 158.413 14.4242   1
  -6  -4  -6 151.973 15.2769  -2
   6  -1   1 151.973 15.2769   1
   7   5   7 138.731 19.3998  -2
  -7   1  -1 138.731 19.3998   1
  -7  -5  -7 94.5979 15.2527  -2
   7  -1   1 94.5979 15.2527   1
  -8   1  -1 26.2765 10.7188   1
   8  -1   1 -1.3968 8.49479   1
  -8  -8  -7 33.4603 21.5604  -2
   8   0  -1 33.4603 21.5604   1
   8   8   7 90.8941 16.5328  -2
  -8   0   1 90.8941 16.5328   1
  -7  -7  -6 495.345 27.4491  -2
   7   0  -1 495.345 27.4491   1
  -6  -6  -5 547.804 20.1340  -2
   6   0  -1 547.804 20.1340   1
  -5  -5  -4 223.540 29.6772  -2
   5   0  -1 223.540 29.6772   1
   5   5   4 207.518 25.2939  -2
  -5   0   1 207.518 25.2939   1
   4   0  -1 158.928 7.52984   1
  -4   0   1 166.946 12.2940   1
   3   0  -1 1.48024 2.18495   1
  -3   0   1 1.18176 6.08067   1
   2   0  -1 264.980 6.34341   1
  -2   0   1 278.444 15.3453   1
   1   0  -1 30.0203 2.45719   1
  -1   0   1 44.4138 6.17845   1
   0  -1   0 2006.64 17.3901  -2
   0   0  -1 2006.64 17.3901   1
   0   1   0 2082.91 18.6978  -2
   0   0   1 2082.91 18.6978   1
   1   0   1 -11.135 6.75712  -2
  -1   0  -1 -11.135 6.75712   1
   1   0   1 1.72423 1.34396   1
  -2   0  -1 170.516 8.04145   1
   2   0   1 164.899 5.91732   1
  -3   0  -1 191.873 9.15278   1
   3   0   1 203.856 5.15706   1
  -4   0  -1 36.4555 6.06183   1
   4   0   1 51.8954 4.81451   1
   5   3   4 540.724 27.9367  -2
  -5   0  -1 540.724 27.9367   1
  -5  -3  -4 476.890 22.6459  -2
   5   0   1 476.890 22.6459   1
   6   4   5 674.043 25.1522  -2
  -6   0  -1 674.043 25.1522   1
  -6  -4  -5 606.724 18.9213  -2
   6   0   1 606.724 18.9213   1
  -7  -5  -6 126.734 17.7635  -2
   7   0   1 126.734 17.7635   1
  -8  -6  -7 208.736 38.4266  -2
   8   0   1 208.736 38.4266   1
   8  -1  -1 -4.4068 11.0087   1
  -8   1   1 18.0214 7.30688   1
  -7  -7  -7 72.8853 16.5664  -2
   7  -1  -1 72.8853 16.5664   1
   7   7   7 130.491 17.1826  -2
  -7   1   1 130.491 17.1826   1
  -6  -6  -6 156.776 18.3759  -2
   6  -1  -1 156.776 18.3759   1
   6   6   6 146.330 18.5116  -2
  -6   1   1 146.330 18.5116   1
   5  -1  -1 485.061 13.5216   1
  -5   1   1 514.061 27.4543   1
   4  -1  -1 533.205 11.4933   1
  -4   1   1 539.315 17.9967   1
   3  -1  -1 136.948 6.18176   1
  -3   1   1 107.414 8.91203   1
   2  -1  -1 29.1944 3.01316   1
  -2   1   1 22.5209 2.00685   1
  -1  -2  -2 173.767 12.8348  -2
   1  -1  -1 173.767 12.8348   1
   1   2   2 199.344 10.1070  -2
  -1   1   1 199.344 10.1070   1
   0  -1  -1 65.1369 1.77116  -2
   0  -1  -1 65.1369 1.77116   1
   0   1   1 56.9697 2.14022  -2
   0   1   1 56.9697 2.14022   1
  -1  -1  -1 137.242 3.38670   1
   1   1   1 137.016 3.63511   1
  -2  -1  -1 8.14511 4.02134   1
   2   1   1 9.68921 2.75892   1
  -3  -1  -1 151.500 8.98999   1
   3   1   1 148.882 4.45012   1
  -4  -1  -1 116.268 10.0024   1
   4   1   1 130.984 7.19457   1
  -5  -1  -1 257.293 12.5903   1
   5   1   1 281.290 12.5617   1
   6   4   4 13.9733 9.05176  -2
  -6  -1  -1 13.9733 9.05176   1
  -6  -4  -4 25.7320 8.98286  -2
   6   1   1 25.7320 8.98286   1
  -7  -5  -5 16.8346 10.0661  -2
   7   1   1 16.8346 10.0661   1
   8   1   1 -1.1316 6.04410   1
  -9  -1  -1 18.2892 10.4397   1
   9   1   1 -3.2809 9.71658   1
  -7  -7  -8 34.4461 16.7284  -2
   7  -2  -1 34.4461 16.7284   1
   7   7   8 82.1965 14.1700  -2
  -7   2   1 82.1965 14.1700   1
  -6  -6  -7 67.5726 11.8046  -2
   6  -2  -1 67.5726 11.8046   1
   6   6   7 91.1742 15.2124  -2
  -6   2   1 91.1742 15.2124   1
  -5  -5  -6 544.488 40.7869  -2
   5  -2  -1 544.488 40.7869   1
  -5   2   1 406.063 22.3853   1
   4  -2  -1 160.825 7.63468   1
  -4   2   1 142.433 6.16635   1
   3  -2  -1 29.5478 3.28062   1
  -3   2   1 23.2648 3.01864   1
   2  -2  -1 871.691 9.88144   1
  -2   2   1 867.074 15.6641   1
  -1  -2  -3 455.060 12.3600  -2
   1  -2  -1 455.060 12.3600   1
  -1   2   1 0.62002 1.64430   1
   0  -1  -2 203.011 5.57132  -2
   0  -2  -1 203.011 5.57132   1
   0   1   2 224.281 6.31277  -2
   0   2   1 224.281 6.31277   1
   1   0  -1 358.618 18.9397  -2
  -1  -2  -1 358.618 18.9397   1
  -1   0   1 346.630 19.8828  -2
   1   2   1 346.630 19.8828   1
  -2  -2  -1 1232.88 22.3424   1
   2   2   1 1180.14 11.5023   1
  -3  -2  -1 20.9024 6.01987   1
   3   2   1 24.7136 2.44367   1
  -4  -2  -1 840.787 21.4308   1
   4   2   1 837.991 10.7045   1
  -5  -2  -1 77.1588 9.39966   1
   5   2   1 81.0828 6.19670   1
   6   4   3 103.454 11.8835  -2
  -6  -2  -1 103.454 11.8835   1
  -6  -4  -3 101.882 12.6093  -2
   6   2   1 101.882 12.6093   1
   7   5   4 51.6478 18.9593  -2
  -7  -2  -1 51.6478 18.9593   1
  -7  -5  -4 56.8877 11.1134  -2
   7   2   1 56.8877 11.1134   1
  -8  -6  -5 27.1994 14.4723  -2
   8   2   1 27.1994 14.4723   1
  -9  -2  -1 10.4329 9.61960   1
   9   2   1 8.27155 6.78969   1
  -7  -7  -9 11.2366 13.9302  -2
   7  -3  -1 11.2366 13.9302   1
   7   7   9 61.5788 12.8078  -2
  -7   3   1 61.5788 12.8078   1
  -6  -6  -8 11.7069 11.0578  -2
   6  -3  -1 11.7069 11.0578   1
   6   6   8 23.6823 9.01988  -2
  -6   3   1 23.6823 9.01988   1
  -5  -5  -7 79.4781 16.3969  -2
   5  -3  -1 79.4781 16.3969   1
   5   5   7 79.2262 14.2656  -2
  -5   3   1 79.2262 14.2656   1
   4  -3  -1 -1.4758 4.22084   1
  -4   3   1 0.30563 3.39143   1
   3  -3  -1 995.464 11.8297   1
  -3   3   1 985.957 18.8538   1
   2  -3  -1 250.213 7.60157   1
  -2   3   1 250.481 8.67687   1
  -1  -2  -4 93.6672 6.82763  -2
   1  -3  -1 93.6672 6.82763   1
  -1   3   1 50.4634 4.58693   1
   0  -1  -3 739.043 12.8687  -2
   0  -3  -1 739.043 12.8687   1
   0   1   3 747.074 27.4908  -2
   0   3   1 747.074 27.4908   1
   1   0  -2 4881.30 33.5880  -2
  -1  -3  -1 4881.30 33.5880   1
  -1   0   2 5038.20 49.0528  -2
   1   3   1 5038.20 49.0528   1
  -2  -3  -1 205.909 11.6887   1
   2   3   1 198.722 5.30955   1
  -3  -3  -1 2312.24 35.9844   1
   3   3   1 2291.55 15.3818   1
  -4  -3  -1 398.600 16.3442   1
   4   3   1 386.537 8.67435   1
  -5  -3  -1 177.674 12.4518   1
   5   3   1 196.874 7.70901   1
   6   4   2 432.956 18.4349  -2
  -6  -3  -1 432.956 18.4349   1
  -6  -4  -2 421.638 20.8802  -2
   6   3   1 421.638 20.8802   1
   7   5   3 242.376 28.0255  -2
  -7  -3  -1 242.376 28.0255   1
  -7  -5  -3 222.388 16.0990  -2
   7   3   1 222.388 16.0990   1
   8   6   4 6.06367 26.1914  -2
  -8  -3  -1 6.06367 26.1914   1
  -8  -6  -4 15.2596 12.6657  -2
   8   3   1 15.2596 12.6657   1
   9   3   1 8.31097 7.20740   1
  -6  -6  -9 5.89739 8.79712  -2
   6  -4  -1 5.89739 8.79712   1
   6   6   9 17.3918 7.23003  -2
  -6   4   1 17.3918 7.23003   1
  -5  -5  -8 55.2129 13.8446  -2
   5  -4  -1 55.2129 13.8446   1
   5   5   8 83.6636 12.1799  -2
  -5   4   1 83.6636 12.1799   1
   4  -4  -1 8.29927 6.57591   1
  -4   4   1 3.97895 3.26111   1
   3  -4  -1 227.333 10.2269   1
  -3   4   1 249.468 9.50947   1
   2  -4  -1 388.530 10.0372   1
  -2   4   1 399.747 10.5634   1
  -1  -2  -5 698.357 15.6117  -2
   1  -4  -1 698.357 15.6117   1
  -1   4   1 1.21723 2.51684   1
   0  -1  -4 557.000 16.2786  -2
   0  -4  -1 557.000 16.2786   1
   0   1   4 551.582 29.2173  -2
   0   4   1 551.582 29.2173   1
   1   0  -3 22.2196 9.40317  -2
  -1  -4  -1 22.2196 9.40317   1
  -1   0   3 7.57767 5.60985  -2
   1   4   1 7.57767 5.60985   1
  -2  -4  -1 454.395 17.5559   1
   2   4   1 445.751 9.01703   1
  -3  -4  -1 929.433 24.7034   1
   3   4   1 940.854 19.5505   1
  -4  -4  -1 2.00591 4.49050   1
   4   4   1 2.09997 2.01308   1
  -5  -4  -1 79.0912 10.5373   1
   5   4   1 80.9345 8.23063   1
   6   4   1 489.270 22.5174  -2
  -6  -4  -1 489.270 22.5174   1
  -6  -4  -1 449.457 28.8917  -2
   6   4   1 449.457 28.8917   1
   7   5   2 235.135 30.2414  -2
  -7  -4  -1 235.135 30.2414   1
  -7  -5  -2 219.465 18.4426  -2
   7   4   1 219.465 18.4426   1
   8   6   3 145.110 32.6655  -2
  -8  -4  -1 145.110 32.6655   1
  -8  -6  -3 151.956 18.3537  -2
   8   4   1 151.956 18.3537   1
   9   4   1 6.29325 8.04193   1
  -6  -6 -10 35.5352 12.0869  -2
   6  -5  -1 35.5352 12.0869   1
   6   6  10 32.5053 7.99082  -2
  -6   5   1 32.5053 7.99082   1
  -5  -5  -9 11.0439 18.7830  -2
   5  -5  -1 11.0439 18.7830   1
   5   5   9 25.8006 9.36427  -2
  -5   5   1 25.8006 9.36427   1
   4  -5  -1 65.3396 11.3141   1
  -4   5   1 80.3670 6.98392   1
   3  -5  -1 413.787 15.4154   1
  -3   5   1 425.647 12.8356   1
   2  -5  -1 15.4984 4.14094   1
  -2   5   1 10.6485 3.83996   1
   1  -5  -1 16.9136 4.23047   1
  -1   5   1 10.2604 3.87082   1
   0  -1  -5 359.233 14.3994  -2
   0  -5  -1 359.233 14.3994   1
   0   1   5 345.320 10.5320  -2
   0   5   1 345.320 10.5320   1
   1   0  -4 96.1259 11.0754  -2
  -1  -5  -1 96.1259 11.0754   1
  -1   0   4 92.2589 7.36477  -2
   1   5   1 92.2589 7.36477   1
  -2  -5  -1 984.807 26.3339   1
   2   5   1 955.572 14.6210   1
  -3  -5  -1 13.2776 6.89063   1
   3   5   1 10.1373 4.50206   1
  -4  -5  -1 175.498 15.7052   1
   4   5   1 201.898 8.97322   1
  -5  -5  -1 28.4638 8.52730   1
   5   5   1 24.4744 7.60023   1
   6   4   0 572.409 25.8200  -2
  -6  -5  -1 572.409 25.8200   1
   6   5   1 556.820 32.1394   1
   7   5   1 114.430 14.5213  -2
  -7  -5  -1 114.430 14.5213   1
  -7  -5  -1 112.163 14.1035  -2
   7   5   1 112.163 14.1035   1
   8   6   2 467.610 43.6886  -2
  -8  -5  -1 467.610 43.6886   1
  -8  -6  -2 432.023 32.6495  -2
   8   5   1 432.023 32.6495   1
  -5  -5 -10 121.309 16.7973  -2
   5  -6  -1 121.309 16.7973   1
   5   5  10 76.9267 10.2228  -2
  -5   6   1 76.9267 10.2228   1
   4  -6  -1 35.9240 7.89361   1
  -4   6   1 32.6885 6.22950   1
   3  -6  -1 3.99598 4.64964   1
  -3   6   1 0.63092 3.89527   1
   2  -6  -1 125.559 9.31743   1
  -2   6   1 135.789 8.59431   1
   1  -6  -1 343.859 12.1479   1
  -1   6   1 316.373 12.9401   1
   0  -1  -6 83.3123 20.2663  -2
   0  -6  -1 83.3123 20.2663   1
   0   1   6 86.2166 12.5287  -2
   0   6   1 86.2166 12.5287   1
   1   0  -5 743.489 22.2194  -2
  -1  -6  -1 743.489 22.2194   1
  -1   0   5 742.555 17.1634  -2
   1   6   1 742.555 17.1634   1
   2   1  -4 785.591 26.3510  -2
  -2  -6  -1 785.591 26.3510   1
   2   6   1 170.304 7.78925   1
  -3  -6  -1 374.297 19.9512   1
   3   6   1 400.415 15.0045   1
  -4  -6  -1 66.5269 11.3013   1
   4   6   1 61.3594 8.61825   1
  -5  -6  -1 30.4810 9.72625   1
   5   6   1 40.2389 9.11250   1
   6   4  -1 99.5556 27.9072  -2
  -6  -6  -1 99.5556 27.9072   1
   6   6   1 6.32424 6.30250   1
   7   5   0 318.987 22.1022  -2
  -7  -6  -1 318.987 22.1022   1
  -7  -5   0 313.213 27.6469  -2
   7   6   1 313.213 27.6469   1
   8   6   1 638.001 49.1466  -2
  -8  -6  -1 638.001 49.1466   1
  -8  -6  -1 524.190 37.3518  -2
   8   6   1 524.190 37.3518   1
  -4  -4 -10 72.9435 15.9979  -2
   4  -7  -1 72.9435 15.9979   1
  -4   7   1 -0.2680 4.88871   1
   3  -7  -1 24.6817 6.65608   1
  -3   7   1 25.1405 6.13687   1
   2  -7  -1 35.7841 6.61751   1
  -2   7   1 42.0554 7.30586   1
   1  -7  -1 79.3063 7.85925   1
  -1   7   1 79.4019 10.4107   1
   0  -1  -7 77.1441 24.1781  -2
   0  -7  -1 77.1441 24.1781   1
   0   1   7 73.7967 15.3498  -2
   0   7   1 73.7967 15.3498   1
   1   0  -6 413.906 14.5086  -2
  -1  -7  -1 413.906 14.5086   1
  -1   0   6 397.305 20.0526  -2
   1   7   1 397.305 20.0526   1
   2   1  -5 303.936 20.0677  -2
  -2  -7  -1 303.936 20.0677   1
  -2  -1   5 304.672 18.2640  -2
   2   7   1 304.672 18.2640   1
  -3  -7  -1 33.8674 9.60114   1
   3   7   1 26.9845 6.73167   1
  -4  -7  -1 3.96432 6.98035   1
   4   7   1 6.37994 5.09780   1
  -5  -7  -1 367.255 21.9039   1
   5   7   1 366.948 20.2842   1
   6   4  -2 123.994 29.7850  -2
  -6  -7  -1 123.994 29.7850   1
   6   7   1 -3.4358 6.27341   1
   7   5  -1 102.095 17.0750  -2
  -7  -7  -1 102.095 17.0750   1
  -7  -5   1 136.611 17.1538  -2
   7   7   1 136.611 17.1538   1
   8   6   0 130.345 34.4687  -2
  -8  -7  -1 130.345 34.4687   1
  -8  -6   0 151.225 25.3621  -2
   8   7   1 151.225 25.3621   1
   3  -8  -1 16.7178 6.84031   1
  -3   8   1 4.25287 6.06756   1
   2  -8  -1 88.8474 10.0088   1
  -2   8   1 89.2251 11.6495   1
   1  -8  -1 5.55177 4.63634   1
  -1   8   1 -4.2999 5.89310   1
   0  -1  -8 482.319 23.3092  -2
   0  -8  -1 482.319 23.3092   1
   0   8   1 334.036 20.9070   1
   1   0  -7 319.188 31.0537  -2
  -1  -8  -1 319.188 31.0537   1
  -1   0   7 223.205 18.5102  -2
   1   8   1 223.205 18.5102   1
   2   1  -6 30.2803 13.5451  -2
  -2  -8  -1 30.2803 13.5451   1
  -2  -1   6 8.72074 15.0357  -2
   2   8   1 8.72074 15.0357   1
  -3  -8  -1 8.54543 5.43527   1
   3   8   1 18.7455 6.18361   1
  -4  -8  -1 965.533 34.3658   1
   4   8   1 978.695 26.6307   1
  -5  -8  -1 12.3971 8.57594   1
   5   8   1 7.45033 7.02920   1
   6   4  -3 65.6020 30.2922  -2
  -6  -8  -1 65.6020 30.2922   1
   6   8   1 3.03790 6.28680   1
   7   5  -2 6.28268 17.6310  -2
  -7  -8  -1 6.28268 17.6310   1
  -7  -5   2 21.5181 13.9387  -2
   7   8   1 21.5181 13.9387   1
   2  -9  -1 18.6360 6.13619   1
  -2   9   1 5.61818 7.35623   1
   1  -9  -1 18.4496 7.50977   1
  -1   9   1 7.24479 8.00494   1
   0  -9  -1 57.6232 9.00292   1
   0   9   1 41.8641 10.6855   1
   1   0  -8 16.7733 22.1704  -2
  -1  -9  -1 16.7733 22.1704   1
  -1   0   8 -10.378 11.8613  -2
   1   9   1 -10.378 11.8613   1
   2   1  -7 39.4268 23.1351  -2
  -2  -9  -1 39.4268 23.1351   1
  -2  -1   7 27.3944 14.5670  -2
   2   9   1 27.3944 14.5670   1
   3   2  -6 387.203 34.6738  -2
  -3  -9  -1 387.203 34.6738   1
   3   9   1 144.020 17.8480   1
  -4  -9  -1 83.4605 14.9268   1
   4   9   1 65.5722 9.48356   1
  -5  -9  -1 20.3977 9.96605   1
   5   9   1 12.5737 8.07018   1
  -6  -9  -1 51.9214 13.9341   1
   6   9   1 36.5238 9.53371   1
   0  -1 -10 95.6292 25.2285  -2
   0 -10  -1 95.6292 25.2285   1
   0  10   1 55.6897 12.7575   1
   1   0  -9 29.7846 24.7781  -2
  -1 -10  -1 29.7846 24.7781   1
  -1   0   9 10.1988 15.7668  -2
   1  10   1 10.1988 15.7668   1
   2   1  -8 46.5344 24.8929  -2
  -2 -10  -1 46.5344 24.8929   1
  -2  -1   8 25.5821 15.4429  -2
   2  10   1 25.5821 15.4429   1
  -3 -10  -1 99.1427 23.9447   1
   3  10   1 135.604 18.5882   1
  -4 -10  -1 8.33686 9.02932   1
   4  10   1 -0.7854 9.17243   1
  -5 -10  -1 32.9791 11.1624   1
   5  10   1 60.3140 20.0254   1
  -4  -9   2 32.0182 10.9709   1
  -3  -5   6 22.0565 20.0119  -2
   3   9  -2 22.0565 20.0119   1
   3   5  -6 51.4365 17.4515  -2
  -3  -9   2 51.4365 17.4515   1
  -2  -4   7 247.024 19.6624  -2
   2   9  -2 247.024 19.6624   1
   2   4  -7 266.176 33.2975  -2
  -2  -9   2 266.176 33.2975   1
  -1  -3   8 305.109 24.8475  -2
   1   9  -2 305.109 24.8475   1
   1   3  -8 332.311 34.0529  -2
  -1  -9   2 332.311 34.0529   1
   0   9  -2 43.1144 10.9057   1
   0  -9   2 50.2762 8.99357   1
  -1   9  -2 9.73408 8.11389   1
   1  -9   2 13.8529 6.42091   1
  -2   9  -2 -0.5032 8.00537   1
   2  -9   2 6.40242 5.70144   1
   5   8  -2 83.1752 17.6018   1
  -5  -8   2 102.895 15.7596   1
   4   8  -2 17.2900 6.14648   1
  -4  -8   2 33.3420 10.1700   1
  -3  -5   5 79.7618 13.8183  -2
   3   8  -2 79.7618 13.8183   1
   3   5  -5 106.098 19.3267  -2
  -3  -8   2 106.098 19.3267   1
  -2  -4   6 499.450 24.6221  -2
   2   8  -2 499.450 24.6221   1
   2   4  -6 534.530 26.3161  -2
  -2  -8   2 534.530 26.3161   1
  -1  -3   7 78.5104 15.3230  -2
   1   8  -2 78.5104 15.3230   1
   1   3  -7 78.3103 22.4221  -2
  -1  -8   2 78.3103 22.4221   1
   0   8  -2 178.919 17.5675   1
   0  -8   2 225.285 29.9090   1
  -1   8  -2 32.9551 8.94472   1
   1  -8   2 57.6605 8.66859   1
  -2   8  -2 7.28471 7.74260   1
   2  -8   2 13.4280 5.60160   1
  -3   8  -2 164.413 13.8906   1
   3  -8   2 148.525 14.6141   1
   6   7  -2 8.48776 10.8864   1
   6   7  -2 106.909 38.9906  -2
  -6  -7   2 106.909 38.9906   1
   5   7  -2 0.55230 6.23407   1
  -5  -7   2 -0.9677 7.62055   1
   4   7  -2 138.331 11.8280   1
  -4  -7   2 126.067 15.0643   1
   3   7  -2 120.144 10.6489   1
   3   5  -4 134.063 31.5497  -2
  -3  -7   2 134.063 31.5497   1
  -2  -4   5 69.4689 8.96077  -2
   2   7  -2 69.4689 8.96077   1
   2   4  -5 65.6268 14.0397  -2
  -2  -7   2 65.6268 14.0397   1
  -1  -3   6 4.20091 10.7033  -2
   1   7  -2 4.20091 10.7033   1
   1   3  -6 9.81713 13.4950  -2
  -1  -7   2 9.81713 13.4950   1
   0   7  -2 228.887 17.1424   1
   0  -7   2 242.939 22.1342   1
  -1   7  -2 31.8361 8.29303   1
   1  -7   2 30.1302 6.28247   1
  -2   7  -2 327.264 17.4358   1
   2  -7   2 346.295 17.3410   1
  -3   7  -2 114.503 10.2379   1
   3  -7   2 111.867 10.6562   1
   4   1  10 22.2700 10.6242  -2
  -4   7  -2 22.2700 10.6242   1
  -4  -1 -10 34.8737 14.6341  -2
   4  -7   2 34.8737 14.6341   1
   5   2  11 60.5328 9.29377  -2
  -5   7  -2 60.5328 9.29377   1
  -5  -2 -11 57.4212 10.0982  -2
   5  -7   2 57.4212 10.0982   1
  -7  -8   0 57.1565 23.0941  -2
   7   6  -2 57.1565 23.0941   1
   7   8   0 119.671 38.6417  -2
  -7  -6   2 119.671 38.6417   1
   6   6  -2 44.7195 16.0935   1
   6   7  -1 199.574 47.9659  -2
  -6  -6   2 199.574 47.9659   1
   5   6  -2 81.1902 11.8508   1
  -5  -6   2 72.8743 11.2431   1
   4   6  -2 374.512 14.7894   1
  -4  -6   2 374.070 19.6547   1
   3   6  -2 12.7290 4.93307   1
  -3  -6   2 8.60876 7.42778   1
  -2  -4   4 308.844 13.7160  -2
   2   6  -2 308.844 13.7160   1
   2   4  -4 315.135 19.9064  -2
  -2  -6   2 315.135 19.9064   1
  -1  -3   5 73.9398 8.19663  -2
   1   6  -2 73.9398 8.19663   1
   1   3  -5 71.4705 12.8525  -2
  -1  -6   2 71.4705 12.8525   1
   0   6  -2 -4.7600 4.38132   1
   0  -6   2 5.90723 4.72411   1
  -1   6  -2 25.7714 7.09306   1
   1  -6   2 21.6302 4.80148   1
  -2   6  -2 133.999 10.0062   1
   2  -6   2 129.328 9.77512   1
  -3   6  -2 14.7754 5.10810   1
   3  -6   2 7.64521 5.33177   1
   4   1   9 4.95796 21.8044  -2
  -4   6  -2 4.95796 21.8044   1
  -4  -1  -9 39.4904 14.4385  -2
   4  -6   2 39.4904 14.4385   1
   5   2  10 141.300 10.4738  -2
  -5   6  -2 141.300 10.4738   1
  -5  -2 -10 190.270 13.7134  -2
   5  -6   2 190.270 13.7134   1
  -6   6  -2 41.8141 6.38682   1
   6  -6   2 51.4211 11.2802   1
  -7  -8  -1 -13.346 20.4615  -2
   7   5  -2 -13.346 20.4615   1
   7   8   1 18.7059 33.1621  -2
  -7  -5   2 18.7059 33.1621   1
   6   5  -2 26.7933 13.7146   1
   6   7   0 0.62099 37.4087  -2
  -6  -5   2 0.62099 37.4087   1
   5   5  -2 378.376 17.3686   1
  -5  -5   2 398.148 17.9187   1
   4   5  -2 541.281 17.2409   1
  -4  -5   2 532.713 20.9487   1
   3   5  -2 58.2683 7.52134   1
  -3  -5   2 60.9720 10.5053   1
  -2  -4   3 277.305 10.9107  -2
   2   5  -2 277.305 10.9107   1
   2   4  -3 288.028 18.3771  -2
  -2  -5   2 288.028 18.3771   1
  -1  -3   4 189.297 9.48061  -2
   1   5  -2 189.297 9.48061   1
   1   3  -4 182.144 9.76550  -2
  -1  -5   2 182.144 9.76550   1
   0   5  -2 5.03418 2.94788   1
   0  -5   2 7.90614 4.19057   1
  -1   5  -2 364.791 14.3648   1
   1  -5   2 351.150 9.58961   1
  -2   5  -2 28.1883 4.62055   1
   2  -5   2 17.0225 4.48595   1
  -3   5  -2 43.4959 5.75823   1
   3  -5   2 38.4152 6.75672   1
   4   1   8 104.254 9.79409  -2
  -4   5  -2 104.254 9.79409   1
  -4  -1  -8 124.954 13.2743  -2
   4  -5   2 124.954 13.2743   1
   5   2   9 545.523 17.4282  -2
  -5   5  -2 545.523 17.4282   1
  -5  -2  -9 605.444 27.4321  -2
   5  -5   2 605.444 27.4321   1
   6   3  10 24.1104 8.83969  -2
  -6   5  -2 24.1104 8.83969   1
  -6  -3 -10 31.7005 10.4943  -2
   6  -5   2 31.7005 10.4943   1
  -7  -8  -2 28.7329 17.6964  -2
   7   4  -2 28.7329 17.6964   1
   7   8   2 64.8521 37.0190  -2
  -7  -4   2 64.8521 37.0190   1
   6   4  -2 85.4403 12.4735   1
   6   7   1 89.0606 39.0071  -2
  -6  -4   2 89.0606 39.0071   1
   5   4  -2 215.859 16.1492   1
  -5  -4   2 158.502 28.5220   1
   4   4  -2 121.304 11.3375   1
  -4  -4   2 120.700 11.5070   1
   3   4  -2 277.605 8.86005   1
  -3  -4   2 289.295 14.3558   1
  -2  -4   2 1508.46 21.1367  -2
   2   4  -2 1508.46 21.1367   1
   2   4  -2 1447.49 20.5873  -2
  -2  -4   2 1447.49 20.5873   1
  -1  -3   3 75.1788 6.02210  -2
   1   4  -2 75.1788 6.02210   1
   1   3  -3 64.5771 6.00664  -2
  -1  -4   2 64.5771 6.00664   1
   0  -2   4 425.567 27.9685  -2
   0   4  -2 425.567 27.9685   1
   0   2  -4 437.185 25.4239  -2
   0  -4   2 437.185 25.4239   1
  -1   4  -2 27.2487 2.90708   1
   1  -4   2 25.1671 3.38239   1
  -2   4  -2 257.647 8.93746   1
   2  -4   2 259.877 8.15545   1
  -3   4  -2 -4.1994 2.01739   1
   3  -4   2 4.85025 4.61252   1
   4   1   7 447.615 17.7426  -2
  -4   4  -2 447.615 17.7426   1
   4  -4   2 198.950 10.5412   1
   5   2   8 105.882 10.0718  -2
  -5   4  -2 105.882 10.0718   1
  -5  -2  -8 109.007 11.7056  -2
   5  -4   2 109.007 11.7056   1
   6   3   9 54.1398 9.32957  -2
  -6   4  -2 54.1398 9.32957   1
  -6  -3  -9 54.0930 9.70435  -2
   6  -4   2 54.0930 9.70435   1
  -7   4  -2 94.4870 8.94117   1
  -7  -4 -10 169.681 35.1864  -2
   7  -4   2 169.681 35.1864   1
  -7  -8  -3 37.4008 11.7959  -2
   7   3  -2 37.4008 11.7959   1
   7   8   3 17.1325 30.9092  -2
  -7  -3   2 17.1325 30.9092   1
   6   3  -2 123.055 14.2394   1
   6   7   2 98.2119 36.2034  -2
  -6  -3   2 98.2119 36.2034   1
   5   3  -2 -1.4515 4.01745   1
  -5  -3   2 -9.2187 9.34958   1
   4   3  -2 74.5223 6.39912   1
  -4  -3   2 89.7092 8.77794   1
   3   3  -2 912.362 14.2861   1
  -3  -3   2 919.288 14.8585   1
  -2  -4   1 127.075 9.02386  -2
   2   3  -2 127.075 9.02386   1
  -2  -3   2 24.8407 3.81895   1
  -1  -3   2 10.3791 3.67070  -2
   1   3  -2 10.3791 3.67070   1
   1   3  -2 13.4708 4.80795  -2
  -1  -3   2 13.4708 4.80795   1
   0  -2   3 952.944 14.7809  -2
   0   3  -2 952.944 14.7809   1
   0  -3   2 862.976 19.7495   1
  -1   3  -2 442.583 6.87070   1
   1  -3   2 435.992 9.60896   1
  -2   3  -2 14.5024 2.69989   1
   2  -3   2 10.2322 4.08698   1
  -3   3  -2 378.991 11.8981   1
   3  -3   2 378.962 12.1627   1
  -4   3  -2 143.799 9.92870   1
   4  -3   2 122.072 8.03723   1
   5   2   7 96.3610 10.8984  -2
  -5   3  -2 96.3610 10.8984   1
  -5  -2  -7 100.223 10.9101  -2
   5  -3   2 100.223 10.9101   1
   6   3   8 54.6318 9.15114  -2
  -6   3  -2 54.6318 9.15114   1
  -6  -3  -8 67.1046 8.79954  -2
   6  -3   2 67.1046 8.79954   1
   7   4   9 275.762 20.5125  -2
  -7   3  -2 275.762 20.5125   1
  -7  -4  -9 250.514 36.7597  -2
   7  -3   2 250.514 36.7597   1
  -8   3  -2 15.4996 6.41099   1
  -7  -8  -4 304.880 16.6463  -2
   7   2  -2 304.880 16.6463   1
   7   8   4 254.810 35.3514  -2
  -7  -2   2 254.810 35.3514   1
  -6  -7  -3 304.816 19.8303  -2
   6   2  -2 304.816 19.8303   1
   6   7   3 233.694 38.7768  -2
  -6  -2   2 233.694 38.7768   1
   5   2  -2 153.624 9.13124   1
  -5  -2   2 129.741 23.7940   1
   4   2  -2 14.9714 3.42057   1
  -4  -2   2 12.2228 4.87612   1
   3   2  -2 278.171 7.07297   1
  -3  -2   2 267.304 6.58983   1
   2   2  -2 662.326 11.0247   1
  -2  -2   2 648.291 15.3848   1
  -1  -3   1 5167.95 27.9289  -2
   1   2  -2 5167.95 27.9289   1
   1   3  -1 5417.76 58.8728  -2
  -1  -2   2 5417.76 58.8728   1
   0  -2   2 -0.0074 4.06306  -2
   0   2  -2 -0.0074 4.06306   1
   0  -2   2 3.35408 4.43073   1
  -1   2  -2 9.77596 2.07896   1
   1  -2   2 13.5186 2.26345   1
  -2   2  -2 1507.48 20.2720   1
   2  -2   2 1526.60 21.9896   1
  -3   2  -2 1679.87 17.6238   1
   3  -2   2 1717.33 23.0947   1
  -4   2  -2 -1.1700 1.93188   1
   4  -2   2 4.73283 2.24244   1
   5   2   6 80.5682 11.0775  -2
  -5   2  -2 80.5682 11.0775   1
  -5  -2  -6 72.3974 9.96631  -2
   5  -2   2 72.3974 9.96631   1
   6   3   7 40.3735 8.81643  -2
  -6   2  -2 40.3735 8.81643   1
  -6  -3  -7 49.0923 9.55891  -2
   6  -2   2 49.0923 9.55891   1
   7   4   8 447.556 28.7523  -2
  -7   2  -2 447.556 28.7523   1
  -7  -4  -8 402.159 26.2972  -2
   7  -2   2 402.159 26.2972   1
  -8   2  -2 77.2447 13.5283   1
   8  -2   2 62.9303 13.5577   1
  -7  -8  -5 346.929 17.6086  -2
   7   1  -2 346.929 17.6086   1
   7   8   5 349.384 26.6413  -2
  -7  -1   2 349.384 26.6413   1
  -6  -7  -4 138.871 11.4753  -2
   6   1  -2 138.871 11.4753   1
   6   7   4 119.109 31.4603  -2
  -6  -1   2 119.109 31.4603   1
   5   1  -2 13.3604 4.07320   1
  -5  -1   2 11.2517 6.03922   1
   4   1  -2 330.644 9.78110   1
  -4  -1   2 348.672 14.9079   1
   3   1  -2 555.015 11.1196   1
  -3  -1   2 577.265 16.6571   1
   2   1  -2 103.433 5.48165   1
  -2  -1   2 118.961 8.02495   1
  -1  -3   0 207.237 6.17680  -2
   1   1  -2 207.237 6.17680   1
   1   3   0 209.361 8.62605  -2
  -1  -1   2 209.361 8.62605   1
   0  -2   1 1900.31 16.3236  -2
   0   1  -2 1900.31 16.3236   1
   0  -1   2 885.507 17.3291   1
  -1   1  -2 140.363 3.74755   1
   1  -1   2 146.555 4.93556   1
  -2   1  -2 2336.96 20.2244   1
   2  -1   2 2268.60 25.4266   1
  -3   1  -2 686.727 12.6022   1
   3  -1   2 691.903 14.1179   1
  -4   1  -2 86.7245 6.86468   1
   4  -1   2 102.286 5.55254   1
   5   2   5 13.4580 14.5420  -2
  -5   1  -2 13.4580 14.5420   1
  -5  -2  -5 11.4213 6.07974  -2
   5  -1   2 11.4213 6.07974   1
   6   3   6 18.9688 7.05266  -2
  -6   1  -2 18.9688 7.05266   1
  -6  -3  -6 9.24531 5.71596  -2
   6  -1   2 9.24531 5.71596   1
   7   4   7 74.8562 17.0972  -2
  -7   1  -2 74.8562 17.0972   1
  -7  -4  -7 105.287 16.9898  -2
   7  -1   2 105.287 16.9898   1
  -8   1  -2 91.8674 15.6862   1
   8  -1   2 84.8838 15.1676   1
  -7  -8  -6 66.1642 14.8989  -2
   7   0  -2 66.1642 14.8989   1
   7   8   6 75.1055 14.5122  -2
  -7   0   2 75.1055 14.5122   1
  -6  -7  -5 28.3146 9.85495  -2
   6   0  -2 28.3146 9.85495   1
   5   0  -2 804.199 16.1597   1
  -5   0   2 821.119 20.3520   1
   4   0  -2 141.803 7.80241   1
  -4   0   2 139.957 9.90665   1
   3   0  -2 287.613 8.20745   1
  -3   0   2 292.767 10.2773   1
   2   0  -2 201.968 6.43508   1
  -2   0   2 193.634 8.65999   1
  -1  -3  -1 4739.56 28.5454  -2
   1   0  -2 4739.56 28.5454   1
   1   3   1 4650.81 35.1521  -2
  -1   0   2 4650.81 35.1521   1
   0  -2   0 539.313 7.86091  -2
   0   0  -2 539.313 7.86091   1
   0   2   0 577.880 7.03987  -2
   0   0   2 577.880 7.03987   1
  -1   0  -2 206.537 6.08792   1
   1   0   2 196.200 8.76768   1
  -2   0  -2 6635.61 51.1839   1
   2   0   2 6593.87 38.4413   1
  -3   0  -2 256.132 10.8856   1
   3   0   2 261.722 8.53149   1
  -4   0  -2 319.705 12.6840   1
   4   0   2 333.238 7.33970   1
   5   2   4 347.587 16.0793  -2
  -5   0  -2 347.587 16.0793   1
  -5  -2  -4 308.943 15.2945  -2
   5   0   2 308.943 15.2945   1
   6   3   5 19.1520 7.69847  -2
  -6   0  -2 19.1520 7.69847   1
  -6  -3  -5 15.2650 5.52671  -2
   6   0   2 15.2650 5.52671   1
   7   4   6 87.7861 15.3154  -2
  -7   0  -2 87.7861 15.3154   1
  -7  -4  -6 66.9156 14.8911  -2
   7   0   2 66.9156 14.8911   1
  -8  -5  -7 176.087 36.2991  -2
   8   0   2 176.087 36.2991   1
  -9   0  -2 19.0679 9.68129   1
   9   0   2 16.7876 10.6733   1
  -7  -8  -7 26.5972 13.9600  -2
   7  -1  -2 26.5972 13.9600   1
   7   8   7 69.6769 13.6787  -2
  -7   1   2 69.6769 13.6787   1
  -6  -7  -6 197.091 19.7140  -2
   6  -1  -2 197.091 19.7140   1
   6   7   6 212.247 19.9561  -2
  -6   1   2 212.247 19.9561   1
   5  -1  -2 86.6960 6.99030   1
  -5   1   2 69.1843 11.7897   1
   4  -1  -2 347.359 9.80282   1
  -4   1   2 320.829 14.5957   1
   3  -1  -2 488.744 10.2059   1
  -3   1   2 504.416 15.7985   1
   2  -1  -2 35.4766 3.27251   1
  -2   1   2 36.7378 4.77677   1
  -1  -3  -2 247.217 7.49462  -2
   1  -1  -2 247.217 7.49462   1
   1   3   2 228.550 5.40675  -2
  -1   1   2 228.550 5.40675   1
   0  -2  -1 221.500 4.21927  -2
   0  -1  -2 221.500 4.21927   1
   0   2   1 222.849 4.51478  -2
   0   1   2 222.849 4.51478   1
   1  -1   0 9999.99 88.2714  -2
  -1  -1  -2 9999.99 88.2714   1
   1   1   2 4497.14 22.8573   1
  -2  -1  -2 2.91304 1.76959   1
   2   1   2 -1.4799 2.12350   1
  -3  -1  -2 163.894 10.8764   1
   3   1   2 158.779 6.90171   1
  -4  -1  -2 1075.48 23.9654   1
   4   1   2 1094.36 11.1507   1
   5   2   3 1072.10 26.5092  -2
  -5  -1  -2 1072.10 26.5092   1
  -5  -2  -3 1030.80 41.2515  -2
   5   1   2 1030.80 41.2515   1
   6   3   4 56.9826 9.21334  -2
  -6  -1  -2 56.9826 9.21334   1
  -6  -3  -4 46.0454 6.34082  -2
   6   1   2 46.0454 6.34082   1
   7   4   5 214.807 20.1359  -2
  -7  -1  -2 214.807 20.1359   1
  -7  -4  -5 221.273 17.1778  -2
   7   1   2 221.273 17.1778   1
  -8  -1  -2 17.1864 9.74281   1
   8   1   2 -4.2412 5.56194   1
  -9  -1  -2 27.6265 11.7966   1
   9   1   2 -11.405 8.92675   1
  -7  -8  -8 9.07881 15.4700  -2
   7  -2  -2 9.07881 15.4700   1
  -6  -7  -7 89.2796 15.8212  -2
   6  -2  -2 89.2796 15.8212   1
  -5  -6  -6 1033.00 53.3654  -2
   5  -2  -2 1033.00 53.3654   1
   5   6   6 1015.00 37.6147  -2
  -5   2   2 1015.00 37.6147   1
   4  -2  -2 4.71205 2.88390   1
  -4   2   2 2.30153 4.02755   1
   3  -2  -2 14.7777 2.70592   1
  -3   2   2 7.56248 4.09294   1
   2  -2  -2 489.825 7.76847   1
  -2   2   2 472.733 8.68079   1
  -1  -3  -3 491.802 14.7126  -2
   1  -2  -2 491.802 14.7126   1
   1   3   3 505.067 13.0327  -2
  -1   2   2 505.067 13.0327   1
   0  -2  -2 2902.51 16.1208  -2
   0  -2  -2 2902.51 16.1208   1
   0   2   2 2721.05 20.9279  -2
   0   2   2 2721.05 20.9279   1
  -1  -2  -2 9.61433 2.43551   1
   1   2   2 6.51811 2.80206   1
  -2  -2  -2 15.6393 5.07848   1
   2   2   2 19.7811 3.10688   1
  -3  -2  -2 142.533 11.4239   1
   3   2   2 131.243 6.59746   1
  -4  -2  -2 1385.06 28.6955   1
   4   2   2 1382.37 19.2860   1
  -5  -2  -2 213.343 12.9498   1
   5   2   2 207.257 8.09896   1
   6   3   3 1023.20 27.7369  -2
  -6  -2  -2 1023.20 27.7369   1
  -6  -3  -3 1031.30 21.9542  -2
   6   2   2 1031.30 21.9542   1
   7   4   4 67.9326 13.0623  -2
  -7  -2  -2 67.9326 13.0623   1
  -7  -4  -4 69.2676 11.9482  -2
   7   2   2 69.2676 11.9482   1
  -8  -5  -5 37.5735 24.3801  -2
   8   2   2 37.5735 24.3801   1
  -9  -2  -2 5.77661 10.3464   1
   9   2   2 13.5954 6.50420   1
  -6  -7  -8 358.805 36.6862  -2
   6  -3  -2 358.805 36.6862   1
   6   7   8 354.896 22.1257  -2
  -6   3   2 354.896 22.1257   1
  -5  -6  -7 117.178 28.0513  -2
   5  -3  -2 117.178 28.0513   1
   5   6   7 124.344 15.3599  -2
  -5   3   2 124.344 15.3599   1
   4  -3  -2 105.654 10.4576   1
  -4   3   2 126.425 11.6495   1
   3  -3  -2 958.970 13.8935   1
  -3   3   2 950.122 17.2230   1
   2  -3  -2 7.48268 2.92390   1
  -2   3   2 4.04240 2.76644   1
  -1  -3  -4 718.468 17.8380  -2
   1  -3  -2 718.468 17.8380   1
   1   3   4 738.508 17.4527  -2
  -1   3   2 738.508 17.4527   1
   0  -2  -3 4418.02 26.8511  -2
   0  -3  -2 4418.02 26.8511   1
   0   2   3 4484.35 38.0184  -2
   0   3   2 4484.35 38.0184   1
   1  -1  -2 244.808 7.55729  -2
  -1  -3  -2 244.808 7.55729   1
  -1   1   2 255.094 19.9414  -2
   1   3   2 255.094 19.9414   1
  -2  -3  -2 8.05714 2.53558   1
   2   3   2 13.1482 3.23816   1
  -3  -3  -2 15.9643 6.03229   1
   3   3   2 13.6142 3.02867   1
  -4  -3  -2 197.250 15.3865   1
   4   3   2 180.585 6.67713   1
  -5  -3  -2 176.898 15.2410   1
   5   3   2 179.963 8.69615   1
   6   3   2 1715.14 37.5541  -2
  -6  -3  -2 1715.14 37.5541   1
  -6  -3  -2 1640.75 36.8299  -2
   6   3   2 1640.75 36.8299   1
   7   4   3 222.025 15.5074  -2
  -7  -3  -2 222.025 15.5074   1
  -7  -4  -3 225.725 17.0639  -2
   7   3   2 225.725 17.0639   1
   8   5   4 29.5435 25.8406  -2
  -8  -3  -2 29.5435 25.8406   1
  -8  -5  -4 41.8381 24.4853  -2
   8   3   2 41.8381 24.4853   1
   9   3   2 35.7009 9.99917   1
  -6  -7  -9 64.8978 13.0376  -2
   6  -4  -2 64.8978 13.0376   1
   6   7   9 93.7834 10.6477  -2
  -6   4   2 93.7834 10.6477   1
  -5  -6  -8 73.4767 25.2207  -2
   5  -4  -2 73.4767 25.2207   1
   5   6   8 93.3476 11.3272  -2
  -5   4   2 93.3476 11.3272   1
   4  -4  -2 230.523 16.2752   1
  -4   4   2 235.851 12.7181   1
   3  -4  -2 76.1785 8.64569   1
  -3   4   2 83.1363 6.52999   1
   2  -4  -2 1.97091 3.14646   1
  -2   4   2 4.27767 2.96517   1
  -1  -3  -5 1182.13 22.4448  -2
   1  -4  -2 1182.13 22.4448   1
  -1   4   2 764.910 14.3121   1
   0  -2  -4 405.561 9.82796  -2
   0  -4  -2 405.561 9.82796   1
   0   2   4 353.057 11.8972  -2
   0   4   2 353.057 11.8972   1
   1  -1  -3 41.2062 5.53492  -2
  -1  -4  -2 41.2062 5.53492   1
  -1   1   3 35.9833 8.46046  -2
   1   4   2 35.9833 8.46046   1
  -2  -4  -2 129.806 5.56824   1
   2   4   2 112.435 7.09258   1
  -3  -4  -2 4.45383 1.98935   1
   3   4   2 1.51142 2.28485   1
  -4  -4  -2 89.1401 5.13682   1
   4   4   2 102.761 4.10234   1
  -5  -4  -2 51.6489 9.09184   1
   5   4   2 47.2352 6.23186   1
   6   3   1 477.237 23.5980  -2
  -6  -4  -2 477.237 23.5980   1
  -6  -3  -1 416.696 20.6981  -2
   6   4   2 416.696 20.6981   1
   7   4   2 70.2731 11.9858  -2
  -7  -4  -2 70.2731 11.9858   1
  -7  -4  -2 73.1572 12.1730  -2
   7   4   2 73.1572 12.1730   1
   8   5   3 221.999 33.4408  -2
  -8  -4  -2 221.999 33.4408   1
  -8  -5  -3 155.857 18.0136  -2
   8   4   2 155.857 18.0136   1
  -9  -4  -2 61.4278 18.0834   1
   9   4   2 40.3200 10.2885   1
  -5  -6  -9 216.740 21.1591  -2
   5  -5  -2 216.740 21.1591   1
   5   6   9 224.580 15.3211  -2
  -5   5   2 224.580 15.3211   1
   4  -5  -2 241.888 16.1723   1
  -4   5   2 246.046 11.3713   1
   3  -5  -2 22.3649 6.45613   1
  -3   5   2 22.4922 4.98823   1
   2  -5  -2 168.583 9.27032   1
  -2   5   2 164.287 8.67548   1
   1  -5  -2 250.544 8.15779   1
  -1   5   2 247.999 9.85169   1
   0  -2  -5 398.642 10.5796  -2
   0  -5  -2 398.642 10.5796   1
   0   2   5 455.433 16.9989  -2
   0   5   2 455.433 16.9989   1
   1  -1  -4 1714.59 20.5808  -2
  -1  -5  -2 1714.59 20.5808   1
  -1   1   4 1685.10 33.0844  -2
   1   5   2 1685.10 33.0844   1
  -2  -5  -2 1597.77 18.6481   1
   2   5   2 1612.15 23.6994   1
  -3  -5  -2 742.052 10.3675   1
   3   5   2 723.638 12.8470   1
  -4  -5  -2 7.76337 3.42232   1
   4   5   2 7.42848 3.82684   1
  -5  -5  -2 5.53081 5.97521   1
   5   5   2 6.79096 3.84103   1
   6   3   0 112.928 16.0885  -2
  -6  -5  -2 112.928 16.0885   1
  -6  -3   0 113.365 15.3042  -2
   6   5   2 113.365 15.3042   1
   7   4   1 244.502 17.3742  -2
  -7  -5  -2 244.502 17.3742   1
  -7  -4  -1 280.079 17.8903  -2
   7   5   2 280.079 17.8903   1
   8   5   2 520.996 42.7481  -2
  -8  -5  -2 520.996 42.7481   1
  -8  -5  -2 488.777 35.0810  -2
   8   5   2 488.777 35.0810   1
   9   6   3 94.2943 37.0325  -2
  -9  -5  -2 94.2943 37.0325   1
   9   5   2 93.2557 14.0808   1
  -5  -6 -10 153.517 20.0280  -2
   5  -6  -2 153.517 20.0280   1
   5   6  10 108.089 12.2378  -2
  -5   6   2 108.089 12.2378   1
   4  -6  -2 36.7010 9.44390   1
  -4   6   2 25.6505 6.93872   1
   3  -6  -2 6.20821 6.54073   1
  -3   6   2 1.98396 4.00646   1
   2  -6  -2 184.315 10.4072   1
  -2   6   2 186.531 9.89545   1
   1  -6  -2 16.3704 3.85095   1
  -1   6   2 23.9136 5.50243   1
   0  -2  -6 27.6850 6.41860  -2
   0  -6  -2 27.6850 6.41860   1
   0   2   6 22.1143 10.5216  -2
   0   6   2 22.1143 10.5216   1
   1  -1  -5 1242.72 28.9278  -2
  -1  -6  -2 1242.72 28.9278   1
  -1   1   5 1380.28 32.8625  -2
   1   6   2 1380.28 32.8625   1
  -2  -6  -2 1129.58 17.0972   1
   2   6   2 1137.89 18.4290   1
  -3  -6  -2 106.392 9.28574   1
   3   6   2 117.170 10.3004   1
  -4  -6  -2 217.848 10.8095   1
   4   6   2 237.143 15.2704   1
  -5  -6  -2 9.74796 7.43845   1
   5   6   2 8.10822 4.95090   1
   6   3  -1 54.7533 26.0594  -2
  -6  -6  -2 54.7533 26.0594   1
   6   6   2 17.7663 7.60814   1
   7   4   0 326.720 21.5865  -2
  -7  -6  -2 326.720 21.5865   1
  -7  -4   0 319.823 27.3662  -2
   7   6   2 319.823 27.3662   1
   8   5   1 505.669 43.5098  -2
  -8  -6  -2 505.669 43.5098   1
  -8  -5  -1 513.015 37.6507  -2
   8   6   2 513.015 37.6507   1
   9   6   2 -2.5833 9.29716   1
   4  -7  -2 12.3005 7.70351   1
  -4   7   2 3.59330 5.61243   1
   3  -7  -2 16.0463 7.64278   1
  -3   7   2 25.3753 6.23062   1
   2  -7  -2 -1.3647 4.83595   1
  -2   7   2 -3.0535 4.27945   1
   1  -7  -2 139.341 9.07406   1
  -1   7   2 118.014 11.4462   1
   0  -2  -7 -3.0858 8.05990  -2
   0  -7  -2 -3.0858 8.05990   1
   0   2   7 7.93201 12.9144  -2
   0   7   2 7.93201 12.9144   1
   1  -1  -6 356.403 29.4117  -2
  -1  -7  -2 356.403 29.4117   1
  -1   1   6 327.284 18.7123  -2
   1   7   2 327.284 18.7123   1
   2   0  -5 190.759 18.1804  -2
  -2  -7  -2 190.759 18.1804   1
   2   7   2 184.797 9.17229   1
  -3  -7  -2 191.728 13.0589   1
   3   7   2 202.398 14.1818   1
  -4  -7  -2 155.356 11.5128   1
   4   7   2 174.970 14.1070   1
  -5  -7  -2 32.5614 10.0311   1
   5   7   2 21.4755 6.70324   1
   6   3  -2 143.336 30.1134  -2
  -6  -7  -2 143.336 30.1134   1
   6   7   2 1.99860 5.60128   1
   7   4  -1 163.851 19.2791  -2
  -7  -7  -2 163.851 19.2791   1
  -7  -4   1 151.851 16.8627  -2
   7   7   2 151.851 16.8627   1
   8   5   0 35.0569 16.6935  -2
  -8  -7  -2 35.0569 16.6935   1
  -8  -5   0 -8.3421 17.9978  -2
   8   7   2 -8.3421 17.9978   1
   3  -8  -2 25.8445 8.97533   1
  -3   8   2 19.2445 6.37455   1
   2  -8  -2 171.600 12.9471   1
  -2   8   2 186.265 13.8820   1
   1  -8  -2 16.4247 5.56169   1
  -1   8   2 18.7293 7.31436   1
   0  -2  -8 86.4753 10.9283  -2
   0  -8  -2 86.4753 10.9283   1
   0   2   8 82.4692 18.1813  -2
   0   8   2 82.4692 18.1813   1
   1  -1  -7 249.521 17.4520  -2
  -1  -8  -2 249.521 17.4520   1
  -1   1   7 262.041 13.2582  -2
   1   8   2 262.041 13.2582   1
   2   0  -6 45.0846 14.9847  -2
  -2  -8  -2 45.0846 14.9847   1
  -2   0   6 -12.068 26.5451  -2
   2   8   2 -12.068 26.5451   1
  -3  -8  -2 158.537 12.4580   1
   3   8   2 116.699 11.6567   1
  -4  -8  -2 255.770 18.0921   1
   4   8   2 256.510 17.2158   1
  -5  -8  -2 5.45638 8.72529   1
   5   8   2 21.1348 7.48553   1
   6   3  -3 220.343 31.4918  -2
  -6  -8  -2 220.343 31.4918   1
   6   8   2 116.369 15.1325   1
   7   4  -2 12.2394 15.8872  -2
  -7  -8  -2 12.2394 15.8872   1
  -7  -4   2 57.2746 14.6500  -2
   7   8   2 57.2746 14.6500   1
   8   5  -1 25.1818 17.2186  -2
  -8  -8  -2 25.1818 17.2186   1
  -8  -5   1 5.67003 16.0600  -2
   8   8   2 5.67003 16.0600   1
   2  -9  -2 -4.4454 4.89070   1
  -2   9   2 -2.7803 6.85710   1
   1  -9  -2 107.798 10.5375   1
  -1   9   2 88.7302 13.1964   1
   0  -2  -9 176.520 14.9512  -2
   0  -9  -2 176.520 14.9512   1
   0   9   2 193.247 19.5135   1
   1  -1  -8 91.8866 13.9369  -2
  -1  -9  -2 91.8866 13.9369   1
  -1   1   8 105.551 16.3953  -2
   1   9   2 105.551 16.3953   1
   2   0  -7 42.0004 23.7240  -2
  -2  -9  -2 42.0004 23.7240   1
  -2   0   7 5.10768 15.3815  -2
   2   9   2 5.10768 15.3815   1
  -3  -9  -2 114.967 11.4798   1
   3   9   2 133.377 18.8021   1
  -4  -9  -2 29.0639 10.3022   1
   4   9   2 51.7690 8.81227   1
  -5  -9  -2 162.495 19.3425   1
   5   9   2 182.641 16.3871   1
   6   3  -4 222.745 33.2078  -2
  -6  -9  -2 222.745 33.2078   1
   6   9   2 72.9947 12.2707   1
   7   4  -3 22.3677 17.7949  -2
  -7  -9  -2 22.3677 17.7949   1
  -7  -4   3 34.2689 14.9009  -2
   7   9   2 34.2689 14.9009   1
   0  -2 -10 37.0822 22.1300  -2
   0 -10  -2 37.0822 22.1300   1
   0  10   2 18.4629 9.78303   1
   1  -1  -9 31.4673 14.1116  -2
  -1 -10  -2 31.4673 14.1116   1
  -1   1   9 -12.954 13.4063  -2
   1  10   2 -12.954 13.4063   1
   2   0  -8 0.52395 13.8898  -2
  -2 -10  -2 0.52395 13.8898   1
  -2   0   8 -9.7839 14.5238  -2
   2  10   2 -9.7839 14.5238   1
  -3 -10  -2 -3.9526 7.13967   1
   3  10   2 -2.2487 8.26805   1
  -4 -10  -2 8.90735 9.09139   1
   4  10   2 -15.827 6.57609   1
  -5 -10  -2 121.042 17.2047   1
   5  10   2 103.120 13.9684   1
  -6 -10  -2 64.7265 13.4015   1
   6  10   2 45.2884 11.1711   1
  -3  -6   6 77.7461 21.6258  -2
   3   9  -3 77.7461 21.6258   1
   3   6  -6 36.8094 18.5068  -2
  -3  -9   3 36.8094 18.5068   1
  -2  -5   7 184.819 23.7608  -2
   2   9  -3 184.819 23.7608   1
   2   5  -7 212.781 24.3581  -2
  -2  -9   3 212.781 24.3581   1
  -1  -4   8 23.9457 29.7914  -2
   1   9  -3 23.9457 29.7914   1
   1   4  -8 58.2241 25.1335  -2
  -1  -9   3 58.2241 25.1335   1
   0   9  -3 6.95847 12.6197   1
   0  -9   3 27.8931 13.8462   1
  -1   9  -3 55.1014 21.8172   1
   1  -9   3 33.9538 17.2985   1
   4   8  -3 85.3281 11.3179   1
   4   7  -4 13.7839 36.1213  -2
  -4  -8   3 13.7839 36.1213   1
  -3  -6   5 49.6185 18.8230  -2
   3   8  -3 49.6185 18.8230   1
   3   6  -5 80.3446 17.6104  -2
  -3  -8   3 80.3446 17.6104   1
  -2  -5   6 58.5836 14.7652  -2
   2   8  -3 58.5836 14.7652   1
   2   5  -6 80.6099 15.0241  -2
  -2  -8   3 80.6099 15.0241   1
  -1  -4   7 120.408 28.5841  -2
   1   8  -3 120.408 28.5841   1
   1   4  -7 110.696 23.3264  -2
  -1  -8   3 110.696 23.3264   1
   0   8  -3 2.75096 7.39987   1
   0  -8   3 5.94428 10.2914   1
  -1   8  -3 -0.5150 6.39357   1
   1  -8   3 5.61244 11.6034   1
  -2   8  -3 -3.1420 6.42926   1
  -3   8  -3 212.886 16.3903   1
   5   7  -3 119.640 17.8184   1
  -5  -7   3 192.382 36.1202   1
   4   7  -3 167.856 14.8121   1
  -4  -7   3 169.660 18.2869   1
  -3  -6   4 188.706 21.4033  -2
   3   7  -3 188.706 21.4033   1
   3   6  -4 203.291 20.5456  -2
  -3  -7   3 203.291 20.5456   1
  -2  -5   5 282.463 15.0881  -2
   2   7  -3 282.463 15.0881   1
   2   5  -5 291.421 19.9877  -2
  -2  -7   3 291.421 19.9877   1
  -1  -4   6 23.1849 12.2256  -2
   1   7  -3 23.1849 12.2256   1
   1   4  -6 29.4187 14.7898  -2
  -1  -7   3 29.4187 14.7898   1
   0   7  -3 27.9521 8.05117   1
   0  -7   3 50.7094 15.7464   1
  -1   7  -3 -2.0275 6.03771   1
   1  -7   3 3.42381 3.53080   1
  -2   7  -3 42.9473 9.20580   1
   2  -7   3 57.9171 9.05828   1
  -3   7  -3 -0.7477 5.42238   1
   3  -7   3 3.69543 5.84942   1
   4   0  10 -15.305 10.0470  -2
  -4   7  -3 -15.305 10.0470   1
  -4   0 -10 25.4702 22.7857  -2
   4  -7   3 25.4702 22.7857   1
   6   6  -3 -1.6239 10.1080   1
  -6  -6   3 -8.6737 18.9910   1
   5   6  -3 293.493 24.2123   1
  -5  -6   3 262.637 38.7237   1
   4   6  -3 22.6674 7.76430   1
  -4  -6   3 24.3947 15.4421   1
  -3  -6   3 -0.5728 14.3142  -2
   3   6  -3 -0.5728 14.3142   1
   3   6  -3 -17.769 28.0772  -2
  -3  -6   3 -17.769 28.0772   1
  -2  -5   4 60.4031 8.08360  -2
   2   6  -3 60.4031 8.08360   1
   2   5  -4 74.0841 13.1658  -2
  -2  -6   3 74.0841 13.1658   1
  -1  -4   5 629.562 17.4357  -2
   1   6  -3 629.562 17.4357   1
   1   4  -5 606.762 25.3726  -2
  -1  -6   3 606.762 25.3726   1
   0   6  -3 9.06349 5.94819   1
   0  -6   3 9.11287 5.05256   1
  -1   6  -3 32.4250 7.50622   1
   1  -6   3 37.7304 5.64658   1
  -2   6  -3 84.2402 9.87126   1
   2  -6   3 74.0571 9.09483   1
  -3   6  -3 3.44859 4.03328   1
   3  -6   3 8.10932 5.26846   1
   4   0   9 21.8464 9.55952  -2
  -4   6  -3 21.8464 9.55952   1
  -4   0  -9 60.8922 11.3955  -2
   4  -6   3 60.8922 11.3955   1
   5   1  10 70.8063 8.73871  -2
  -5   6  -3 70.8063 8.73871   1
  -5  -1 -10 90.6478 10.3561  -2
   5  -6   3 90.6478 10.3561   1
   6   5  -3 55.9665 13.9974   1
   6   8   0 58.7823 41.5196  -2
  -6  -5   3 58.7823 41.5196   1
   5   5  -3 29.9347 7.82563   1
  -5  -5   3 64.2913 24.5290   1
   4   5  -3 73.9385 10.2038   1
  -4  -5   3 98.1007 13.2510   1
   3   5  -3 37.8940 6.00373   1
  -3  -5   3 39.2810 15.4518   1
  -2  -5   3 628.034 17.0671  -2
   2   5  -3 628.034 17.0671   1
   2   5  -3 602.971 23.6922  -2
  -2  -5   3 602.971 23.6922   1
  -1  -4   4 125.071 8.98614  -2
   1   5  -3 125.071 8.98614   1
   1   4  -4 116.471 9.31153  -2
  -1  -5   3 116.471 9.31153   1
   0   5  -3 471.546 12.2865   1
   0  -5   3 486.623 15.7184   1
  -1   5  -3 1403.33 29.2597   1
   1  -5   3 1370.65 18.4861   1
  -2   5  -3 32.1603 5.58211   1
   2  -5   3 29.8675 5.78851   1
  -3   5  -3 3.54316 3.24564   1
   3  -5   3 -0.9611 4.29268   1
   4   0   8 129.676 10.3425  -2
  -4   5  -3 129.676 10.3425   1
  -4   0  -8 128.578 13.1652  -2
   4  -5   3 128.578 13.1652   1
   5   1   9 105.662 9.04888  -2
  -5   5  -3 105.662 9.04888   1
  -5  -1  -9 137.601 9.98934  -2
   5  -5   3 137.601 9.98934   1
   6   2  10 64.2139 9.51932  -2
  -6   5  -3 64.2139 9.51932   1
  -6  -2 -10 68.3402 16.8221  -2
   6  -5   3 68.3402 16.8221   1
  -7  -9  -2 6.15116 18.3022  -2
   7   4  -3 6.15116 18.3022   1
   7   9   2 -26.031 35.7630  -2
  -7  -4   3 -26.031 35.7630   1
   6   4  -3 36.4852 12.3313   1
   6   8   1 45.6046 40.8531  -2
  -6  -4   3 45.6046 40.8531   1
   5   4  -3 44.6924 9.31794   1
  -5  -4   3 52.4273 21.8575   1
   4   4  -3 -6.2809 4.64747   1
  -4  -4   3 2.79523 5.47942   1
   3   4  -3 22.0223 4.70919   1
  -3  -4   3 21.2394 7.58138   1
  -2  -5   2 259.343 8.13730  -2
   2   4  -3 259.343 8.13730   1
   2   5  -2 288.957 16.1130  -2
  -2  -4   3 288.957 16.1130   1
  -1  -4   3 348.798 8.56797  -2
   1   4  -3 348.798 8.56797   1
   1   4  -3 346.869 18.1813  -2
  -1  -4   3 346.869 18.1813   1
   0  -3   4 1974.27 57.4917  -2
   0   4  -3 1974.27 57.4917   1
   0  -4   3 1340.75 38.2820   1
  -1   4  -3 226.078 6.61278   1
   1  -4   3 206.626 7.85063   1
  -2   4  -3 4.08200 2.82131   1
   2  -4   3 3.49111 2.74381   1
  -3   4  -3 14.6057 3.12361   1
   3  -4   3 24.5881 5.40247   1
   4   0   7 55.5781 21.1333  -2
  -4   4  -3 55.5781 21.1333   1
  -4   0  -7 10.8350 17.6329  -2
   4  -4   3 10.8350 17.6329   1
   5   1   8 47.0179 7.67407  -2
  -5   4  -3 47.0179 7.67407   1
  -5  -1  -8 45.4995 8.85954  -2
   5  -4   3 45.4995 8.85954   1
   6   2   9 548.861 19.1951  -2
  -6   4  -3 548.861 19.1951   1
  -6  -2  -9 550.979 22.8848  -2
   6  -4   3 550.979 22.8848   1
  -7   4  -3 27.2485 6.56193   1
   7  -4   3 21.0412 10.1903   1
  -7  -9  -3 184.866 17.1847  -2
   7   3  -3 184.866 17.1847   1
   7   9   3 195.584 40.0404  -2
  -7  -3   3 195.584 40.0404   1
   6   3  -3 40.5846 9.58140   1
   6   8   2 157.400 43.6086  -2
  -6  -3   3 157.400 43.6086   1
   5   3  -3 29.8854 6.25200   1
  -5  -3   3 45.1591 19.0578   1
   4   3  -3 27.4061 5.37197   1
  -4  -3   3 21.4934 12.6920   1
   3   3  -3 569.119 14.0758   1
  -3  -3   3 548.570 13.9910   1
  -2  -5   1 94.9766 5.94316  -2
   2   3  -3 94.9766 5.94316   1
  -2  -3   3 2.61340 3.96383   1
  -1  -4   2 73.6524 4.29327  -2
   1   3  -3 73.6524 4.29327   1
   1   4  -2 70.6323 7.64120  -2
  -1  -3   3 70.6323 7.64120   1
   0  -3   3 1329.79 42.9718  -2
   0   3  -3 1329.79 42.9718   1
   0  -3   3 675.906 20.5088   1
  -1   3  -3 385.796 7.54485   1
   1  -3   3 367.257 9.11673   1
  -2   3  -3 32.7644 3.98934   1
   2  -3   3 41.5168 5.19699   1
  -3   3  -3 46.6936 4.92737   1
   3  -3   3 52.1906 6.81644   1
  -4   3  -3 13.5586 4.31782   1
   4  -3   3 14.2570 4.69580   1
   5   1   7 143.009 12.0159  -2
  -5   3  -3 143.009 12.0159   1
  -5  -1  -7 135.705 11.8088  -2
   5  -3   3 135.705 11.8088   1
   6   2   8 176.408 13.6204  -2
  -6   3  -3 176.408 13.6204   1
  -6  -2  -8 204.406 15.1090  -2
   6  -3   3 204.406 15.1090   1
  -7   3  -3 33.0065 7.36608   1
  -7  -3  -9 91.6629 30.3440  -2
   7  -3   3 91.6629 30.3440   1
  -8   3  -3 22.0549 6.34988   1
   8  -3   3 5.29498 14.1338   1
  -7  -9  -4 229.376 15.5428  -2
   7   2  -3 229.376 15.5428   1
   7   9   4 182.539 34.4972  -2
  -7  -2   3 182.539 34.4972   1
   6   2  -3 11.3216 5.46895   1
   6   8   3 258.777 44.8235  -2
  -6  -2   3 258.777 44.8235   1
   5   2  -3 26.5716 5.03948   1
  -5  -2   3 22.0002 16.6754   1
   4   2  -3 305.825 9.89292   1
  -4  -2   3 252.737 14.4432   1
   3   2  -3 84.5931 6.74112   1
  -3  -2   3 80.7764 9.22125   1
  -2  -5   0 53.5382 11.4740  -2
   2   2  -3 53.5382 11.4740   1
  -2  -2   3 44.4575 5.25902   1
  -1  -4   1 1070.63 12.8425  -2
   1   2  -3 1070.63 12.8425   1
   1   4  -1 1034.69 27.5763  -2
  -1  -2   3 1034.69 27.5763   1
   0  -3   2 894.821 21.9676  -2
   0   2  -3 894.821 21.9676   1
   0  -2   3 10.0406 4.84373   1
  -1   2  -3 38.6044 3.21766   1
   1  -2   3 40.4435 3.24532   1
  -2   2  -3 1693.78 20.0025   1
   2  -2   3 1702.72 23.1654   1
  -3   2  -3 281.080 8.01978   1
   3  -2   3 309.669 11.9779   1
   4   0   5 43.4552 9.20606  -2
  -4   2  -3 43.4552 9.20606   1
   4  -2   3 0.08549 3.16288   1
   5   1   6 169.493 13.4881  -2
  -5   2  -3 169.493 13.4881   1
  -5  -1  -6 170.649 10.9393  -2
   5  -2   3 170.649 10.9393   1
   6   2   7 172.303 13.4952  -2
  -6   2  -3 172.303 13.4952   1
  -6  -2  -7 196.924 13.9751  -2
   6  -2   3 196.924 13.9751   1
   7   3   8 62.7263 15.4202  -2
  -7   2  -3 62.7263 15.4202   1
  -7  -3  -8 10.1074 12.8044  -2
   7  -2   3 10.1074 12.8044   1
  -8   2  -3 41.5673 10.1903   1
   8  -2   3 38.8801 11.5805   1
  -7  -9  -5 286.136 16.3152  -2
   7   1  -3 286.136 16.3152   1
  -6  -8  -4 58.5742 13.8848  -2
   6   1  -3 58.5742 13.8848   1
   6   8   4 33.4737 32.5814  -2
  -6  -1   3 33.4737 32.5814   1
   5   1  -3 2.13063 3.50365   1
  -5  -1   3 -0.0240 4.53692   1
   4   1  -3 211.982 9.29767   1
  -4  -1   3 194.315 10.5213   1
   3   1  -3 45.3243 4.76718   1
  -3  -1   3 49.9809 7.73108   1
   2   1  -3 1705.77 18.5517   1
  -2  -1   3 1717.27 14.9523   1
  -1  -4   0 425.598 8.99551  -2
   1   1  -3 425.598 8.99551   1
   1   4   0 416.525 13.1010  -2
  -1  -1   3 416.525 13.1010   1
   0  -3   1 9.98254 6.07067  -2
   0   1  -3 9.98254 6.07067   1
   0  -1   3 3.61806 3.62524   1
  -1   1  -3 71.1485 2.38013   1
   1  -1   3 56.9936 3.08652   1
  -2   1  -3 386.832 8.34813   1
   2  -1   3 381.316 10.3859   1
  -3   1  -3 293.095 8.68606   1
   3  -1   3 300.080 9.68884   1
   4   0   4 1873.55 36.9343  -2
  -4   1  -3 1873.55 36.9343   1
   4  -1   3 283.260 10.6870   1
   5   1   5 54.1686 9.19250  -2
  -5   1  -3 54.1686 9.19250   1
  -5  -1  -5 41.8345 6.10230  -2
   5  -1   3 41.8345 6.10230   1
   6   2   6 12.5466 7.01886  -2
  -6   1  -3 12.5466 7.01886   1
  -6  -2  -6 4.02714 6.51886  -2
   6  -1   3 4.02714 6.51886   1
   7   3   7 96.4338 13.3430  -2
  -7   1  -3 96.4338 13.3430   1
  -7  -3  -7 66.3557 12.6583  -2
   7  -1   3 66.3557 12.6583   1
  -8   1  -3 128.392 13.4710   1
   8  -1   3 95.1196 15.4125   1
  -7  -9  -6 45.9867 8.45490  -2
   7   0  -3 45.9867 8.45490   1
   7   9   6 76.6233 12.5414  -2
  -7   0   3 76.6233 12.5414   1
  -6  -8  -5 12.0978 10.1954  -2
   6   0  -3 12.0978 10.1954   1
   6   8   5 53.3837 13.6045  -2
  -6   0   3 53.3837 13.6045   1
   5   0  -3 337.461 11.3029   1
  -5   0   3 347.308 14.6357   1
   4   0  -3 100.368 7.49040   1
  -4   0   3 96.4106 8.91833   1
   3   0  -3 837.870 14.1557   1
  -3   0   3 839.597 17.7869   1
   2   0  -3 434.128 9.28808   1
  -2   0   3 433.654 12.8333   1
  -1  -4  -1 11.7245 4.38105  -2
   1   0  -3 11.7245 4.38105   1
   1   4   1 16.7538 3.31938  -2
  -1   0   3 16.7538 3.31938   1
   0  -3   0 99.5214 5.16259  -2
   0   0  -3 99.5214 5.16259   1
   0   3   0 107.364 2.47648  -2
   0   0   3 107.364 2.47648   1
  -1   0  -3 165.836 6.68542   1
   1   0   3 175.508 10.6065   1
  -2   0  -3 607.435 11.8134   1
   2   0   3 603.174 12.2618   1
  -3   0  -3 1473.85 25.5195   1
   3   0   3 1477.88 19.5563   1
  -4   0  -3 416.630 15.1456   1
   4   0   3 428.619 12.0572   1
   5   1   4 330.616 16.7891  -2
  -5   0  -3 330.616 16.7891   1
  -5  -1  -4 319.186 10.6729  -2
   5   0   3 319.186 10.6729   1
   6   2   5 18.3605 5.43037  -2
  -6   0  -3 18.3605 5.43037   1
  -6  -2  -5 18.8912 4.66956  -2
   6   0   3 18.8912 4.66956   1
   7   3   6 115.864 17.0754  -2
  -7   0  -3 115.864 17.0754   1
  -7  -3  -6 173.847 15.0433  -2
   7   0   3 173.847 15.0433   1
  -8   0  -3 74.3608 11.1159   1
   8   0   3 59.9127 12.7965   1
  -9   0  -3 25.5003 9.90330   1
   9   0   3 9.57362 9.51615   1
  -7  -9  -7 -3.3413 10.3243  -2
   7  -1  -3 -3.3413 10.3243   1
   7   9   7 58.0728 10.9416  -2
  -7   1   3 58.0728 10.9416   1
  -6  -8  -6 169.971 20.1960  -2
   6  -1  -3 169.971 20.1960   1
   6   8   6 210.291 18.7426  -2
  -6   1   3 210.291 18.7426   1
   5  -1  -3 181.808 9.46475   1
  -5   1   3 181.657 12.8059   1
   4  -1  -3 84.7165 6.44669   1
  -4   1   3 68.1236 7.38667   1
   3  -1  -3 373.842 9.63991   1
  -3   1   3 377.803 13.6800   1
   2  -1  -3 78.4021 4.99705   1
  -2   1   3 80.0413 6.16081   1
  -1  -4  -2 35.2324 5.42186  -2
   1  -1  -3 35.2324 5.42186   1
   1   4   2 40.2822 3.47649  -2
  -1   1   3 40.2822 3.47649   1
   0  -3  -1 660.865 9.17234  -2
   0  -1  -3 660.865 9.17234   1
   0   3   1 661.934 8.03480  -2
   0   1   3 661.934 8.03480   1
   1  -2   0 118.022 12.6915  -2
  -1  -1  -3 118.022 12.6915   1
   1   1   3 3.28017 2.46158   1
   2  -1   1 1198.87 30.7127  -2
  -2  -1  -3 1198.87 30.7127   1
   2   1   3 895.448 12.2246   1
  -3  -1  -3 48.1438 4.38111   1
   3   1   3 41.2354 5.40475   1
  -4  -1  -3 426.996 16.3731   1
   4   1   3 395.513 11.5475   1
   5   1   3 443.216 19.7036  -2
  -5  -1  -3 443.216 19.7036   1
  -5  -1  -3 404.604 19.6638  -2
   5   1   3 404.604 19.6638   1
   6   2   4 283.454 16.3303  -2
  -6  -1  -3 283.454 16.3303   1
  -6  -2  -4 263.726 11.9172  -2
   6   1   3 263.726 11.9172   1
   7   3   5 311.736 26.0311  -2
  -7  -1  -3 311.736 26.0311   1
  -7  -3  -5 249.945 13.9814  -2
   7   1   3 249.945 13.9814   1
  -8  -1  -3 13.1522 6.59402   1
   8   1   3 0.76463 5.70502   1
  -9  -1  -3 56.8143 14.4592   1
   9   1   3 51.2664 14.0020   1
  -6  -8  -7 169.486 19.7323  -2
   6  -2  -3 169.486 19.7323   1
   6   8   7 250.597 18.6085  -2
  -6   2   3 250.597 18.6085   1
   5  -2  -3 12.8337 5.32586   1
  -5   2   3 24.8420 5.77911   1
   4  -2  -3 46.1393 4.92314   1
  -4   2   3 37.3403 6.39442   1
   3  -2  -3 -3.1190 2.36985   1
  -3   2   3 2.86781 3.07044   1
   2  -2  -3 135.238 5.57020   1
  -2   2   3 121.077 6.87558   1
  -1  -4  -3 463.159 9.65042  -2
   1  -2  -3 463.159 9.65042   1
   1   4   3 483.849 10.1646  -2
  -1   2   3 483.849 10.1646   1
   0  -3  -2 4486.73 23.2413  -2
   0  -2  -3 4486.73 23.2413   1
   0   3   2 4652.94 30.6113  -2
   0   2   3 4652.94 30.6113   1
   1  -2  -1 411.037 18.5754  -2
  -1  -2  -3 411.037 18.5754   1
   1   2   3 440.759 10.4274   1
  -2  -2  -3 29.7393 3.40795   1
   2   2   3 38.8185 3.47652   1
  -3  -2  -3 281.027 6.70489   1
   3   2   3 281.485 8.59300   1
  -4  -2  -3 10.8664 5.37087   1
   4   2   3 0.70252 3.05445   1
   5   1   2 1097.52 29.2726  -2
  -5  -2  -3 1097.52 29.2726   1
  -5  -1  -2 1036.95 44.0226  -2
   5   2   3 1036.95 44.0226   1
   6   2   3 1451.95 33.0936  -2
  -6  -2  -3 1451.95 33.0936   1
  -6  -2  -3 1639.06 28.2409  -2
   6   2   3 1639.06 28.2409   1
   7   3   4 40.8870 12.3524  -2
  -7  -2  -3 40.8870 12.3524   1
  -7  -3  -4 5.60797 8.24452  -2
   7   2   3 5.60797 8.24452   1
  -8  -2  -3 30.3159 9.96116   1
  -8  -4  -5 34.7688 25.4741  -2
   8   2   3 34.7688 25.4741   1
   9   2   3 8.27750 6.67861   1
  -6  -8  -8 172.096 21.6703  -2
   6  -3  -3 172.096 21.6703   1
   6   8   8 192.855 15.6102  -2
  -6   3   3 192.855 15.6102   1
  -5  -7  -7 87.1305 29.0534  -2
   5  -3  -3 87.1305 29.0534   1
  -5   3   3 33.3050 6.48964   1
   4  -3  -3 31.9084 6.09993   1
  -4   3   3 41.8812 6.25648   1
   3  -3  -3 34.7359 3.96091   1
  -3   3   3 41.5917 5.82224   1
   2  -3  -3 6.57911 3.17858   1
  -2   3   3 5.27570 2.08240   1
  -1  -4  -4 2320.73 25.2169  -2
   1  -3  -3 2320.73 25.2169   1
   1   4   4 2277.69 43.7176  -2
  -1   3   3 2277.69 43.7176   1
   0  -3  -3 8009.11 35.2714  -2
   0  -3  -3 8009.11 35.2714   1
   0   3   3 7804.78 48.0555  -2
   0   3   3 7804.78 48.0555   1
   1  -2  -2 476.089 20.6426  -2
  -1  -3  -3 476.089 20.6426   1
   1   3   3 477.951 11.9505   1
  -2  -3  -3 20.7768 3.40481   1
   2   3   3 23.0779 4.26503   1
  -3  -3  -3 158.550 11.8579   1
   3   3   3 157.342 6.91815   1
  -4  -3  -3 82.4184 10.0915   1
   4   3   3 80.0296 6.50571   1
  -5  -3  -3 1938.41 53.0397   1
   5   3   3 1999.33 25.7173   1
   6   2   2 1077.53 30.9924  -2
  -6  -3  -3 1077.53 30.9924   1
  -6  -2  -2 1127.97 23.1141  -2
   6   3   3 1127.97 23.1141   1
   7   3   3 27.5583 12.8076  -2
  -7  -3  -3 27.5583 12.8076   1
  -7  -3  -3 -3.4605 9.10856  -2
   7   3   3 -3.4605 9.10856   1
   8   4   4 72.1171 27.9866  -2
  -8  -3  -3 72.1171 27.9866   1
  -8  -4  -4 38.4027 25.9418  -2
   8   3   3 38.4027 25.9418   1
  -9  -3  -3 20.5766 14.0630   1
   9   3   3 4.28524 7.33421   1
  -6  -8  -9 35.7019 15.4789  -2
   6  -4  -3 35.7019 15.4789   1
   6   8   9 51.0470 9.24081  -2
  -6   4   3 51.0470 9.24081   1
  -5  -7  -8 122.387 29.8530  -2
   5  -4  -3 122.387 29.8530   1
   5   7   8 181.154 14.3839  -2
  -5   4   3 181.154 14.3839   1
   4  -4  -3 25.3796 7.42092   1
  -4   4   3 17.8389 5.11598   1
   3  -4  -3 -1.4697 4.22581   1
  -3   4   3 -5.7757 2.67044   1
   2  -4  -3 5.16010 4.25225   1
  -2   4   3 5.32586 2.85465   1
  -1  -4  -5 423.962 13.8229  -2
   1  -4  -3 423.962 13.8229   1
  -1   4   3 166.933 7.15106   1
   0  -3  -4 23.0245 3.59397  -2
   0  -4  -3 23.0245 3.59397   1
   0   3   4 28.9176 5.69121  -2
   0   4   3 28.9176 5.69121   1
   1  -2  -3 490.613 13.4985  -2
  -1  -4  -3 490.613 13.4985   1
  -1   2   3 480.164 27.3622  -2
   1   4   3 480.164 27.3622   1
  -2  -4  -3 1053.13 17.8614   1
   2   4   3 1086.52 19.3825   1
  -3  -4  -3 126.695 6.97699   1
   3   4   3 118.832 7.71958   1
  -4  -4  -3 191.093 15.9037   1
   4   4   3 155.512 7.66125   1
  -5  -4  -3 484.424 21.8237   1
   5   4   3 502.507 11.7381   1
   6   2   1 140.524 16.6761  -2
  -6  -4  -3 140.524 16.6761   1
  -6  -2  -1 131.508 11.1503  -2
   6   4   3 131.508 11.1503   1
   7   3   2 225.460 17.5833  -2
  -7  -4  -3 225.460 17.5833   1
  -7  -3  -2 223.413 16.2978  -2
   7   4   3 223.413 16.2978   1
   8   4   3 209.554 20.0887  -2
  -8  -4  -3 209.554 20.0887   1
  -8  -4  -3 169.609 28.6487  -2
   8   4   3 169.609 28.6487   1
  -9  -4  -3 26.7385 15.1932   1
   9   4   3 0.68601 6.83049   1
  -5  -7  -9 175.202 20.1940  -2
   5  -5  -3 175.202 20.1940   1
   5   7   9 204.406 15.1767  -2
  -5   5   3 204.406 15.1767   1
   4  -5  -3 31.0805 7.58136   1
  -4   5   3 22.7027 5.01406   1
   3  -5  -3 -0.4247 4.31318   1
  -3   5   3 4.20653 3.75402   1
   2  -5  -3 7.25175 4.62884   1
  -2   5   3 4.75851 3.83190   1
   1  -5  -3 111.868 7.80757   1
  -1   5   3 100.610 6.36695   1
   0  -3  -5 119.714 5.69817  -2
   0  -5  -3 119.714 5.69817   1
   0   3   5 112.493 10.4334  -2
   0   5   3 112.493 10.4334   1
   1  -2  -4 1182.26 20.6195  -2
  -1  -5  -3 1182.26 20.6195   1
  -1   2   4 1164.84 27.8538  -2
   1   5   3 1164.84 27.8538   1
  -2  -5  -3 21.1551 3.67534   1
   2   5   3 19.7624 4.55665   1
  -3  -5  -3 201.399 8.66100   1
   3   5   3 163.178 9.12630   1
  -4  -5  -3 503.456 12.4686   1
   4   5   3 491.251 13.8058   1
  -5  -5  -3 11.0599 5.86702   1
   5   5   3 11.2265 4.11862   1
   6   2   0 36.5563 13.4627  -2
  -6  -5  -3 36.5563 13.4627   1
  -6  -2   0 21.6994 9.48633  -2
   6   5   3 21.6994 9.48633   1
   7   3   1 218.107 17.4569  -2
  -7  -5  -3 218.107 17.4569   1
  -7  -3  -1 212.338 21.2295  -2
   7   5   3 212.338 21.2295   1
   8   4   2 193.721 20.0656  -2
  -8  -5  -3 193.721 20.0656   1
  -8  -4  -2 143.314 24.2815  -2
   8   5   3 143.314 24.2815   1
   9   5   3 123.120 33.5516  -2
  -9  -5  -3 123.120 33.5516   1
   9   5   3 -0.7452 7.47859   1
   4  -6  -3 4.29349 5.89576   1
  -4   6   3 -7.8845 4.76128   1
   3  -6  -3 237.201 14.7154   1
  -3   6   3 238.032 11.1038   1
   2  -6  -3 481.512 17.2028   1
  -2   6   3 463.551 13.9965   1
   1  -6  -3 220.246 10.9846   1
  -1   6   3 231.719 9.88379   1
   0  -3  -6 207.540 11.0188  -2
   0  -6  -3 207.540 11.0188   1
   0   3   6 159.695 14.0625  -2
   0   6   3 159.695 14.0625   1
   1  -2  -5 44.2590 6.85994  -2
  -1  -6  -3 44.2590 6.85994   1
  -1   2   5 50.6455 11.2031  -2
   1   6   3 50.6455 11.2031   1
  -2  -6  -3 391.497 10.8322   1
   2   6   3 385.052 13.8305   1
  -3  -6  -3 1194.36 22.8450   1
   3   6   3 1213.70 22.7472   1
  -4  -6  -3 21.3711 4.92621   1
   4   6   3 25.0663 6.14832   1
  -5  -6  -3 2.59585 6.77559   1
   5   6   3 0.93772 4.33261   1
   6   2  -1 90.2569 16.7135  -2
  -6  -6  -3 90.2569 16.7135   1
  -6  -2   1 83.0022 14.5791  -2
   6   6   3 83.0022 14.5791   1
   7   3   0 143.858 15.0238  -2
  -7  -6  -3 143.858 15.0238   1
  -7  -3   0 155.779 13.7273  -2
   7   6   3 155.779 13.7273   1
   8   4   1 170.643 19.2408  -2
  -8  -6  -3 170.643 19.2408   1
  -8  -4  -1 167.691 24.4890  -2
   8   6   3 167.691 24.4890   1
   9   5   2 265.261 37.0455  -2
  -9  -6  -3 265.261 37.0455   1
   9   6   3 8.24865 9.77702   1
   4  -7  -3 34.4267 16.0324   1
  -4   7   3 26.6663 7.20578   1
   3  -7  -3 343.313 25.2346   1
  -3   7   3 324.524 13.4854   1
   2  -7  -3 1.78819 4.86143   1
  -2   7   3 -1.4016 4.47677   1
   1  -7  -3 18.3097 5.39366   1
  -1   7   3 23.5113 5.64270   1
   0  -3  -7 11.6709 8.24317  -2
   0  -7  -3 11.6709 8.24317   1
   0   3   7 25.2740 12.7653  -2
   0   7   3 25.2740 12.7653   1
   1  -2  -6 25.8393 9.69359  -2
  -1  -7  -3 25.8393 9.69359   1
  -1   2   6 6.77441 10.8494  -2
   1   7   3 6.77441 10.8494   1
   2  -1  -5 213.786 23.1941  -2
  -2  -7  -3 213.786 23.1941   1
   2   7   3 98.5572 9.44883   1
  -3  -7  -3 385.912 14.4597   1
   3   7   3 387.192 16.0905   1
  -4  -7  -3 105.200 9.36918   1
   4   7   3 98.2446 10.5670   1
  -5  -7  -3 91.0611 13.5128   1
   5   7   3 85.6042 10.7870   1
   6   2  -2 351.241 23.9995  -2
  -6  -7  -3 351.241 23.9995   1
  -6  -2   2 344.829 29.1896  -2
   6   7   3 344.829 29.1896   1
   7   3  -1 161.384 17.0618  -2
  -7  -7  -3 161.384 17.0618   1
  -7  -3   1 165.752 16.5333  -2
   7   7   3 165.752 16.5333   1
   8   4   0 48.2508 16.9870  -2
  -8  -7  -3 48.2508 16.9870   1
  -8  -4   0 44.2364 20.7466  -2
   8   7   3 44.2364 20.7466   1
   3  -8  -3 68.2921 17.0694   1
  -3   8   3 62.1792 10.0035   1
   2  -8  -3 5.47360 8.82950   1
  -2   8   3 2.83556 5.86950   1
   1  -8  -3 243.461 16.1830   1
  -1   8   3 250.099 14.1118   1
   0  -3  -8 57.5628 10.9738  -2
   0  -8  -3 57.5628 10.9738   1
   0   3   8 38.5147 16.1606  -2
   0   8   3 38.5147 16.1606   1
   1  -2  -7 2.36501 9.14548  -2
  -1  -8  -3 2.36501 9.14548   1
  -1   2   7 -6.2880 7.03240  -2
   1   8   3 -6.2880 7.03240   1
   2  -1  -6 655.655 26.4394  -2
  -2  -8  -3 655.655 26.4394   1
   2   8   3 347.861 21.4161   1
  -3  -8  -3 184.541 12.6787   1
   3   8   3 172.385 13.5429   1
  -4  -8  -3 59.5665 10.3225   1
   4   8   3 72.6043 9.62656   1
  -5  -8  -3 16.6170 8.58935   1
   5   8   3 24.8039 7.12035   1
   6   2  -3 259.454 33.0815  -2
  -6  -8  -3 259.454 33.0815   1
   6   8   3 273.785 20.6888   1
   7   3  -2 54.4052 15.8946  -2
  -7  -8  -3 54.4052 15.8946   1
  -7  -3   2 64.7523 14.4605  -2
   7   8   3 64.7523 14.4605   1
   8   4  -1 87.3530 19.0787  -2
  -8  -8  -3 87.3530 19.0787   1
  -8  -4   1 90.2429 17.0121  -2
   8   8   3 90.2429 17.0121   1
   2  -9  -3 82.3491 17.1094   1
  -2   9   3 63.5224 10.0025   1
   1  -9  -3 158.153 19.5834   1
  -1   9   3 152.497 13.0504   1
   0  -3  -9 37.8319 12.8691  -2
   0  -9  -3 37.8319 12.8691   1
   0   3   9 21.7429 25.2852  -2
   0   9   3 21.7429 25.2852   1
   1  -2  -8 319.543 12.8746  -2
  -1  -9  -3 319.543 12.8746   1
  -1   2   8 308.180 21.5750  -2
   1   9   3 308.180 21.5750   1
   2  -1  -7 171.122 17.7662  -2
  -2  -9  -3 171.122 17.7662   1
  -2   1   7 169.925 21.0450  -2
   2   9   3 169.925 21.0450   1
  -3  -9  -3 10.1713 6.11246   1
   3   9   3 11.6883 10.0105   1
  -4  -9  -3 72.4272 13.5363   1
   4   9   3 65.2748 10.2201   1
  -5  -9  -3 309.763 22.5569   1
   5   9   3 325.892 19.4664   1
   6   2  -4 106.109 29.3770  -2
  -6  -9  -3 106.109 29.3770   1
   6   9   3 37.0268 11.0167   1
   7   3  -3 202.361 23.0297  -2
  -7  -9  -3 202.361 23.0297   1
  -7  -3   3 207.947 20.1860  -2
   7   9   3 207.947 20.1860   1
   0 -10  -3 11.0192 6.09602   1
   0  10   3 -7.0567 7.49162   1
   1  -2  -9 93.8764 11.0951  -2
  -1 -10  -3 93.8764 11.0951   1
  -1   2   9 86.1999 17.6249  -2
   1  10   3 86.1999 17.6249   1
   2  -1  -8 23.6160 14.9531  -2
  -2 -10  -3 23.6160 14.9531   1
  -2   1   8 15.9004 17.7692  -2
   2  10   3 15.9004 17.7692   1
  -3 -10  -3 5.95462 7.02443   1
   3  10   3 0.38221 8.32971   1
  -4 -10  -3 52.8751 12.4885   1
   4  10   3 44.6368 13.7160   1
  -5 -10  -3 121.292 16.2149   1
   5  10   3 144.490 15.1992   1
   6   2  -5 179.123 30.5356  -2
  -6 -10  -3 179.123 30.5356   1
   6  10   3 -3.7234 6.61567   1
  -3  -7   5 224.036 26.5448  -2
   3   8  -4 224.036 26.5448   1
   3   7  -5 135.904 36.4413  -2
  -3  -8   4 135.904 36.4413   1
  -2  -6   6 130.831 20.3874  -2
   2   8  -4 130.831 20.3874   1
   2   6  -6 95.5789 27.6688  -2
  -2  -8   4 95.5789 27.6688   1
   0   8  -4 55.0620 18.4489   1
  -1   8  -4 -3.7435 13.3471   1
   1  -8   4 4.66934 14.8877   1
  -2   8  -4 24.8979 16.7144   1
   2  -8   4 31.3624 18.6240   1
   4   7  -4 2.72877 6.34385   1
   4   8  -3 59.2399 39.9503  -2
  -4  -7   4 59.2399 39.9503   1
  -3  -7   4 41.9074 12.0477  -2
   3   7  -4 41.9074 12.0477   1
   3   7  -4 72.6627 33.6088  -2
  -3  -7   4 72.6627 33.6088   1
  -2  -6   5 723.271 22.9875  -2
   2   7  -4 723.271 22.9875   1
   2   6  -5 787.323 49.0865  -2
  -2  -7   4 787.323 49.0865   1
  -1  -5   6 299.268 30.1054  -2
   1   7  -4 299.268 30.1054   1
   1   5  -6 277.202 36.2179  -2
  -1  -7   4 277.202 36.2179   1
   0   7  -4 52.0913 16.1065   1
  -1   7  -4 -8.5630 10.2629   1
   1  -7   4 7.19114 14.4596   1
  -2   7  -4 15.1581 14.3506   1
   2  -7   4 44.5692 11.8641   1
   3  -2   9 37.8013 29.0965  -2
  -3   7  -4 37.8013 29.0965   1
  -3   2  -9 42.1011 22.1940  -2
   3  -7   4 42.1011 22.1940   1
   4  -1  10 460.393 43.7689  -2
  -4   7  -4 460.393 43.7689   1
  -4   1 -10 422.872 25.7036  -2
   4  -7   4 422.872 25.7036   1
   5   6  -4 -8.0683 9.14584   1
  -5  -6   4 8.48288 19.7240   1
   4   6  -4 20.0115 7.39766   1
  -4  -6   4 10.9478 9.45461   1
  -3  -7   3 150.304 20.2714  -2
   3   6  -4 150.304 20.2714   1
   3   7  -3 205.714 36.8868  -2
  -3  -6   4 205.714 36.8868   1
  -2  -6   4 195.254 12.6310  -2
   2   6  -4 195.254 12.6310   1
   2   6  -4 147.821 29.4794  -2
  -2  -6   4 147.821 29.4794   1
  -1  -5   5 142.237 11.7889  -2
   1   6  -4 142.237 11.7889   1
   1   5  -5 177.228 30.2438  -2
  -1  -6   4 177.228 30.2438   1
   0   6  -4 -5.0592 7.08497   1
   0  -6   4 -7.7222 10.3419   1
  -1   6  -4 16.4537 12.1746   1
   1  -6   4 24.4574 8.50422   1
  -2   6  -4 -0.1470 6.14988   1
   2  -6   4 23.2716 7.91282   1
  -3   6  -4 160.080 10.5361   1
   3  -6   4 122.458 17.5645   1
   4  -1   9 104.669 11.3372  -2
  -4   6  -4 104.669 11.3372   1
  -4   1  -9 132.659 17.8183  -2
   4  -6   4 132.659 17.8183   1
   5   0  10 107.372 9.58450  -2
  -5   6  -4 107.372 9.58450   1
  -5   0 -10 151.524 16.8627  -2
   5  -6   4 151.524 16.8627   1
   6   5  -4 71.1379 16.4359   1
  -6  -5   4 73.6110 26.2632   1
   5   5  -4 134.479 14.4979   1
  -5  -5   4 84.9068 25.9364   1
   4   5  -4 79.3070 11.0667   1
  -4  -5   4 77.8881 23.7476   1
  -3  -7   2 213.607 21.2455  -2
   3   5  -4 213.607 21.2455   1
   3   7  -2 191.801 34.4751  -2
  -3  -5   4 191.801 34.4751   1
  -2  -6   3 55.5316 9.13535  -2
   2   5  -4 55.5316 9.13535   1
  -1  -5   4 26.6665 7.07055  -2
   1   5  -4 26.6665 7.07055   1
   0   5  -4 317.725 12.2741   1
   0  -5   4 324.668 17.5821   1
  -1   5  -4 128.194 11.9757   1
   1  -5   4 129.116 11.6716   1
  -2   5  -4 54.6973 7.65412   1
   2  -5   4 49.0023 10.2679   1
  -3   5  -4 0.11735 3.17396   1
   3  -5   4 8.92076 8.03727   1
   4  -1   8 190.335 12.3800  -2
  -4   5  -4 190.335 12.3800   1
  -4   1  -8 190.584 18.6430  -2
   4  -5   4 190.584 18.6430   1
   5   0   9 13.9504 5.61675  -2
  -5   5  -4 13.9504 5.61675   1
  -5   0  -9 12.4380 11.4102  -2
   5  -5   4 12.4380 11.4102   1
   6   1  10 70.9373 9.80270  -2
  -6   5  -4 70.9373 9.80270   1
  -6  -1 -10 57.5751 16.5563  -2
   6  -5   4 57.5751 16.5563   1
   6   4  -4 47.0913 13.5602   1
  -6  -4   4 41.6414 21.4326   1
   5   4  -4 0.07297 6.03972   1
  -5  -4   4 -15.554 18.6175   1
   4   4  -4 486.917 19.7930   1
  -4  -4   4 452.754 38.2771   1
   3   4  -4 78.7045 10.3905   1
  -3  -4   4 83.6763 13.2321   1
  -2  -6   2 281.872 14.5105  -2
   2   4  -4 281.872 14.5105   1
  -1  -5   3 112.285 6.77019  -2
   1   4  -4 112.285 6.77019   1
   1   5  -3 127.867 14.3185  -2
  -1  -4   4 127.867 14.3185   1
   0   4  -4 456.742 10.6389   1
   0  -4   4 433.048 15.5720   1
  -1   4  -4 6.18155 2.68343   1
   1  -4   4 1.78274 2.98255   1
  -2   4  -4 383.326 11.6885   1
   2  -4   4 375.699 12.8740   1
  -3   4  -4 4.53412 2.93181   1
   3  -4   4 2.78493 4.15433   1
   4  -1   7 19.6514 20.5770  -2
  -4   4  -4 19.6514 20.5770   1
  -4   1  -7 36.0775 9.47987  -2
   4  -4   4 36.0775 9.47987   1
   5   0   8 18.4222 5.02865  -2
  -5   4  -4 18.4222 5.02865   1
  -5   0  -8 9.77446 6.64475  -2
   5  -4   4 9.77446 6.64475   1
   6   1   9 759.899 22.1285  -2
  -6   4  -4 759.899 22.1285   1
  -6  -1  -9 714.921 25.5714  -2
   6  -4   4 714.921 25.5714   1
  -7   4  -4 2.85070 3.53908   1
   7  -4   4 0.59359 8.34764   1
   6   3  -4 96.4929 16.2950   1
   6   9   2 207.696 48.6955  -2
  -6  -3   4 207.696 48.6955   1
   5   3  -4 222.140 15.7315   1
  -5  -3   4 166.876 31.3003   1
   4   3  -4 588.406 21.8419   1
  -4  -3   4 703.378 45.8858   1
   3   3  -4 100.970 8.53380   1
  -3  -3   4 102.705 11.4203   1
  -2  -6   1 4.56981 5.61929  -2
   2   3  -4 4.56981 5.61929   1
   2   6  -1 -0.4409 7.27857  -2
  -2  -3   4 -0.4409 7.27857   1
  -1  -5   2 175.581 6.51691  -2
   1   3  -4 175.581 6.51691   1
   1   5  -2 192.741 15.6655  -2
  -1  -3   4 192.741 15.6655   1
   0  -4   3 1818.94 53.8496  -2
   0   3  -4 1818.94 53.8496   1
   0  -3   4 568.898 20.1664   1
  -1   3  -4 722.428 12.1563   1
   1  -3   4 720.860 12.1041   1
  -2   3  -4 589.991 11.1669   1
   2  -3   4 612.900 14.9186   1
  -3   3  -4 -0.1464 1.83340   1
   3  -3   4 1.86536 3.18186   1
   4  -1   6 -5.7632 20.4411  -2
  -4   3  -4 -5.7632 20.4411   1
  -4   1  -6 53.8123 10.5148  -2
   4  -3   4 53.8123 10.5148   1
   5   0   7 403.030 16.3694  -2
  -5   3  -4 403.030 16.3694   1
  -5   0  -7 359.555 14.7766  -2
   5  -3   4 359.555 14.7766   1
   6   1   8 293.397 16.6598  -2
  -6   3  -4 293.397 16.6598   1
  -6  -1  -8 259.488 16.5649  -2
   6  -3   4 259.488 16.5649   1
  -7   3  -4 4.76247 5.19341   1
  -7  -2  -9 121.828 29.6400  -2
   7  -3   4 121.828 29.6400   1
  -8   3  -4 15.0832 5.63714   1
   8  -3   4 -9.3464 8.71015   1
   6   2  -4 31.6244 6.97926   1
   6   9   3 -6.8911 42.1241  -2
  -6  -2   4 -6.8911 42.1241   1
   5   2  -4 193.989 11.1804   1
  -5  -2   4 166.318 29.3854   1
   4   2  -4 124.347 8.09812   1
  -4  -2   4 134.763 24.0898   1
   3   2  -4 58.8574 6.60741   1
  -3  -2   4 60.7548 8.82104   1
  -2  -6   0 212.596 9.81172  -2
   2   2  -4 212.596 9.81172   1
   2   6   0 215.596 17.5471  -2
  -2  -2   4 215.596 17.5471   1
  -1  -5   1 583.713 11.7956  -2
   1   2  -4 583.713 11.7956   1
   1   5  -1 584.927 17.9888  -2
  -1  -2   4 584.927 17.9888   1
   0  -4   2 463.129 27.6832  -2
   0   2  -4 463.129 27.6832   1
   0  -2   4 6.88374 5.24780   1
  -1   2  -4 1301.08 17.3001   1
   1  -2   4 1316.36 14.3230   1
  -2   2  -4 696.011 10.5488   1
   2  -2   4 730.347 14.6140   1
  -3   2  -4 86.0574 5.18253   1
   3  -2   4 79.4632 7.60945   1
   4  -1   5 689.414 21.0558  -2
  -4   2  -4 689.414 21.0558   1
   4  -2   4 636.823 16.0381   1
   5   0   6 504.705 19.3743  -2
  -5   2  -4 504.705 19.3743   1
  -5   0  -6 472.883 15.9726  -2
   5  -2   4 472.883 15.9726   1
   6   1   7 101.037 12.2199  -2
  -6   2  -4 101.037 12.2199   1
  -6  -1  -7 86.0238 10.9090  -2
   6  -2   4 86.0238 10.9090   1
  -7   2  -4 90.4040 20.3341   1
  -7  -2  -8 176.107 20.7602  -2
   7  -2   4 176.107 20.7602   1
  -8   2  -4 30.7849 6.78009   1
   8  -2   4 19.1901 8.35044   1
  -6  -9  -4 -6.6492 15.5228  -2
   6   1  -4 -6.6492 15.5228   1
   5   1  -4 63.5638 6.70230   1
  -5  -1   4 57.6040 10.8602   1
   4   1  -4 59.6447 6.20125   1
  -4  -1   4 79.6160 8.33017   1
   3   1  -4 18.1555 3.61626   1
  -3  -1   4 15.4487 4.41037   1
   2   1  -4 607.309 14.6106   1
  -2  -1   4 617.037 13.8323   1
  -1  -5   0 985.634 14.4499  -2
   1   1  -4 985.634 14.4499   1
   1   5   0 988.729 21.6091  -2
  -1  -1   4 988.729 21.6091   1
   0  -4   1 186.810 11.5547  -2
   0   1  -4 186.810 11.5547   1
   0  -1   4 96.9243 10.0864   1
  -1   1  -4 36.2871 6.80547   1
   1  -1   4 27.0810 6.63408   1
  -2   1  -4 124.180 4.52786   1
   2  -1   4 108.758 6.12590   1
  -3   1  -4 110.458 6.24851   1
   3  -1   4 99.0009 7.74307   1
   4  -1   4 1767.46 35.7463  -2
  -4   1  -4 1767.46 35.7463   1
   4  -1   4 891.465 18.0429   1
   5   0   5 225.212 13.0382  -2
  -5   1  -4 225.212 13.0382   1
  -5   0  -5 209.867 11.2689  -2
   5  -1   4 209.867 11.2689   1
   6   1   6 347.433 31.5390  -2
  -6   1  -4 347.433 31.5390   1
  -6  -1  -6 320.161 15.5165  -2
   6  -1   4 320.161 15.5165   1
   7   2   7 129.953 18.7239  -2
  -7   1  -4 129.953 18.7239   1
  -7  -2  -7 77.1217 13.4020  -2
   7  -1   4 77.1217 13.4020   1
  -8   1  -4 21.6698 7.23857   1
   8  -1   4 9.85397 7.43152   1
  -6  -9  -5 48.2365 13.0175  -2
   6   0  -4 48.2365 13.0175   1
   5   0  -4 59.3620 6.38395   1
  -5   0   4 83.7100 8.97220   1
   4   0  -4 9.29021 3.73901   1
  -4   0   4 5.14733 3.96734   1
   3   0  -4 733.651 14.3016   1
  -3   0   4 789.206 19.9987   1
  -2  -6  -2 3047.76 64.5303  -2
   2   0  -4 3047.76 64.5303   1
  -2   0   4 1909.50 44.7120   1
  -1  -5  -1 109.302 6.11456  -2
   1   0  -4 109.302 6.11456   1
   1   5   1 93.8358 4.33470  -2
  -1   0   4 93.8358 4.33470   1
   0  -4   0 23.6506 4.71403  -2
   0   0  -4 23.6506 4.71403   1
   0   4   0 14.5095 7.87366  -2
   0   0   4 14.5095 7.87366   1
  -1   0  -4 50.4021 4.74359   1
   1   0   4 40.2632 7.15788   1
  -2   0  -4 922.215 16.4247   1
   2   0   4 928.050 24.7263   1
  -3   0  -4 1047.32 17.4665   1
   3   0   4 1054.52 16.2735   1
   4  -1   3 1945.13 42.3691  -2
  -4   0  -4 1945.13 42.3691   1
   4   0   4 1508.88 22.6220   1
   5   0   4 29.0652 9.91139  -2
  -5   0  -4 29.0652 9.91139   1
  -5   0  -4 25.3037 7.12105  -2
   5   0   4 25.3037 7.12105   1
   6   1   5 79.8648 8.48143  -2
  -6   0  -4 79.8648 8.48143   1
  -6  -1  -5 96.2157 7.48257  -2
   6   0   4 96.2157 7.48257   1
   7   2   6 120.180 23.5812  -2
  -7   0  -4 120.180 23.5812   1
  -7  -2  -6 126.158 14.3576  -2
   7   0   4 126.158 14.3576   1
  -8   0  -4 13.1020 7.14999   1
   8   0   4 3.00092 6.63007   1
  -9   0  -4 40.4205 11.9824   1
   9   0   4 14.6502 7.89925   1
  -6  -9  -6 22.0948 18.2668  -2
   6  -1  -4 22.0948 18.2668   1
   6   9   6 -4.2825 17.9830  -2
  -6   1   4 -4.2825 17.9830   1
   5  -1  -4 18.6796 4.33403   1
  -5   1   4 17.1100 5.05002   1
   4  -1  -4 214.742 9.51446   1
  -4   1   4 183.133 10.7551   1
   3  -1  -4 120.625 6.95122   1
  -3   1   4 125.987 8.80926   1
   2  -1  -4 94.1904 5.54454   1
  -2   1   4 88.2028 6.24343   1
  -1  -5  -2 1658.67 20.5134  -2
   1  -1  -4 1658.67 20.5134   1
   1   5   2 1666.49 14.4562  -2
  -1   1   4 1666.49 14.4562   1
   0  -4  -1 481.639 9.21641  -2
   0  -1  -4 481.639 9.21641   1
   0   4   1 522.467 7.66248  -2
   0   1   4 522.467 7.66248   1
   1  -3   0 66.9111 13.6983  -2
  -1  -1  -4 66.9111 13.6983   1
   1   1   4 14.4792 3.12474   1
  -2  -1  -4 126.644 7.33280   1
   2   1   4 130.835 6.73570   1
  -3  -1  -4 1620.35 21.5449   1
   3   1   4 1646.56 23.7246   1
  -4  -1  -4 445.205 11.2109   1
   4   1   4 434.555 14.1671   1
   5   0   3 323.295 18.1985  -2
  -5  -1  -4 323.295 18.1985   1
  -5   0  -3 321.012 14.5434  -2
   5   1   4 321.012 14.5434   1
   6   1   4 245.483 17.0675  -2
  -6  -1  -4 245.483 17.0675   1
  -6  -1  -4 215.739 9.42287  -2
   6   1   4 215.739 9.42287   1
   7   2   5 329.229 21.0451  -2
  -7  -1  -4 329.229 21.0451   1
  -7  -2  -5 327.483 15.5708  -2
   7   1   4 327.483 15.5708   1
  -8  -1  -4 20.9204 7.88421   1
   8   1   4 20.8624 7.95957   1
  -9  -1  -4 138.835 28.9118   1
   9   1   4 172.592 30.9645   1
  -6  -9  -7 65.6981 18.2836  -2
   6  -2  -4 65.6981 18.2836   1
   5  -2  -4 25.2966 6.08754   1
  -5   2   4 28.4183 6.27846   1
   4  -2  -4 2.29287 3.01126   1
  -4   2   4 2.80057 3.99848   1
   3  -2  -4 81.2799 5.98457   1
  -3   2   4 88.9834 7.38089   1
   2  -2  -4 135.844 5.99761   1
  -2   2   4 134.012 6.36718   1
  -1  -5  -3 1189.22 16.1038  -2
   1  -2  -4 1189.22 16.1038   1
   1   5   3 1105.33 13.2527  -2
  -1   2   4 1105.33 13.2527   1
   0  -4  -2 389.112 7.85549  -2
   0  -2  -4 389.112 7.85549   1
   0   4   2 402.009 8.69914  -2
   0   2   4 402.009 8.69914   1
   1  -3  -1 105.768 13.9047  -2
  -1  -2  -4 105.768 13.9047   1
   1   2   4 49.8206 5.48529   1
  -2  -2  -4 156.953 6.47769   1
   2   2   4 142.642 7.91447   1
  -3  -2  -4 386.816 10.2338   1
   3   2   4 382.135 9.57428   1
  -4  -2  -4 84.6327 4.85139   1
   4   2   4 83.1916 7.70858   1
   5   0   2 321.618 19.1369  -2
  -5  -2  -4 321.618 19.1369   1
  -5   0  -2 316.687 29.6967  -2
   5   2   4 316.687 29.6967   1
   6   1   3 300.034 17.6302  -2
  -6  -2  -4 300.034 17.6302   1
  -6  -1  -3 258.493 10.7888  -2
   6   2   4 258.493 10.7888   1
   7   2   4 49.3371 13.3769  -2
  -7  -2  -4 49.3371 13.3769   1
  -7  -2  -4 20.5175 8.88452  -2
   7   2   4 20.5175 8.88452   1
  -8  -2  -4 99.4978 18.6948   1
   8   2   4 119.988 12.5646   1
  -9  -2  -4 103.877 20.1292   1
   9   2   4 81.4692 21.3347   1
   5  -3  -4 143.225 12.6210   1
  -5   3   4 137.200 21.0072   1
   4  -3  -4 238.113 12.9288   1
  -4   3   4 265.688 10.9076   1
   3  -3  -4 -0.3054 4.28756   1
  -3   3   4 3.98465 3.02986   1
   2  -3  -4 120.914 8.68275   1
  -2   3   4 136.811 5.26973   1
  -1  -5  -4 1301.59 22.0963  -2
   1  -3  -4 1301.59 22.0963   1
   1   5   4 1296.41 17.2621  -2
  -1   3   4 1296.41 17.2621   1
   0  -4  -3 20.1263 2.99825  -2
   0  -3  -4 20.1263 2.99825   1
   0   4   3 23.8221 4.15690  -2
   0   3   4 23.8221 4.15690   1
   1  -3  -2 799.025 26.6166  -2
  -1  -3  -4 799.025 26.6166   1
   1   3   4 616.305 14.1848   1
  -2  -3  -4 414.579 9.89587   1
   2   3   4 418.404 12.5779   1
  -3  -3  -4 10.9410 2.90637   1
   3   3   4 18.5451 3.43441   1
  -4  -3  -4 181.702 13.9065   1
   4   3   4 166.102 8.30841   1
   5   0   1 527.709 22.7546  -2
  -5  -3  -4 527.709 22.7546   1
  -5   0  -1 507.208 35.8808  -2
   5   3   4 507.208 35.8808   1
   6   1   2 57.0107 12.0321  -2
  -6  -3  -4 57.0107 12.0321   1
  -6  -1  -2 56.8225 6.89335  -2
   6   3   4 56.8225 6.89335   1
   7   2   3 16.2587 12.8480  -2
  -7  -3  -4 16.2587 12.8480   1
  -7  -2  -3 4.80473 10.1232  -2
   7   3   4 4.80473 10.1232   1
   8   3   4 407.377 37.7569  -2
  -8  -3  -4 407.377 37.7569   1
  -8  -3  -4 416.767 37.8028  -2
   8   3   4 416.767 37.8028   1
  -9  -3  -4 24.2645 9.80065   1
   9   3   4 34.1218 9.43024   1
  -5  -8  -8 472.674 42.0385  -2
   5  -4  -4 472.674 42.0385   1
   5   8   8 559.196 21.1127  -2
  -5   4   4 559.196 21.1127   1
   4  -4  -4 73.2751 9.94765   1
  -4   4   4 65.9507 6.99865   1
   3  -4  -4 102.275 9.43049   1
  -3   4   4 96.8575 6.28818   1
   2  -4  -4 97.6021 8.33762   1
  -2   4   4 94.6096 6.17494   1
  -1  -5  -5 26.0290 6.32506  -2
   1  -4  -4 26.0290 6.32506   1
   1   5   5 24.9444 6.57370  -2
  -1   4   4 24.9444 6.57370   1
   0  -4  -4 203.080 5.76030  -2
   0  -4  -4 203.080 5.76030   1
   0   4   4 184.350 7.98790  -2
   0   4   4 184.350 7.98790   1
   1  -3  -3 2372.38 24.7416  -2
  -1  -4  -4 2372.38 24.7416   1
  -1   3   3 2548.33 50.3330  -2
   1   4   4 2548.33 50.3330   1
  -2  -4  -4 237.112 8.23442   1
   2   4   4 245.078 10.1700   1
  -3  -4  -4 407.315 12.4687   1
   3   4   4 388.729 12.9706   1
  -4  -4  -4 131.137 8.18739   1
   4   4   4 139.889 7.52225   1
  -5  -4  -4 14.0307 6.62321   1
   5   4   4 12.1976 3.90927   1
   6   1   1 35.4619 11.9316  -2
  -6  -4  -4 35.4619 11.9316   1
  -6  -1  -1 33.0079 7.96554  -2
   6   4   4 33.0079 7.96554   1
   7   2   2 72.7673 14.5377  -2
  -7  -4  -4 72.7673 14.5377   1
  -7  -2  -2 105.402 12.8819  -2
   7   4   4 105.402 12.8819   1
   8   3   3 111.079 27.7359  -2
  -8  -4  -4 111.079 27.7359   1
  -8  -3  -3 16.7915 22.0008  -2
   8   4   4 16.7915 22.0008   1
  -9  -4  -4 19.1497 8.48462   1
   9   4   4 4.73421 7.49159   1
   5  -5  -4 102.267 23.0203   1
   5   8   9 211.959 13.9708  -2
  -5   5   4 211.959 13.9708   1
   4  -5  -4 6.14800 7.32553   1
  -4   5   4 4.01131 3.99057   1
   3  -5  -4 172.752 15.9489   1
  -3   5   4 136.442 9.19319   1
   2  -5  -4 122.261 11.3720   1
  -2   5   4 103.470 6.91046   1
  -1  -5  -6 22.5596 15.3893  -2
   1  -5  -4 22.5596 15.3893   1
  -1   5   4 10.4869 3.51418   1
   0  -4  -5 358.919 8.78160  -2
   0  -5  -4 358.919 8.78160   1
   0   4   5 357.644 14.9492  -2
   0   5   4 357.644 14.9492   1
   1  -3  -4 1466.95 24.4357  -2
  -1  -5  -4 1466.95 24.4357   1
  -1   3   4 1514.32 26.2549  -2
   1   5   4 1514.32 26.2549   1
  -2  -5  -4 10.2785 4.46523   1
   2   5   4 10.9364 4.00874   1
  -3  -5  -4 257.644 10.7453   1
   3   5   4 277.382 11.4367   1
  -4  -5  -4 201.767 9.35832   1
   4   5   4 186.331 10.6885   1
  -5  -5  -4 110.008 13.6233   1
   5   5   4 133.912 9.00879   1
   6   1   0 397.916 22.3323  -2
  -6  -5  -4 397.916 22.3323   1
  -6  -1   0 400.668 18.0272  -2
   6   5   4 400.668 18.0272   1
   7   2   1 51.6856 11.9163  -2
  -7  -5  -4 51.6856 11.9163   1
  -7  -2  -1 106.040 18.0637  -2
   7   5   4 106.040 18.0637   1
   8   3   2 60.4491 18.2614  -2
  -8  -5  -4 60.4491 18.2614   1
  -8  -3  -2 22.0270 22.2726  -2
   8   5   4 22.0270 22.2726   1
  -9  -5  -4 36.9268 10.9347   1
   9   5   4 22.3660 9.30371   1
   4  -6  -4 68.2708 12.9121   1
  -4   6   4 65.0242 8.25351   1
   3  -6  -4 287.532 21.4434   1
  -3   6   4 320.105 12.2134   1
   2  -6  -4 22.8165 8.46185   1
  -2   6   4 21.4069 4.69894   1
  -1  -5  -7 62.9169 17.5747  -2
   1  -6  -4 62.9169 17.5747   1
  -1   6   4 -0.3315 3.58767   1
   0  -4  -6 535.663 18.0151  -2
   0  -6  -4 535.663 18.0151   1
   0   4   6 542.223 20.9641  -2
   0   6   4 542.223 20.9641   1
   1  -3  -5 130.706 10.2391  -2
  -1  -6  -4 130.706 10.2391   1
  -1   3   5 132.577 10.8400  -2
   1   6   4 132.577 10.8400   1
   2  -2  -4 335.762 26.8825  -2
  -2  -6  -4 335.762 26.8825   1
   2   6   4 203.497 11.3683   1
  -3  -6  -4 782.226 18.3563   1
   3   6   4 760.541 19.4008   1
  -4  -6  -4 221.905 17.2705   1
   4   6   4 219.001 11.1695   1
  -5  -6  -4 5.17411 6.49730   1
   5   6   4 2.80568 4.58391   1
   6   1  -1 731.767 30.3929  -2
  -6  -6  -4 731.767 30.3929   1
  -6  -1   1 785.391 24.9087  -2
   6   6   4 785.391 24.9087   1
   7   2   0 63.6321 12.4596  -2
  -7  -6  -4 63.6321 12.4596   1
  -7  -2   0 86.9672 12.7322  -2
   7   6   4 86.9672 12.7322   1
   8   3   1 49.9015 17.7851  -2
  -8  -6  -4 49.9015 17.7851   1
  -8  -3  -1 24.6570 19.2195  -2
   8   6   4 24.6570 19.2195   1
   9   4   2 213.601 36.4922  -2
  -9  -6  -4 213.601 36.4922   1
   9   6   4 28.1089 9.58901   1
   3  -7  -4 83.9527 14.1258   1
  -3   7   4 101.098 9.71574   1
   2  -7  -4 -0.0342 6.31187   1
  -2   7   4 -5.4603 4.01804   1
  -1  -5  -8 268.301 26.9124  -2
   1  -7  -4 268.301 26.9124   1
  -1   7   4 4.37151 5.19732   1
   0  -4  -7 22.5733 8.77060  -2
   0  -7  -4 22.5733 8.77060   1
   0   4   7 -0.0570 12.1971  -2
   0   7   4 -0.0570 12.1971   1
   1  -3  -6 19.7711 10.3374  -2
  -1  -7  -4 19.7711 10.3374   1
  -1   3   6 11.6595 8.45471  -2
   1   7   4 11.6595 8.45471   1
   2  -2  -5 272.026 26.4573  -2
  -2  -7  -4 272.026 26.4573   1
   2   7   4 190.733 11.9521   1
  -3  -7  -4 108.666 13.8280   1
   3   7   4 112.057 10.4163   1
  -4  -7  -4 22.2017 8.94749   1
   4   7   4 10.7491 7.72940   1
  -5  -7  -4 146.517 16.7746   1
   5   7   4 156.624 14.0449   1
   6   1  -2 144.343 18.9791  -2
  -6  -7  -4 144.343 18.9791   1
  -6  -1   2 123.677 14.4193  -2
   6   7   4 123.677 14.4193   1
   7   2  -1 32.3099 11.0992  -2
  -7  -7  -4 32.3099 11.0992   1
  -7  -2   1 41.4821 11.6166  -2
   7   7   4 41.4821 11.6166   1
   8   3   0 393.910 26.0068  -2
  -8  -7  -4 393.910 26.0068   1
  -8  -3   0 390.981 33.5279  -2
   8   7   4 390.981 33.5279   1
   9   4   1 100.901 31.1921  -2
  -9  -7  -4 100.901 31.1921   1
   9   7   4 4.52752 11.8542   1
   2  -8  -4 16.5263 8.67395   1
  -2   8   4 -1.3842 5.25603   1
   1  -8  -4 56.5260 9.94986   1
  -1   8   4 42.7139 7.81806   1
   0  -4  -8 101.304 15.2844  -2
   0  -8  -4 101.304 15.2844   1
   0   4   8 80.0931 17.0099  -2
   0   8   4 80.0931 17.0099   1
   1  -3  -7 112.857 11.2666  -2
  -1  -8  -4 112.857 11.2666   1
  -1   3   7 115.062 16.3916  -2
   1   8   4 115.062 16.3916   1
  -2  -8  -4 101.464 22.3016   1
   2   8   4 89.9277 10.3023   1
  -3  -8  -4 142.550 16.3697   1
   3   8   4 117.471 16.1284   1
  -4  -8  -4 18.0046 8.56617   1
   4   8   4 16.3633 6.19998   1
  -5  -8  -4 36.4554 9.89211   1
   5   8   4 39.8026 8.20518   1
   6   1  -3 88.7926 18.7714  -2
  -6  -8  -4 88.7926 18.7714   1
  -6  -1   3 122.341 24.0377  -2
   6   8   4 122.341 24.0377   1
   7   2  -2 279.817 21.0241  -2
  -7  -8  -4 279.817 21.0241   1
  -7  -2   2 320.575 20.9958  -2
   7   8   4 320.575 20.9958   1
   8   3  -1 410.050 26.8755  -2
  -8  -8  -4 410.050 26.8755   1
  -8  -3   1 389.269 26.3732  -2
   8   8   4 389.269 26.3732   1
   1  -9  -4 65.4657 12.7723   1
  -1   9   4 63.3731 9.67784   1
   0  -4  -9 136.375 18.8687  -2
   0  -9  -4 136.375 18.8687   1
   0   4   9 106.582 20.4054  -2
   0   9   4 106.582 20.4054   1
   1  -3  -8 201.867 17.2748  -2
  -1  -9  -4 201.867 17.2748   1
  -1   3   8 188.166 13.5242  -2
   1   9   4 188.166 13.5242   1
  -2  -9  -4 31.8213 17.1704   1
   2   9   4 48.1474 12.7762   1
  -3  -9  -4 11.1086 9.75261   1
   3   9   4 11.2083 9.72327   1
  -4  -9  -4 26.6823 9.47774   1
   4   9   4 16.9330 7.70711   1
  -5  -9  -4 44.8514 11.1350   1
   5   9   4 52.8322 9.97845   1
   6   1  -4 67.1405 25.2338  -2
  -6  -9  -4 67.1405 25.2338   1
   6   9   4 -3.5761 6.18707   1
   7   2  -3 278.333 22.9160  -2
  -7  -9  -4 278.333 22.9160   1
  -7  -2   3 255.840 21.0791  -2
   7   9   4 255.840 21.0791   1
   1  -3  -9 60.6037 13.5263  -2
  -1 -10  -4 60.6037 13.5263   1
  -1   3   9 46.2769 14.5839  -2
   1  10   4 46.2769 14.5839   1
   2  -2  -8 55.7403 28.2687  -2
  -2 -10  -4 55.7403 28.2687   1
  -2   2   8 -25.300 18.4098  -2
   2  10   4 -25.300 18.4098   1
  -3 -10  -4 7.74053 18.1381   1
   3  10   4 5.21186 10.9482   1
  -4 -10  -4 73.7842 18.0640   1
   4  10   4 94.9317 18.5683   1
  -5 -10  -4 19.7726 11.2683   1
   5  10   4 4.19438 6.62158   1
   6   1  -5 115.768 27.0996  -2
  -6 -10  -4 115.768 27.0996   1
   6  10   4 28.5177 8.93147   1
  -1  -6   7 48.8923 21.5768  -2
   1   8  -5 48.8923 21.5768   1
   0   8  -5 -4.3518 11.0002   1
   0  -8   5 7.60877 15.7126   1
  -1   8  -5 32.7399 19.5614   1
   1  -8   5 26.9876 18.1199   1
  -3  -8   4 191.634 15.6337  -2
   3   7  -5 191.634 15.6337   1
   3   8  -4 138.565 40.1824  -2
  -3  -7   5 138.565 40.1824   1
  -2  -7   5 207.898 23.1760  -2
   2   7  -5 207.898 23.1760   1
   2   7  -5 197.310 21.5233  -2
  -2  -7   5 197.310 21.5233   1
  -1  -6   6 91.3156 22.1851  -2
   1   7  -5 91.3156 22.1851   1
   1   6  -6 103.878 33.4491  -2
  -1  -7   5 103.878 33.4491   1
   0   7  -5 105.124 15.3898   1
   0  -7   5 142.556 30.5828   1
  -1   7  -5 6.54407 13.8261   1
   1  -7   5 10.6288 14.3087   1
  -2   7  -5 -7.2431 11.4723   1
   2  -7   5 0.22608 8.40995   1
   3  -3   9 54.8235 32.7246  -2
  -3   7  -5 54.8235 32.7246   1
  -3   3  -9 60.4694 22.6006  -2
   3  -7   5 60.4694 22.6006   1
   4   6  -5 1.38705 5.40694   1
  -4  -6   5 -0.4614 19.1524   1
  -3  -8   3 42.0577 12.1534  -2
   3   6  -5 42.0577 12.1534   1
   3   8  -3 40.5071 20.1360  -2
  -3  -6   5 40.5071 20.1360   1
  -2  -7   4 682.812 21.9333  -2
   2   6  -5 682.812 21.9333   1
   2   7  -4 787.618 33.6227  -2
  -2  -6   5 787.618 33.6227   1
  -1  -6   5 48.8643 9.87615  -2
   1   6  -5 48.8643 9.87615   1
   1   6  -5 48.5948 27.3775  -2
  -1  -6   5 48.5948 27.3775   1
   0   6  -5 103.929 14.7561   1
   0  -6   5 73.7688 13.6399   1
  -1   6  -5 4.06030 12.4764   1
   1  -6   5 17.9355 8.83162   1
  -2   6  -5 1.59467 11.7542   1
   2  -6   5 -3.0937 7.14205   1
   3  -3   8 91.5603 32.5083  -2
  -3   6  -5 91.5603 32.5083   1
   3  -6   5 82.5398 16.0129   1
   4  -2   9 198.377 31.4707  -2
  -4   6  -5 198.377 31.4707   1
  -4   2  -9 227.038 28.1915  -2
   4  -6   5 227.038 28.1915   1
   5  -1  10 2.32207 23.9416  -2
  -5   6  -5 2.32207 23.9416   1
  -5   1 -10 0.43191 12.0285  -2
   5  -6   5 0.43191 12.0285   1
   5   5  -5 -1.5451 6.57755   1
  -5  -5   5 -10.957 24.6194   1
   4   5  -5 80.1431 10.9383   1
  -4  -5   5 111.370 29.2381   1
   3   5  -5 2.59218 5.23386   1
   3   8  -2 79.9568 34.1228  -2
  -3  -5   5 79.9568 34.1228   1
  -2  -7   3 280.352 15.0525  -2
   2   5  -5 280.352 15.0525   1
   2   7  -3 270.245 29.4403  -2
  -2  -5   5 270.245 29.4403   1
  -1  -6   4 151.311 11.5262  -2
   1   5  -5 151.311 11.5262   1
   0   5  -5 428.581 13.5045   1
   0  -5   5 485.455 18.4528   1
  -1   5  -5 7.44097 11.1103   1
   1  -5   5 8.47723 6.15390   1
  -2   5  -5 224.114 31.1648   1
   2  -5   5 223.569 21.4548   1
  -3   5  -5 201.909 29.9827   1
   3  -5   5 245.526 23.9901   1
   4  -2   8 25.9735 25.3825  -2
  -4   5  -5 25.9735 25.3825   1
  -4   2  -8 61.8694 17.1983  -2
   4  -5   5 61.8694 17.1983   1
   5  -1   9 6.25800 19.4209  -2
  -5   5  -5 6.25800 19.4209   1
  -5   1  -9 -1.5811 9.40075  -2
   5  -5   5 -1.5811 9.40075   1
  -6   5  -5 23.0755 7.18817   1
  -6   0 -10 24.9875 17.2640  -2
   6  -5   5 24.9875 17.2640   1
   5   4  -5 107.720 12.5962   1
  -5  -4   5 70.4369 25.9863   1
   4   4  -5 42.6767 8.69700   1
  -4  -4   5 29.3461 20.0139   1
   3   4  -5 28.6731 7.80573   1
  -2  -7   2 73.8656 9.85276  -2
   2   4  -5 73.8656 9.85276   1
   2   7  -2 92.6146 18.0989  -2
  -2  -4   5 92.6146 18.0989   1
  -1  -6   3 599.929 15.4178  -2
   1   4  -5 599.929 15.4178   1
   1   6  -3 657.095 41.8734  -2
  -1  -4   5 657.095 41.8734   1
   0   4  -5 44.0427 5.17598   1
   0  -4   5 45.3075 9.34916   1
  -1   4  -5 395.424 20.6879   1
   1  -4   5 407.591 20.7107   1
  -2   4  -5 195.230 27.8522   1
   2  -4   5 170.492 18.3637   1
  -3   4  -5 101.776 20.8714   1
   3  -4   5 134.245 17.6332   1
   4  -2   7 -16.832 22.6594  -2
  -4   4  -5 -16.832 22.6594   1
  -4   2  -7 21.7131 14.6277  -2
   4  -4   5 21.7131 14.6277   1
   5  -1   8 354.313 13.1275  -2
  -5   4  -5 354.313 13.1275   1
  -5   1  -8 346.033 18.5114  -2
   5  -4   5 346.033 18.5114   1
   6   0   9 61.4759 9.60927  -2
  -6   4  -5 61.4759 9.60927   1
  -6   0  -9 86.5676 17.5885  -2
   6  -4   5 86.5676 17.5885   1
  -7   4  -5 11.0711 4.67167   1
   7  -4   5 4.27519 9.74654   1
   5   3  -5 192.520 15.2656   1
  -5  -3   5 117.896 29.6346   1
   4   3  -5 157.942 13.6987   1
  -4  -3   5 201.401 33.7100   1
   3   3  -5 0.54785 4.17318   1
  -3  -3   5 -3.7894 14.0430   1
  -2  -7   1 27.6670 6.78292  -2
   2   3  -5 27.6670 6.78292   1
   2   7  -1 23.3768 14.3047  -2
  -2  -3   5 23.3768 14.3047   1
  -1  -6   2 73.7842 8.52535  -2
   1   3  -5 73.7842 8.52535   1
   1   6  -2 85.7164 10.5044  -2
  -1  -3   5 85.7164 10.5044   1
   0  -5   3 486.002 34.9273  -2
   0   3  -5 486.002 34.9273   1
   0  -3   5 30.1826 7.24140   1
  -1   3  -5 1.41025 4.55728   1
   1  -3   5 -2.3590 5.08531   1
  -2   3  -5 229.378 27.9293   1
   2  -3   5 194.826 17.7456   1
  -3   3  -5 -0.1876 2.26134   1
   3  -3   5 -7.4014 5.07895   1
   4  -2   6 147.510 28.7903  -2
  -4   3  -5 147.510 28.7903   1
  -4   2  -6 171.148 18.3173  -2
   4  -3   5 171.148 18.3173   1
   5  -1   7 140.946 9.69806  -2
  -5   3  -5 140.946 9.69806   1
  -5   1  -7 159.819 13.2422  -2
   5  -3   5 159.819 13.2422   1
   6   0   8 58.8173 10.2609  -2
  -6   3  -5 58.8173 10.2609   1
  -6   0  -8 54.6972 14.2477  -2
   6  -3   5 54.6972 14.2477   1
  -7   3  -5 19.6049 6.00602   1
   7  -3   5 34.5559 11.2595   1
  -6  -2   5 48.3723 23.2991   1
   5   2  -5 130.310 12.1673   1
  -5  -2   5 96.2568 26.9212   1
   4   2  -5 39.6144 6.57300   1
  -4  -2   5 32.0148 18.7669   1
   3   2  -5 177.089 11.6489   1
  -3  -2   5 157.523 14.8779   1
  -2  -7   0 292.406 11.9376  -2
   2   2  -5 292.406 11.9376   1
   2   7   0 274.886 13.9957  -2
  -2  -2   5 274.886 13.9957   1
  -1  -6   1 26.2589 6.57956  -2
   1   2  -5 26.2589 6.57956   1
   1   6  -1 13.0245 6.91265  -2
  -1  -2   5 13.0245 6.91265   1
   0   2  -5 22.6937 3.47776   1
   0  -2   5 21.6877 6.11362   1
  -1   2  -5 421.450 18.0695   1
   1  -2   5 416.129 18.4977   1
  -2   2  -5 34.2787 7.34690   1
   2  -2   5 22.5919 7.88759   1
  -3   2  -5 25.5873 3.57607   1
   3  -2   5 29.8327 7.96788   1
   4  -2   5 627.846 20.5607  -2
  -4   2  -5 627.846 20.5607   1
  -4   2  -5 570.967 26.0837  -2
   4  -2   5 570.967 26.0837   1
   5  -1   6 306.364 14.5406  -2
  -5   2  -5 306.364 14.5406   1
  -5   1  -6 272.207 15.7680  -2
   5  -2   5 272.207 15.7680   1
   6   0   7 98.9800 11.2202  -2
  -6   2  -5 98.9800 11.2202   1
  -6   0  -7 76.6968 12.5864  -2
   6  -2   5 76.6968 12.5864   1
  -7   2  -5 22.6833 6.57506   1
   7  -2   5 27.4982 10.3371   1
  -8   2  -5 24.3850 6.25361   1
   8  -2   5 28.2525 11.9057   1
   6   1  -5 10.4594 5.56316   1
   5   1  -5 9.90422 4.76113   1
  -5  -1   5 -12.468 16.6220   1
   4   1  -5 63.2065 6.60709   1
  -4  -1   5 50.7148 12.6636   1
   3   1  -5 251.685 10.5199   1
  -3  -1   5 237.600 15.2944   1
  -2  -7  -1 289.598 17.1683  -2
   2   1  -5 289.598 17.1683   1
  -2  -1   5 216.118 17.1067   1
  -1  -6   0 417.677 11.8227  -2
   1   1  -5 417.677 11.8227   1
   1   6   0 459.358 16.6853  -2
  -1  -1   5 459.358 16.6853   1
   0  -5   1 294.514 22.5476  -2
   0   1  -5 294.514 22.5476   1
   0  -1   5 272.933 14.2216   1
  -1   1  -5 2.69578 3.19081   1
   1  -1   5 0.19245 4.52955   1
  -2   1  -5 79.9037 2.45310   1
   2  -1   5 82.1489 10.9955   1
   3  -3   3 449.067 22.6812  -2
  -3   1  -5 449.067 22.6812   1
   3  -1   5 399.409 12.2424   1
   4  -2   4 741.104 28.1407  -2
  -4   1  -5 741.104 28.1407   1
   4  -1   5 43.4483 6.25869   1
   5  -1   5 13.9911 5.89699  -2
  -5   1  -5 13.9911 5.89699   1
  -5   1  -5 2.78932 6.76519  -2
   5  -1   5 2.78932 6.76519   1
   6   0   6 261.481 16.5806  -2
  -6   1  -5 261.481 16.5806   1
  -6   0  -6 237.045 13.0937  -2
   6  -1   5 237.045 13.0937   1
  -7   1  -5 90.3772 10.9661   1
  -7  -1  -7 307.354 23.9370  -2
   7  -1   5 307.354 23.9370   1
  -8   1  -5 9.49956 6.03744   1
   8  -1   5 -2.8242 6.32501   1
  -6 -10  -5 49.6723 14.7728  -2
   6   0  -5 49.6723 14.7728   1
   5   0  -5 -1.2954 3.57402   1
  -5   0   5 -6.5604 17.0351   1
   4   0  -5 5.96024 3.58057   1
  -4   0   5 -4.6198 6.32313   1
   3   0  -5 602.889 13.4036   1
  -3   0   5 591.840 28.3377   1
  -2  -7  -2 163.563 20.4852  -2
   2   0  -5 163.563 20.4852   1
  -2   0   5 7.92448 6.93218   1
  -1  -6  -1 633.643 12.2853  -2
   1   0  -5 633.643 12.2853   1
   1   6   1 719.361 19.2765  -2
  -1   0   5 719.361 19.2765   1
   0  -5   0 78.7403 7.14850  -2
   0   0  -5 78.7403 7.14850   1
   0   5   0 91.1334 14.5314  -2
   0   0   5 91.1334 14.5314   1
  -1   0  -5 4.83207 2.59095   1
   1   0   5 -0.5161 4.59975   1
  -2   0  -5 510.348 7.93341   1
   2   0   5 529.845 20.0439   1
  -3   0  -5 95.2544 5.45544   1
   3   0   5 74.1355 7.62433   1
   4  -2   3 59.8414 14.5301  -2
  -4   0  -5 59.8414 14.5301   1
   4   0   5 70.5417 6.57854   1
   5  -1   4 215.088 15.1106  -2
  -5   0  -5 215.088 15.1106   1
  -5   1  -4 211.237 13.1205  -2
   5   0   5 211.237 13.1205   1
   6   0   5 176.227 14.0333  -2
  -6   0  -5 176.227 14.0333   1
  -6   0  -5 195.379 13.1825  -2
   6   0   5 195.379 13.1825   1
   7   1   6 141.752 29.2376  -2
  -7   0  -5 141.752 29.2376   1
  -7  -1  -6 123.823 17.5315  -2
   7   0   5 123.823 17.5315   1
  -8   0  -5 12.8887 6.79439   1
   8   0   5 8.22113 6.56316   1
  -9   0  -5 31.3308 7.82203   1
   9   0   5 20.9761 9.11296   1
   5  -1  -5 -3.5837 3.78135   1
  -5   1   5 2.23622 6.55688   1
   4  -1  -5 87.8195 6.83971   1
  -4   1   5 71.6923 11.7188   1
   3  -1  -5 47.7470 5.39313   1
  -3   1   5 65.4683 8.25516   1
  -2  -7  -3 190.376 21.7778  -2
   2  -1  -5 190.376 21.7778   1
  -2   1   5 74.0529 5.38189   1
  -1  -6  -2 1242.36 19.1459  -2
   1  -1  -5 1242.36 19.1459   1
   1   6   2 1230.15 13.8917  -2
  -1   1   5 1230.15 13.8917   1
   0  -5  -1 342.335 9.73476  -2
   0  -1  -5 342.335 9.73476   1
   0   5   1 356.985 7.58197  -2
   0   1   5 356.985 7.58197   1
  -1  -1  -5 20.6656 2.67363   1
   1   1   5 18.0694 3.11623   1
  -2  -1  -5 1455.29 19.1539   1
   2   1   5 1426.61 31.2284   1
  -3  -1  -5 322.091 10.7393   1
   3   1   5 299.692 10.5870   1
   4  -2   2 577.466 26.4054  -2
  -4  -1  -5 577.466 26.4054   1
   4   1   5 553.561 16.1429   1
   5  -1   3 44.9332 12.1338  -2
  -5  -1  -5 44.9332 12.1338   1
  -5   1  -3 30.6213 8.30621  -2
   5   1   5 30.6213 8.30621   1
   6   0   4 91.9062 11.8896  -2
  -6  -1  -5 91.9062 11.8896   1
  -6   0  -4 98.0648 10.1894  -2
   6   1   5 98.0648 10.1894   1
   7   1   5 32.1329 15.1645  -2
  -7  -1  -5 32.1329 15.1645   1
  -7  -1  -5 37.9047 13.2819  -2
   7   1   5 37.9047 13.2819   1
  -8  -1  -5 491.618 37.5140   1
   8   1   5 538.540 26.1723   1
  -9  -1  -5 48.2980 9.02980   1
   9   1   5 57.9692 10.1743   1
   5  -2  -5 34.2646 8.46161   1
  -5   2   5 56.9024 16.7795   1
   4  -2  -5 41.3688 5.19208   1
  -4   2   5 43.5000 6.42365   1
   3  -2  -5 1.43017 2.95859   1
  -3   2   5 2.37438 2.75899   1
  -2  -7  -4 188.163 22.6516  -2
   2  -2  -5 188.163 22.6516   1
  -2   2   5 24.2624 3.77968   1
  -1  -6  -3 46.1302 5.72671  -2
   1  -2  -5 46.1302 5.72671   1
   1   6   3 38.4625 4.35944  -2
  -1   2   5 38.4625 4.35944   1
   0  -5  -2 403.042 8.11404  -2
   0  -2  -5 403.042 8.11404   1
   0   5   2 410.524 9.47707  -2
   0   2   5 410.524 9.47707   1
   1  -4  -1 788.805 28.5792  -2
  -1  -2  -5 788.805 28.5792   1
   1   2   5 692.980 14.4567   1
  -2  -2  -5 471.832 11.0273   1
   2   2   5 488.653 13.4260   1
  -3  -2  -5 80.4221 6.94116   1
   3   2   5 68.8019 4.83281   1
  -4  -2  -5 20.7285 3.97418   1
   4   2   5 27.9734 4.99477   1
   5  -1   2 39.0692 12.7189  -2
  -5  -2  -5 39.0692 12.7189   1
  -5   1  -2 12.1716 7.89937  -2
   5   2   5 12.1716 7.89937   1
   6   0   3 14.8962 8.52919  -2
  -6  -2  -5 14.8962 8.52919   1
  -6   0  -3 14.2142 5.34045  -2
   6   2   5 14.2142 5.34045   1
   7   1   4 339.139 23.1143  -2
  -7  -2  -5 339.139 23.1143   1
  -7  -1  -4 320.562 15.6386  -2
   7   2   5 320.562 15.6386   1
  -8  -2  -5 170.967 25.9691   1
   8   2   5 206.372 15.4636   1
  -9  -2  -5 3.03074 11.0605   1
   9   2   5 -6.8842 12.3950   1
   5  -3  -5 137.731 13.9065   1
  -5   3   5 98.0914 18.6399   1
   4  -3  -5 11.5469 6.03292   1
  -4   3   5 -0.8613 3.29705   1
   3  -3  -5 10.1958 6.23331   1
  -3   3   5 4.09472 2.99756   1
   2  -3  -5 27.1307 5.13397   1
  -2   3   5 19.2267 3.88828   1
  -1  -6  -4 121.670 9.86178  -2
   1  -3  -5 121.670 9.86178   1
   1   6   4 126.194 6.22037  -2
  -1   3   5 126.194 6.22037   1
   0  -5  -3 122.283 6.52312  -2
   0  -3  -5 122.283 6.52312   1
   0   5   3 111.780 6.89024  -2
   0   3   5 111.780 6.89024   1
   1  -4  -2 1132.65 31.9047  -2
  -1  -3  -5 1132.65 31.9047   1
   1   3   5 414.374 12.3638   1
  -2  -3  -5 459.676 11.0938   1
   2   3   5 473.491 13.8831   1
  -3  -3  -5 15.1047 3.27390   1
   3   3   5 10.3727 4.00466   1
  -4  -3  -5 235.354 9.07678   1
   4   3   5 241.163 9.16717   1
   5  -1   1 490.412 24.2087  -2
  -5  -3  -5 490.412 24.2087   1
  -5   1  -1 439.488 15.7639  -2
   5   3   5 439.488 15.7639   1
   6   0   2 25.1476 10.3959  -2
  -6  -3  -5 25.1476 10.3959   1
  -6   0  -2 18.4315 6.23979  -2
   6   3   5 18.4315 6.23979   1
   7   1   3 254.334 20.1628  -2
  -7  -3  -5 254.334 20.1628   1
  -7  -1  -3 248.457 14.4057  -2
   7   3   5 248.457 14.4057   1
   8   2   4 249.986 33.2600  -2
  -8  -3  -5 249.986 33.2600   1
   8   3   5 28.1742 8.07360   1
  -9  -3  -5 41.0008 11.3153   1
   9   3   5 46.0120 10.5557   1
   4  -4  -5 4.81227 6.29104   1
  -4   4   5 8.79169 3.65084   1
   3  -4  -5 89.8906 10.8589   1
  -3   4   5 104.682 7.32989   1
   2  -4  -5 88.0899 9.93046   1
  -2   4   5 78.8477 6.75069   1
  -1  -6  -5 102.725 13.1022  -2
   1  -4  -5 102.725 13.1022   1
   1   6   5 110.620 8.35451  -2
  -1   4   5 110.620 8.35451   1
   0  -5  -4 343.068 11.3157  -2
   0  -4  -5 343.068 11.3157   1
   0   5   4 353.547 11.7169  -2
   0   4   5 353.547 11.7169   1
   1  -4  -3 447.370 12.3062  -2
  -1  -4  -5 447.370 12.3062   1
   1   4   5 280.155 11.1954   1
  -2  -4  -5 195.928 8.28193   1
   2   4   5 213.999 10.1881   1
  -3  -4  -5 10.0009 3.06131   1
   3   4   5 6.62476 4.06790   1
  -4  -4  -5 864.776 18.7428   1
   4   4   5 848.970 20.8133   1
   5  -1   0 138.165 17.2260  -2
  -5  -4  -5 138.165 17.2260   1
   5   4   5 28.8347 4.89010   1
   6   0   1 658.210 26.5961  -2
  -6  -4  -5 658.210 26.5961   1
  -6   0  -1 726.919 20.2919  -2
   6   4   5 726.919 20.2919   1
   7   1   2 219.046 19.5903  -2
  -7  -4  -5 219.046 19.5903   1
  -7  -1  -2 181.327 15.2560  -2
   7   4   5 181.327 15.2560   1
   8   2   3 155.759 29.8314  -2
  -8  -4  -5 155.759 29.8314   1
  -8  -2  -3 26.5243 22.8895  -2
   8   4   5 26.5243 22.8895   1
  -9  -4  -5 6.45730 7.45392   1
   9   4   5 -2.8219 7.03934   1
   4  -5  -5 57.8658 12.7251   1
  -4   5   5 66.0456 8.08000   1
   3  -5  -5 4.22288 6.70609   1
  -3   5   5 -5.0242 3.69950   1
   2  -5  -5 27.7844 8.60266   1
  -2   5   5 30.0262 5.62578   1
  -1  -6  -6 390.554 20.2060  -2
   1  -5  -5 390.554 20.2060   1
   1   6   6 327.250 14.8652  -2
  -1   5   5 327.250 14.8652   1
   0  -5  -5 264.134 9.70271  -2
   0  -5  -5 264.134 9.70271   1
   0   5   5 280.662 11.7863  -2
   0   5   5 280.662 11.7863   1
   1  -4  -4 20.4153 6.11714  -2
  -1  -5  -5 20.4153 6.11714   1
  -1   4   4 26.7915 10.8243  -2
   1   5   5 26.7915 10.8243   1
  -2  -5  -5 16.6018 5.28513   1
   2   5   5 29.4473 6.03345   1
  -3  -5  -5 16.7854 4.45347   1
   3   5   5 11.6677 4.31888   1
  -4  -5  -5 74.6102 8.10015   1
   4   5   5 76.9387 8.98784   1
   5  -1  -1 865.016 41.4197  -2
  -5  -5  -5 865.016 41.4197   1
   5   5   5 312.452 14.1652   1
   6   0   0 967.062 32.7305  -2
  -6  -5  -5 967.062 32.7305   1
  -6   0   0 1102.48 37.5787  -2
   6   5   5 1102.48 37.5787   1
   7   1   1 48.4153 14.8700  -2
  -7  -5  -5 48.4153 14.8700   1
  -7  -1  -1 39.9582 11.2508  -2
   7   5   5 39.9582 11.2508   1
   8   2   2 49.9277 30.7932  -2
  -8  -5  -5 49.9277 30.7932   1
  -8  -2  -2 26.0501 21.3610  -2
   8   5   5 26.0501 21.3610   1
  -9  -5  -5 43.4447 11.4386   1
   9   5   5 43.7020 11.1024   1
   3  -6  -5 72.6765 13.2643   1
  -3   6   5 61.0469 7.86488   1
   2  -6  -5 37.8300 9.29448   1
  -2   6   5 47.0214 6.82078   1
  -1  -6  -7 468.517 30.5662  -2
   1  -6  -5 468.517 30.5662   1
  -1   6   5 154.649 9.83015   1
   0  -5  -6 688.790 21.7382  -2
   0  -6  -5 688.790 21.7382   1
   0   5   6 697.386 19.0338  -2
   0   6   5 697.386 19.0338   1
   1  -4  -5 131.715 8.68878  -2
  -1  -6  -5 131.715 8.68878   1
  -1   4   5 133.427 11.9670  -2
   1   6   5 133.427 11.9670   1
   2  -3  -4 152.246 20.5576  -2
  -2  -6  -5 152.246 20.5576   1
   2   6   5 5.92612 3.93267   1
  -3  -6  -5 -2.0737 3.80919   1
   3   6   5 1.92247 3.85498   1
  -4  -6  -5 1.38887 3.76383   1
   4   6   5 2.03106 3.77397   1
  -5  -6  -5 654.646 36.4764   1
   5   6   5 679.196 29.1349   1
   6   0  -1 559.756 27.1909  -2
  -6  -6  -5 559.756 27.1909   1
  -6   0   1 569.646 29.2383  -2
   6   6   5 569.646 29.2383   1
   7   1   0 9.74360 11.6831  -2
  -7  -6  -5 9.74360 11.6831   1
  -7  -1   0 8.57092 9.34421  -2
   7   6   5 8.57092 9.34421   1
   8   2   1 62.9093 29.7773  -2
  -8  -6  -5 62.9093 29.7773   1
   8   6   5 41.6716 14.4787   1
  -9  -6  -5 37.8767 12.1992   1
   9   6   5 14.8595 10.7980   1
   3  -7  -5 3.47353 7.78762   1
  -3   7   5 -1.2984 4.60098   1
   2  -7  -5 67.1712 11.9902   1
  -2   7   5 49.6882 8.46864   1
  -1  -6  -8 373.828 29.0366  -2
   1  -7  -5 373.828 29.0366   1
  -1   7   5 286.056 14.1818   1
   0  -5  -7 91.8665 11.2911  -2
   0  -7  -5 91.8665 11.2911   1
   0   5   7 95.0576 11.2443  -2
   0   7   5 95.0576 11.2443   1
   1  -4  -6 285.087 15.0183  -2
  -1  -7  -5 285.087 15.0183   1
  -1   4   6 262.474 15.2391  -2
   1   7   5 262.474 15.2391   1
   2  -3  -5 194.530 23.0784  -2
  -2  -7  -5 194.530 23.0784   1
   2   7   5 163.053 13.0122   1
  -3  -7  -5 33.5148 9.66081   1
   3   7   5 44.7661 7.92082   1
  -4  -7  -5 121.265 15.8421   1
   4   7   5 131.949 17.8521   1
  -5  -7  -5 43.0678 10.6420   1
   5   7   5 55.8019 12.8960   1
   6   0  -2 23.5261 15.7928  -2
  -6  -7  -5 23.5261 15.7928   1
  -6   0   2 49.6540 11.6921  -2
   6   7   5 49.6540 11.6921   1
   7   1  -1 70.9540 14.9905  -2
  -7  -7  -5 70.9540 14.9905   1
  -7  -1   1 88.1593 10.9343  -2
   7   7   5 88.1593 10.9343   1
   8   2   0 146.282 21.9361  -2
  -8  -7  -5 146.282 21.9361   1
   8   7   5 42.8636 13.2417   1
   9   3   1 125.082 33.6034  -2
  -9  -7  -5 125.082 33.6034   1
   9   7   5 54.0531 16.3151   1
   2  -8  -5 80.3289 13.2750   1
  -2   8   5 91.7583 12.4895   1
  -1  -6  -9 23.7443 21.2556  -2
   1  -8  -5 23.7443 21.2556   1
  -1   8   5 -5.0357 4.94678   1
   0  -5  -8 11.2786 10.4512  -2
   0  -8  -5 11.2786 10.4512   1
   0   5   8 -19.505 10.2138  -2
   0   8   5 -19.505 10.2138   1
   1  -4  -7 761.267 22.8005  -2
  -1  -8  -5 761.267 22.8005   1
  -1   4   7 775.714 24.2045  -2
   1   8   5 775.714 24.2045   1
  -2  -8  -5 288.496 35.9659   1
   2   8   5 258.370 14.9049   1
  -3  -8  -5 22.9345 8.83727   1
   3   8   5 18.0027 9.52699   1
  -4  -8  -5 108.822 15.8079   1
   4   8   5 145.800 19.0017   1
  -5  -8  -5 5.39491 7.36467   1
   5   8   5 12.8447 9.38942   1
   6   0  -3 6.29220 16.5698  -2
  -6  -8  -5 6.29220 16.5698   1
  -6   0   3 39.7737 13.1325  -2
   6   8   5 39.7737 13.1325   1
   7   1  -2 327.413 25.2694  -2
  -7  -8  -5 327.413 25.2694   1
  -7  -1   2 385.056 20.5364  -2
   7   8   5 385.056 20.5364   1
   8   2  -1 336.587 25.8666  -2
  -8  -8  -5 336.587 25.8666   1
  -8  -2   1 307.678 23.9789  -2
   8   8   5 307.678 23.9789   1
   0  -5  -9 70.4102 17.4277  -2
   0  -9  -5 70.4102 17.4277   1
   0   5   9 59.7209 12.9517  -2
   0   9   5 59.7209 12.9517   1
   1  -4  -8 294.455 20.5869  -2
  -1  -9  -5 294.455 20.5869   1
  -1   4   8 305.985 17.7511  -2
   1   9   5 305.985 17.7511   1
  -2  -9  -5 3.63844 14.8489   1
   2   9   5 7.53167 9.29100   1
  -3  -9  -5 311.533 32.4154   1
   3   9   5 429.031 25.4022   1
  -4  -9  -5 23.0527 9.37641   1
   4   9   5 16.4026 6.53225   1
  -5  -9  -5 8.79945 9.47049   1
   5   9   5 14.8871 6.63028   1
   6   0  -4 109.058 20.0847  -2
  -6  -9  -5 109.058 20.0847   1
  -6   0   4 107.712 16.2157  -2
   6   9   5 107.712 16.2157   1
   7   1  -3 308.244 23.0928  -2
  -7  -9  -5 308.244 23.0928   1
  -7  -1   3 338.326 22.3396  -2
   7   9   5 338.326 22.3396   1
   1  -4  -9 7.13921 12.0776  -2
  -1 -10  -5 7.13921 12.0776   1
  -1   4   9 -4.3691 13.1875  -2
   1  10   5 -4.3691 13.1875   1
  -2   3   8 42.5380 21.5078  -2
   2  10   5 42.5380 21.5078   1
  -3 -10  -5 86.0773 25.5202   1
   3  10   5 66.9722 14.9875   1
  -4 -10  -5 11.3295 16.0411   1
   4  10   5 -7.5956 9.35080   1
  -5 -10  -5 12.1598 9.23308   1
   5  10   5 2.54367 6.83095   1
   6   0  -5 183.221 30.1345  -2
  -6 -10  -5 183.221 30.1345   1
   6  10   5 26.0378 8.55292   1
   1   7  -6 79.3984 19.2512   1
   1   7  -6 113.176 36.6730  -2
  -1  -7   6 113.176 36.6730   1
   0   7  -6 134.773 23.3811   1
   0  -7   6 172.989 33.3322   1
  -1   7  -6 -3.0087 6.93751   1
   1  -7   6 6.00265 14.9243   1
  -2   7  -6 10.7342 15.4204   1
   2  -7   6 15.4142 18.6958   1
  -3  -9   3 35.8264 11.9184  -2
   3   6  -6 35.8264 11.9184   1
   3   9  -3 41.2844 36.8488  -2
  -3  -6   6 41.2844 36.8488   1
  -2  -8   4 146.028 11.5786  -2
   2   6  -6 146.028 11.5786   1
   2   8  -4 141.503 19.1508  -2
  -2  -6   6 141.503 19.1508   1
  -1  -7   5 132.439 23.1594  -2
   1   6  -6 132.439 23.1594   1
   1   7  -5 112.947 32.9497  -2
  -1  -6   6 112.947 32.9497   1
   0   6  -6 6.70954 9.46578   1
   0  -6   6 -2.3806 9.57005   1
  -1   6  -6 26.4127 9.13787   1
   1  -6   6 29.1788 20.3664   1
  -2   6  -6 89.9096 23.0230   1
   2  -6   6 100.647 16.9991   1
   3  -4   8 121.945 34.1898  -2
  -3   6  -6 121.945 34.1898   1
  -3   4  -8 168.456 22.8377  -2
   3  -6   6 168.456 22.8377   1
   4  -3   9 49.4717 27.3284  -2
  -4   6  -6 49.4717 27.3284   1
  -4   3  -9 46.8549 17.1037  -2
   4  -6   6 46.8549 17.1037   1
  -4  -5   6 4.95658 22.5138   1
  -3  -9   2 17.9046 10.8763  -2
   3   5  -6 17.9046 10.8763   1
  -2  -8   3 101.353 10.6666  -2
   2   5  -6 101.353 10.6666   1
   2   8  -3 86.4706 15.3262  -2
  -2  -5   6 86.4706 15.3262   1
  -1  -7   4 279.760 26.6848  -2
   1   5  -6 279.760 26.6848   1
   1   7  -4 221.589 31.1602  -2
  -1  -5   6 221.589 31.1602   1
   0   5  -6 31.4143 6.04038   1
   0  -5   6 35.3415 12.0241   1
  -1   5  -6 9.82850 6.97116   1
   1  -5   6 -2.9989 5.72231   1
  -2   5  -6 88.1514 13.5291   1
   2  -5   6 98.4809 16.3464   1
   3  -4   7 222.357 34.9465  -2
  -3   5  -6 222.357 34.9465   1
  -3   4  -7 232.818 43.0974  -2
   3  -5   6 232.818 43.0974   1
   4  -3   8 258.674 37.1315  -2
  -4   5  -6 258.674 37.1315   1
  -4   3  -8 221.940 22.5719  -2
   4  -5   6 221.940 22.5719   1
   5  -2   9 11.2618 24.2040  -2
  -5   5  -6 11.2618 24.2040   1
  -5   2  -9 25.1739 10.7810  -2
   5  -5   6 25.1739 10.7810   1
   4   4  -6 40.8434 8.77490   1
  -4  -4   6 35.4510 24.4957   1
  -3  -9   1 49.1333 12.0875  -2
   3   4  -6 49.1333 12.0875   1
  -2  -8   2 469.354 17.8427  -2
   2   4  -6 469.354 17.8427   1
   2   8  -2 481.570 24.6144  -2
  -2  -4   6 481.570 24.6144   1
  -1  -7   3 39.3584 15.5218  -2
   1   4  -6 39.3584 15.5218   1
   1   7  -3 41.7951 19.5624  -2
  -1  -4   6 41.7951 19.5624   1
   0   4  -6 -0.7733 2.99750   1
   0  -4   6 8.81048 6.80660   1
  -1   4  -6 212.765 18.5116   1
   1  -4   6 200.949 19.3360   1
  -2   4  -6 11.9011 6.71461   1
   2  -4   6 6.09482 7.43852   1
  -3   4  -6 234.474 34.7710   1
   3  -4   6 201.232 20.6182   1
   4  -3   7 107.074 29.5936  -2
  -4   4  -6 107.074 29.5936   1
  -4   3  -7 178.348 20.1294  -2
   4  -4   6 178.348 20.1294   1
   5  -2   8 159.666 29.2966  -2
  -5   4  -6 159.666 29.2966   1
  -5   2  -8 173.350 14.5713  -2
   5  -4   6 173.350 14.5713   1
   6  -1   9 39.5056 28.8967  -2
  -6   4  -6 39.5056 28.8967   1
  -6   1  -9 33.7864 17.1052  -2
   6  -4   6 33.7864 17.1052   1
   4   3  -6 5.97859 5.50440   1
  -4  -3   6 15.4461 19.9888   1
   3   3  -6 120.497 11.4064   1
  -2  -8   1 171.103 12.9854  -2
   2   3  -6 171.103 12.9854   1
  -1  -7   2 17.6011 8.71255  -2
   1   3  -6 17.6011 8.71255   1
   1   7  -2 26.9002 10.6770  -2
  -1  -3   6 26.9002 10.6770   1
   0   3  -6 377.314 12.0883   1
   0  -3   6 408.390 20.2134   1
  -1   3  -6 40.2946 9.10485   1
   1  -3   6 36.0275 9.09450   1
  -2   3  -6 45.3348 9.18608   1
   2  -3   6 55.4237 11.1129   1
  -3   3  -6 46.9328 10.5803   1
   3  -3   6 38.3706 10.1100   1
   4  -3   6 260.429 35.2826  -2
  -4   3  -6 260.429 35.2826   1
  -4   3  -6 241.975 21.7106  -2
   4  -3   6 241.975 21.7106   1
   5  -2   7 56.3266 20.9802  -2
  -5   3  -6 56.3266 20.9802   1
  -5   2  -7 43.5053 9.43537  -2
   5  -3   6 43.5053 9.43537   1
   6  -1   8 26.0270 28.5058  -2
  -6   3  -6 26.0270 28.5058   1
  -6   1  -8 13.0897 13.0383  -2
   6  -3   6 13.0897 13.0383   1
  -7   3  -6 62.8968 20.4026   1
   7  -3   6 108.455 17.2512   1
   5   2  -6 20.0691 7.03904   1
  -5  -2   6 27.6142 24.2539   1
   4   2  -6 29.6796 7.42641   1
  -4  -2   6 17.0101 18.0750   1
   3   2  -6 193.708 11.3340   1
  -2  -8   0 124.348 12.7791  -2
   2   2  -6 124.348 12.7791   1
   2   8   0 136.808 16.4155  -2
  -2  -2   6 136.808 16.4155   1
  -1  -7   1 137.925 11.8336  -2
   1   2  -6 137.925 11.8336   1
   1   7  -1 155.846 13.2941  -2
  -1  -2   6 155.846 13.2941   1
   0   2  -6 366.433 11.6137   1
   0  -2   6 345.752 17.6292   1
  -1   2  -6 937.276 21.8312   1
   1  -2   6 948.036 29.4689   1
  -2   2  -6 152.727 14.9010   1
   2  -2   6 142.965 15.0494   1
  -3   2  -6 35.6978 8.83635   1
   3  -2   6 13.1527 7.95074   1
   4  -3   5 136.370 28.0699  -2
  -4   2  -6 136.370 28.0699   1
  -4   3  -5 138.554 18.0900  -2
   4  -2   6 138.554 18.0900   1
   5  -2   6 11.2481 16.5383  -2
  -5   2  -6 11.2481 16.5383   1
  -5   2  -6 2.62865 7.67803  -2
   5  -2   6 2.62865 7.67803   1
   6  -1   7 697.891 47.9326  -2
  -6   2  -6 697.891 47.9326   1
  -6   1  -7 764.065 27.1346  -2
   6  -2   6 764.065 27.1346   1
  -7   2  -6 74.8389 23.0164   1
   7  -2   6 94.4563 15.2945   1
  -8   2  -6 21.1407 4.87096   1
   8  -2   6 -8.2128 8.53549   1
   5   1  -6 19.6257 7.55673   1
  -5  -1   6 10.5287 22.1433   1
   4   1  -6 31.0635 6.70331   1
  -4  -1   6 37.9328 21.1908   1
   3   1  -6 6.07718 4.21459   1
  -3  -1   6 -4.4282 6.13792   1
  -2  -8  -1 12.3843 9.67075  -2
   2   1  -6 12.3843 9.67075   1
   2   8   1 -0.0438 12.5639  -2
  -2  -1   6 -0.0438 12.5639   1
  -1  -7   0 94.5472 10.2555  -2
   1   1  -6 94.5472 10.2555   1
   1   7   0 108.775 11.2513  -2
  -1  -1   6 108.775 11.2513   1
   0   1  -6 698.720 21.9347   1
   0  -1   6 747.707 23.5017   1
  -1   1  -6 31.8487 5.80720   1
   1  -1   6 43.4215 8.96702   1
  -2   1  -6 45.9541 8.47383   1
   2  -1   6 41.6987 9.43029   1
   3  -4   3 60.3951 17.7683  -2
  -3   1  -6 60.3951 17.7683   1
   3  -1   6 12.6803 6.21785   1
   4  -3   4 22.7528 12.4094  -2
  -4   1  -6 22.7528 12.4094   1
  -4   3  -4 64.6403 14.0211  -2
   4  -1   6 64.6403 14.0211   1
   5  -2   5 299.643 16.3310  -2
  -5   1  -6 299.643 16.3310   1
  -5   2  -5 276.180 14.9623  -2
   5  -1   6 276.180 14.9623   1
   6  -1   6 1361.89 34.1299  -2
  -6   1  -6 1361.89 34.1299   1
  -6   1  -6 1475.11 35.5771  -2
   6  -1   6 1475.11 35.5771   1
  -7   1  -6 18.9767 5.82320   1
   7  -1   6 7.82988 6.99724   1
  -8   1  -6 60.3247 10.0073   1
   8  -1   6 100.993 15.9601   1
   5   0  -6 15.8272 5.58135   1
  -5   0   6 -6.6898 19.7873   1
   4   0  -6 22.1863 5.71346   1
  -4   0   6 28.2672 10.3871   1
   3   0  -6 13.5297 3.93128   1
  -3   0   6 13.8192 9.30231   1
  -2  -8  -2 28.3403 11.8476  -2
   2   0  -6 28.3403 11.8476   1
   2   8   2 36.9658 14.1368  -2
  -2   0   6 36.9658 14.1368   1
  -1  -7  -1 383.127 12.0314  -2
   1   0  -6 383.127 12.0314   1
   1   7   1 406.822 15.8068  -2
  -1   0   6 406.822 15.8068   1
   0   0  -6 136.513 12.3283   1
   0   0   6 170.885 13.9531   1
  -1   0  -6 1.62031 3.54635   1
   1   0   6 2.45413 5.59735   1
  -2   0  -6 334.313 10.7307   1
   2   0   6 335.776 17.5559   1
   3  -4   2 9.03538 16.7462  -2
  -3   0  -6 9.03538 16.7462   1
   3   0   6 5.35041 6.03159   1
   4  -3   3 116.977 16.3301  -2
  -4   0  -6 116.977 16.3301   1
   4   0   6 94.0082 9.41503   1
   5  -2   4 513.026 15.2335  -2
  -5   0  -6 513.026 15.2335   1
  -5   2  -4 523.922 19.5945  -2
   5   0   6 523.922 19.5945   1
   6  -1   5 227.950 17.3770  -2
  -6   0  -6 227.950 17.3770   1
  -6   1  -5 237.359 15.0870  -2
   6   0   6 237.359 15.0870   1
  -7   0  -6 40.1382 9.10880   1
  -7   0  -6 169.887 27.2845  -2
   7   0   6 169.887 27.2845   1
  -8   0  -6 78.9107 11.3628   1
   8   0   6 83.5017 14.3336   1
  -9   0  -6 19.6084 7.08261   1
   9   0   6 16.4042 10.5851   1
   5  -1  -6 65.2257 7.87315   1
  -5   1   6 56.7232 19.0741   1
   4  -1  -6 9.49464 4.96548   1
  -4   1   6 5.13574 7.46354   1
   3  -1  -6 33.8709 5.83985   1
  -3   1   6 44.0041 12.7733   1
  -2  -8  -3 618.737 35.8028  -2
   2  -1  -6 618.737 35.8028   1
  -2   1   6 301.854 22.6887   1
  -1  -7  -2 313.463 16.3404  -2
   1  -1  -6 313.463 16.3404   1
   1   7   2 300.182 13.0499  -2
  -1   1   6 300.182 13.0499   1
   0  -6  -1 91.0285 10.7683  -2
   0  -1  -6 91.0285 10.7683   1
   0   6   1 83.9970 16.8986  -2
   0   1   6 83.9970 16.8986   1
   1  -5   0 880.698 32.5241  -2
  -1  -1  -6 880.698 32.5241   1
   1   1   6 268.783 14.6597   1
  -2  -1  -6 500.013 12.1292   1
   2   1   6 486.285 20.0605   1
  -3  -1  -6 242.938 10.0737   1
   3   1   6 229.962 10.0729   1
   4  -3   2 428.767 24.9283  -2
  -4  -1  -6 428.767 24.9283   1
   4   1   6 269.643 12.2102   1
   5  -2   3 137.561 14.3745  -2
  -5  -1  -6 137.561 14.3745   1
  -5   2  -3 143.020 11.4325  -2
   5   1   6 143.020 11.4325   1
   6  -1   4 341.914 20.2435  -2
  -6  -1  -6 341.914 20.2435   1
  -6   1  -4 376.570 17.4145  -2
   6   1   6 376.570 17.4145   1
   7   0   5 99.4465 17.0701  -2
  -7  -1  -6 99.4465 17.0701   1
  -7   0  -5 117.102 14.8467  -2
   7   1   6 117.102 14.8467   1
  -8  -1  -6 80.0014 11.3819   1
   8   1   6 80.0674 13.0502   1
  -9  -1  -6 33.0014 8.39430   1
   9   1   6 24.7983 9.86087   1
   4  -2  -6 -3.9817 3.23944   1
  -4   2   6 -4.5667 8.54801   1
   3  -2  -6 218.293 16.2711   1
  -3   2   6 211.963 24.6683   1
   2  -2  -6 175.386 15.7113   1
  -2   2   6 187.935 21.0046   1
  -1  -7  -3 23.0176 6.81742  -2
   1  -2  -6 23.0176 6.81742   1
   1   7   3 16.3185 6.81869  -2
  -1   2   6 16.3185 6.81869   1
   0  -6  -2 24.5471 6.52080  -2
   0  -2  -6 24.5471 6.52080   1
   0   6   2 30.5940 9.16092  -2
   0   2   6 30.5940 9.16092   1
   1  -5  -1 115.513 16.5978  -2
  -1  -2  -6 115.513 16.5978   1
   1   2   6 106.739 11.7062   1
  -2  -2  -6 98.7282 4.22566   1
   2   2   6 99.1141 7.47519   1
  -3  -2  -6 487.906 12.0845   1
   3   2   6 483.810 14.7760   1
  -4  -2  -6 855.531 17.6381   1
   4   2   6 821.501 18.7289   1
   5  -2   2 72.6087 13.8263  -2
  -5  -2  -6 72.6087 13.8263   1
  -5   2  -2 69.9005 9.51744  -2
   5   2   6 69.9005 9.51744   1
   6  -1   3 -3.5730 10.3661  -2
  -6  -2  -6 -3.5730 10.3661   1
  -6   1  -3 1.83508 7.28314  -2
   6   2   6 1.83508 7.28314   1
   7   0   4 140.830 18.7467  -2
  -7  -2  -6 140.830 18.7467   1
  -7   0  -4 126.924 13.7345  -2
   7   2   6 126.924 13.7345   1
   8   2   6 191.822 14.3706   1
  -9  -2  -6 16.6710 10.8249   1
   9   2   6 5.07666 11.3188   1
   4  -3  -6 8.60017 6.91599   1
  -4   3   6 2.22615 8.77825   1
   3  -3  -6 138.393 13.0617   1
  -3   3   6 135.814 20.8878   1
   2  -3  -6 235.989 14.7710   1
  -2   3   6 251.066 28.0561   1
  -1  -7  -4 8.11610 7.34201  -2
   1  -3  -6 8.11610 7.34201   1
   1   7   4 11.4301 12.0864  -2
  -1   3   6 11.4301 12.0864   1
   0  -6  -3 172.279 8.73281  -2
   0  -3  -6 172.279 8.73281   1
   0   6   3 180.843 9.22783  -2
   0   3   6 180.843 9.22783   1
   1  -5  -2 267.392 19.8159  -2
  -1  -3  -6 267.392 19.8159   1
   1   3   6 4.71367 3.43348   1
  -2  -3  -6 15.4920 3.63002   1
   2   3   6 20.4344 4.72662   1
  -3  -3  -6 1225.45 18.8498   1
   3   3   6 1174.31 23.8829   1
  -4  -3  -6 285.164 9.64092   1
   4   3   6 281.955 13.6863   1
   5  -2   1 24.2906 13.6569  -2
  -5  -3  -6 24.2906 13.6569   1
  -5   2  -1 11.2794 11.3246  -2
   5   3   6 11.2794 11.3246   1
   6  -1   2 38.1008 9.07069  -2
  -6  -3  -6 38.1008 9.07069   1
  -6   1  -2 16.5563 8.41396  -2
   6   3   6 16.5563 8.41396   1
   7   0   3 191.031 21.2008  -2
  -7  -3  -6 191.031 21.2008   1
  -7   0  -3 167.558 13.6558  -2
   7   3   6 167.558 13.6558   1
   8   1   4 75.5801 30.5793  -2
  -8  -3  -6 75.5801 30.5793   1
   8   3   6 30.3585 7.10046   1
  -9  -3  -6 25.5964 9.79586   1
   9   3   6 29.2704 8.58378   1
   4  -4  -6 42.1912 8.95189   1
  -4   4   6 18.8912 12.5292   1
   3  -4  -6 182.695 14.8226   1
  -3   4   6 165.130 23.2720   1
   2  -4  -6 1.07612 4.79687   1
  -2   4   6 2.77478 3.11036   1
  -1  -7  -5 294.124 18.1588  -2
   1  -4  -6 294.124 18.1588   1
   1   7   5 298.470 12.4044  -2
  -1   4   6 298.470 12.4044   1
   0  -6  -4 521.972 13.6213  -2
   0  -4  -6 521.972 13.6213   1
   0   6   4 516.246 14.8162  -2
   0   4   6 516.246 14.8162   1
   1  -5  -3 120.606 9.42251  -2
  -1  -4  -6 120.606 9.42251   1
   1   4   6 13.1076 4.74649   1
  -2  -4  -6 103.729 8.05813   1
   2   4   6 121.765 10.4190   1
  -3  -4  -6 146.859 8.36182   1
   3   4   6 148.296 11.8471   1
  -4  -4  -6 12.3896 3.46701   1
   4   4   6 15.4378 4.52208   1
   5  -2   0 745.647 29.0751  -2
  -5  -4  -6 745.647 29.0751   1
  -5   2   0 708.179 44.2209  -2
   5   4   6 708.179 44.2209   1
   6  -1   1 146.099 15.3291  -2
  -6  -4  -6 146.099 15.3291   1
  -6   1  -1 152.281 13.9464  -2
   6   4   6 152.281 13.9464   1
   7   0   2 70.5646 18.1137  -2
  -7  -4  -6 70.5646 18.1137   1
  -7   0  -2 43.1597 12.9557  -2
   7   4   6 43.1597 12.9557   1
   8   1   3 74.9259 30.6976  -2
  -8  -4  -6 74.9259 30.6976   1
   8   4   6 3.67757 8.10954   1
  -9  -4  -6 84.4481 14.8062   1
   9   4   6 87.1315 18.2019   1
   3  -5  -6 7.43088 7.78854   1
  -3   5   6 -4.5136 7.94039   1
   2  -5  -6 4.12984 5.20479   1
  -2   5   6 -5.8754 3.83236   1
  -1  -7  -6 471.821 22.2038  -2
   1  -5  -6 471.821 22.2038   1
   1   7   6 464.060 16.9329  -2
  -1   5   6 464.060 16.9329   1
   0  -6  -5 707.168 17.5485  -2
   0  -5  -6 707.168 17.5485   1
   0   6   5 715.520 18.4584  -2
   0   5   6 715.520 18.4584   1
   1  -5  -4 10.5417 8.42949  -2
  -1  -5  -6 10.5417 8.42949   1
   1   5   6 7.63520 4.43249   1
   2  -4  -3 34.0905 17.7895  -2
  -2  -5  -6 34.0905 17.7895   1
   2   5   6 2.55133 4.27854   1
  -3  -5  -6 25.0684 4.54289   1
   3   5   6 23.4291 5.76703   1
  -4  -5  -6 76.1963 8.74816   1
   4   5   6 77.6424 9.12478   1
   5  -2  -1 571.022 20.8121  -2
  -5  -5  -6 571.022 20.8121   1
   5   5   6 128.405 11.8939   1
   6  -1   0 494.677 25.9578  -2
  -6  -5  -6 494.677 25.9578   1
  -6   1   0 579.882 20.0490  -2
   6   5   6 579.882 20.0490   1
   7   0   1 121.657 18.0978  -2
  -7  -5  -6 121.657 18.0978   1
  -7   0  -1 158.205 28.7390  -2
   7   5   6 158.205 28.7390   1
   8   1   2 23.6820 28.6530  -2
  -8  -5  -6 23.6820 28.6530   1
   8   5   6 -4.0248 6.96557   1
  -9  -5  -6 11.2007 9.80204   1
   9   5   6 10.3812 9.55620   1
   3  -6  -6 5.93446 7.42329   1
  -3   6   6 -1.3838 4.94589   1
   2  -6  -6 35.1971 10.0453   1
  -2   6   6 28.8450 6.28449   1
  -1  -7  -7 527.809 24.3592  -2
   1  -6  -6 527.809 24.3592   1
   1   7   7 497.165 21.1640  -2
  -1   6   6 497.165 21.1640   1
   0  -6  -6 146.870 13.0980  -2
   0  -6  -6 146.870 13.0980   1
   0   6   6 99.6985 9.39353  -2
   0   6   6 99.6985 9.39353   1
   1  -5  -5 381.383 13.6085  -2
  -1  -6  -6 381.383 13.6085   1
  -1   5   5 402.757 22.2558  -2
   1   6   6 402.757 22.2558   1
   2  -4  -4 202.533 22.4680  -2
  -2  -6  -6 202.533 22.4680   1
   2   6   6 82.1939 9.36768   1
  -3  -6  -6 4.75306 5.09020   1
   3   6   6 6.15958 4.39870   1
  -4  -6  -6 2.54067 4.34493   1
   4   6   6 8.31495 5.09615   1
   5  -2  -2 1055.10 48.0241  -2
  -5  -6  -6 1055.10 48.0241   1
   5   6   6 676.905 21.0634   1
   6  -1  -1 141.170 18.4998  -2
  -6  -6  -6 141.170 18.4998   1
  -6   1   1 145.432 17.5457  -2
   6   6   6 145.432 17.5457   1
   7   0   0 105.490 17.7634  -2
  -7  -6  -6 105.490 17.7634   1
  -7   0   0 104.364 17.1400  -2
   7   6   6 104.364 17.1400   1
   8   1   1 259.394 35.6981  -2
  -8  -6  -6 259.394 35.6981   1
   8   6   6 150.376 22.8942   1
  -9  -6  -6 5.48882 8.87867   1
   9   6   6 -0.2138 9.42822   1
   2  -7  -6 20.4123 8.62381   1
  -2   7   6 0.60528 6.16249   1
  -1  -7  -8 46.7867 18.6129  -2
   1  -7  -6 46.7867 18.6129   1
  -1   7   6 -4.0731 5.71838   1
   0  -6  -7 142.324 13.6825  -2
   0  -7  -6 142.324 13.6825   1
   0   6   7 125.264 11.9991  -2
   0   7   6 125.264 11.9991   1
   1  -5  -6 510.396 19.9179  -2
  -1  -7  -6 510.396 19.9179   1
  -1   5   6 513.780 20.3070  -2
   1   7   6 513.780 20.3070   1
   2  -4  -5 140.354 21.2188  -2
  -2  -7  -6 140.354 21.2188   1
   2   7   6 18.1553 6.56298   1
  -3  -7  -6 18.4654 5.87882   1
   3   7   6 11.6650 5.03189   1
  -4  -7  -6 18.3792 9.51811   1
   4   7   6 34.8894 6.63716   1
   5  -2  -3 96.8770 27.6291  -2
  -5  -7  -6 96.8770 27.6291   1
   5   7   6 148.392 18.7492   1
   6  -1  -2 180.661 21.2552  -2
  -6  -7  -6 180.661 21.2552   1
  -6   1   2 185.994 20.2416  -2
   6   7   6 185.994 20.2416   1
   7   0  -1 597.657 30.3543  -2
  -7  -7  -6 597.657 30.3543   1
  -7   0   1 557.791 23.6587  -2
   7   7   6 557.791 23.6587   1
   8   1   0 91.3542 30.0088  -2
  -8  -7  -6 91.3542 30.0088   1
   8   7   6 15.2185 8.31446   1
  -9  -7  -6 23.1670 10.5616   1
   9   7   6 2.71024 11.1651   1
   1  -8  -6 6.65962 7.02606   1
  -1   8   6 -3.9849 5.45089   1
   0  -6  -8 183.510 15.8707  -2
   0  -8  -6 183.510 15.8707   1
   0   6   8 193.960 14.8397  -2
   0   8   6 193.960 14.8397   1
   1  -5  -7 56.5319 11.0944  -2
  -1  -8  -6 56.5319 11.0944   1
  -1   5   7 47.0023 12.3547  -2
   1   8   6 47.0023 12.3547   1
  -2  -8  -6 -4.4212 4.75344   1
   2   8   6 15.4913 6.27503   1
  -3  -8  -6 23.2907 8.65393   1
   3   8   6 12.4886 5.80164   1
  -4  -8  -6 63.2296 12.4145   1
   4   8   6 73.3159 13.5186   1
  -5  -8  -6 15.6729 10.7437   1
   5   8   6 21.5513 10.2423   1
   6  -1  -3 152.797 21.1728  -2
  -6  -8  -6 152.797 21.1728   1
  -6   1   3 174.253 22.2816  -2
   6   8   6 174.253 22.2816   1
   7   0  -2 59.1342 14.8804  -2
  -7  -8  -6 59.1342 14.8804   1
  -7   0   2 79.8800 11.4205  -2
   7   8   6 79.8800 11.4205   1
   8   1  -1 99.6373 20.7191  -2
  -8  -8  -6 99.6373 20.7191   1
  -8  -1   1 89.8020 25.5997  -2
   8   8   6 89.8020 25.5997   1
   0  -9  -6 9.81008 8.68791   1
   0   9   6 -3.6425 6.18027   1
   1  -5  -8 28.9745 14.7648  -2
  -1  -9  -6 28.9745 14.7648   1
  -1   5   8 27.1110 12.1263  -2
   1   9   6 27.1110 12.1263   1
   2  -4  -7 68.1251 17.6141  -2
  -2  -9  -6 68.1251 17.6141   1
   2   9   6 45.4679 8.73432   1
  -3  -9  -6 275.852 37.4764   1
   3   9   6 330.744 25.6598   1
  -4  -9  -6 19.3558 9.38417   1
   4   9   6 12.2336 8.91734   1
  -5  -9  -6 1.16747 8.91999   1
   5   9   6 9.93833 8.60361   1
   6  -1  -4 53.1333 18.7633  -2
  -6  -9  -6 53.1333 18.7633   1
  -6   1   4 54.1189 13.9614  -2
   6   9   6 54.1189 13.9614   1
   7   0  -3 44.7059 12.4639  -2
  -7  -9  -6 44.7059 12.4639   1
  -7   0   3 59.1969 10.9834  -2
   7   9   6 59.1969 10.9834   1
   2  -4  -8 113.910 21.1592  -2
  -2 -10  -6 113.910 21.1592   1
   2  10   6 79.5295 16.6340   1
  -3 -10  -6 130.171 28.0020   1
   3  10   6 61.6330 14.5534   1
  -4 -10  -6 5.80522 13.8688   1
   4  10   6 -9.5672 8.01160   1
  -5 -10  -6 30.5755 11.9502   1
   5  10   6 49.8240 10.3650   1
  -6 -10  -6 8.26738 8.87603   1
   6  10   6 5.65684 7.07907   1
  -1  -8   5 48.2103 23.6225  -2
   1   6  -7 48.2103 23.6225   1
   1   8  -5 85.3964 29.6351  -2
  -1  -6   7 85.3964 29.6351   1
   0   6  -7 -1.5876 8.91422   1
   0  -6   7 12.3642 9.87974   1
  -1   6  -7 15.6559 12.0737   1
   1  -6   7 11.8862 13.9975   1
  -2   6  -7 53.8037 11.4654   1
   2  -6   7 33.1923 19.1014   1
   3  -5   8 59.1479 18.1692  -2
  -3   6  -7 59.1479 18.1692   1
  -3   5  -8 112.668 21.2259  -2
   3  -6   7 112.668 21.2259   1
  -2  -9   3 184.559 13.6778  -2
   2   5  -7 184.559 13.6778   1
   2   9  -3 181.247 33.6324  -2
  -2  -5   7 181.247 33.6324   1
  -1  -8   4 260.583 29.3334  -2
   1   5  -7 260.583 29.3334   1
   1   8  -4 254.856 33.9692  -2
  -1  -5   7 254.856 33.9692   1
   0   5  -7 17.2371 10.1966   1
   0  -5   7 9.14903 9.33155   1
  -1   5  -7 -6.0887 9.52021   1
   1  -5   7 6.24310 10.8234   1
  -2   5  -7 39.7746 10.3512   1
   2  -5   7 43.8253 12.3241   1
   3  -5   7 -5.8707 14.6098  -2
  -3   5  -7 -5.8707 14.6098   1
  -3   5  -7 34.6326 18.0531  -2
   3  -5   7 34.6326 18.0531   1
   4  -4   8 217.731 34.7742  -2
  -4   5  -7 217.731 34.7742   1
  -4   4  -8 236.424 23.4146  -2
   4  -5   7 236.424 23.4146   1
   5  -3   9 57.8059 31.3322  -2
  -5   5  -7 57.8059 31.3322   1
  -5   3  -9 51.2449 16.2905  -2
   5  -5   7 51.2449 16.2905   1
  -3 -10   1 145.837 25.4280  -2
   3   4  -7 145.837 25.4280   1
  -2  -9   2 302.257 15.9009  -2
   2   4  -7 302.257 15.9009   1
   2   9  -2 232.560 33.5994  -2
  -2  -4   7 232.560 33.5994   1
  -1  -8   3 137.002 22.2259  -2
   1   4  -7 137.002 22.2259   1
   1   8  -3 86.3513 23.5532  -2
  -1  -4   7 86.3513 23.5532   1
   0   4  -7 10.8781 6.04254   1
   0  -4   7 6.80849 12.1405   1
  -1   4  -7 1.98118 5.25267   1
   1  -4   7 1.78268 7.52606   1
  -2   4  -7 49.3361 10.9381   1
   2  -4   7 37.7730 11.0370   1
   3  -5   6 191.127 32.9725  -2
  -3   4  -7 191.127 32.9725   1
   3  -4   7 167.738 20.4757   1
   4  -4   7 615.769 29.5557  -2
  -4   4  -7 615.769 29.5557   1
  -4   4  -7 616.987 32.3532  -2
   4  -4   7 616.987 32.3532   1
   5  -3   8 22.4644 25.5293  -2
  -5   4  -7 22.4644 25.5293   1
  -5   3  -8 22.8287 11.5263  -2
   5  -4   7 22.8287 11.5263   1
  -6   4  -7 -6.1659 12.5227   1
  -6   2  -9 13.8065 16.0905  -2
   6  -4   7 13.8065 16.0905   1
  -3 -10   0 136.854 25.3951  -2
   3   3  -7 136.854 25.3951   1
  -2  -9   1 193.322 13.1187  -2
   2   3  -7 193.322 13.1187   1
   2   9  -1 209.484 31.7083  -2
  -2  -3   7 209.484 31.7083   1
  -1  -8   2 62.6840 11.4277  -2
   1   3  -7 62.6840 11.4277   1
   1   8  -2 75.7542 22.5964  -2
  -1  -3   7 75.7542 22.5964   1
   0   3  -7 25.6190 8.04228   1
   0  -3   7 28.1334 9.10136   1
  -1   3  -7 5.87778 5.17021   1
   1  -3   7 5.43371 7.83578   1
  -2   3  -7 28.3243 9.02496   1
   2  -3   7 39.0288 10.7614   1
  -3   3  -7 9.35069 6.61289   1
   3  -3   7 11.0762 8.02215   1
   4  -4   6 136.771 16.3543  -2
  -4   3  -7 136.771 16.3543   1
  -4   4  -6 175.836 20.3747  -2
   4  -3   7 175.836 20.3747   1
   5  -3   7 21.0013 21.4974  -2
  -5   3  -7 21.0013 21.4974   1
  -5   3  -7 11.7300 10.1311  -2
   5  -3   7 11.7300 10.1311   1
   6  -2   8 69.7159 32.0208  -2
  -6   3  -7 69.7159 32.0208   1
  -6   2  -8 83.5409 17.0687  -2
   6  -3   7 83.5409 17.0687   1
  -7   3  -7 4.43697 13.0545   1
   7  -3   7 36.1935 11.2134   1
   4   2  -7 162.292 14.6698   1
  -4  -2   7 151.056 30.9681   1
   3   2  -7 14.5603 5.52529   1
  -2  -9   0 4.50362 9.22178  -2
   2   2  -7 4.50362 9.22178   1
  -1  -8   1 105.514 11.7819  -2
   1   2  -7 105.514 11.7819   1
   1   8  -1 124.591 13.7222  -2
  -1  -2   7 124.591 13.7222   1
   0   2  -7 209.865 15.2465   1
   0  -2   7 199.080 17.1207   1
  -1   2  -7 -2.0608 4.20064   1
   1  -2   7 4.83110 6.65967   1
  -2   2  -7 14.9333 7.00301   1
   2  -2   7 9.42980 7.55511   1
  -3   2  -7 33.0082 8.89189   1
   3  -2   7 35.6539 10.7130   1
   4  -4   5 38.7781 11.9746  -2
  -4   2  -7 38.7781 11.9746   1
  -4   4  -5 21.5539 14.8132  -2
   4  -2   7 21.5539 14.8132   1
   5  -3   6 51.5031 10.8332  -2
  -5   2  -7 51.5031 10.8332   1
  -5   3  -6 44.3912 10.3251  -2
   5  -2   7 44.3912 10.3251   1
   6  -2   7 145.306 32.2176  -2
  -6   2  -7 145.306 32.2176   1
  -6   2  -7 123.546 15.6082  -2
   6  -2   7 123.546 15.6082   1
  -7   2  -7 2.67212 13.0219   1
   7  -2   7 2.58885 7.71991   1
   4   1  -7 110.111 10.2960   1
  -4  -1   7 111.045 28.9775   1
   3   1  -7 -0.1139 4.21190   1
  -2  -9  -1 62.3154 11.5235  -2
   2   1  -7 62.3154 11.5235   1
   2   9   1 55.8783 16.2290  -2
  -2  -1   7 55.8783 16.2290   1
  -1  -8   0 230.547 15.6477  -2
   1   1  -7 230.547 15.6477   1
   1   8   0 238.075 14.9760  -2
  -1  -1   7 238.075 14.9760   1
   0   1  -7 281.014 16.7089   1
   0  -1   7 242.173 17.7472   1
  -1   1  -7 280.650 15.5404   1
   1  -1   7 316.506 18.1293   1
  -2   1  -7 474.373 16.8978   1
   2  -1   7 517.833 24.0198   1
  -3   1  -7 68.2823 10.7130   1
   3  -1   7 85.3174 13.9321   1
   4  -4   4 37.6910 8.85653  -2
  -4   1  -7 37.6910 8.85653   1
  -4   4  -4 4.69119 10.5047  -2
   4  -1   7 4.69119 10.5047   1
   5  -3   5 167.849 10.7061  -2
  -5   1  -7 167.849 10.7061   1
  -5   3  -5 160.857 13.2585  -2
   5  -1   7 160.857 13.2585   1
   6  -2   6 823.713 55.0421  -2
  -6   1  -7 823.713 55.0421   1
  -6   2  -6 780.816 27.6489  -2
   6  -1   7 780.816 27.6489   1
  -7   1  -7 18.5949 13.6673   1
   7  -1   7 16.1349 7.38571   1
  -8   1  -7 -8.2894 12.5463   1
   8  -1   7 10.9908 8.61218   1
   4   0  -7 41.6339 6.36676   1
  -4   0   7 5.70469 19.7857   1
   3   0  -7 7.88225 4.68443   1
  -3   0   7 12.3378 8.63989   1
  -2  -9  -2 24.7333 11.0988  -2
   2   0  -7 24.7333 11.0988   1
   2   9   2 31.1484 14.2556  -2
  -2   0   7 31.1484 14.2556   1
  -1  -8  -1 263.496 15.8945  -2
   1   0  -7 263.496 15.8945   1
   1   8   1 256.485 22.2694  -2
  -1   0   7 256.485 22.2694   1
   0   0  -7 44.8620 8.71055   1
   0   0   7 36.2123 7.96313   1
  -1   0  -7 764.896 24.3507   1
   1   0   7 765.762 26.2586   1
  -2   0  -7 76.5106 6.91750   1
   2   0   7 78.7870 11.6538   1
   3  -5   2 11.1750 19.1773  -2
  -3   0  -7 11.1750 19.1773   1
   3   0   7 9.02780 7.74397   1
   4  -4   3 23.5952 13.8677  -2
  -4   0  -7 23.5952 13.8677   1
  -4   4  -3 -26.920 22.8087  -2
   4   0   7 -26.920 22.8087   1
   5  -3   4 361.346 14.3915  -2
  -5   0  -7 361.346 14.3915   1
  -5   3  -4 389.361 17.6959  -2
   5   0   7 389.361 17.6959   1
   6  -2   5 84.3896 13.7802  -2
  -6   0  -7 84.3896 13.7802   1
  -6   2  -5 72.8735 11.8108  -2
   6   0   7 72.8735 11.8108   1
  -7   0  -7 -2.0541 9.58915   1
   7   0   7 10.9166 6.92217   1
  -8   0  -7 11.7927 13.1823   1
   8   0   7 15.2581 9.90098   1
   4  -1  -7 -1.4432 4.20867   1
  -4   1   7 -15.014 7.16880   1
   3  -1  -7 26.3458 9.04656   1
  -3   1   7 2.96287 8.69031   1
  -2  -9  -3 193.428 17.4342  -2
   2  -1  -7 193.428 17.4342   1
   2   9   3 169.556 21.4771  -2
  -2   1   7 169.556 21.4771   1
  -1  -8  -2 267.768 16.8063  -2
   1  -1  -7 267.768 16.8063   1
   1   8   2 308.068 23.7652  -2
  -1   1   7 308.068 23.7652   1
   0  -7  -1 80.0072 11.8952  -2
   0  -1  -7 80.0072 11.8952   1
   0   7   1 78.9363 17.3771  -2
   0   1   7 78.9363 17.3771   1
  -1  -1  -7 205.104 16.0130   1
   1   1   7 206.389 17.4513   1
  -2  -1  -7 7.20958 3.39610   1
   2   1   7 5.93616 5.86188   1
  -3  -1  -7 339.450 11.1915   1
   3   1   7 326.134 18.4912   1
   4  -4   2 417.865 20.9541  -2
  -4  -1  -7 417.865 20.9541   1
   4   1   7 243.486 20.8845   1
   5  -3   3 138.995 14.7406  -2
  -5  -1  -7 138.995 14.7406   1
  -5   3  -3 159.672 17.2280  -2
   5   1   7 159.672 17.2280   1
   6  -2   4 80.6800 14.9424  -2
  -6  -1  -7 80.6800 14.9424   1
  -6   2  -4 90.8163 17.1711  -2
   6   1   7 90.8163 17.1711   1
   7  -1   5 303.484 26.2821  -2
  -7  -1  -7 303.484 26.2821   1
  -7   1  -5 283.185 41.5432  -2
   7   1   7 283.185 41.5432   1
  -8  -1  -7 15.8750 6.17700   1
   8   1   7 6.72931 10.7482   1
  -9  -1  -7 24.5095 7.20029   1
   9   1   7 23.1490 15.5887   1
   4  -2  -7 36.2018 9.73434   1
  -4   2   7 15.4951 10.3905   1
   3  -2  -7 76.1704 12.2695   1
  -3   2   7 108.171 19.3001   1
  -2  -9  -4 172.965 26.6168  -2
   2  -2  -7 172.965 26.6168   1
  -2   2   7 62.3641 14.1860   1
  -1  -8  -3 11.8407 8.14897  -2
   1  -2  -7 11.8407 8.14897   1
   1   8   3 -1.6137 9.69339  -2
  -1   2   7 -1.6137 9.69339   1
   0  -7  -2 22.4809 10.4348  -2
   0  -2  -7 22.4809 10.4348   1
   0   7   2 23.2056 10.6864  -2
   0   2   7 23.2056 10.6864   1
   1  -6  -1 447.124 27.0619  -2
  -1  -2  -7 447.124 27.0619   1
   1   2   7 116.591 13.6055   1
  -2  -2  -7 15.3515 3.33436   1
   2   2   7 8.41167 5.88319   1
  -3  -2  -7 276.580 10.3192   1
   3   2   7 269.296 17.8547   1
   4  -4   1 609.104 30.8849  -2
  -4  -2  -7 609.104 30.8849   1
   4   2   7 313.376 20.2853   1
   5  -3   2 95.8873 15.0935  -2
  -5  -2  -7 95.8873 15.0935   1
  -5   3  -2 117.437 15.7065  -2
   5   2   7 117.437 15.7065   1
   6  -2   3 217.768 17.1839  -2
  -6  -2  -7 217.768 17.1839   1
  -6   2  -3 165.926 17.5920  -2
   6   2   7 165.926 17.5920   1
   7  -1   4 90.2338 19.1978  -2
  -7  -2  -7 90.2338 19.1978   1
  -7   1  -4 56.7813 18.2173  -2
   7   2   7 56.7813 18.2173   1
  -8  -2  -7 -1.5316 9.73460   1
   8   2   7 -4.1156 8.06237   1
  -9  -2  -7 94.8197 24.4220   1
   9   2   7 113.477 21.8846   1
   3  -3  -7 153.303 17.4809   1
  -3   3   7 211.876 26.6997   1
   2  -3  -7 12.7808 7.84506   1
  -2   3   7 15.5753 10.4275   1
  -1  -8  -4 89.0620 12.4204  -2
   1  -3  -7 89.0620 12.4204   1
   1   8   4 110.044 17.3011  -2
  -1   3   7 110.044 17.3011   1
   0  -7  -3 12.0033 10.6389  -2
   0  -3  -7 12.0033 10.6389   1
   0   7   3 29.0966 10.2736  -2
   0   3   7 29.0966 10.2736   1
   1  -6  -2 0.56898 16.5421  -2
  -1  -3  -7 0.56898 16.5421   1
   1   3   7 19.4975 6.67625   1
  -2  -3  -7 1.05454 3.04546   1
   2   3   7 0.23815 4.71147   1
  -3  -3  -7 554.467 14.2584   1
   3   3   7 543.928 23.1214   1
  -4  -3  -7 32.7383 4.91029   1
   4   3   7 27.8808 6.17605   1
   5  -3   1 171.727 17.7624  -2
  -5  -3  -7 171.727 17.7624   1
  -5   3  -1 159.197 17.4809  -2
   5   3   7 159.197 17.4809   1
   6  -2   2 59.5888 13.2203  -2
  -6  -3  -7 59.5888 13.2203   1
  -6   2  -2 70.0834 12.2588  -2
   6   3   7 70.0834 12.2588   1
   7  -1   3 111.781 19.5985  -2
  -7  -3  -7 111.781 19.5985   1
  -7   1  -3 83.8892 17.4571  -2
   7   3   7 83.8892 17.4571   1
   8   0   4 171.399 32.3096  -2
  -8  -3  -7 171.399 32.3096   1
   8   3   7 140.517 21.4720   1
  -9  -3  -7 34.6424 10.0898   1
   9   3   7 42.7772 14.2906   1
   3  -4  -7 8.19078 8.75104   1
  -3   4   7 -5.4588 8.45035   1
   2  -4  -7 36.7848 9.66173   1
  -2   4   7 67.1641 14.9138   1
  -1  -8  -5 781.759 41.0822  -2
   1  -4  -7 781.759 41.0822   1
   1   8   5 665.335 35.6243  -2
  -1   4   7 665.335 35.6243   1
   0  -7  -4 12.3944 8.19261  -2
   0  -4  -7 12.3944 8.19261   1
   0   7   4 20.4116 9.76482  -2
   0   4   7 20.4116 9.76482   1
   1  -6  -3 249.820 22.5388  -2
  -1  -4  -7 249.820 22.5388   1
   1   4   7 36.9443 8.38370   1
  -2  -4  -7 64.5796 6.94167   1
   2   4   7 61.5064 10.2777   1
  -3  -4  -7 100.473 7.92196   1
   3   4   7 92.3697 9.68536   1
  -4  -4  -7 3.51414 3.32232   1
   4   4   7 3.55761 3.84362   1
   5  -3   0 474.836 17.6713  -2
  -5  -4  -7 474.836 17.6713   1
  -5   3   0 530.711 20.0891  -2
   5   4   7 530.711 20.0891   1
   6  -2   1 97.8953 14.5247  -2
  -6  -4  -7 97.8953 14.5247   1
  -6   2  -1 113.328 13.8058  -2
   6   4   7 113.328 13.8058   1
   7  -1   2 109.176 19.1327  -2
  -7  -4  -7 109.176 19.1327   1
  -7   1  -2 108.195 17.6182  -2
   7   4   7 108.195 17.6182   1
   8   0   3 297.800 36.5039  -2
  -8  -4  -7 297.800 36.5039   1
   8   4   7 120.374 26.8342   1
  -9  -4  -7 48.7306 10.9970   1
   9   4   7 67.0978 16.3531   1
   2  -5  -7 88.3719 11.2172   1
  -2   5   7 87.8550 17.8003   1
  -1  -8  -6 20.6833 17.9619  -2
   1  -5  -7 20.6833 17.9619   1
   1   8   6 63.0015 18.3311  -2
  -1   5   7 63.0015 18.3311   1
   0  -7  -5 121.918 10.0217  -2
   0  -5  -7 121.918 10.0217   1
   0   7   5 99.3704 12.6832  -2
   0   5   7 99.3704 12.6832   1
   1  -6  -4 64.4514 11.3189  -2
  -1  -5  -7 64.4514 11.3189   1
   1   5   7 50.7456 9.46158   1
  -2  -5  -7 24.1436 4.06043   1
   2   5   7 33.2232 6.85145   1
  -3  -5  -7 -0.9232 3.47471   1
   3   5   7 -3.9950 3.59102   1
  -4  -5  -7 161.912 12.3468   1
   4   5   7 182.023 14.1795   1
   5  -3  -1 64.9879 11.1084  -2
  -5  -5  -7 64.9879 11.1084   1
  -5   3   1 51.4422 26.9196  -2
   5   5   7 51.4422 26.9196   1
   6  -2   0 28.6662 7.43723  -2
  -6  -5  -7 28.6662 7.43723   1
  -6   2   0 39.4669 8.20838  -2
   6   5   7 39.4669 8.20838   1
   7  -1   1 100.652 19.5865  -2
  -7  -5  -7 100.652 19.5865   1
  -7   1  -1 172.942 31.6870  -2
   7   5   7 172.942 31.6870   1
   8   0   2 273.837 37.7310  -2
  -8  -5  -7 273.837 37.7310   1
   8   5   7 102.522 24.8100   1
  -9  -5  -7 7.87436 10.1729   1
   9   5   7 13.9495 10.2596   1
   2  -6  -7 4.36098 7.41509   1
  -2   6   7 -6.4112 8.39898   1
  -1  -8  -7 84.8031 15.0533  -2
   1  -6  -7 84.8031 15.0533   1
   1   8   7 47.8349 18.9513  -2
  -1   6   7 47.8349 18.9513   1
   0  -7  -6 148.241 13.4612  -2
   0  -6  -7 148.241 13.4612   1
   0   7   6 127.267 14.1512  -2
   0   6   7 127.267 14.1512   1
   1  -6  -5 467.076 16.1479  -2
  -1  -6  -7 467.076 16.1479   1
   1   6   7 310.496 15.1002   1
   2  -5  -4 179.753 22.3905  -2
  -2  -6  -7 179.753 22.3905   1
   2   6   7 32.7330 7.20044   1
  -3  -6  -7 131.470 11.2333   1
   3   6   7 118.410 11.9251   1
  -4  -6  -7 20.7442 5.97317   1
   4   6   7 22.0349 6.42186   1
   5  -3  -2 125.828 24.7084  -2
  -5  -6  -7 125.828 24.7084   1
   5   6   7 49.4633 8.54160   1
   6  -2  -1 55.8897 13.6376  -2
  -6  -6  -7 55.8897 13.6376   1
  -6   2   1 79.4221 15.7020  -2
   6   6   7 79.4221 15.7020   1
   7  -1   0 108.994 19.8319  -2
  -7  -6  -7 108.994 19.8319   1
  -7   1   0 166.463 20.7804  -2
   7   6   7 166.463 20.7804   1
   8   0   1 302.934 40.6594  -2
  -8  -6  -7 302.934 40.6594   1
   8   6   7 7.02711 16.1341   1
  -9  -6  -7 3.00001 9.37046   1
   9   6   7 11.4145 9.47302   1
  -1  -8  -8 38.8170 14.5575  -2
   1  -7  -7 38.8170 14.5575   1
   1   8   8 6.88419 20.6206  -2
  -1   7   7 6.88419 20.6206   1
   0  -7  -7 288.924 19.1688  -2
   0  -7  -7 288.924 19.1688   1
   0   7   7 277.859 15.0348  -2
   0   7   7 277.859 15.0348   1
   1  -6  -6 533.538 21.6337  -2
  -1  -7  -7 533.538 21.6337   1
  -1   6   6 573.667 21.9509  -2
   1   7   7 573.667 21.9509   1
   2  -5  -5 122.879 22.0617  -2
  -2  -7  -7 122.879 22.0617   1
   2   7   7 64.7019 9.24839   1
  -3  -7  -7 95.5638 10.1108   1
   3   7   7 94.1414 10.9533   1
  -4  -7  -7 34.1567 11.0072   1
   4   7   7 49.4869 8.88977   1
   5  -3  -3 60.7149 23.7562  -2
  -5  -7  -7 60.7149 23.7562   1
   5   7   7 16.8338 9.21516   1
   6  -2  -2 121.962 19.8827  -2
  -6  -7  -7 121.962 19.8827   1
  -6   2   2 128.996 17.9669  -2
   6   7   7 128.996 17.9669   1
   7  -1  -1 103.536 19.6581  -2
  -7  -7  -7 103.536 19.6581   1
  -7   1   1 100.089 18.2937  -2
   7   7   7 100.089 18.2937   1
   8   0   0 83.0573 32.2184  -2
  -8  -7  -7 83.0573 32.2184   1
   8   7   7 26.7776 8.36514   1
   0  -7  -8 176.447 15.9465  -2
   0  -8  -7 176.447 15.9465   1
   0   7   8 158.301 13.9966  -2
   0   8   7 158.301 13.9966   1
   1  -6  -7 38.4568 12.2948  -2
  -1  -8  -7 38.4568 12.2948   1
  -1   6   7 23.6738 12.5362  -2
   1   8   7 23.6738 12.5362   1
  -2  -8  -7 43.0985 7.37027   1
   2   8   7 76.7227 11.2257   1
  -3  -8  -7 171.105 18.6721   1
   3   8   7 184.189 15.7697   1
  -4  -8  -7 18.0295 9.49045   1
   4   8   7 38.8358 11.5643   1
   5  -3  -4 226.834 30.5331  -2
  -5  -8  -7 226.834 30.5331   1
   5   8   7 25.8288 9.92756   1
   6  -2  -3 182.397 21.0596  -2
  -6  -8  -7 182.397 21.0596   1
  -6   2   3 216.118 22.8565  -2
   6   8   7 216.118 22.8565   1
   7  -1  -2 28.1291 15.3128  -2
  -7  -8  -7 28.1291 15.3128   1
  -7   1   2 50.0424 15.7547  -2
   7   8   7 50.0424 15.7547   1
   8   0  -1 73.5198 22.2718  -2
  -8  -8  -7 73.5198 22.2718   1
   8   8   7 4.62251 6.51207   1
   1  -6  -8 -5.6092 15.1898  -2
  -1  -9  -7 -5.6092 15.1898   1
  -1   6   8 -22.330 12.2055  -2
   1   9   7 -22.330 12.2055   1
   2  -5  -7 264.443 21.9914  -2
  -2  -9  -7 264.443 21.9914   1
   2   9   7 177.631 15.4562   1
   3   9   7 95.4665 16.3638   1
  -4  -9  -7 0.11605 7.86768   1
   4   9   7 7.59328 10.1918   1
  -5  -9  -7 112.723 16.4989   1
   5   9   7 115.510 17.9758   1
   6  -2  -4 46.9667 18.9096  -2
  -6  -9  -7 46.9667 18.9096   1
  -6   2   4 52.2781 18.1283  -2
   6   9   7 52.2781 18.1283   1
   7  -1  -3 8.25123 13.0848  -2
  -7  -9  -7 8.25123 13.0848   1
  -7   1   3 26.3353 10.2868  -2
   7   9   7 26.3353 10.2868   1
   0   5  -8 10.1309 11.8897   1
   0  -5   8 14.3707 11.3137   1
  -1   5  -8 22.8858 11.0786   1
   1  -5   8 14.7347 14.6918   1
  -2   5  -8 17.2316 10.6128   1
   2  -5   8 13.4745 9.37692   1
   3  -6   7 18.6349 15.7696  -2
  -3   5  -8 18.6349 15.7696   1
  -3   6  -7 73.2142 21.5140  -2
   3  -5   8 73.2142 21.5140   1
  -1  -9   3 44.2654 19.5903  -2
   1   4  -8 44.2654 19.5903   1
   1   9  -3 0.27300 21.3702  -2
  -1  -4   8 0.27300 21.3702   1
   0   4  -8 242.172 29.4949   1
   0  -4   8 308.643 37.6784   1
  -1   4  -8 20.0890 7.29836   1
   1  -4   8 17.5402 9.24700   1
  -2   4  -8 37.4930 13.4800   1
   2  -4   8 26.1184 10.3855   1
   3  -6   6 135.457 19.9885  -2
  -3   4  -8 135.457 19.9885   1
  -3   6  -6 202.026 39.7107  -2
   3  -4   8 202.026 39.7107   1
   4  -5   7 187.825 18.7877  -2
  -4   4  -8 187.825 18.7877   1
  -4   5  -7 243.043 23.3734  -2
   4  -4   8 243.043 23.3734   1
   5  -4   8 87.8391 15.9659  -2
  -5   4  -8 87.8391 15.9659   1
  -5   4  -8 83.8829 15.6794  -2
   5  -4   8 83.8829 15.6794   1
  -2 -10   1 172.443 13.2996  -2
   2   3  -8 172.443 13.2996   1
   2  10  -1 172.378 29.7326  -2
  -2  -3   8 172.378 29.7326   1
  -1  -9   2 300.433 29.5468  -2
   1   3  -8 300.433 29.5468   1
   0   3  -8 35.0624 8.72546   1
   0  -3   8 31.8950 9.98494   1
  -1   3  -8 12.5543 7.06975   1
   1  -3   8 12.7859 7.82979   1
  -2   3  -8 86.7127 11.9278   1
   2  -3   8 104.727 16.5632   1
   3  -6   5 87.2909 31.7058  -2
  -3   3  -8 87.2909 31.7058   1
   3  -3   8 17.1414 9.00155   1
   4  -5   6 266.997 20.9649  -2
  -4   3  -8 266.997 20.9649   1
  -4   5  -6 266.075 23.4298  -2
   4  -3   8 266.075 23.4298   1
   5  -4   7 35.6737 12.8758  -2
  -5   3  -8 35.6737 12.8758   1
  -5   4  -7 26.0512 10.9922  -2
   5  -3   8 26.0512 10.9922   1
   6  -3   8 3.50933 31.9019  -2
  -6   3  -8 3.50933 31.9019   1
  -6   3  -8 10.3490 15.4748  -2
   6  -3   8 10.3490 15.4748   1
  -2 -10   0 10.4200 5.58113  -2
   2   2  -8 10.4200 5.58113   1
  -1  -9   1 236.879 17.9489  -2
   1   2  -8 236.879 17.9489   1
   1   9  -1 212.711 25.2591  -2
  -1  -2   8 212.711 25.2591   1
   0   2  -8 18.1548 7.11287   1
   0  -2   8 16.1737 7.69798   1
  -1   2  -8 284.067 18.5311   1
   1  -2   8 251.059 20.9446   1
  -2   2  -8 35.7094 8.28075   1
   2  -2   8 39.6625 10.7189   1
  -3   2  -8 131.296 15.5082   1
   3  -2   8 142.156 18.9438   1
   4  -5   5 51.3098 13.3142  -2
  -4   2  -8 51.3098 13.3142   1
  -4   5  -5 56.2017 15.7052  -2
   4  -2   8 56.2017 15.7052   1
   5  -4   6 140.332 16.0247  -2
  -5   2  -8 140.332 16.0247   1
  -5   4  -6 162.110 19.6703  -2
   5  -2   8 162.110 19.6703   1
   6  -3   7 89.7852 31.4116  -2
  -6   2  -8 89.7852 31.4116   1
  -6   3  -7 98.0002 22.1158  -2
   6  -2   8 98.0002 22.1158   1
  -7   2  -8 14.2157 15.4631   1
   7  -2   8 21.6405 9.45958   1
   3   1  -8 2.56805 4.54391   1
  -3  -1   8 -20.555 16.7526   1
  -2 -10  -1 44.0419 11.0291  -2
   2   1  -8 44.0419 11.0291   1
  -1  -9   0 297.951 18.5503  -2
   1   1  -8 297.951 18.5503   1
   1   9   0 271.738 23.8990  -2
  -1  -1   8 271.738 23.8990   1
   0   1  -8 116.203 12.8630   1
   0  -1   8 107.630 12.9889   1
  -1   1  -8 116.571 13.0737   1
   1  -1   8 118.220 15.2712   1
  -2   1  -8 205.984 16.8649   1
   2  -1   8 141.298 17.1077   1
  -3   1  -8 3.63439 6.61498   1
   3  -1   8 4.81042 7.42758   1
   4  -5   4 235.524 14.8488  -2
  -4   1  -8 235.524 14.8488   1
  -4   5  -4 221.037 22.7373  -2
   4  -1   8 221.037 22.7373   1
   5  -4   5 360.356 15.1845  -2
  -5   1  -8 360.356 15.1845   1
  -5   4  -5 373.837 25.1607  -2
   5  -1   8 373.837 25.1607   1
   6  -3   6 78.7043 32.9091  -2
  -6   1  -8 78.7043 32.9091   1
  -6   3  -6 16.4981 17.0719  -2
   6  -1   8 16.4981 17.0719   1
  -7   1  -8 65.5829 21.7317   1
   7  -1   8 67.1600 15.2042   1
   3   0  -8 49.7042 10.8640   1
  -2 -10  -2 34.1452 11.6580  -2
   2   0  -8 34.1452 11.6580   1
   2  10   2 19.7445 15.7354  -2
  -2   0   8 19.7445 15.7354   1
  -1  -9  -1 -0.3271 8.13109  -2
   1   0  -8 -0.3271 8.13109   1
   1   9   1 -19.790 12.7194  -2
  -1   0   8 -19.790 12.7194   1
   0   0  -8 37.6631 8.34988   1
   0   0   8 36.6628 8.71743   1
  -1   0  -8 130.497 13.5046   1
   1   0   8 129.381 15.0840   1
  -2   0  -8 10.4148 5.27974   1
   2   0   8 11.1227 7.61459   1
   3  -6   2 13.2460 20.9131  -2
  -3   0  -8 13.2460 20.9131   1
   3   0   8 17.5041 8.52321   1
   4  -5   3 132.618 12.7747  -2
  -4   0  -8 132.618 12.7747   1
  -4   5  -3 145.145 20.2537  -2
   4   0   8 145.145 20.2537   1
   5  -4   4 7.79129 8.55215  -2
  -5   0  -8 7.79129 8.55215   1
  -5   4  -4 11.8717 11.6321  -2
   5   0   8 11.8717 11.6321   1
   6  -3   5 71.3771 14.8541  -2
  -6   0  -8 71.3771 14.8541   1
  -6   3  -5 33.5446 17.1389  -2
   6   0   8 33.5446 17.1389   1
  -7   0  -8 46.3321 19.0374   1
   7   0   8 86.1098 17.7192   1
  -8   0  -8 5.60969 11.8536   1
   8   0   8 7.65246 14.1416   1
   3  -1  -8 146.680 17.6737   1
  -3   1   8 184.346 24.4745   1
  -2 -10  -3 68.0401 13.9603  -2
   2  -1  -8 68.0401 13.9603   1
   2  10   3 41.3223 16.6041  -2
  -2   1   8 41.3223 16.6041   1
  -1  -9  -2 133.451 14.5122  -2
   1  -1  -8 133.451 14.5122   1
   1   9   2 118.839 17.9761  -2
  -1   1   8 118.839 17.9761   1
   0  -8  -1 377.179 29.0420  -2
   0  -1  -8 377.179 29.0420   1
   0   1   8 92.2508 12.0236   1
  -1  -1  -8 106.820 12.4315   1
   1   1   8 98.8603 13.1840   1
  -2  -1  -8 -3.2828 4.25817   1
   2   1   8 3.48578 6.22217   1
  -3  -1  -8 97.8829 8.16134   1
   3   1   8 111.798 15.2218   1
   4  -5   2 115.544 11.6140  -2
  -4  -1  -8 115.544 11.6140   1
   4   1   8 97.6806 15.2388   1
   5  -4   3 34.8752 12.6040  -2
  -5  -1  -8 34.8752 12.6040   1
  -5   4  -3 50.8905 13.7739  -2
   5   1   8 50.8905 13.7739   1
   6  -3   4 202.662 18.5721  -2
  -6  -1  -8 202.662 18.5721   1
  -6   3  -4 239.214 23.1869  -2
   6   1   8 239.214 23.1869   1
   7  -2   5 153.057 22.7244  -2
  -7  -1  -8 153.057 22.7244   1
   7   1   8 65.7408 13.9149   1
  -8  -1  -8 5.20483 12.3161   1
   8   1   8 3.44631 8.72619   1
  -3   2   8 74.2727 15.9774   1
  -2 -10  -4 22.2832 14.7025  -2
   2  -2  -8 22.2832 14.7025   1
   2  10   4 11.8506 16.6038  -2
  -2   2   8 11.8506 16.6038   1
  -1  -9  -3 271.899 17.6992  -2
   1  -2  -8 271.899 17.6992   1
   1   9   3 348.007 27.0683  -2
  -1   2   8 348.007 27.0683   1
   0  -8  -2 76.0603 14.0412  -2
   0  -2  -8 76.0603 14.0412   1
   0   8   2 93.5387 12.9936  -2
   0   2   8 93.5387 12.9936   1
  -1  -2  -8 5.98064 4.99089   1
   1   2   8 14.0870 6.21720   1
  -2  -2  -8 125.399 10.1298   1
   2   2   8 140.442 15.7611   1
  -3  -2  -8 298.966 11.2356   1
   3   2   8 277.432 19.5170   1
   4  -5   1 61.9879 15.5438  -2
  -4  -2  -8 61.9879 15.5438   1
   4   2   8 12.9288 7.99699   1
   5  -4   2 124.103 15.1628  -2
  -5  -2  -8 124.103 15.1628   1
  -5   4  -2 120.210 16.1446  -2
   5   2   8 120.210 16.1446   1
   6  -3   3 196.370 18.5040  -2
  -6  -2  -8 196.370 18.5040   1
  -6   3  -3 246.514 21.4950  -2
   6   2   8 246.514 21.4950   1
   7  -2   4 180.446 21.0610  -2
  -7  -2  -8 180.446 21.0610   1
  -7   2  -4 165.419 36.1070  -2
   7   2   8 165.419 36.1070   1
  -8  -2  -8 2.86806 11.8104   1
   8   2   8 18.6544 10.3634   1
   9   2   8 10.0366 13.0968   1
  -2 -10  -5 77.7969 16.0089  -2
   2  -3  -8 77.7969 16.0089   1
  -2   3   8 60.9571 14.0230   1
  -1  -9  -4 185.912 15.9435  -2
   1  -3  -8 185.912 15.9435   1
   1   9   4 181.823 21.3310  -2
  -1   3   8 181.823 21.3310   1
   0  -8  -3 75.7455 14.2622  -2
   0  -3  -8 75.7455 14.2622   1
   0   8   3 60.7535 17.9051  -2
   0   3   8 60.7535 17.9051   1
   1  -7  -2 126.443 22.6507  -2
  -1  -3  -8 126.443 22.6507   1
   1   3   8 29.7903 8.36924   1
  -2  -3  -8 441.753 15.2390   1
   2   3   8 446.388 21.5873   1
  -3  -3  -8 71.0733 7.41437   1
   3   3   8 50.3938 10.2475   1
   4  -5   0 50.2602 17.6174  -2
  -4  -3  -8 50.2602 17.6174   1
   4   3   8 43.5401 11.2168   1
   5  -4   1 198.811 13.5104  -2
  -5  -3  -8 198.811 13.5104   1
  -5   4  -1 196.199 19.5382  -2
   5   3   8 196.199 19.5382   1
   6  -3   2 78.7724 14.1112  -2
  -6  -3  -8 78.7724 14.1112   1
  -6   3  -2 85.9337 15.5000  -2
   6   3   8 85.9337 15.5000   1
   7  -2   3 62.7213 18.8621  -2
  -7  -3  -8 62.7213 18.8621   1
  -7   2  -3 3.06941 16.5046  -2
   7   3   8 3.06941 16.5046   1
  -8  -3  -8 123.406 16.7200   1
   8   3   8 148.286 20.1530   1
  -9  -3  -8 45.9751 12.8918   1
   9   3   8 61.4490 21.5633   1
   2  -4  -8 25.0796 9.45415   1
  -2   4   8 41.8480 14.0295   1
  -1  -9  -5 306.527 20.6626  -2
   1  -4  -8 306.527 20.6626   1
   1   9   5 322.033 27.6772  -2
  -1   4   8 322.033 27.6772   1
   0  -8  -4 142.175 15.1387  -2
   0  -4  -8 142.175 15.1387   1
   0   8   4 119.704 21.5862  -2
   0   4   8 119.704 21.5862   1
   1  -7  -3 206.170 23.3492  -2
  -1  -4  -8 206.170 23.3492   1
   1   4   8 163.081 15.8404   1
  -2  -4  -8 300.746 13.3532   1
   2   4   8 296.458 19.2615   1
  -3  -4  -8 29.1785 5.43441   1
   3   4   8 19.6401 8.17751   1
  -4  -4  -8 153.884 12.5171   1
   4   4   8 103.027 13.6526   1
   5  -4   0 50.5791 10.5068  -2
  -5  -4  -8 50.5791 10.5068   1
  -5   4   0 50.4886 14.7703  -2
   5   4   8 50.4886 14.7703   1
   6  -3   1 33.9117 8.75447  -2
  -6  -4  -8 33.9117 8.75447   1
  -6   3  -1 46.4876 13.2161  -2
   6   4   8 46.4876 13.2161   1
   7  -2   2 405.370 26.7329  -2
  -7  -4  -8 405.370 26.7329   1
  -7   2  -2 409.549 27.4465  -2
   7   4   8 409.549 27.4465   1
   8  -1   3 522.157 41.6621  -2
  -8  -4  -8 522.157 41.6621   1
   8   4   8 197.844 20.6438   1
  -9  -4  -8 10.2488 9.27890   1
  -1  -9  -6 37.7843 19.5771  -2
   1  -5  -8 37.7843 19.5771   1
   1   9   6 20.0453 15.8152  -2
  -1   5   8 20.0453 15.8152   1
   0  -8  -5 32.6186 20.0368  -2
   0  -5  -8 32.6186 20.0368   1
   0   8   5 10.1466 15.6540  -2
   0   5   8 10.1466 15.6540   1
   1  -7  -4 301.816 28.1313  -2
  -1  -5  -8 301.816 28.1313   1
   1   5   8 277.783 17.3760   1
  -2  -5  -8 2.68257 4.20729   1
   2   5   8 -5.6978 5.44530   1
  -3  -5  -8 4.74447 3.80600   1
   3   5   8 16.0135 7.60628   1
  -4  -5  -8 20.0946 6.55338   1
   4   5   8 16.4678 8.11689   1
   5  -4  -1 93.7243 12.2959  -2
  -5  -5  -8 93.7243 12.2959   1
  -5   4   1 88.3375 16.4259  -2
   5   5   8 88.3375 16.4259   1
   6  -3   0 134.891 11.6996  -2
  -6  -5  -8 134.891 11.6996   1
  -6   3   0 169.287 15.9757  -2
   6   5   8 169.287 15.9757   1
   7  -2   1 233.953 23.4463  -2
  -7  -5  -8 233.953 23.4463   1
  -7   2  -1 235.569 21.1221  -2
   7   5   8 235.569 21.1221   1
   8  -1   2 308.887 36.2923  -2
  -8  -5  -8 308.887 36.2923   1
   8   5   8 53.3188 20.7726   1
  -9  -5  -8 22.7834 11.4591   1
  -1  -9  -7 13.8519 19.0077  -2
   1  -6  -8 13.8519 19.0077   1
   1   9   7 -7.7021 16.6746  -2
  -1   6   8 -7.7021 16.6746   1
   0  -8  -6 174.792 24.9438  -2
   0  -6  -8 174.792 24.9438   1
   0   8   6 175.701 22.1961  -2
   0   6   8 175.701 22.1961   1
   1  -7  -5 291.357 26.5995  -2
  -1  -6  -8 291.357 26.5995   1
   1   6   8 74.2812 12.5918   1
  -2  -6  -8 4.09095 4.92418   1
   2   6   8 4.75706 6.89136   1
  -3  -6  -8 75.7615 8.16306   1
   3   6   8 76.7982 12.1069   1
  -4  -6  -8 102.001 10.7482   1
   4   6   8 95.2671 14.2002   1
   5  -4  -2 79.4895 11.9665  -2
  -5  -6  -8 79.4895 11.9665   1
  -5   4   2 88.8318 16.3809  -2
   5   6   8 88.8318 16.3809   1
   6  -3  -1 25.0636 12.0470  -2
  -6  -6  -8 25.0636 12.0470   1
  -6   3   1 20.7503 8.19783  -2
   6   6   8 20.7503 8.19783   1
   7  -2   0 275.689 25.0284  -2
  -7  -6  -8 275.689 25.0284   1
  -7   2   0 301.410 24.9577  -2
   7   6   8 301.410 24.9577   1
   8  -1   1 42.0448 29.9387  -2
  -8  -6  -8 42.0448 29.9387   1
   8   6   8 9.51913 14.9709   1
   0  -8  -7 138.812 24.3344  -2
   0  -7  -8 138.812 24.3344   1
   0   8   7 171.807 23.1162  -2
   0   7   8 171.807 23.1162   1
   1  -7  -6 0.72896 20.6569  -2
  -1  -7  -8 0.72896 20.6569   1
  -1   7   6 -26.585 18.5448  -2
   1   7   8 -26.585 18.5448   1
   2  -6  -5 74.7747 22.5200  -2
  -2  -7  -8 74.7747 22.5200   1
   2   7   8 74.4260 12.4704   1
  -3  -7  -8 6.10449 6.35666   1
   3   7   8 7.36166 6.76139   1
  -4  -7  -8 53.4517 8.45340   1
   4   7   8 55.3318 9.37892   1
   5  -4  -3 149.420 27.6579  -2
  -5  -7  -8 149.420 27.6579   1
   5   7   8 46.3740 8.93716   1
   6  -3  -2 334.098 23.8124  -2
  -6  -7  -8 334.098 23.8124   1
  -6   3   2 295.762 23.4326  -2
   6   7   8 295.762 23.4326   1
   7  -2  -1 10.6272 16.3333  -2
  -7  -7  -8 10.6272 16.3333   1
  -7   2   1 58.1550 17.2300  -2
   7   7   8 58.1550 17.2300   1
   8  -1   0 73.1429 32.3530  -2
  -8  -7  -8 73.1429 32.3530   1
   8   7   8 6.50795 17.1255   1
   1  -7  -7 35.4426 22.1148  -2
  -1  -8  -8 35.4426 22.1148   1
  -1   7   7 -16.670 14.7060  -2
   1   8   8 -16.670 14.7060   1
  -2  -8  -8 3.62844 5.77846   1
   2   8   8 17.1388 8.61346   1
  -3  -8  -8 1.90778 5.34149   1
   3   8   8 9.67455 6.29836   1
  -4  -8  -8 14.2020 8.33827   1
   4   8   8 4.44076 5.35169   1
   5  -4  -4 489.468 38.3235  -2
  -5  -8  -8 489.468 38.3235   1
   5   8   8 216.243 22.7906   1
   6  -3  -3 167.454 21.0550  -2
  -6  -8  -8 167.454 21.0550   1
  -6   3   3 179.248 21.2874  -2
   6   8   8 179.248 21.2874   1
   7  -2  -2 13.8437 15.4551  -2
  -7  -8  -8 13.8437 15.4551   1
  -7   2   2 2.74637 15.0262  -2
   7   8   8 2.74637 15.0262   1
  -3  -9  -8 -2.8429 6.80885   1
   3   9   8 12.9518 7.41808   1
  -4  -9  -8 33.7026 12.9333   1
   4   9   8 25.8011 11.2652   1
  -5  -9  -8 136.997 18.3628   1
   5   9   8 159.925 20.1610   1
  -6  -9  -8 -3.0847 8.27760   1
   6   9   8 11.6230 9.94296   1
   0   3  -9 8.11918 7.47756   1
   0  -3   9 5.93638 12.3515   1
  -1   3  -9 7.40338 6.93367   1
   1  -3   9 7.47241 8.81856   1
  -2   3  -9 50.2445 10.2527   1
   2  -3   9 38.2157 11.5156   1
   3  -7   5 29.6113 12.2956  -2
  -3   3  -9 29.6113 12.2956   1
  -3   7  -5 8.24271 30.9369  -2
   3  -3   9 8.24271 30.9369   1
   4  -6   6 62.8466 14.1759  -2
  -4   3  -9 62.8466 14.1759   1
  -4   6  -6 55.9209 16.0354  -2
   4  -3   9 55.9209 16.0354   1
   5  -5   7 70.1453 15.7311  -2
  -5   3  -9 70.1453 15.7311   1
  -5   5  -7 107.050 25.3443  -2
   5  -3   9 107.050 25.3443   1
  -1 -10   1 302.492 20.0716  -2
   1   2  -9 302.492 20.0716   1
   0   2  -9 -3.0281 5.01914   1
   0  -2   9 2.02706 6.85098   1
  -1   2  -9 10.3797 6.77831   1
   1  -2   9 3.18515 7.53485   1
  -2   2  -9 44.2504 9.49131   1
   2  -2   9 34.6639 10.7410   1
   3  -7   4 34.1612 16.7532  -2
  -3   2  -9 34.1612 16.7532   1
   3  -2   9 30.3283 11.0990   1
   4  -6   5 212.354 19.0352  -2
  -4   2  -9 212.354 19.0352   1
  -4   6  -5 235.339 23.0208  -2
   4  -2   9 235.339 23.0208   1
   5  -5   6 15.4123 10.0653  -2
  -5   2  -9 15.4123 10.0653   1
  -5   5  -6 3.67208 14.9855  -2
   5  -2   9 3.67208 14.9855   1
   6  -4   7 38.0476 33.8183  -2
  -6   2  -9 38.0476 33.8183   1
  -6   4  -7 -7.9163 33.6921  -2
   6  -2   9 -7.9163 33.6921   1
  -1 -10   0 12.2260 11.8381  -2
   1   1  -9 12.2260 11.8381   1
   1  10   0 49.7271 18.5703  -2
  -1  -1   9 49.7271 18.5703   1
   0   1  -9 6.47175 6.14157   1
   0  -1   9 19.0671 8.00346   1
  -1   1  -9 123.161 14.2069   1
   1  -1   9 85.8491 13.4091   1
  -2   1  -9 3.78576 5.55644   1
   2  -1   9 0.50477 7.52387   1
  -3   1  -9 186.836 16.5044   1
   3  -1   9 150.407 18.6409   1
   4  -6   4 164.689 15.6591  -2
  -4   1  -9 164.689 15.6591   1
  -4   6  -4 162.704 20.2215  -2
   4  -1   9 162.704 20.2215   1
   5  -5   5 12.1630 21.5440  -2
  -5   1  -9 12.1630 21.5440   1
  -5   5  -5 10.7876 13.0028  -2
   5  -1   9 10.7876 13.0028   1
  -6   4  -6 74.5215 20.2038  -2
   6  -1   9 74.5215 20.2038   1
  -7   1  -9 12.4299 15.3995   1
   7  -1   9 4.51312 10.3852   1
  -1 -10  -1 25.4697 11.9660  -2
   1   0  -9 25.4697 11.9660   1
   1  10   1 19.2372 14.4097  -2
  -1   0   9 19.2372 14.4097   1
   0   0  -9 68.9214 11.2280   1
   0   0   9 32.1589 12.0346   1
  -1   0  -9 127.234 15.3642   1
   1   0   9 121.889 15.5222   1
  -2   0  -9 13.7912 6.56635   1
   2   0   9 26.3715 8.39508   1
  -3   0  -9 77.3843 11.4317   1
   3   0   9 62.4150 13.1074   1
   4  -6   3 53.4323 9.26518  -2
  -4   0  -9 53.4323 9.26518   1
  -4   6  -3 48.0793 16.9950  -2
   4   0   9 48.0793 16.9950   1
   5  -5   4 22.4774 11.9726  -2
  -5   0  -9 22.4774 11.9726   1
  -5   5  -4 29.6179 13.1336  -2
   5   0   9 29.6179 13.1336   1
   6  -4   5 36.6290 16.4376  -2
  -6   0  -9 36.6290 16.4376   1
  -6   4  -5 46.5373 18.4889  -2
   6   0   9 46.5373 18.4889   1
  -7   0  -9 9.75620 14.0457   1
   7   0   9 15.5450 10.5806   1
  -1 -10  -2 27.0698 11.6280  -2
   1  -1  -9 27.0698 11.6280   1
   1  10   2 16.3832 16.5668  -2
  -1   1   9 16.3832 16.5668   1
   0  -1  -9 269.256 19.0938   1
   0   1   9 289.129 25.7062   1
  -1  -1  -9 0.65445 5.54361   1
   1   1   9 0.36386 6.30938   1
  -2  -1  -9 158.238 15.2559   1
   2   1   9 161.836 16.4932   1
  -3  -1  -9 36.6016 6.83898   1
   3   1   9 27.0812 9.42372   1
   4  -6   2 26.0269 8.82786  -2
  -4  -1  -9 26.0269 8.82786   1
  -4   6  -2 31.2750 16.4738  -2
   4   1   9 31.2750 16.4738   1
   5  -5   3 122.414 16.0400  -2
  -5  -1  -9 122.414 16.0400   1
  -5   5  -3 128.033 16.6318  -2
   5   1   9 128.033 16.6318   1
   6  -4   4 727.367 30.1938  -2
  -6  -1  -9 727.367 30.1938   1
  -6   4  -4 732.057 35.2763  -2
   6   1   9 732.057 35.2763   1
   7  -3   5 -9.7624 22.6676  -2
  -7  -1  -9 -9.7624 22.6676   1
   7   1   9 0.49408 8.86868   1
  -8  -1  -9 6.47180 14.7733   1
   8   1   9 6.54896 10.1853   1
  -1 -10  -3 89.3609 13.6576  -2
   1  -2  -9 89.3609 13.6576   1
   1  10   3 102.815 19.0841  -2
  -1   2   9 102.815 19.0841   1
   0  -2  -9 3.12223 5.58565   1
   0   2   9 -1.1912 7.39339   1
  -1  -2  -9 110.867 13.5934   1
   1   2   9 96.7628 13.1559   1
  -2  -2  -9 8.17699 5.21720   1
   2   2   9 1.59058 6.52087   1
  -3  -2  -9 -6.8077 3.84359   1
   3   2   9 2.99393 7.63218   1
   4  -6   1 69.4773 9.56488  -2
  -4  -2  -9 69.4773 9.56488   1
  -4   6  -1 83.8899 29.2039  -2
   4   2   9 83.8899 29.2039   1
   5  -5   2 597.487 20.4562  -2
  -5  -2  -9 597.487 20.4562   1
  -5   5  -2 571.267 28.7981  -2
   5   2   9 571.267 28.7981   1
   6  -4   3 543.475 26.6672  -2
  -6  -2  -9 543.475 26.6672   1
  -6   4  -3 556.373 29.5942  -2
   6   2   9 556.373 29.5942   1
   7  -3   4 115.545 22.8029  -2
  -7  -2  -9 115.545 22.8029   1
   7   2   9 76.3793 15.3878   1
  -8  -2  -9 36.2202 9.98401   1
   8   2   9 51.5742 13.9662   1
  -1 -10  -4 52.4492 12.1497  -2
   1  -3  -9 52.4492 12.1497   1
   1  10   4 70.2625 16.3395  -2
  -1   3   9 70.2625 16.3395   1
   0  -9  -3 96.6850 15.8218  -2
   0  -3  -9 96.6850 15.8218   1
   0   9   3 88.2174 19.8451  -2
   0   3   9 88.2174 19.8451   1
  -1  -3  -9 42.0288 9.91147   1
   1   3   9 31.6279 8.80075   1
  -2  -3  -9 12.4947 5.13270   1
   2   3   9 19.3207 7.97602   1
  -3  -3  -9 2.91378 3.95105   1
   3   3   9 1.03278 6.66510   1
   4  -6   0 128.909 13.9531  -2
  -4  -3  -9 128.909 13.9531   1
   4   3   9 6.37002 8.09045   1
   5  -5   1 250.632 14.7347  -2
  -5  -3  -9 250.632 14.7347   1
  -5   5  -1 286.473 22.4226  -2
   5   3   9 286.473 22.4226   1
   6  -4   2 58.2994 14.7120  -2
  -6  -3  -9 58.2994 14.7120   1
  -6   4  -2 36.2384 16.7766  -2
   6   3   9 36.2384 16.7766   1
   7  -3   3 111.918 21.0192  -2
  -7  -3  -9 111.918 21.0192   1
  -7   3  -3 157.866 37.7314  -2
   7   3   9 157.866 37.7314   1
  -8  -3  -9 32.9843 10.7514   1
   8   3   9 15.6653 10.9309   1
  -1 -10  -5 14.5353 10.6048  -2
   1  -4  -9 14.5353 10.6048   1
   1  10   5 4.40662 12.6019  -2
  -1   4   9 4.40662 12.6019   1
   0  -9  -4 129.528 16.4929  -2
   0  -4  -9 129.528 16.4929   1
   0   9   4 115.131 22.8087  -2
   0   4   9 115.131 22.8087   1
  -1  -4  -9 23.0684 8.45211   1
   1   4   9 22.4178 7.49030   1
  -2  -4  -9 -3.4820 4.44775   1
   2   4   9 8.62777 6.91233   1
  -3  -4  -9 8.25404 4.88631   1
   3   4   9 8.24898 6.25061   1
   4  -6  -1 251.162 25.2038  -2
  -4  -4  -9 251.162 25.2038   1
   4   4   9 212.221 20.3621   1
   5  -5   0 26.4331 10.2538  -2
  -5  -4  -9 26.4331 10.2538   1
  -5   5   0 42.1855 14.5667  -2
   5   4   9 42.1855 14.5667   1
   6  -4   1 12.7115 8.86083  -2
  -6  -4  -9 12.7115 8.86083   1
  -6   4  -1 2.66734 12.0474  -2
   6   4   9 2.66734 12.0474   1
   7  -3   2 275.831 24.5897  -2
  -7  -4  -9 275.831 24.5897   1
   7   4   9 27.3229 10.0919   1
  -8  -4  -9 45.2323 11.2540   1
   8   4   9 29.4902 10.7851   1
   0  -9  -5 105.553 25.4638  -2
   0  -5  -9 105.553 25.4638   1
   0   9   5 49.3287 19.9772  -2
   0   5   9 49.3287 19.9772   1
   1  -8  -4 64.0268 23.3671  -2
  -1  -5  -9 64.0268 23.3671   1
   1   5   9 9.35468 6.54192   1
  -2  -5  -9 16.6749 6.14049   1
   2   5   9 26.0870 9.20910   1
  -3  -5  -9 314.887 13.8354   1
   3   5   9 240.624 31.4687   1
   4  -6  -2 93.0644 21.7920  -2
  -4  -5  -9 93.0644 21.7920   1
   4   5   9 53.1052 11.6636   1
   5  -5  -1 17.5261 10.1352  -2
  -5  -5  -9 17.5261 10.1352   1
  -5   5   1 43.2049 15.6556  -2
   5   5   9 43.2049 15.6556   1
   6  -4   0 19.8437 8.95991  -2
  -6  -5  -9 19.8437 8.95991   1
  -6   4   0 41.7029 12.4949  -2
   6   5   9 41.7029 12.4949   1
   7  -3   1 58.3782 11.6924  -2
  -7  -5  -9 58.3782 11.6924   1
  -7   3  -1 117.847 33.7182  -2
   7   5   9 117.847 33.7182   1
   8  -2   2 135.806 33.9267  -2
  -8  -5  -9 135.806 33.9267   1
   8   5   9 9.77839 13.1042   1
   1  -8  -5 11.2352 20.9125  -2
  -1  -6  -9 11.2352 20.9125   1
   1   6   9 13.7079 7.65363   1
  -2  -6  -9 23.4383 6.69456   1
   2   6   9 24.0250 9.41297   1
  -3  -6  -9 302.205 16.3879   1
   3   6   9 255.422 22.3118   1
  -4  -6  -9 4.26379 5.62013   1
   4   6   9 0.18502 6.30092   1
   5  -5  -2 224.728 16.1034  -2
  -5  -6  -9 224.728 16.1034   1
  -5   5   2 223.012 20.7509  -2
   5   6   9 223.012 20.7509   1
   6  -4  -1 23.0654 9.76704  -2
  -6  -6  -9 23.0654 9.76704   1
  -6   4   1 13.5935 10.2879  -2
   6   6   9 13.5935 10.2879   1
   7  -3   0 34.0349 18.8125  -2
  -7  -6  -9 34.0349 18.8125   1
  -7   3   0 51.7951 32.0114  -2
   7   6   9 51.7951 32.0114   1
  -8  -6  -9 3.95978 8.61012   1
   8   6   9 26.8739 16.6535   1
   1   7   9 -3.5783 12.2171   1
  -2  -7  -9 62.0759 9.28547   1
   2   7   9 73.4382 13.0416   1
  -3  -7  -9 9.85878 7.30899   1
   3   7   9 24.3141 8.40412   1
  -4  -7  -9 163.154 15.8327   1
   4   7   9 129.896 17.1152   1
   5  -5  -3 168.397 21.7318  -2
  -5  -7  -9 168.397 21.7318   1
  -5   5   3 185.646 21.2328  -2
   5   7   9 185.646 21.2328   1
   6  -4  -2 78.3533 15.3461  -2
  -6  -7  -9 78.3533 15.3461   1
  -6   4   2 57.8323 24.0996  -2
   6   7   9 57.8323 24.0996   1
   7  -3  -1 23.8533 18.7491  -2
  -7  -7  -9 23.8533 18.7491   1
  -7   3   1 61.6680 29.9192  -2
   7   7   9 61.6680 29.9192   1
  -3  -8  -9 10.3557 10.7764   1
   3   8   9 3.98951 6.73660   1
  -4  -8  -9 28.2787 12.3179   1
   4   8   9 41.4827 10.9382   1
   5  -5  -4 259.866 28.9111  -2
  -5  -8  -9 259.866 28.9111   1
   5   8   9 70.5905 22.5745   1
   6  -4  -3 16.2194 15.6568  -2
  -6  -8  -9 16.2194 15.6568   1
  -6   4   3 57.6950 27.0953  -2
   6   8   9 57.6950 27.0953   1
  -2   2 -10 0.57737 6.52567   1
   2  -2  10 -4.0650 7.20930   1
  -3   2 -10 58.0738 11.5416   1
   3  -2  10 38.6369 12.0998   1
  -1   1 -10 1.86443 5.88189   1
   1  -1  10 12.6195 8.25570   1
  -2   1 -10 16.8884 7.45299   1
   2  -1  10 9.96997 9.22672   1
   3  -8   3 285.815 27.4702  -2
  -3   1 -10 285.815 27.4702   1
  -3   8  -3 296.238 38.8537  -2
   3  -1  10 296.238 38.8537   1
   4  -7   4 435.969 21.3154  -2
  -4   1 -10 435.969 21.3154   1
  -4   7  -4 434.118 28.0537  -2
   4  -1  10 434.118 28.0537   1
   5  -6   5 -1.7008 25.6882  -2
  -5   1 -10 -1.7008 25.6882   1
  -5   6  -5 49.8140 16.8617  -2
   5  -1  10 49.8140 16.8617   1
  -1   0 -10 12.7554 6.98655   1
   1   0  10 26.5551 9.40979   1
  -2   0 -10 7.90162 6.58333   1
   2   0  10 6.68503 6.83080   1
  -3   0 -10 12.7665 7.11423   1
   3   0  10 13.1640 7.68970   1
   4  -7   3 32.2977 10.9795  -2
  -4   0 -10 32.2977 10.9795   1
  -4   7  -3 46.6175 17.1510  -2
   4   0  10 46.6175 17.1510   1
   5  -6   4 180.987 18.3808  -2
  -5   0 -10 180.987 18.3808   1
  -5   6  -4 180.420 20.8249  -2
   5   0  10 180.420 20.8249   1
   6  -5   5 80.2561 19.0273  -2
  -6   0 -10 80.2561 19.0273   1
  -6   5  -5 63.1843 34.3673  -2
   6   0  10 63.1843 34.3673   1
   0  -1 -10 10.0908 7.27797   1
   0   1  10 14.9008 10.8064   1
  -1  -1 -10 36.9075 8.95663   1
   1   1  10 25.4638 8.19243   1
  -2  -1 -10 41.6334 9.45679   1
   2   1  10 54.6649 11.4559   1
  -3  -1 -10 -0.4079 6.02924   1
   3   1  10 4.25473 7.54655   1
   4  -7   2 22.9123 9.60647  -2
  -4  -1 -10 22.9123 9.60647   1
  -4   7  -2 23.0772 16.3318  -2
   4   1  10 23.0772 16.3318   1
   5  -6   3 85.4980 11.1995  -2
  -5  -1 -10 85.4980 11.1995   1
  -5   6  -3 84.9445 15.2751  -2
   5   1  10 84.9445 15.2751   1
   6  -5   4 77.3637 18.4048  -2
  -6  -1 -10 77.3637 18.4048   1
  -6   5  -4 114.581 22.3595  -2
   6   1  10 114.581 22.3595   1
  -7  -1 -10 14.7605 13.7902   1
   7   1  10 14.9701 11.0038   1
   0  -2 -10 16.4420 8.00094   1
   0   2  10 8.97003 9.90234   1
  -1  -2 -10 288.872 19.5907   1
   1   2  10 288.319 23.5230   1
  -2  -2 -10 55.7516 11.4028   1
   2   2  10 51.6521 10.9534   1
  -3  -2 -10 7.13924 5.03085   1
   3   2  10 0.93181 7.83944   1
   4  -7   1 -3.3418 12.7006  -2
  -4  -2 -10 -3.3418 12.7006   1
  -4   7  -1 57.6488 17.5698  -2
   4   2  10 57.6488 17.5698   1
   5  -6   2 159.897 12.9748  -2
  -5  -2 -10 159.897 12.9748   1
  -5   6  -2 141.063 17.5736  -2
   5   2  10 141.063 17.5736   1
   6  -5   3 66.9649 12.4752  -2
  -6  -2 -10 66.9649 12.4752   1
  -6   5  -3 78.4970 18.2199  -2
   6   2  10 78.4970 18.2199   1
   7  -4   4 97.0539 28.1217  -2
  -7  -2 -10 97.0539 28.1217   1
   7   2  10 86.2529 15.7810   1
  -1  -3 -10 92.4273 13.5621   1
   1   3  10 101.224 20.4224   1
  -2  -3 -10 49.0519 10.2348   1
   2   3  10 57.6874 11.9724   1
  -3  -3 -10 71.3457 9.04671   1
   3   3  10 98.3773 14.6669   1
   4  -7   0 100.030 15.2625  -2
  -4  -3 -10 100.030 15.2625   1
  -4   7   0 143.443 29.8021  -2
   4   3  10 143.443 29.8021   1
   5  -6   1 25.9729 9.21218  -2
  -5  -3 -10 25.9729 9.21218   1
  -5   6  -1 5.86665 12.5055  -2
   5   3  10 5.86665 12.5055   1
   6  -5   2 11.4903 10.1312  -2
  -6  -3 -10 11.4903 10.1312   1
  -6   5  -2 7.53485 15.4438  -2
   6   3  10 7.53485 15.4438   1
   7  -4   3 92.5727 25.7794  -2
  -7  -3 -10 92.5727 25.7794   1
   7   3  10 66.0704 14.5799   1
  -1  -4 -10 55.6774 10.5989   1
   1   4  10 107.848 21.2987   1
  -2  -4 -10 62.9609 9.31294   1
   2   4  10 48.8344 10.9672   1
  -3  -4 -10 254.230 14.1364   1
   3   4  10 285.703 24.1829   1
   4  -7  -1 53.0942 14.7646  -2
  -4  -4 -10 53.0942 14.7646   1
   4   4  10 53.6461 11.4476   1
   5  -6   0 20.3742 10.5576  -2
  -5  -4 -10 20.3742 10.5576   1
  -5   6   0 39.0713 14.3150  -2
   5   4  10 39.0713 14.3150   1
   6  -5   1 171.940 14.9218  -2
  -6  -4 -10 171.940 14.9218   1
  -6   5  -1 162.858 20.3228  -2
   6   4  10 162.858 20.3228   1
   7  -4   2 159.400 17.0019  -2
  -7  -4 -10 159.400 17.0019   1
  -7   4  -2 162.459 38.8891  -2
   7   4  10 162.459 38.8891   1
  -2  -5 -10 31.7013 7.06835   1
   2   5  10 32.8303 10.5291   1
  -3  -5 -10 170.814 13.3648   1
   3   5  10 197.294 19.9061   1
   4  -7  -2 3.71823 14.6189  -2
  -4  -5 -10 3.71823 14.6189   1
   4   5  10 6.21958 7.42003   1
   5  -6  -1 73.0748 13.5749  -2
  -5  -5 -10 73.0748 13.5749   1
  -5   6   1 128.862 19.6111  -2
   5   5  10 128.862 19.6111   1
   6  -5   0 78.6324 11.7272  -2
  -6  -5 -10 78.6324 11.7272   1
  -6   5   0 110.010 16.7997  -2
   6   5  10 110.010 16.7997   1
   7  -4   1 30.2862 12.9692  -2
  -7  -5 -10 30.2862 12.9692   1
   7   5  10 36.1176 10.5133   1
  -2  -6 -10 47.8469 8.52914   1
   2   6  10 53.6997 11.5486   1
  -3  -6 -10 31.1487 9.63583   1
   3   6  10 40.0780 10.8720   1
   4  -7  -3 18.3131 16.1460  -2
  -4  -6 -10 18.3131 16.1460   1
   4   6  10 -0.6392 7.09794   1
   5  -6  -2 171.230 16.2235  -2
  -5  -6 -10 171.230 16.2235   1
  -5   6   2 151.102 19.8010  -2
   5   6  10 151.102 19.8010   1
   6  -5  -1 14.7528 9.58832  -2
  -6  -6 -10 14.7528 9.58832   1
  -6   5   1 51.5478 14.2031  -2
   6   6  10 51.5478 14.2031   1
   7  -4   0 -9.5458 24.6055  -2
  -7  -6 -10 -9.5458 24.6055   1
  -4  -7 -10 37.8394 9.62853   1
   4   7  10 34.9679 11.2099   1
  -5  -7 -10 31.4429 11.3535   1
   5   7  10 40.1146 10.9589   1
  -4  -1 -11 36.6305 14.7758   1
  -3  -2 -11 32.4273 9.51209   1
   3   2  11 34.4843 10.4752   1
   4  -8   1 126.460 17.1024  -2
  -4  -2 -11 126.460 17.1024   1
  -4   8  -1 121.631 21.4627  -2
   4   2  11 121.631 21.4627   1
   5  -7   2 82.1394 17.2980  -2
  -5  -2 -11 82.1394 17.2980   1
  -5   7  -2 67.9388 16.2831  -2
   5   2  11 67.9388 16.2831   1
  -3  -3 -11 7.36438 6.55541   1
   3   3  11 12.1104 8.00892   1
  -4  -3 -11 1.50245 6.85116   1
   4   3  11 4.43525 7.14323   1
   5  -7   1 16.0736 9.42380  -2
  -5  -3 -11 16.0736 9.42380   1
  -5   7  -1 8.62694 12.5878  -2
   5   3  11 8.62694 12.5878   1
  -4  -4 -11 -0.4396 7.33838   1
   4   4  11 21.4010 8.63474   1
   5  -7   0 39.9741 12.4881  -2
  -5  -4 -11 39.9741 12.4881   1
  -5   7   0 60.2625 14.4509  -2
   5   4  11 60.2625 14.4509   1
   0   0   0    0.00    0.00   0
;
_shelx_hkl_checksum              55084
_olex2_submission_special_instructions 'No special instructions were received'
loop_
_space_group_symop_operation_xyz
'x, y, z'
'-x, -y, -z'
loop_
_atom_site_label
_atom_site_type_symbol
_atom_site_fract_x
_atom_site_fract_y
_atom_site_fract_z
_atom_site_U_iso_or_equiv
_atom_site_adp_type
_atom_site_occupancy
_atom_site_site_symmetry_order
_atom_site_calc_flag
_atom_site_refinement_flags_posn
Co1 Co 0.66073(11) 0.59396(9) 0.61252(10) 0.0208(2) Uani 1 1 d .
F1 F 0.1801(5) 0.2933(4) 0.8516(4) 0.0380(10) Uani 1 1 d .
F1' F 0.8643(6) 1.0418(5) 0.2035(5) 0.0474(11) Uani 1 1 d .
F2 F 0.3927(5) 0.1647(4) 0.9466(5) 0.0425(10) Uani 1 1 d .
F2' F 1.1029(5) 0.8902(4) 0.2548(5) 0.0448(11) Uani 1 1 d .
F3 F 0.1362(5) 0.3057(4) 1.0946(4) 0.0383(10) Uani 1 1 d .
F3' F 0.9539(5) 1.1010(4) 0.3647(4) 0.0356(9) Uani 1 1 d .
O1 O 0.4882(5) 0.4328(4) 0.7451(4) 0.0206(9) Uani 1 1 d .
O1' O 0.8438(5) 0.7433(4) 0.4655(5) 0.0218(9) Uani 1 1 d .
O1S O 0.7984(5) 0.4474(5) 0.4349(5) 0.0238(9) Uani 1 1 d .
H1SA H 0.757054 0.361292 0.468259 0.036 Uiso 1 1 d GR
H1SB H 0.919124 0.421972 0.413699 0.036 Uiso 1 1 d GR
O2 O 0.2863(5) 0.5515(5) 0.9620(5) 0.0251(9) Uani 1 1 d .
O2' O 0.6584(5) 0.9723(4) 0.5543(5) 0.0271(10) Uani 1 1 d .
O2S O 0.4696(5) 0.7137(4) 0.4987(4) 0.0212(9) Uani 1 1 d .
H2SA H 0.517236 0.689979 0.401180 0.032 Uiso 1 1 d GR
H2SB H 0.451640 0.814782 0.493976 0.032 Uiso 1 1 d GR
O3S O 0.5333(5) 0.7344(5) 0.7932(5) 0.0250(10) Uani 1 1 d .
H3SA H 0.423105 0.714372 0.847053 0.038 Uiso 1 1 d GR
H3SB H 0.520736 0.831751 0.746404 0.038 Uiso 1 1 d GR
O4S O 0.8596(5) 0.4732(4) 0.7145(5) 0.0213(9) Uani 1 1 d .
H4SA H 0.914830 0.379818 0.685078 0.032 Uiso 1 1 d GR
H4SB H 0.809703 0.466101 0.820326 0.032 Uiso 1 1 d GR
C1 C 0.3550(8) 0.4434(7) 0.8803(7) 0.0220(13) Uani 1 1 d .
C1' C 0.7983(8) 0.8903(7) 0.4620(7) 0.0221(13) Uani 1 1 d .
C2 C 0.2639(8) 0.2993(7) 0.9456(7) 0.0275(14) Uani 1 1 d .
C2' C 0.9341(9) 0.9808(8) 0.3192(8) 0.0298(15) Uani 1 1 d .
loop_
_atom_site_aniso_label
_atom_site_aniso_U_11
_atom_site_aniso_U_22
_atom_site_aniso_U_33
_atom_site_aniso_U_23
_atom_site_aniso_U_13
_atom_site_aniso_U_12
Co1 0.0201(4) 0.0195(4) 0.0219(5) -0.0022(3) -0.0060(3) -0.0070(3)
F1 0.050(2) 0.045(2) 0.032(2) 0.0055(18) -0.0200(19) -0.0301(19)
F1' 0.056(3) 0.053(3) 0.033(2) 0.0140(19) -0.019(2) -0.026(2)
F2 0.049(2) 0.023(2) 0.053(3) 0.0037(18) -0.018(2) -0.0141(17)
F2' 0.030(2) 0.024(2) 0.056(3) -0.0032(19) 0.0069(18) -0.0071(16)
F3 0.045(2) 0.046(2) 0.022(2) 0.0012(17) -0.0006(17) -0.0309(19)
F3' 0.036(2) 0.026(2) 0.045(2) -0.0020(17) -0.0099(18) -0.0168(16)
O1 0.022(2) 0.019(2) 0.020(2) -0.0018(17) -0.0055(17) -0.0071(16)
O1' 0.022(2) 0.017(2) 0.025(2) 0.0000(17) -0.0074(18) -0.0071(17)
O1S 0.018(2) 0.024(2) 0.026(2) -0.0037(16) -0.0038(17) -0.0076(16)
O2 0.030(2) 0.023(2) 0.020(2) -0.0034(18) -0.0046(18) -0.0096(18)
O2' 0.025(2) 0.019(2) 0.032(3) -0.0028(19) -0.0065(19) -0.0054(17)
O2S 0.025(2) 0.017(2) 0.021(2) -0.0043(16) -0.0064(18) -0.0076(17)
O3S 0.025(2) 0.022(2) 0.026(2) -0.0025(18) -0.0058(18) -0.0086(17)
O4S 0.026(2) 0.017(2) 0.021(2) -0.0019(17) -0.0093(18) -0.0050(17)
C1 0.020(3) 0.022(3) 0.023(3) 0.005(3) -0.012(3) -0.007(2)
C1' 0.021(3) 0.025(3) 0.022(3) -0.002(3) -0.010(3) -0.006(3)
C2 0.029(3) 0.028(4) 0.024(4) 0.000(3) -0.008(3) -0.011(3)
C2' 0.026(4) 0.033(4) 0.026(3) -0.003(3) -0.004(3) -0.010(3)
loop_
_atom_type_symbol
_atom_type_description
_atom_type_scat_dispersion_real
_atom_type_scat_dispersion_imag
_atom_type_scat_source
C C 0.0033 0.0016 'International Tables Vol C Tables 4.2.6.8 and 6.1.1.4'
H H 0.0000 0.0000 'International Tables Vol C Tables 4.2.6.8 and 6.1.1.4'
O O 0.0106 0.0060 'International Tables Vol C Tables 4.2.6.8 and 6.1.1.4'
F F 0.0171 0.0103 'International Tables Vol C Tables 4.2.6.8 and 6.1.1.4'
Co Co 0.3494 0.9721 'International Tables Vol C Tables 4.2.6.8 and 6.1.1.4'
loop_
_geom_angle_atom_site_label_1
_geom_angle_atom_site_label_2
_geom_angle_atom_site_label_3
_geom_angle
O1' Co1 O1 175.46(15)
O1S Co1 O1 87.60(15)
O1S Co1 O1' 87.87(16)
O1S Co1 O2S 88.78(16)
O1S Co1 O4S 88.86(16)
O2S Co1 O1 88.75(15)
O2S Co1 O1' 91.04(15)
O3S Co1 O1 92.64(16)
O3S Co1 O1' 91.89(16)
O3S Co1 O1S 177.42(17)
O3S Co1 O2S 93.80(15)
O3S Co1 O4S 88.56(16)
O4S Co1 O1 92.50(15)
O4S Co1 O1' 87.52(15)
O4S Co1 O2S 177.28(15)
C1 O1 Co1 127.2(4)
C1' O1' Co1 123.7(4)
Co1 O1S H1SA 109.9
Co1 O1S H1SB 109.6
H1SA O1S H1SB 109.0
Co1 O2S H2SA 108.7
Co1 O2S H2SB 108.9
H2SA O2S H2SB 109.4
Co1 O3S H3SA 104.6
Co1 O3S H3SB 107.0
H3SA O3S H3SB 109.4
Co1 O4S H4SA 111.4
Co1 O4S H4SB 111.5
H4SA O4S H4SB 110.5
O1 C1 C2 113.3(5)
O2 C1 O1 129.1(5)
O2 C1 C2 117.5(5)
O1' C1' C2' 115.1(5)
O2' C1' O1' 128.9(5)
O2' C1' C2' 116.0(5)
F1 C2 C1 110.4(5)
F2 C2 F1 107.3(5)
F2 C2 C1 111.0(5)
F3 C2 F1 107.8(5)
F3 C2 F2 107.9(5)
F3 C2 C1 112.3(5)
F1' C2' F3' 107.2(5)
F1' C2' C1' 109.4(5)
F2' C2' F1' 108.0(5)
F2' C2' F3' 107.8(5)
F2' C2' C1' 112.9(5)
F3' C2' C1' 111.4(5)
loop_
_geom_bond_atom_site_label_1
_geom_bond_atom_site_label_2
_geom_bond_distance
Co1 O1 2.122(4)
Co1 O1' 2.119(4)
Co1 O1S 2.079(4)
Co1 O2S 2.107(4)
Co1 O3S 2.065(4)
Co1 O4S 2.085(4)
F1 C2 1.334(7)
F1' C2' 1.338(7)
F2 C2 1.330(7)
F2' C2' 1.322(7)
F3 C2 1.328(7)
F3' C2' 1.338(7)
O1 C1 1.259(7)
O1' C1' 1.257(7)
O1S H1SA 0.8767
O1S H1SB 0.8768
O2 C1 1.230(7)
O2' C1' 1.238(6)
O2S H2SA 0.8715
O2S H2SB 0.8715
O3S H3SA 0.8703
O3S H3SB 0.8700
O4S H4SA 0.8726
O4S H4SB 0.8799
C1 C2 1.560(8)
C1' C2' 1.551(8)
loop_
_geom_hbond_atom_site_label_D
_geom_hbond_atom_site_label_H
_geom_hbond_atom_site_label_A
_geom_hbond_distance_DH
_geom_hbond_distance_HA
_geom_hbond_distance_DA
_geom_hbond_angle_DHA
_geom_hbond_site_symmetry_A
O1S H1SA O2S 0.88 2.04 2.766(5) 139.9 2_666
O1S H1SB O4S 0.88 2.05 2.760(5) 136.9 2_766
O2S H2SA O1 0.87 1.98 2.750(5) 146.3 2_666
O2S H2SB O2' 0.87 1.87 2.688(5) 154.9 2_676
O3S H3SA O2 0.87 1.94 2.702(6) 145.6 .
O3S H3SB O2' 0.87 2.02 2.752(6) 141.4 .
O4S H4SA O1' 0.87 2.03 2.770(5) 142.4 2_766
O4S H4SB O2 0.88 1.81 2.687(5) 178.4 2_667
loop_
_twin_individual_id
_twin_individual_mass_fraction_refined
1 0.486(2)
2 0.514(2)
