#------------------------------------------------------------------------------
#$Date: 2019-11-04 12:35:45 +0200 (Mon, 04 Nov 2019) $
#$Revision: 222751 $
#$URL: file:///home/coder/svn-repositories/cod/cif/4/03/42/4034208.cif $
#------------------------------------------------------------------------------
#
# This file is available in the Crystallography Open Database (COD),
# http://www.crystallography.net/
#
# All data on this site have been placed in the public domain by the
# contributors.
#
data_4034208
loop_
_publ_author_name
'Lian, Guifang'
'Li, Jingyu'
'Liu, Ping'
'Sun, Peipei'
_publ_section_title
;
 Photoredox-Catalyzed Radical Cascade Reaction To Synthesize Fluorinated
 Pyrrolo[1,2-<i>d</i>]benzodiazepine Derivatives.
;
_journal_issue                   14
_journal_name_full               'The Journal of organic chemistry'
_journal_page_first              9322
_journal_page_last               9329
_journal_paper_doi               10.1021/acs.joc.9b00937
_journal_volume                  84
_journal_year                    2019
_chemical_formula_moiety         'C12 H8 F2 N2 O'
_chemical_formula_sum            'C12 H8 F2 N2 O'
_chemical_formula_weight         234.20
_space_group_crystal_system      triclinic
_space_group_IT_number           2
_space_group_name_Hall           '-P 1'
_space_group_name_H-M_alt        'P -1'
_atom_sites_solution_hydrogens   geom
_audit_creation_date             2019-03-12
_audit_creation_method
;
Olex2 1.2
(compiled 2018.05.29 svn.r3508 for OlexSys, GUI svn.r5506)
;
_audit_update_record
;
2019-03-12 # Formatted by publCIF
;
_cell_angle_alpha                95.731(2)
_cell_angle_beta                 91.9300(10)
_cell_angle_gamma                112.487(4)
_cell_formula_units_Z            2
_cell_length_a                   7.6749(6)
_cell_length_b                   7.9266(7)
_cell_length_c                   9.5060(9)
_cell_measurement_reflns_used    1016
_cell_measurement_temperature    298(2)
_cell_measurement_theta_max      23.395
_cell_measurement_theta_min      2.802
_cell_volume                     530.04(8)
_computing_cell_refinement       'Bruker SMART'
_computing_data_collection       'Bruker SMART'
_computing_data_reduction        'Bruker SHELXTL'
_computing_molecular_graphics    'Olex2 (Dolomanov et al., 2009)'
_computing_publication_material  'Olex2 (Dolomanov et al., 2009)'
_computing_structure_refinement  'ShelXL (Sheldrick, 2015)'
_computing_structure_solution    'SHELXS-97 (Sheldrick, 1990)'
_diffrn_ambient_temperature      298.15
_diffrn_measured_fraction_theta_full 0.978
_diffrn_measured_fraction_theta_max 0.978
_diffrn_measurement_device_type  'CCD area detector'
_diffrn_measurement_method       'phi and omega scans'
_diffrn_radiation_type           MoK\a
_diffrn_radiation_wavelength     0.71073
_diffrn_reflns_av_R_equivalents  0.0301
_diffrn_reflns_av_unetI/netI     0.0401
_diffrn_reflns_Laue_measured_fraction_full 0.978
_diffrn_reflns_Laue_measured_fraction_max 0.978
_diffrn_reflns_limit_h_max       7
_diffrn_reflns_limit_h_min       -9
_diffrn_reflns_limit_k_max       9
_diffrn_reflns_limit_k_min       -9
_diffrn_reflns_limit_l_max       11
_diffrn_reflns_limit_l_min       -8
_diffrn_reflns_number            2675
_diffrn_reflns_point_group_measured_fraction_full 0.978
_diffrn_reflns_point_group_measured_fraction_max 0.978
_diffrn_reflns_theta_full        25.013
_diffrn_reflns_theta_max         25.013
_diffrn_reflns_theta_min         2.802
_exptl_absorpt_coefficient_mu    0.120
_exptl_absorpt_correction_T_max  0.9764
_exptl_absorpt_correction_T_min  0.9536
_exptl_absorpt_correction_type   multi-scan
_exptl_absorpt_process_details   sadabs
_exptl_crystal_colour            'clear light colourless'
_exptl_crystal_colour_lustre     clear
_exptl_crystal_colour_modifier   light
_exptl_crystal_colour_primary    colourless
_exptl_crystal_density_diffrn    1.467
_exptl_crystal_density_method    'not measured'
_exptl_crystal_description       plate
_exptl_crystal_F_000             240
_exptl_crystal_size_max          0.4
_exptl_crystal_size_mid          0.25
_exptl_crystal_size_min          0.2
_refine_diff_density_max         0.194
_refine_diff_density_min         -0.262
_refine_diff_density_rms         0.054
_refine_ls_extinction_method     none
_refine_ls_goodness_of_fit_ref   1.109
_refine_ls_hydrogen_treatment    constr
_refine_ls_matrix_type           full
_refine_ls_number_parameters     154
_refine_ls_number_reflns         1832
_refine_ls_number_restraints     0
_refine_ls_restrained_S_all      1.109
_refine_ls_R_factor_all          0.0761
_refine_ls_R_factor_gt           0.0585
_refine_ls_shift/su_max          0.000
_refine_ls_shift/su_mean         0.000
_refine_ls_structure_factor_coef Fsqd
_refine_ls_weighting_details
'w=1/[\s^2^(Fo^2^)+(0.1068P)^2^+0.0435P] where P=(Fo^2^+2Fc^2^)/3'
_refine_ls_weighting_scheme      calc
_refine_ls_wR_factor_gt          0.1798
_refine_ls_wR_factor_ref         0.1915
_reflns_Friedel_coverage         0.000
_reflns_number_gt                1304
_reflns_number_total             1832
_reflns_threshold_expression     'I > 2\s(I)'
_cod_data_source_file            jo9b00937_si_002.cif
_cod_data_source_block           190126h
_cod_database_code               4034208
_shelx_shelxl_version_number     2018/1
_shelx_space_group_comment
;
The symmetry employed for this shelxl refinement is uniquely defined
by the following loop, which should always be used as a source of
symmetry information in preference to the above space-group names.
They are only intended as comments.
;
_shelx_estimated_absorpt_t_max   0.976
_shelx_estimated_absorpt_t_min   0.954
_olex2_refinement_description
;
1. Fixed Uiso
 At 1.2 times of:
  All C(H) groups, All N(H) groups
2.a Aromatic/amide H refined with riding coordinates:
 N1(H1), C4(H4), C5(H5), C6(H6), C9(H9), C10(H10), C11(H11), C12(H12)
;
_shelx_res_file
;
TITL 190126h in P-1
    190126h.res
    created by SHELXL-2018/1 at 14:44:30 on 12-Mar-2019
CELL 0.71073 7.6749 7.9266 9.506 95.731 91.93 112.487
ZERR 2 0.0006 0.0007 0.0009 0.002 0.001 0.004
LATT 1
SFAC C H N O F
UNIT 24 16 4 2 4

L.S. 8
PLAN  20
SIZE 0.4 0.25 0.2
TEMP 25
BOND $h
conf
htab
fmap 2
acta
OMIT -1 50.04
REM <olex2.extras>
REM <HklSrc "%.\\190126h.hkl">
REM </olex2.extras>

WGHT    0.106800    0.043500
FVAR       0.81448
F1    5    0.210491    0.495603    0.598629    11.00000    0.10660    0.06418 =
         0.07914    0.03701    0.04219    0.03875
F2    5   -0.056015    0.256398    0.586682    11.00000    0.07661    0.08822 =
         0.06121    0.01649    0.00135    0.03990
N1    3   -0.021396    0.273634    0.888241    11.00000    0.06098    0.04418 =
         0.05095    0.00646    0.01949    0.02382
AFIX  43
H1    2   -0.041640    0.312278    0.971428    11.00000   -1.20000
AFIX   0
N2    3    0.161580    0.064142    0.720513    11.00000    0.05320    0.04547 =
         0.04818    0.00757    0.01311    0.02253
O1    4    0.145151    0.570922    0.859987    11.00000    0.08241    0.04197 =
         0.08056    0.00977    0.03314    0.02748
C1    1    0.082200    0.407919    0.813057    11.00000    0.05168    0.04482 =
         0.05981    0.01192    0.01567    0.02676
C2    1    0.117548    0.344783    0.662246    11.00000    0.05965    0.04667 =
         0.05490    0.01772    0.01481    0.02122
C3    1    0.227925    0.227573    0.661327    11.00000    0.05750    0.04959 =
         0.04517    0.00881    0.01638    0.02192
C4    1    0.404116    0.255440    0.617734    11.00000    0.05879    0.06038 =
         0.06045    0.00700    0.02302    0.02006
AFIX  43
H4    2    0.481848    0.355518    0.575417    11.00000   -1.20000
AFIX   0
C5    1    0.445215    0.105162    0.648794    11.00000    0.06039    0.08015 =
         0.06170    0.00191    0.01873    0.03632
AFIX  43
H5    2    0.555769    0.087600    0.630530    11.00000   -1.20000
AFIX   0
C6    1    0.296320   -0.010342    0.710032    11.00000    0.07002    0.06139 =
         0.05670    0.00765    0.01653    0.03880
AFIX  43
H6    2    0.286803   -0.121487    0.739993    11.00000   -1.20000
AFIX   0
C7    1   -0.017888   -0.020337    0.774743    11.00000    0.04751    0.04592 =
         0.04552    0.00895    0.00586    0.01864
C8    1   -0.102497    0.080256    0.853935    11.00000    0.04666    0.04458 =
         0.04873    0.00934    0.00852    0.01831
C9    1   -0.271880   -0.013233    0.913049    11.00000    0.04720    0.06186 =
         0.06785    0.01534    0.01262    0.02050
AFIX  43
H9    2   -0.328230    0.053611    0.966793    11.00000   -1.20000
AFIX   0
C10   1   -0.356840   -0.201666    0.893455    11.00000    0.04913    0.06775 =
         0.08837    0.02102    0.01411    0.00756
AFIX  43
H10   2   -0.468930   -0.261675    0.934463    11.00000   -1.20000
AFIX   0
C11   1   -0.275535   -0.301215    0.812986    11.00000    0.06827    0.04751 =
         0.08055    0.00576    0.00172    0.00599
AFIX  43
H11   2   -0.332756   -0.428974    0.799611    11.00000   -1.20000
AFIX   0
C12   1   -0.108846   -0.212337    0.751692    11.00000    0.07140    0.04403 =
         0.05826    0.00206    0.00573    0.01949
AFIX  43
H12   2   -0.056873   -0.280549    0.694816    11.00000   -1.20000
AFIX   0
HKLF 4




REM  190126h in P-1
REM R1 =  0.0585 for    1304 Fo > 4sig(Fo)  and  0.0761 for all    1832 data
REM    154 parameters refined using      0 restraints

END

WGHT      0.1069      0.0435

REM Instructions for potential hydrogen bonds
EQIV $1 -x, -y+1, -z+2
HTAB N1 O1_$1
EQIV $2 x, y-1, z
HTAB C6 O1_$2

REM Highest difference peak  0.194,  deepest hole -0.262,  1-sigma level  0.054
Q1    1  -0.3134 -0.2622  0.6062  11.00000  0.05    0.19
Q2    1   0.1250  0.0563  0.8117  11.00000  0.05    0.19
Q3    1   0.3753  0.3065  0.7192  11.00000  0.05    0.18
Q4    1  -0.0887  0.4193  1.0178  11.00000  0.05    0.17
Q5    1   0.3356  0.5342  0.6629  11.00000  0.05    0.17
Q6    1  -0.2018 -0.3016  0.9568  11.00000  0.05    0.17
Q7    1   0.1942  0.3324  0.9704  11.00000  0.05    0.17
Q8    1  -0.4493  0.0287  0.8922  11.00000  0.05    0.17
Q9    1   0.4181 -0.1977  0.6022  11.00000  0.05    0.16
Q10   1  -0.1980 -0.4921  0.8808  11.00000  0.05    0.15
Q11   1   0.5144 -0.0329  0.6454  11.00000  0.05    0.15
Q12   1  -0.5288 -0.4077  0.6855  11.00000  0.05    0.15
Q13   1  -0.0492  0.0152  0.6245  11.00000  0.05    0.15
Q14   1   0.0772  0.2023  0.6176  11.00000  0.05    0.15
Q15   1  -0.0157 -0.1961  0.8856  11.00000  0.05    0.15
Q16   1  -0.6414 -0.3594  0.9268  11.00000  0.05    0.14
Q17   1  -0.0210 -0.3499  0.7453  11.00000  0.05    0.14
Q18   1  -0.0300  0.5235  0.7899  11.00000  0.05    0.14
Q19   1  -0.2396  0.0177  0.8110  11.00000  0.05    0.14
Q20   1  -0.0897  0.2807  0.7069  11.00000  0.05    0.14
;
_shelx_res_checksum              7620
_shelx_hkl_file
;
   0   0   2 1290.81    9.47
   0   0   3    3.77    0.51
   0   0   4 1100.04   10.13
   0   0   5    6.75    0.81
   0   0   6   35.61    1.86
   0   0   7    9.49    1.13
   0   0   8    7.23    1.05
   0   0   9    0.34    0.59
   0   0  10    0.59    0.70
   0   0  11    0.65    0.77
   0   0  12    0.71    0.91
   0  -1  12    3.53    1.21
   0  -1  11    1.15    1.06
   0  -1  10    5.49    1.08
   0  -1   9    0.82    0.73
   0  -1   8    0.31    0.62
   0  -1   7    0.74    0.58
   0  -1   6   36.51    1.96
   0  -1   5   29.65    1.62
   0  -1   4  147.77    3.22
   0  -1   3  141.81    2.80
   0  -1   2  443.97    4.89
   0  -1   1   99.65    1.81
   0  -1   0  202.56    2.60
   0   1   1  624.85    5.35
   0   1   2 2533.69   16.77
   0   1   3 1113.53    9.39
   0   1   4  218.72    3.65
   0   1   5  518.16    6.77
   0   1   6    3.06    0.58
   0   1   7    1.11    0.64
   0   1   8    1.44    0.55
   0   1   9   -0.15    0.44
   0   1  10    0.12    0.49
   0   1  11    0.28    0.68
   0  -2  12    2.00    1.22
   0  -2  11   -0.26    0.93
   0  -2  10    2.04    0.87
   0  -2   9   39.92    2.68
   0  -2   8   23.03    1.94
   0  -2   7    2.94    0.82
   0  -2   6   12.24    1.27
   0  -2   5   36.24    1.95
   0  -2   4   76.00    2.57
   0  -2   3   18.52    1.13
   0  -2   2  142.51    3.04
   0  -2   1    2.14    0.39
   0  -2   0    2.62    0.44
   0  -2  -1  179.17    3.30
   0   2   2   32.99    1.21
   0   2   3   13.70    0.94
   0   2   4   61.35    2.08
   0   2   5   70.50    2.42
   0   2   6    5.56    0.80
   0   2   7   14.62    1.35
   0   2   8    1.99    0.72
   0   2   9    0.91    0.79
   0   2  10   -0.38    0.44
   0  -3  12    2.34    1.07
   0  -3  11    2.83    1.22
   0  -3  10   13.62    1.79
   0  -3   9    0.65    0.70
   0  -3   8   15.73    1.69
   0  -3   7   45.25    2.66
   0  -3   6    7.33    1.05
   0  -3   5   72.89    2.90
   0  -3   4   48.77    2.30
   0  -3   3  319.19    5.77
   0  -3   2  264.03    4.99
   0  -3   1   45.13    1.99
   0  -3   0  144.21    3.64
   0  -3  -1  170.14    3.81
   0   3   2   10.89    0.93
   0   3   3  229.16    4.10
   0   3   4   33.74    1.73
   0   3   5    3.50    0.72
   0   3   6    2.69    0.75
   0   3   7    5.31    0.92
   0   3   8    0.35    0.48
   0   3   9    1.34    0.74
   0  -4  12   -0.18    1.21
   0  -4  11    0.47    0.85
   0  -4  10    7.22    1.51
   0  -4   9   14.82    1.86
   0  -4   8    0.31    0.68
   0  -4   7   31.29    2.40
   0  -4   6   19.88    1.88
   0  -4   5   51.12    2.77
   0  -4   4  152.71    4.64
   0  -4   3    4.18    0.93
   0  -4   2    7.78    1.05
   0  -4   1  360.24    6.60
   0  -4   0  712.12    9.70
   0  -4  -1   33.61    1.97
   0   4   2   21.94    1.43
   0   4   3   37.81    1.82
   0   4   4    1.04    0.62
   0   4   5    0.55    0.43
   0   4   6  169.98    4.50
   0   4   7   10.06    1.27
   0   4   8    5.26    0.95
   0   4   9    7.58    1.20
   0  -5  11    0.53    1.27
   0  -5  10    0.19    0.90
   0  -5   9   13.98    1.96
   0  -5   8   15.58    1.94
   0  -5   7    1.51    1.02
   0  -5   6   -0.77    0.77
   0  -5   5   31.59    2.45
   0  -5   4   69.10    3.39
   0  -5   3   62.99    3.06
   0  -5   2    0.27    0.65
   0  -5   1   19.27    1.84
   0  -5   0    0.37    0.49
   0  -5  -1   56.89    2.86
   0   5   3    4.12    0.88
   0   5   4    9.87    1.13
   0   5   5    4.81    0.97
   0   5   6    3.83    0.94
   0   5   7    4.38    0.92
   0   5   8    0.94    0.54
   0  -6  10    4.10    1.37
   0  -6   9    0.76    0.99
   0  -6   8    7.55    1.52
   0  -6   7   65.83    4.05
   0  -6   6   12.37    1.87
   0  -6   5   13.84    1.86
   0  -6   4   19.95    2.04
   0  -6   3   47.93    2.94
   0  -6   2    6.68    1.35
   0  -6   1    3.11    1.10
   0  -6   0   25.71    2.13
   0  -6  -1    2.57    0.85
   0   6   2   -0.41    0.42
   0   6   3    1.49    0.85
   0   6   4    6.94    1.06
   0   6   5    9.10    1.38
   0   6   6    2.03    0.90
   0   6   7    1.86    0.74
   0  -7   9   -0.52    0.88
   0  -7   8    4.69    1.42
   0  -7   7    2.46    1.30
   0  -7   6    2.59    1.29
   0  -7   5    1.69    1.23
   0  -7   4    1.67    0.91
   0  -7   3   10.69    1.67
   0  -7   2    2.68    1.11
   0  -7   1   97.82    4.54
   0  -7   0   -0.78    0.63
   0  -7  -1    1.56    1.06
   0   7   2   -0.11    0.75
   0   7   3   19.83    1.93
   0   7   4    0.12    0.81
   0   7   5    1.48    0.83
   0   7   6    0.79    0.94
   0  -8   8    0.25    1.39
   0  -8   7   -0.16    0.99
   0  -8   6    2.72    1.12
   0  -8   5    0.50    1.13
   0  -8   4    0.17    0.88
   0  -8   3    9.99    2.04
   0  -8   2    0.04    0.81
   0  -8   1    1.53    0.86
   0  -8   0   -1.41    1.00
   0  -8  -1   15.24    2.07
   0   8   2    8.04    1.66
   0   8   3    3.81    1.19
   0   8   4    0.27    0.93
   0   8   5    3.22    1.12
   0  -9   6    1.48    1.23
   0  -9   5   -1.03    1.37
   0  -9   4    1.30    1.60
   0  -9   3    0.30    1.02
   0  -9   2   -0.42    0.81
   0  -9   1   -1.00    1.18
   0  -9   0    0.23    0.94
   0  -9  -1   -0.40    0.87
   0   9   2    3.41    1.53
   0   9   3    2.83    1.12
   1 -10   0    0.33    1.36
   1 -10   1    2.03    1.23
   1 -10   2    0.54    1.39
   1 -10   3    0.38    1.52
  -1   9   2    2.02    1.20
   1  -9  -1    2.40    1.34
   1  -9   0   -0.22    1.20
   1  -9   1   -0.62    1.04
   1  -9   3    0.56    1.02
   1  -9   4    2.06    1.45
   1  -9   5    3.19    1.58
   1  -9   6    2.77    1.49
   1  -9   7    7.92    2.18
  -1   8   3    5.45    1.35
  -1   8   2   13.99    1.77
   1  -8  -1    0.25    0.75
   1  -8   0    8.79    1.56
   1  -8   1    0.96    1.09
   1  -8   2    0.68    0.95
   1  -8   3    3.93    1.41
   1  -8   4   -0.17    0.74
   1  -8   5    1.18    1.00
   1  -8   6    0.24    0.89
   1  -8   7    0.58    0.91
   1  -8   8    1.08    1.39
  -1   7   4    4.78    1.04
  -1   7   3    5.92    1.25
   1  -7  -2   28.38    2.42
   1  -7  -1   15.69    1.78
   1  -7   0   11.27    1.60
   1  -7   1   21.16    2.33
   1  -7   2  113.17    4.88
   1  -7   3   51.22    3.22
   1  -7   4   43.51    3.16
   1  -7   5    0.89    1.05
   1  -7   6   15.91    2.05
   1  -7   7    0.77    0.89
   1  -7   8    1.18    1.21
   1  -7   9    4.87    1.44
   1  -7  10    6.62    1.93
  -1   6   5   16.57    1.54
  -1   6   4    8.92    1.13
  -1   6   3   39.82    2.40
   1  -6  -2    2.38    0.90
   1  -6  -1    1.82    0.73
   1  -6   0   -0.73    0.68
   1  -6   1   20.82    1.93
   1  -6   2   35.89    2.51
   1  -6   3   73.68    3.56
   1  -6   4    5.41    1.24
   1  -6   5    3.47    0.99
   1  -6   6    0.06    0.71
   1  -6   7   66.42    3.98
   1  -6   8   10.04    1.70
   1  -6   9    4.59    1.44
   1  -6  10    1.17    1.28
   1  -6  11   -0.23    1.26
  -1   5   6    2.64    0.78
  -1   5   5   66.66    2.76
  -1   5   4   41.41    2.02
  -1   5   3   90.31    3.11
   1  -5  -2  140.36    4.19
   1  -5  -1   20.58    1.54
   1  -5   0    3.55    0.89
   1  -5   1   11.10    1.25
   1  -5   2   11.73    1.28
   1  -5   3   58.11    2.90
   1  -5   4   65.42    3.23
   1  -5   5    4.62    0.99
   1  -5   6    0.49    0.64
   1  -5   7    4.20    1.20
   1  -5   8    5.44    1.21
   1  -5   9    4.56    1.19
   1  -5  10   -0.02    1.05
   1  -5  11   -0.56    1.13
  -1   4   7    0.79    0.55
  -1   4   6   63.76    2.60
  -1   4   5    1.36    0.55
  -1   4   4    0.72    0.38
  -1   4   3    0.49    0.38
   1  -4  -2  212.10    4.54
   1  -4  -1    9.56    0.90
   1  -4   0  179.29    4.19
   1  -4   1  150.55    3.79
   1  -4   2  450.21    7.22
   1  -4   4    7.92    1.06
   1  -4   5    1.13    0.69
   1  -4   6    0.93    0.56
   1  -4   7    7.10    1.18
   1  -4   8    2.32    0.86
   1  -4   9    0.31    0.89
   1  -4  10    0.29    0.74
   1  -4  11    0.71    1.12
   1  -4  12    0.13    1.20
  -1   3   8    0.10    0.55
  -1   3   7   -0.28    0.52
  -1   3   6    6.69    0.82
  -1   3   5    0.84    0.47
  -1   3   4    3.71    0.56
  -1   3   3    2.41    0.47
  -1   3   2   -0.04    0.28
   1  -3  -1    8.34    0.74
   1  -3   0    0.58    0.28
   1  -3   1   26.59    1.39
   1  -3   2    3.63    0.58
   1  -3   3   58.79    2.19
   1  -3   4  185.04    4.30
   1  -3   5   -0.10    0.42
   1  -3   6  108.45    3.81
   1  -3   7   12.19    1.44
   1  -3   8   16.16    1.74
   1  -3   9    4.12    1.06
   1  -3  10   23.51    2.31
   1  -3  11    0.66    1.02
   1  -3  12    0.30    1.14
  -1   2   9   -0.58    0.57
  -1   2   8    0.40    0.57
  -1   2   7    2.65    0.68
  -1   2   6    6.59    0.80
  -1   2   5   27.69    1.32
  -1   2   4   63.41    1.85
  -1   2   3    0.56    0.33
  -1   2   2   22.45    0.84
   1  -2  -1  387.95    4.21
   1  -2   0    6.91    0.54
   1  -2   1 1572.77   11.77
   1  -2   2  405.52    5.15
   1  -2   3  104.96    2.68
   1  -2   4   50.87    2.03
   1  -2   5    1.32    0.48
   1  -2   6   11.50    1.19
   1  -2   7    7.94    1.08
   1  -2   8   27.91    2.07
   1  -2   9   18.97    1.88
   1  -2  10    0.02    0.62
   1  -2  11    2.87    1.02
   1  -2  12    0.30    0.75
  -1   1  10    5.94    1.11
  -1   1   9    4.26    0.87
  -1   1   8    0.49    0.43
  -1   1   7   64.50    2.61
  -1   1   6    7.93    0.89
  -1   1   5   64.57    2.19
  -1   1   3 2188.10   14.78
   1  -1   1  461.18    4.31
   1  -1   2 2213.61   15.34
   1  -1   3 1715.96   13.39
   1  -1   4  529.52    6.78
   1  -1   5   39.51    1.89
   1  -1   6    0.60    0.43
   1  -1   8    0.40    0.61
   1  -1   9   16.27    1.66
   1  -1  10   17.20    1.85
   1  -1  11    0.83    0.68
   1  -1  12    0.37    0.88
  -1   0  10    0.17    0.72
  -1   0   9    1.54    0.75
  -1   0   8   10.12    1.22
  -1   0   7   24.18    1.68
  -1   0   6   12.73    1.13
  -1   0   5  144.37    3.33
  -1   0   4   67.50    1.98
  -1   0   3  198.04    3.02
  -1   0   2  623.91    5.60
   1   0   0 2021.64   14.89
   1   0   1  735.73    6.16
   1   0   2 3185.50   20.75
   1   0   3  384.87    4.87
   1   0   4   33.46    1.60
   1   0   5   18.52    1.31
   1   0   6   27.45    1.73
   1   0   7   58.24    2.72
   1   0   8    9.01    1.18
   1   0   9    3.41    0.96
   1   0  10    0.74    0.56
   1   0  11    3.47    1.00
   1   0  12    2.33    1.01
  -1  -1  11   17.19    2.05
  -1  -1  10    0.25    0.89
  -1  -1   9    5.41    1.15
  -1  -1   8   -0.07    0.68
  -1  -1   7    8.38    1.11
  -1  -1   6    2.07    0.64
  -1  -1   5   13.05    1.11
  -1  -1   4   42.06    1.76
  -1  -1   3    2.31    0.40
  -1  -1   2  100.23    2.32
  -1  -1   1   15.24    0.83
  -1  -1   0 1514.38   11.34
   1   1   1   56.83    1.57
   1   1   2   40.20    1.48
   1   1   3  330.41    4.82
   1   1   4  264.29    4.68
   1   1   5   20.86    1.37
   1   1   6  155.42    4.03
   1   1   7   50.16    2.42
   1   1   8    9.72    1.23
   1   1   9   12.21    1.42
   1   1  10    0.06    0.49
   1   1  11    1.12    0.90
   1   1  12    0.88    0.83
  -1  -2  12   -0.17    1.13
  -1  -2  11    8.41    1.49
  -1  -2  10    1.24    0.94
  -1  -2   9    1.69    0.78
  -1  -2   8  194.64    5.61
  -1  -2   7   11.06    1.38
  -1  -2   6  285.21    5.90
  -1  -2   5   26.42    1.68
  -1  -2   4  166.76    4.02
  -1  -2   3  125.45    3.32
  -1  -2   2  214.01    4.11
  -1  -2   1   51.59    1.93
  -1  -2   0    7.89    0.74
  -1  -2  -1  215.29    4.18
   1   2   2    0.26    0.36
   1   2   3   70.14    2.40
   1   2   4   22.19    1.43
   1   2   5  128.63    3.67
   1   2   6    4.77    0.77
   1   2   7   32.71    1.97
   1   2   8   30.13    2.05
   1   2   9    2.55    0.72
   1   2  10    0.80    0.72
   1   2  11    1.12    0.78
  -1  -3  12    0.85    1.24
  -1  -3  11    3.50    1.19
  -1  -3  10    1.15    0.83
  -1  -3   9    3.47    1.13
  -1  -3   8    0.67    0.87
  -1  -3   7   67.00    3.36
  -1  -3   6   88.66    3.65
  -1  -3   5   23.36    1.83
  -1  -3   4  286.77    5.98
  -1  -3   3  556.62    8.26
  -1  -3   2   14.42    1.29
  -1  -3   1  132.67    3.82
  -1  -3   0  299.64    5.41
  -1  -3  -1   18.98    1.35
   1   3   2   43.23    2.07
   1   3   3  355.08    5.69
   1   3   4    1.81    0.57
   1   3   5    1.07    0.64
   1   3   6    1.09    0.59
   1   3   7   -0.28    0.62
   1   3   8   11.34    1.27
   1   3   9   11.04    1.48
   1   3  10    8.18    1.21
   1   3  11    1.56    0.87
  -1  -4  11    6.00    1.51
  -1  -4  10    0.23    1.10
  -1  -4   9    0.92    0.82
  -1  -4   8   16.77    2.04
  -1  -4   7    2.51    0.90
  -1  -4   6   11.29    1.49
  -1  -4   5   43.99    2.74
  -1  -4   4    1.65    0.66
  -1  -4   3    4.60    0.90
  -1  -4   2  144.84    4.44
  -1  -4   1   93.09    3.63
  -1  -4   0    8.95    1.06
  -1  -4  -1    1.30    0.58
   1   4   2    6.21    1.02
   1   4   3    2.06    0.58
   1   4   4    2.11    0.67
   1   4   5    1.59    0.79
   1   4   6   51.25    2.67
   1   4   7    1.77    0.91
   1   4   8   11.52    1.35
   1   4   9    8.55    1.21
   1   4  10    0.93    0.84
  -1  -5  11    1.79    1.47
  -1  -5  10    3.55    1.23
  -1  -5   9    3.03    1.36
  -1  -5   8    8.10    1.52
  -1  -5   7   45.91    3.33
  -1  -5   6   59.96    3.53
  -1  -5   5   50.08    3.08
  -1  -5   4   16.58    1.87
  -1  -5   3    4.00    1.05
  -1  -5   2   72.49    3.55
  -1  -5   1   -0.42    0.69
  -1  -5   0   -0.05    0.47
  -1  -5  -1    2.95    0.79
   1   5   2    1.22    0.73
   1   5   3    5.40    0.90
   1   5   4    1.29    0.76
   1   5   5    0.51    0.57
   1   5   6    0.58    0.74
   1   5   7    0.91    0.84
   1   5   8    2.42    0.96
   1   5   9   -0.10    0.72
  -1  -6  10   -0.23    1.35
  -1  -6   9    0.18    0.93
  -1  -6   8    8.57    1.69
  -1  -6   7   19.41    2.38
  -1  -6   6    1.01    0.87
  -1  -6   5   49.53    3.47
  -1  -6   4    4.70    1.30
  -1  -6   3    3.86    1.11
  -1  -6   2   63.33    3.81
  -1  -6   1    7.33    1.44
  -1  -6   0   49.39    3.11
  -1  -6  -1   22.13    2.09
   1   6   2    6.63    1.25
   1   6   3   13.15    1.60
   1   6   4    2.73    0.83
   1   6   5    2.08    0.95
   1   6   6   -0.13    0.76
   1   6   7    0.85    0.68
   1   6   8    0.39    0.92
  -1  -7   9    0.83    1.42
  -1  -7   8   -0.26    1.26
  -1  -7   7    0.69    1.02
  -1  -7   6    6.46    1.46
  -1  -7   5    1.42    0.97
  -1  -7   4    6.17    1.61
  -1  -7   3    0.25    1.18
  -1  -7   2    0.20    0.75
  -1  -7   1    5.05    1.17
  -1  -7   0    1.05    1.05
  -1  -7  -1    0.61    0.90
   1   7   2    2.75    1.06
   1   7   3    0.11    0.54
   1   7   4   -0.41    0.58
   1   7   5   -0.23    0.96
   1   7   6   -0.33    0.99
  -1  -8   7   -0.19    0.94
  -1  -8   6    4.37    1.48
  -1  -8   5    0.23    1.23
  -1  -8   4    0.64    1.39
  -1  -8   3    2.32    1.39
  -1  -8   2    0.72    1.15
  -1  -8   1    3.17    1.21
  -1  -8   0    0.59    1.20
   1   8   2    0.73    0.94
   1   8   3    1.16    1.05
   1   8   4    0.40    1.04
  -1  -9   4    0.26    1.50
  -1  -9   3   -0.48    0.91
  -1  -9   2    0.97    1.33
  -1  -9   1    0.47    1.33
  -1  -9   0   -0.50    0.99
   1   9   1    3.77    1.60
   2 -10   1   -1.04    1.12
   2 -10   2   -0.85    0.88
   2 -10   3    3.94    1.81
   2 -10   4    0.59    1.23
   2  -9   0    0.09    1.02
   2  -9   1    0.55    1.14
   2  -9   2    3.96    1.58
   2  -9   3    0.95    1.23
   2  -9   4    2.29    1.34
   2  -9   5    4.12    1.57
   2  -9   6    1.23    1.49
   2  -9   7    3.00    1.64
   2  -8  -1   44.95    3.11
   2  -8   0    0.01    0.61
   2  -8   1    8.22    1.64
   2  -8   2    3.61    1.14
   2  -8   3   30.25    2.65
   2  -8   4    0.82    1.12
   2  -8   5    2.94    1.07
   2  -8   6    8.28    1.80
   2  -8   7    0.64    1.32
   2  -8   8    1.49    1.07
   2  -8   9    0.31    1.39
   2  -7  -2   30.79    2.38
   2  -7  -1   49.29    2.83
   2  -7   0   36.83    2.61
   2  -7   1   12.59    1.70
   2  -7   2   44.06    2.87
   2  -7   3   18.75    2.04
   2  -7   4  100.39    4.58
   2  -7   5    3.43    1.27
   2  -7   6    1.73    1.14
   2  -7   7    1.40    1.18
   2  -7   8    8.16    1.78
   2  -7   9    2.98    1.20
   2  -7  10    2.33    1.50
  -2   6   3   14.99    1.38
   2  -6  -2    5.06    0.98
   2  -6  -1   24.92    1.79
   2  -6   0   -0.49    0.69
   2  -6   1   48.80    2.64
   2  -6   2  204.34    5.54
   2  -6   3   55.79    3.01
   2  -6   4   33.85    2.44
   2  -6   5   20.76    2.09
   2  -6   6   42.11    2.96
   2  -6   7   17.65    2.12
   2  -6   8   -0.77    1.00
   2  -6   9    4.84    1.52
   2  -6  10   -0.66    0.79
   2  -6  11    1.15    1.04
  -2   5   4  145.23    3.52
  -2   5   3    4.66    0.69
   2  -5  -2  114.65    3.34
   2  -5  -1   33.01    1.84
   2  -5   0   82.56    3.03
   2  -5   1    1.18    0.61
   2  -5   2    0.32    0.43
   2  -5   3    7.16    1.06
   2  -5   4  230.18    5.78
   2  -5   6    9.66    1.43
   2  -5   7    8.55    1.41
   2  -5   8   14.54    1.80
   2  -5   9    0.50    1.01
   2  -5  10    3.91    1.37
   2  -5  11    0.30    0.83
  -2   4   5   28.20    1.51
  -2   4   4    1.61    0.51
  -2   4   3    0.96    0.40
   2  -4  -2   15.28    1.10
   2  -4  -1  343.03    5.24
   2  -4   0    7.89    0.88
   2  -4   1   37.65    1.81
   2  -4   2   37.17    1.89
   2  -4   3   35.75    1.88
   2  -4   4   13.92    1.36
   2  -4   5    7.96    1.08
   2  -4   6   23.08    1.90
   2  -4   7    8.75    1.38
   2  -4   8    3.12    0.97
   2  -4   9    7.07    1.34
   2  -4  10    0.65    0.77
   2  -4  11    0.52    0.86
   2  -4  12    1.56    1.02
  -2   3   6   45.27    1.85
  -2   3   5   11.16    0.81
  -2   3   4   -0.01    0.28
  -2   3   3   65.43    1.68
  -2   3   2   27.36    1.00
   2  -3  -1  366.23    4.61
   2  -3   0  208.97    3.37
   2  -3   1  282.96    4.25
   2  -3   2   16.69    1.07
   2  -3   3   15.57    1.16
   2  -3   4   25.44    1.60
   2  -3   5  276.59    5.70
   2  -3   6   60.08    2.79
   2  -3   7    7.77    1.15
   2  -3   8    0.28    0.80
   2  -3   9    1.09    0.91
   2  -3  10   17.08    2.01
   2  -3  11   -0.47    0.94
   2  -3  12    0.02    1.10
  -2   2   7    5.65    0.83
  -2   2   6   16.75    1.14
  -2   2   5   11.37    0.88
  -2   2   4  829.34    7.21
  -2   2   3  109.13    1.83
   2  -2   0  746.00    6.28
   2  -2   1  792.72    6.96
   2  -2   2  357.97    4.66
   2  -2   3    6.72    0.74
   2  -2   4   35.85    1.72
   2  -2   5   46.26    2.13
   2  -2   6   64.26    2.71
   2  -2   7   67.89    3.02
   2  -2   8   20.48    1.83
   2  -2   9    0.72    0.58
   2  -2  10    7.73    1.39
   2  -2  11    1.14    0.91
   2  -2  12   -0.34    0.69
  -2   1   8   10.41    1.19
  -2   1   7   45.09    2.13
  -2   1   6   13.15    1.08
  -2   1   3  640.00    5.73
   2  -1   0  109.39    1.63
   2  -1   1 2421.88   16.05
   2  -1   2  721.90    7.07
   2  -1   3  231.61    4.01
   2  -1   4  779.17    8.68
   2  -1   5  352.47    6.58
   2  -1   6    3.50    0.71
   2  -1   7   10.97    1.27
   2  -1   8    1.32    0.67
   2  -1   9    6.80    1.12
   2  -1  10   12.42    1.54
   2  -1  11    1.92    0.83
   2  -1  12    1.03    0.73
  -2   0   9   33.29    2.35
  -2   0   8   20.03    1.72
  -2   0   7   42.55    2.25
  -2   0   6    3.00    0.68
  -2   0   5  125.41    3.15
  -2   0   4   33.09    1.44
  -2   0   3   68.86    1.84
  -2   0   2  122.17    2.22
  -2   0   1   73.66    1.63
   2   0   0    1.23    0.33
   2   0   1   31.68    1.25
   2   0   2  316.76    4.56
   2   0   3   31.21    1.53
   2   0   4    4.78    0.76
   2   0   5    2.15    0.59
   2   0   6   18.64    1.47
   2   0   7    8.66    1.18
   2   0   8    0.13    0.82
   2   0   9    0.06    0.63
   2   0  10    0.67    0.62
   2   0  11    1.86    0.94
   2   0  12    2.50    1.00
  -2  -1  10    3.88    1.03
  -2  -1   9   13.49    1.65
  -2  -1   8   23.77    1.98
  -2  -1   7   35.51    2.21
  -2  -1   6    3.40    0.76
  -2  -1   5   61.44    2.46
  -2  -1   4  529.38    7.07
  -2  -1   3  472.75    6.30
  -2  -1   2  102.93    2.53
  -2  -1   1    1.56    0.37
  -2  -1   0  217.09    3.76
   2   1   1   86.21    2.22
   2   1   2  150.99    3.38
   2   1   3    0.14    0.35
   2   1   4  280.32    5.30
   2   1   5  276.00    5.54
   2   1   6    4.35    0.87
   2   1   7   12.46    1.37
   2   1   8   11.65    1.38
   2   1   9    2.59    0.91
   2   1  10    0.69    0.60
   2   1  11    0.08    0.57
  -2  -2  10   13.35    1.87
  -2  -2   9   21.86    2.09
  -2  -2   8   73.59    3.62
  -2  -2   7   25.95    2.10
  -2  -2   6  207.85    5.36
  -2  -2   5    0.47    0.47
  -2  -2   4   30.47    1.84
  -2  -2   3  157.54    3.86
  -2  -2   2   12.30    1.14
  -2  -2   1    2.72    0.58
  -2  -2   0  221.04    4.58
   2   2   1   24.27    1.46
   2   2   2  273.42    4.84
   2   2   3   11.68    1.14
   2   2   4    0.62    0.64
   2   2   5   46.67    2.35
   2   2   6  109.26    3.78
   2   2   7   87.11    3.40
   2   2   8    2.07    0.81
   2   2   9    9.15    1.36
   2   2  10    7.54    1.31
   2   2  11    1.16    0.84
  -2  -3  11    1.43    1.28
  -2  -3  10   10.97    1.84
  -2  -3   9    0.62    1.02
  -2  -3   8   81.52    4.11
  -2  -3   7   44.04    2.88
  -2  -3   6   -0.11    0.77
  -2  -3   5   63.30    3.10
  -2  -3   4  125.81    4.06
  -2  -3   3   22.27    1.72
  -2  -3   2   20.24    1.66
  -2  -3   1   -0.02    0.56
  -2  -3   0    0.17    0.42
  -2  -3  -1    3.03    0.70
   2   3   2    7.25    0.92
   2   3   3   84.04    3.00
   2   3   4    3.20    0.86
   2   3   5    3.69    0.79
   2   3   6    7.96    1.18
   2   3   7   10.08    1.42
   2   3   8    1.01    0.70
   2   3   9   12.24    1.54
   2   3  10    5.94    1.14
  -2  -4  11    0.83    1.34
  -2  -4  10    0.72    1.26
  -2  -4   9    0.93    1.08
  -2  -4   8    5.39    1.39
  -2  -4   7    1.24    1.01
  -2  -4   6    4.11    1.04
  -2  -4   5   71.53    3.54
  -2  -4   4   10.78    1.51
  -2  -4   3  144.06    4.79
  -2  -4   2    0.97    0.84
  -2  -4   1    9.68    1.20
  -2  -4   0   30.69    2.19
  -2  -4  -1    1.83    0.71
   2   4   2    7.37    1.12
   2   4   3    1.05    0.56
   2   4   4    8.48    1.24
   2   4   5    2.89    0.87
   2   4   6    4.93    1.01
   2   4   7    0.14    0.77
   2   4   8    0.43    0.76
   2   4   9   -0.18    0.55
  -2  -5  10    0.04    1.28
  -2  -5   9    0.31    1.14
  -2  -5   8    0.45    1.09
  -2  -5   7    0.72    0.78
  -2  -5   6   10.04    1.72
  -2  -5   5  170.21    5.85
  -2  -5   4    4.11    1.18
  -2  -5   3  178.14    6.17
  -2  -5   2   77.10    3.86
  -2  -5   1    9.76    1.43
  -2  -5   0   14.42    1.68
  -2  -5  -1   15.97    1.86
   2   5   2   35.71    2.60
   2   5   3   22.41    1.96
   2   5   4    8.83    1.39
   2   5   5    0.78    0.83
   2   5   6    0.06    0.75
   2   5   7    0.54    0.83
   2   5   8   -0.03    0.89
  -2  -6   9    4.83    1.68
  -2  -6   8    0.86    1.20
  -2  -6   7    0.07    0.86
  -2  -6   6    0.77    1.04
  -2  -6   5    1.14    1.16
  -2  -6   4    2.62    1.14
  -2  -6   3   25.18    2.60
  -2  -6   2   25.87    2.41
  -2  -6   1   16.60    1.94
  -2  -6   0   64.75    3.83
   2   6   2   -0.09    0.98
   2   6   3    8.48    1.36
   2   6   4    1.26    0.78
   2   6   5    0.63    0.95
   2   6   6   -0.42    0.85
   2   6   7    0.21    0.94
  -2  -7   8    0.18    0.93
  -2  -7   7    7.14    1.69
  -2  -7   6    0.12    0.87
  -2  -7   5    3.17    1.48
  -2  -7   4    1.10    0.96
  -2  -7   3    0.14    1.09
  -2  -7   2   10.80    1.67
  -2  -7   1    1.35    1.19
  -2  -7   0    0.97    0.89
   2   7   1    0.02    0.96
   2   7   2    7.69    1.74
   2   7   3    0.67    1.00
   2   7   4    1.14    0.90
   2   7   5    0.28    0.77
  -2  -8   6   -0.06    1.18
  -2  -8   5    1.15    1.51
  -2  -8   4    0.04    1.31
  -2  -8   3    1.03    0.91
  -2  -8   2    2.10    1.41
  -2  -8   1   -0.60    1.21
  -2  -8   0    0.95    1.09
   2   8   1    1.59    1.38
   2   8   2    0.32    0.87
   2   8   3    0.40    0.85
   3 -10   3    0.34    1.42
   3 -10   4    0.01    1.04
   3 -10   5   -0.02    1.42
   3  -9   2    1.09    1.25
   3  -9   3    6.79    1.65
   3  -9   4    0.99    0.91
   3  -9   5   -0.58    1.15
   3  -9   6   -0.26    0.84
   3  -9   7    0.44    1.11
   3  -8   1    1.67    1.12
   3  -8   2    3.27    1.16
   3  -8   3   33.07    2.78
   3  -8   4    3.10    1.23
   3  -8   5    2.79    1.24
   3  -8   6    0.74    0.87
   3  -8   7    3.17    1.41
   3  -8   8    0.39    1.01
   3  -8   9    0.29    1.41
   3  -7   0   57.13    3.23
   3  -7   1   13.64    1.56
   3  -7   2   -0.04    0.78
   3  -7   3   47.27    3.01
   3  -7   4    9.52    1.54
   3  -7   5    1.75    0.87
   3  -7   6    2.83    1.19
   3  -7   7    0.58    0.81
   3  -7   8    3.28    1.47
   3  -7   9    0.25    0.94
   3  -7  10   -0.76    1.26
   3  -6  -1    2.66    0.88
   3  -6   0   74.18    3.07
   3  -6   1  114.30    3.81
   3  -6   2   15.49    1.55
   3  -6   3    3.09    0.95
   3  -6   4   75.65    3.52
   3  -6   5   11.41    1.58
   3  -6   6   20.89    2.13
   3  -6   7    0.72    0.93
   3  -6   8    1.35    0.90
   3  -6   9    0.44    0.79
   3  -6  10    2.15    1.08
   3  -5  -2   43.87    1.85
   3  -5  -1    2.49    0.68
   3  -5   0    5.20    0.80
   3  -5   1   10.60    1.11
   3  -5   2    1.03    0.59
   3  -5   3   13.49    1.32
   3  -5   4   17.02    1.56
   3  -5   5   17.26    1.72
   3  -5   6    8.97    1.40
   3  -5   7    3.09    0.94
   3  -5   8    7.47    1.38
   3  -5   9   11.34    1.74
   3  -5  10   -1.09    1.05
   3  -5  11    4.10    1.31
   3  -4  -1    1.45    0.48
   3  -4   0   71.66    2.17
   3  -4   1   46.54    1.88
   3  -4   2   97.14    2.89
   3  -4   3    1.77    0.63
   3  -4   4    1.35    0.64
   3  -4   5   26.57    1.92
   3  -4   6    2.82    0.96
   3  -4   7   -0.49    0.53
   3  -4   8    2.27    0.88
   3  -4   9   26.45    2.52
   3  -4  10    5.27    1.46
   3  -4  11    0.30    0.81
   3  -3  -1  838.23    7.03
   3  -3   0  493.94    5.18
   3  -3   1  115.75    2.59
   3  -3   2  217.48    3.93
   3  -3   3   43.71    1.95
   3  -3   4   -0.39    0.50
   3  -3   5  115.58    3.75
   3  -3   6    0.99    0.58
   3  -3   7   28.56    2.20
   3  -3   8   10.58    1.44
   3  -3   9    0.48    0.85
   3  -3  10    2.91    0.96
   3  -3  11    0.78    0.78
  -3   2   4  150.40    2.41
   3  -2   0  254.72    3.10
   3  -2   1  240.23    3.44
   3  -2   2   58.88    1.88
   3  -2   3  209.12    4.14
   3  -2   4  386.16    6.23
   3  -2   5    0.42    0.60
   3  -2   6   41.61    2.45
   3  -2   7   71.78    3.33
   3  -2   8    0.28    0.55
   3  -2   9    0.87    0.63
   3  -2  10    1.19    0.75
   3  -2  11    1.74    0.99
  -3   1   6   55.29    2.18
  -3   1   5    0.81    0.42
  -3   1   4   96.44    2.20
  -3   1   3    3.63    0.39
  -3   1   2  127.22    1.98
   3  -1  -1   46.92    1.14
   3  -1   0  123.66    2.25
   3  -1   1   24.44    1.16
   3  -1   2  310.51    4.61
   3  -1   3   74.58    2.37
   3  -1   4  101.48    3.11
   3  -1   5   -0.08    0.40
   3  -1   6    0.16    0.62
   3  -1   7   13.24    1.54
   3  -1   8    0.56    0.72
   3  -1   9   -0.17    0.73
   3  -1  10    1.04    0.74
   3  -1  11    0.36    0.62
  -3   0   7   84.86    3.18
  -3   0   6  136.53    3.76
  -3   0   5   36.57    1.80
  -3   0   4    0.53    0.39
  -3   0   3   23.71    1.25
  -3   0   2    9.66    0.76
  -3   0   1  253.49    3.98
   3   0   0    0.04    0.28
   3   0   1   27.62    1.40
   3   0   2  121.96    3.03
   3   0   3   83.31    2.82
   3   0   4    4.60    0.83
   3   0   5   12.28    1.20
   3   0   6    0.21    0.48
   3   0   7    3.37    0.93
   3   0   8    8.84    1.32
   3   0   9    0.20    0.88
   3   0  10   -0.22    0.69
   3   0  11    1.01    0.93
  -3  -1   8    7.78    1.32
  -3  -1   7  140.66    4.55
  -3  -1   6   23.64    1.83
  -3  -1   5    8.32    1.07
  -3  -1   4   69.50    2.55
  -3  -1   3  548.87    7.35
  -3  -1   2  159.45    3.75
  -3  -1   1  205.19    4.21
   3   1   0  111.02    2.92
   3   1   1   59.99    2.12
   3   1   3   18.38    1.38
   3   1   4   27.91    1.83
   3   1   5   46.97    2.47
   3   1   6    8.23    1.17
   3   1   7    8.83    1.18
   3   1   8    1.06    0.63
   3   1   9    0.88    0.78
   3   1  10    2.19    0.90
   3   1  11    0.99    0.70
  -3  -2   9   10.20    1.70
  -3  -2   8    0.62    0.73
  -3  -2   7   57.53    3.19
  -3  -2   6   27.32    2.11
  -3  -2   5   10.39    1.23
  -3  -2   4   46.00    2.43
  -3  -2   3    6.21    0.97
  -3  -2   2   25.44    1.73
  -3  -2   1   23.20    1.59
  -3  -2   0   86.36    3.12
   3   2   1   22.41    1.63
   3   2   2   23.06    1.60
   3   2   3   15.84    1.42
   3   2   4   44.99    2.42
   3   2   5    8.21    1.13
   3   2   6   13.99    1.60
   3   2   7    4.90    0.96
   3   2   8    6.92    1.19
   3   2   9   -0.64    0.72
   3   2  10    0.46    0.65
  -3  -3   9    2.85    1.29
  -3  -3   8   42.21    3.17
  -3  -3   7   -0.48    0.63
  -3  -3   6   47.41    2.89
  -3  -3   5   31.51    2.36
  -3  -3   4    0.44    0.69
  -3  -3   3   77.52    3.55
  -3  -3   2   13.83    1.47
  -3  -3   1    6.13    0.99
  -3  -3   0   12.87    1.41
   3   3   1    9.30    1.22
   3   3   2    3.59    0.84
   3   3   3    0.20    0.48
   3   3   4   -0.23    0.66
   3   3   5    6.39    1.07
   3   3   6    0.41    0.77
   3   3   7    4.37    1.15
   3   3   8    1.34    0.68
   3   3   9    0.44    0.75
  -3  -4  10    4.93    1.46
  -3  -4   9    1.07    1.23
  -3  -4   8    4.73    1.24
  -3  -4   7    3.10    1.06
  -3  -4   6    2.81    1.13
  -3  -4   5    5.83    1.28
  -3  -4   4    7.76    1.32
  -3  -4   3  132.21    4.97
  -3  -4   2   59.09    3.07
  -3  -4   1  304.31    7.25
  -3  -4   0   81.03    3.66
   3   4   1   18.95    1.85
   3   4   2    1.69    0.82
   3   4   3    2.16    0.92
   3   4   4    0.04    0.86
   3   4   5    0.84    0.69
   3   4   6    0.05    0.59
   3   4   7    0.08    0.63
   3   4   8    0.41    0.86
   3   4   9    0.10    0.62
  -3  -5  10    1.13    1.44
  -3  -5   9    3.09    1.51
  -3  -5   8    3.55    1.47
  -3  -5   7    2.45    1.17
  -3  -5   6   -0.35    0.68
  -3  -5   5    2.11    1.16
  -3  -5   4    0.43    0.83
  -3  -5   3   31.84    2.73
  -3  -5   2   11.43    1.66
  -3  -5   1   -0.32    0.88
  -3  -5   0   18.18    1.99
   3   5   1    3.78    1.10
   3   5   2    9.81    1.61
   3   5   3   34.43    2.64
   3   5   4    7.87    1.53
   3   5   5    7.86    1.45
   3   5   6    0.24    0.67
   3   5   7   -0.13    0.88
  -3  -6   8    0.39    0.98
  -3  -6   7    4.90    1.58
  -3  -6   6    2.05    1.04
  -3  -6   5    3.88    1.34
  -3  -6   4    0.28    1.06
  -3  -6   3    0.90    0.82
  -3  -6   2   -0.19    0.96
  -3  -6   1    6.18    1.33
  -3  -6   0    0.08    0.76
   3   6   1    1.86    1.01
   3   6   2    1.21    0.77
   3   6   3    0.74    0.81
   3   6   4    0.54    0.81
   3   6   5    0.71    0.84
   3   6   6    0.41    1.04
  -3  -7   7    1.12    1.62
  -3  -7   6    2.15    1.66
  -3  -7   5    8.39    1.99
  -3  -7   4    3.87    1.55
  -3  -7   3    0.06    1.03
  -3  -7   2    9.77    1.95
  -3  -7   1    2.29    1.28
   3   7   0    9.72    1.73
   3   7   1   -0.11    1.23
   3   7   2    0.71    0.77
   3   7   3    0.53    1.15
   3   7   4    0.55    1.27
  -3  -8   3    6.34    1.90
  -3  -8   2    0.68    1.44
  -3  -8   1    0.40    1.48
   3   8   0    2.68    1.61
   4 -10   5    2.78    1.62
   4  -9   4    9.62    1.81
   4  -9   5   -0.25    0.92
   4  -9   6    0.16    1.23
   4  -9   7    6.93    1.88
   4  -8   3   63.62    3.67
   4  -8   4    1.11    1.04
   4  -8   5    3.71    1.29
   4  -8   6    0.13    1.14
   4  -8   7    1.73    1.27
   4  -8   8    0.09    1.27
   4  -7   2   25.71    2.13
   4  -7   3    5.30    1.20
   4  -7   4   -0.83    0.76
   4  -7   5    1.96    1.03
   4  -7   6    9.39    1.67
   4  -7   7   -0.06    0.82
   4  -7   8    3.37    1.37
   4  -7   9    1.99    1.40
   4  -6   1   79.43    3.13
   4  -6   2    8.73    1.20
   4  -6   3   10.36    1.33
   4  -6   4    4.30    1.03
   4  -6   5    5.30    1.13
   4  -6   6   57.53    3.39
   4  -6   7    0.54    0.78
   4  -6   8    8.24    1.53
   4  -6   9    0.93    1.24
   4  -6  10    2.40    1.44
   4  -5   0  122.38    3.13
   4  -5   1   86.86    2.85
   4  -5   2   24.77    1.64
   4  -5   3    0.51    0.61
   4  -5   4    0.46    0.48
   4  -5   5    0.95    0.64
   4  -5   6   13.80    1.64
   4  -5   7    9.57    1.61
   4  -5   8   15.97    1.97
   4  -5   9   -0.45    1.09
   4  -5  10   11.02    1.86
   4  -5  11    2.07    1.16
   4  -4  -1   45.44    1.34
   4  -4   0   11.22    0.86
   4  -4   1   30.08    1.47
   4  -4   2   59.10    2.29
   4  -4   3   84.66    2.98
   4  -4   4   16.69    1.48
   4  -4   5    5.57    0.95
   4  -4   6   13.69    1.59
   4  -4   7   -0.27    0.76
   4  -4   8    3.41    0.98
   4  -4   9   31.53    2.69
   4  -4  10    0.11    1.06
   4  -4  11    4.17    1.49
   4  -3   0  155.16    2.62
   4  -3   1  442.02    5.50
   4  -3   3  134.36    3.48
   4  -3   5   12.36    1.33
   4  -3   6   74.12    3.24
   4  -3   7    2.37    0.93
   4  -3   8    0.42    0.84
   4  -3   9    2.05    0.89
   4  -3  10    9.16    1.66
   4  -3  11    1.76    1.16
   4  -2  -1  103.93    1.71
   4  -2   0   93.41    2.02
   4  -2   1    2.02    0.46
   4  -2   2   65.95    2.25
   4  -2   3   63.64    2.39
   4  -2   4    1.56    0.67
   4  -2   5    3.84    0.89
   4  -2   6  140.94    4.56
   4  -2   7   24.36    2.07
   4  -2   8   23.68    2.15
   4  -2   9   -0.39    0.82
   4  -2  10    1.23    0.95
   4  -2  11   -0.03    0.60
  -4   1   3   77.77    1.80
   4  -1  -2    6.27    0.63
   4  -1  -1  360.35    4.56
   4  -1   0   24.65    1.23
   4  -1   1   53.62    2.00
   4  -1   2  226.61    4.47
   4  -1   3   44.16    2.05
   4  -1   4    2.19    0.61
   4  -1   5    4.56    0.87
   4  -1   6   14.16    1.50
   4  -1   7    7.42    1.26
   4  -1   8    2.22    0.90
   4  -1   9   -0.39    0.74
   4  -1  10    0.16    0.66
   4  -1  11    1.60    1.06
  -4   0   5   -0.34    0.56
  -4   0   4    2.00    0.63
  -4   0   3  264.08    4.55
  -4   0   2    2.61    0.59
   4   0  -1  280.87    4.71
   4   0   0    3.94    0.68
   4   0   1  366.32    5.86
   4   0   2   62.67    2.44
   4   0   3   78.70    2.99
   4   0   4    6.91    1.02
   4   0   5    5.20    1.00
   4   0   6    8.26    1.23
   4   0   7    0.45    0.61
   4   0   8    3.83    1.01
   4   0   9    0.68    0.73
   4   0  10    0.17    0.65
  -4  -1   6   19.33    1.71
  -4  -1   5    3.25    0.80
  -4  -1   4   25.38    1.77
  -4  -1   3    4.22    0.79
  -4  -1   2    0.26    0.38
  -4  -1   1    3.29    0.74
   4   1   0   89.60    2.96
   4   1   1   35.46    1.85
   4   1   2    2.61    0.80
   4   1   3   85.03    3.30
   4   1   4    3.78    0.83
   4   1   5    3.62    0.89
   4   1   6   11.65    1.46
   4   1   7   13.51    1.59
   4   1   8   -0.19    0.55
   4   1   9    0.96    0.87
   4   1  10    0.50    0.69
  -4  -2   7   25.92    2.26
  -4  -2   6   25.80    2.20
  -4  -2   5   15.74    1.60
  -4  -2   4    0.28    0.69
  -4  -2   3    8.27    1.15
  -4  -2   2    2.24    0.75
  -4  -2   1   26.28    1.84
   4   2   0   53.15    2.64
   4   2   1    0.79    0.51
   4   2   2   78.50    3.14
   4   2   3    5.46    1.10
   4   2   4    0.20    0.49
   4   2   5   -0.34    0.74
   4   2   6    0.60    0.67
   4   2   7   -0.25    0.70
   4   2   8    0.06    0.74
   4   2   9    1.18    0.76
  -4  -3   7    0.38    0.98
  -4  -3   6   21.11    2.12
  -4  -3   5    7.08    1.28
  -4  -3   4   54.52    3.28
  -4  -3   3   29.76    2.17
  -4  -3   2    4.73    1.00
  -4  -3   1   94.73    3.72
   4   3   0    2.73    0.84
   4   3   1    3.83    0.91
   4   3   2   48.06    2.67
   4   3   3    1.03    0.74
   4   3   4    5.75    1.18
   4   3   5    7.78    1.26
   4   3   6   -0.01    0.61
   4   3   7    0.08    0.90
   4   3   8    1.21    0.92
   4   3   9    0.80    0.91
  -4  -4   8    0.72    1.14
  -4  -4   7    0.95    1.13
  -4  -4   6    0.59    1.02
  -4  -4   5   16.16    2.16
  -4  -4   4   27.20    2.52
  -4  -4   3    5.22    1.19
  -4  -4   2    8.68    1.54
  -4  -4   1  159.59    5.29
   4   4   0   70.71    3.57
   4   4   1   32.92    2.52
   4   4   2    9.28    1.38
   4   4   3    6.30    1.37
   4   4   4   -0.15    0.90
   4   4   5    3.32    1.18
   4   4   6   -0.12    0.65
   4   4   7    2.93    1.23
   4   4   8    0.79    0.79
  -4  -5   9   -0.35    1.35
  -4  -5   8    1.07    1.08
  -4  -5   7    1.09    0.99
  -4  -5   6    0.10    1.17
  -4  -5   5    2.72    1.30
  -4  -5   4    0.55    0.78
  -4  -5   3    6.25    1.27
  -4  -5   2    0.80    0.99
  -4  -5   1   23.28    2.33
   4   5   0    0.50    1.00
   4   5   1    0.49    1.13
   4   5   2    0.01    0.91
   4   5   3    7.63    1.53
   4   5   4   -0.10    0.73
   4   5   5    3.83    1.18
   4   5   6   -0.27    0.97
  -4  -6   7    3.90    1.86
  -4  -6   6    0.77    1.29
  -4  -6   5    4.22    1.29
  -4  -6   4   -0.11    1.00
  -4  -6   3    4.18    1.43
  -4  -6   2   -0.78    0.97
  -4  -6   1    0.05    1.10
   4   6   0    2.99    1.28
   4   6   1    1.59    1.40
   4   6   2    8.45    1.62
   4   6   3    2.45    1.31
   4   6   4    1.11    1.31
  -4  -7   5    2.18    1.16
  -4  -7   4    1.55    1.44
  -4  -7   3    0.94    1.39
  -4  -7   2    0.53    0.97
   4   7  -1    3.76    1.34
   4   7   0    1.02    1.63
   4   7   1    2.75    1.54
   5  -9   6   -0.54    1.20
   5  -9   7    1.54    1.50
   5  -8   5   14.40    2.01
   5  -8   6    2.76    1.31
   5  -8   7    0.01    1.17
   5  -8   8    1.06    1.45
   5  -7   4    3.38    1.12
   5  -7   5    1.55    1.07
   5  -7   6    1.28    1.05
   5  -7   7    0.56    1.06
   5  -7   8    1.03    1.20
   5  -7   9    3.14    1.44
   5  -6   3    1.42    0.76
   5  -6   4   18.61    1.78
   5  -6   5   28.91    2.32
   5  -6   6    8.56    1.52
   5  -6   7    3.22    1.28
   5  -6   8    4.78    1.48
   5  -6   9    0.05    1.26
   5  -6  10    0.79    1.07
   5  -5   2   13.51    1.26
   5  -5   3   24.15    1.79
   5  -5   4   18.72    1.70
   5  -5   5    1.46    0.84
   5  -5   6   35.51    2.62
   5  -5   7    4.59    1.16
   5  -5   8    3.21    1.11
   5  -5   9    2.18    1.31
   5  -5  10    5.85    1.63
   5  -4   1   10.55    0.94
   5  -4   2    1.23    0.55
   5  -4   3   31.20    1.90
   5  -4   4    2.25    0.78
   5  -4   5    4.92    1.03
   5  -4   6    0.42    0.82
   5  -4   7    4.98    1.23
   5  -4   8    1.15    1.08
   5  -4   9   24.27    2.57
   5  -4  10    1.13    1.20
   5  -3   1   20.52    1.25
   5  -3   2   40.87    1.96
   5  -3   3   99.13    3.32
   5  -3   4   35.20    2.18
   5  -3   6    7.51    1.21
   5  -3   7    0.68    0.64
   5  -3   8    6.97    1.27
   5  -3   9    6.86    1.37
   5  -3  10    1.72    1.20
   5  -2  -1   14.28    0.82
   5  -2   0   27.00    1.27
   5  -2   1  153.03    3.39
   5  -2   2    0.09    0.51
   5  -2   3  100.06    3.28
   5  -2   4   11.38    1.21
   5  -2   5   15.53    1.57
   5  -2   6    0.64    0.98
   5  -2   7    7.67    1.25
   5  -2   8    6.14    1.26
   5  -2   9    0.99    0.83
   5  -2  10    0.02    0.72
   5  -1  -2   72.63    2.08
   5  -1  -1   35.81    1.60
   5  -1   0   32.94    1.61
   5  -1   1   14.96    1.27
   5  -1   2   30.19    1.87
   5  -1   3    3.71    0.84
   5  -1   4    6.74    1.07
   5  -1   5    1.34    0.66
   5  -1   6   23.37    2.06
   5  -1   7    4.47    1.12
   5  -1   8    0.95    0.83
   5  -1   9    2.72    1.18
   5  -1  10    0.62    0.79
  -5   0   3   25.41    1.54
   5   0  -2   70.10    2.52
   5   0  -1    0.05    0.41
   5   0   0    5.52    0.86
   5   0   1   77.71    2.98
   5   0   2    2.00    0.76
   5   0   3    5.12    1.04
   5   0   4    1.79    0.70
   5   0   5    4.72    0.94
   5   0   6    0.81    0.80
   5   0   7    1.91    0.99
   5   0   8   -0.13    0.64
   5   0   9    4.10    1.11
   5   0  10    0.95    1.27
  -5  -1   4    1.35    0.66
  -5  -1   3   16.14    1.47
  -5  -1   2    0.31    0.58
   5   1  -1    6.55    1.07
   5   1   0    0.33    0.44
   5   1   1    2.49    0.83
   5   1   2    1.04    0.60
   5   1   3    0.45    0.71
   5   1   4    3.63    0.92
   5   1   5    2.56    1.07
   5   1   6    2.84    1.02
   5   1   7    0.70    0.65
   5   1   8    0.99    0.97
   5   1   9    2.71    0.96
  -5  -2   5    9.85    1.53
  -5  -2   4   44.63    2.67
  -5  -2   3   14.66    1.60
  -5  -2   2    8.55    1.26
   5   2  -1    0.66    0.70
   5   2   0    0.32    0.72
   5   2   1    0.75    0.78
   5   2   2   55.97    3.04
   5   2   3   10.23    1.45
   5   2   4    8.26    1.28
   5   2   5    6.48    1.39
   5   2   6    0.24    0.95
   5   2   7    1.92    1.02
   5   2   8   -0.16    0.88
  -5  -3   5    8.34    1.40
  -5  -3   4   37.19    2.59
  -5  -3   3   18.57    1.93
  -5  -3   2    2.34    0.83
   5   3  -1   67.80    3.42
   5   3   0   34.05    2.70
   5   3   1   62.63    3.25
   5   3   2   18.14    1.89
   5   3   3    0.92    0.77
   5   3   4   17.65    2.11
   5   3   5    2.49    0.94
   5   3   6    1.26    0.88
   5   3   7   -0.04    1.01
  -5  -4   6    3.88    1.42
  -5  -4   5    3.40    1.30
  -5  -4   4   14.78    1.83
  -5  -4   3   -0.01    0.90
  -5  -4   2    1.58    1.01
   5   4  -1    0.02    0.70
   5   4   0   11.29    1.76
   5   4   1    4.28    1.22
   5   4   2    0.55    0.97
   5   4   3   -0.29    0.82
   5   4   4    0.31    1.16
   5   4   5    0.20    1.05
   5   4   6   -0.34    0.77
  -5  -5   7    1.04    1.46
  -5  -5   6    1.99    1.37
  -5  -5   5    0.43    1.09
  -5  -5   4    1.56    1.21
  -5  -5   3    1.10    0.87
  -5  -5   2    0.62    1.10
   5   5  -1    5.70    1.47
   5   5   0    0.63    1.04
   5   5   1    5.10    1.49
   5   5   2    0.85    1.14
   5   5   3   -0.15    0.90
   5   5   4    1.55    1.08
  -5  -6   5   -0.64    1.29
  -5  -6   4    0.45    1.01
  -5  -6   3    5.25    1.57
  -5  -6   2   -0.39    1.21
   5   6  -1    2.79    1.75
   5   6   0    0.78    1.11
   5   6   1    0.05    0.95
   5   6   2    1.15    1.09
   6  -8   7    3.63    1.56
   6  -7   6    1.57    1.09
   6  -7   7    0.27    0.83
   6  -7   8    0.04    0.91
   6  -6   5    8.72    1.50
   6  -6   6    4.86    1.39
   6  -6   7    3.49    1.33
   6  -6   8   -0.77    1.16
   6  -6   9    2.20    1.47
   6  -5   4    5.01    1.11
   6  -5   5    0.73    0.66
   6  -5   6   31.90    2.55
   6  -5   7    2.40    1.12
   6  -5   8    0.48    0.82
   6  -5   9    0.53    1.23
   6  -4   3    6.89    1.03
   6  -4   4   30.84    2.10
   6  -4   5    2.72    0.90
   6  -4   6   12.71    1.65
   6  -4   7    0.92    0.98
   6  -4   8    1.65    1.15
   6  -4   9    3.49    1.43
   6  -3   2  100.68    3.38
   6  -3   3    6.72    1.06
   6  -3   4    0.43    0.70
   6  -3   5    0.42    0.72
   6  -3   6    4.24    1.17
   6  -3   7   11.16    1.74
   6  -3   8    0.70    1.02
   6  -3   9    1.16    0.84
   6  -3  10    0.65    1.09
   6  -2   1   48.30    2.08
   6  -2   2    7.00    1.04
   6  -2   3  135.83    4.17
   6  -2   4    0.39    0.54
   6  -2   5    0.60    0.78
   6  -2   6    0.20    0.85
   6  -2   7    1.97    1.17
   6  -2   8    0.33    0.92
   6  -2   9   -0.13    1.09
   6  -1   0    4.22    0.82
   6  -1   1    3.89    0.89
   6  -1   2    5.13    1.03
   6  -1   3   31.38    2.07
   6  -1   4   10.57    1.36
   6  -1   5   11.04    1.44
   6  -1   6    0.84    0.68
   6  -1   7    0.02    0.88
   6  -1   8    0.64    0.86
   6  -1   9    0.62    1.28
   6   0  -1   27.51    1.79
   6   0   0    6.18    1.05
   6   0   1   -0.01    0.66
   6   0   2    1.13    0.78
   6   0   3   -0.64    0.69
   6   0   4    5.38    1.26
   6   0   5    6.51    1.15
   6   0   6    0.15    0.82
   6   0   7    1.75    1.10
   6   0   9   -0.10    1.02
   6   1  -2   87.46    3.69
   6   1  -1    0.58    0.70
   6   1   0    7.71    1.23
   6   1   1   22.99    2.02
   6   1   2    0.85    0.88
   6   1   3    1.03    0.98
   6   1   4   13.13    1.74
   6   1   5    4.12    1.25
   6   1   6    5.28    1.16
   6   1   8   -0.10    0.81
  -6  -2   3    2.03    0.97
   6   2  -2   12.15    1.69
   6   2  -1   11.80    1.60
   6   2   0    1.87    0.96
   6   2   1   17.59    1.94
   6   2   2    1.20    0.77
   6   2   3   21.28    2.06
   6   2   4    5.61    1.39
   6   2   5    2.97    1.25
   6   2   7    0.91    1.07
  -6  -3   3    0.55    0.99
   6   3  -2   -1.01    0.94
   6   3  -1    0.56    1.09
   6   3   0    0.34    0.89
   6   3   1   13.76    1.82
   6   3   2    2.03    1.02
   6   3   3   20.39    2.41
   6   3   4    3.82    1.36
   6   3   5    0.49    1.12
   6   3   6    0.27    0.90
  -6  -4   4    5.86    1.55
  -6  -4   3    7.62    1.64
   6   4  -2   -0.65    1.10
   6   4  -1   -1.01    1.22
   6   4   0    3.71    1.32
   6   4   1    8.19    1.68
   6   4   2    0.07    1.18
   6   4   3    0.22    1.14
   6   4   4   -0.20    1.16
  -6  -5   5   -0.35    0.96
  -6  -5   4    6.40    1.69
  -6  -5   3    0.37    0.90
   6   5  -2    2.38    1.67
   6   5  -1    3.08    1.75
   6   5   0   -0.88    1.17
   6   5   1   -0.24    0.86
   6   5   2   -0.91    0.95
   7  -6   7    0.65    0.86
   7  -6   8    1.25    1.07
   7  -5   6    0.62    0.94
   7  -5   7   -0.29    0.72
   7  -5   8   -0.54    1.03
   7  -4   5    0.99    0.88
   7  -4   6    0.71    0.67
   7  -4   7    0.74    0.96
   7  -4   8    1.16    1.07
   7  -3   4    5.61    1.25
   7  -3   5    1.10    0.86
   7  -3   6    6.74    1.31
   7  -3   7    0.28    1.04
   7  -3   8    2.20    1.31
   7  -2   3   25.99    2.10
   7  -2   4    1.75    0.92
   7  -2   5    7.95    1.41
   7  -2   6    2.69    1.03
   7  -2   7   -0.30    0.77
   7  -2   8    0.57    1.07
   7  -1   2    3.31    1.01
   7  -1   3    0.29    0.75
   7  -1   4    1.75    0.73
   7  -1   5    1.41    0.97
   7  -1   6    0.07    0.66
   7  -1   7    0.17    1.02
   7  -1   8    0.62    0.90
   7   0   1    1.57    0.90
   7   0   2   -0.20    0.86
   7   0   3    0.59    0.72
   7   0   4    2.93    1.08
   7   0   5    0.25    0.88
   7   0   6    2.94    1.15
   7   0   7   -0.73    0.73
   7   1   0   30.75    2.50
   7   1   1    0.29    0.99
   7   1   2    0.21    0.93
   7   1   3    3.46    1.21
   7   1   4    5.84    1.33
   7   1   5    0.03    1.04
   7   1   6    6.39    1.49
   7   2  -1    5.60    1.22
   7   2   0    0.46    0.78
   7   2   1    5.40    1.22
   7   2   2    1.07    1.14
   7   2   3   10.88    1.80
   7   2   4    2.15    1.02
   7   2   5    3.29    1.52
   7   3  -1    3.38    1.35
   7   3   0    0.48    1.06
   7   3   2   -0.19    1.16
   7   3   3   -0.37    0.78
   7   3   4    1.77    1.38
   7   4  -2    1.54    1.10
   7   4  -1    1.67    1.37
   7   4   0   -0.52    0.86
   7   4   1   -0.66    1.41
   8  -3   6    1.11    1.02
   8  -3   7    1.47    1.20
   8  -2   5    0.24    0.98
   8  -2   6    2.38    1.26
   8  -2   7    1.92    1.41
   8  -1   4   -0.17    0.86
   8  -1   5    4.07    1.32
   8  -1   6    0.82    0.81
   8   0   3    1.19    1.11
   8   0   4    0.79    1.03
   8   0   5    0.19    0.99
   8   1   3    0.89    1.21
   8   1   4   -0.78    1.11
   8   2   2    0.98    1.28
   8   2   3   -0.67    1.23
   0   0   3    4.50    0.49
   0   0   4 1030.95    9.47
   0   0   5    5.31    0.72
   0   0   6   38.52    1.92
   0   0   7    8.48    1.00
   0   0   8    7.09    1.01
   0   0   9    0.28    0.63
   0   0  10    1.71    0.89
   0  -1   8    0.29    0.54
   0  -1   7    0.19    0.43
   0  -1   6   39.87    1.89
   0  -1   5   32.13    1.51
   0  -1   4  162.26    2.90
   0  -1   3  144.70    2.32
   0  -1   2  449.53    4.16
   0   1   6    3.10    0.70
   0   1   7    0.74    0.63
   0   1   8    2.06    0.80
   0   1   9   -0.09    0.68
   0   1  10    0.39    0.51
   0   1  11    0.23    0.81
   0  -2   7    3.50    0.71
   0  -2   6   11.68    0.96
   0  -2   5   35.62    1.41
   0  -2   4   81.63    1.90
   0  -2   3   22.25    0.86
   0  -2   2  140.83    2.16
   0  -2   1    3.37    0.38
   0   2   7   16.90    1.54
   0   2   8    2.34    0.73
   0   2   9    0.21    0.53
   0   2  10   -0.11    0.60
   0   2  11    0.07    0.63
   0  -3   6    5.50    0.67
   0  -3   5   72.86    2.03
   0  -3   4   44.38    1.45
   0  -3   3  303.18    3.88
   0  -3   2  266.34    3.74
   0   3   8    0.58    0.79
   0   3   9    2.51    0.96
   0   3  10    0.96    0.97
   0   3  11   -0.53    0.97
   0  -4   4  159.00    3.15
   0  -4   3    3.26    0.58
   0  -4   2    7.40    0.78
   0   4   9    8.03    1.42
   0   4  10    3.25    1.20
   0   5   9    0.31    0.92
  -1   7   8    1.25    1.22
  -1   7   7   -0.28    1.07
  -1   6   9    1.41    1.03
  -1   6   8    0.42    1.07
  -1   6   7    2.20    1.12
  -1   5  10    0.80    0.91
  -1   5   9    1.18    1.11
  -1   5   8    0.14    0.90
  -1   5   7   56.87    3.34
  -1   4  11    2.28    1.20
  -1   4  10    0.92    0.83
  -1   4   9    5.90    1.48
  -1   4   8    0.50    0.68
  -1   4   7    1.24    0.69
  -1   3  11   -0.22    0.67
  -1   3  10    1.20    1.00
  -1   3   9    0.50    0.91
  -1   3   8   -0.45    0.58
  -1   3   7   -0.04    0.54
  -1   3   6    8.93    1.25
   1  -3   4  190.46    2.28
   1  -3   5   -0.23    0.25
  -1   2  12    6.29    1.48
  -1   2  10   -0.09    0.62
  -1   2   9    0.48    0.78
  -1   2   8    1.24    0.84
  -1   2   7    2.84    0.89
  -1   2   6    7.01    1.03
  -1   2   5   33.06    1.94
  -1   2   4   66.54    2.54
   1  -2   4   48.86    1.22
   1  -2   5    1.24    0.36
   1  -2   6   11.28    0.90
  -1   1  11    0.34    0.87
  -1   1  10    5.38    1.25
  -1   1   9    4.06    1.09
  -1   1   8    0.39    0.54
  -1   1   7   63.29    2.84
  -1   1   6    5.98    0.93
  -1   1   5   62.52    2.53
  -1   1   3 2207.64   16.62
  -1   1   1  263.65    3.15
   1  -1   5   40.11    1.55
   1  -1   6    0.00    0.36
   1  -1   8    0.53    0.53
  -1   0  10    0.09    0.74
  -1   0   9    0.61    0.73
  -1   0   8    9.32    1.20
  -1   0   7   23.81    1.72
  -1   0   6   12.87    1.19
  -1   0   5  143.77    3.52
  -1   0   4   66.67    2.14
  -1   0   3  213.28    3.48
  -1   0   2  625.60    5.98
  -1   0   1  177.93    2.46
  -1   0   0 1968.93   13.92
  -1   0  -1  763.51    6.48
   1   0   7   58.21    2.48
   1   0   8   11.07    1.22
   1   0   9    3.90    0.91
  -1  -1   9    5.08    1.02
  -1  -1   8    1.05    0.67
  -1  -1   7    7.38    1.01
  -1  -1   6    1.48    0.43
  -1  -1   5   15.59    1.11
  -1  -1   4   40.06    1.57
  -1  -1   3    2.20    0.40
  -1  -1   2  107.33    2.21
  -1  -1   1   14.66    0.76
  -1  -1   0 1513.01   11.52
  -1  -1  -1   64.97    1.92
   1   1   9   15.50    1.57
   1   1  10    0.10    0.71
  -1  -2   8  181.38    4.83
  -1  -2   7    8.57    1.05
  -1  -2   6  308.73    5.22
  -1  -2   5   24.67    1.41
  -1  -2   4  163.98    3.33
  -1  -2   3  123.92    2.67
  -1  -2   2  230.04    3.72
  -1  -2   1   55.93    1.80
  -1  -2   0    7.34    0.67
   1   2   9    3.99    0.96
   1   2  10    0.96    0.65
   1   2  11    1.08    0.97
  -1  -3   6   95.40    3.01
  -1  -3   5   24.25    1.38
  -1  -3   4  280.37    4.68
  -1  -3   3  556.99    6.84
  -1  -3   2   11.47    0.94
  -1  -3   1  137.10    3.22
  -1  -3   0  303.02    5.17
   1   3  10    9.04    1.42
   1   3  11    1.39    1.00
  -1  -4   5   39.62    1.96
  -1  -4   4    0.98    0.56
  -1  -4   3    4.43    0.78
  -1  -4   2  120.95    3.23
  -1  -4   1  102.47    3.24
   1   4  10    0.05    0.64
  -1  -5   4   14.48    1.30
  -1  -5   3    5.04    0.83
  -1  -5   2   66.11    2.74
  -2   9   5    6.15    1.68
  -2   9   4    1.69    1.28
  -2   8   7    0.34    1.30
  -2   8   6    1.25    1.02
  -2   8   5   -0.27    1.00
  -2   8   4    1.17    1.12
  -2   7   8    0.96    1.37
  -2   7   7    0.44    0.86
  -2   7   6    2.87    1.25
  -2   7   5    1.74    0.88
  -2   7   4    7.96    1.40
  -2   6   9    0.07    0.89
  -2   6   8   10.27    1.93
  -2   6   7    2.86    1.25
  -2   6   6    0.27    0.71
  -2   6   5    3.84    1.16
  -2   6   4   32.62    2.59
  -2   5  10    0.18    1.15
  -2   5   9    6.91    1.65
  -2   5   8    0.30    0.83
  -2   5   7   15.00    1.96
  -2   5   6   15.38    1.92
  -2   5   5  126.18    4.85
  -2   5   4  163.35    5.19
  -2   4  11    0.82    1.26
  -2   4  10    1.51    0.97
  -2   4   9   -0.01    0.66
  -2   4   8    3.46    1.23
  -2   4   7    2.64    0.97
  -2   4   6    8.12    1.45
  -2   4   5   31.47    2.28
  -2   4   4    3.14    0.91
  -2   4   3    1.63    0.68
  -2   4   2   15.81    1.33
  -2   4   1  358.91    5.81
  -2   4   0    9.68    0.87
  -2   4  -1   43.73    1.47
  -2   4  -2   34.95    0.96
  -2   3  11    0.66    0.84
  -2   3  10   13.24    2.06
  -2   3   9    0.15    0.88
  -2   3   8   -0.19    0.54
  -2   3   7    2.83    0.84
  -2   3   6   50.74    2.89
  -2   3   5   13.31    1.46
  -2   3   4   -0.11    0.40
  -2   3   3   79.22    2.98
  -2   3   2   36.28    1.82
  -2   3   1  356.84    5.32
  -2   3   0  216.79    3.39
  -2   3  -1  284.68    3.28
  -2   2  12    0.08    0.82
  -2   2  11    2.26    1.19
  -2   2  10    2.97    0.99
  -2   2   9    6.81    1.39
  -2   2   8   24.52    2.30
  -2   2   7    5.10    1.06
  -2   2   6   20.94    1.78
  -2   2   5   13.30    1.31
  -2   2   4  820.67    9.77
  -2   2   3  113.85    3.18
  -2   2   2  219.97    4.18
  -2   2   1  243.71    3.73
  -2   2   0  783.96    6.90
  -2   2  -1  846.08    6.84
  -2   2  -2  340.93    3.51
   2  -2   6   61.75    1.86
  -2   1  11    0.26    0.79
  -2   1  10    2.53    0.92
  -2   1   9    5.17    1.06
  -2   1   8    9.48    1.35
  -2   1   7   50.48    2.71
  -2   1   6   14.27    1.34
  -2   1   4  115.06    3.23
  -2   1   3  683.91    7.98
  -2   1   1  486.80    5.58
  -2   1   0   98.80    2.03
  -2   1  -1 2380.33   16.30
  -2   1  -2  696.34    6.47
  -2   0  10   -0.10    0.78
  -2   0   9   26.92    2.19
  -2   0   8   19.44    1.81
  -2   0   7   40.41    2.39
  -2   0   6    2.46    0.70
  -2   0   5  128.79    3.51
  -2   0   4   31.74    1.60
  -2   0   3   78.97    2.46
  -2   0   2  123.11    2.77
  -2   0   1   77.71    2.05
  -2   0  -1   27.70    1.22
  -2   0  -2  310.64    4.65
   2   0   9    0.37    0.63
  -2  -1   9   10.08    1.39
  -2  -1   8   24.50    1.90
  -2  -1   7   38.57    2.22
  -2  -1   6    2.81    0.67
  -2  -1   5   59.10    2.31
  -2  -1   4  560.03    7.34
  -2  -1   3  476.71    6.34
  -2  -1   2  101.78    2.61
  -2  -1   1    0.82    0.38
  -2  -1   0  195.68    3.89
  -2  -1  -1   77.89    2.33
  -2  -1  -2  143.45    3.38
   2   1  10    0.84    0.72
  -2  -2   8   69.33    3.11
  -2  -2   7   25.41    1.87
  -2  -2   6  190.41    4.49
  -2  -2   5    0.50    0.50
  -2  -2   4   33.05    1.74
  -2  -2   3  156.28    3.73
  -2  -2   2   12.87    1.13
  -2  -2   0  218.76    4.37
  -2  -2  -1   31.64    1.70
   2   2  11    1.57    0.88
  -2  -3   7   47.53    2.53
  -2  -3   6   -0.04    0.56
  -2  -3   5   60.54    2.63
  -2  -3   4  148.86    3.82
  -2  -3   3   27.01    1.68
  -2  -3   2   20.32    1.48
  -2  -3   1    0.82    0.54
  -2  -3   0    0.15    0.44
  -2  -3  -1    2.10    0.58
  -2  -4   6    0.31    0.65
  -2  -4   5   68.34    2.93
  -2  -4   4    9.83    1.26
  -2  -4   3  155.50    4.32
  -2  -4   2    0.62    0.60
  -2  -4   1   11.67    1.21
  -2  -4   0   24.78    1.76
  -2  -5   4    6.02    1.15
  -2  -5   3  177.43    4.91
  -2  -5   2   68.08    3.03
  -2  -5   1    8.63    1.31
  -2  -6   3   25.44    2.25
  -3   9   5    1.08    1.44
  -3   9   4    2.91    1.48
  -3   8   7    5.38    1.59
  -3   8   6    1.29    1.11
  -3   8   5   10.39    1.97
  -3   8   4    0.69    0.92
  -3   8   3    2.40    1.20
  -3   7   8   -0.24    1.29
  -3   7   7    7.22    1.82
  -3   7   6    5.86    1.64
  -3   7   5    9.62    1.82
  -3   7   4   21.91    2.41
  -3   7   3    4.96    1.34
  -3   7   2   42.82    2.81
  -3   7   1  122.58    4.35
  -3   6   9    1.31    1.16
  -3   6   8    4.33    1.48
  -3   6   7   12.50    2.07
  -3   6   6   16.91    2.20
  -3   6   5    0.80    0.85
  -3   6   4   -0.02    0.69
  -3   6   3   71.71    3.69
  -3   6   2  183.10    5.51
  -3   6   1    4.73    0.98
  -3   6   0   78.61    2.98
  -3   5  10    7.28    1.92
  -3   5   9    0.63    1.05
  -3   5   8    7.98    1.59
  -3   5   7    2.28    0.95
  -3   5   6    4.44    1.10
  -3   5   5    1.44    0.81
  -3   5   4   88.73    3.99
  -3   5   3   21.37    1.91
  -3   5   2   45.52    2.47
  -3   5   1    3.66    0.77
  -3   5   0    6.06    0.75
  -3   5  -1    9.60    0.81
  -3   4  11   -0.56    1.20
  -3   4  10    4.71    1.35
  -3   4   9   -0.67    0.72
  -3   4   8    2.87    1.11
  -3   4   7   -0.59    0.87
  -3   4   6   12.14    1.62
  -3   4   5   36.55    2.45
  -3   4   4   14.19    1.46
  -3   4   3  235.89    5.42
  -3   4   2  199.57    4.62
  -3   4   1    2.07    0.64
  -3   4   0   69.62    2.14
  -3   4  -1   42.17    1.40
  -3   4  -2   87.67    1.66
  -3   3  11    0.02    0.84
  -3   3  10    5.89    1.36
  -3   3   9   11.75    1.71
  -3   3   8    7.14    1.46
  -3   3   7    3.70    0.96
  -3   3   6    9.01    1.40
  -3   3   5    2.45    0.77
  -3   3   4    4.02    0.92
  -3   3   3    2.24    0.62
  -3   3   2   14.89    1.22
  -3   3   1  831.06    9.02
  -3   3   0  473.72    5.61
  -3   3  -1  111.30    2.29
  -3   3  -2  222.31    3.04
  -3   3  -3   41.27    1.12
  -3   2  11    1.60    1.02
  -3   2  10    8.58    1.60
  -3   2   9    2.09    1.14
  -3   2   8    2.45    1.00
  -3   2   7   19.73    1.93
  -3   2   6   59.77    3.05
  -3   2   5   -0.09    0.42
  -3   2   4  145.34    4.18
  -3   2   3   19.75    1.43
  -3   2   2  472.99    6.46
  -3   2   1  269.99    4.57
  -3   2   0  238.29    3.92
  -3   2  -1  241.26    3.63
  -3   2  -2   56.04    1.65
  -3   2  -3  180.79    3.09
  -3   1  12    1.58    1.24
  -3   1  11   -0.02    1.02
  -3   1  10    2.92    1.13
  -3   1   9    2.17    0.99
  -3   1   8   29.13    2.24
  -3   1   7   14.37    1.51
  -3   1   6   49.60    2.63
  -3   1   5    0.57    0.58
  -3   1   4  103.35    3.26
  -3   1   3    5.12    0.82
  -3   1   2  125.34    3.09
  -3   1   1   47.57    1.78
  -3   1   0  126.60    2.88
  -3   1  -1   23.11    1.24
  -3   1  -2  320.11    4.88
  -3   1  -3   38.44    1.95
  -3   0  11    0.36    0.80
  -3   0  10   41.17    2.90
  -3   0   9    8.89    1.41
  -3   0   8    8.22    1.30
  -3   0   7   82.53    3.47
  -3   0   6  146.05    4.54
  -3   0   5   39.04    2.16
  -3   0   4    0.45    0.51
  -3   0   3   19.67    1.37
  -3   0   2   11.03    1.01
  -3   0   1  247.85    4.47
  -3   0   0   -0.25    0.36
  -3   0  -1   26.98    1.56
  -3   0  -2  116.93    3.10
  -3   0  -3   80.35    2.69
  -3  -1  10    1.76    0.94
  -3  -1   9   12.07    1.52
  -3  -1   8    6.12    1.12
  -3  -1   7  141.08    4.59
  -3  -1   6   20.59    1.72
  -3  -1   5    7.66    1.03
  -3  -1   4   73.88    2.82
  -3  -1   3  561.78    7.95
  -3  -1   2  153.90    3.91
  -3  -1   1  230.09    4.76
  -3  -1   0  130.92    3.67
  -3  -1  -1   56.02    2.30
  -3  -2   9    7.53    1.30
  -3  -2   8    0.54    0.76
  -3  -2   7   56.38    2.88
  -3  -2   6   24.00    1.84
  -3  -2   5   13.08    1.38
  -3  -2   4   42.44    2.20
  -3  -2   3    5.44    0.93
  -3  -2   2   27.06    1.83
  -3  -2   1   27.16    1.85
  -3  -2   0   85.10    3.13
  -3  -2  -1   20.37    1.51
  -3  -2  -2   21.31    1.60
  -3  -3   7    0.14    0.50
  -3  -3   6   48.41    2.68
  -3  -3   5   29.84    2.08
  -3  -3   4    0.63    0.68
  -3  -3   3   70.96    3.09
  -3  -3   2   17.63    1.70
  -3  -3   1    7.40    1.02
  -3  -3   0   10.68    1.22
  -3  -3  -1   12.77    1.63
  -3  -4   6    2.72    0.99
  -3  -4   5    6.04    1.19
  -3  -4   4    7.19    1.25
  -3  -4   3  146.73    4.79
  -3  -4   2   75.18    3.37
  -3  -4   1  271.27    6.26
  -3  -4   0   94.36    4.20
  -3  -5   5    2.22    0.98
  -3  -5   4    0.15    0.56
  -3  -5   3   29.38    2.24
  -3  -5   2    9.96    1.40
  -3  -5   1    0.49    1.14
  -3  -6   3    1.36    0.95
  -3  -6   2    0.01    0.62
  -4   9   5    4.19    1.61
  -4   8   7    1.67    1.31
  -4   8   6    1.63    1.36
  -4   8   5    7.77    1.76
  -4   8   4    4.34    1.39
  -4   8   3   11.58    1.66
  -4   7   8    2.20    1.79
  -4   7   7    4.06    1.44
  -4   7   6    2.35    1.21
  -4   7   5    9.51    1.74
  -4   7   4   11.31    1.76
  -4   7   3   18.42    2.01
  -4   7   2    3.24    1.11
  -4   6   9    5.69    1.63
  -4   6   8   -0.59    1.25
  -4   6   7    3.81    1.36
  -4   6   6    7.48    1.60
  -4   6   5   41.84    3.40
  -4   6   4   32.71    2.82
  -4   6   3   49.66    3.21
  -4   6   2    0.46    0.83
  -4   6   1   15.15    1.49
  -4   5  10    3.51    1.64
  -4   5   9    7.85    1.89
  -4   5   8   29.25    2.93
  -4   5   7    6.11    1.41
  -4   5   6   -0.34    0.62
  -4   5   5    9.40    1.48
  -4   5   4   53.38    3.15
  -4   5   3    4.32    1.07
  -4   5   2   18.66    1.65
  -4   5   1    5.27    0.87
  -4   5   0  114.65    3.16
  -4   5  -1   82.74    2.38
  -4   4  10    0.46    1.36
  -4   4   9    0.18    0.86
  -4   4   8    8.77    1.63
  -4   4   7   36.67    2.93
  -4   4   6   37.13    2.81
  -4   4   5   10.96    1.50
  -4   4   4   95.94    3.93
  -4   4   3  104.92    3.88
  -4   4   2   28.80    1.93
  -4   4   1   50.22    2.15
  -4   4   0   11.79    1.00
  -4   4  -1   31.59    1.44
  -4   4  -2   49.98    1.60
  -4   3  11   -0.44    1.26
  -4   3  10    3.02    1.22
  -4   3   9    3.07    1.39
  -4   3   8    0.09    0.71
  -4   3   7    0.43    0.96
  -4   3   5    9.52    1.44
  -4   3   4   70.34    3.18
  -4   3   3  141.66    4.11
  -4   3   2   55.97    2.35
  -4   3   0  156.24    3.52
  -4   3  -1  449.26    6.00
  -4   3  -2    2.17    0.55
  -4   3  -3  134.94    2.88
  -4   2  11    6.95    1.63
  -4   2  10    1.90    1.01
  -4   2   9   -0.23    0.96
  -4   2   8    2.56    0.91
  -4   2   7    4.95    1.07
  -4   2   6   38.25    2.54
  -4   2   5   13.03    1.47
  -4   2   4   54.66    2.63
  -4   2   3    4.76    0.91
  -4   2   2   28.21    1.65
  -4   2   1   93.22    2.85
  -4   2   0   95.46    2.86
  -4   2  -1    0.44    0.45
  -4   2  -2   68.44    2.35
  -4   2  -3   68.50    2.35
  -4   1  11    2.11    1.36
  -4   1  10    0.18    1.02
  -4   1   9   16.93    1.95
  -4   1   8   52.46    3.19
  -4   1   7   35.68    2.59
  -4   1   6   -0.12    0.74
  -4   1   5    6.41    1.04
  -4   1   4  116.37    3.80
  -4   1   3   79.81    3.02
  -4   1   2    5.94    0.84
  -4   1   1  336.33    5.92
  -4   1   0   21.91    1.47
  -4   1  -1   52.30    2.25
  -4   1  -2  215.33    4.67
  -4   1  -3   46.23    2.12
  -4   0  11    0.72    1.11
  -4   0  10   10.67    1.60
  -4   0   9   13.98    1.70
  -4   0   7  117.88    4.51
  -4   0   6    9.26    1.36
  -4   0   5   -0.40    0.61
  -4   0   4    2.07    0.65
  -4   0   3  240.88    5.38
  -4   0   2    1.70    0.56
  -4   0   1  260.39    5.48
  -4   0   0    1.64    0.64
  -4   0  -1  349.18    6.70
  -4   0  -2   51.83    2.41
  -4   0  -3   70.96    2.94
  -4  -1  10    8.01    1.60
  -4  -1   9    6.65    1.48
  -4  -1   8    0.64    0.62
  -4  -1   7    7.86    1.24
  -4  -1   6   18.52    1.70
  -4  -1   5    2.98    0.88
  -4  -1   4   33.28    2.18
  -4  -1   3    4.51    0.91
  -4  -1   2    0.54    0.49
  -4  -1   1    2.43    0.71
  -4  -1   0  104.17    3.71
  -4  -1  -1   33.98    2.07
  -4  -1  -2    1.14    0.55
  -4  -1  -3   75.76    3.16
  -4  -2   9   -0.31    0.84
  -4  -2   8   14.09    1.70
  -4  -2   7   25.67    2.24
  -4  -2   6   24.61    2.07
  -4  -2   5   14.54    1.55
  -4  -2   4    0.09    0.48
  -4  -2   3    8.83    1.24
  -4  -2   2    2.51    0.73
  -4  -2   1   28.46    2.22
  -4  -2   0   56.36    2.85
  -4  -2  -1    1.49    0.66
  -4  -2  -2   82.42    3.56
  -4  -3   8    2.39    1.04
  -4  -3   7    0.53    0.86
  -4  -3   6   23.19    2.12
  -4  -3   5    6.65    1.27
  -4  -3   4   54.48    3.11
  -4  -3   3   33.98    2.44
  -4  -3   2    4.07    1.23
  -4  -3   1   95.86    3.91
  -4  -3   0    2.12    0.92
  -4  -3  -1    4.44    1.11
  -4  -3  -2   46.88    2.87
  -4  -4   6    2.29    1.02
  -4  -4   5   11.16    1.65
  -4  -4   4   29.08    2.61
  -4  -4   3    3.43    1.03
  -4  -4   2    7.94    1.47
  -4  -4   1  145.04    5.18
  -4  -4   0   76.02    3.78
  -4  -4  -1   34.06    2.65
  -4  -5   5    2.82    1.18
  -4  -5   4   -0.51    0.86
  -4  -5   3    5.91    1.38
  -4  -5   2    0.08    0.88
  -4  -5   1   27.01    2.66
  -4  -5   0    0.75    0.73
  -4  -6   4    0.13    0.70
  -4  -6   3    3.73    1.26
  -4  -6   2   -0.05    1.04
  -5   8   7    1.42    1.62
  -5   8   6    1.82    1.24
  -5   8   5    6.96    1.85
  -5   8   4    0.25    1.17
  -5   7   8    3.53    1.52
  -5   7   7    0.27    1.04
  -5   7   6   16.61    2.47
  -5   7   5    1.08    1.24
  -5   7   4    3.07    1.09
  -5   7   3   -0.27    0.90
  -5   7   2   44.20    2.91
  -5   6   9    2.00    1.72
  -5   6   8   10.43    2.22
  -5   6   7    5.44    1.68
  -5   6   6    2.78    1.13
  -5   6   5   34.63    3.01
  -5   6   4   20.63    2.27
  -5   6   3   97.18    4.36
  -5   6   2    0.22    0.78
  -5   6   1    0.82    0.67
  -5   5   9   20.81    2.97
  -5   5   8    2.41    1.56
  -5   5   7   27.70    2.94
  -5   5   6   46.22    3.54
  -5   5   5    4.05    1.36
  -5   5   4    6.03    1.24
  -5   5   3    1.79    0.90
  -5   5   2   18.11    1.66
  -5   5   1   41.84    2.20
  -5   5   0   40.30    2.04
  -5   4  10    1.75    1.16
  -5   4   9    0.62    0.94
  -5   4   8    1.03    1.23
  -5   4   7   37.99    3.18
  -5   4   6   -0.27    0.64
  -5   4   5   67.87    3.60
  -5   4   4   41.69    2.66
  -5   4   3    3.23    0.81
  -5   4   2   29.28    2.00
  -5   4   1    0.66    0.52
  -5   4   0    8.85    1.02
  -5   4  -1    9.84    1.00
  -5   3  10    1.72    1.46
  -5   3   9    1.31    1.01
  -5   3   8    7.43    1.60
  -5   3   7    0.58    0.75
  -5   3   6    9.84    1.47
  -5   3   5   39.92    2.67
  -5   3   4    8.41    1.25
  -5   3   3   83.57    3.40
  -5   3   2    4.47    0.92
  -5   3   1   39.69    2.10
  -5   3   0    5.55    0.87
  -5   3  -1   20.16    1.40
  -5   3  -2   38.22    1.98
  -5   3  -3   93.71    3.04
  -5   2  11    5.92    1.79
  -5   2  10   10.17    1.89
  -5   2   9    6.54    1.61
  -5   2   8    7.13    1.56
  -5   2   7    9.84    1.67
  -5   2   6    4.22    1.09
  -5   2   5   49.74    2.79
  -5   2   4  139.02    4.53
  -5   2   3    1.44    0.61
  -5   2   2    1.54    0.58
  -5   2   1   15.17    1.39
  -5   2   0   23.64    1.59
  -5   2  -1  140.37    3.93
  -5   2  -2    0.15    0.58
  -5   2  -3  109.55    3.48
  -5   2  -4   15.82    1.54
  -5   1  11    6.98    1.67
  -5   1  10   15.79    2.08
  -5   1   9   -0.15    0.93
  -5   1   8    2.49    0.97
  -5   1   7  117.51    4.88
  -5   1   6   97.27    4.17
  -5   1   5   92.60    3.96
  -5   1   4   30.34    2.15
  -5   1   3   10.87    1.25
  -5   1   2   70.31    3.06
  -5   1   1   36.19    2.11
  -5   1   0   33.85    2.04
  -5   1  -1   15.97    1.53
  -5   1  -2   28.43    2.01
  -5   1  -3    2.92    0.75
  -5   1  -4    7.54    1.23
  -5   0  11   -0.61    1.18
  -5   0  10    6.54    1.65
  -5   0   9   -0.54    0.96
  -5   0   8   26.00    2.47
  -5   0   7   12.10    1.66
  -5   0   6   58.28    3.23
  -5   0   5   24.97    2.02
  -5   0   4   23.88    2.03
  -5   0   3   26.42    2.03
  -5   0   2   62.91    3.06
  -5   0   1    0.18    0.50
  -5   0   0    6.51    1.14
  -5   0  -1   82.14    3.55
  -5   0  -2    4.13    0.98
  -5   0  -3    3.85    0.89
  -5   0  -4    1.69    0.83
  -5  -1  10   -0.17    0.73
  -5  -1   9   -0.38    0.67
  -5  -1   8    0.28    0.86
  -5  -1   7    0.38    0.89
  -5  -1   6    0.68    0.69
  -5  -1   5   11.38    1.56
  -5  -1   4    1.38    0.71
  -5  -1   3   15.90    1.71
  -5  -1   2    0.16    0.74
  -5  -1   1    6.80    1.14
  -5  -1   0    0.72    0.87
  -5  -1  -1    2.24    0.77
  -5  -1  -2    0.44    0.57
  -5  -1  -3    1.43    0.88
  -5  -2   9    0.06    0.97
  -5  -2   8    0.70    1.02
  -5  -2   7    0.06    0.84
  -5  -2   6   29.43    2.50
  -5  -2   5    9.11    1.42
  -5  -2   4   42.21    2.78
  -5  -2   3   15.81    1.88
  -5  -2   2    8.38    1.33
  -5  -2   1    0.89    0.94
  -5  -2   0    0.34    0.58
  -5  -2  -1    0.77    0.85
  -5  -2  -2   58.20    3.29
  -5  -2  -3   11.13    1.64
  -5  -3   8    2.01    1.14
  -5  -3   7    2.80    0.93
  -5  -3   6    4.93    1.20
  -5  -3   5    9.20    1.64
  -5  -3   4   41.02    3.03
  -5  -3   3   22.65    2.38
  -5  -3   2    2.83    1.25
  -5  -3   1   62.26    3.53
  -5  -3   0   38.19    2.90
  -5  -3  -1   76.84    3.85
  -5  -3  -2   20.53    2.19
  -5  -4   7    0.08    1.04
  -5  -4   6    4.81    1.26
  -5  -4   5    3.52    1.37
  -5  -4   4   13.99    2.02
  -5  -4   3    1.67    1.24
  -5  -4   2    1.73    0.94
  -5  -4   1    0.36    0.77
  -5  -4   0    8.45    1.51
  -5  -4  -1    4.87    1.35
  -5  -5   5    0.77    0.93
  -5  -5   4    1.42    1.19
  -5  -5   3    0.44    1.11
  -5  -5   2    0.77    1.04
  -5  -5   1    5.87    1.50
  -5  -5   0    0.38    1.10
  -5  -6   4    0.64    1.18
  -5  -6   3    4.24    1.33
  -5  -6   2    0.36    1.26
  -6   8   6    0.95    1.65
  -6   8   5    1.04    1.51
  -6   7   7   -0.35    1.57
  -6   7   6    0.44    1.47
  -6   7   5    6.61    1.59
  -6   7   4   12.77    2.03
  -6   7   3    0.85    1.00
  -6   6   8    0.10    1.48
  -6   6   7    1.13    1.02
  -6   6   6    1.89    1.30
  -6   6   5   17.15    2.24
  -6   6   4    0.45    0.79
  -6   6   3   21.34    2.12
  -6   6   2   11.77    1.52
  -6   5   9    0.26    1.12
  -6   5   8   17.90    2.60
  -6   5   7    0.21    0.90
  -6   5   6    0.13    1.06
  -6   5   5   10.34    1.73
  -6   5   4    4.83    1.24
  -6   5   3    0.24    0.83
  -6   5   2    0.00    0.44
  -6   5   1    1.33    0.71
  -6   5   0    3.62    0.77
  -6   4   9    4.33    1.42
  -6   4   8    5.04    1.41
  -6   4   7    0.89    1.13
  -6   4   6   36.26    3.03
  -6   4   5    9.23    1.57
  -6   4   4   29.24    2.53
  -6   4   3   22.43    1.94
  -6   4   2   15.58    1.56
  -6   4   1   21.44    1.69
  -6   4   0   20.55    1.64
  -6   4  -1    2.00    0.68
  -6   3  10   -0.04    1.09
  -6   3   9    0.14    1.00
  -6   3   8   14.16    2.12
  -6   3   7    4.93    1.29
  -6   3   6    5.11    1.14
  -6   3   5   23.87    2.21
  -6   3   4   36.73    2.66
  -6   3   3   35.54    2.51
  -6   3   2  281.79    6.36
  -6   3   1    6.50    1.12
  -6   3   0   21.07    1.70
  -6   3  -1    2.70    0.83
  -6   3  -2  105.51    3.72
  -6   2  10    2.24    1.50
  -6   2   9    0.35    1.21
  -6   2   8    2.64    1.12
  -6   2   7    9.50    1.59
  -6   2   6    0.33    0.72
  -6   2   5   10.96    1.65
  -6   2   4    7.53    1.21
  -6   2   3   78.33    3.53
  -6   2   2   23.37    1.96
  -6   2   1    1.46    0.84
  -6   2   0   40.39    2.48
  -6   2  -1   58.00    2.99
  -6   2  -2    7.73    1.38
  -6   2  -3  145.13    4.60
  -6   2  -4   -0.02    0.84
  -6   1  10   -0.89    1.27
  -6   1   9   10.40    1.95
  -6   1   8   -0.33    0.97
  -6   1   7    3.28    1.00
  -6   1   6    0.37    0.91
  -6   1   5   40.77    2.80
  -6   1   4   24.27    2.13
  -6   1   3   20.07    1.87
  -6   1   2   37.77    2.48
  -6   1   1    1.59    0.72
  -6   1   0    5.86    1.24
  -6   1  -1    3.21    1.01
  -6   1  -2    5.45    1.21
  -6   1  -3   37.25    2.54
  -6   1  -4   10.02    1.70
  -6   0  10    4.03    1.27
  -6   0   9    0.74    1.13
  -6   0   8   -0.06    0.76
  -6   0   7    5.67    1.25
  -6   0   6   26.64    2.50
  -6   0   5   31.90    2.61
  -6   0   4   26.29    2.26
  -6   0   3    1.56    0.80
  -6   0   2    0.53    0.83
  -6   0   1   26.54    2.26
  -6   0   0    5.44    1.13
  -6   0  -1    0.22    0.81
  -6   0  -2    1.60    0.77
  -6   0  -3    0.62    0.59
  -6   0  -4    2.15    0.82
  -6  -1   9    0.04    1.16
  -6  -1   8    0.51    0.78
  -6  -1   7    0.74    0.78
  -6  -1   6    3.72    1.21
  -6  -1   5    0.57    0.82
  -6  -1   4    6.80    1.30
  -6  -1   3    3.39    1.19
  -6  -1   2   91.98    4.38
  -6  -1   1    1.14    1.03
  -6  -1   0    7.16    1.34
  -6  -1  -1   27.58    2.45
  -6  -1  -2    0.65    0.88
  -6  -1  -3    1.53    1.10
  -6  -2   9    0.71    1.20
  -6  -2   8    0.11    0.88
  -6  -2   7    3.40    1.13
  -6  -2   6    0.53    0.78
  -6  -2   5    3.93    1.13
  -6  -2   4    7.10    1.44
  -6  -2   3    3.04    1.26
  -6  -2   2   12.13    1.95
  -6  -2   1   15.36    2.04
  -6  -2   0    1.02    1.08
  -6  -2  -1   18.83    2.23
  -6  -2  -2    2.66    1.23
  -6  -2  -3   27.45    2.59
  -6  -3   8    0.30    1.16
  -6  -3   7    2.36    1.33
  -6  -3   6    0.54    0.93
  -6  -3   5    1.40    1.22
  -6  -3   4    0.92    0.93
  -6  -3   3    4.12    1.25
  -6  -3   2   -1.09    1.02
  -6  -3   1   -1.20    0.95
  -6  -3   0    1.34    1.16
  -6  -3  -1   13.33    1.93
  -6  -3  -2    1.84    1.20
  -6  -4   7    1.68    1.44
  -6  -4   6   -1.40    1.21
  -6  -4   5    0.49    1.34
  -6  -4   4    9.25    1.91
  -6  -4   3    6.80    1.70
  -6  -4   2   -0.17    1.10
  -6  -4   1    0.24    0.82
  -6  -4   0    3.00    1.21
  -6  -4  -1   10.94    1.95
  -6  -5   5    2.18    1.50
  -6  -5   4    9.00    1.95
  -6  -5   3   -0.23    0.91
  -6  -5   2    3.40    1.38
  -6  -5   1    5.09    1.94
  -6  -5   0    0.10    1.24
  -7   8   5    0.90    1.44
  -7   7   7   -0.28    1.62
  -7   7   6    5.57    1.55
  -7   7   5   -0.70    1.15
  -7   7   4   22.16    2.47
  -7   6   7    0.53    1.38
  -7   6   6    3.27    1.55
  -7   6   5    0.70    1.22
  -7   6   4    1.70    1.21
  -7   6   3   10.35    1.49
  -7   6   2   -0.33    0.77
  -7   5   8   -0.48    1.51
  -7   5   7    9.02    1.91
  -7   5   6   -0.32    1.26
  -7   5   5    1.95    0.91
  -7   5   4    4.06    1.22
  -7   5   3    3.72    1.01
  -7   5   2    0.75    0.84
  -7   5   1    0.51    0.68
  -7   4   9    0.51    1.48
  -7   4   8   -0.35    0.88
  -7   4   7    0.38    1.13
  -7   4   6    0.26    0.83
  -7   4   5   32.04    2.86
  -7   4   4    8.61    1.44
  -7   4   3    0.92    0.69
  -7   4   2   42.22    2.75
  -7   4   1   62.27    3.22
  -7   4   0    4.78    1.01
  -7   4  -1    0.92    0.73
  -7   3   9    2.59    1.58
  -7   3   8    0.04    0.93
  -7   3   7    0.46    0.89
  -7   3   6    0.40    0.87
  -7   3   5    0.87    0.80
  -7   3   4    5.19    1.26
  -7   3   3   -0.36    0.79
  -7   3   2  117.69    4.64
  -7   3   1    1.02    0.94
  -7   3   0  181.36    5.55
  -7   3  -1    1.46    0.98
  -7   3  -2   10.57    1.49
  -7   2   9    0.77    1.06
  -7   2   8    0.56    1.24
  -7   2   7    2.86    1.06
  -7   2   6    8.06    1.50
  -7   2   5    6.99    1.43
  -7   2   4   20.56    2.11
  -7   2   3    8.91    1.50
  -7   2   2   -0.11    0.76
  -7   2   1    1.57    1.05
  -7   2   0   79.77    3.90
  -7   2  -1    0.36    1.00
  -7   2  -2   30.07    2.54
  -7   2  -3   25.07    2.24
  -7   1   9    2.75    1.15
  -7   1   7    3.05    1.28
  -7   1   6    0.63    0.80
  -7   1   5    2.56    1.20
  -7   1   4   17.61    2.02
  -7   1   3    2.85    1.09
  -7   1   2    2.49    1.05
  -7   1   1   16.19    1.95
  -7   1   0   -0.55    0.55
  -7   1  -1   13.39    1.87
  -7   1  -2    3.84    1.26
  -7   1  -3   -0.34    0.85
  -7   1  -4    3.99    1.47
  -7   0   9   -0.06    1.33
  -7   0   8    0.66    1.26
  -7   0   7    0.12    1.12
  -7   0   6    2.89    1.04
  -7   0   5    8.33    1.55
  -7   0   4    1.14    1.06
  -7   0   3    2.75    0.96
  -7   0   2   15.37    1.93
  -7   0   1    1.88    1.12
  -7   0   0    5.32    1.58
  -7   0  -1    2.79    1.22
  -7   0  -2    0.75    1.04
  -7   0  -3    1.64    1.04
  -7   0  -4    2.27    1.20
  -7  -1   8    0.33    0.96
  -7  -1   7    0.40    0.94
  -7  -1   6   -0.09    1.11
  -7  -1   5    3.81    1.33
  -7  -1   4   12.41    1.90
  -7  -1   3   -0.37    0.76
  -7  -1   2    5.09    1.30
  -7  -1   1    7.90    1.68
  -7  -1   0   36.51    3.17
  -7  -1  -1   -0.55    1.04
  -7  -1  -2    1.09    1.07
  -7  -1  -3    6.75    1.88
  -7  -2   7    0.44    1.18
  -7  -2   6    0.65    1.27
  -7  -2   5    1.12    1.32
  -7  -2   4    0.42    1.22
  -7  -2   3    3.73    1.28
  -7  -2   2    0.41    1.27
  -7  -2   1   11.32    2.04
  -7  -2   0    0.57    1.20
  -7  -2  -1    4.33    1.23
  -7  -2  -2    0.22    1.14
  -7  -2  -3    8.30    1.70
  -7  -3   6    0.68    1.39
  -7  -3   5    2.76    1.51
  -7  -3   4    0.38    1.53
  -7  -3   3   -0.96    0.82
  -7  -3   2    7.62    1.83
  -7  -3   1    6.51    1.76
  -7  -3   0   -1.40    1.09
  -7  -3  -1    0.47    1.06
  -7  -3  -2    1.35    1.09
  -7  -4   4   -0.58    1.53
  -7  -4   3    0.37    1.03
  -7  -4   2    1.57    1.49
  -7  -4   1   -0.43    0.86
  -7  -4   0    0.17    1.29
  -7  -4  -1    0.19    1.36
  -8   7   5    0.39    1.01
  -8   7   4    1.47    1.27
  -8   6   6    2.16    1.47
  -8   6   5    1.95    1.41
  -8   6   4   -0.88    0.72
  -8   6   3    2.16    1.15
  -8   5   7    1.25    1.54
  -8   5   6    1.30    1.40
  -8   5   5    0.63    1.21
  -8   5   4   -0.40    1.01
  -8   5   3    2.09    0.89
  -8   5   2    0.87    0.91
  -8   5   1    3.40    1.09
  -8   4   7    5.55    1.84
  -8   4   6    0.93    1.29
  -8   4   5    1.05    1.10
  -8   4   4    0.46    1.02
  -8   4   3   -0.06    0.89
  -8   4   2   -0.03    0.65
  -8   4   1   19.34    1.97
  -8   4   0   25.55    2.28
  -8   3   8    0.47    1.35
  -8   3   7    0.85    1.31
  -8   3   6    0.86    1.23
  -8   3   5    1.03    0.82
  -8   3   4    1.55    1.16
  -8   3   3    2.23    1.09
  -8   3   2    5.99    1.22
  -8   3   1   -0.12    0.90
  -8   3   0    4.30    1.12
  -8   3  -1    0.21    1.00
  -8   2   8    0.51    1.05
  -8   2   7    1.09    1.35
  -8   2   6    8.06    1.82
  -8   2   5    7.27    1.50
  -8   2   4   11.02    1.77
  -8   2   3    3.17    1.21
  -8   2   2    3.29    1.04
  -8   2   1   -0.25    0.90
  -8   2   0    0.95    1.04
  -8   2  -1    4.90    1.40
  -8   2  -2    1.58    1.16
  -8   2  -3    9.35    1.68
  -8   1   7    0.67    1.25
  -8   1   6    0.06    1.18
  -8   1   5    3.13    1.35
  -8   1   4   10.44    1.87
  -8   1   3    1.15    1.17
  -8   1   2    1.80    1.21
  -8   1   1    3.77    1.32
  -8   1   0    2.67    1.25
  -8   1  -1    8.56    1.72
  -8   1  -2   -0.11    0.82
  -8   1  -3    5.64    1.27
  -8   1  -4    0.24    1.52
  -8   0   7   -0.28    1.23
  -8   0   6    3.06    1.27
  -8   0   5    2.35    1.16
  -8   0   4    1.01    1.20
  -8   0   3    0.06    0.89
  -8   0   2   -0.14    1.05
  -8   0   1    5.89    1.56
  -8   0   0    0.77    0.93
  -8   0  -1    2.34    1.33
  -8   0  -2   -0.69    1.09
  -8   0  -3    0.97    0.97
  -8   0  -4    0.33    1.14
  -8  -1   6   -0.35    0.92
  -8  -1   5    0.83    1.34
  -8  -1   4    0.45    0.97
  -8  -1   3    1.05    1.36
  -8  -1   2    0.10    1.06
  -8  -1   1    1.50    1.36
  -8  -1   0    2.81    1.46
  -8  -1  -1    1.98    1.37
  -8  -1  -2    0.02    1.10
  -8  -1  -3    1.41    1.18
  -8  -2   5    5.22    1.84
  -8  -2   4    1.66    1.52
  -8  -2   3    1.33    1.19
  -8  -2   2   -0.20    1.03
  -8  -2   1    1.07    1.43
  -8  -2   0    2.57    1.21
  -8  -2  -1    0.85    1.33
  -8  -2  -2    2.13    1.59
  -8  -2  -3   -0.22    1.06
  -9   6   5    0.26    1.32
  -9   6   4    1.55    1.28
  -9   5   5    0.31    1.29
  -9   5   4   13.46    2.08
  -9   5   3   -0.56    1.07
  -9   5   2    1.11    1.10
  -9   4   6    0.58    1.01
  -9   4   5    0.79    1.26
  -9   4   4    7.55    1.75
  -9   4   3    0.13    0.75
  -9   4   2    1.58    1.09
  -9   4   1    8.72    1.66
  -9   3   6   -0.10    0.91
  -9   3   5    0.62    1.24
  -9   3   4    0.78    1.17
  -9   3   3    1.60    1.21
  -9   3   2    0.87    1.10
  -9   3   1    1.21    1.10
  -9   3   0    1.01    1.15
  -9   3  -1    4.55    1.29
  -9   2   6    2.13    1.16
  -9   2   5   11.22    1.96
  -9   2   4    1.87    1.11
  -9   2   3   14.48    2.22
  -9   2   2    1.31    0.99
  -9   2   1    0.53    0.90
  -9   2   0    3.72    1.46
  -9   2  -1    0.61    1.24
  -9   2  -2   -0.60    0.78
  -9   1   5   -0.52    1.27
  -9   1   4    0.17    1.22
  -9   1   3   -0.46    1.29
  -9   1   2   -1.00    1.17
  -9   1   1    1.77    1.33
  -9   1   0    1.43    1.43
  -9   1  -1    0.79    1.03
  -9   1  -2    0.84    0.98
  -9   1  -3    0.72    1.23
  -9   0   4   -0.34    1.50
  -9   0   3    1.35    1.11
  -9   0   2   -0.15    1.36
  -9   0   1    3.05    1.67
  -9   0   0   -0.17    1.42
  -9   0  -1    1.68    1.45
  -9   0  -2    1.53    1.08
  -9  -1   2   -0.04    1.13
  -9  -1   1   -0.19    1.09
  -9  -1   0   -0.38    1.40
 -10   4   3   -0.38    0.87
 -10   4   2   -0.58    1.18
 -10   4   1    2.04    1.17
 -10   3   2    1.40    1.38
 -10   3   1   -0.68    1.23
 -10   3   0    0.55    1.34
 -10   2   1    0.05    0.98
 -10   2   0    1.21    1.20
   0   2  -3   21.72    1.16
   0   2  -2  149.75    2.59
   0   2  -1    2.81    0.34
   0   3  -4   47.42    1.96
   0   3  -3  291.33    4.43
   0   3  -2  251.29    3.67
   0   3  -1   45.08    1.47
   0   4  -4  167.26    3.96
   0   4  -3    3.79    0.63
   0   4  -2    6.20    0.72
   0   4  -1  367.25    5.16
   0   5  -5   33.84    2.08
   0   5  -4   66.22    2.56
   0   5  -3   63.51    2.27
   0   5  -2   -0.34    0.42
   0   5  -1   15.69    1.17
  -1   6   0    0.11    0.58
  -1   6  -1   20.33    1.68
  -1   6  -2   35.40    2.12
  -1   6  -3   75.89    3.02
  -1   6  -4    3.82    0.91
  -1   6  -5    4.07    1.00
  -1   6  -6   -0.56    0.78
  -1   5  -1   13.02    1.26
  -1   5  -2   11.88    1.18
  -1   5  -3   55.62    2.37
  -1   5  -4   57.52    2.63
  -1   5  -5    4.85    1.05
  -1   5  -6    0.74    0.82
  -1   4  -1  156.53    3.70
  -1   4  -2  482.07    6.64
  -1   4  -4    6.35    0.89
  -1   4  -5    0.81    0.66
  -1   3  -1   24.62    1.26
  -1   3  -2    4.41    0.58
  -1   3  -3   56.26    2.01
  -1   3  -4  200.81    4.38
  -1   3  -5   -0.08    0.39
  -1   2  -1 1613.26   12.15
  -1   2  -2  364.68    4.81
  -1   2  -3  102.97    2.62
  -1   2  -4   43.38    1.89
  -1   1  -1  465.88    4.73
  -1   1  -2 2313.36   16.03
  -1   1  -3 1629.10   13.54
  -1   0  -1  786.86    6.51
   1   3  -2   14.52    0.75
   1   3  -1  142.83    2.19
   1   4  -3    5.03    0.69
   1   4  -2  139.29    2.50
   1   4  -1   96.86    2.11
  -2   7   0   40.99    2.73
  -2   7  -1   13.23    1.60
  -2   7  -2   40.79    2.65
  -2   7  -3   17.54    1.86
  -2   7  -4  108.28    4.36
  -2   7  -5    2.14    1.06
  -2   7  -6    3.90    1.25
  -2   7  -7    0.27    0.79
  -2   6   0   -0.41    0.67
  -2   6  -1   45.87    2.51
  -2   6  -2  188.55    5.14
  -2   6  -3   53.27    2.79
  -2   6  -4   39.87    2.49
  -2   6  -5   21.67    1.98
  -2   6  -6   38.83    2.66
  -2   6  -7   15.16    1.90
  -2   5  -1    1.27    0.57
  -2   5  -2    0.71    0.61
  -2   5  -3    8.82    1.17
  -2   5  -4  227.02    5.27
  -2   5  -5    4.28    0.92
  -2   5  -6    7.01    1.31
  -2   5  -7    8.79    1.44
  -2   4  -1   37.03    1.90
  -2   4  -2   35.84    1.94
  -2   4  -3   41.92    2.09
  -2   4  -4   13.47    1.30
  -2   4  -5    6.70    1.04
  -2   4  -6   24.94    2.01
  -2   3  -1  298.44    5.03
  -2   3  -2   13.88    1.04
  -2   3  -3   16.43    1.29
  -2   3  -4   23.19    1.52
  -2   3  -5  291.49    5.88
  -2   2  -1  723.69    7.67
  -2   2  -2  367.23    5.25
  -2   2  -3    3.83    0.62
  -2   2  -4   28.95    1.65
  -2   2  -5   48.45    2.46
  -2   1   0  106.61    2.35
  -2   1  -1 2499.30   17.12
  -2   1  -2  663.94    7.11
  -2   1  -3  152.18    3.31
  -2   0  -1   27.22    1.01
  -2   0  -2  325.53    4.44
  -3   8   1   16.07    2.07
  -3   8   0   15.71    2.08
  -3   8  -1    2.62    1.09
  -3   8  -2    3.72    1.22
  -3   8  -3   28.08    2.44
  -3   8  -4    2.27    1.00
  -3   8  -5    3.98    1.09
  -3   8  -6    2.35    1.19
  -3   7   0   60.55    3.45
  -3   7  -1   15.84    1.85
  -3   7  -2   -0.44    0.88
  -3   7  -3   41.43    2.77
  -3   7  -4    7.11    1.37
  -3   7  -5    1.76    0.84
  -3   7  -6    4.31    1.27
  -3   7  -7   -0.10    0.72
  -3   7  -8   -0.02    1.09
  -3   6   0   63.00    3.16
  -3   6  -1  127.28    4.46
  -3   6  -2   16.35    1.74
  -3   6  -3    0.19    0.81
  -3   6  -4   91.45    3.93
  -3   6  -5   10.85    1.60
  -3   6  -6   22.64    2.19
  -3   6  -7   -0.26    0.94
  -3   6  -8    2.13    1.34
  -3   5   0    4.42    0.99
  -3   5  -1    7.63    1.13
  -3   5  -2    0.81    0.66
  -3   5  -3   13.21    1.43
  -3   5  -4   15.04    1.54
  -3   5  -5   12.72    1.47
  -3   5  -6    8.09    1.32
  -3   5  -7    4.67    1.28
  -3   4   0   64.74    2.73
  -3   4  -1   45.05    2.28
  -3   4  -2   98.97    3.47
  -3   4  -3    2.14    0.77
  -3   4  -4    1.02    0.54
  -3   4  -5   22.67    1.82
  -3   4  -6    3.22    0.87
  -3   4  -7    0.31    0.71
  -3   3   0  460.02    6.95
  -3   3  -1  115.81    3.36
  -3   3  -2  217.47    4.58
  -3   3  -3   43.59    2.22
  -3   3  -4   -0.30    0.58
  -3   3  -5  124.06    4.17
  -3   3  -6    0.58    0.57
  -3   2   0  229.95    4.49
  -3   2  -1  227.26    4.36
  -3   2  -2   50.13    2.04
  -3   2  -3  189.63    4.41
  -3   2  -4  395.48    6.89
  -3   2  -5    0.38    0.73
  -3   1   0  122.18    2.77
  -3   1  -1   23.59    1.28
  -3   1  -2  291.66    4.86
  -3   1  -3   28.16    1.61
  -3   1  -4   95.72    3.16
  -3   0   1  250.90    3.59
  -3   0   0   -0.05    0.29
  -3   0  -1   27.74    1.25
  -3   0  -2  133.64    2.97
  -3  -1   1  221.25    2.64
  -3  -1   0  151.29    2.25
  -4   9   2    2.70    1.14
  -4   9   1    4.53    1.58
  -4   9   0    5.98    1.58
  -4   9  -1    1.73    1.23
  -4   9  -2    6.92    1.65
  -4   9  -3    3.61    1.43
  -4   9  -4   10.38    1.89
  -4   9  -5    1.69    1.24
  -4   9  -6   -0.53    0.89
  -4   8   1    0.81    0.89
  -4   8   0   60.21    3.96
  -4   8  -1   12.44    1.74
  -4   8  -2    0.55    1.15
  -4   8  -3   56.33    3.52
  -4   8  -4   -0.28    0.99
  -4   8  -5    3.84    1.14
  -4   8  -6   -0.43    0.78
  -4   8  -7    2.39    1.50
  -4   8  -8   -0.28    0.89
  -4   7   1   15.08    1.86
  -4   7   0   69.69    4.00
  -4   7  -1   37.00    2.82
  -4   7  -2   26.53    2.44
  -4   7  -3    4.75    1.19
  -4   7  -4   -0.84    0.79
  -4   7  -5    1.50    1.03
  -4   7  -6   10.46    1.79
  -4   7  -7   -0.62    1.14
  -4   7  -8    2.23    1.17
  -4   6   0   98.77    4.19
  -4   6  -1   77.45    3.67
  -4   6  -2    7.32    1.35
  -4   6  -3    6.61    1.18
  -4   6  -4    4.48    1.18
  -4   6  -5    3.88    1.06
  -4   6  -6   56.48    3.45
  -4   6  -7    0.62    1.13
  -4   6  -8    7.26    1.47
  -4   5   0  111.25    4.14
  -4   5  -1   85.31    3.59
  -4   5  -2   26.08    2.12
  -4   5  -3    1.24    0.68
  -4   5  -4    0.23    0.60
  -4   5  -5    0.52    0.97
  -4   5  -6   14.70    1.74
  -4   5  -7    8.12    1.42
  -4   5  -8   16.35    2.28
  -4   4   0    9.42    1.26
  -4   4  -1   26.90    1.93
  -4   4  -2   63.85    2.97
  -4   4  -3   93.03    3.64
  -4   4  -4   14.93    1.48
  -4   4  -5    6.27    1.21
  -4   4  -6   12.68    1.62
  -4   4  -7    0.05    0.68
  -4   3   0  143.43    4.18
  -4   3  -1  413.10    7.05
  -4   3  -2    1.42    0.62
  -4   3  -3  123.68    4.05
  -4   3  -4    2.43    0.90
  -4   3  -5   11.32    1.44
  -4   3  -6   88.44    3.87
  -4   2   0   96.38    3.02
  -4   2  -1   -0.30    0.32
  -4   2  -2   70.23    2.68
  -4   2  -3   60.36    2.69
  -4   2  -4    0.99    0.61
  -4   2  -5    4.01    0.95
  -4   1   1  380.11    5.67
  -4   1   0   27.08    1.49
  -4   1  -1   51.88    2.07
  -4   1  -2  250.07    4.84
  -4   1  -3   44.37    2.20
  -4   1  -4    2.45    0.84
  -4   0   1  268.28    4.09
  -4   0   0    2.72    0.62
  -4   0  -1  381.04    5.45
  -4   0  -2   61.64    2.24
  -4  -1   1    2.12    0.39
  -4  -1   0  100.52    2.09
  -5  10   2    3.36    1.80
  -5  10   1    3.71    1.67
  -5  10   0    1.77    1.45
  -5  10  -1    3.01    1.50
  -5  10  -2    1.23    1.40
  -5  10  -3    0.40    1.41
  -5  10  -4    2.88    1.63
  -5   9   2    4.54    1.38
  -5   9   1    0.44    1.04
  -5   9   0   10.24    1.81
  -5   9  -1    0.00    0.87
  -5   9  -2    3.57    1.57
  -5   9  -3    4.12    1.36
  -5   9  -4   13.01    2.13
  -5   9  -5    1.01    1.00
  -5   9  -6    0.61    1.47
  -5   9  -7    2.54    1.71
  -5   8   1    0.33    1.11
  -5   8   0    8.86    1.78
  -5   8  -1    4.96    1.27
  -5   8  -2    3.93    1.26
  -5   8  -3   47.06    3.38
  -5   8  -4    3.65    1.20
  -5   8  -5   10.56    1.74
  -5   8  -6    2.98    1.52
  -5   8  -7    0.01    0.95
  -5   8  -8    1.00    1.50
  -5   7   1   17.21    2.00
  -5   7   0    0.33    0.73
  -5   7  -1   -0.13    0.62
  -5   7  -2   10.63    1.79
  -5   7  -3   33.61    2.73
  -5   7  -4    2.88    1.26
  -5   7  -5    1.39    0.89
  -5   7  -6    1.41    1.24
  -5   7  -7    0.19    1.27
  -5   7  -8    0.17    1.29
  -5   7  -9    2.21    1.73
  -5   6   1    1.45    0.91
  -5   6   0    1.46    0.76
  -5   6  -1    6.68    1.16
  -5   6  -2   10.50    1.53
  -5   6  -3    1.40    0.81
  -5   6  -4   13.81    1.82
  -5   6  -5   31.46    2.61
  -5   6  -6    8.40    1.65
  -5   6  -7    2.94    1.43
  -5   6  -8    4.54    1.61
  -5   5   1   35.87    2.48
  -5   5   0   35.45    2.52
  -5   5  -1    3.58    0.94
  -5   5  -2   11.05    1.46
  -5   5  -3   30.00    2.44
  -5   5  -4   23.42    2.28
  -5   5  -5    0.91    1.07
  -5   5  -6   34.78    2.85
  -5   5  -7    6.41    1.56
  -5   5  -8    2.40    1.36
  -5   4   1    0.64    0.58
  -5   4   0    9.66    1.37
  -5   4  -1   10.89    1.33
  -5   4  -2    0.22    0.49
  -5   4  -3   26.40    2.08
  -5   4  -4    2.68    0.97
  -5   4  -5    3.57    1.13
  -5   4  -6   -0.55    0.63
  -5   4  -7    4.39    1.43
  -5   3   1   37.95    2.19
  -5   3   0    4.79    0.92
  -5   3  -1   21.59    1.78
  -5   3  -2   33.06    2.17
  -5   3  -3  101.37    3.95
  -5   3  -4   36.41    2.47
  -5   3  -5    1.41    0.81
  -5   3  -6    7.52    1.37
  -5   2   1   15.56    1.48
  -5   2   0   27.87    1.79
  -5   2  -1  156.44    4.13
  -5   2  -2   -0.01    0.69
  -5   2  -3  100.45    3.71
  -5   2  -4   13.25    1.56
  -5   2  -5   13.64    1.60
  -5   1   2   74.90    2.65
  -5   1   1   34.16    1.82
  -5   1   0   34.58    1.86
  -5   1  -1   13.89    1.26
  -5   1  -2   31.33    1.95
  -5   1  -3    3.25    0.92
  -5   1  -4    5.39    0.97
  -5   0   1    0.38    0.45
  -5   0   0    5.36    0.77
  -5   0  -1   79.18    2.55
  -5   0  -2    3.19    0.82
  -6  10   1    7.69    1.77
  -6  10   0   -0.20    0.95
  -6  10  -1    2.84    1.61
  -6  10  -2   -0.06    0.96
  -6  10  -3    1.84    1.55
  -6   9   3    0.54    1.33
  -6   9   2    0.64    1.33
  -6   9   1    0.88    1.37
  -6   9   0    2.78    1.40
  -6   9  -1    0.96    1.29
  -6   9  -2    3.19    1.52
  -6   9  -3    0.81    1.34
  -6   9  -4    6.30    1.79
  -6   9  -5   11.86    2.01
  -6   9  -6   -0.12    1.13
  -6   8   2    7.09    1.63
  -6   8   1    0.86    0.95
  -6   8   0    2.63    1.04
  -6   8  -1   -0.34    0.76
  -6   8  -2    2.78    1.30
  -6   8  -3    0.56    0.88
  -6   8  -4    0.52    1.15
  -6   8  -5    2.13    1.14
  -6   8  -6    7.93    2.03
  -6   8  -7    0.46    1.46
  -6   7   2    1.12    0.86
  -6   7   1   26.85    2.70
  -6   7   0    6.52    1.39
  -6   7  -1   28.46    2.64
  -6   7  -2    2.57    1.26
  -6   7  -3    2.66    1.22
  -6   7  -4    2.15    1.20
  -6   7  -5    2.13    1.00
  -6   7  -6   -0.22    1.20
  -6   7  -7    1.01    1.11
  -6   7  -8    0.66    1.04
  -6   6   1    2.88    1.02
  -6   6   0   12.59    1.66
  -6   6  -1    0.58    0.73
  -6   6  -2    0.61    0.96
  -6   6  -3   10.64    1.67
  -6   6  -4   17.32    2.14
  -6   6  -5    8.18    1.55
  -6   6  -6    3.25    1.16
  -6   6  -7    1.38    1.10
  -6   6  -8    0.79    1.09
  -6   5   1    0.34    0.70
  -6   5   0    3.10    1.05
  -6   5  -1    0.36    0.85
  -6   5  -2   15.96    1.83
  -6   5  -3    6.54    1.41
  -6   5  -4    5.30    1.19
  -6   5  -5    0.68    1.13
  -6   5  -6   29.31    2.71
  -6   5  -7    0.37    1.11
  -6   5  -8    0.01    1.17
  -6   4   1   23.50    2.18
  -6   4   0   15.61    1.62
  -6   4  -1    1.58    0.97
  -6   4  -2   59.49    3.25
  -6   4  -3    8.50    1.51
  -6   4  -4   28.46    2.44
  -6   4  -5    3.12    1.18
  -6   4  -6   14.69    2.08
  -6   4  -7    2.10    1.33
  -6   3   2  285.21    6.56
  -6   3   1    5.61    1.22
  -6   3   0   23.82    1.95
  -6   3  -1    1.69    0.87
  -6   3  -2  103.31    4.05
  -6   3  -3    6.34    1.12
  -6   3  -4   -0.15    0.60
  -6   3  -5    0.64    0.83
  -6   3  -6    4.02    1.36
  -6   2   2   23.64    1.84
  -6   2   1    1.76    0.76
  -6   2   0   33.89    2.16
  -6   2  -1   49.71    2.64
  -6   2  -2    5.77    1.01
  -6   2  -3  156.35    4.89
  -6   2  -4   -0.30    0.87
  -6   2  -5    1.19    0.83
  -6   1   2   20.74    1.52
  -6   1   1    1.23    0.64
  -6   1   0    4.37    0.93
  -6   1  -1    2.07    0.73
  -6   1  -2    3.78    0.90
  -6   1  -3   33.51    2.26
  -6   1  -4   10.90    1.52
  -7   9   3    2.09    1.27
  -7   9   2    1.33    1.49
  -7   9   1    0.95    0.96
  -7   9   0   -0.24    0.85
  -7   9  -1    1.55    1.33
  -7   9  -2    1.02    0.93
  -7   9  -3    0.33    0.99
  -7   9  -4    2.45    1.58
  -7   9  -5    9.53    2.18
  -7   8   3    8.99    1.85
  -7   8   2    1.14    1.27
  -7   8   1   -0.20    1.09
  -7   8   0    1.47    0.92
  -7   8  -1    0.37    1.06
  -7   8  -2   -0.39    1.03
  -7   8  -3    0.15    0.90
  -7   8  -4    2.78    1.27
  -7   8  -5    0.47    1.00
  -7   8  -6    0.47    1.11
  -7   7   3    3.36    1.17
  -7   7   2    1.46    0.98
  -7   7   1    3.88    1.44
  -7   7   0   17.41    2.21
  -7   7  -1    1.09    0.86
  -7   7  -2    1.09    0.81
  -7   7  -3    1.59    1.21
  -7   7  -4    1.18    1.05
  -7   7  -5    1.02    1.17
  -7   7  -6   -0.09    1.23
  -7   7  -7   -0.08    1.42
  -7   6   2    0.41    0.99
  -7   6   1    0.66    1.02
  -7   6   0    1.13    0.73
  -7   6  -1    0.94    1.04
  -7   6  -2    2.35    1.12
  -7   6  -3    0.58    1.03
  -7   6  -4   -0.04    0.79
  -7   6  -5    3.84    1.46
  -7   6  -6   -0.65    0.88
  -7   6  -7   -0.26    0.94
  -7   6  -8    3.73    1.74
  -7   5   2    0.84    0.75
  -7   5   1    0.49    0.93
  -7   5   0    1.28    0.89
  -7   5  -1    1.40    0.77
  -7   5  -2    1.87    0.90
  -7   5  -3    3.19    1.23
  -7   5  -4    7.18    1.53
  -7   5  -5   -0.40    0.74
  -7   5  -6    0.05    1.18
  -7   5  -7   -0.19    1.24
  -7   5  -8   -0.61    1.08
  -7   4   2   44.36    3.04
  -7   4   1   62.34    3.38
  -7   4   0    4.72    1.31
  -7   4  -1    0.48    0.93
  -7   4  -2    3.39    1.06
  -7   4  -3   24.42    2.42
  -7   4  -4   15.65    2.11
  -7   4  -5   -0.42    1.03
  -7   4  -6    0.68    1.18
  -7   4  -7    0.20    1.14
  -7   3   3   -0.88    0.78
  -7   3   2  122.17    4.66
  -7   3   1   -1.65    0.89
  -7   3   0  147.81    4.98
  -7   3  -1   -0.33    0.97
  -7   3  -2   11.56    1.73
  -7   3  -3    1.45    1.11
  -7   3  -4    4.62    1.34
  -7   3  -5    1.03    0.86
  -7   3  -6    8.22    1.70
  -7   2   1    0.69    0.80
  -7   2   0   74.47    3.24
  -7   2  -1    0.42    0.86
  -7   2  -2   27.86    2.30
  -7   2  -3   25.82    2.24
  -7   2  -4    2.30    1.15
  -7   2  -5    8.47    1.62
  -8   9   1    1.56    1.07
  -8   9   0   -0.27    0.92
  -8   9  -1    0.88    1.10
  -8   9  -2    1.01    1.33
  -8   8   4    4.79    1.45
  -8   8   3    6.48    1.65
  -8   8   2    0.31    1.27
  -8   8   1    0.02    0.79
  -8   8   0    0.26    1.16
  -8   8  -1    1.81    1.12
  -8   8  -2    1.01    1.20
  -8   8  -3    0.89    0.98
  -8   8  -4    0.63    1.16
  -8   8  -5    0.61    1.36
  -8   7   4    0.82    1.28
  -8   7   3    3.72    1.31
  -8   7   2    2.58    1.46
  -8   7   1    9.38    1.70
  -8   7   0    0.54    1.08
  -8   7  -1    0.45    1.18
  -8   7  -2    0.75    1.18
  -8   7  -3    0.85    1.21
  -8   7  -4    1.45    1.39
  -8   7  -5   -0.25    1.35
  -8   7  -6   -0.06    1.03
  -8   6   4    1.03    0.91
  -8   6   3    0.91    1.18
  -8   6   2    2.31    1.00
  -8   6   1    2.09    1.11
  -8   6   0    2.01    1.20
  -8   6  -1    0.42    0.79
  -8   6  -2    1.26    0.93
  -8   6  -3    0.96    1.22
  -8   6  -4   -0.55    1.09
  -8   6  -5    3.41    1.59
  -8   6  -6    1.68    1.43
  -8   6  -7   -0.17    1.43
  -8   5   4    0.56    0.83
  -8   5   3    1.52    1.11
  -8   5   2    1.89    0.90
  -8   5   1    2.79    0.91
  -8   5   0    3.78    1.22
  -8   5  -1    0.63    0.93
  -8   5  -2    5.27    1.30
  -8   5  -3    5.23    1.58
  -8   5  -4    0.38    0.96
  -8   5  -5    0.68    1.25
  -8   5  -6    1.41    1.48
  -8   5  -7    1.52    1.24
  -8   4   4    0.89    0.98
  -8   4   3   -0.71    0.72
  -8   4   2   -0.09    0.95
  -8   4   1   16.85    1.92
  -8   4   0   21.32    2.27
  -8   4  -1    1.58    1.18
  -8   4  -2   39.92    3.13
  -8   4  -3   11.15    1.82
  -8   4  -4   -0.33    1.12
  -8   4  -5    0.58    1.02
  -8   4  -6    2.06    1.40
  -8   4  -7    0.37    1.51
  -8   3   0    5.75    1.24
  -8   3  -1    0.21    0.87
  -8   3  -2    8.76    1.53
  -8   3  -3    0.79    1.09
  -8   3  -4    1.17    1.24
  -8   3  -5    5.49    1.54
  -8   3  -6   -0.12    1.43
  -9   8   1   -0.04    1.27
  -9   8   0    0.75    1.34
  -9   8  -1    1.57    1.37
  -9   7   3    2.49    1.22
  -9   7   2    2.19    1.31
  -9   7   1    2.61    1.43
  -9   7   0    0.13    0.97
  -9   7  -1   -0.05    1.12
  -9   7  -2    0.80    0.96
  -9   7  -3    0.13    1.36
  -9   7  -4    1.89    1.15
  -9   6   5    1.40    1.11
  -9   6   4    2.04    1.20
  -9   6   3    1.75    1.43
  -9   6   2   -0.08    1.07
  -9   6   1    1.46    0.95
  -9   6   0    4.32    1.51
  -9   6  -1    0.07    1.11
  -9   6  -2    0.01    0.83
  -9   6  -3    0.44    0.98
  -9   6  -4   -0.33    1.22
  -9   6  -5    0.92    1.47
  -9   5   5    0.78    1.30
  -9   5   4   13.63    2.12
  -9   5   3    0.37    0.80
  -9   5   2    1.73    1.12
  -9   5   1   -0.28    0.70
  -9   5   0    0.85    0.81
  -9   5  -1    0.93    1.22
  -9   5  -2   13.47    2.18
  -9   5  -4    3.25    1.62
  -9   5  -5    1.45    1.42
  -9   4  -2    3.53    1.10
  -9   4  -3    3.07    1.52
  -9   4  -4    1.39    1.42
  -9   4  -5    1.16    1.46
 -10   6   0    1.95    1.32
   0   0   0    0.00    0.00
;
_shelx_hkl_checksum              76786
_olex2_submission_special_instructions 'No special instructions were received'
loop_
_space_group_symop_operation_xyz
'x, y, z'
'-x, -y, -z'
loop_
_atom_site_label
_atom_site_type_symbol
_atom_site_fract_x
_atom_site_fract_y
_atom_site_fract_z
_atom_site_U_iso_or_equiv
_atom_site_adp_type
_atom_site_occupancy
_atom_site_site_symmetry_order
_atom_site_calc_flag
_atom_site_refinement_flags_posn
F1 F 0.2105(3) 0.4956(2) 0.5986(2) 0.0787(7) Uani 1 1 d .
F2 F -0.0560(3) 0.2564(3) 0.58668(19) 0.0725(6) Uani 1 1 d .
N1 N -0.0214(3) 0.2736(3) 0.8882(3) 0.0506(7) Uani 1 1 d .
H1 H -0.041640 0.312278 0.971428 0.061 Uiso 1 1 calc R
N2 N 0.1616(3) 0.0641(3) 0.7205(2) 0.0476(6) Uani 1 1 d .
O1 O 0.1452(3) 0.5709(3) 0.8600(2) 0.0665(7) Uani 1 1 d .
C1 C 0.0822(4) 0.4079(4) 0.8131(3) 0.0490(7) Uani 1 1 d .
C2 C 0.1175(4) 0.3448(4) 0.6622(3) 0.0525(8) Uani 1 1 d .
C3 C 0.2279(4) 0.2276(4) 0.6613(3) 0.0499(7) Uani 1 1 d .
C4 C 0.4041(5) 0.2554(5) 0.6177(3) 0.0604(9) Uani 1 1 d .
H4 H 0.481848 0.355518 0.575417 0.072 Uiso 1 1 calc R
C5 C 0.4452(5) 0.1052(5) 0.6488(4) 0.0648(9) Uani 1 1 d .
H5 H 0.555769 0.087600 0.630530 0.078 Uiso 1 1 calc R
C6 C 0.2963(5) -0.0103(4) 0.7100(3) 0.0584(8) Uani 1 1 d .
H6 H 0.286803 -0.121487 0.739993 0.070 Uiso 1 1 calc R
C7 C -0.0179(4) -0.0203(4) 0.7747(3) 0.0459(7) Uani 1 1 d .
C8 C -0.1025(4) 0.0803(4) 0.8539(3) 0.0461(7) Uani 1 1 d .
C9 C -0.2719(4) -0.0132(4) 0.9130(4) 0.0584(8) Uani 1 1 d .
H9 H -0.328230 0.053611 0.966793 0.070 Uiso 1 1 calc R
C10 C -0.3568(5) -0.2017(5) 0.8935(4) 0.0719(10) Uani 1 1 d .
H10 H -0.468930 -0.261675 0.934463 0.086 Uiso 1 1 calc R
C11 C -0.2755(5) -0.3012(5) 0.8130(4) 0.0707(10) Uani 1 1 d .
H11 H -0.332756 -0.428974 0.799611 0.085 Uiso 1 1 calc R
C12 C -0.1088(5) -0.2123(4) 0.7517(3) 0.0591(8) Uani 1 1 d .
H12 H -0.056873 -0.280549 0.694816 0.071 Uiso 1 1 calc R
loop_
_atom_site_aniso_label
_atom_site_aniso_U_11
_atom_site_aniso_U_22
_atom_site_aniso_U_33
_atom_site_aniso_U_23
_atom_site_aniso_U_13
_atom_site_aniso_U_12
F1 0.1066(16) 0.0642(13) 0.0791(13) 0.0370(10) 0.0422(12) 0.0387(12)
F2 0.0766(13) 0.0882(15) 0.0612(11) 0.0165(10) 0.0014(10) 0.0399(11)
N1 0.0610(15) 0.0442(14) 0.0510(14) 0.0065(11) 0.0195(12) 0.0238(12)
N2 0.0532(14) 0.0455(14) 0.0482(13) 0.0076(10) 0.0131(11) 0.0225(11)
O1 0.0824(16) 0.0420(13) 0.0806(15) 0.0098(11) 0.0331(13) 0.0275(11)
C1 0.0517(16) 0.0448(17) 0.0598(18) 0.0119(14) 0.0157(13) 0.0268(14)
C2 0.0597(19) 0.0467(17) 0.0549(17) 0.0177(13) 0.0148(15) 0.0212(14)
C3 0.0575(18) 0.0496(17) 0.0452(15) 0.0088(12) 0.0164(13) 0.0219(14)
C4 0.0588(19) 0.060(2) 0.0605(19) 0.0070(15) 0.0230(15) 0.0201(16)
C5 0.060(2) 0.080(2) 0.0617(19) 0.0019(17) 0.0187(16) 0.0363(18)
C6 0.070(2) 0.061(2) 0.0567(18) 0.0076(15) 0.0165(16) 0.0388(17)
C7 0.0475(15) 0.0459(16) 0.0455(15) 0.0089(12) 0.0059(12) 0.0186(13)
C8 0.0467(15) 0.0446(16) 0.0487(15) 0.0093(12) 0.0085(12) 0.0183(13)
C9 0.0472(17) 0.062(2) 0.0679(19) 0.0153(15) 0.0126(14) 0.0205(15)
C10 0.0491(18) 0.068(2) 0.088(3) 0.0210(19) 0.0141(17) 0.0076(17)
C11 0.068(2) 0.0475(19) 0.081(2) 0.0058(17) 0.0017(18) 0.0060(17)
C12 0.071(2) 0.0440(18) 0.0583(18) 0.0021(14) 0.0057(16) 0.0195(15)
loop_
_atom_type_symbol
_atom_type_description
_atom_type_scat_dispersion_real
_atom_type_scat_dispersion_imag
_atom_type_scat_source
C C 0.0033 0.0016 'International Tables Vol C Tables 4.2.6.8 and 6.1.1.4'
H H 0.0000 0.0000 'International Tables Vol C Tables 4.2.6.8 and 6.1.1.4'
N N 0.0061 0.0033 'International Tables Vol C Tables 4.2.6.8 and 6.1.1.4'
O O 0.0106 0.0060 'International Tables Vol C Tables 4.2.6.8 and 6.1.1.4'
F F 0.0171 0.0103 'International Tables Vol C Tables 4.2.6.8 and 6.1.1.4'
loop_
_geom_angle_atom_site_label_1
_geom_angle_atom_site_label_2
_geom_angle_atom_site_label_3
_geom_angle
C1 N1 H1 114.4
C1 N1 C8 131.1(2)
C8 N1 H1 114.4
C3 N2 C7 127.0(2)
C6 N2 C3 107.7(2)
C6 N2 C7 125.1(2)
N1 C1 C2 116.0(2)
O1 C1 N1 122.9(3)
O1 C1 C2 121.1(3)
F1 C2 F2 106.2(2)
F1 C2 C1 108.4(2)
F1 C2 C3 109.7(2)
F2 C2 C1 107.6(2)
F2 C2 C3 112.0(2)
C3 C2 C1 112.6(2)
N2 C3 C2 120.6(2)
C4 C3 N2 108.3(3)
C4 C3 C2 131.0(3)
C3 C4 H4 126.4
C3 C4 C5 107.2(3)
C5 C4 H4 126.4
C4 C5 H5 125.9
C6 C5 C4 108.2(3)
C6 C5 H5 125.9
N2 C6 H6 125.7
C5 C6 N2 108.6(3)
C5 C6 H6 125.7
C8 C7 N2 122.3(2)
C8 C7 C12 119.0(3)
C12 C7 N2 118.6(3)
C7 C8 N1 124.2(2)
C7 C8 C9 119.1(3)
C9 C8 N1 116.5(3)
C8 C9 H9 119.3
C10 C9 C8 121.3(3)
C10 C9 H9 119.3
C9 C10 H10 120.2
C9 C10 C11 119.7(3)
C11 C10 H10 120.2
C10 C11 H11 119.8
C10 C11 C12 120.3(3)
C12 C11 H11 119.8
C7 C12 H12 119.8
C11 C12 C7 120.4(3)
C11 C12 H12 119.8
loop_
_geom_bond_atom_site_label_1
_geom_bond_atom_site_label_2
_geom_bond_distance
F1 C2 1.351(3)
F2 C2 1.379(4)
N1 H1 0.8600
N1 C1 1.349(4)
N1 C8 1.414(3)
N2 C3 1.384(4)
N2 C6 1.375(4)
N2 C7 1.422(4)
O1 C1 1.223(3)
C1 C2 1.538(4)
C2 C3 1.477(4)
C3 C4 1.370(4)
C4 H4 0.9300
C4 C5 1.399(5)
C5 H5 0.9300
C5 C6 1.354(4)
C6 H6 0.9300
C7 C8 1.390(4)
C7 C12 1.401(4)
C8 C9 1.397(4)
C9 H9 0.9300
C9 C10 1.372(4)
C10 H10 0.9300
C10 C11 1.373(5)
C11 H11 0.9300
C11 C12 1.384(5)
C12 H12 0.9300
loop_
_geom_torsion_atom_site_label_1
_geom_torsion_atom_site_label_2
_geom_torsion_atom_site_label_3
_geom_torsion_atom_site_label_4
_geom_torsion
F1 C2 C3 N2 -179.9(2)
F1 C2 C3 C4 5.2(5)
F2 C2 C3 N2 -62.2(3)
F2 C2 C3 C4 122.9(4)
N1 C1 C2 F1 175.5(2)
N1 C1 C2 F2 61.1(3)
N1 C1 C2 C3 -62.9(3)
N1 C8 C9 C10 -176.2(3)
N2 C3 C4 C5 0.9(4)
N2 C7 C8 N1 0.2(4)
N2 C7 C8 C9 -175.0(3)
N2 C7 C12 C11 174.4(3)
O1 C1 C2 F1 -4.3(4)
O1 C1 C2 F2 -118.8(3)
O1 C1 C2 C3 117.3(3)
C1 N1 C8 C7 36.8(4)
C1 N1 C8 C9 -147.9(3)
C1 C2 C3 N2 59.3(4)
C1 C2 C3 C4 -115.6(4)
C2 C3 C4 C5 176.3(3)
C3 N2 C6 C5 1.3(4)
C3 N2 C7 C8 -40.5(4)
C3 N2 C7 C12 141.9(3)
C3 C4 C5 C6 -0.1(4)
C4 C5 C6 N2 -0.8(4)
C6 N2 C3 C2 -177.3(3)
C6 N2 C3 C4 -1.4(3)
C6 N2 C7 C8 143.9(3)
C6 N2 C7 C12 -33.7(4)
C7 N2 C3 C2 6.4(4)
C7 N2 C3 C4 -177.7(3)
C7 N2 C6 C5 177.7(3)
C7 C8 C9 C10 -0.6(5)
C8 N1 C1 O1 -178.7(3)
C8 N1 C1 C2 1.4(4)
C8 C7 C12 C11 -3.3(4)
C8 C9 C10 C11 -0.7(5)
C9 C10 C11 C12 -0.1(6)
C10 C11 C12 C7 2.1(5)
C12 C7 C8 N1 177.8(3)
C12 C7 C8 C9 2.5(4)
