#------------------------------------------------------------------------------
#$Date: 2019-11-11 15:00:41 +0200 (Mon, 11 Nov 2019) $
#$Revision: 226291 $
#$URL: file:///home/coder/svn-repositories/cod/cif/4/03/47/4034768.cif $
#------------------------------------------------------------------------------
#
# This file is available in the Crystallography Open Database (COD),
# http://www.crystallography.net/
#
# All data on this site have been placed in the public domain by the
# contributors.
#
data_4034768
loop_
_publ_author_name
'Mamedov, Vakhid A.'
'Zhukova, Nataliya A.'
'Gubaidullin, Aidar T.'
'Syakaev, Victor V.'
'Kadyrova, Milyausha S.'
'Beschastnova, Tat'yana N.'
'Bazanova, Olga B.'
'Rizvanov, Il Dar Kh'
'Latypov, Shamil K.'
_publ_section_title
;
 One-Pot Synthesis of 7-(Benzimidazol-2-yl)thioxolumazine and -lumazine
 Derivatives via H<sub>2</sub>SO<sub>4</sub>-Catalyzed Rearrangement of
 Quinoxalinones When Exposed to 5,6-Diamino-2-mercapto- and
 2,5,6-Triaminopyrimidin-4-ols.
;
_journal_issue                   24
_journal_name_full               'The Journal of organic chemistry'
_journal_page_first              14942
_journal_page_last               14953
_journal_paper_doi               10.1021/acs.joc.8b02161
_journal_volume                  83
_journal_year                    2018
_chemical_formula_moiety         'C19 H10 Br N6 O2, 3(C2 H6 O S)'
_chemical_formula_sum            'C25 H28 Br N6 O5 S3'
_chemical_formula_weight         668.62
_space_group_crystal_system      triclinic
_space_group_IT_number           1
_space_group_name_Hall           'P 1'
_space_group_name_H-M_alt        'P 1'
_atom_sites_solution_hydrogens   mixed
_audit_creation_method           SHELXL-2014/7
_cell_angle_alpha                74.081(15)
_cell_angle_beta                 83.934(18)
_cell_angle_gamma                83.108(19)
_cell_formula_units_Z            1
_cell_length_a                   5.680(3)
_cell_length_b                   8.711(4)
_cell_length_c                   15.304(7)
_cell_measurement_reflns_used    920
_cell_measurement_temperature    150(2)
_cell_measurement_theta_max      20.29
_cell_measurement_theta_min      2.44
_cell_volume                     720.8(6)
_computing_cell_refinement       'Bruker SAINT'
_computing_data_collection       'Bruker APEX2'
_computing_data_reduction        'Bruker SAINT'
_computing_molecular_graphics    'Bruker SHELXTL'
_computing_publication_material  'Bruker SHELXTL'
_computing_structure_refinement  'SHELXL-2014/7 (Sheldrick, 2014)'
_diffrn_ambient_temperature      150(2)
_diffrn_measured_fraction_theta_full 0.981
_diffrn_measured_fraction_theta_max 0.600
_diffrn_measurement_device_type  'Bruker APEX-II CCD'
_diffrn_measurement_method       '\f and \w scans'
_diffrn_radiation_monochromator  graphite
_diffrn_radiation_source         'sealed tube'
_diffrn_radiation_type           MoK\a
_diffrn_radiation_wavelength     0.71073
_diffrn_reflns_av_R_equivalents  0.0409
_diffrn_reflns_av_unetI/netI     0.2470
_diffrn_reflns_Laue_measured_fraction_full 0.981
_diffrn_reflns_Laue_measured_fraction_max 0.600
_diffrn_reflns_limit_h_max       7
_diffrn_reflns_limit_h_min       -7
_diffrn_reflns_limit_k_max       11
_diffrn_reflns_limit_k_min       -12
_diffrn_reflns_limit_l_max       21
_diffrn_reflns_limit_l_min       -20
_diffrn_reflns_number            5341
_diffrn_reflns_theta_full        25.011
_diffrn_reflns_theta_max         33.912
_diffrn_reflns_theta_min         3.623
_exptl_absorpt_coefficient_mu    1.690
_exptl_absorpt_correction_T_max  0.7466
_exptl_absorpt_correction_T_min  0.5613
_exptl_absorpt_correction_type   multi-scan
_exptl_absorpt_process_details
;
 G.M. Sheldrick (1998a). SADABS v.2.01, Bruker.
 Siemens Area Detector Absorption Correction Program.
 Bruker AXS. Madison. Wisconsin. USA
;
_exptl_crystal_colour            yellow
_exptl_crystal_density_diffrn    1.540
_exptl_crystal_description       plate
_exptl_crystal_F_000             343
_exptl_crystal_size_max          0.644
_exptl_crystal_size_mid          0.087
_exptl_crystal_size_min          0.048
_refine_diff_density_max         0.511
_refine_diff_density_min         -0.580
_refine_diff_density_rms         0.102
_refine_ls_abs_structure_details
;
 Classical Flack method preferred over Parsons because s.u. lower.
;
_refine_ls_abs_structure_Flack   -0.015(17)
_refine_ls_extinction_coef       0.021(4)
_refine_ls_extinction_expression Fc^*^=kFc[1+0.001xFc^2^\l^3^/sin(2\q)]^-1/4^
_refine_ls_extinction_method     'SHELXL-2014/7 (Sheldrick 2014'
_refine_ls_goodness_of_fit_ref   0.889
_refine_ls_hydrogen_treatment    mixed
_refine_ls_matrix_type           full
_refine_ls_number_parameters     350
_refine_ls_number_reflns         4624
_refine_ls_number_restraints     16
_refine_ls_restrained_S_all      0.888
_refine_ls_R_factor_all          0.1783
_refine_ls_R_factor_gt           0.0676
_refine_ls_shift/su_max          0.000
_refine_ls_shift/su_mean         0.000
_refine_ls_structure_factor_coef Fsqd
_refine_ls_weighting_details
'w=1/[\s^2^(Fo^2^)+(0.0361P)^2^] where P=(Fo^2^+2Fc^2^)/3'
_refine_ls_weighting_scheme      calc
_refine_ls_wR_factor_gt          0.1081
_refine_ls_wR_factor_ref         0.1399
_reflns_Friedel_coverage         0.319
_reflns_Friedel_fraction_full    0.267
_reflns_Friedel_fraction_max     0.191
_reflns_number_gt                2216
_reflns_number_total             4624
_reflns_threshold_expression     'I > 2\s(I)'
_cod_data_source_file            jo8b02161_si_006.cif
_cod_data_source_block           vakh-kp635
_cod_database_code               4034768
_shelx_shelxl_version_number     2014/7
_shelx_space_group_comment
;
The symmetry employed for this shelxl refinement is uniquely defined
by the following loop, which should always be used as a source of
symmetry information in preference to the above space-group names.
They are only intended as comments.
;
_shelx_estimated_absorpt_t_min   0.409
_shelx_estimated_absorpt_t_max   0.923
_shelx_res_file
;

    shelx.res created by SHELXL-2014/7

TITL vakh_kp635 in P1
CELL  0.71073   5.6804   8.7109  15.3036   74.081   83.934   83.108
ZERR     1.00   0.0026   0.0041   0.0074    0.015    0.018    0.019
LATT  -1
SFAC  C    H    N    O    S    BR
UNIT  25 28 6 5 3 1
OMIT     0   1   0
OMIT     0   1   1
OMIT     0   0  -1
OMIT     0  -1   0
OMIT     0   0   1
OMIT    -3  -3  -1
OMIT    -2  -1  -8
OMIT    -4  -5  -3
OMIT     1   0   0
OMIT    -4  -4   1
OMIT     0  -1  -1
OMIT    -3   0   6
OMIT    -2   6   6
OMIT    -2   4   6
OMIT    -3  -1   4
OMIT     0  -4  -5
OMIT    -2   5   6
OMIT    -1  -2   3
OMIT     2  -2   5
OMIT     1   2  -3
OMIT    -2   0 -10
OMIT    -1   0  -1
OMIT     1  -3  -8
OMIT    -3   2   8
OMIT    -1   3   8
OMIT     0   3   7
OMIT     0   1  10
OMIT     1   1   2
OMIT     1   5  12
OMIT    -1  -1  -2
OMIT    -3   1   7
OMIT    -3  -3 -11
OMIT    -2   3   5
OMIT     2  -3   0
OMIT    -1   1   0
OMIT    -1   2   1
OMIT     3   2  -2
OMIT    -2   1  -1
OMIT    -3  -2   2
OMIT    -1  -9  -6
OMIT     5   0  -4
OMIT     0  -4  14
OMIT    -3   1  -4
OMIT     4   8   2
OMIT     2   0  -2
OMIT    -2   1  -2
OMIT    -2  -9  -9
OMIT     0  -7  11
OMIT     0  -3  -1
OMIT    -1  -3   4
OMIT     0  -5  -2
OMIT    -4  -2   5
OMIT    -2   3  -1
OMIT     0  -3   4
OMIT    -2   5   5
OMIT     1  -5   9
OMIT     2   4  -7
OMIT     1   1   1
OMIT    -2  -1  -2
OMIT    -4  -5  -2
OMIT    -2   1 -11
OMIT    -2   0  -9
OMIT    -2   4   5
OMIT    -1   2   0
OMIT     1  -5  -7
OMIT     0  -3  -3
OMIT    -2   6   4
OMIT    -2   1   0
OMIT     5  -2  -5
OMIT     0   5   0
OMIT    -2   0  -1
OMIT    -2  -5 -10
OMIT     2  -6 -18
OMIT    -3   0   9
OMIT     2  -5 -17
OMIT     0   0  11
OMIT     1  -4   1
OMIT     3  -6 -11
OMIT     6  -1  -9
OMIT    -3   1   9
OMIT    -2   2  11
OMIT     1   3  13
OMIT     3   8  16
OMIT    -1   7   0
OMIT    -1   4  -2
OMIT    -2   6   5
OMIT    -1   2   7
OMIT    -1   4   3
OMIT    -1   5   1
OMIT     5   1  12
OMIT    -1  -6  -6
OMIT     6   2  11
OMIT    -1   7   2
OMIT     2  -2  15
OMIT     0   7   1
OMIT    -3  -3   0
OMIT     0  -6   7
OMIT    -2  -2 -11
OMIT    -3   1  10
OMIT    -1   6   7
OMIT    -1  -3 -15
OMIT    -2  -1  -9
OMIT     2  -2 -12
OMIT     3   0   8
OMIT     3  -5   8
OMIT     6   3  10
OMIT    -3   2   0
OMIT    -2  -1  -3
OMIT    -1   4   2
OMIT    -3   4   0
OMIT    -1  -4  -4
OMIT    -1   5   2
OMIT    -1   5  -1
OMIT     0   3  -3
OMIT    -2   2  -1
OMIT    -1   0  14
OMIT     2  -3 -13
OMIT    -2   5   4
OMIT    -1  -2   8
OMIT    -2   0  11
OMIT     5  -3  -7
OMIT    -2   6   3
OMIT    -1  -1   1
OMIT     5  -3  -3
OMIT     0  -4  -4
OMIT     4  -5  -4
OMIT     3   1  -6
OMIT     4   4   9
OMIT    -4  -5  -4
OMIT     2   2  -4
OMIT     0   3   3
OMIT    -1  -4  -5
OMIT    -1   1  -3
OMIT     0   2  -2
OMIT    -2  -7 -11
OMIT     1   0  13
OMIT    -1   5  -2
OMIT     1   1  -2
OMIT    -4   4  -3
OMIT    -1  -1   2
OMIT     1   4  19
OMIT     1  -1  -1
OMIT     3  -9   0
OMIT    -3   1  -3
OMIT     0   2   7
OMIT    -1  -6   0
OMIT    -2   1 -10
OMIT     0  -2  -2
OMIT    -1   7  10
OMIT    -3  -5   2
OMIT    -1  -5   3
OMIT     0   4  -1
OMIT     3   7   7
OMIT    -4   6  -7
OMIT    -1   3   2
OMIT     1   1   0
OMIT    -1   1  -4
OMIT    -2   2   0
OMIT     0   1   4
OMIT     0   3   1
OMIT     0   1  -3
OMIT     2  -2   6
OMIT     1   0  11
OMIT     1  -1 -11
OMIT     5   0  14
OMIT     4  -4  -3
OMIT    -4  -1   6
OMIT    -1  -5  -5
OMIT     1   8  -2
OMIT     1   9  13
OMIT    -1  -1  -3
OMIT    -1   0   8
OMIT    -3   6   0
OMIT    -2  -1  10
OMIT     0   5  -5
OMIT    -1  -2 -12
OMIT    -3  -3   9
OMIT     5   6   6
OMIT     0   7   2
OMIT     3   2  11
OMIT    -1  -1   0
OMIT    -1   4  12
OMIT    -3   4  -2
OMIT     0  -5   7
OMIT     0   8  10
OMIT    -3   0  10
OMIT    -1   0  -6
OMIT    -4  -5 -10
OMIT    -1   6   2
OMIT    -3  -1  10
OMIT     4   2  16
OMIT    -3   2  -3
OMIT    -4   5  -2
OMIT    -3   8   0
OMIT     4  -1  10
OMIT     4  -4  -6
OMIT     0   4  -3
OMIT     1  -2 -17
OMIT     1  -2 -15
OMIT     3   8   5
OMIT     2  -5 -11
OMIT    -2  -1   7
OMIT     1   3  -4
OMIT     4  -6  -6
OMIT     3  -6   1
OMIT     3  -1 -10
OMIT     0  -1   3
OMIT    -1  -1 -14
OMIT    -3  -6  -7
OMIT     0  -4   3
OMIT     4  -3  -5
OMIT     1  -2 -13
OMIT     5   2   0
OMIT    -2   1   7
OMIT     0   4   0
OMIT     0  -2  -8
OMIT    -2   1  12
OMIT     2   3  -7
OMIT    -1   6   9
OMIT     0   3   4
OMIT    -2   3   6
OMIT    -2   3  12
OMIT     3   4  -8
OMIT     1   2   5
OMIT     0   1  -5
OMIT    -3   1   0
OMIT     0  -6  -4
OMIT     0   5  -7
OMIT     0  -6  -5
OMIT     0   1   3
OMIT    -1  -2  -7
OMIT     0   2   0
OMIT     3   2   6
OMIT    -3  -2  -6
OMIT     3   3   5
OMIT    -1   7   3
OMIT    -1   3   3
OMIT    -1   2  -4
OMIT    -1   5   4
OMIT    -1  -1  -8
OMIT     2   0   8
OMIT    -1   5   6
OMIT    -1   5   0
OMIT     1   5   4
OMIT     4  -5   7
OMIT    -4  -2   4
OMIT    -3   4  -3
OMIT    -1  -1  -4
OMIT    -1   2  -2
DELU     0.010   0.010 C61 C62 C63 C64 C65 C66
EADP C4A C8A
DFIX 0.85 0.01 N3 h3
EADP C6 C61
EADP C7 C72
EADP C63 C65
EADP O4 O2
OMIT    -3   2  -2
OMIT    -1  -4   1
OMIT     0   0  -3
OMIT    -2  -1  -7
OMIT     0   1   8
OMIT     0   8   6
OMIT     3   6   7
OMIT    -3   1  -1
OMIT     0  -6 -10
OMIT     1  -1  -3
OMIT     1  -1   2
FMAP   2
PLAN   27
SIZE     0.048   0.087   0.644
ACTA  60
BOND   $H
CONF
L.S.  71
TEMP  -123.00
WGHT    0.036100
EXTI    0.020865
FVAR       0.26993   0.78320
C1S   1    1.227746   -0.296844    0.097867    11.00000    0.03188    0.04018 =
         0.04037   -0.01856   -0.00747   -0.00261
AFIX  33
H1S1  2    1.122585   -0.369901    0.139847    11.00000   -1.50000
H1S2  2    1.275754   -0.335800    0.043722    11.00000   -1.50000
H1S3  2    1.369246   -0.292256    0.128230    11.00000   -1.50000
AFIX   0
C2    1    1.645205    0.273558    0.022995    11.00000    0.02705    0.02342 =
         0.03590   -0.01395   -0.01448    0.00809
C2S   1    0.860650   -0.141999   -0.003187    11.00000    0.06472    0.03791 =
         0.05175   -0.02596   -0.03034    0.02746
AFIX  33
H2S1  2    0.744160   -0.209005    0.036473    11.00000   -1.50000
H2S2  2    0.778964   -0.040212   -0.036053    11.00000   -1.50000
H2S3  2    0.942114   -0.197861   -0.047023    11.00000   -1.50000
AFIX   0
C4    1    1.660125    0.416473    0.142678    11.00000    0.03363    0.03423 =
         0.01804   -0.01708   -0.00636    0.00536
C4A   1    1.462033    0.335692    0.189177    11.00000    0.01312    0.03079 =
         0.01065   -0.00806   -0.00478    0.00995
C6    1    1.175149    0.295909    0.310302    11.00000    0.02638    0.02289 =
         0.02141   -0.01534   -0.00104    0.00675
C7    1    1.077160    0.184994    0.270442    11.00000    0.01921    0.02894 =
         0.01431   -0.00828   -0.00979    0.00731
C8A   1    1.363291    0.226940    0.153930    11.00000    0.01312    0.03079 =
         0.01065   -0.00806   -0.00478    0.00995
C61   1    1.076661    0.342561    0.393045    11.00000    0.02638    0.02289 =
         0.02141   -0.01534   -0.00104    0.00675
C62   1    0.847065    0.422146    0.397753    11.00000    0.04342    0.02601 =
         0.01444   -0.00962   -0.01098    0.01355
AFIX  43
H62   2    0.744755    0.436102    0.350352    11.00000   -1.20000
AFIX   0
C63   1    0.772866    0.480128    0.473525    11.00000    0.02270    0.03509 =
         0.02373   -0.02202   -0.00632    0.00728
AFIX  43
H63   2    0.617563    0.532042    0.479891    11.00000   -1.20000
AFIX   0
C64   1    0.929645    0.460145    0.538173    11.00000    0.03681    0.02424 =
         0.02073   -0.01888   -0.00503    0.01574
C65   1    1.147765    0.384297    0.536041    11.00000    0.02270    0.03509 =
         0.02373   -0.02202   -0.00632    0.00728
AFIX  43
H65   2    1.247291    0.370822    0.584253    11.00000   -1.20000
AFIX   0
C66   1    1.224413    0.325912    0.461443    11.00000    0.04149    0.02542 =
         0.01345   -0.00656   -0.00603    0.01828
AFIX  43
H66   2    1.380441    0.273845    0.457364    11.00000   -1.20000
AFIX   0
C72   1    0.880209    0.093683    0.311471    11.00000    0.01921    0.02894 =
         0.01431   -0.00828   -0.00979    0.00731
C73A  1    0.586325   -0.021858    0.391977    11.00000    0.04644    0.01628 =
         0.01933   -0.00896   -0.00549   -0.00541
C74   1    0.404056   -0.072704    0.456710    11.00000    0.03662    0.02426 =
         0.02523   -0.00878   -0.00769   -0.00270
AFIX  43
H74   2    0.376792   -0.031834    0.508798    11.00000   -1.20000
AFIX   0
C75   1    0.258755   -0.184582    0.445904    11.00000    0.02478    0.02013 =
         0.04301   -0.01420    0.01392    0.00839
AFIX  43
H75   2    0.132126   -0.219284    0.490041    11.00000   -1.20000
AFIX   0
C76   1    0.303743   -0.244603    0.368525    11.00000    0.03245    0.02608 =
         0.04703   -0.01099   -0.01774   -0.00437
AFIX  43
H76   2    0.204082   -0.318695    0.360092    11.00000   -1.20000
AFIX   0
C77   1    0.493541   -0.196845    0.303505    11.00000    0.04749    0.02463 =
         0.01774   -0.00779   -0.01045    0.00482
AFIX  43
H77   2    0.526150   -0.241022    0.252737    11.00000   -1.20000
AFIX   0
C77A  1    0.631579   -0.084563    0.314835    11.00000    0.03832    0.03395 =
         0.00729    0.00118    0.00358    0.00675
N1    3    1.465953    0.201222    0.072900    11.00000    0.03043    0.02802 =
         0.02378   -0.01552   -0.00402    0.00032
N3    3    1.748460    0.380784    0.061600    11.00000    0.03354    0.04177 =
         0.01585   -0.01303   -0.00712   -0.00432
O4    4    1.765488    0.508850    0.169522    11.00000    0.03434    0.03882 =
         0.01927   -0.02057   -0.00238    0.00411
N5    3    1.367777    0.365701    0.268006    11.00000    0.02197    0.02635 =
         0.02011   -0.01711    0.00175    0.00509
N8    3    1.180226    0.154169    0.193805    11.00000    0.03630    0.03500 =
         0.01309   -0.01783   -0.00295    0.00424
N71   3    0.813061   -0.010879    0.264811    11.00000    0.03329    0.03179 =
         0.02384   -0.02019   -0.01121   -0.00013
N73   3    0.747363    0.088248    0.388410    11.00000    0.03326    0.02186 =
         0.02514   -0.00881    0.01129    0.00394
O1S   4    1.247759   -0.001452    0.001934    11.00000    0.04930    0.03638 =
         0.03198   -0.02257    0.00767   -0.01007
O2    4    1.729252    0.256076   -0.049946    11.00000    0.03434    0.03882 =
         0.01927   -0.02057   -0.00238    0.00411
O2S   4    0.395762    0.025108    0.675649    11.00000    0.05905    0.06950 =
         0.06223   -0.00811   -0.01269    0.00022
O3S   4    1.134558    0.504854   -0.046090    11.00000    0.04053    0.04849 =
         0.01938   -0.02037   -0.00793    0.00754
S1    5    1.075664   -0.103161    0.065058    11.00000    0.03855    0.03364 =
         0.02834   -0.02046   -0.00513    0.00201
PART    1
S2A   5    0.607378    0.106483    0.674095    21.00000    0.11476    0.02955 =
         0.03341   -0.01344   -0.02103    0.01154
PART    2
S2B   5    0.674288   -0.026717    0.708483   -21.00000    0.05893    0.02776 =
         0.01491    0.00109    0.00065    0.01499
PART    0
C4S   1    0.846683    0.007889    0.613477    11.00000    0.04426    0.09453 =
         0.05052   -0.02044    0.01377   -0.01985
PART    1
AFIX  33
H41A  2    0.993656    0.058250    0.610496    21.00000   -1.50000
H42A  2    0.870875   -0.105989    0.645844    21.00000   -1.50000
H43A  2    0.803911    0.018508    0.551568    21.00000   -1.50000
AFIX  33
PART    2
H41B  2    0.787810   -0.041129    0.570546   -21.00000   -1.50000
H42B  2    0.845911    0.123841    0.586701   -21.00000   -1.50000
H43B  2    1.009275   -0.038380    0.626451   -21.00000   -1.50000
AFIX   0
PART    0
C3S   1    0.734238    0.036908    0.779981    11.00000    0.18375    0.15972 =
         0.06457   -0.07664   -0.03652    0.08410
PART    1
AFIX  33
H31A  2    0.875756    0.092333    0.778034    21.00000   -1.50000
H32A  2    0.618116    0.058542    0.828276    21.00000   -1.50000
H33A  2    0.779274   -0.078779    0.792421    21.00000   -1.50000
AFIX  33
PART    2
H31B  2    0.618879    0.008419    0.832751   -21.00000   -1.50000
H32B  2    0.893982   -0.008326    0.797780   -21.00000   -1.50000
H33B  2    0.730618    0.153895    0.758030   -21.00000   -1.50000
AFIX   0
PART    0
S3    5    1.104647    0.521187   -0.146183    11.00000    0.04675    0.04177 =
         0.02631   -0.01735   -0.00107    0.00484
C5S   1    1.234038    0.341088   -0.170297    11.00000    0.02321    0.03232 =
         0.05289   -0.02391    0.00561    0.00560
AFIX  33
H51S  2    1.218121    0.347200   -0.234335    11.00000   -1.50000
H52S  2    1.402886    0.325348   -0.158819    11.00000   -1.50000
H53S  2    1.152883    0.250813   -0.131112    11.00000   -1.50000
AFIX   0
C6S   1    1.326319    0.645385   -0.205906    11.00000    0.05509    0.06729 =
         0.03709   -0.02318    0.00959   -0.00825
PART    1
AFIX  33
H61S  2    1.319266    0.662116   -0.271603    11.00000   -1.50000
H62S  2    1.299120    0.749032   -0.191194    11.00000   -1.50000
H63S  2    1.483311    0.593773   -0.187989    11.00000   -1.50000
AFIX   0
BR1   6    0.821404    0.542766    0.642021    11.00000    0.04872    0.05586 =
         0.02754   -0.03183   -0.00076    0.00430
H1    2    1.382187    0.139211    0.058374    11.00000    0.00384
H3    2    1.844534    0.449680    0.034391    11.00000    0.03226
HKLF    4

REM  vakh_kp635 in P1
REM R1 =  0.0676 for    2216 Fo > 4sig(Fo)  and  0.1783 for all    4624 data
REM    350 parameters refined using     16 restraints

END

WGHT      0.0328      0.0000

REM Highest difference peak  0.511,  deepest hole -0.580,  1-sigma level  0.102
Q1    1   0.7739  0.1365  0.6839  11.00000  0.05    0.51
Q2    1  -0.1631 -0.2372  0.5255  11.00000  0.05    0.43
Q3    1   0.8633  0.5177  0.6813  11.00000  0.05    0.43
Q4    1   0.6080  0.4773  0.7071  11.00000  0.05    0.42
Q5    1   1.9088  0.3034 -0.0687  11.00000  0.05    0.42
Q6    1   1.0561  0.0426  0.3408  11.00000  0.05    0.41
Q7    1   0.9332  0.2748  0.4229  11.00000  0.05    0.41
Q8    1   1.0188  0.3297 -0.2503  11.00000  0.05    0.39
Q9    1   1.0639  0.4472  0.6745  11.00000  0.05    0.39
Q10   1   0.7796  0.5470  0.6142  11.00000  0.05    0.38
Q11   1   1.4845  0.2545  0.5355  11.00000  0.05    0.38
Q12   1   0.7604  0.4984  0.3238  11.00000  0.05    0.38
Q13   1   0.9563  0.4507 -0.0767  11.00000  0.05    0.37
Q14   1   1.6460  0.2170  0.2579  11.00000  0.05    0.37
Q15   1   0.3201  0.0045  0.3788  11.00000  0.05    0.37
Q16   1   1.3811 -0.3792  0.0238  11.00000  0.05    0.37
Q17   1   0.8294  0.5374  0.7457  11.00000  0.05    0.36
Q18   1   1.5261  0.3482  0.5761  11.00000  0.05    0.35
Q19   1   0.4736  0.5613  0.5992  11.00000  0.05    0.35
Q20   1   0.4994 -0.0788  0.7074  11.00000  0.05    0.35
Q21   1   1.0232  0.6314  0.5765  11.00000  0.05    0.35
Q22   1   1.3175  0.2598  0.1132  11.00000  0.05    0.35
Q23   1   0.3964 -0.0963  0.5472  11.00000  0.05    0.35
Q24   1   0.8472  0.6617  0.5629  11.00000  0.05    0.35
Q25   1   0.5431 -0.1797  0.7340  11.00000  0.05    0.34
Q26   1   1.0879  0.3095  0.6376  11.00000  0.05    0.34
Q27   1   1.3800  0.2583 -0.2433  11.00000  0.05    0.34
;
_shelx_res_checksum              65824
_shelx_hkl_file
;
  -1   0   0   33.25    3.24
   1   0   0   -0.11    1.32
  -3   1   0   68.23    6.88
  -2   1   0   75.62    6.32
  -1   1   0   78.17    5.44
   0  -1   0    0.85    0.67
   0  -1   0   -0.54    0.31
   0   1   0   -0.29    0.29
  -1  -1   0   40.89    2.16
   1   1   0   52.63    2.66
   1   1   0   51.47    2.78
   2   1   0    5.06    1.41
   2   1   0    5.67    1.55
   3   1   0   24.77    2.24
   3   1   0   20.67    2.35
   4   1   0   24.69    2.94
   4   1   0   28.85    2.73
   5   1   0    4.91    2.83
   5   1   0    6.67    2.42
   6   1   0    9.70    3.64
  -3   2   0   58.70    6.43
  -2   2   0   33.89    4.27
   1  -2   0  207.01    8.17
   1  -2   0  190.29    8.28
  -1   2   0  120.43    7.75
   0  -2   0  249.28   10.68
   0  -2   0  266.43   10.57
   0   2   0  193.49    8.31
   0   2   0  202.74    8.33
  -1  -2   0  407.02   16.42
  -1  -2   0  413.47   16.45
   1   2   0  390.82   15.70
   1   2   0  388.58   15.76
  -2  -2   0   20.79    2.05
  -2  -2   0   18.06    2.16
   2   2   0   22.51    2.38
   2   2   0   24.93    2.59
   3   2   0   23.86    2.64
   3   2   0   19.74    2.77
   4   2   0   47.71    4.10
   4   2   0   43.00    3.78
   5   2   0   16.34    3.49
   6   2   0   -4.12    3.38
   7   2   0   -0.92    4.35
  -4   3   0   20.30    6.49
  -3   3   0   29.03    5.68
   2  -3   0    8.33    1.80
   2  -3   0    7.32    1.99
  -2   3   0    1.88    3.18
   1  -3   0  151.27    6.69
   1  -3   0  140.40    6.84
   0  -3   0   28.81    2.55
   0  -3   0   25.63    2.65
   0   3   0   21.28    2.48
   0   3   0   23.79    2.43
  -1  -3   0   84.90    4.52
  -1  -3   0   76.74    4.41
   1   3   0   69.35    4.12
   1   3   0   68.99    4.25
  -2  -3   0    4.76    1.77
  -2  -3   0    7.62    1.98
   2   3   0    7.81    2.34
   2   3   0    7.33    2.68
  -3  -3   0   61.36    3.63
   3   3   0   81.89    5.07
   3   3   0   79.74    5.17
   4   3   0   18.70    3.51
   4   3   0   23.94    3.76
   5   3   0   10.83    3.56
   6   3   0    6.69    4.03
   7   3   0   -1.94    4.67
  -4   4   0    5.20    5.81
   3  -4   0   40.96    3.67
   3  -4   0   37.68    3.68
  -3   4   0   22.57    5.62
   2  -4   0   36.13    3.54
   2  -4   0   42.59    3.48
  -2   4   0   37.01    5.27
   1  -4   0   27.25    3.18
   1  -4   0   32.44    3.17
  -1   4   0   21.56    2.45
  -1   4   0   21.59    2.56
   0  -4   0   52.14    4.07
   0  -4   0   54.04    3.92
   0   4   0   36.04    3.49
   0   4   0   37.38    3.38
  -1  -4   0   23.01    2.82
  -1  -4   0   22.46    2.85
   1   4   0   14.08    2.83
   1   4   0   16.17    3.02
  -2  -4   0   42.17    3.47
   2   4   0   25.53    3.65
   2   4   0   38.07    3.66
  -3  -4   0   18.15    2.73
   3   4   0   18.43    3.55
   3   4   0   18.32    3.51
  -4  -4   0    6.49    2.32
   4   4   0    1.70    3.34
   4   4   0    1.98    3.24
   5   4   0   -1.11    3.43
   6   4   0   -0.10    4.02
   7   4   0   -3.56    4.76
   4  -5   0    4.12    2.89
  -4   5   0    3.38    5.83
   3  -5   0   27.36    3.50
   3  -5   0   29.12    4.00
  -3   5   0   23.62    5.83
   2  -5   0   30.59    3.57
   2  -5   0   39.06    4.09
  -2   5   0   28.74    4.94
   1  -5   0   35.00    4.01
   1  -5   0   37.90    3.65
  -1   5   0   17.41    2.93
   0  -5   0   66.68    4.90
   0  -5   0   76.18    5.23
   0   5   0   38.08    3.97
  -1  -5   0   11.27    2.81
   1   5   0   12.49    3.20
  -2  -5   0    4.75    2.49
   2   5   0    6.62    3.30
  -3  -5   0    8.52    2.60
   3   5   0   12.07    3.72
  -4  -5   0   12.34    2.78
   4   5   0    9.81    3.88
   5   5   0   -2.22    3.68
   6   5   0   -3.65    4.05
   5  -6   0    4.33    3.93
   4  -6   0   23.93    4.24
  -4   6   0    8.36    6.91
   3  -6   0   13.15    3.82
  -3   6   0   -1.46    5.08
   2  -6   0   11.44    3.81
   2  -6   0   12.06    3.34
  -2   6   0    4.51    3.93
   1  -6   0    2.33    2.90
   1  -6   0   -1.00    3.15
  -1   6   0   -1.30    2.65
   0  -6   0   20.90    3.99
   0   6   0   16.98    3.61
  -1  -6   0   77.55    5.92
   1   6   0   58.73    5.35
  -2  -6   0    0.39    2.87
   2   6   0   -2.27    3.46
  -3  -6   0   54.92    4.75
   3   6   0   43.02    5.18
   4   6   0    2.72    3.86
   5   6   0    4.41    4.17
   6   6   0   -1.03    4.60
   5  -7   0    6.75    4.81
   4  -7   0    3.47    4.28
   3  -7   0   23.49    4.93
  -3   7   0   11.63    5.82
   2  -7   0   16.25    4.15
  -2   7   0    9.82    4.39
   1  -7   0   35.40    4.93
   1  -7   0   40.02    4.89
  -1   7   0   25.96    4.00
  -1   7   0   25.25    3.87
   0  -7   0   26.95    4.49
   0   7   0   17.00    4.02
  -1  -7   0   22.36    4.29
   1   7   0   11.76    4.20
  -2  -7   0   12.72    3.80
   2   7   0    9.20    4.07
  -3  -7   0    0.25    2.96
   3   7   0    3.82    4.00
   4   7   0    5.51    4.12
   5   7   0   -2.15    4.14
   6   7   0   -3.65    4.64
   4  -8   0    8.38    5.06
   3  -8   0   14.63    4.89
  -3   8   0    2.52    6.18
   2  -8   0   -0.46    3.95
  -2   8   0    2.84    4.46
   1  -8   0   13.90    4.47
   0  -8   0    4.43    3.93
   0   8   0    0.07    3.84
  -1  -8   0    3.23    3.95
   1   8   0    7.36    4.18
  -2  -8   0    8.18    4.06
   2   8   0    1.98    4.24
  -3  -8   0    0.10    3.51
   3   8   0    2.17    4.43
   4   8   0    3.71    4.53
   5   8   0   11.88    5.22
   3  -9   0   18.03    5.83
   2  -9   0    2.26    4.91
   1  -9   0    4.08    4.43
   0  -9   0    9.23    4.62
  -1  -9   0    8.26    4.46
   1   9   0    5.22    4.80
  -2  -9   0   -2.23    4.38
   2   9   0   -4.46    4.45
   3   9   0    0.56    4.65
   4   9   0    8.32    5.21
   5   9   0   -5.16    4.92
   2 -10   0    7.55    5.56
   1 -10   0   -1.52    4.96
   0 -10   0    0.36    4.94
  -1 -10   0    4.86    5.22
  -2 -10   0    8.45    5.39
   3  10   0   -0.93    5.79
   4  10   0    1.25    5.93
   0 -11   0    8.47    6.23
  -1 -11   0    1.21    5.70
  -1 -11   1    4.24    6.43
   0 -11   1    6.38    6.22
   4  10  -1   -6.05    5.98
   3  10  -1   -1.44    6.00
  -2 -10   1    3.26    5.30
  -1 -10   1    7.46    5.28
   0 -10   1    8.28    5.40
   1 -10   1    6.00    5.56
   2 -10   1    4.55    5.47
   5   9  -1   -6.83    5.44
   4   9  -1    1.72    5.35
   3   9  -1    2.30    5.15
   2   9  -1   -3.83    4.69
  -2  -9   1    4.35    4.55
  -1  -9   1    7.23    4.68
   0  -9   1   -1.52    4.19
   1  -9   1   -0.06    4.45
   2  -9   1    5.58    5.04
   3  -9   1    4.18    4.84
   5   8  -1    2.75    5.24
   4   8  -1    4.06    4.75
   3   8  -1    4.60    4.57
  -3  -8   1   -4.19    3.32
   2   8  -1   34.06    5.69
  -2  -8   1   42.32    5.51
   1   8  -1    0.21    4.05
  -1  -8   1    0.25    3.81
   0   8  -1    5.00    3.89
   0  -8   1    1.47    3.76
   1  -8   1    6.52    3.94
  -2   8  -1    9.84    4.95
   2  -8   1   25.32    5.08
  -3   8  -1    3.64    5.69
   3  -8   1    2.30    4.29
  -4   8  -1   -5.98    7.35
   4  -8   1    3.08    4.82
   5   7  -1   -1.00    4.27
   4   7  -1    7.26    4.37
   3   7  -1   -1.39    4.09
  -3  -7   1    5.60    3.22
   2   7  -1    4.47    4.04
  -2  -7   1   11.15    3.67
   1   7  -1   13.29    4.25
  -1  -7   1    5.30    3.56
   0   7  -1   12.02    3.74
   0  -7   1   23.05    4.30
  -1   7  -1    2.50    3.00
   1  -7   1   -0.75    3.42
  -2   7  -1    8.55    4.04
   2  -7   1    6.55    3.74
  -3   7  -1    1.21    5.02
   3  -7   1   -2.04    3.64
  -4   7  -1   -5.53    6.52
   4  -7   1    2.06    4.10
   5  -7   1   13.67    4.86
   6   6  -1    2.48    5.05
   5   6  -1    7.95    4.52
   4   6  -1    8.14    4.15
   3   6  -1    9.77    4.14
  -3  -6   1    4.51    2.89
   2   6  -1    5.83    3.82
  -2  -6   1    1.44    2.97
   1   6  -1   23.15    4.23
  -1  -6   1   33.10    4.30
   0   6  -1    5.33    3.38
   0  -6   1   15.09    3.65
  -1   6  -1    5.96    2.82
   1  -6   1    0.43    2.79
   1  -6   1    2.90    3.19
  -2   6  -1    6.20    3.69
   2  -6   1    7.18    3.19
   2  -6   1    7.51    3.52
  -3   6  -1    4.05    5.07
   3  -6   1   22.00    4.18
  -4   6  -1   -0.03    6.34
   4  -6   1    1.91    3.56
   5  -6   1    1.00    3.85
   6   5  -1    3.78    4.61
   5   5  -1    0.63    4.08
   4   5  -1    5.18    3.71
   3   5  -1    9.45    3.68
  -3  -5   1    3.24    2.58
   2   5  -1   25.92    4.03
  -2  -5   1   38.22    3.92
   1   5  -1   30.87    4.00
  -1  -5   1   42.83    4.30
   0   5  -1    4.40    2.82
   0  -5   1    2.74    2.28
   0  -5   1    0.58    2.50
  -1   5  -1   33.90    3.42
   1  -5   1   43.78    4.31
   1  -5   1   44.43    4.07
  -2   5  -1   18.87    4.24
   2  -5   1   22.06    3.28
   2  -5   1   29.56    3.83
  -3   5  -1   -2.72    4.23
   3  -5   1   10.33    2.78
   3  -5   1   10.02    3.28
  -4   5  -1   -6.33    5.12
   4  -5   1    5.25    3.07
   7   4  -1    6.56    5.31
   6   4  -1    4.19    4.44
   5   4  -1   10.25    4.11
   4   4  -1   72.84    5.88
   4   4  -1   56.43    5.53
  -4  -4   1    2.92    1.39
   3   4  -1   -1.45    2.94
   3   4  -1   -4.00    2.82
  -3  -4   1   -1.01    2.15
   2   4  -1   38.70    4.03
   2   4  -1   41.65    3.97
  -2  -4   1   34.59    3.32
   1   4  -1   66.04    4.57
   1   4  -1   65.13    4.63
  -1  -4   1   86.79    5.13
  -1  -4   1   82.21    5.11
   0   4  -1   27.68    3.20
   0  -4   1   38.42    3.43
   0  -4   1   42.02    3.71
  -1   4  -1   13.83    2.27
   1  -4   1   31.38    3.03
   1  -4   1   32.73    3.30
  -2   4  -1    0.19    3.03
   2  -4   1    3.90    1.97
   2  -4   1    4.40    2.32
  -3   4  -1   21.78    5.35
   3  -4   1   29.67    3.44
   3  -4   1   28.88    3.00
  -4   4  -1    2.15    5.35
   7   3  -1   -3.72    4.94
   6   3  -1   -0.05    4.21
   5   3  -1    3.68    3.70
   4   3  -1   54.20    4.69
   4   3  -1   37.97    4.46
   3   3  -1    1.25    2.62
   3   3  -1    3.92    2.52
  -3  -3   1   -1.70    1.99
   2   3  -1  124.84    6.61
   2   3  -1  133.07    6.56
  -2  -3   1  134.02    6.42
   1   3  -1  147.92    6.97
   1   3  -1  143.40    7.02
  -1  -3   1  169.98    7.70
  -1  -3   1  165.79    7.67
   0   3  -1   61.38    3.69
   0   3  -1   58.10    3.72
   0  -3   1   87.04    4.54
   0  -3   1   80.63    4.61
  -1   3  -1   11.19    1.77
   1  -3   1   15.97    2.07
   1  -3   1   14.71    2.31
  -2   3  -1  103.36    7.66
   2  -3   1  159.11    6.81
   2  -3   1  146.56    6.88
  -3   3  -1   22.12    5.20
  -4   3  -1   -2.06    4.94
   7   2  -1    5.70    4.65
   6   2  -1    6.42    4.19
   5   2  -1    8.76    3.65
   4   2  -1   30.98    3.83
   4   2  -1   41.95    3.78
   3   2  -1   21.24    2.97
   3   2  -1   30.41    2.98
  -3  -2   1   39.49    2.94
   2   2  -1  101.17    4.99
   2   2  -1   91.91    5.02
  -2  -2   1   83.40    4.42
  -2  -2   1   81.31    4.15
   1   2  -1  261.84   10.77
   1   2  -1  252.73   10.78
  -1  -2   1  256.73   10.80
  -1  -2   1  264.59   10.86
   0   2  -1  370.56   14.70
   0   2  -1  360.07   14.68
   0  -2   1  400.66   16.33
   0  -2   1  413.93   16.27
   1  -2   1  634.35   25.49
   1  -2   1  665.40   25.39
  -2   2  -1   30.84    3.92
  -3   2  -1    0.25    3.63
  -4   2  -1    2.81    5.04
   7   1  -1    8.17    4.36
   6   1  -1    1.32    3.70
   5   1  -1   10.08    3.34
   4   1  -1   44.50    3.49
   4   1  -1   46.55    3.90
   3   1  -1   87.52    4.54
   3   1  -1   95.03    4.75
   2   1  -1   79.11    4.01
   2   1  -1   82.85    4.12
  -2  -1   1   62.25    3.16
  -2  -1   1   61.13    3.06
   1   1  -1  463.37   18.27
   1   1  -1  461.36   18.22
  -1  -1   1  369.52   13.30
  -1  -1   1  297.57   13.24
  -2   1  -1   33.25    4.05
  -3   1  -1   34.01    4.82
  -4   1  -1   28.54    6.63
   1   0  -1  138.71    5.89
   1   0  -1  148.46    5.91
   0   0  -1   -0.40    0.18
   0   0  -1   -0.06    0.08
   0   0   1   -0.04    0.19
   0   0   1    0.04    0.10
  -1   0  -1   20.21    2.32
  -2   0  -1   73.92    6.04
  -3   0  -1   41.68    6.18
   1  -1  -1   17.71    2.82
   1  -1  -1   13.26    1.33
   0  -1  -1    5.51    0.84
   0   1   1   -0.27    0.31
   1   1   1   58.28    2.79
   1   1   1   52.77    2.90
  -2  -1  -1   33.96    4.86
   2   1   1   23.54    1.85
   2   1   1   23.72    2.03
   3   1   1   84.50    4.05
   5   1   1    9.11    2.35
  -2   2   1   39.52    4.82
   1  -2  -1  199.98    8.45
   1  -2  -1  200.54    8.29
  -1   2   1   79.41    3.48
   0  -2  -1  238.95    9.96
   0  -2  -1  245.38   10.11
   0   2   1  239.37    9.77
   0   2   1  231.21    9.71
  -1  -2  -1   54.82    3.21
  -1  -2  -1   56.69    3.36
   1   2   1   38.12    2.95
   1   2   1   46.13    3.03
  -2  -2  -1   57.02    3.41
   2   2   1   34.72    2.86
   2   2   1   41.24    2.89
   3   2   1   46.15    3.39
   3   2   1   51.79    3.47
   4   2   1   36.04    3.38
   4   2   1   32.06    3.32
   5   2   1   -5.38    2.89
   6   2   1    5.41    3.51
   7   2   1    2.69    4.20
  -3   3   1    5.98    4.59
   2  -3  -1   17.34    2.47
   2  -3  -1   24.32    2.30
  -2   3   1   15.65    4.04
   1  -3  -1  101.72    5.25
   1  -3  -1  100.97    5.05
  -1   3   1   85.84    4.30
  -1   3   1   84.73    6.04
   0  -3  -1   40.33    2.97
   0  -3  -1   36.07    3.09
   0   3   1   37.22    2.95
   0   3   1   40.71    3.15
  -1  -3  -1    0.58    1.62
  -1  -3  -1    1.34    1.65
   1   3   1    0.65    1.96
   1   3   1    3.20    2.14
  -2  -3  -1    7.25    1.84
  -2  -3  -1   12.08    2.29
   2   3   1    6.01    2.32
   2   3   1    7.98    2.53
  -3  -3  -1    0.87    0.71
   3   3   1  100.08    5.57
   3   3   1   93.38    5.48
   4   3   1    4.90    3.00
   4   3   1    3.97    2.99
   5   3   1   11.24    3.64
   6   3   1    1.31    3.64
   7   3   1   -3.36    4.49
   4  -4  -1   18.52    3.12
   3  -4  -1   28.11    3.51
   3  -4  -1   33.02    3.10
  -3   4   1   25.77    6.12
   2  -4  -1    9.21    2.21
   2  -4  -1    7.74    2.48
  -2   4   1    5.67    3.75
   1  -4  -1   33.72    3.27
   1  -4  -1   29.63    3.28
  -1   4   1   16.06    2.43
  -1   4   1   17.34    2.32
  -1   4   1   14.93    3.24
   0  -4  -1  167.37    8.28
   0  -4  -1  175.49    8.09
   0   4   1  137.73    7.07
   0   4   1  149.99    7.01
  -1  -4  -1   26.12    2.94
  -1  -4  -1   23.29    2.92
   1   4   1   28.20    3.44
   1   4   1   24.45    3.16
  -2  -4  -1   50.81    3.77
   2   4   1   41.83    4.03
   2   4   1   37.58    3.91
  -3  -4  -1   24.37    2.83
   3   4   1   24.74    3.64
   3   4   1   18.88    3.48
  -4  -4  -1   -1.81    2.25
   4   4   1    2.25    3.28
   4   4   1    3.56    3.47
   5   4   1   17.81    4.13
   6   4   1   -1.90    3.89
   7   4   1    5.13    4.78
   5  -5  -1   14.68    3.63
   4  -5  -1   32.07    4.05
   3  -5  -1    7.58    3.28
   3  -5  -1   11.14    2.86
  -3   5   1   13.40    5.39
   2  -5  -1    3.82    2.86
   2  -5  -1   -1.75    2.32
  -2   5   1   -1.40    3.55
   1  -5  -1   89.19    5.80
   1  -5  -1   88.61    5.44
  -1   5   1   52.49    4.74
  -1   5   1   51.55    4.02
   0  -5  -1   55.15    4.48
   0  -5  -1   58.61    4.70
   0   5   1   38.70    3.86
  -1  -5  -1   14.93    2.94
   1   5   1   17.56    3.47
  -2  -5  -1   15.50    2.89
   2   5   1    7.30    3.44
  -3  -5  -1   12.58    2.79
   3   5   1   13.46    3.78
   3   5   1   10.58    3.82
  -4  -5  -1   21.61    3.03
   4   5   1   30.10    4.83
   4   5   1   25.89    4.45
   5   5   1   -0.61    3.58
   6   5   1   -4.08    4.08
   5  -6  -1   -0.72    3.87
   4  -6  -1    6.18    3.59
   3  -6  -1   28.86    4.39
  -3   6   1   22.65    6.63
   2  -6  -1   24.73    3.83
   2  -6  -1   21.49    4.18
  -2   6   1   15.12    4.67
   1  -6  -1   15.01    3.85
   1  -6  -1   16.82    3.36
  -1   6   1    6.67    2.97
  -1   6   1    8.92    3.18
   0  -6  -1    6.78    3.22
   0   6   1   11.89    3.38
  -1  -6  -1   -1.27    2.85
   1   6   1    5.97    3.49
  -2  -6  -1   25.16    3.81
   2   6   1   17.11    4.15
  -3  -6  -1   26.89    3.78
   3   6   1   32.49    4.80
   4   6   1   -0.36    3.55
   5   6   1   -1.09    3.89
   6   6   1   10.97    4.74
   5  -7  -1    7.27    4.79
   4  -7  -1   13.36    4.59
   3  -7  -1   -0.83    3.91
   2  -7  -1    4.98    3.88
  -2   7   1   -0.72    4.07
   1  -7  -1    9.56    3.92
   1  -7  -1    4.93    3.48
  -1   7   1   -2.59    3.03
   0  -7  -1   15.08    4.04
   0   7   1    4.84    3.69
  -1  -7  -1   15.98    4.03
   1   7   1   14.61    4.24
  -2  -7  -1    8.56    3.65
   2   7   1    8.42    4.03
  -3  -7  -1   26.77    4.06
   3   7   1   23.57    4.68
   4   7   1   10.06    4.24
   5   7   1    1.51    4.23
   6   7   1   10.96    4.99
   4  -8  -1    1.43    5.05
   3  -8  -1    0.99    4.59
   2  -8  -1    7.62    4.43
   1  -8  -1    8.17    4.07
   0  -8  -1   22.07    4.66
   0   8   1   11.95    4.19
  -1  -8  -1    4.26    3.96
   1   8   1   14.06    4.44
  -2  -8  -1   17.24    4.50
   2   8   1   10.70    4.58
  -3  -8  -1   20.93    4.49
   3   8   1   20.23    5.02
   4   8   1    3.99    4.44
   5   8   1   -2.48    4.34
   3  -9  -1   -4.28    5.09
   2  -9  -1   -4.01    4.47
   1  -9  -1   -0.40    4.51
   0  -9  -1    3.37    4.33
  -1  -9  -1   10.79    4.64
   1   9   1    1.93    4.52
  -2  -9  -1   -2.01    4.22
   2   9   1   -1.28    4.52
   3   9   1   -3.98    4.53
   4   9   1   -0.95    4.65
   5   9   1    4.13    5.25
   2 -10  -1    1.38    5.25
   1 -10  -1    6.71    5.24
   0 -10  -1    7.77    5.21
  -1 -10  -1    7.90    5.37
  -2 -10  -1   -7.39    4.62
   3  10   1   -0.76    5.48
   4  10   1    2.42    5.65
   0 -11  -1   -2.04    5.88
  -1 -11  -1    1.51    5.99
  -1 -11   2   -0.07    6.02
   4  10  -2   -8.65    5.82
  -2 -10   2    2.21    5.23
  -1 -10   2    3.03    5.17
   0 -10   2   -3.02    4.99
   1 -10   2   -1.64    4.95
   4   9  -2   -2.02    5.43
   3   9  -2    0.31    5.33
   2   9  -2   -8.91    4.59
  -2  -9   2    0.48    4.40
  -1  -9   2   11.98    5.07
   0  -9   2    4.20    4.54
   1  -9   2    7.51    4.85
   2  -9   2    1.05    4.91
   3  -9   2   -1.57    4.88
   5   8  -2   -7.15    5.04
   4   8  -2   -1.75    4.83
   3   8  -2    6.89    4.86
  -3  -8   2    3.41    3.87
   2   8  -2   -1.55    4.57
  -2  -8   2    0.95    3.93
   1   8  -2    0.21    4.11
  -1  -8   2   12.48    4.44
   0  -8   2    5.89    4.03
   1  -8   2    6.24    4.14
  -2   8  -2    0.23    4.41
   2  -8   2    3.02    4.21
  -3   8  -2    2.28    5.70
   3  -8   2    3.94    4.18
  -4   8  -2   -4.51    7.20
   4  -8   2    6.46    4.69
   5   7  -2   -5.43    4.51
   4   7  -2    4.91    4.51
   3   7  -2    3.41    4.20
  -3  -7   2    1.23    3.25
   2   7  -2   15.72    4.60
  -2  -7   2   18.84    4.07
   1   7  -2   -0.78    3.82
  -1  -7   2    9.03    3.73
   0   7  -2    3.06    3.32
   0  -7   2   -3.42    3.30
   1  -7   2    9.61    3.67
  -2   7  -2    1.22    3.81
   2  -7   2   -1.03    3.44
  -3   7  -2    1.86    5.19
   3  -7   2   -1.73    3.80
  -4   7  -2    3.34    6.25
   4  -7   2   -1.17    3.98
  -5   7  -2    1.80    8.20
   5  -7   2    6.12    4.50
   6   6  -2    4.14    5.14
   5   6  -2   -3.06    4.26
   4   6  -2    0.00    4.01
   3   6  -2    7.65    4.07
  -3  -6   2   15.29    3.48
   2   6  -2   46.57    5.36
  -2  -6   2   60.64    5.29
   1   6  -2    6.68    3.70
  -1  -6   2    5.53    3.22
   0   6  -2   13.06    3.45
   0  -6   2   11.79    3.54
  -1   6  -2   12.15    3.15
   1  -6   2   13.71    3.53
   1  -6   2   20.73    3.83
   2  -6   2   44.39    4.97
  -3   6  -2    1.85    4.73
   3  -6   2   10.57    3.67
  -4   6  -2   -0.48    5.74
   4  -6   2    8.62    3.71
  -5   6  -2   -0.48    7.27
   5  -6   2    4.61    3.83
   6   5  -2    2.29    4.86
   5   5  -2   -1.65    4.10
   4   5  -2    9.90    4.10
   3   5  -2   28.00    4.66
  -3  -5   2   36.27    3.86
   2   5  -2   11.91    3.78
  -2  -5   2    8.27    2.91
   1   5  -2   34.65    4.27
  -1  -5   2   44.31    4.30
   0   5  -2   15.05    3.09
   0  -5   2   24.10    3.35
   0  -5   2   25.73    3.54
  -1   5  -2   37.89    3.59
   1  -5   2   57.65    4.73
   1  -5   2   54.73    4.65
   2  -5   2   12.64    2.91
   2  -5   2   11.88    3.27
  -3   5  -2    4.07    4.44
   3  -5   2    4.14    2.62
   3  -5   2    6.93    3.24
  -4   5  -2   -2.81    4.89
   4  -5   2   12.29    3.36
  -5   5  -2   -5.59    6.04
   6   4  -2    6.85    4.98
   5   4  -2   17.26    4.52
   4   4  -2    5.81    3.82
   4   4  -2    2.46    3.63
  -4  -4   2   -2.97    2.25
   3   4  -2   -1.14    3.31
   3   4  -2    2.48    3.19
  -3  -4   2    1.26    2.13
   2   4  -2  126.68    7.32
   2   4  -2  135.78    7.19
  -2  -4   2  128.11    6.66
   1   4  -2   61.42    4.70
  -1  -4   2   79.88    5.02
  -1  -4   2   83.13    5.13
   0   4  -2    2.50    2.32
   0  -4   2    5.21    2.26
   0  -4   2    3.05    2.06
  -1   4  -2   34.88    3.23
   1  -4   2   42.65    3.85
   1  -4   2   45.16    3.69
   2  -4   2   87.07    5.01
   2  -4   2   83.99    5.23
  -3   4  -2   15.67    5.10
   3  -4   2   37.48    3.62
   3  -4   2   36.50    3.71
  -4   4  -2    0.65    4.82
  -5   4  -2    3.46    6.44
   7   3  -2    0.21    4.77
   6   3  -2    1.39    4.52
   5   3  -2   -1.41    3.77
   4   3  -2    4.53    3.53
   4   3  -2   11.93    3.57
  -4  -3   2    5.66    2.63
   3   3  -2   59.83    4.49
   3   3  -2   43.53    4.41
  -3  -3   2   49.27    3.79
   2   3  -2   30.98    3.62
   2   3  -2   37.83    3.63
  -2  -3   2   27.47    2.77
   1   3  -2   32.11    3.15
   1   3  -2   35.31    3.38
  -1  -3   2   32.71    2.99
  -1  -3   2   33.03    3.25
   0   3  -2   22.48    2.59
   0   3  -2   24.29    2.60
   0  -3   2   29.42    2.67
   0  -3   2   21.87    2.63
   1  -3   2   62.70    3.85
   1  -3   2   58.45    3.88
   2  -3   2  209.22    8.94
   2  -3   2  203.21    9.01
  -3   3  -2   -0.42    3.52
  -4   3  -2   14.33    5.99
  -5   3  -2   19.18    7.22
   7   2  -2   -1.25    4.65
   6   2  -2   -2.23    4.15
   5   2  -2   23.48    4.32
   4   2  -2   18.17    3.25
   4   2  -2   13.12    3.63
   3   2  -2   13.43    2.94
   3   2  -2   12.55    2.54
  -3  -2   2   -0.48    1.01
   2   2  -2   34.90    3.03
   2   2  -2   32.82    3.30
  -2  -2   2   42.85    3.15
  -2  -2   2   38.32    3.02
   1   2  -2   47.75    3.39
   1   2  -2   51.09    3.29
  -1  -2   2   64.18    3.71
  -1  -2   2   60.80    3.54
   0   2  -2  213.03    8.84
   0   2  -2  203.75    8.80
   0  -2   2  230.94    9.77
   0  -2   2  233.77    9.80
  -1   2  -2  209.46    7.45
  -1   2  -2  152.21    7.36
   1  -2   2  300.70   12.23
   1  -2   2  303.83   12.34
  -3   2  -2   41.47    5.39
  -4   2  -2   13.07    5.50
  -5   2  -2   12.91    6.63
   7   1  -2    0.97    4.25
   6   1  -2    4.25    3.75
   5   1  -2    8.75    3.66
   4   1  -2   19.49    2.87
   4   1  -2   13.24    3.31
   3   1  -2   21.60    2.96
   3   1  -2   33.56    2.75
   2   1  -2  213.04    9.13
   2   1  -2  210.77    8.99
  -2  -1   2  239.85    9.95
   1   1  -2   82.73    4.33
   1   1  -2   88.33    4.31
  -1  -1   2   92.21    4.37
  -1  -1   2   89.63    4.40
   0   1  -2    4.10    1.01
   0   1  -2    2.98    1.29
   0  -1   2    1.93    1.11
   0  -1   2    2.13    1.24
   1  -1   2 1000.00   38.37
   1  -1   2  976.67   38.43
  -2   1  -2   25.86    3.93
  -3   1  -2    3.19    3.66
  -4   1  -2   14.37    5.60
  -5   1  -2    4.77    5.99
   7   0  -2   -6.82    3.02
   6   0  -2    9.43    3.71
   5   0  -2   10.44    3.12
   4   0  -2   16.16    3.04
   4   0  -2   17.29    2.52
   3   0  -2   17.41    2.14
   3   0  -2   14.32    2.40
   2   0  -2   48.35    3.01
   1   0  -2   29.70    2.11
   1   0  -2   29.81    2.12
  -1   0   2   31.53    1.94
  -1   0   2   33.08    2.17
  -2   0  -2   26.23    3.97
  -3   0  -2   12.64    4.40
  -4   0  -2    0.36    4.51
   2  -1  -2   86.05    4.29
   2  -1  -2   96.65    4.26
   1  -1  -2  358.81   14.23
   1  -1  -2  353.88   14.23
  -1  -1  -2    0.11    0.80
   1   1   2    9.54    1.50
   1   1   2   12.28    1.52
  -2  -1  -2   82.63    6.51
   2   1   2  104.52    4.68
   2   1   2  108.46    4.80
  -3  -1  -2   42.65    6.10
   2  -2  -2   61.48    3.39
   2  -2  -2   62.69    3.57
   1  -2  -2  143.18    6.40
   1  -2  -2  143.15    9.22
   1  -2  -2  143.71    6.34
  -1   2   2  166.82    7.04
   0  -2  -2  100.62    4.93
   0  -2  -2  101.34    4.93
   0   2   2  113.69    5.37
   0   2   2  115.60    5.43
  -1  -2  -2  156.23    6.97
  -1  -2  -2  159.94    6.93
  -1  -2  -2  154.19    9.64
   1   2   2  123.01    6.07
   1   2   2  136.73    6.06
  -2  -2  -2  181.48    7.76
  -2  -2  -2  178.95   11.89
   2   2   2  187.65    8.03
   2   2   2  180.67    8.12
   3   2   2   17.56    2.43
   3   2   2   18.09    2.39
   4   2   2   -1.91    2.17
   4   2   2    1.19    2.30
   5   2   2   13.09    3.09
   5   2   2   22.43    3.39
   6   2   2   11.33    3.76
   7   2   2   -2.41    3.90
   3  -3  -2   15.83    2.20
   3  -3  -2   16.42    2.47
   2  -3  -2   17.38    2.11
   2  -3  -2   15.57    2.41
   1  -3  -2  134.90    6.49
   1  -3  -2  133.09    6.25
  -1   3   2  106.64    5.11
  -1   3   2  107.97    5.19
   0  -3  -2   81.95    4.62
   0  -3  -2   83.34    4.53
   0   3   2   63.84    3.83
   0   3   2   58.66    3.73
  -1  -3  -2    1.21    1.88
  -1  -3  -2   -1.26    1.64
   1   3   2    0.21    2.00
   1   3   2   -0.53    1.91
  -2  -3  -2   34.56    2.89
  -2  -3  -2   37.44    3.28
   2   3   2   35.49    3.45
   2   3   2   37.96    3.31
  -3  -3  -2   13.85    1.85
   3   3   2   17.51    2.92
   3   3   2   19.75    2.90
   4   3   2   35.62    3.97
   4   3   2   34.09    3.79
   5   3   2   -4.45    3.03
   6   3   2   -0.42    3.79
   7   3   2    0.55    4.18
   4  -4  -2   28.66    3.64
   4  -4  -2   38.88    3.59
   3  -4  -2    9.37    2.95
   3  -4  -2   10.68    2.35
   2  -4  -2  140.33    6.62
   2  -4  -2  125.81    6.82
   1  -4  -2  111.35    6.28
   1  -4  -2  127.23    6.16
  -1   4   2   92.89    5.06
  -1   4   2   98.87    5.10
  -1   4   2   96.39    6.82
   0  -4  -2   19.80    2.67
   0  -4  -2   25.64    3.10
   0   4   2   31.34    3.01
   0   4   2   22.19    3.16
  -1  -4  -2  108.09    6.01
  -1  -4  -2  113.73    6.14
   1   4   2   91.06    5.45
   1   4   2   96.24    5.56
  -2  -4  -2   40.64    3.42
   2   4   2   40.05    3.99
   2   4   2   39.39    3.80
  -3  -4  -2   39.65    3.27
   3   4   2   38.82    4.08
   3   4   2   42.00    4.19
  -4  -4  -2   13.97    2.61
   4   4   2   14.26    3.85
   4   4   2   18.69    3.70
   5   4   2   16.08    3.94
   6   4   2    5.69    4.18
   7   4   2   -6.69    4.32
   5  -5  -2    5.25    3.53
   4  -5  -2    1.23    3.14
   3  -5  -2   13.68    2.93
   3  -5  -2   22.83    3.73
   2  -5  -2   29.57    3.81
   2  -5  -2   26.01    3.25
   1  -5  -2   80.97    5.62
   1  -5  -2   84.55    5.26
  -1   5   2   59.56    4.28
   0  -5  -2   34.18    3.43
   0  -5  -2   27.53    3.66
   0   5   2   31.86    3.75
  -1  -5  -2   40.85    4.04
   1   5   2   31.75    4.04
  -2  -5  -2   67.45    4.73
   2   5   2   61.08    4.88
   2   5   2   49.80    4.76
  -3  -5  -2   48.94    4.05
   3   5   2   64.64    5.55
   3   5   2   55.21    5.05
  -4  -5  -2    7.36    2.28
   4   5   2   18.22    3.99
   4   5   2   24.32    4.93
   5   5   2    9.25    3.91
   6   5   2    1.12    4.07
   7   5   2   -2.00    4.69
   6  -6  -2    5.50    4.23
   5  -6  -2    2.78    3.93
   4  -6  -2   14.16    4.05
   3  -6  -2   18.18    3.80
   2  -6  -2   21.68    3.65
   2  -6  -2   28.84    4.46
   1  -6  -2   32.72    4.39
   1  -6  -2   27.14    3.76
  -1   6   2   17.89    3.35
   0  -6  -2   68.51    5.86
   0   6   2   48.68    4.56
  -1  -6  -2   10.06    3.39
   1   6   2    2.85    3.50
  -2  -6  -2   23.85    3.82
   2   6   2   17.41    4.41
  -3  -6  -2   51.90    4.58
   3   6   2   48.29    5.63
   4   6   2    1.09    3.83
   5   6   2   -4.65    3.65
   6   6   2   -5.14    4.05
   5  -7  -2    6.81    4.71
   4  -7  -2    9.26    4.51
   3  -7  -2    3.66    4.06
   2  -7  -2   13.24    4.31
   1  -7  -2   28.53    4.38
   1  -7  -2   36.51    5.12
  -1   7   2   16.04    3.61
   0  -7  -2   31.10    4.76
   0   7   2   14.68    3.89
  -1  -7  -2    5.67    3.59
   1   7   2   -5.20    3.68
  -2  -7  -2   17.08    3.99
   2   7   2   17.76    4.52
  -3  -7  -2    9.16    3.38
   3   7   2   12.27    4.21
   4   7   2    3.84    3.98
   5   7   2   -0.82    3.97
   6   7   2    2.31    4.59
   4  -8  -2    4.32    5.11
   3  -8  -2    5.81    4.75
   2  -8  -2   17.50    5.01
   1  -8  -2   13.26    4.57
   0  -8  -2    2.90    3.84
   0   8   2   -1.07    3.52
  -1  -8  -2    1.50    3.83
   1   8   2    8.12    4.12
  -2  -8  -2   11.41    4.19
   2   8   2    2.21    4.15
  -3  -8  -2   -2.64    3.46
   3   8   2   -2.58    3.92
   4   8   2   15.34    4.79
   5   8   2   -1.91    4.27
   3  -9  -2    4.17    5.70
   2  -9  -2   -2.88    4.60
   1  -9  -2    6.55    4.88
   0  -9  -2   18.96    5.23
  -1  -9  -2   -3.55    4.12
   1   9   2   -3.45    4.27
  -2  -9  -2    5.30    4.67
   2   9   2   -5.31    4.35
   3   9   2    2.17    4.75
   4   9   2   -1.10    4.60
   5   9   2  -11.61    4.55
   2 -10  -2    0.15    5.32
   1 -10  -2   28.76    6.32
   0 -10  -2   -1.02    4.96
  -1 -10  -2    7.15    5.21
  -2 -10  -2   11.87    5.42
   2  10   2    4.45    5.29
   3  10   2   -0.10    5.22
   4  10   2   -2.58    5.41
   1 -11  -2    0.77    5.63
   0 -11  -2    0.20    5.91
  -1 -11  -2   12.25    6.19
   4  11   2  -12.63    5.78
  -1 -12  -2   -3.97    6.45
  -1 -11   3    2.15    6.22
  -2 -10   3   -0.91    5.37
  -1 -10   3    3.85    5.34
   0 -10   3    2.48    5.39
   1 -10   3    2.60    5.41
   4   9  -3    5.99    5.66
   3   9  -3    0.14    5.24
   2   9  -3   -1.42    5.04
  -2  -9   3    4.66    4.64
  -1  -9   3    4.38    4.75
   0  -9   3    6.21    4.74
   1  -9   3    1.09    4.64
   2  -9   3    6.22    5.11
   5   8  -3    0.18    5.20
   4   8  -3   -6.80    4.63
   3   8  -3    9.46    5.15
   2   8  -3    6.30    4.63
  -2  -8   3   13.87    4.49
   1   8  -3    4.25    4.24
  -1  -8   3    4.74    4.07
   0  -8   3    1.22    4.03
   1  -8   3    3.57    3.99
   2  -8   3   10.88    4.58
  -3   8  -3   -1.10    5.33
   3  -8   3    1.55    4.50
  -4   8  -3    4.18    7.14
   4  -8   3   -2.76    4.45
   5   7  -3    0.07    4.95
   4   7  -3    0.37    4.46
   3   7  -3   19.33    5.07
  -3  -7   3   19.40    4.06
   2   7  -3    1.84    4.07
  -2  -7   3    0.26    3.32
   1   7  -3    6.50    3.87
  -1  -7   3    7.79    3.81
   0   7  -3   15.37    3.96
   0  -7   3   19.45    4.36
   1  -7   3   28.64    4.84
   2  -7   3    5.06    3.72
  -3   7  -3    4.00    5.14
   3  -7   3    5.45    3.86
  -4   7  -3    0.13    5.99
   4  -7   3    4.71    3.94
  -5   7  -3    4.49    8.00
   5  -7   3    4.22    4.13
   6   6  -3   -0.29    4.92
   5   6  -3    0.75    4.61
   4   6  -3    7.27    4.51
   3   6  -3    3.73    4.08
  -3  -6   3   10.11    3.28
   2   6  -3   32.46    4.99
  -2  -6   3   33.31    4.29
   1   6  -3   22.90    4.30
  -1  -6   3   25.11    4.18
   0   6  -3   16.86    3.72
   0  -6   3   22.23    4.06
  -1   6  -3   -0.57    2.79
   1  -6   3    7.25    3.51
   1  -6   3    1.43    3.12
   2  -6   3    0.95    3.22
  -3   6  -3   12.13    5.08
   3  -6   3   18.64    4.01
  -4   6  -3    6.78    6.00
   4  -6   3    2.68    3.60
  -5   6  -3   -8.77    6.57
   5  -6   3   -3.90    3.57
   6   5  -3    3.21    5.06
   5   5  -3    2.90    4.59
   4   5  -3   -0.40    4.08
   3   5  -3   18.18    4.49
  -3  -5   3   13.82    2.95
   2   5  -3   16.57    4.18
  -2  -5   3   14.85    3.21
   1   5  -3   23.37    3.91
  -1  -5   3   35.64    4.07
   0   5  -3    0.87    2.75
   0  -5   3    4.12    2.79
   0  -5   3    3.61    2.61
  -1   5  -3   24.69    3.31
   1  -5   3   28.60    3.54
   1  -5   3   32.18    3.93
   2  -5   3   29.40    3.62
   2  -5   3   32.73    4.00
  -3   5  -3    5.68    4.08
   3  -5   3    2.48    3.13
  -4   5  -3    0.36    4.96
   4  -5   3    1.15    3.01
  -5   5  -3   -2.20    6.33
  -6   5  -3   -8.70    7.73
   6   4  -3   -0.69    4.70
   5   4  -3   -6.84    4.09
   4   4  -3   12.40    4.25
  -4  -4   3    8.86    2.94
   3   4  -3   46.33    4.98
   3   4  -3   45.91    5.03
  -3  -4   3   47.41    4.05
   2   4  -3    6.68    3.29
  -2  -4   3   10.37    2.66
   1   4  -3   85.62    5.52
  -1  -4   3   90.81    5.42
   0   4  -3   82.70    5.08
   0  -4   3  114.46    6.08
   0  -4   3  105.47    6.14
  -1   4  -3   40.11    3.53
   1  -4   3   46.75    3.95
   1  -4   3   53.40    4.00
   2  -4   3   40.76    3.84
   2  -4   3   42.89    3.77
  -3   4  -3    5.29    4.17
   3  -4   3   14.68    2.72
   3  -4   3   12.06    2.92
  -4   4  -3    7.65    5.28
  -5   4  -3   -8.28    5.46
  -6   4  -3   -3.74    7.30
   7   3  -3    0.45    5.08
   6   3  -3    3.84    4.61
   5   3  -3    8.79    4.50
   4   3  -3    6.55    3.51
   4   3  -3    4.62    3.87
  -4  -3   3    3.47    2.50
   3   3  -3   17.44    3.41
   3   3  -3   10.76    3.54
  -3  -3   3   16.47    2.77
   2   3  -3   34.28    3.87
   2   3  -3   38.98    3.78
  -2  -3   3   33.83    2.94
   1   3  -3   73.86    4.70
   1   3  -3   73.44    4.64
  -1  -3   3   61.54    4.26
  -1  -3   3   64.29    4.03
   0   3  -3   33.49    3.10
   0   3  -3   30.80    3.10
   0  -3   3   36.04    3.27
   0  -3   3   36.27    3.29
  -1   3  -3   36.05    2.78
   1  -3   3   37.60    3.26
   1  -3   3   41.84    3.52
   2  -3   3  101.33    5.35
   2  -3   3  104.61    5.30
  -3   3  -3    2.17    3.61
  -4   3  -3    0.28    4.78
  -5   3  -3    8.47    6.53
  -6   3  -3   -4.77    6.98
   7   2  -3    8.50    5.23
   6   2  -3    5.98    4.44
   5   2  -3    3.41    3.95
   4   2  -3    6.89    3.09
   4   2  -3    1.52    3.49
   3   2  -3   89.61    5.17
   3   2  -3   74.12    5.31
  -3  -2   3   63.66    4.17
   2   2  -3  135.34    6.84
   2   2  -3  133.90    6.63
  -2  -2   3  149.65    6.96
  -2  -2   3  137.57    6.78
   1   2  -3   43.61    3.24
   1   2  -3   40.61    3.26
  -1  -2   3   39.22    2.98
  -1  -2   3   40.06    3.08
   0   2  -3   53.90    3.43
   0   2  -3   55.40    3.38
   0  -2   3   58.93    3.65
   0  -2   3   57.30    3.47
   1  -2   3   42.82    2.99
   1  -2   3   45.33    3.06
  -3   2  -3    7.74    3.90
  -4   2  -3    0.75    4.68
  -5   2  -3   23.32    7.58
   7   1  -3    8.59    4.26
   6   1  -3    7.57    4.09
   5   1  -3    0.08    3.45
   4   1  -3    3.70    2.48
   4   1  -3    5.63    3.28
   3   1  -3   24.56    2.72
   3   1  -3   18.43    3.07
   2   1  -3   16.07    2.43
   2   1  -3   14.61    2.26
  -2  -1   3   22.73    2.32
  -2  -1   3   16.89    2.30
   1   1  -3   40.81    2.87
   1   1  -3   36.62    2.83
  -1  -1   3   30.76    2.44
  -1  -1   3   26.31    2.59
   0   1  -3  129.72    5.79
   0   1  -3  128.12    5.92
   0  -1   3  102.44    5.04
   0  -1   3  115.89    5.28
  -1   1  -3   65.40    3.00
   1  -1   3  109.84    4.95
   1  -1   3  112.08    5.05
  -3   1  -3    6.04    3.59
  -4   1  -3    7.05    5.14
  -5   1  -3    6.23    5.93
   7   0  -3   -1.32    3.72
   6   0  -3   10.27    3.52
   5   0  -3   14.73    3.68
   4   0  -3    6.48    2.92
   4   0  -3    8.54    2.46
   3   0  -3   53.51    3.51
   3   0  -3   54.29    3.76
   2   0  -3   12.19    2.16
   2   0  -3   12.02    1.98
  -2   0   3   13.02    1.76
   1   0  -3   67.84    4.08
   1   0  -3   89.98    4.10
  -1   0   3   80.93    3.89
  -1   0   3   72.83    3.97
   0   0  -3  123.27    5.47
   0   0  -3  121.59    5.35
   0   0   3  164.75    6.73
   0   0   3  145.72    6.60
  -1   0  -3  356.72   14.04
   1   0   3  419.84   16.44
   1   0   3  413.43   16.50
  -3   0  -3   24.86    4.97
  -4   0  -3   45.72    7.37
  -5   0  -3    0.76    5.58
   7  -1  -3    1.82    3.62
   6  -1  -3   17.16    3.62
   5  -1  -3   16.70    3.16
   4  -1  -3    2.58    2.06
   4  -1  -3   -0.50    2.40
   3  -1  -3   80.15    4.17
   2  -1  -3   57.65    3.53
   1  -1  -3   97.48    4.78
   1  -1  -3   97.44    4.76
  -1   1   3  117.58    5.31
  -1   1   3  117.41    5.44
   0  -1  -3  267.70   10.96
   0   1   3  273.08   11.18
   0   1   3  270.39   11.10
  -1  -1  -3   93.52    4.43
  -1  -1  -3  102.00    4.48
   1   1   3  101.53    4.83
   1   1   3  102.67    4.88
  -2  -1  -3   80.60    6.27
   2   1   3  143.54    6.13
   2   1   3  138.20    6.14
  -3  -1  -3    2.59    3.48
  -4  -1  -3   13.95    5.58
   4  -2  -3   23.29    3.16
   3  -2  -3   27.87    2.59
   3  -2  -3   22.70    2.80
   2  -2  -3   22.13    2.30
   2  -2  -3   17.25    2.42
   1  -2  -3   25.18    2.47
   1  -2  -3   25.70    2.37
  -1   2   3   17.09    2.06
  -1   2   3   21.01    1.94
   0  -2  -3   97.20    5.01
   0  -2  -3   97.26    5.03
   0   2   3  100.59    4.95
   0   2   3   94.92    5.00
  -1  -2  -3  235.63    9.85
  -1  -2  -3  226.97    9.74
   1   2   3  229.94    9.98
   1   2   3  239.30    9.96
  -2  -2  -3   28.90    3.80
  -2  -2  -3   29.09    2.47
   2   2   3   28.20    2.83
   2   2   3   30.98    2.78
  -3  -2  -3   21.75    5.10
   3   2   3   23.20    2.66
   3   2   3   25.28    2.69
   4   2   3   45.31    3.51
   4   2   3   37.82    3.53
   5   2   3   38.64    3.58
   5   2   3   34.06    3.72
   6   2   3   -1.77    3.09
   7   2   3   -4.46    3.90
   5  -3  -3   19.39    3.30
   4  -3  -3    1.93    2.63
   4  -3  -3    6.21    2.36
   3  -3  -3   22.66    2.98
   3  -3  -3   25.90    2.60
   2  -3  -3   68.56    4.23
   2  -3  -3   66.65    4.05
   1  -3  -3  152.37    9.87
   1  -3  -3  156.79    7.22
   1  -3  -3  154.46    7.33
  -1   3   3  147.87    6.66
  -1   3   3  143.74    6.67
   0  -3  -3   28.06    2.83
   0  -3  -3   30.34    2.80
   0   3   3   14.83    2.37
   0   3   3   19.36    2.39
  -1  -3  -3  118.24    6.09
  -1  -3  -3  127.97    6.22
   1   3   3  112.77    5.66
   1   3   3  102.83    5.49
  -2  -3  -3   66.44    3.87
  -2  -3  -3   68.13    4.33
   2   3   3   73.12    4.45
   2   3   3   65.45    4.40
  -3  -3  -3   33.47    2.55
   3   3   3   40.92    3.55
   3   3   3   43.37    3.77
   4   3   3    5.61    3.02
   4   3   3    6.47    2.78
   5   3   3    6.71    3.21
   6   3   3    5.47    3.58
   7   3   3   -5.89    3.96
   5  -4  -3    5.35    3.06
   4  -4  -3   -3.77    2.74
   3  -4  -3   51.95    4.46
   3  -4  -3   56.46    4.18
   2  -4  -3   77.47    5.04
   2  -4  -3   76.29    4.78
   1  -4  -3   51.57    3.89
   1  -4  -3   43.94    3.92
  -1   4   3   40.65    3.39
   0  -4  -3   56.47    4.10
   0  -4  -3   47.96    4.12
   0   4   3   37.91    3.58
   0   4   3   39.79    3.66
  -1  -4  -3   20.59    2.98
  -1  -4  -3   21.10    3.03
   1   4   3    6.73    2.50
   1   4   3   10.49    2.81
  -2  -4  -3   36.01    3.28
   2   4   3   39.53    3.92
   2   4   3   37.81    3.72
  -3  -4  -3    0.54    1.89
   3   4   3    2.87    2.77
   3   4   3   -1.40    2.86
  -4  -4  -3    4.01    2.04
   4   4   3    6.59    3.18
   4   4   3    2.32    3.67
   5   4   3   29.82    4.30
   6   4   3    6.98    4.08
   7   4   3   -5.05    4.33
   6  -5  -3    3.87    3.91
   5  -5  -3    5.49    3.52
   4  -5  -3    8.54    3.38
   3  -5  -3   -0.94    3.09
   3  -5  -3   -2.69    2.42
   2  -5  -3   23.43    3.73
   2  -5  -3   17.34    3.20
   1  -5  -3   41.17    3.76
   1  -5  -3   29.85    3.67
  -1   5   3   29.55    3.37
   0  -5  -3   26.75    3.39
   0  -5  -3   24.52    3.53
   0   5   3   14.90    3.22
  -1  -5  -3   24.23    3.49
   1   5   3   24.61    3.66
  -2  -5  -3    0.51    2.32
   2   5   3    6.03    3.16
   2   5   3    9.71    3.24
  -3  -5  -3    4.90    2.37
   3   5   3    8.79    3.51
   3   5   3    5.25    3.59
  -4  -5  -3    1.81    1.35
   4   5   3   83.91    6.62
   4   5   3   69.91    5.76
   5   5   3    6.46    3.64
   6   5   3   -1.07    4.06
   7   5   3    6.99    4.70
   5  -6  -3    9.03    4.04
   4  -6  -3    1.97    3.59
   3  -6  -3    0.31    3.38
   2  -6  -3   39.45    4.49
   2  -6  -3   31.25    4.31
  -2   6   3   19.77    3.01
   1  -6  -3   11.59    3.26
   1  -6  -3   14.78    3.73
  -1   6   3    9.39    3.80
   0  -6  -3    8.19    3.36
   0   6   3   10.51    3.59
  -1  -6  -3    2.87    3.03
   1   6   3    4.49    3.51
  -2  -6  -3   49.77    4.77
   2   6   3   46.37    5.07
  -3  -6  -3    0.73    2.58
   3   6   3    7.64    3.91
   4   6   3   10.42    3.98
   5   6   3   -3.27    3.73
   6   6   3   -3.54    4.08
   5  -7  -3    4.00    4.47
   4  -7  -3   -0.41    3.95
   3  -7  -3   19.92    4.75
   2  -7  -3   19.75    4.45
   1  -7  -3   24.81    4.71
  -1   7   3   12.68    3.43
   0  -7  -3   19.17    4.48
   0   7   3   14.42    3.78
  -1  -7  -3   66.76    6.04
   1   7   3   47.91    5.68
  -2  -7  -3   28.68    4.42
   2   7   3   31.80    5.15
  -3  -7  -3   -1.00    2.93
   3   7   3   -1.88    3.78
   4   7   3    1.57    4.06
   5   7   3    7.06    4.37
   6   7   3   -4.61    4.07
   4  -8  -3    1.67    4.86
   3  -8  -3   -2.17    4.40
   2  -8  -3   16.03    4.99
   1  -8  -3   10.63    4.61
   0  -8  -3    6.92    4.08
   0   8   3    5.72    3.78
  -1  -8  -3    1.03    3.78
   1   8   3   -2.59    3.60
  -2  -8  -3   -2.49    3.54
   2   8   3   -2.47    3.97
  -3  -8  -3   -0.15    3.57
   3   8   3   -2.14    4.07
   4   8   3   -3.77    4.03
   5   8   3   -0.17    4.41
   3  -9  -3   13.68    5.99
   2  -9  -3   23.13    5.95
   1  -9  -3    4.67    4.82
   0  -9  -3    3.25    4.54
  -1  -9  -3   21.21    5.26
   1   9   3   12.32    4.88
  -2  -9  -3   20.84    5.17
   2   9   3   17.97    5.27
   3   9   3   12.25    5.12
   4   9   3   -2.56    4.51
   5   9   3    3.48    5.11
   2 -10  -3    0.23    5.60
   1 -10  -3   11.15    5.56
   0 -10  -3   -3.38    4.90
  -1 -10  -3    5.26    5.20
  -2 -10  -3    7.47    5.40
   2  10   3    9.83    5.30
   3  10   3   -4.41    4.95
   4  10   3   -1.36    5.30
   1 -11  -3   -3.54    5.56
   0 -11  -3    9.18    6.25
  -1 -11  -3   -0.83    5.68
   4  11   3   -0.63    6.09
  -1 -12  -3    4.44    7.10
  -1 -10   4    1.26    5.35
   0 -10   4    8.86    5.81
   4   9  -4    0.80    5.66
   3   9  -4   -1.93    5.49
  -2  -9   4    1.45    4.88
  -1  -9   4    4.63    4.73
   0  -9   4    3.13    4.80
   1  -9   4    0.56    4.72
   2  -9   4   -0.10    4.96
   5   8  -4    3.26    5.62
   4   8  -4   -1.76    4.96
   3   8  -4    2.59    4.80
   2   8  -4    7.57    4.81
  -2  -8   4   14.98    4.84
   1   8  -4    8.74    4.64
  -1  -8   4   10.20    4.21
   0  -8   4    9.42    4.54
   1  -8   4    1.20    4.01
   2  -8   4    6.84    4.57
  -3   8  -4    4.57    6.02
   3  -8   4    7.95    4.66
  -4   8  -4    5.71    7.39
   5   7  -4   -2.62    5.07
   4   7  -4   -0.78    4.47
   3   7  -4   -0.73    4.22
  -3  -7   4   -3.00    3.35
   2   7  -4    3.97    4.14
  -2  -7   4    3.37    3.72
   1   7  -4    3.92    3.92
  -1  -7   4    8.19    3.70
   0   7  -4   19.34    4.15
   0  -7   4   23.39    4.49
   1  -7   4    9.60    3.99
   2  -7   4    5.62    3.84
  -3   7  -4    2.56    5.28
   3  -7   4    5.44    4.10
  -4   7  -4    3.68    6.31
   4  -7   4    1.10    4.06
  -5   7  -4    1.11    7.57
   5  -7   4    1.92    4.30
  -6   7  -4  -14.35    9.20
   5   6  -4    5.08    4.79
   4   6  -4    9.79    4.59
   3   6  -4    2.03    3.99
  -3  -6   4    6.86    2.99
   2   6  -4   17.94    4.32
  -2  -6   4   24.93    4.15
   1   6  -4   -0.53    3.59
  -1  -6   4   10.80    3.55
   0   6  -4   13.76    3.66
   0  -6   4   17.27    3.85
  -1   6  -4    3.56    3.28
   1  -6   4    2.26    3.32
   1  -6   4    3.70    3.23
   2  -6   4    3.80    3.32
  -3   6  -4    1.39    4.54
   3  -6   4    3.58    3.41
  -4   6  -4   -0.01    5.52
   4  -6   4    2.57    3.49
  -5   6  -4    2.78    6.71
   5  -6   4    6.38    3.77
  -6   6  -4   -1.75    8.63
   6   5  -4   -7.43    4.68
   5   5  -4   -5.07    4.35
   4   5  -4    4.99    4.36
   3   5  -4   -0.47    3.73
  -3  -5   4    2.16    2.64
   2   5  -4    1.59    3.57
  -2  -5   4    1.85    2.72
   1   5  -4   26.50    4.09
  -1  -5   4   23.38    3.69
   0   5  -4   22.19    3.60
   0  -5   4   27.00    3.96
  -1   5  -4   29.42    3.80
   1  -5   4   38.29    4.28
   1  -5   4   25.30    3.71
   2  -5   4    1.32    2.68
   2  -5   4   -1.75    2.83
   3  -5   4   11.70    3.33
  -4   5  -4    8.48    5.39
   4  -5   4   13.69    3.34
  -5   5  -4    5.17    6.34
  -6   5  -4   -5.31    7.78
   6   4  -4   -1.12    4.70
   5   4  -4   -3.30    4.16
   4   4  -4   14.02    4.39
   3   4  -4    6.24    3.82
  -3  -4   4    4.47    2.68
   2   4  -4    7.54    3.39
  -2  -4   4    5.49    2.56
   1   4  -4   11.29    3.19
  -1  -4   4   10.00    2.71
   0   4  -4   21.85    3.15
   0  -4   4   35.85    3.73
   0  -4   4   34.48    3.56
  -1   4  -4    1.17    2.28
   1  -4   4   -0.26    2.25
   1  -4   4   -1.76    2.23
   2  -4   4   16.09    3.02
   2  -4   4   18.53    3.06
   3  -4   4   18.19    3.05
   3  -4   4   18.80    3.18
  -4   4  -4    4.85    5.05
  -5   4  -4   -0.46    5.64
  -6   4  -4   -1.22    7.60
   6   3  -4   -0.40    4.44
   5   3  -4   10.28    4.34
   4   3  -4    1.82    3.80
   4   3  -4    0.77    3.56
  -4  -3   4   -1.23    1.69
   3   3  -4   27.22    4.14
   3   3  -4   24.84    4.17
  -3  -3   4   32.22    3.54
   2   3  -4   22.40    3.33
   2   3  -4   19.23    3.36
  -2  -3   4   31.02    3.18
   1   3  -4    1.69    2.49
   1   3  -4    1.42    2.42
  -1  -3   4   12.15    2.47
  -1  -3   4   15.73    2.71
   0   3  -4   19.10    2.74
   0  -3   4   37.51    3.39
   0  -3   4   43.24    3.69
  -1   3  -4   18.08    2.58
   1  -3   4   29.94    3.04
   1  -3   4   29.34    3.02
   2  -3   4  279.84   11.98
   2  -3   4  281.67   12.03
  -4   3  -4    8.21    5.11
  -5   3  -4    1.45    5.69
  -6   3  -4   -3.21    6.73
   7   2  -4    0.24    4.70
   6   2  -4   -0.06    4.38
   5   2  -4    6.03    4.03
   4   2  -4   28.87    4.11
   4   2  -4   19.34    4.06
  -4  -2   4   27.32    3.10
   3   2  -4   23.62    3.62
   3   2  -4   24.20    3.54
  -3  -2   4   35.16    3.51
   2   2  -4   15.33    2.82
   2   2  -4   12.43    2.84
  -2  -2   4   12.21    2.30
   1   2  -4   54.85    3.83
   1   2  -4   52.81    3.80
  -1  -2   4   62.34    4.04
  -1  -2   4   55.62    3.60
   0   2  -4  120.76    5.94
   0   2  -4  117.61    5.81
   0  -2   4  129.35    6.18
   0  -2   4  123.55    6.10
  -1   2  -4  122.41    5.61
   1  -2   4  136.19    6.29
   1  -2   4  129.77    6.26
   2  -2   4   46.04    3.14
   2  -2   4   42.15    2.98
  -4   2  -4   17.33    5.67
  -5   2  -4   -3.14    5.45
  -6   2  -4    1.41    7.21
   7   1  -4    2.28    4.26
   6   1  -4    0.97    4.05
   5   1  -4   20.43    4.30
   4   1  -4    5.83    3.37
   4   1  -4    6.55    2.79
   3   1  -4   21.13    3.26
   3   1  -4   29.15    3.14
  -3  -1   4    3.47    1.28
   2   1  -4   80.44    4.53
   2   1  -4   73.22    4.64
  -2  -1   4   82.12    4.68
  -2  -1   4   83.51    4.65
   1   1  -4   49.40    3.48
   1   1  -4   51.65    3.44
  -1  -1   4   62.03    3.71
  -1  -1   4   56.60    3.55
   0   1  -4   32.90    2.83
   0   1  -4   31.36    2.67
   0  -1   4   33.80    2.50
   0  -1   4   31.80    2.81
  -1   1  -4  186.70    7.79
   1  -1   4  236.78   10.11
   1  -1   4  252.46   10.27
   2  -1   4   28.31    2.12
   2  -1   4   24.82    2.26
  -3   1  -4   40.13    4.92
  -4   1  -4   14.58    5.32
  -5   1  -4    2.97    5.69
  -6   1  -4    1.80    7.14
   7   0  -4    3.40    4.58
   6   0  -4    0.17    3.63
   5   0  -4   11.20    3.52
   4   0  -4   22.68    3.15
   4   0  -4   17.19    3.42
   3   0  -4   20.04    2.87
   3   0  -4   25.23    2.82
   2   0  -4   19.41    2.69
   2   0  -4   31.07    2.79
  -2   0   4   36.35    2.90
   1   0  -4   10.24    1.99
   1   0  -4    6.46    2.05
  -1   0   4   12.89    2.17
  -1   0   4   17.04    2.00
   0   0  -4   53.88    3.53
   0   0  -4   57.17    3.32
   0   0   4   52.71    3.55
   0   0   4   59.58    3.84
  -1   0  -4  189.42    7.87
   1   0   4  207.79    8.67
   1   0   4  201.26    8.53
  -3   0  -4   17.76    4.15
  -4   0  -4   22.15    6.01
  -5   0  -4   16.58    7.01
   7  -1  -4   -3.44    4.13
   6  -1  -4    0.63    3.46
   5  -1  -4   11.59    3.59
   4  -1  -4   19.31    3.54
   4  -1  -4   26.87    3.05
   3  -1  -4   60.25    3.86
   3  -1  -4   54.84    4.06
   2  -1  -4   28.58    2.61
   2  -1  -4   27.11    2.92
   1  -1  -4  112.42    5.54
   1  -1  -4  115.41    5.43
  -1   1   4  131.43    6.02
  -1   1   4  129.78    6.20
   0  -1  -4  245.92   10.52
   0  -1  -4  250.94   10.46
   0   1   4  264.63   11.22
   0   1   4  264.80   11.15
  -1  -1  -4  107.31    5.00
  -1  -1  -4  105.91    4.92
   1   1   4  127.05    5.84
   1   1   4  128.56    5.98
   2   1   4   21.81    2.18
   2   1   4   21.24    2.08
  -3  -1  -4   40.19    5.11
  -4  -1  -4   38.13    7.03
  -5  -1  -4   26.10    7.35
   6  -2  -4    9.34    3.47
   5  -2  -4    0.96    3.01
   4  -2  -4    9.14    3.04
   3  -2  -4   46.33    3.56
   3  -2  -4   40.92    3.78
   2  -2  -4   19.30    2.69
   2  -2  -4   22.56    2.53
  -2   2   4   19.98    1.99
  -2   2   4   19.97    2.00
   1  -2  -4   20.89    2.52
   1  -2  -4   22.22    2.51
  -1   2   4   24.00    2.51
  -1   2   4   23.39    2.26
   0  -2  -4  162.17    7.54
   0  -2  -4  169.22    7.57
   0   2   4  187.88    8.25
   0   2   4  179.92    8.12
  -1  -2  -4  150.23    6.94
  -1  -2  -4  161.45    7.10
   1   2   4  141.05    6.80
   1   2   4  146.75    6.78
  -2  -2  -4  118.08    5.35
  -2  -2  -4  115.86    8.20
   2   2   4  137.11    6.26
   2   2   4  126.56    6.39
  -3  -2  -4   39.85    5.14
   3   2   4   48.80    3.54
   3   2   4   47.88    3.56
  -4  -2  -4   11.35    5.28
   4   2   4    6.63    2.67
   4   2   4    9.65    2.49
   5   2   4   39.02    3.71
   6   2   4    6.85    3.10
   7  -3  -4    1.18    4.04
   6  -3  -4   16.97    3.87
   5  -3  -4   -0.54    2.91
   4  -3  -4   17.89    2.94
   4  -3  -4   17.92    3.34
   3  -3  -4   58.05    4.38
   3  -3  -4   62.79    4.29
   2  -3  -4  134.93    6.96
   2  -3  -4  151.92    6.99
   1  -3  -4   29.18    3.03
   1  -3  -4   26.16    2.89
  -1   3   4   24.89    2.70
  -1   3   4   20.37    2.39
   0  -3  -4   93.41    5.29
   0  -3  -4   97.37    5.28
   0   3   4   95.82    5.22
   0   3   4   94.15    5.35
  -1  -3  -4   53.13    3.82
  -1  -3  -4   56.58    4.12
   1   3   4   63.96    4.22
   1   3   4   65.08    4.33
  -2  -3  -4   29.17    3.84
  -2  -3  -4   32.02    2.81
  -2  -3  -4   33.62    3.22
   2   3   4   27.24    3.30
   2   3   4   34.06    3.26
  -3  -3  -4   17.60    4.90
  -3  -3  -4   15.49    1.98
   3   3   4   25.24    3.15
   3   3   4   14.34    2.84
   4   3   4   31.99    3.90
   4   3   4   29.40    3.57
   5   3   4   34.04    3.86
   6   3   4   -3.61    3.23
   7   3   4   -5.52    3.97
   6  -4  -4    7.12    3.63
   5  -4  -4    2.42    3.22
   4  -4  -4    2.32    3.02
   3  -4  -4   32.95    3.42
   3  -4  -4   26.25    3.78
   2  -4  -4   15.44    2.77
   2  -4  -4   23.82    3.38
  -2   4   4   11.50    2.16
   1  -4  -4   36.92    3.54
   1  -4  -4   33.44    3.61
   1  -4  -4   31.30    3.62
  -1   4   4   31.69    3.18
   0  -4  -4  132.18    6.98
   0  -4  -4  132.28    6.88
   0   4   4  114.15    6.17
   0   4   4  116.10    6.19
  -1  -4  -4  125.00    6.69
  -1  -4  -4  125.80    6.75
   1   4   4  114.44    6.28
   1   4   4  111.38    6.22
  -2  -4  -4   78.06    4.77
   2   4   4   65.17    4.69
   2   4   4   65.80    4.74
  -3  -4  -4   79.12    4.62
   3   4   4   62.77    4.80
   3   4   4   81.06    5.44
   4   4   4   63.18    4.89
   4   4   4   63.52    5.49
   5   4   4    3.33    3.22
   6   4   4    2.90    3.85
   7   4   4   -2.34    4.56
   6  -5  -4   15.03    4.40
   5  -5  -4    5.19    3.68
   4  -5  -4   21.42    4.00
   3  -5  -4   52.79    5.13
   3  -5  -4   56.17    4.83
   2  -5  -4   56.51    4.74
   2  -5  -4   55.71    5.14
  -2   5   4   36.90    3.28
   1  -5  -4   48.03    4.39
   1  -5  -4   49.16    4.59
  -1   5   4   40.26    3.86
   0  -5  -4   54.99    4.59
   0  -5  -4   55.89    4.85
   0   5   4   46.38    4.28
  -1  -5  -4  104.03    6.39
   1   5   4   72.13    5.23
  -2  -5  -4    5.72    2.55
   2   5   4    1.88    2.92
   2   5   4    3.47    2.77
  -3  -5  -4    6.07    2.40
   3   5   4    1.92    3.10
   3   5   4    7.45    3.68
  -4  -5  -4    3.73    1.61
   4   5   4    3.27    3.93
   4   5   4    5.21    3.45
   5   5   4   -1.06    3.42
   6   5   4    3.19    3.95
   7   5   4   -0.04    4.57
   6  -6  -4   10.28    4.79
   5  -6  -4    1.21    3.91
   4  -6  -4    8.35    4.02
   3  -6  -4   44.75    5.14
   2  -6  -4   60.22    5.66
   2  -6  -4   62.83    5.59
  -2   6   4   40.27    3.79
   1  -6  -4    6.99    3.53
   1  -6  -4   15.57    3.67
  -1   6   4    2.41    2.90
   0  -6  -4   66.05    5.70
   0   6   4   39.55    4.50
  -1  -6  -4   53.08    5.27
   1   6   4   46.49    4.96
  -2  -6  -4   24.80    3.96
   2   6   4   29.23    4.52
  -3  -6  -4    4.81    2.76
   3   6   4    4.29    3.78
   4   6   4    0.48    3.60
   5   6   4    5.34    4.06
   6   6   4    2.74    4.49
   5  -7  -4    6.26    4.68
   4  -7  -4    8.13    4.34
   3  -7  -4   11.45    4.06
   2  -7  -4    5.44    3.90
   1  -7  -4    5.89    3.93
  -1   7   4    6.38    3.20
   0  -7  -4   28.13    4.86
   0   7   4   16.11    4.13
  -1  -7  -4   35.37    4.94
   1   7   4   27.10    4.76
  -2  -7  -4    4.89    3.56
   2   7   4   -0.42    3.79
  -3  -7  -4    7.22    3.20
   3   7   4    3.38    3.95
   4   7   4    7.53    4.15
   5   7   4    1.24    4.32
   6   7   4   -2.35    4.33
   4  -8  -4    1.27    5.04
   3  -8  -4    9.26    5.11
   2  -8  -4   43.30    6.15
   1  -8  -4   15.75    4.83
   0  -8  -4    7.61    4.32
   0   8   4    2.35    3.56
  -1  -8  -4   15.18    4.44
   1   8   4   12.08    4.37
  -2  -8  -4   33.78    5.07
   2   8   4   34.68    5.64
  -3  -8  -4    9.89    4.00
   3   8   4    8.33    4.65
   4   8   4   -1.99    4.29
   5   8   4    0.21    4.46
   3  -9  -4    1.38    5.54
   2  -9  -4    1.51    5.07
   1  -9  -4    2.10    4.78
   0  -9  -4   16.16    5.19
  -1  -9  -4   15.60    5.31
   1   9   4    8.54    4.60
  -2  -9  -4   -0.75    4.10
   2   9   4   -2.71    4.33
   3   9   4    0.36    4.64
   4   9   4   -3.23    4.42
   5   9   4   -2.35    4.67
   2 -10  -4   -0.36    5.56
   1 -10  -4   -1.36    5.13
   0 -10  -4   16.59    5.64
  -1 -10  -4    2.52    5.13
  -2 -10  -4   -4.24    4.78
   2  10   4    7.17    5.14
   3  10   4    0.77    5.12
   4  10   4   -2.85    5.19
   1 -11  -4   10.11    6.31
   0 -11  -4   10.47    6.16
  -1 -11  -4    7.45    5.87
   4  11   4   -2.13    6.16
  -1 -12  -4   -3.35    6.48
  -1 -10   5   -1.48    5.83
   0 -10   5    0.32    5.49
   4   9  -5    7.02    6.57
  -2  -9   5   -8.74    4.54
  -1  -9   5    0.88    4.92
   0  -9   5   -2.50    4.72
   1  -9   5    4.48    5.17
   2  -9   5    1.80    5.20
   4   8  -5    1.20    5.31
   3   8  -5    0.11    5.07
   2   8  -5   11.12    5.15
  -2  -8   5    5.39    4.41
  -1  -8   5    2.48    4.12
   0  -8   5    7.97    4.46
   1  -8   5    2.69    4.26
   2  -8   5    4.85    4.63
  -3   8  -5    0.51    5.91
   3  -8   5    2.11    4.37
  -4   8  -5    4.49    7.02
   5   7  -5   -1.96    5.15
   4   7  -5   -5.31    4.53
   3   7  -5    5.16    4.49
  -3  -7   5   -1.82    3.23
   2   7  -5    2.48    4.23
  -2  -7   5   -0.22    3.63
   1   7  -5   -1.06    3.88
  -1  -7   5    4.29    3.72
   0  -7   5   -0.14    3.49
   1  -7   5    6.90    3.91
   2  -7   5   -0.97    3.72
   3  -7   5   -0.88    3.76
  -4   7  -5    5.60    6.49
   4  -7   5    0.40    3.96
  -5   7  -5   -1.42    7.52
  -6   7  -5   -8.19    9.14
   5   6  -5   -0.80    4.67
   4   6  -5    2.32    4.45
   3   6  -5   -2.20    3.66
  -3  -6   5    4.89    3.19
   2   6  -5   -0.94    3.60
  -2  -6   5    3.26    3.11
   1   6  -5   26.77    4.57
  -1  -6   5   23.50    4.11
   0   6  -5   22.15    4.15
   0  -6   5   34.26    4.70
   1  -6   5   -5.49    3.07
   2  -6   5    7.74    3.55
   3  -6   5    8.77    3.88
  -4   6  -5    6.41    5.79
   4  -6   5    2.37    3.56
  -5   6  -5   -5.76    6.12
   5  -6   5   -2.09    3.60
  -6   6  -5   -4.78    8.34
   6   5  -5    4.98    5.38
   5   5  -5    1.65    4.61
   4   5  -5    4.21    4.29
   3   5  -5    3.74    3.90
  -3  -5   5    6.93    3.12
   2   5  -5   15.07    4.03
  -2  -5   5   15.92    3.46
   1   5  -5    5.70    3.59
  -1  -5   5   16.59    3.59
   0   5  -5    5.97    3.20
   0  -5   5   16.16    3.63
  -1   5  -5    6.47    3.16
   1  -5   5    9.70    3.36
   1  -5   5    8.81    3.23
   2  -5   5   22.89    3.90
   2  -5   5   22.47    3.76
   3  -5   5   29.05    4.02
  -4   5  -5    4.65    5.18
   4  -5   5    5.36    3.10
  -5   5  -5   -2.11    5.90
   5  -5   5    3.18    3.15
  -6   5  -5   -4.87    7.73
   6   4  -5    2.16    5.18
   5   4  -5    1.37    4.44
   4   4  -5   14.38    4.48
   3   4  -5    3.33    3.74
  -3  -4   5    4.96    2.78
   2   4  -5   13.53    3.75
  -2  -4   5   21.62    3.21
   1   4  -5   15.30    3.37
  -1  -4   5   18.01    3.15
   0   4  -5   37.06    3.87
   0  -4   5   37.06    3.92
   0  -4   5   40.47    3.96
  -1   4  -5    1.91    2.72
   1  -4   5    1.31    2.63
   1  -4   5    1.60    2.68
   2  -4   5    1.67    2.70
   2  -4   5    4.81    2.76
   3  -4   5   56.28    4.86
   3  -4   5   50.87    4.31
  -4   4  -5    1.61    4.62
   4  -4   5    5.08    2.67
  -5   4  -5    7.76    6.22
  -6   4  -5    0.21    7.49
   6   3  -5   -2.83    4.81
   5   3  -5   13.79    4.50
   4   3  -5    1.11    3.93
   3   3  -5   14.51    3.91
   3   3  -5   16.18    3.90
  -3  -3   5   11.35    2.96
   2   3  -5    5.00    3.15
  -2  -3   5    8.24    2.59
   1   3  -5   55.57    4.24
  -1  -3   5   52.95    4.01
   0   3  -5   16.70    2.96
   0  -3   5   29.68    3.28
   0  -3   5   22.55    2.97
  -1   3  -5   41.26    3.58
   1  -3   5   52.88    3.97
   1  -3   5   54.88    4.13
   2  -3   5   36.08    3.37
   2  -3   5   32.83    3.33
   3  -3   5   55.21    3.90
   3  -3   5   49.09    4.04
  -4   3  -5   21.77    5.68
  -5   3  -5   -0.06    5.35
  -6   3  -5    5.93    7.46
   6   2  -5    1.57    4.43
   5   2  -5   10.44    4.42
   4   2  -5   22.99    4.27
   4   2  -5   15.27    4.21
  -4  -2   5   34.52    3.76
   3   2  -5   12.92    3.60
   3   2  -5   18.79    3.55
   2   2  -5   28.60    3.53
   2   2  -5   27.44    3.45
  -2  -2   5   35.33    3.36
   1   2  -5   46.95    3.95
   1   2  -5   54.45    3.97
  -1  -2   5   58.50    3.96
  -1  -2   5   60.01    4.31
   0   2  -5   34.26    3.31
   0   2  -5   35.12    3.19
   0  -2   5   42.37    3.58
   0  -2   5   43.12    3.32
  -1   2  -5   28.50    2.76
  -1   2  -5   24.33    2.51
   1  -2   5   26.77    2.81
   1  -2   5   22.88    2.61
   2  -2   5   28.97    2.81
   2  -2   5   31.12    2.97
  -4   2  -5   14.69    5.25
  -5   2  -5    0.47    5.39
  -6   2  -5    0.70    6.77
   7   1  -5   -0.75    4.87
   6   1  -5   -4.91    4.14
   5   1  -5   -4.42    3.53
   4   1  -5    1.63    3.41
   4   1  -5    6.79    2.96
   3   1  -5   46.89    4.20
   3   1  -5   47.76    4.08
  -3  -1   5   58.86    4.17
   2   1  -5    2.57    2.47
   2   1  -5    3.15    2.24
  -2  -1   5    5.58    2.37
   1   1  -5   42.72    3.32
   1   1  -5   35.62    3.44
  -1  -1   5   44.63    3.42
  -1  -1   5   39.13    3.29
   0   1  -5   21.40    2.61
   0   1  -5   23.21    2.73
   0  -1   5   15.28    2.22
   0  -1   5   21.64    2.53
  -1   1  -5   62.94    3.55
  -1   1  -5   58.06    3.45
   1  -1   5   59.64    3.44
   1  -1   5   61.90    3.90
   2  -1   5   39.06    3.10
   2  -1   5   42.12    2.77
  -4   1  -5   21.55    5.72
  -5   1  -5    8.61    5.83
  -6   1  -5    4.88    7.36
   7   0  -5    6.84    4.71
   6   0  -5   -4.16    4.04
   5   0  -5   18.15    4.22
   4   0  -5   38.67    4.63
   4   0  -5   60.55    4.49
   3   0  -5   17.24    2.86
   3   0  -5   10.32    3.00
  -3   0   5   20.15    2.61
   2   0  -5   73.27    4.49
   2   0  -5   71.15    4.71
  -2   0   5   68.14    4.19
  -2   0   5   65.64    4.28
   1   0  -5   34.70    3.06
   1   0  -5   39.80    3.40
  -1   0   5   30.78    2.71
  -1   0   5   30.05    2.93
   0   0  -5  172.08    7.76
   0   0  -5  169.63    7.64
   0   0   5  195.89    8.41
   0   0   5  186.13    8.50
  -1   0  -5   12.81    1.95
  -1   0  -5   15.32    1.94
   1   0   5   11.86    2.07
   1   0   5   15.14    1.97
   2   0   5   17.04    2.30
   2   0   5   22.56    2.09
  -4   0  -5   14.48    5.37
  -5   0  -5   18.08    6.78
  -6   0  -5    3.30    6.99
   7  -1  -5    4.45    4.27
   6  -1  -5   -0.63    3.94
   5  -1  -5    0.76    3.47
   4  -1  -5    9.85    2.84
   4  -1  -5   14.48    3.63
   3  -1  -5    9.43    3.00
   3  -1  -5   11.71    2.59
   2  -1  -5   29.60    3.23
   2  -1  -5   23.46    2.86
  -2   1   5   28.12    2.80
  -2   1   5   25.83    2.57
   1  -1  -5  131.92    6.42
   1  -1  -5  131.45    6.36
  -1   1   5  160.48    7.29
  -1   1   5  156.33    7.47
   0  -1  -5    1.24    1.91
   0  -1  -5    2.84    1.80
   0   1   5    3.10    1.81
   0   1   5    1.91    1.80
  -1  -1  -5    7.00    1.71
  -1  -1  -5    4.54    1.73
   1   1   5    8.55    2.04
   1   1   5   12.64    1.95
   2   1   5  180.84    8.03
   2   1   5  191.66    8.24
  -3  -1  -5   11.42    3.75
   3   1   5   20.76    2.45
  -4  -1  -5   21.71    5.99
  -5  -1  -5   15.13    6.65
   7  -2  -5    5.07    4.31
   6  -2  -5   -0.12    3.54
   5  -2  -5   -4.24    3.24
   4  -2  -5   66.30    4.64
   4  -2  -5   61.76    4.94
   3  -2  -5   37.89    3.92
   2  -2  -5   52.84    4.17
   2  -2  -5   65.24    4.21
   1  -2  -5    3.10    1.94
   1  -2  -5    2.45    2.11
  -1   2   5    4.15    1.91
  -1   2   5    7.65    2.25
   0  -2  -5  118.38    5.86
   0  -2  -5  110.19    5.77
   0   2   5  101.73    5.45
   0   2   5   99.21    5.28
  -1  -2  -5  103.26    5.09
  -1  -2  -5   91.51    4.93
   1   2   5  118.80    6.20
   1   2   5  123.17    6.15
   2   2   5   44.00    3.63
   2   2   5   43.64    3.47
  -3  -2  -5   70.85    6.77
   3   2   5   60.20    3.94
   3   2   5   51.49    3.98
  -4  -2  -5    5.03    4.61
   4   2   5    6.54    2.48
   4   2   5    5.98    2.57
  -5  -2  -5    6.54    6.16
   5   2   5    2.08    2.68
   7  -3  -5   -5.12    4.23
   6  -3  -5    2.28    3.68
   5  -3  -5   32.45    4.30
   4  -3  -5   34.42    4.12
   3  -3  -5   13.89    2.82
   3  -3  -5   13.09    3.09
   2  -3  -5   21.38    3.10
   2  -3  -5   26.75    3.07
  -2   3   5    2.12    1.11
   1  -3  -5   72.52    4.76
   1  -3  -5   76.53    4.83
  -1   3   5   71.09    4.41
  -1   3   5   68.31    4.56
   0  -3  -5  130.15    6.66
   0  -3  -5  125.51    6.59
   0   3   5  134.60    7.06
   0   3   5  144.11    6.97
  -1  -3  -5    2.20    1.88
  -1  -3  -5   -0.34    2.06
   1   3   5    5.01    2.42
   1   3   5    2.14    2.20
  -2  -3  -5   26.73    2.75
  -2  -3  -5   29.26    3.97
   2   3   5   29.55    3.31
   2   3   5   27.66    3.19
  -3  -3  -5   26.30    2.46
  -3  -3  -5   36.64    5.50
   3   3   5   39.18    3.79
   3   3   5   38.48    3.77
  -4  -3  -5   46.67    7.69
   4   3   5   34.37    4.06
   4   3   5   38.72    4.00
   5   3   5   22.65    3.56
   6   3   5    6.50    3.52
   7   3   5    7.56    4.33
   6  -4  -5   16.78    4.17
   5  -4  -5    6.97    3.52
   4  -4  -5    8.99    3.31
   3  -4  -5   56.63    4.89
   3  -4  -5   56.22    4.69
   2  -4  -5   27.66    3.36
   2  -4  -5   29.72    3.67
  -2   4   5   13.83    2.03
   1  -4  -5   52.26    4.25
   1  -4  -5   47.31    4.27
  -1   4   5   38.60    3.50
   0  -4  -5   34.85    3.62
   0  -4  -5   38.12    3.79
   0   4   5   24.82    3.53
   0   4   5   36.05    3.46
  -1  -4  -5   44.11    4.06
  -1  -4  -5   45.32    4.14
   1   4   5   30.11    3.80
   1   4   5   29.74    3.57
  -2  -4  -5   36.54    3.51
  -2  -4  -5   39.78    4.26
   2   4   5   35.81    3.98
   2   4   5   39.38    3.91
  -3  -4  -5   19.59    5.10
   3   4   5    9.88    3.12
   3   4   5    9.82    3.24
   4   4   5    2.71    3.33
   4   4   5    2.04    2.97
   5   4   5   18.73    3.70
   6   4   5    3.78    3.71
   7   4   5    2.63    4.39
   6  -5  -5    1.31    4.22
   5  -5  -5    9.31    3.83
   4  -5  -5   20.11    4.16
   3  -5  -5   21.99    4.15
   2  -5  -5   45.38    4.86
   2  -5  -5   46.15    4.60
  -2   5   5   34.49    3.20
   1  -5  -5    1.88    2.75
   1  -5  -5    7.80    2.79
  -1   5   5    4.22    2.64
   0  -5  -5  133.14    7.52
   0  -5  -5  143.01    7.56
   0   5   5  116.66    6.60
  -1  -5  -5   73.50    5.49
   1   5   5   66.92    5.07
  -2  -5  -5   10.73    2.85
   2   5   5   15.19    3.48
   2   5   5   17.83    3.45
  -3  -5  -5    2.84    2.33
   3   5   5    4.40    3.44
   3   5   5    3.04    3.22
   4   5   5   18.65    3.89
   5   5   5   10.45    3.71
   6   5   5   -0.76    3.88
   7   5   5    6.57    4.89
   5  -6  -5    4.09    4.05
   4  -6  -5    5.50    4.03
   3  -6  -5   10.51    3.97
   2  -6  -5   50.78    5.12
   2  -6  -5   58.41    5.43
  -2   6   5   24.86    3.02
   1  -6  -5   56.03    5.34
   1  -6  -5   51.88    5.23
  -1   6   5   39.81    4.20
   0  -6  -5   28.90    4.40
   0   6   5   18.42    3.79
  -1  -6  -5   25.61    4.22
   1   6   5   14.02    3.82
  -2  -6  -5   15.86    3.59
   2   6   5    7.79    3.75
  -3  -6  -5   38.35    4.07
   3   6   5   35.39    4.76
   4   6   5    8.93    3.81
   5   6   5   -4.27    3.58
   6   6   5   -1.56    4.08
   5  -7  -5   -0.99    4.49
   4  -7  -5    6.39    4.49
   3  -7  -5   18.95    4.73
   2  -7  -5    9.80    3.86
   1  -7  -5    8.29    4.16
  -1   7   5    5.12    3.33
   0  -7  -5   18.58    4.39
   0   7   5   14.81    3.99
  -1  -7  -5   26.19    4.85
   1   7   5   19.74    4.52
  -2  -7  -5   17.47    4.11
   2   7   5    9.09    4.14
  -3  -7  -5    7.65    3.21
   3   7   5   11.68    4.28
   4   7   5    5.19    4.01
   5   7   5   -4.92    3.74
   6   7   5    3.49    4.61
   4  -8  -5   -0.05    4.88
   3  -8  -5   18.42    5.39
   2  -8  -5    1.71    4.32
   1  -8  -5   34.25    5.67
   0  -8  -5    7.81    4.39
   0   8   5    2.07    3.79
  -1  -8  -5    4.85    4.23
   1   8   5    2.82    4.03
  -2  -8  -5    5.88    3.86
   2   8   5    2.91    4.00
  -3  -8  -5   10.99    4.07
   3   8   5   -0.51    4.05
   4   8   5   22.34    5.05
   5   8   5    1.89    4.61
   3  -9  -5   15.33    5.97
   2  -9  -5    1.51    4.92
   1  -9  -5    1.43    4.87
   0  -9  -5    3.09    4.77
  -1  -9  -5    2.95    4.59
   1   9   5    1.67    4.42
  -2  -9  -5    8.76    4.42
   2   9   5    0.99    4.65
   3   9   5    1.66    4.75
   4   9   5   -4.44    4.56
   5   9   5   -3.57    4.78
   2 -10  -5    2.56    5.61
   1 -10  -5   -1.81    5.27
   0 -10  -5   15.94    5.66
  -1 -10  -5    2.86    5.23
  -2 -10  -5   -0.48    4.83
   2  10   5   -1.26    4.80
   3  10   5   -3.50    4.83
   4  10   5   -0.41    5.28
   1 -11  -5    5.94    6.17
   0 -11  -5   -6.77    5.49
  -1 -11  -5    8.98    6.07
   4  11   5   -1.56    5.97
  -1 -12  -5    2.66    6.82
  -1 -10   6   -0.44    5.91
   4   9  -6    8.06    6.70
  -2  -9   6    2.20    5.21
  -1  -9   6    1.06    5.01
   0  -9   6    2.36    4.90
   1  -9   6   -1.40    4.80
   4   8  -6   -1.19    5.46
   3   8  -6    1.29    5.13
   2   8  -6    0.02    4.88
  -2  -8   6    0.34    4.43
  -1  -8   6    6.69    4.72
   0  -8   6   -4.07    3.95
   1  -8   6    9.41    4.74
   2  -8   6    4.48    4.60
  -3   8  -6    6.06    6.41
   3  -8   6    0.94    4.74
  -4   8  -6   -1.24    7.08
   5   7  -6    1.22    5.56
   4   7  -6   -1.16    4.89
   3   7  -6    2.92    4.79
   2   7  -6    7.12    4.68
  -2  -7   6    8.35    4.12
   1   7  -6    3.50    4.36
  -1  -7   6    3.08    3.89
   0  -7   6    5.95    3.84
   1  -7   6    3.62    4.07
   2  -7   6    4.67    4.30
   3  -7   6    0.24    3.79
  -4   7  -6    9.63    6.83
   4  -7   6    2.29    4.23
  -5   7  -6   12.68    8.45
  -6   7  -6   -3.57    9.85
   5   6  -6    2.28    5.15
   4   6  -6    1.94    4.73
   3   6  -6    1.17    4.29
  -3  -6   6    4.03    3.48
   2   6  -6    7.22    4.17
  -2  -6   6    6.71    3.44
   1   6  -6   25.45    4.67
  -1  -6   6   36.18    4.87
   0   6  -6    1.21    3.69
   0  -6   6    1.28    3.26
   1  -6   6    3.11    3.39
   2  -6   6    8.57    3.96
   3  -6   6   15.08    4.16
  -4   6  -6    4.41    5.89
   4  -6   6   10.79    3.86
  -5   6  -6    5.53    7.16
   5  -6   6    5.97    4.14
  -6   6  -6   -1.01    8.62
   5   5  -6    2.21    4.87
   4   5  -6   -7.32    4.13
   3   5  -6    4.52    4.13
  -3  -5   6    8.71    3.29
   2   5  -6   -2.74    3.48
  -2  -5   6   -0.33    2.79
   1   5  -6   -0.52    3.54
  -1  -5   6    2.21    3.03
   0   5  -6    2.65    3.54
   0  -5   6   12.62    3.53
  -1   5  -6    7.74    3.41
   1  -5   6   15.20    3.74
   1  -5   6   10.27    3.58
   2  -5   6   36.26    4.55
   3  -5   6   21.43    3.78
  -4   5  -6    0.29    4.85
   4  -5   6   -4.68    2.98
  -5   5  -6   -2.36    5.80
   5  -5   6    4.88    3.40
  -6   5  -6    5.97    8.23
  -7   5  -6   -7.55   10.73
   6   4  -6    5.81    5.14
   5   4  -6    3.39    4.88
   4   4  -6   -0.85    4.20
   3   4  -6   -3.76    3.63
  -3  -4   6   -1.74    2.46
   2   4  -6    5.40    3.47
  -2  -4   6    2.16    2.71
   1   4  -6   39.94    4.53
  -1  -4   6   47.65    4.43
   0   4  -6   49.09    4.81
   0  -4   6   67.25    5.13
  -1   4  -6    8.30    3.07
   1  -4   6    9.17    3.04
   1  -4   6    4.44    3.00
   2  -4   6   10.35    3.16
   2  -4   6    5.76    3.06
   3  -4   6  152.71    7.99
  -4   4  -6   -1.95    4.52
   4  -4   6    8.27    2.90
  -5   4  -6   -2.33    5.51
  -6   4  -6   -0.07    7.23
  -7   4  -6   -1.96    9.82
   6   3  -6   -1.34    5.09
   5   3  -6    1.38    4.44
   4   3  -6    9.36    4.22
   3   3  -6    2.71    3.64
  -3  -3   6    3.84    2.69
   2   3  -6   16.10    3.58
  -2  -3   6   22.00    3.31
   1   3  -6   35.23    3.86
  -1  -3   6   52.37    4.11
   0   3  -6    4.95    2.84
   0  -3   6   -1.37    2.48
   0  -3   6    8.95    2.46
  -1   3  -6   15.03    2.95
   1  -3   6   16.83    2.90
   1  -3   6   22.15    3.14
   2  -3   6   36.48    3.63
   2  -3   6   41.49    4.09
   3  -3   6    9.53    2.73
   3  -3   6   10.56    2.55
  -4   3  -6    0.87    4.08
  -5   3  -6   -1.39    5.27
  -6   3  -6   -1.29    6.76
  -7   3  -6   -6.63    8.24
   6   2  -6    8.73    5.06
   5   2  -6    4.71    4.45
   4   2  -6   16.33    4.18
   3   2  -6   11.41    3.55
   3   2  -6    8.54    3.58
  -3  -2   6   14.69    3.26
   2   2  -6   -1.89    2.70
   2   2  -6    1.03    2.82
  -2  -2   6    1.86    2.32
   1   2  -6   20.69    3.15
   1   2  -6   22.66    3.38
  -1  -2   6   20.23    2.78
   0   2  -6   34.80    3.61
   0  -2   6   44.66    3.43
   0  -2   6   43.23    3.87
  -1   2  -6   72.72    4.52
   1  -2   6   77.04    4.75
   1  -2   6   70.73    4.49
   2  -2   6   57.32    4.09
   2  -2   6   54.35    3.83
   3  -2   6   10.21    2.29
   3  -2   6    7.28    2.44
  -4   2  -6   23.28    5.76
  -5   2  -6    8.87    5.96
  -6   2  -6   10.29    7.62
  -7   2  -6  -10.78    8.46
   6   1  -6    4.57    4.79
   5   1  -6   -0.77    3.92
   4   1  -6   20.86    4.27
   4   1  -6   20.26    3.76
  -4  -1   6   37.35    3.65
   3   1  -6   10.86    3.16
   3   1  -6   12.45    3.45
  -3  -1   6   33.51    3.82
   2   1  -6    5.57    2.88
   2   1  -6    4.57    2.53
  -2  -1   6    5.92    2.43
   1   1  -6  126.73    6.60
   1   1  -6  132.12    6.78
  -1  -1   6  159.48    7.50
  -1  -1   6  147.05    7.37
   0   1  -6   15.48    2.73
   0   1  -6   12.35    2.52
   0  -1   6   20.73    2.47
   0  -1   6   21.29    2.84
  -1   1  -6    5.63    1.98
  -1   1  -6    8.93    2.19
   1  -1   6   13.69    2.60
   1  -1   6   16.69    2.34
   2  -1   6   44.06    3.11
   2  -1   6   48.46    3.67
   3  -1   6   59.14    3.72
   3  -1   6   46.93    3.23
  -4   1  -6   13.80    4.88
  -5   1  -6    0.72    5.13
  -6   1  -6    3.36    6.99
   6   0  -6   -3.13    4.30
   5   0  -6    4.32    4.10
   4   0  -6   14.58    3.43
   4   0  -6   11.68    4.09
   3   0  -6   30.22    3.58
   3   0  -6   25.95    3.92
  -3   0   6   -1.84    1.12
   2   0  -6   61.83    4.26
   2   0  -6   53.54    4.42
  -2   0   6   59.55    4.24
   1   0  -6   12.22    2.79
   1   0  -6   11.05    2.50
  -1   0   6   16.49    2.55
  -1   0   6   20.93    2.80
   0   0  -6  102.98    5.62
   0   0  -6  105.56    5.50
   0   0   6  120.25    6.03
   0   0   6  123.68    6.27
  -1   0  -6   45.38    3.27
  -1   0  -6   41.89    3.16
   1   0   6   31.72    2.87
   1   0   6   41.89    3.50
   2   0   6  151.53    6.91
   2   0   6  151.43    7.12
   3   0   6   13.06    2.39
   3   0   6   17.78    2.22
  -4   0  -6   -2.41    3.75
  -5   0  -6   15.70    6.55
  -6   0  -6    0.56    6.80
   6  -1  -6   -2.26    4.16
   5  -1  -6   11.97    4.26
   4  -1  -6   11.52    3.13
   4  -1  -6    8.92    3.83
   3  -1  -6   18.09    3.79
   3  -1  -6   32.92    3.50
  -3   1   6   36.83    3.23
   2  -1  -6   38.78    3.55
   2  -1  -6   34.57    3.71
  -2   1   6   48.09    3.92
   1  -1  -6   61.63    4.08
   1  -1  -6   59.70    4.21
  -1   1   6   80.92    5.03
  -1   1   6   81.95    4.85
   0  -1  -6  100.99    5.46
   0  -1  -6  104.82    5.35
   0   1   6  113.61    6.00
   0   1   6  117.77    5.89
  -1  -1  -6   54.85    3.64
  -1  -1  -6   52.73    3.50
   1   1   6   68.17    4.05
   1   1   6   66.93    4.30
  -2  -1  -6   19.67    1.99
  -2  -1  -6   21.96    2.14
   2   1   6   15.65    2.59
   3   1   6  102.13    5.43
   3   1   6   99.84    5.11
  -4  -1  -6   14.80    5.28
   4   1   6   15.13    2.69
  -5  -1  -6    4.79    5.57
  -6  -1  -6    9.79    7.50
   6  -2  -6    3.85    3.74
   5  -2  -6   27.70    4.41
   4  -2  -6   35.43    4.40
   3  -2  -6    3.53    2.96
   3  -2  -6    7.26    2.61
   2  -2  -6   33.03    3.59
   2  -2  -6   36.33    3.40
  -2   2   6   29.86    3.04
   1  -2  -6  147.35    7.58
   1  -2  -6  164.29    7.50
  -1   2   6  182.79    8.36
  -1   2   6  176.05    8.56
   0  -2  -6  113.43    5.87
   0  -2  -6  106.49    5.70
   0   2   6  142.15    7.20
   0   2   6  139.55    6.96
  -1  -2  -6   18.70    2.61
  -1  -2  -6   16.35    2.44
   1   2   6   20.73    2.91
   1   2   6   22.43    2.89
  -2  -2  -6   40.91    2.97
  -2  -2  -6   45.46    3.19
   2   2   6   44.33    3.70
   2   2   6   43.57    3.80
  -3  -2  -6   65.27    6.30
   3   2   6   61.54    4.46
   3   2   6   66.70    4.33
  -4  -2  -6   10.26    5.28
   4   2   6   12.08    2.94
   4   2   6   13.90    2.89
  -5  -2  -6    1.52    5.66
   5   2   6   -3.06    2.58
   6   2   6   23.22    3.89
   6  -3  -6    9.19    4.00
   5  -3  -6    9.10    3.75
   4  -3  -6   36.25    4.38
   3  -3  -6   38.56    4.25
   3  -3  -6   36.10    3.81
   2  -3  -6   80.15    5.28
   2  -3  -6   88.75    5.37
  -2   3   6   89.58    5.04
   1  -3  -6  230.30   10.51
   1  -3  -6  226.92   10.45
  -1   3   6  237.93   10.76
   0  -3  -6  156.98    7.91
   0  -3  -6  161.87    7.89
   0   3   6  151.53    7.65
   0   3   6  152.39    7.54
  -1  -3  -6  113.37    6.08
  -1  -3  -6  114.05    6.24
   1   3   6  109.41    6.29
   1   3   6  111.07    6.18
  -2  -3  -6  132.92    6.57
   2   3   6  134.99    7.26
   2   3   6  148.17    7.35
  -3  -3  -6   31.09    5.08
  -3  -3  -6   20.26    2.21
   3   3   6   26.65    3.48
   3   3   6   27.28    3.40
  -4  -3  -6   21.89    5.90
   4   3   6   14.59    3.25
   4   3   6   12.11    3.21
  -5  -3  -6   19.57    7.54
   5   3   6   25.53    3.82
   6   3   6   -3.56    3.12
   7   3   6    0.56    4.03
   6  -4  -6   -2.33    3.93
   5  -4  -6   10.38    3.89
   4  -4  -6   39.83    4.54
   3  -4  -6   50.44    4.78
   3  -4  -6   47.80    4.75
   2  -4  -6   77.24    5.57
   2  -4  -6   82.03    5.55
  -2   4   6    7.94    1.70
   1  -4  -6   84.08    5.54
   1  -4  -6   86.09    5.65
  -1   4   6   54.55    4.31
   0  -4  -6  125.60    7.05
   0  -4  -6  131.67    7.13
   0   4   6  122.36    6.85
  -1  -4  -6   25.16    3.17
   1   4   6   36.41    4.06
   1   4   6   26.43    3.48
  -2  -4  -6   13.62    3.32
  -2  -4  -6    6.90    2.51
   2   4   6    5.03    2.91
   2   4   6    7.48    2.91
  -3  -4  -6   14.63    2.52
  -3  -4  -6   29.14    5.22
   3   4   6    8.45    3.28
   3   4   6   10.49    3.25
  -4  -4  -6    3.20    5.38
   4   4   6    5.12    3.33
   4   4   6    3.36    3.22
   5   4   6    4.40    3.15
   6   4   6   -3.24    3.57
   7   4   6   -4.31    4.20
   6  -5  -6   -0.38    4.12
   5  -5  -6   39.06    5.17
   4  -5  -6    1.56    3.54
   3  -5  -6    5.20    3.55
   2  -5  -6   25.85    4.19
   2  -5  -6   24.00    3.90
  -2   5   6   -1.18    1.17
   1  -5  -6  119.57    7.04
   1  -5  -6  114.36    7.14
  -1   5   6   94.43    5.77
   0  -5  -6   47.10    4.62
   0  -5  -6   44.72    4.63
   0   5   6   40.90    4.29
  -1  -5  -6   55.34    4.97
   1   5   6   40.56    4.51
  -2  -5  -6   32.94    3.98
   2   5   6   25.37    3.99
   2   5   6   22.51    3.99
  -3  -5  -6   39.44    3.81
   3   5   6   40.91    4.85
   3   5   6   39.54    4.64
   4   5   6   23.12    4.01
   5   5   6   -1.86    3.38
   6   5   6    8.57    4.06
   7   5   6   -3.31    4.37
   5  -6  -6    0.72    4.06
   4  -6  -6   17.20    4.56
   3  -6  -6    7.43    3.98
   2  -6  -6   42.97    4.93
   2  -6  -6   46.49    5.25
  -2   6   6   -0.38    1.43
   1  -6  -6    9.47    3.83
   1  -6  -6   19.46    3.93
  -1   6   6   15.00    3.42
   0  -6  -6   21.70    4.11
   0   6   6    9.27    3.46
  -1  -6  -6   58.14    5.55
   1   6   6   38.01    4.74
  -2  -6  -6   15.07    3.68
   2   6   6   15.95    3.98
  -3  -6  -6    7.72    2.87
   3   6   6    7.77    3.72
   4   6   6   -1.52    3.42
   5   6   6   -2.99    3.51
   6   6   6   -5.68    4.05
   5  -7  -6    8.63    4.80
   4  -7  -6   19.26    5.04
   3  -7  -6    4.28    4.10
   2  -7  -6   32.07    5.06
   1  -7  -6   43.80    5.43
  -1   7   6   24.79    4.01
   0  -7  -6   27.01    4.78
   0   7   6   19.81    4.26
  -1  -7  -6   22.75    4.64
   1   7   6   22.98    4.67
  -2  -7  -6   17.55    4.09
   2   7   6    7.29    4.00
  -3  -7  -6   15.89    3.52
   3   7   6   15.70    4.33
   4   7   6   10.84    4.23
   5   7   6    3.07    4.14
   6   7   6    1.84    4.30
   4  -8  -6   -1.24    4.69
   3  -8  -6    2.50    4.12
   2  -8  -6    0.50    4.37
   1  -8  -6   14.25    4.75
   0  -8  -6   27.60    5.34
   0   8   6   12.12    4.24
  -1  -8  -6    7.32    4.45
   1   8   6   -2.74    3.82
  -2  -8  -6   12.14    4.22
   2   8   6    2.69    4.14
  -3  -8  -6    9.79    3.93
   3   8   6   14.94    4.81
   4   8   6    1.65    4.09
   5   8   6    3.01    4.60
   3  -9  -6    8.28    5.69
   2  -9  -6   10.17    5.32
   1  -9  -6    6.78    5.17
   0  -9  -6    9.31    5.12
  -1  -9  -6   44.74    6.48
   1   9   6   13.22    5.19
  -2  -9  -6    3.08    4.40
   2   9   6    5.68    4.90
   3   9   6    1.39    4.61
   4   9   6    0.16    4.69
   5   9   6    2.38    5.14
   2 -10  -6    4.01    5.72
   1 -10  -6    9.80    5.98
   0 -10  -6    4.21    5.33
  -1 -10  -6   -3.42    4.91
  -2 -10  -6    1.87    5.07
   2  10   6   -2.81    5.08
   3  10   6    3.39    5.40
   4  10   6    5.59    5.56
   1 -11  -6    3.89    6.31
   0 -11  -6   -0.65    5.83
  -1 -11  -6  -10.97    5.38
   3  11   6   -3.87    5.66
   4  11   6    1.84    6.00
  -1 -12  -6    5.34    6.91
  -1  -9   7    2.19    5.47
   0  -9   7   -1.88    5.36
   1  -9   7    4.99    5.24
   4   8  -7   -2.29    5.47
   3   8  -7   -1.75    5.76
  -2  -8   7   -1.46    4.36
  -1  -8   7    8.49    5.02
   0  -8   7    1.37    4.55
   1  -8   7    4.01    4.64
   2  -8   7    1.78    4.81
  -4   8  -7   -6.20    7.35
   4   7  -7   -2.46    5.08
   3   7  -7    0.74    4.76
   2   7  -7   -1.07    4.60
  -2  -7   7    4.83    3.98
   1   7  -7    9.52    4.82
  -1  -7   7   10.95    4.35
   0  -7   7    6.35    4.36
   1  -7   7   13.99    4.46
   2  -7   7   19.39    4.88
   3  -7   7   -0.21    4.07
  -4   7  -7   -4.93    5.86
   4  -7   7    2.13    4.60
  -5   7  -7   -4.53    7.58
  -6   7  -7   -3.88   10.16
   5   6  -7    3.16    5.54
   4   6  -7   -1.80    4.65
   3   6  -7    6.32    4.38
  -3  -6   7    4.69    3.65
   2   6  -7    7.09    4.50
  -2  -6   7   11.83    3.78
   1   6  -7    4.46    3.97
  -1  -6   7    6.79    3.75
   0   6  -7    6.31    4.02
   0  -6   7   15.62    4.00
   1  -6   7   24.64    4.56
   2  -6   7    3.10    3.61
   3  -6   7    7.84    4.02
  -4   6  -7    7.12    6.17
   4  -6   7   21.06    4.53
  -5   6  -7   -2.82    7.14
   5  -6   7    8.25    4.20
  -6   6  -7    8.18    9.43
   5   5  -7    3.63    4.95
   4   5  -7    6.85    4.68
   3   5  -7   -0.39    3.81
  -3  -5   7    6.45    3.25
   2   5  -7    6.49    4.03
  -2  -5   7    8.09    3.23
   1   5  -7    7.37    3.95
  -1  -5   7   10.09    3.51
   0   5  -7   18.55    4.10
   0  -5   7   22.35    4.06
  -1   5  -7    3.31    3.35
   1  -5   7   -0.93    3.02
   2  -5   7   19.66    3.94
   3  -5   7    6.40    3.48
  -4   5  -7    8.90    5.85
   4  -5   7   24.11    4.02
  -5   5  -7   -0.80    5.92
   5  -5   7    3.52    3.48
  -6   5  -7    0.94    7.93
  -7   5  -7  -14.16    9.92
   6   4  -7   -1.98    5.62
   5   4  -7    3.38    5.08
   4   4  -7    0.23    4.07
   3   4  -7   -1.70    3.54
  -3  -4   7    1.56    2.87
   2   4  -7    7.54    3.88
  -2  -4   7   23.08    3.82
   1   4  -7   13.84    3.88
  -1  -4   7   20.19    3.43
   0   4  -7    5.72    3.43
   0  -4   7    3.74    2.98
  -1   4  -7   53.49    4.91
   1  -4   7   62.88    5.13
   1  -4   7   46.36    5.08
   2  -4   7    8.37    3.21
   2  -4   7   12.13    3.42
   3  -4   7    4.17    2.86
  -4   4  -7    0.29    4.63
   4  -4   7    6.13    2.98
  -5   4  -7   11.55    6.65
   5  -4   7   10.50    3.32
  -6   4  -7   -2.26    6.92
  -7   4  -7   -6.37    9.31
   6   3  -7    0.94    5.25
   5   3  -7    7.57    4.89
   4   3  -7   -0.26    4.01
   3   3  -7   10.59    4.09
  -3  -3   7   20.33    3.54
   2   3  -7    3.96    3.32
  -2  -3   7   15.81    3.14
   1   3  -7   11.62    3.53
  -1  -3   7   18.68    3.19
   0   3  -7   19.12    3.58
   0  -3   7   18.90    2.97
   0  -3   7   19.93    3.43
  -1   3  -7    8.12    2.97
   1  -3   7   19.81    3.19
   1  -3   7   15.70    3.26
   2  -3   7   26.84    3.49
   2  -3   7   23.69    3.47
   3  -3   7    4.01    2.71
   3  -3   7    3.57    2.63
   4  -3   7   21.14    3.15
  -5   3  -7   -2.80    5.08
  -6   3  -7    6.24    7.33
  -7   3  -7   -0.30    8.92
   6   2  -7   -3.94    5.12
   5   2  -7   10.03    4.71
   4   2  -7    5.30    4.08
   3   2  -7    3.35    3.64
  -3  -2   7   -1.81    2.81
   2   2  -7   44.78    4.65
  -2  -2   7   40.20    3.97
   1   2  -7   31.30    3.93
  -1  -2   7   42.70    3.77
   0   2  -7   15.98    3.19
   0  -2   7   18.79    3.08
   0  -2   7   19.98    2.91
  -1   2  -7   50.61    4.13
   1  -2   7   37.30    3.44
   1  -2   7   42.43    3.94
   2  -2   7   43.24    3.86
   2  -2   7   34.49    3.45
   3  -2   7    9.92    2.58
   3  -2   7    8.82    2.76
   4  -2   7    2.53    2.15
  -5   2  -7    8.23    5.83
  -6   2  -7    4.38    6.97
  -7   2  -7   -2.52    8.49
   6   1  -7    6.47    5.10
   5   1  -7   19.50    5.15
   4   1  -7    9.96    4.19
   3   1  -7   30.00    4.13
   3   1  -7   31.70    4.65
  -3  -1   7   39.09    4.28
   2   1  -7  114.13    6.78
   2   1  -7  114.65    6.52
  -2  -1   7  140.17    7.41
   1   1  -7   30.33    3.76
   1   1  -7   35.14    3.64
  -1  -1   7   37.42    3.48
   0   1  -7    8.15    2.76
   0  -1   7    4.79    2.25
   0  -1   7    6.34    2.49
  -1   1  -7   18.53    2.79
   1  -1   7    9.26    2.64
   1  -1   7    8.33    2.19
   2  -1   7   74.26    4.87
   2  -1   7   58.68    4.06
   3  -1   7   57.86    4.24
   3  -1   7   53.01    3.88
  -4   1  -7   19.90    5.57
   4  -1   7   18.48    2.95
  -5   1  -7    5.08    5.64
  -6   1  -7    1.05    6.64
  -7   1  -7  -11.21    8.23
   6   0  -7   -4.24    4.51
   5   0  -7   -0.96    4.07
   4   0  -7   19.30    4.37
   3   0  -7   10.62    3.74
   3   0  -7   15.75    3.32
  -3   0   7   23.37    3.52
   2   0  -7   19.74    3.61
   2   0  -7   24.50    3.28
  -2   0   7   22.98    3.37
   1   0  -7   50.59    4.26
   1   0  -7   55.70    4.08
  -1   0   7   65.77    4.51
  -1   0   7   56.87    4.35
   0   0  -7   17.76    3.07
   0   0  -7   24.75    3.13
   0   0   7   35.28    3.54
   0   0   7   34.21    3.33
  -1   0  -7   30.48    3.05
  -1   0  -7   37.34    3.19
   1   0   7   33.54    3.22
   1   0   7   43.00    3.61
   2   0   7   27.17    2.81
   2   0   7   24.44    3.00
   3   0   7   23.63    2.77
   3   0   7   28.15    3.12
  -4   0  -7    4.47    4.16
  -5   0  -7    4.34    5.33
  -6   0  -7    2.65    6.77
  -7   0  -7   -4.60    7.84
   6  -1  -7    2.62    4.75
   5  -1  -7   17.46    4.81
   4  -1  -7   57.58    5.60
   3  -1  -7   16.42    3.76
   3  -1  -7   22.96    3.51
  -3   1   7    0.19    1.15
   2  -1  -7   77.96    5.57
   2  -1  -7   84.06    5.13
  -2   1   7  101.84    6.10
   1  -1  -7  312.88   13.44
   1  -1  -7  309.92   13.61
  -1   1   7  336.17   14.40
   0  -1  -7   37.79    3.60
   0  -1  -7   40.86    3.57
   0   1   7   42.30    3.66
   0   1   7   47.74    4.13
  -1  -1  -7   74.94    4.51
  -1  -1  -7   80.68    4.67
   1   1   7   67.04    4.31
   1   1   7   71.61    4.60
  -2  -1  -7   39.40    2.98
   2   1   7   45.77    3.62
   2   1   7   49.87    3.89
   3   1   7    6.61    2.54
   3   1   7    8.20    2.32
  -4  -1  -7   -3.10    3.94
   4   1   7    1.93    2.62
  -5  -1  -7   -2.15    4.75
  -6  -1  -7   -7.77    6.28
   6  -2  -7    4.05    3.89
   5  -2  -7    6.00    3.79
   4  -2  -7   37.47    4.68
   3  -2  -7   64.93    5.33
   3  -2  -7   66.89    5.05
  -3   2   7   68.63    4.35
   2  -2  -7   41.07    3.93
   2  -2  -7   47.80    4.30
  -2   2   7   42.94    3.95
   1  -2  -7   43.77    3.96
   1  -2  -7   43.40    4.08
  -1   2   7   43.19    4.16
   0  -2  -7   49.17    4.02
   0  -2  -7   46.69    4.00
   0   2   7   80.50    5.13
   0   2   7   80.45    5.28
  -1  -2  -7  103.47    5.70
  -1  -2  -7  107.32    5.75
   1   2   7  111.96    6.30
   1   2   7  114.98    6.29
  -2  -2  -7   77.33    4.37
   2   2   7   83.74    5.23
   2   2   7   85.82    5.31
   3   2   7   15.66    3.00
   3   2   7   14.63    2.87
  -4  -2  -7    0.01    4.32
   4   2   7   -0.80    2.79
   4   2   7   -0.53    2.54
  -5  -2  -7    9.69    6.15
   5   2   7    6.57    3.00
  -6  -2  -7   29.76    9.20
   6   2   7   32.96    4.36
   6  -3  -7    2.61    4.08
   5  -3  -7   59.07    5.73
   4  -3  -7    8.20    3.60
   3  -3  -7    5.44    2.93
   3  -3  -7    4.32    3.34
   2  -3  -7   34.11    4.01
  -2   3   7   30.01    3.42
   1  -3  -7   42.29    4.08
   1  -3  -7   44.29    4.13
  -1   3   7   51.26    4.33
   0  -3  -7  101.24    6.11
   0  -3  -7  108.95    6.18
   0   3   7  101.81    5.92
   0   3   7   94.64    5.99
  -1  -3  -7   14.97    2.81
   1   3   7   23.23    3.54
   1   3   7   21.20    3.25
  -2  -3  -7    8.14    2.27
   2   3   7   -0.76    2.52
   2   3   7    4.26    2.68
  -3  -3  -7   14.66    2.16
  -3  -3  -7   20.12    4.66
   3   3   7   30.26    3.80
   3   3   7   21.65    3.51
  -4  -3  -7   15.56    5.57
   4   3   7    9.82    3.38
   4   3   7    8.19    3.15
  -5  -3  -7    0.73    5.78
   5   3   7   -1.60    3.04
   6   3   7    3.07    3.44
   7   3   7   -2.41    4.08
   6  -4  -7    8.33    4.48
   5  -4  -7   10.42    4.11
   4  -4  -7    0.09    3.45
   3  -4  -7   18.24    3.56
   3  -4  -7   19.18    3.90
   2  -4  -7   55.26    5.04
   2  -4  -7   61.66    5.14
  -2   4   7   38.07    3.59
   1  -4  -7   77.78    5.52
   1  -4  -7   72.05    5.49
  -1   4   7   75.28    5.38
   0  -4  -7    6.09    2.86
   0  -4  -7    3.14    2.65
   0   4   7    3.78    2.87
  -1  -4  -7   40.50    4.04
   1   4   7   38.67    4.02
   1   4   7   32.49    4.13
  -2  -4  -7   84.56    5.39
   2   4   7   80.32    5.71
   2   4   7   84.35    5.71
  -3  -4  -7   51.15    5.73
  -3  -4  -7   43.87    3.72
   3   4   7   54.81    5.14
   3   4   7   57.22    5.01
  -4  -4  -7   -0.14    4.62
   4   4   7    8.63    3.77
   4   4   7    4.27    3.38
   5   4   7    6.41    3.57
   6   4   7    6.90    3.83
   7   4   7    5.90    4.25
   6  -5  -7    1.38    4.47
   5  -5  -7    6.95    4.20
   4  -5  -7    7.07    4.00
   3  -5  -7   25.87    4.38
   2  -5  -7   27.97    4.17
   2  -5  -7   24.94    4.34
  -2   5   7   14.92    2.86
   1  -5  -7   27.15    4.10
   1  -5  -7   22.44    3.98
  -1   5   7   13.97    3.27
   0  -5  -7   25.26    3.91
   0   5   7   10.36    3.42
  -1  -5  -7   31.83    4.13
   1   5   7   18.71    4.01
  -2  -5  -7   19.87    3.52
   2   5   7   14.34    3.90
  -3  -5  -7    6.15    2.56
  -3  -5  -7   13.61    4.76
   3   5   7   13.56    3.85
   3   5   7   16.21    3.99
   4   5   7   -1.88    3.23
   5   5   7    3.21    3.49
   6   5   7    7.16    4.04
   5  -6  -7   17.69    4.94
   4  -6  -7    5.59    4.11
   3  -6  -7   -2.00    3.73
   2  -6  -7   10.16    3.95
  -2   6   7    1.41    2.42
   1  -6  -7   89.03    6.77
  -1   6   7   54.58    4.81
   0  -6  -7   47.23    5.21
   0   6   7   37.89    4.68
  -1  -6  -7    7.71    3.63
   1   6   7    1.58    3.38
  -2  -6  -7   12.31    3.74
   2   6   7   11.94    3.94
  -3  -6  -7   12.36    3.12
   3   6   7   14.26    4.03
   4   6   7    6.78    3.86
   5   6   7    6.39    3.89
   6   6   7   -3.52    4.02
   5  -7  -7    3.31    4.87
   4  -7  -7    1.13    4.34
   3  -7  -7    4.52    4.15
   2  -7  -7   -2.56    3.69
   1  -7  -7   12.26    4.25
  -1   7   7    5.41    3.35
   0  -7  -7    8.28    4.04
   0   7   7    4.19    3.62
  -1  -7  -7   14.48    4.24
   1   7   7    7.71    4.17
  -2  -7  -7   32.55    4.84
   2   7   7   21.46    4.51
  -3  -7  -7   12.85    3.48
   3   7   7    6.39    3.94
   4   7   7    1.14    3.85
   5   7   7    8.99    4.37
   6   7   7    2.13    4.31
   4  -8  -7    4.08    4.96
   3  -8  -7    3.75    4.72
   2  -8  -7   36.69    5.61
   1  -8  -7    1.80    4.32
   0  -8  -7   31.17    5.45
   0   8   7   18.30    4.47
  -1  -8  -7    2.36    4.04
   1   8   7   -1.14    3.90
  -2  -8  -7    9.55    4.12
   2   8   7    9.70    4.57
  -3  -8  -7   10.55    4.02
   3   8   7    7.27    4.42
   4   8   7    5.64    4.43
   5   8   7   -3.39    4.25
   3  -9  -7   -5.17    5.25
   2  -9  -7   24.21    6.06
   1  -9  -7   12.28    5.32
   0  -9  -7   20.04    5.58
  -1  -9  -7   -1.11    4.50
   1   9   7    2.66    4.45
  -2  -9  -7    6.17    4.62
   2   9   7    4.64    4.72
   3   9   7   11.31    4.98
   4   9   7   -0.57    4.67
   5   9   7   -1.64    4.77
   2 -10  -7    1.46    5.73
   1 -10  -7    6.56    5.72
   0 -10  -7    1.30    5.44
  -1 -10  -7    1.79    5.29
  -2 -10  -7    9.75    5.37
   2  10   7    6.28    5.73
   3  10   7   -2.54    5.24
   4  10   7    0.89    5.69
   1 -11  -7    4.61    6.48
   0 -11  -7    3.20    6.12
  -1 -11  -7    6.67    6.08
   3  11   7    7.72    6.40
   4  11   7    0.73    6.23
  -1 -12  -7   -0.94    6.92
  -1  -9   8   -8.82    5.19
   0  -9   8   10.52    6.10
   4   8  -8    4.07    6.64
  -2  -8   8    3.51    4.81
  -1  -8   8   -5.81    4.49
   0  -8   8   -3.94    4.44
   1  -8   8    2.48    4.93
   2  -8   8    5.96    5.28
  -4   8  -8   -1.73    7.96
   4   7  -8    4.00    6.07
   3   7  -8    2.25    5.31
   2   7  -8    7.64    5.24
  -2  -7   8    4.74    4.18
  -1  -7   8    4.70    4.19
   0  -7   8    6.11    4.22
   1  -7   8    4.05    4.30
   2  -7   8    4.04    4.45
   3  -7   8    2.27    4.50
  -4   7  -8    1.43    6.74
  -5   7  -8    3.99    8.37
  -6   7  -8   -4.50    9.95
   5   6  -8   -8.40    5.58
   4   6  -8    6.54    5.50
   3   6  -8   -9.44    4.39
   2   6  -8    6.14    4.71
  -2  -6   8    3.54    3.87
   1   6  -8   -5.59    4.25
  -1  -6   8   -0.89    3.31
   0  -6   8    9.59    4.04
   1  -6   8   -1.79    3.64
   2  -6   8   -6.57    3.63
   3  -6   8   14.27    4.34
   4  -6   8   14.15    4.62
  -5   6  -8   -3.00    7.15
  -6   6  -8    1.93    8.93
   5   5  -8    6.11    5.75
   4   5  -8   -2.06    4.78
   3   5  -8    4.32    4.46
  -3  -5   8    8.93    3.67
   2   5  -8    0.12    3.98
  -2  -5   8    6.79    3.64
   1   5  -8    2.69    3.88
  -1  -5   8    5.53    3.17
   0   5  -8   12.99    4.17
   0  -5   8   12.24    3.69
   1  -5   8   27.41    4.39
   2  -5   8    7.69    3.64
   3  -5   8   -4.61    3.45
   4  -5   8   23.20    4.40
  -5   5  -8    5.97    6.66
   5  -5   8   -1.28    3.60
  -6   5  -8    3.79    8.15
   5   4  -8   11.05    5.46
   4   4  -8   -1.63    4.39
   3   4  -8    7.39    4.28
  -3  -4   8   17.21    3.79
   2   4  -8   10.28    4.02
  -2  -4   8   13.81    3.39
   1   4  -8    3.43    3.75
  -1  -4   8    4.48    2.96
   0   4  -8   25.35    4.33
   0  -4   8   31.94    4.04
  -1   4  -8   16.71    3.85
   1  -4   8   22.93    3.94
   1  -4   8   22.55    4.29
   2  -4   8    2.62    3.06
   3  -4   8   -3.75    2.84
   4  -4   8   17.67    3.59
  -5   4  -8    0.98    5.67
   5  -4   8    8.72    3.44
  -6   4  -8    1.56    7.70
  -7   4  -8    1.57    9.64
   6   3  -8    3.21    5.98
   5   3  -8    6.17    5.14
   4   3  -8   -2.91    3.98
   3   3  -8    4.16    3.96
  -3  -3   8    1.76    2.86
   2   3  -8   11.05    4.16
  -2  -3   8    9.67    3.16
   1   3  -8    5.59    3.50
  -1  -3   8    3.64    2.88
   0   3  -8   -0.74    3.26
   0  -3   8    3.22    2.65
  -1   3  -8    7.62    3.39
   1  -3   8    5.12    3.16
   1  -3   8    7.59    2.76
   2  -3   8   27.96    3.74
   2  -3   8   27.35    3.85
   3  -3   8    5.48    2.93
   4  -3   8   13.65    3.09
  -5   3  -8    3.12    5.71
   5  -3   8    1.88    2.66
  -6   3  -8   -4.38    6.46
  -7   3  -8    1.01    8.88
   6   2  -8    0.68    5.19
   5   2  -8   -7.25    4.43
   4   2  -8    2.67    4.44
   3   2  -8   48.35    5.70
  -3  -2   8   61.17    5.25
   2   2  -8   65.48    5.67
  -2  -2   8   82.37    5.66
   1   2  -8   16.70    3.73
  -1  -2   8   31.91    3.64
   0   2  -8   38.25    4.16
   0  -2   8   33.99    3.96
   0  -2   8   41.91    3.91
  -1   2  -8   52.42    4.49
   1  -2   8   49.93    4.22
   1  -2   8   54.51    4.67
   2  -2   8   33.50    3.98
   2  -2   8   32.25    3.45
   3  -2   8    3.04    2.88
   3  -2   8    2.80    2.38
   4  -2   8   10.31    2.75
  -5   2  -8    8.54    5.62
  -6   2  -8   -6.93    6.07
  -7   2  -8   -0.81    8.91
   6   1  -8    1.57    5.04
   5   1  -8    9.20    4.88
   4   1  -8   11.26    4.50
   3   1  -8    2.14    3.64
  -3  -1   8   -2.62    2.93
   2   1  -8   11.61    3.63
  -2  -1   8   14.69    3.39
   1   1  -8   16.04    3.53
  -1  -1   8   28.24    3.53
   0   1  -8    8.55    2.92
   0  -1   8    8.90    2.76
   0  -1   8   10.94    2.57
  -1   1  -8   15.85    3.03
   1  -1   8   17.94    2.83
   1  -1   8   15.44    3.13
  -2   1  -8   15.60    2.19
   2  -1   8   24.79    3.12
   2  -1   8   31.36    3.52
   3  -1   8   13.82    2.77
   3  -1   8   21.33    3.29
   4  -1   8   10.97    2.75
   4  -1   8   13.49    3.14
  -5   1  -8    1.47    5.22
  -6   1  -8    5.04    6.63
  -7   1  -8    7.55    9.53
   6   0  -8    8.74    5.43
   5   0  -8    0.84    4.32
   4   0  -8   28.56    4.89
   3   0  -8    4.28    3.62
   3   0  -8    1.09    3.22
  -3   0   8   -0.06    3.03
   2   0  -8   66.29    4.94
   2   0  -8   63.44    5.20
  -2   0   8   69.74    5.09
   1   0  -8   29.18    3.82
   1   0  -8   28.73    3.58
  -1   0   8   43.34    3.98
   0   0  -8   43.18    4.07
   0   0   8   56.37    4.66
   0   0   8   59.45    4.33
  -1   0  -8  147.00    7.24
   1   0   8  161.83    7.89
   1   0   8  162.85    8.45
  -2   0  -8   38.74    2.92
   2   0   8   54.21    4.50
   2   0   8   52.17    4.02
   3   0   8   12.13    2.98
   3   0   8   11.76    2.64
   4   0   8   25.92    3.49
   4   0   8   19.55    3.22
  -5   0  -8    9.35    5.98
  -6   0  -8    3.88    6.62
  -7   0  -8    7.36    8.93
   6  -1  -8   -0.93    4.75
   5  -1  -8    5.61    4.38
   4  -1  -8   41.15    5.19
   3  -1  -8   32.90    4.75
   3  -1  -8   50.26    4.66
  -3   1   8   54.19    4.74
   2  -1  -8   48.55    4.22
   2  -1  -8   43.94    4.64
  -2   1   8   71.38    5.43
   1  -1  -8   22.57    3.24
   1  -1  -8   27.60    3.63
   0  -1  -8  105.28    5.88
   0  -1  -8   98.48    5.91
   0   1   8  111.30    6.76
   0   1   8  136.85    6.82
  -1  -1  -8   46.12    3.85
   1   1   8   57.99    4.81
   1   1   8   71.40    4.58
  -2  -1  -8    0.84    0.92
   2   1   8  118.42    6.41
   2   1   8  127.26    6.77
   3   1   8   19.53    3.34
   3   1   8   23.12    3.06
  -4  -1  -8   31.28    6.12
   4   1   8   31.81    3.81
  -5  -1  -8   16.01    6.33
   5   1   8   16.05    3.14
  -6  -1  -8    9.03    7.34
  -7  -1  -8   -0.39    8.47
   6  -2  -8   -2.51    4.17
   5  -2  -8    6.81    3.94
   4  -2  -8   18.97    4.26
   3  -2  -8   32.07    4.39
   3  -2  -8   31.57    4.22
  -3   2   8    0.54    1.33
   2  -2  -8   50.06    4.56
   2  -2  -8   50.53    4.81
  -2   2   8   52.94    4.75
   1  -2  -8   38.76    4.11
   1  -2  -8   43.14    4.15
  -1   2   8   45.60    4.45
   0  -2  -8   68.65    4.95
   0  -2  -8   70.36    4.84
   0   2   8   77.15    5.41
   0   2   8   76.95    5.35
  -1  -2  -8   77.98    4.95
   1   2   8   89.29    5.54
   1   2   8   75.97    5.43
  -2  -2  -8   47.27    3.60
   2   2   8   48.17    4.33
   2   2   8   47.14    4.36
   3   2   8   53.10    4.56
   3   2   8   55.64    4.80
  -4  -2  -8   10.32    4.82
   4   2   8    6.61    3.28
   4   2   8   10.54    3.06
  -5  -2  -8   13.62    6.42
   5   2   8    7.51    3.18
  -6  -2  -8    4.02    7.36
   6   2   8    0.37    3.29
   7   2   8    2.13    3.95
   6  -3  -8    0.64    4.22
   5  -3  -8   11.72    4.31
   4  -3  -8    7.12    3.71
   3  -3  -8   60.26    5.11
   3  -3  -8   62.78    5.54
  -3   3   8   50.35    3.96
   2  -3  -8   46.09    4.41
   2  -3  -8   50.08    4.90
  -2   3   8   45.01    4.36
   1  -3  -8   65.01    5.08
   1  -3  -8   70.67    4.91
  -1   3   8   83.96    5.74
   0  -3  -8    9.03    2.68
   0  -3  -8    3.56    2.78
   0   3   8   -1.77    2.69
  -1  -3  -8   75.06    5.08
   1   3   8   68.51    4.97
   1   3   8   51.47    4.78
  -2  -3  -8   67.83    4.59
   2   3   8   74.82    5.42
   2   3   8   74.60    5.39
  -3  -3  -8   23.60    2.54
   3   3   8   46.46    4.54
   3   3   8   35.21    4.25
  -4  -3  -8   11.15    5.10
   4   3   8   11.33    3.62
   4   3   8    6.91    3.23
  -5  -3  -8   12.00    6.45
   5   3   8   17.61    3.68
  -6  -3  -8   -2.25    7.38
   6   3   8    5.56    3.75
   7   3   8   -5.75    4.01
   6  -4  -8    8.35    4.66
   5  -4  -8    4.70    4.14
   4  -4  -8   11.32    4.01
   3  -4  -8   -2.20    3.35
   2  -4  -8   42.25    4.82
   2  -4  -8   49.04    4.76
  -2   4   8   32.70    3.83
   1  -4  -8   17.42    3.53
   1  -4  -8   13.45    3.48
  -1   4   8   17.76    3.60
   0  -4  -8   23.31    3.72
   0   4   8   16.36    3.68
  -1  -4  -8  127.49    7.19
   1   4   8  130.57    7.59
  -2  -4  -8   40.45    4.05
   2   4   8   51.16    4.74
   2   4   8   51.60    4.99
  -3  -4  -8   32.07    5.37
  -3  -4  -8   19.10    2.81
   3   4   8   17.27    3.79
   3   4   8   20.55    3.99
  -4  -4  -8   33.33    6.61
   4   4   8   21.17    3.92
  -5  -4  -8   34.96    8.52
   5   4   8   24.30    4.30
   6   4   8    0.98    3.78
   7   4   8    3.89    4.25
   5  -5  -8   -4.43    4.02
   4  -5  -8   42.15    5.39
   3  -5  -8    5.15    3.69
   2  -5  -8   13.86    4.07
   2  -5  -8   13.48    3.85
  -2   5   8    6.54    2.73
   1  -5  -8   89.24    6.55
  -1   5   8   75.62    5.61
   0  -5  -8   28.17    4.27
   0   5   8   37.40    4.61
  -1  -5  -8   30.29    4.10
   1   5   8   31.74    4.57
  -2  -5  -8   35.96    4.20
  -2  -5  -8   31.98    4.00
   2   5   8   40.18    4.90
  -3  -5  -8   10.45    4.33
  -3  -5  -8    4.23    2.57
   3   5   8    7.78    3.74
   3   5   8    9.16    4.04
  -4  -5  -8   16.97    6.42
   4   5   8   16.79    4.12
   5   5   8    3.15    3.57
   6   5   8    1.42    3.82
   5  -6  -8    6.19    4.80
   4  -6  -8    4.73    4.30
   3  -6  -8    0.80    3.87
   2  -6  -8   34.00    5.15
   1  -6  -8   -1.94    3.50
  -1   6   8    0.66    3.01
   0  -6  -8    4.05    3.60
   0   6   8    1.16    3.54
  -1  -6  -8   16.15    4.07
   1   6   8   10.15    4.01
  -2  -6  -8   82.46    6.32
   2   6   8   74.74    6.26
  -3  -6  -8   17.60    3.35
   3   6   8    6.22    3.79
   4   6   8    2.61    3.76
   5   6   8    3.24    3.90
   6   6   8    2.01    4.16
   4  -7  -8    0.52    4.69
   3  -7  -8   33.93    5.70
   2  -7  -8   11.48    4.60
   1  -7  -8   20.99    4.67
  -1   7   8   20.42    3.94
   0  -7  -8   54.36    5.98
   0   7   8   41.71    5.14
  -1  -7  -8   51.20    5.95
   1   7   8   36.16    5.11
  -2  -7  -8   31.11    4.87
   2   7   8   22.06    4.43
  -3  -7  -8   -0.42    3.01
   3   7   8    2.91    3.74
   4   7   8    3.18    3.96
   5   7   8    1.36    4.09
   6   7   8    3.66    4.43
   4  -8  -8    0.58    4.87
   3  -8  -8    3.79    4.83
   2  -8  -8    4.70    4.53
   1  -8  -8   72.38    7.17
   0  -8  -8    0.99    4.06
   0   8   8   -3.73    3.63
  -1  -8  -8    8.25    4.40
   1   8   8    2.71    4.14
  -2  -8  -8   23.93    5.00
   2   8   8   17.39    4.79
   3   8   8   20.57    4.90
   4   8   8    2.80    4.25
   5   8   8   -1.09    4.38
   3  -9  -8    7.16    5.46
   2  -9  -8   45.45    6.98
   1  -9  -8   10.57    5.33
   0  -9  -8    6.56    5.03
  -1  -9  -8   20.15    5.67
   1   9   8    6.26    4.73
  -2  -9  -8   10.51    4.80
   2   9   8   12.27    5.12
   3   9   8    0.46    4.68
   4   9   8    0.35    4.78
   5   9   8   -0.45    4.90
   2 -10  -8    3.04    5.76
   1 -10  -8    2.39    5.67
   0 -10  -8    3.63    5.76
  -1 -10  -8   14.00    5.76
  -2 -10  -8   -0.98    5.13
   2  10   8   -0.38    5.01
   3  10   8    5.18    5.31
   4  10   8    5.72    5.46
   1 -11  -8   17.77    6.99
   0 -11  -8    3.13    6.18
  -1 -11  -8    0.00    5.76
   3  11   8    4.69    6.47
   4  11   8   -6.68    6.08
  -1  -9   9   -5.84    5.20
  -1  -8   9    5.85    5.14
   0  -8   9   -0.11    4.87
   1  -8   9   -0.39    5.00
  -4   8  -9   -3.15    7.93
   4   7  -9   -0.93    6.07
   3   7  -9   -2.91    5.66
  -2  -7   9    0.14    4.64
  -1  -7   9   -1.54    4.15
   0  -7   9    5.81    4.58
   1  -7   9    3.31    4.35
   2  -7   9   11.27    5.03
   3  -7   9   11.15    5.07
  -4   7  -9   -2.47    7.37
  -5   7  -9    3.78    9.29
   4   6  -9    4.69    5.67
   3   6  -9   -0.08    5.04
   2   6  -9   -2.09    4.76
  -2  -6   9    2.64    4.19
   1   6  -9    2.84    4.53
  -1  -6   9   -4.38    3.27
   0  -6   9    7.97    3.85
   1  -6   9    3.85    4.02
   2  -6   9    1.33    3.95
   3  -6   9   -0.87    3.94
   4  -6   9    2.16    4.17
  -5   6  -9   -1.03    7.43
  -6   6  -9    1.08    9.33
   5   5  -9   -5.87    5.49
   4   5  -9    1.81    5.12
   3   5  -9   -1.78    4.55
   2   5  -9    1.17    4.57
  -2  -5   9    5.32    3.71
   1   5  -9    3.91    4.07
  -1  -5   9    4.71    3.57
   0   5  -9    2.21    4.21
   0  -5   9    0.92    3.02
   1  -5   9   22.53    4.32
   2  -5   9    4.48    3.71
   3  -5   9   20.81    4.41
   4  -5   9    5.16    3.75
  -5   5  -9    1.24    6.57
   5  -5   9    2.87    3.68
  -6   5  -9    2.27    8.39
   5   4  -9   -1.49    5.54
   4   4  -9    1.38    4.80
   3   4  -9    9.32    4.68
  -3  -4   9    9.75    3.77
   2   4  -9    3.56    4.02
  -2  -4   9    5.33    3.15
   1   4  -9   12.98    4.19
  -1  -4   9   14.00    3.73
   0   4  -9   12.79    4.25
   0  -4   9   13.83    3.64
  -1   4  -9   13.81    3.93
   1  -4   9    9.05    3.20
   2  -4   9    5.45    3.10
   3  -4   9    4.75    3.35
   4  -4   9   11.67    3.47
  -5   4  -9   -0.51    5.80
   5  -4   9    0.26    3.17
  -6   4  -9   -3.66    6.92
  -7   4  -9    4.17    9.53
   5   3  -9    5.18    5.55
   4   3  -9    8.47    4.96
   3   3  -9   14.06    4.77
  -3  -3   9   30.65    4.46
   2   3  -9   24.82    4.54
  -2  -3   9   32.47    4.26
   1   3  -9   -3.08    3.45
  -1  -3   9    2.54    2.85
   0   3  -9   25.05    4.19
   0  -3   9   23.49    3.93
  -1   3  -9   21.09    3.98
   1  -3   9   21.37    3.66
   1  -3   9   19.07    3.89
   2  -3   9    5.10    3.40
   2  -3   9    6.99    2.94
   3  -3   9    1.93    2.72
   4  -3   9    2.08    2.72
  -5   3  -9   -3.34    4.90
   5  -3   9    4.10    3.31
  -6   3  -9    5.50    7.38
  -7   3  -9   -0.15    8.62
   5   2  -9   10.34    5.41
   4   2  -9   21.07    5.18
   3   2  -9    2.75    4.00
  -3  -2   9    5.11    3.32
   2   2  -9   13.31    4.07
  -2  -2   9    9.09    3.32
   1   2  -9   31.97    4.57
  -1  -2   9   39.25    4.19
   0   2  -9   42.34    4.70
   0  -2   9   49.74    4.36
  -1   2  -9   25.84    3.81
   1  -2   9   25.09    3.88
   1  -2   9   22.35    3.43
  -2   2  -9    9.53    2.51
   2  -2   9   13.92    3.55
   2  -2   9   10.46    3.08
   3  -2   9   14.15    3.30
   4  -2   9   31.59    3.79
  -5   2  -9    2.75    5.19
   5  -2   9    3.80    2.89
  -6   2  -9    0.27    6.61
  -7   2  -9   -2.57    8.52
   6   1  -9   -7.96    5.15
   5   1  -9    0.41    4.86
   4   1  -9    5.94    4.46
   3   1  -9   18.41    4.63
  -3  -1   9   39.36    4.69
   2   1  -9   41.36    5.04
  -2  -1   9   48.59    4.86
   1   1  -9   27.32    4.11
  -1  -1   9   30.20    3.77
   0   1  -9   77.36    5.49
   0  -1   9   74.77    5.18
  -1   1  -9    0.46    2.87
   1  -1   9    7.51    2.65
   1  -1   9    5.00    3.05
  -2   1  -9   15.02    2.50
   2  -1   9   22.37    3.80
   2  -1   9   21.78    3.26
   3  -1   9   21.86    3.38
   3  -1   9   24.65    3.89
   4  -1   9    8.63    2.89
  -5   1  -9    0.03    4.84
   5  -1   9    4.62    2.94
  -6   1  -9   -4.26    5.80
  -7   1  -9   -0.23    8.59
   6   0  -9    0.03    4.79
   5   0  -9   -1.67    4.45
   4   0  -9   13.14    4.69
   3   0  -9  166.88    9.53
  -3   0   9  236.90   11.75
   2   0  -9    5.92    3.57
  -2   0   9    7.69    3.31
   1   0  -9   60.08    5.15
  -1   0   9   54.66    4.68
   0   0  -9   98.81    6.14
   0   0   9   92.50    6.01
   0   0   9   87.82    5.60
  -1   0  -9   50.77    4.27
   1   0   9   69.00    5.25
   1   0   9   64.84    4.68
  -2   0  -9   -0.35    0.92
   2   0   9    9.35    3.22
   2   0   9    9.09    2.71
   3   0   9    9.28    2.85
   3   0   9   10.33    3.22
   4   0   9    0.60    2.65
  -5   0  -9    1.74    5.37
   5   0   9   16.75    3.24
  -6   0  -9    2.93    6.36
  -7   0  -9    3.67    8.85
   6  -1  -9   -4.37    4.47
   5  -1  -9    8.72    4.70
   4  -1  -9   14.01    4.36
   3  -1  -9   26.84    4.77
   3  -1  -9   25.96    4.30
  -3   1   9   31.80    4.40
   2  -1  -9    1.63    3.11
   2  -1  -9    3.94    3.33
  -2   1   9   -1.82    3.16
   1  -1  -9   25.14    3.93
   0  -1  -9   22.93    3.56
   0   1   9   23.91    3.27
   0   1   9    8.78    2.93
  -1  -1  -9   61.27    4.60
   1   1   9   73.19    5.25
   1   1   9   66.84    4.80
  -2  -1  -9   -1.24    1.93
   2   1   9    1.59    2.73
   2   1   9   -0.09    2.28
   3   1   9   20.99    3.47
   3   1   9   30.71    3.93
   4   1   9   42.35    4.11
  -5  -1  -9   -1.03    5.06
   5   1   9    1.73    2.88
  -6  -1  -9    2.25    6.82
  -7  -1  -9    7.27    9.51
   6  -2  -9    9.63    4.85
   5  -2  -9    0.32    3.96
   4  -2  -9    9.73    4.18
   3  -2  -9   13.62    4.05
   3  -2  -9   19.27    3.95
  -3   2   9   10.34    3.02
   2  -2  -9   45.80    4.99
   2  -2  -9   54.60    4.85
  -2   2   9   65.29    5.50
   1  -2  -9   11.75    3.48
  -1   2   9   10.66    3.47
   0  -2  -9    0.99    2.94
   0   2   9    9.28    3.24
  -1  -2  -9   50.44    4.37
   1   2   9   50.30    4.64
   1   2   9   51.95    4.63
  -2  -2  -9   35.58    3.41
   2   2   9   54.50    4.80
   2   2   9   48.01    4.63
   3   2   9    1.49    3.07
   3   2   9    4.70    3.09
  -4  -2  -9    9.99    4.81
   4   2   9    6.00    3.15
  -5  -2  -9   -0.32    5.10
   5   2   9    6.05    3.09
  -6  -2  -9   -4.74    6.48
   6   2   9   -3.31    3.39
  -7  -2  -9   -2.56    8.72
   7   2   9    0.46    4.31
   6  -3  -9    6.77    4.89
   5  -3  -9    1.40    4.13
   4  -3  -9   10.80    4.18
   3  -3  -9   20.72    4.35
   2  -3  -9   20.67    3.76
   2  -3  -9   15.67    3.93
  -2   3   9   20.07    3.61
   1  -3  -9   11.50    3.55
  -1   3   9   21.16    3.94
   0  -3  -9  142.47    7.83
   0   3   9  145.30    8.20
  -1  -3  -9  127.78    7.17
   1   3   9  129.55    7.37
   1   3   9  124.89    7.53
  -2  -3  -9    4.44    2.41
   2   3   9    7.30    3.34
   2   3   9   15.19    3.48
  -3  -3  -9    4.25    1.96
   3   3   9    0.66    2.97
   3   3   9    5.50    3.31
  -4  -3  -9   38.62    6.85
   4   3   9   40.77    4.63
  -5  -3  -9   13.74    6.63
   5   3   9   15.17    3.76
  -6  -3  -9   -1.11    7.06
   6   3   9   -2.15    3.53
   7   3   9    1.52    4.19
   5  -4  -9    7.38    4.42
   4  -4  -9    8.25    4.27
   3  -4  -9   11.85    4.00
   2  -4  -9   22.09    4.39
  -2   4   9   20.23    3.75
   1  -4  -9   14.37    3.80
  -1   4   9   10.78    3.57
   0  -4  -9   13.85    3.62
   0   4   9   19.24    3.90
  -1  -4  -9   18.68    3.58
   1   4   9   22.70    4.02
  -2  -4  -9   22.16    3.48
   2   4   9   21.90    3.96
   2   4   9   23.62    4.05
  -3  -4  -9   31.50    5.23
  -3  -4  -9   25.93    3.18
   3   4   9   23.76    4.33
   3   4   9   25.17    4.11
  -4  -4  -9    8.41    5.06
   4   4   9   -3.43    3.08
  -5  -4  -9    1.76    6.33
   5   4   9    4.29    3.71
  -6  -4  -9   -3.70    8.06
   6   4   9   -1.19    4.03
   7   4   9    9.26    4.49
   5  -5  -9    8.79    4.70
   4  -5  -9   12.66    4.58
   3  -5  -9   32.26    5.00
   2  -5  -9   17.67    4.24
  -2   5   9   21.30    3.46
   1  -5  -9    7.32    3.79
  -1   5   9   20.60    4.04
   0  -5  -9   92.38    6.78
   0   5   9   73.00    6.11
  -1  -5  -9  128.08    7.78
   1   5   9  117.14    7.59
  -2  -5  -9    7.93    3.13
   2   5   9   10.23    3.91
  -3  -5  -9    6.22    4.09
  -3  -5  -9    5.57    2.68
   3   5   9    3.47    3.60
  -4  -5  -9   23.56    6.33
   4   5   9   17.78    4.17
  -5  -5  -9   31.78    8.68
   5   5   9   23.89    4.69
   6   5   9    3.82    3.94
   5  -6  -9    0.97    4.61
   4  -6  -9    9.77    4.72
   3  -6  -9   32.76    5.30
   2  -6  -9   46.03    5.67
   1  -6  -9   17.24    4.29
  -1   6   9   12.41    3.64
   0  -6  -9   58.39    5.81
   0   6   9   39.87    5.15
  -1  -6  -9   54.11    5.54
   1   6   9   50.72    5.70
  -2  -6  -9   22.49    4.12
   2   6   9   12.69    4.44
  -3  -6  -9    2.66    2.81
  -3  -6  -9    1.76    4.34
   3   6   9   -1.36    3.84
   4   6   9    8.91    4.00
   5   6   9    8.07    4.08
   6   6   9   -2.32    3.96
   4  -7  -9    9.83    5.17
   3  -7  -9   22.56    5.48
   2  -7  -9   25.74    5.10
   1  -7  -9   47.92    5.84
  -1   7   9   36.78    4.58
   0  -7  -9    0.05    3.40
   0   7   9    4.41    3.70
  -1  -7  -9   10.59    4.09
   1   7   9    4.35    3.99
  -2  -7  -9   20.75    4.43
   2   7   9   13.15    4.14
  -3  -7  -9    9.25    3.46
   3   7   9    3.69    3.89
   4   7   9   10.52    4.26
   5   7   9    4.62    4.18
   6   7   9   -1.49    4.21
   4  -8  -9    5.47    5.21
   3  -8  -9   18.32    5.53
   2  -8  -9   22.50    5.38
   1  -8  -9    5.08    4.21
   0  -8  -9    5.90    4.45
   0   8   9    2.51    3.98
  -1  -8  -9   35.79    5.77
   1   8   9   18.87    4.83
  -2  -8  -9   10.54    4.45
   2   8   9    6.08    4.53
   3   8   9    2.61    4.21
   4   8   9    5.71    4.42
   5   8   9    5.28    4.66
   3  -9  -9    8.09    5.60
   2  -9  -9   15.80    5.54
   1  -9  -9   -1.85    4.91
   0  -9  -9    9.64    5.15
  -1  -9  -9   25.49    5.86
   1   9   9   13.00    5.15
  -2  -9  -9   19.31    5.33
   2   9   9    2.61    4.82
   3   9   9    7.99    4.94
   4   9   9    0.63    4.91
   5   9   9    9.72    5.46
   2 -10  -9    9.08    5.93
   1 -10  -9    8.80    5.98
   0 -10  -9   -4.02    5.24
  -1 -10  -9   13.50    6.12
   2  10   9   -0.06    5.18
   3  10   9    1.80    5.27
   4  10   9   -4.92    5.33
   1 -11  -9   -1.18    6.21
   0 -11  -9    9.88    7.04
  -1 -11  -9    6.55    6.20
   3  11   9  -10.90    5.68
   4  11   9    0.24    6.27
  -1  -8  10    0.88    5.05
   0  -8  10    1.05    5.04
  -4   8 -10   -1.50    8.96
   4   7 -10    3.17    7.05
  -2  -7  10   -2.38    4.63
  -1  -7  10    1.76    4.80
   0  -7  10   -1.70    4.26
   1  -7  10   -0.32    4.33
   2  -7  10   -0.65    4.58
  -5   7 -10   -5.14    9.21
   4   6 -10    5.21    6.47
   3   6 -10    1.22    5.71
   2   6 -10   -0.64    4.77
  -2  -6  10   -0.53    4.02
  -1  -6  10    9.28    4.57
   0  -6  10    0.95    3.91
   1  -6  10   -1.14    3.68
   2  -6  10    6.04    4.37
   3  -6  10    2.50    4.54
  -5   6 -10   -3.15    7.63
  -6   6 -10   -0.72    9.49
   4   5 -10    7.90    5.82
   3   5 -10   -3.85    4.81
   2   5 -10   14.55    5.14
  -2  -5  10   13.66    4.07
   1   5 -10    3.36    4.55
  -1  -5  10    7.54    4.00
   0  -5  10    3.29    3.60
   1  -5  10    1.33    3.38
   2  -5  10    7.09    3.77
   3  -5  10    7.26    3.88
   4  -5  10    3.68    3.89
  -5   5 -10    1.01    7.09
  -6   5 -10    4.25    8.78
   5   4 -10   -2.53    5.84
   4   4 -10    6.77    5.40
   3   4 -10   -4.09    4.25
   2   4 -10    1.13    4.26
  -2  -4  10    8.03    3.53
   1   4 -10    1.26    3.95
  -1  -4  10    1.42    3.03
   0   4 -10    8.53    4.01
   0  -4  10    9.01    3.66
   1  -4  10    7.91    3.47
   2  -4  10    4.66    3.23
   3  -4  10   -1.35    3.18
   4  -4  10   -0.74    3.30
  -5   4 -10   -0.28    5.95
   5  -4  10    3.89    4.10
  -6   4 -10    8.26    8.29
   5   3 -10    7.86    5.91
   4   3 -10    3.10    4.93
   3   3 -10    0.60    4.13
  -3  -3  10    7.71    3.74
   2   3 -10   24.08    4.72
  -2  -3  10   21.85    3.90
   1   3 -10   27.55    4.86
  -1  -3  10   39.79    4.64
   0   3 -10   22.46    4.57
   0  -3  10   20.81    3.86
  -1   3 -10   10.14    3.85
   1  -3  10    7.68    3.35
   2  -3  10   17.12    3.72
   3  -3  10   23.03    4.00
   4  -3  10    4.29    3.43
  -5   3 -10    6.90    6.01
   5  -3  10   -2.82    3.19
  -6   3 -10   -2.30    6.73
  -7   3 -10   -2.63    8.35
   5   2 -10   -0.77    5.28
   4   2 -10   10.33    4.92
   3   2 -10   -0.13    4.08
  -3  -2  10    9.99    3.90
   2   2 -10   12.07    4.20
  -2  -2  10   19.36    3.96
   1   2 -10   13.43    4.07
  -1  -2  10   10.19    3.36
   0   2 -10    7.09    3.77
   0  -2  10   14.47    3.50
  -1   2 -10    3.61    3.40
   1  -2  10    5.27    2.98
   1  -2  10    3.71    3.39
  -2   2 -10    7.49    2.71
   2  -2  10   10.21    3.18
   2  -2  10    7.55    3.79
   3  -2  10   19.91    3.53
   4  -2  10   -1.29    2.89
  -5   2 -10    2.08    5.17
   5  -2  10    6.69    3.44
  -6   2 -10   12.89    7.50
  -7   2 -10   -6.86    7.78
   5   1 -10    2.46    4.98
   4   1 -10    4.17    4.68
   3   1 -10   16.02    4.53
  -3  -1  10   28.22    4.43
   2   1 -10    9.64    4.00
  -2  -1  10   30.21    4.35
   1   1 -10   20.55    4.39
  -1  -1  10   23.21    3.80
   0   1 -10   44.96    5.02
   0  -1  10   57.30    4.79
  -1   1 -10   38.63    4.40
   1  -1  10   54.25    5.22
   1  -1  10   46.15    4.42
  -2   1 -10    5.67    1.74
   2  -1  10   14.91    3.93
   2  -1  10   14.20    3.23
   3  -1  10    8.96    3.14
   4  -1  10   14.17    3.43
  -5   1 -10    6.69    5.40
   5  -1  10   -0.44    3.11
  -6   1 -10   -8.79    5.70
  -7   1 -10    0.54    8.19
   5   0 -10    0.25    4.78
   4   0 -10    6.77    4.41
   3   0 -10   13.41    4.30
  -3   0  10   28.22    4.57
   2   0 -10    2.93    3.79
  -2   0  10    7.72    3.44
   1   0 -10   41.15    4.73
  -1   0  10   40.98    4.58
   0   0 -10   56.55    5.13
   0   0  10   80.90    5.59
  -1   0 -10    9.00    3.24
   1   0  10   18.04    3.26
   1   0  10   19.44    3.78
  -2   0 -10    2.27    1.52
   2   0  10   22.08    3.96
   2   0  10   23.02    3.46
   3   0  10   71.58    5.39
   3   0  10   74.44    5.99
   4   0  10   27.55    3.90
  -5   0 -10    2.06    5.29
   5   0  10    1.45    3.06
  -6   0 -10   10.01    7.12
  -7   0 -10    8.00    8.84
   5  -1 -10    2.41    4.88
   4  -1 -10    5.64    4.57
   3  -1 -10    9.03    4.27
  -3   1  10   35.32    4.77
   2  -1 -10    8.23    3.88
  -2   1  10   19.94    4.10
   1  -1 -10   50.59    5.05
   0  -1 -10  151.08    8.21
   0   1  10  166.33    8.60
  -1  -1 -10   17.96    3.45
   1   1  10   11.13    3.48
   1   1  10   14.38    3.18
  -2  -1 -10   18.85    2.93
   2   1  10   22.29    3.89
   2   1  10   14.42    3.28
   3   1  10   19.76    3.57
   3   1  10   23.58    4.11
   4   1  10    1.92    3.06
  -5  -1 -10   -2.55    4.68
   5   1  10    7.79    3.37
  -6  -1 -10    1.58    6.34
   6   1  10    6.23    3.78
  -7  -1 -10   -3.05    8.17
   5  -2 -10   -0.15    4.38
   4  -2 -10   20.46    5.01
   3  -2 -10   42.86    5.53
   2  -2 -10   11.60    3.94
  -2   2  10   17.51    4.00
   1  -2 -10   16.66    3.87
  -1   2  10   14.88    4.01
   0  -2 -10   35.63    4.37
   0   2  10   36.51    4.57
  -1  -2 -10  115.95    6.82
   1   2  10  161.03    8.63
   1   2  10  151.52    8.56
  -2  -2 -10    5.17    2.61
   2   2  10   15.42    3.70
   2   2  10   15.45    3.67
   3   2  10   82.94    6.13
   3   2  10   71.96    5.82
   4   2  10   23.19    4.05
  -5  -2 -10    1.53    5.57
   5   2  10    9.25    3.59
  -6  -2 -10    8.64    7.26
   6   2  10    1.16    3.70
  -7  -2 -10    0.33    9.17
   7   2  10    3.20    4.51
   5  -3 -10    4.86    4.53
   4  -3 -10   10.32    4.44
   3  -3 -10    7.43    3.95
   2  -3 -10    9.84    3.91
  -2   3  10   15.28    3.73
   1  -3 -10   53.26    5.20
  -1   3  10   64.61    5.91
   0  -3 -10  136.77    7.81
   0   3  10  171.11    9.42
  -1  -3 -10    0.56    2.87
   1   3  10   10.45    3.54
  -2  -3 -10   44.16    4.14
   2   3  10   38.68    4.65
   2   3  10   36.57    4.61
  -3  -3 -10   29.50    2.83
   3   3  10   36.11    4.69
   3   3  10   44.44    4.99
  -4  -3 -10   13.31    5.08
   4   3  10   16.96    3.83
  -5  -3 -10   -1.18    5.41
   5   3  10    0.62    3.45
  -6  -3 -10   14.72    7.86
   6   3  10   15.61    4.20
  -7  -3 -10   -7.12    9.02
   7   3  10   -2.58    4.44
   5  -4 -10    0.65    4.51
   4  -4 -10   10.76    4.42
   3  -4 -10   74.42    6.40
   2  -4 -10   16.17    4.21
  -2   4  10   21.74    3.98
   1  -4 -10   33.40    4.74
  -1   4  10   29.68    4.54
   0  -4 -10   56.89    5.36
   0   4  10   51.61    5.39
  -1  -4 -10   44.68    4.86
   1   4  10   47.12    5.33
  -2  -4 -10   75.31    5.32
   2   4  10   85.99    6.47
  -3  -4 -10   17.90    2.97
   3   4  10   15.63    4.02
   3   4  10   15.08    4.32
  -4  -4 -10   25.17    6.20
   4   4  10   24.14    4.34
  -5  -4 -10   10.41    6.46
   5   4  10    7.55    3.82
  -6  -4 -10    6.36    8.04
   6   4  10    0.98    4.23
   5  -5 -10    2.48    4.76
   4  -5 -10   18.40    5.10
   3  -5 -10   31.87    5.26
   2  -5 -10    8.94    4.10
  -2   5  10   12.02    3.49
   1  -5 -10   26.44    4.71
  -1   5  10   29.20    4.64
   0  -5 -10   49.74    5.44
   0   5  10   48.76    5.60
  -1  -5 -10   35.28    4.82
   1   5  10   47.24    5.43
  -2  -5 -10   17.89    3.62
   2   5  10   10.65    4.02
  -3  -5 -10   36.81    5.04
  -3  -5 -10   31.76    3.88
   3   5  10   29.17    4.73
  -4  -5 -10   40.38    7.49
   4   5  10   30.86    4.93
  -5  -5 -10    6.85    6.94
   5   5  10    4.46    3.80
   6   5  10    4.72    4.31
   4  -6 -10   21.84    5.50
   3  -6 -10   -1.51    4.18
   2  -6 -10   15.25    4.37
   1  -6 -10   22.22    4.75
  -1   6  10   26.08    4.42
   0  -6 -10   76.17    6.48
   0   6  10   69.34    6.38
  -1  -6 -10   24.79    4.35
   1   6  10   19.37    4.66
  -2  -6 -10   20.65    4.12
   2   6  10   14.75    4.42
  -3  -6 -10   83.96    7.60
  -3  -6 -10   79.64    5.97
   3   6  10   82.12    6.84
  -4  -6 -10    7.12    5.99
   4   6  10    7.48    4.27
   5   6  10   -1.83    3.83
   6   6  10    2.16    4.16
   4  -7 -10    8.73    5.27
   3  -7 -10   22.75    5.48
   2  -7 -10   19.99    5.10
   1  -7 -10    0.70    3.92
  -1   7  10   -0.65    3.39
   0  -7 -10   80.92    6.94
   0   7  10   59.75    5.89
  -1  -7 -10   69.02    6.83
   1   7  10   67.03    6.32
  -2  -7 -10    9.72    3.99
   2   7  10    4.82    4.19
   3   7  10   20.49    4.77
   4   7  10    4.08    4.20
   5   7  10   -3.30    3.94
   3  -8 -10   18.13    5.69
   2  -8 -10   10.71    5.12
   1  -8 -10   50.64    6.52
   0  -8 -10   63.82    7.15
   0   8  10   38.22    5.53
  -1  -8 -10   11.83    4.73
   1   8  10   -0.16    4.15
  -2  -8 -10    1.70    4.02
   2   8  10    5.00    4.45
   3   8  10    7.20    4.52
   4   8  10   17.56    5.00
   5   8  10    4.97    4.63
   3  -9 -10   14.17    6.10
   2  -9 -10    9.81    5.16
   1  -9 -10    2.96    5.16
   0  -9 -10    5.15    5.01
  -1  -9 -10    4.84    4.97
   1   9  10    9.01    4.89
  -2  -9 -10   -1.19    4.46
   2   9  10    4.62    4.92
   3   9  10   -1.37    4.55
   4   9  10   -5.11    4.59
   5   9  10    9.13    5.46
   2 -10 -10   15.30    6.61
   1 -10 -10    2.61    5.82
   0 -10 -10   22.00    6.56
  -1 -10 -10    9.07    6.08
   2  10  10   -5.30    5.19
   3  10  10   -3.63    5.27
   4  10  10    8.85    5.97
   0 -11 -10   -4.85    6.51
  -1 -11 -10   12.99    6.98
   3  11  10    2.62    6.41
  -1  -8  11   -6.01    5.68
  -4   8 -11   -1.79   10.28
  -1  -7  11   -8.05    4.83
   0  -7  11   14.54    5.36
   1  -7  11   -4.83    4.44
  -5   7 -11    4.20   10.13
   4   6 -11   -0.07    6.35
   3   6 -11   -2.35    5.50
  -2  -6  11    4.96    4.43
  -1  -6  11    9.58    4.80
   0  -6  11   -6.91    4.13
   1  -6  11    5.69    4.29
   2  -6  11    8.37    4.59
   3  -6  11    3.74    4.34
  -5   6 -11   -3.99    7.96
   4   5 -11    9.54    6.27
   3   5 -11   -3.98    5.02
   2   5 -11    9.65    5.34
  -2  -5  11   10.45    4.41
   1   5 -11    2.31    4.70
  -1  -5  11    0.97    3.60
   0  -5  11    1.76    3.95
   1  -5  11    3.00    4.02
   2  -5  11    2.36    3.86
   3  -5  11   -0.95    3.77
   4  -5  11    5.02    4.17
  -5   5 -11   -2.34    6.75
  -6   5 -11    4.21    8.80
   4   4 -11   -0.63    5.36
   3   4 -11    0.43    4.84
   2   4 -11    3.48    4.61
  -2  -4  11   11.50    3.97
   1   4 -11   10.79    4.74
  -1  -4  11   18.12    4.19
   0   4 -11   11.58    4.53
   0  -4  11   14.63    4.01
   1  -4  11    8.28    4.00
   2  -4  11   14.40    4.26
   3  -4  11   -2.97    3.55
   4  -4  11    0.56    3.83
  -5   4 -11   -2.14    6.30
   5  -4  11   -1.71    3.82
  -6   4 -11   -0.55    7.68
   5   3 -11   -3.90    5.66
   4   3 -11    2.66    5.15
   3   3 -11   -1.59    4.42
   2   3 -11   -3.29    4.08
  -2  -3  11    2.31    3.34
   1   3 -11   18.08    4.46
  -1  -3  11   28.74    4.39
   0   3 -11    0.73    3.79
   0  -3  11    1.41    3.12
   1  -3  11    2.16    3.18
   2  -3  11   20.43    3.99
   3  -3  11    4.54    3.47
   4  -3  11   -2.21    3.27
  -5   3 -11    4.82    6.03
   5  -3  11   14.42    4.14
  -6   3 -11   -0.69    7.10
  -7   3 -11    9.95    9.42
   5   2 -11   -3.69    5.45
   4   2 -11   -2.08    4.95
   3   2 -11    1.36    4.39
   2   2 -11   26.55    4.87
  -2  -2  11   31.04    4.49
   1   2 -11   26.14    4.92
  -1  -2  11   29.26    4.23
   0   2 -11    5.73    3.93
   0  -2  11   10.93    3.46
  -1   2 -11   42.25    4.90
   1  -2  11   47.42    4.97
   2  -2  11    0.46    3.01
   3  -2  11    1.20    3.08
   4  -2  11    0.33    3.38
  -5   2 -11    3.00    5.47
   5  -2  11    9.38    3.84
  -6   2 -11    2.85    7.08
   6  -2  11   -1.87    4.07
  -7   2 -11   -0.86    8.68
   5   1 -11   17.44    5.98
   4   1 -11    0.72    4.67
   3   1 -11   -6.43    3.78
   2   1 -11   48.02    5.55
  -2  -1  11   57.80    5.44
   1   1 -11   69.60    6.24
  -1  -1  11   58.77    5.23
   0   1 -11   -3.67    3.66
   0  -1  11    6.68    3.10
  -1   1 -11   42.25    4.77
   1  -1  11   28.44    4.09
  -2   1 -11    2.28    1.51
   2  -1  11    8.35    3.22
   2  -1  11    9.52    3.99
   3  -1  11   25.58    3.96
   4  -1  11    1.31    3.20
  -5   1 -11    1.42    5.05
   5  -1  11    6.89    3.74
  -6   1 -11    0.38    6.21
   6  -1  11    2.49    3.91
  -7   1 -11   -5.21    7.37
   5   0 -11    2.18    5.16
   4   0 -11   11.52    4.98
   3   0 -11   18.17    4.88
   2   0 -11   29.23    4.84
  -2   0  11   43.27    5.13
   1   0 -11    0.59    3.72
  -1   0  11    0.23    3.28
   0   0 -11   11.31    3.90
   0   0  11   26.11    4.05
  -1   0 -11    2.85    3.25
   1   0  11   18.45    3.59
  -2   0 -11   77.17    5.02
   2   0  11   85.68    6.16
   2   0  11   93.82    6.84
   3   0  11   19.85    3.82
   4   0  11    1.64    3.25
  -5   0 -11    6.57    5.49
   5   0  11   10.49    3.65
  -6   0 -11   -0.17    6.31
  -7   0 -11   -3.54    7.75
   5  -1 -11   11.69    5.34
   4  -1 -11   17.98    5.25
   3  -1 -11    4.13    3.97
   2  -1 -11    8.04    4.08
  -2   1  11   13.68    4.06
   1  -1 -11   68.03    5.96
   0  -1 -11   55.76    5.21
   0   1  11   62.58    5.25
  -1  -1 -11   17.01    3.81
   1   1  11   21.34    3.80
  -2  -1 -11   21.09    3.29
   2   1  11   22.39    4.36
   2   1  11   20.39    3.78
   3   1  11   27.06    4.07
   3   1  11   17.96    4.27
   4   1  11   19.35    3.79
  -5  -1 -11   -1.42    4.71
   5   1  11    4.27    3.61
  -6  -1 -11    1.46    6.33
   6   1  11   -4.30    3.63
  -7  -1 -11   -3.88    7.49
   5  -2 -11    8.37    5.25
   4  -2 -11   23.96    5.43
   3  -2 -11    3.29    3.96
   2  -2 -11   38.01    5.15
  -2   2  11   54.08    5.70
   1  -2 -11   57.71    5.55
  -1   2  11   68.82    6.28
   0  -2 -11    3.73    3.55
   0   2  11    7.76    3.68
  -1  -2 -11   12.17    3.53
   1   2  11   13.23    3.89
  -2  -2 -11   49.10    4.35
   2   2  11   66.57    6.02
  -3  -2 -11   24.24    2.73
   3   2  11   40.13    5.00
   3   2  11   34.58    4.65
   4   2  11   -6.86    2.92
  -5  -2 -11    3.34    5.72
   5   2  11   10.50    3.86
  -6  -2 -11    4.16    6.99
   6   2  11   17.14    4.43
  -7  -2 -11    0.74    8.96
   5  -3 -11    2.50    4.84
   4  -3 -11   21.41    5.18
   3  -3 -11   21.09    4.77
   2  -3 -11   20.44    4.54
  -2   3  11   16.35    4.14
   1  -3 -11   63.27    5.75
  -1   3  11   77.51    6.68
   0  -3 -11   23.20    4.41
   0   3  11   29.30    4.80
  -1  -3 -11  101.21    6.67
   1   3  11  108.79    7.40
  -2  -3 -11   62.29    4.86
   2   3  11   63.88    5.84
   2   3  11   48.84    5.43
  -3  -3 -11    0.35    1.21
   3   3  11    5.52    3.94
   3   3  11   13.05    3.77
  -4  -3 -11    6.87    4.91
   4   3  11    8.32    3.64
  -5  -3 -11    2.85    5.82
   5   3  11    8.51    3.82
  -6  -3 -11   10.10    7.62
   6   3  11    6.47    3.99
  -7  -3 -11    1.82    9.70
   5  -4 -11   18.20    5.41
   4  -4 -11   39.15    5.89
   3  -4 -11    9.30    4.30
   2  -4 -11   15.07    4.24
  -2   4  11   12.51    3.87
   1  -4 -11   47.54    5.45
  -1   4  11   56.41    5.76
   0  -4 -11   33.05    4.83
   0   4  11   47.48    5.68
  -1  -4 -11   16.14    4.01
   1   4  11   14.04    4.21
  -2  -4 -11   38.02    4.23
   2   4  11   24.75    4.69
  -3  -4 -11   28.66    3.45
   3   4  11   41.92    5.45
   3   4  11   37.46    5.06
  -4  -4 -11   10.91    5.19
   4   4  11    7.53    3.66
  -5  -4 -11   -3.69    5.46
   5   4  11   -4.85    3.54
  -6  -4 -11    1.76    7.56
   6   4  11    1.91    4.40
   5  -5 -11   11.05    5.26
   4  -5 -11    8.00    4.86
   3  -5 -11   15.14    4.95
   2  -5 -11   22.73    4.86
   1  -5 -11   61.29    6.25
  -1   5  11   62.56    6.09
   0  -5 -11  119.79    7.91
   0   5  11  138.89    8.82
  -1  -5 -11   37.43    4.93
   1   5  11   17.84    4.39
  -2  -5 -11  117.28    7.34
   2   5  11  102.62    7.33
   3   5  11    5.34    3.80
  -4  -5 -11   10.66    5.40
   4   5  11   20.05    4.48
  -5  -5 -11    5.97    6.32
   5   5  11    7.55    4.21
  -6  -5 -11   10.15    9.43
   6   5  11   -1.05    4.25
   4  -6 -11   22.50    5.58
   3  -6 -11    0.58    4.48
   2  -6 -11   10.19    4.42
   1  -6 -11   19.47    4.69
  -1   6  11    9.07    4.11
   0  -6 -11   64.53    6.33
   0   6  11   45.15    5.71
  -1  -6 -11   -3.09    3.49
   1   6  11    6.97    4.27
  -2  -6 -11    4.27    3.43
   2   6  11   -1.83    3.79
  -3  -6 -11   27.50    5.55
   3   6  11   19.66    4.66
  -4  -6 -11    5.47    5.39
   4   6  11    5.04    4.22
  -5  -6 -11    2.55    7.56
   5   6  11    3.79    4.10
   6   6  11    5.83    4.48
   4  -7 -11   30.29    6.31
   3  -7 -11   17.93    5.54
   2  -7 -11   11.57    4.88
   1  -7 -11   37.23    5.77
   0  -7 -11   22.83    5.06
   0   7  11   22.77    4.83
  -1  -7 -11   16.67    4.64
   1   7  11   23.29    5.10
  -2  -7 -11   23.58    4.58
   2   7  11    2.21    4.27
   3   7  11    3.07    4.26
   4   7  11    8.38    4.28
   5   7  11    1.45    4.22
   3  -8 -11    3.55    5.20
   2  -8 -11   -0.20    4.47
   1  -8 -11   11.31    4.99
   0  -8 -11    2.98    4.21
   0   8  11    5.75    4.40
  -1  -8 -11    5.46    4.62
   1   8  11   -2.98    4.03
  -2  -8 -11    6.00    4.49
   2   8  11    1.68    4.36
   3   8  11    6.07    4.51
   4   8  11   -5.19    3.91
   5   8  11    5.03    4.81
   2  -9 -11    9.15    5.51
   1  -9 -11   19.38    5.69
   0  -9 -11   10.82    5.53
  -1  -9 -11   10.27    5.31
   1   9  11    2.15    4.77
  -2  -9 -11    9.56    5.20
   2   9  11    2.38    4.96
   3   9  11    1.14    4.83
   4   9  11   11.02    5.17
   1 -10 -11   28.09    7.04
   0 -10 -11    8.08    5.97
  -1 -10 -11    5.97    5.71
   2  10  11   -4.51    5.47
   3  10  11    9.41    5.93
   4  10  11    8.22    5.98
   0 -11 -11    7.41    6.77
  -1 -11 -11   -0.56    6.63
   3  11  11   10.97    6.74
  -1  -7  12    0.95    5.30
   0  -7  12    5.78    5.77
   4   6 -12    8.64    7.35
  -1  -6  12   -1.56    4.37
   0  -6  12   -2.55    4.66
   1  -6  12   10.57    5.30
   2  -6  12   -0.42    4.63
  -5   6 -12    5.51    9.42
   4   5 -12   -3.24    6.31
   3   5 -12   -7.95    5.44
   2   5 -12   -0.60    5.16
  -2  -5  12   -0.64    4.09
  -1  -5  12    7.89    4.39
   0  -5  12   -3.53    3.78
   1  -5  12   -0.49    4.19
   2  -5  12    7.93    4.81
   3  -5  12    3.12    4.62
  -5   5 -12   -1.73    7.50
   4   4 -12    0.07    5.91
   3   4 -12    7.99    5.55
   2   4 -12    3.02    4.98
  -2  -4  12    4.66    3.98
   1   4 -12   -0.74    4.32
  -1  -4  12   -2.31    3.57
   0  -4  12    6.39    3.88
   1  -4  12   16.36    4.32
   2  -4  12    4.06    3.96
   3  -4  12   -1.56    3.77
   4  -4  12   -3.68    3.70
  -6   4 -12    1.22    8.16
   4   3 -12   -9.46    5.17
   3   3 -12    4.83    5.09
   2   3 -12    5.51    4.63
  -2  -3  12   16.01    4.17
   1   3 -12    3.81    4.47
  -1  -3  12   10.62    3.87
   0   3 -12    1.68    4.12
   0  -3  12    7.48    3.56
   1  -3  12    8.11    3.85
   2  -3  12   23.37    4.29
   3  -3  12    1.57    3.52
   4  -3  12    3.97    3.79
   5  -3  12    0.30    3.81
  -6   3 -12   -0.56    7.14
   5   2 -12    4.25    6.24
   4   2 -12    8.06    5.40
   3   2 -12    2.08    4.65
   2   2 -12   11.38    4.53
  -2  -2  12    6.62    3.78
   1   2 -12    7.85    4.32
  -1  -2  12   21.82    4.12
   0   2 -12    7.01    4.07
   0  -2  12   14.67    3.78
  -1   2 -12   17.75    4.28
   1  -2  12   18.48    3.95
   2  -2  12   44.37    5.05
   3  -2  12   -3.53    3.25
   4  -2  12    6.45    3.78
   5  -2  12    1.83    3.93
  -6   2 -12    5.53    7.68
  -7   2 -12   -0.68    8.43
   5   1 -12    3.33    5.40
   4   1 -12    5.16    5.07
   3   1 -12    6.31    4.67
   2   1 -12   21.20    5.00
  -2  -1  12   30.87    4.89
   1   1 -12   18.19    4.63
  -1  -1  12   22.60    4.28
   0   1 -12   13.57    4.20
   0  -1  12   17.79    3.89
  -1   1 -12   37.72    4.76
   1  -1  12   44.23    4.82
   2  -1  12   27.03    4.28
   3  -1  12   11.50    3.76
   4  -1  12   11.43    3.84
   5  -1  12   14.30    4.21
  -6   1 -12    1.97    6.70
   6  -1  12    2.83    4.19
  -7   1 -12    0.45    8.25
   5   0 -12   10.02    6.04
   4   0 -12   -2.43    4.89
   3   0 -12   10.32    4.71
   2   0 -12   20.57    4.73
  -2   0  12   22.48    4.46
   1   0 -12   17.22    4.38
   0   0 -12   19.20    4.38
   0   0  12   17.67    4.07
  -1   0 -12   48.93    5.09
   1   0  12   54.87    5.43
  -2   0 -12    2.88    2.79
   2   0  12    6.76    4.02
   2   0  12    2.52    3.29
   3   0  12    4.10    3.36
   4   0  12    7.75    3.79
   5   0  12    9.44    3.86
  -6   0 -12    0.61    6.35
  -7   0 -12   -2.54    7.91
   5  -1 -12    7.09    5.77
   4  -1 -12   -1.26    4.55
   3  -1 -12   12.61    4.64
   2  -1 -12   62.97    6.21
  -2   1  12   75.62    6.64
   1  -1 -12   13.73    4.27
   0  -1 -12   10.69    4.00
   0   1  12    6.10    3.44
  -1  -1 -12   45.99    5.05
   1   1  12   47.70    5.15
  -2  -1 -12   41.62    4.18
   2   1  12   48.52    5.16
   2   1  12   54.09    5.75
   3   1  12   11.46    3.61
   4   1  12   14.60    3.96
  -5  -1 -12   10.15    5.96
   5   1  12   20.10    4.36
  -6  -1 -12    2.76    6.87
   6   1  12    0.28    4.12
  -7  -1 -12   -0.51    7.66
   5  -2 -12    9.86    5.51
   4  -2 -12   -2.62    4.39
   3  -2 -12   10.41    4.57
   2  -2 -12   49.97    5.85
  -2   2  12   89.36    7.20
   1  -2 -12   17.40    4.43
  -1   2  12   12.46    4.30
   0  -2 -12   11.70    4.10
   0   2  12    5.11    3.84
  -1  -2 -12   66.03    5.53
   1   2  12   71.71    6.12
  -2  -2 -12   35.09    3.95
   2   2  12   54.70    5.92
   3   2  12    2.29    3.39
   4   2  12   14.35    4.17
  -5  -2 -12    7.54    5.95
   5   2  12    6.90    4.03
  -6  -2 -12    2.37    6.49
   6   2  12   -2.37    4.14
  -7  -2 -12   -3.72    8.25
   5  -3 -12    6.29    5.40
   4  -3 -12    7.95    5.06
   3  -3 -12    4.31    4.19
   2  -3 -12   44.02    5.67
  -2   3  12   59.18    6.20
   1  -3 -12   30.62    4.90
  -1   3  12   49.53    5.97
   0  -3 -12   24.13    4.57
   0   3  12   37.60    5.20
  -1  -3 -12   47.08    5.00
   1   3  12   46.04    5.49
  -2  -3 -12   35.29    4.11
   2   3  12   34.70    5.07
   3   3  12    7.49    3.88
   4   3  12    3.69    3.72
  -5  -3 -12   19.16    6.55
   5   3  12   16.17    4.40
  -6  -3 -12    2.71    7.01
   6   3  12    7.28    4.39
  -7  -3 -12    0.48    9.31
   5  -4 -12    8.62    5.36
   4  -4 -12    0.62    4.58
   3  -4 -12   13.89    4.64
   2  -4 -12   26.70    5.03
  -2   4  12   32.57    4.87
   1  -4 -12   18.67    4.52
  -1   4  12   37.66    5.28
   0  -4 -12   -2.59    3.50
   0   4  12   -3.05    3.74
  -1  -4 -12    7.18    3.72
   1   4  12    9.21    4.34
  -2  -4 -12   52.43    4.92
   2   4  12   68.68    6.33
   3   4  12   46.52    5.64
  -4  -4 -12    8.86    5.16
   4   4  12   -2.46    3.45
  -5  -4 -12   14.65    6.82
   5   4  12   10.91    4.13
  -6  -4 -12    3.43    7.42
   6   4  12    2.94    4.38
  -7  -4 -12   -8.33    9.97
   4  -5 -12    2.21    4.88
   3  -5 -12   18.83    5.21
   2  -5 -12    4.71    4.12
   1  -5 -12   15.62    4.44
  -1   5  12   16.66    4.55
   0  -5 -12   13.12    4.29
   0   5  12   12.81    4.45
  -1  -5 -12  116.95    7.74
   1   5  12  127.69    8.53
  -2  -5 -12   22.17    3.85
   2   5  12   15.49    4.42
   3   5  12   -0.14    3.67
  -4  -5 -12   31.20    6.85
   4   5  12   25.10    4.87
  -5  -5 -12    8.23    6.71
   5   5  12   10.51    4.31
  -6  -5 -12    5.98    8.73
   6   5  12    0.54    4.27
   4  -6 -12   13.21    5.46
   3  -6 -12   -1.35    4.49
   2  -6 -12   19.85    5.26
   1  -6 -12   54.78    6.22
  -1   6  12   61.41    6.57
   0  -6 -12   38.56    5.48
   0   6  12   53.83    6.27
  -1  -6 -12   20.16    4.59
   1   6  12    7.44    4.40
  -2  -6 -12   19.01    4.28
   2   6  12   24.11    5.03
  -3  -6 -12   21.03    5.18
   3   6  12    8.98    4.53
  -4  -6 -12    4.88    5.30
   4   6  12    0.12    4.06
  -5  -6 -12   -4.28    6.91
   5   6  12    0.14    4.34
   3  -7 -12   13.18    5.47
   2  -7 -12   31.66    5.97
   1  -7 -12   31.85    5.71
   0  -7 -12    0.38    4.16
   0   7  12   -4.56    4.15
  -1  -7 -12   36.90    5.32
   1   7  12   37.25    6.07
  -2  -7 -12   19.92    4.60
   2   7  12   22.86    5.27
   3   7  12   -4.74    4.20
   4   7  12    0.40    4.37
   5   7  12   -7.18    4.18
   3  -8 -12    0.09    5.30
   2  -8 -12    3.96    5.09
   1  -8 -12   17.74    5.50
   0  -8 -12   12.22    4.82
   0   8  12   12.33    4.88
  -1  -8 -12   11.54    5.15
   1   8  12    5.63    4.70
  -2  -8 -12   19.62    5.11
   2   8  12    4.84    4.58
   3   8  12    1.61    4.47
   4   8  12    3.25    4.62
   5   8  12    2.15    4.59
   2  -9 -12   27.78    6.63
   1  -9 -12   23.09    5.84
   0  -9 -12   16.71    5.87
  -1  -9 -12    2.13    5.05
   1   9  12   -2.97    4.83
   2   9  12   10.93    5.55
   3   9  12   16.20    5.55
   4   9  12   -0.14    5.17
   1 -10 -12    6.83    6.44
   0 -10 -12    6.64    5.87
  -1 -10 -12    5.29    5.94
   2  10  12    5.53    5.84
   3  10  12   -0.77    5.37
   4  10  12  -13.30    5.15
   0 -11 -12   11.93    7.10
  -1  -7  13   -0.95    5.61
  -1  -6  13   -8.55    4.71
   0  -6  13    2.46    4.92
   1  -6  13   -6.50    4.67
   4   5 -13    2.51    6.97
   3   5 -13    8.42    6.31
  -1  -5  13    7.75    4.66
   0  -5  13   10.42    4.79
   1  -5  13    1.85    4.41
   2  -5  13    7.05    4.74
  -5   5 -13   -2.82    8.21
   4   4 -13    3.81    6.58
   3   4 -13    3.21    5.79
   2   4 -13    2.54    5.17
  -2  -4  13   -3.40    3.93
  -1  -4  13    9.80    4.48
   0  -4  13   14.46    4.71
   1  -4  13   10.18    4.39
   2  -4  13    3.15    3.90
   3  -4  13   10.81    4.45
  -6   4 -13    1.26    8.43
   4   3 -13    2.57    5.92
   3   3 -13    6.45    5.36
   2   3 -13    5.75    4.79
  -2  -3  13    6.23    3.94
   1   3 -13   39.52    5.90
  -1  -3  13   51.15    5.80
   0  -3  13    4.49    3.77
   1  -3  13   -0.37    3.69
   2  -3  13   13.62    4.43
   3  -3  13    0.47    3.88
   4  -3  13   -2.43    4.06
  -6   3 -13   -0.96    7.63
   4   2 -13    1.06    5.56
   3   2 -13   13.10    5.29
   2   2 -13    0.95    4.61
  -2  -2  13   12.28    4.23
   1   2 -13    6.05    4.21
  -1  -2  13    4.41    3.63
   0   2 -13   39.45    5.58
   0  -2  13   32.86    4.78
   1  -2  13   23.33    4.39
   2  -2  13   -5.87    3.23
   3  -2  13    2.06    3.52
   4  -2  13   -2.89    3.82
   5  -2  13   -1.20    4.09
  -6   2 -13    0.81    7.37
   4   1 -13    4.44    5.62
   3   1 -13    5.97    5.01
   2   1 -13   11.77    4.87
  -2  -1  13   13.54    4.47
   1   1 -13    2.95    4.13
  -1  -1  13    1.56    3.51
   0   1 -13   33.10    5.05
   0  -1  13   36.89    4.84
  -1   1 -13   12.44    4.11
   1  -1  13   12.74    3.82
   2  -1  13    5.89    3.53
   3  -1  13   11.97    4.03
   4  -1  13    8.81    4.12
   5  -1  13   -2.10    3.88
  -6   1 -13   -3.04    6.28
  -7   1 -13   -1.79    8.16
   5   0 -13   -2.98    5.56
   4   0 -13   -2.37    5.08
   3   0 -13    5.11    4.83
   2   0 -13   22.30    5.17
  -2   0  13   27.54    5.03
   1   0 -13   10.21    4.24
  -1   0  13   20.50    4.32
   0   0 -13   26.94    4.80
   0   0  13   21.83    4.32
  -1   0 -13   36.31    4.85
   1   0  13   49.59    5.30
   2   0  13    9.01    3.79
   3   0  13    8.54    3.96
   4   0  13    2.83    3.85
   5   0  13   -0.72    3.91
  -6   0 -13   -1.02    6.47
  -7   0 -13    0.09    8.31
   5  -1 -13   -1.11    5.69
   4  -1 -13   12.91    5.50
   3  -1 -13   25.52    5.68
   2  -1 -13   14.77    4.56
  -2   1  13    3.83    4.18
   1  -1 -13   -0.50    3.76
   0  -1 -13   45.42    5.52
   0   1  13   51.73    5.50
  -1  -1 -13   32.33    4.74
   1   1  13   39.91    5.02
  -2  -1 -13   12.19    3.26
   2   1  13   18.47    4.30
   3   1  13    2.42    3.49
   4   1  13   13.30    4.23
   5   1  13    9.24    4.25
  -6  -1 -13   -0.54    6.44
   6   1  13    0.16    4.26
  -7  -1 -13    3.74    8.49
   5  -2 -13    1.80    5.68
   4  -2 -13    3.02    4.92
   3  -2 -13   13.94    4.78
   2  -2 -13   23.05    4.90
  -2   2  13   33.22    5.50
   1  -2 -13   18.12    4.61
  -1   2  13   32.80    5.29
   0  -2 -13    2.06    3.93
   0   2  13    3.43    3.81
  -1  -2 -13    1.21    3.52
   1   2  13   -0.87    3.61
  -2  -2 -13   44.03    4.54
   3   2  13   19.10    4.34
   4   2  13    9.59    4.11
  -5  -2 -13   -1.48    5.24
   5   2  13   -7.64    3.66
  -6  -2 -13   -2.08    6.51
   6   2  13   -2.20    4.01
  -7  -2 -13   -2.65    8.14
   4  -3 -13   -2.32    4.66
   3  -3 -13   23.20    5.44
   2  -3 -13    9.75    4.41
  -2   3  13   39.88    5.86
   1  -3 -13   13.10    4.30
  -1   3  13   21.48    5.10
   0  -3 -13   20.38    4.62
   0   3  13   32.12    5.33
  -1  -3 -13   24.69    4.51
   1   3  13   45.56    5.68
  -2  -3 -13   42.67    4.63
   2   3  13   32.88    5.12
   3   3  13    6.68    3.97
   4   3  13    4.47    3.97
  -5  -3 -13    2.48    5.46
   5   3  13    0.36    4.05
  -6  -3 -13    4.99    6.67
   6   3  13   -2.10    4.11
  -7  -3 -13    1.97    9.11
   4  -4 -13   12.66    5.35
   3  -4 -13   20.03    5.34
   2  -4 -13   45.99    5.95
   1  -4 -13   32.02    5.31
  -1   4  13   33.87    5.54
   0  -4 -13   51.55    5.86
   0   4  13   55.07    6.38
  -1  -4 -13   90.50    6.85
   1   4  13   94.81    7.51
  -2  -4 -13   14.12    3.68
   2   4  13   17.18    4.66
   3   4  13   24.21    4.94
   4   4  13    8.57    4.25
  -5  -4 -13    3.37    5.88
   5   4  13    6.61    4.20
  -6  -4 -13    2.55    7.35
   6   4  13    4.36    4.47
  -7  -4 -13   -4.77    9.90
   4  -5 -13    6.27    5.56
   3  -5 -13   15.58    5.43
   2  -5 -13   22.80    5.20
   1  -5 -13    6.86    4.44
  -1   5  13   10.63    4.63
   0  -5 -13    6.16    4.00
   0   5  13    6.10    4.27
  -1  -5 -13    9.77    3.79
   1   5  13    6.10    4.07
  -2  -5 -13    6.51    3.41
   2   5  13   13.03    4.44
   3   5  13    5.66    4.06
  -4  -5 -13    2.02    5.01
   4   5  13    3.37    3.96
  -5  -5 -13    4.32    6.37
   5   5  13    6.29    4.38
  -6  -5 -13    9.06    8.71
   4  -6 -13    1.81    5.38
   3  -6 -13   33.82    6.33
   2  -6 -13   33.49    5.85
   1  -6 -13    7.48    4.51
  -1   6  13   14.85    4.89
   0  -6 -13   25.41    5.13
   0   6  13   11.12    4.69
  -1  -6 -13   31.47    5.15
   1   6  13   18.05    5.03
  -2  -6 -13   33.74    5.06
   2   6  13   23.33    5.12
  -3  -6 -13    2.52    4.29
   3   6  13    0.67    4.18
  -4  -6 -13   12.64    5.95
   4   6  13    3.19    4.55
  -5  -6 -13   17.03    7.76
   5   6  13    2.34    4.84
  -6  -6 -13  -14.80    8.56
   3  -7 -13   11.37    5.44
   2  -7 -13   15.09    5.29
   1  -7 -13    4.30    4.65
   0  -7 -13   14.43    4.84
   0   7  13   13.12    5.27
  -1  -7 -13   29.12    5.24
   1   7  13   22.23    5.60
  -2  -7 -13   20.08    4.82
   2   7  13    7.83    4.81
   3   7  13   -1.17    4.55
   4   7  13    6.93    4.99
   5   7  13    8.10    5.03
   3  -8 -13    5.86    5.54
   2  -8 -13   12.12    5.78
   1  -8 -13   21.33    5.80
   0  -8 -13    3.65    4.93
  -1  -8 -13    2.81    4.75
   1   8  13    1.18    4.91
   2   8  13   16.25    5.56
   3   8  13    2.78    4.98
   4   8  13    7.32    4.95
   2  -9 -13   19.46    6.48
   1  -9 -13   -0.08    5.09
   0  -9 -13    7.96    5.69
  -1  -9 -13   19.24    6.02
   1   9  13    9.10    5.42
   2   9  13   19.76    5.91
   3   9  13    2.26    5.21
   4   9  13   -3.10    5.13
   1 -10 -13   -6.60    5.89
   0 -10 -13   17.22    6.74
  -1 -10 -13   12.39    6.56
   2  10  13   -0.87    5.83
   3  10  13   -4.81    5.69
   0 -11 -13    1.44    6.96
  -1  -6  14   -2.18    5.44
   0  -6  14    1.93    5.49
  -1  -5  14    5.08    4.93
   0  -5  14   -0.01    4.85
   1  -5  14    4.10    4.96
   2  -5  14   -3.70    4.49
  -5   5 -14    1.55    9.16
   4   4 -14  -11.31    6.38
   3   4 -14    6.07    6.01
   2   4 -14   -4.26    5.84
  -1  -4  14    2.30    4.43
   0  -4  14   23.39    5.40
   1  -4  14    9.27    4.63
   2  -4  14    9.90    4.89
   3  -4  14    0.71    4.40
   4   3 -14    9.35    6.70
   3   3 -14    4.07    5.54
   2   3 -14    2.27    5.21
  -2  -3  14    1.02    4.27
   1   3 -14   13.58    5.17
  -1  -3  14    9.65    4.34
   0  -3  14    8.08    4.33
   1  -3  14   12.67    4.49
   2  -3  14    3.77    4.06
   3  -3  14    4.43    4.28
   4  -3  14   -1.88    4.03
  -6   3 -14   -0.38    7.56
   4   2 -14    2.33    6.65
   3   2 -14   -1.80    5.26
   2   2 -14   -3.80    4.67
  -2  -2  14   -3.42    4.06
   1   2 -14    1.16    4.41
  -1  -2  14    5.83    4.09
   0   2 -14   10.59    4.67
   0  -2  14   11.70    4.15
   1  -2  14    6.26    3.94
   2  -2  14   12.67    4.37
   3  -2  14    3.18    4.00
   4  -2  14    5.78    4.34
  -6   2 -14   -3.73    7.43
   4   1 -14    3.91    5.86
   3   1 -14   -2.50    4.93
   2   1 -14   12.87    4.99
  -2  -1  14    9.24    4.37
   1   1 -14   -2.11    4.12
  -1  -1  14    5.35    4.10
   0   1 -14   26.09    5.04
   0  -1  14   22.32    4.63
   1  -1  14    3.44    3.72
   2  -1  14   -0.60    3.65
   3  -1  14    2.83    3.93
   4  -1  14   11.01    4.39
   5  -1  14    1.51    4.36
  -6   1 -14    0.71    7.03
   4   0 -14    3.77    5.62
   3   0 -14    1.09    4.78
   2   0 -14   -0.01    4.26
  -2   0  14    1.82    4.09
   1   0 -14   10.33    4.43
  -1   0  14   19.07    4.51
   0   0 -14    7.64    4.29
   0   0  14    1.17    3.81
  -1   0 -14   14.93    4.43
   1   0  14   21.77    4.53
   2   0  14    6.77    4.04
   3   0  14    6.72    4.15
   4   0  14    2.37    4.09
   5   0  14   13.00    4.78
  -6   0 -14    4.54    6.90
  -7   0 -14    9.54    8.77
   4  -1 -14    5.10    5.34
   3  -1 -14   -1.22    4.57
   2  -1 -14    0.37    4.19
  -2   1  14    4.35    4.49
   1  -1 -14   62.24    6.44
   0  -1 -14   16.37    4.45
   0   1  14   24.11    4.54
  -1  -1 -14   15.05    4.23
   1   1  14   10.82    4.08
   2   1  14   13.00    3.98
   3   1  14    8.48    4.08
   5   1  14    1.08    4.15
  -6  -1 -14    1.90    6.94
  -7  -1 -14    4.61    8.75
   4  -2 -14   -0.17    5.06
   3  -2 -14   11.11    5.08
   2  -2 -14    6.36    4.43
  -2   2  14   29.02    5.82
   1  -2 -14   15.43    4.66
  -1   2  14   21.40    4.96
   0  -2 -14    5.91    4.07
   0   2  14    1.51    3.90
  -1  -2 -14   -4.45    3.47
   1   2  14    8.12    4.04
   2   2  14    1.72    3.75
   3   2  14    8.76    4.17
   4   2  14   -1.38    3.69
  -5  -2 -14    8.66    6.05
   5   2  14    7.93    4.52
  -6  -2 -14    2.78    7.08
  -7  -2 -14   -0.78    8.10
   4  -3 -14    6.28    5.47
   3  -3 -14   23.39    5.48
   2  -3 -14    2.57    4.31
   1  -3 -14    4.24    4.20
  -1   3  14   -0.91    4.22
   0  -3 -14   55.55    6.18
   0   3  14   70.89    6.79
  -1  -3 -14   32.66    4.91
   1   3  14   62.88    6.62
   2   3  14   23.69    4.96
   3   3  14   37.93    5.58
   4   3  14   26.74    5.26
  -5  -3 -14    6.76    5.98
   5   3  14    9.45    4.62
  -6  -3 -14   -0.89    7.03
  -7  -3 -14    7.37    9.36
   4  -4 -14    1.32    4.93
   3  -4 -14    3.07    4.63
   2  -4 -14    5.38    4.61
   1  -4 -14    7.65    4.42
  -1   4  14   15.08    5.12
   0  -4 -14   19.97    4.85
   0   4  14   23.59    5.39
  -1  -4 -14    8.41    3.94
   1   4  14    6.96    4.49
  -2  -4 -14   18.98    4.09
   2   4  14   28.37    5.31
   3   4  14   20.24    4.94
   4   4  14    7.07    4.51
  -5  -4 -14    4.51    6.04
   5   4  14   -2.03    4.08
  -6  -4 -14   -3.11    7.15
  -7  -4 -14   -1.05    9.44
   4  -5 -14    3.56    5.51
   3  -5 -14   26.68    5.96
   2  -5 -14   11.13    4.84
   1  -5 -14    8.11    4.61
  -1   5  14    8.11    4.76
   0  -5 -14   22.62    5.05
   0   5  14   30.96    5.46
  -1  -5 -14   87.64    7.04
   1   5  14  111.75    8.40
  -2  -5 -14   29.80    4.73
   2   5  14   25.94    5.18
   3   5  14    7.33    4.44
  -4  -5 -14    8.78    5.70
   4   5  14    7.99    4.47
  -5  -5 -14    5.26    6.57
   5   5  14   -0.78    4.26
  -6  -5 -14   11.09    8.56
  -7  -5 -14  -12.06   10.90
   3  -6 -14    8.06    5.40
   2  -6 -14   -2.18    4.48
   1  -6 -14   25.81    5.53
   0  -6 -14   33.79    5.87
   0   6  14   30.85    5.82
  -1  -6 -14   10.68    4.43
   1   6  14    5.64    4.81
   2   6  14    5.63    4.43
   3   6  14    5.89    4.55
  -4  -6 -14   27.05    7.14
   4   6  14   14.25    5.10
  -5  -6 -14   11.90    7.27
   5   6  14    0.13    4.77
   3  -7 -14    3.78    5.29
   2  -7 -14   12.25    5.67
   1  -7 -14   12.23    5.14
   0  -7 -14   14.33    5.14
   0   7  14   28.22    6.13
  -1  -7 -14   13.37    4.86
   1   7  14   15.54    5.68
   2   7  14   38.81    6.50
   3   7  14    8.74    5.05
   4   7  14    0.08    4.74
   5   7  14    6.09    5.29
   2  -8 -14    5.39    5.73
   1  -8 -14   -1.64    4.72
   0  -8 -14   36.58    6.48
  -1  -8 -14   54.96    7.08
   1   8  14   42.84    6.91
   2   8  14   -3.75    4.86
   3   8  14   -3.17    4.75
   4   8  14    0.51    5.08
   2  -9 -14   12.15    6.15
   1  -9 -14    4.63    5.74
   0  -9 -14   20.25    6.14
  -1  -9 -14    0.19    5.27
   2   9  14    6.20    5.60
   3   9  14    9.84    5.54
   4   9  14   -4.78    5.11
   1 -10 -14    4.95    6.48
   0 -10 -14    7.67    6.58
   3  10  14    2.89    6.23
   0 -11 -14    2.10    6.85
  -1  -5  15   -0.11    5.17
   0  -5  15    5.63    5.60
   1  -5  15    1.16    5.16
  -1  -4  15    4.45    4.93
   0  -4  15    6.70    4.93
   1  -4  15   -6.72    4.31
   2  -4  15    6.18    4.84
   3   3 -15   -9.49    5.63
   2   3 -15   13.24    6.04
  -1  -3  15    2.85    4.50
   0  -3  15    0.75    4.31
   1  -3  15    3.99    4.33
   2  -3  15   -2.57    4.19
   3  -3  15   -0.58    4.43
   4   2 -15   -8.11    6.17
   3   2 -15    6.48    5.84
   2   2 -15    2.02    5.16
   1   2 -15    6.55    4.95
  -1  -2  15    0.05    4.15
   0  -2  15   -1.62    3.79
   1  -2  15   16.33    4.79
   2  -2  15   -3.54    3.82
   3  -2  15    3.26    4.23
   4  -2  15    1.66    4.52
  -6   2 -15    2.85    7.71
   4   1 -15    7.78    6.41
   3   1 -15   -0.33    5.27
   2   1 -15    5.79    5.18
   1   1 -15    9.86    4.82
  -1  -1  15   18.22    4.97
   0   1 -15   16.64    4.92
   0  -1  15   20.21    4.82
   1  -1  15   -4.82    3.70
   2  -1  15   -2.14    3.79
   3  -1  15   -4.36    4.05
   4  -1  15   14.39    5.14
  -6   1 -15    4.25    7.66
   4   0 -15    1.27    5.86
   3   0 -15   -0.99    5.01
   2   0 -15    9.46    4.94
   1   0 -15   18.12    5.11
  -1   0  15   12.01    4.66
   0   0 -15   17.18    4.98
   0   0  15   28.28    5.08
   1   0  15    2.89    3.89
   2   0  15   14.20    4.60
   3   0  15   25.88    5.19
   4   0  15    0.73    4.10
   5   0  15   -4.02    4.36
  -6   0 -15   -8.00    5.95
   4  -1 -15   -3.56    5.33
   3  -1 -15    7.39    5.11
   2  -1 -15    5.40    4.72
   1  -1 -15    0.38    4.47
   0  -1 -15   16.91    4.65
   0   1  15   28.94    5.08
  -1  -1 -15    6.97    4.25
   1   1  15    5.75    3.95
   2   1  15    1.37    3.78
   3   1  15   25.76    5.01
   5   1  15    2.24    4.45
  -6  -1 -15    2.00    6.83
  -7  -1 -15    3.65    8.74
   4  -2 -15    5.96    5.68
   3  -2 -15    3.12    4.95
   2  -2 -15    4.48    4.62
   1  -2 -15   24.46    5.26
  -1   2  15   49.29    6.32
   0  -2 -15   37.97    5.66
   0   2  15   60.49    6.69
  -1  -2 -15    7.83    4.20
   1   2  15   21.62    4.80
   2   2  15   16.88    4.75
   3   2  15   16.39    4.80
   4   2  15    4.54    4.30
   5   2  15    4.08    4.40
  -6  -2 -15   -6.51    6.43
  -7  -2 -15    3.86    8.35
   4  -3 -15    7.48    5.76
   3  -3 -15    2.46    5.03
   2  -3 -15   16.41    5.16
   1  -3 -15   38.88    6.01
  -1   3  15   46.71    6.67
   0  -3 -15    7.66    4.37
   0   3  15   15.33    5.03
  -1  -3 -15    3.24    3.84
   1   3  15   18.32    4.89
   2   3  15   51.91    6.41
   3   3  15    4.34    4.21
   4   3  15    4.25    4.41
  -5  -3 -15   -2.89    5.37
   5   3  15    9.23    4.78
  -6  -3 -15   -4.05    7.06
  -7  -3 -15    2.88    9.41
   4  -4 -15    2.73    5.23
   3  -4 -15   24.94    5.90
   2  -4 -15    2.09    4.79
   1  -4 -15   14.44    5.00
  -1   4  15   16.32    5.44
   0  -4 -15   26.14    5.42
   0   4  15   26.56    5.76
  -1  -4 -15   16.20    4.49
   1   4  15   14.65    5.10
   2   4  15    9.39    4.61
   3   4  15    9.16    4.79
   4   4  15   19.65    5.36
  -5  -4 -15    1.52    5.92
   5   4  15   -5.40    4.31
  -6  -4 -15   -3.18    7.12
  -7  -4 -15    2.78    9.75
   3  -5 -15    1.69    5.10
   2  -5 -15    9.85    5.17
   1  -5 -15   25.34    5.57
  -1   5  15   16.34    5.51
   0  -5 -15   28.84    5.52
   0   5  15   37.68    6.13
  -1  -5 -15   18.59    4.82
   1   5  15   21.46    5.42
   2   5  15    6.67    4.60
   3   5  15   24.34    5.40
   4   5  15   -0.85    4.26
  -5  -5 -15    3.31    6.67
   5   5  15   -1.28    4.42
  -6  -5 -15    8.93    8.38
  -7  -5 -15  -12.36   10.73
   3  -6 -15   -3.26    5.28
   2  -6 -15   21.60    5.77
   1  -6 -15   27.59    5.88
   0  -6 -15   14.08    5.14
   0   6  15   12.73    5.33
  -1  -6 -15    1.11    4.17
   1   6  15    6.16    5.00
   2   6  15    8.72    4.79
   3   6  15   22.62    5.41
  -4  -6 -15   11.68    6.18
   4   6  15   -7.99    4.46
   2  -7 -15   -0.26    5.40
   1  -7 -15   13.62    5.69
   0  -7 -15   22.41    5.89
   0   7  15    9.48    5.69
  -1  -7 -15   12.75    5.03
   1   7  15    6.99    5.58
   2   7  15    4.62    5.18
   3   7  15   10.67    5.48
   4   7  15    4.72    5.27
   2  -8 -15   -2.02    5.34
   1  -8 -15   19.65    6.20
   0  -8 -15   28.88    6.35
  -1  -8 -15    7.87    5.10
   1   8  15   -6.15    5.18
   2   8  15    8.81    5.79
   3   8  15   17.88    6.17
   4   8  15    5.00    5.46
   1  -9 -15    8.42    6.20
   0  -9 -15    3.56    5.25
   2   9  15   16.11    6.25
   3   9  15    1.25    5.65
   0 -10 -15    3.13    6.88
   3  10  15   -0.44    6.31
   0  -5  16    3.82    5.78
  -1  -4  16    1.07    5.19
   0  -4  16    7.82    5.63
   1  -4  16   -2.23    5.05
   3   3 -16  -15.39    5.99
  -1  -3  16   -1.53    4.84
   0  -3  16   -1.34    4.66
   1  -3  16   -4.66    4.35
   2  -3  16    5.28    4.85
   3   2 -16   -2.29    5.79
   2   2 -16    6.09    5.78
  -1  -2  16   -2.09    4.49
   0  -2  16    3.52    4.68
   1  -2  16   -0.35    4.39
   2  -2  16   -3.63    4.28
   3  -2  16   -1.93    4.50
   3   1 -16    0.10    5.78
   2   1 -16    9.07    5.34
   1   1 -16    6.01    5.17
  -1  -1  16    6.31    4.68
   0  -1  16   19.59    5.22
   1  -1  16    8.87    4.58
   2  -1  16    7.60    4.63
   3  -1  16    8.78    4.88
   4  -1  16   -1.34    4.76
  -6   1 -16   -2.09    7.14
   4   0 -16   -4.11    6.12
   3   0 -16    0.08    5.33
   2   0 -16    5.25    5.07
   1   0 -16    6.81    4.97
  -1   0  16    8.10    4.75
   0   0  16   19.50    4.94
   1   0  16    3.27    4.16
   2   0  16    8.58    4.44
   3   0  16    2.16    4.48
   4   0  16    2.59    4.74
  -6   0 -16    3.73    7.44
   4  -1 -16    9.33    6.27
   3  -1 -16    3.66    5.19
   2  -1 -16    7.34    5.16
   1  -1 -16   15.63    5.40
  -1   1  16   17.02    5.07
   0  -1 -16    5.46    4.64
   1   1  16    1.74    4.06
   2   1  16   10.54    4.47
   3   1  16    3.96    4.42
  -6  -1 -16    8.63    7.93
   3  -2 -16   -3.06    5.03
   2  -2 -16   16.17    5.46
   1  -2 -16   27.53    5.61
  -1   2  16   38.31    6.04
   0  -2 -16   -1.29    4.20
   0   2  16   -4.96    4.17
   1   2  16    9.65    4.59
   2   2  16   11.78    4.69
   3   2  16   62.79    7.04
   4   2  16   -4.09    4.17
   5   2  16    7.88    5.09
  -6  -2 -16    6.27    7.55
   3  -3 -16   -0.84    5.29
   2  -3 -16    7.61    5.00
   1  -3 -16    3.40    4.68
  -1   3  16    3.07    5.04
   0  -3 -16   17.97    5.07
   0   3  16   18.38    5.28
   1   3  16   36.14    6.03
   2   3  16    2.86    4.40
   3   3  16   10.57    4.98
   4   3  16    6.46    4.78
   5   3  16    5.69    4.91
  -6  -3 -16   -1.12    7.30
  -7  -3 -16   10.91    9.80
   3  -4 -16   -7.87    4.79
   2  -4 -16   20.61    5.78
   1  -4 -16   49.07    6.73
  -1   4  16   69.24    7.90
   0  -4 -16   16.51    5.05
   0   4  16   18.65    5.68
  -1  -4 -16    5.47    4.35
   1   4  16    1.66    4.70
   2   4  16   16.64    5.30
   3   4  16   29.95    5.85
   4   4  16    3.96    4.78
  -5  -4 -16   -5.84    5.65
  -6  -4 -16   -1.13    7.69
  -7  -4 -16    5.97   10.79
   3  -5 -16   10.33    6.00
   2  -5 -16   17.30    5.84
   1  -5 -16    2.33    4.96
   0  -5 -16    8.61    5.02
   0   5  16   16.64    5.39
  -1  -5 -16   -3.60    4.06
   1   5  16    1.62    4.61
   2   5  16   36.45    6.28
   3   5  16   11.94    5.04
   4   5  16   -5.34    4.29
  -5  -5 -16    2.41    6.79
  -6  -5 -16    9.94    9.28
  -7  -5 -16   -3.45   11.53
   3  -6 -16   -1.48    5.54
   2  -6 -16   -0.61    4.96
   1  -6 -16   13.27    5.44
   0  -6 -16   18.16    5.53
   0   6  16   27.64    6.24
  -1  -6 -16   21.33    5.24
   1   6  16   20.44    5.93
   2   6  16   10.28    5.02
   3   6  16   12.61    5.32
   4   6  16    7.43    5.27
   2  -7 -16   19.82    6.60
   1  -7 -16   27.02    6.41
   0  -7 -16   13.38    5.63
   1   7  16    0.81    5.22
   2   7  16   46.69    7.23
   3   7  16    5.38    5.47
   4   7  16    2.73    5.35
   2  -8 -16   -2.58    5.80
   1  -8 -16   10.00    6.23
   0  -8 -16   10.86    5.88
   1   8  16   16.45    6.51
   2   8  16   11.98    6.29
   3   8  16   -6.35    5.25
   1  -9 -16   18.13    6.88
   0  -9 -16   14.65    6.11
   2   9  16   -2.78    5.85
   3   9  16    8.02    6.33
   0  -4  17    3.72    5.59
  -1  -3  17    7.33    5.79
   0  -3  17    2.86    5.28
   1  -3  17   -2.22    4.82
   3   2 -17   -4.35    6.58
  -1  -2  17   -1.92    5.00
   0  -2  17    2.44    4.83
   1  -2  17   -6.82    4.44
   2  -2  17   10.24    5.30
   3   1 -17    1.67    6.12
   2   1 -17    8.87    5.68
  -1  -1  17   13.57    5.23
   0  -1  17   -0.54    4.77
   1  -1  17   20.00    5.55
   2  -1  17   13.61    5.32
   3  -1  17   -6.04    4.53
   3   0 -17    8.01    6.00
   2   0 -17    7.95    5.60
   1   0 -17    4.43    5.13
  -1   0  17    5.42    4.91
   0   0  17    4.75    4.55
   1   0  17   10.91    4.88
   2   0  17   13.11    5.01
   3   0  17    5.89    4.91
  -6   0 -17    5.28    7.74
   3  -1 -17   13.64    6.22
   2  -1 -17   16.30    5.76
   1  -1 -17   10.74    5.35
  -1   1  17   21.02    5.57
   2   1  17   12.63    4.88
  -6  -1 -17   -4.02    7.08
   3  -2 -17    2.30    5.47
   2  -2 -17   12.21    5.58
   1  -2 -17   -2.46    4.62
  -1   2  17    5.16    5.12
   0  -2 -17   14.00    5.24
   0   2  17   16.24    5.38
   1   2  17    5.40    4.59
   2   2  17   -2.14    4.33
   3   2  17    6.52    4.84
   4   2  17    0.38    4.63
  -6  -2 -17    3.71    7.51
   3  -3 -17    2.17    5.61
   2  -3 -17   27.35    6.16
   1  -3 -17   12.23    5.49
  -1   3  17   30.18    6.54
   0  -3 -17    6.89    4.81
   0   3  17    7.05    5.20
   1   3  17    6.61    4.86
   2   3  17   26.64    5.74
   3   3  17    6.49    5.00
   4   3  17    7.55    5.35
  -6  -3 -17   -0.18    7.52
   3  -4 -17   -4.37    5.54
   2  -4 -17   18.37    5.96
   1  -4 -17    8.45    5.16
   0  -4 -17    6.36    4.79
   0   4  17    6.65    5.43
   1   4  17   19.85    5.76
   2   4  17    6.77    5.24
   3   4  17    3.53    4.97
   4   4  17    2.73    4.99
  -5  -4 -17    0.08    6.08
  -6  -4 -17   -0.28    8.18
   3  -5 -17   14.03    6.44
   2  -5 -17   -4.31    5.32
   1  -5 -17   11.10    5.58
   0  -5 -17   14.86    5.45
   0   5  17   17.29    5.95
   1   5  17   17.31    5.88
   2   5  17   14.79    5.64
   3   5  17   -0.45    4.78
   4   5  17   10.77    5.33
  -5  -5 -17    4.99    6.96
  -6  -5 -17   -1.82    8.35
   2  -6 -17   18.74    6.35
   1  -6 -17   14.87    5.86
   0  -6 -17    4.09    5.32
   0   6  17    8.81    5.58
   1   6  17    2.52    5.44
   2   6  17    9.22    5.64
   3   6  17   39.28    6.77
   4   6  17   -1.49    4.98
   2  -7 -17   17.70    6.67
   1  -7 -17   11.52    6.26
   0  -7 -17    2.68    5.49
   1   7  17   11.17    6.22
   2   7  17   21.11    6.48
   3   7  17    1.22    5.71
   1  -8 -17   14.20    6.64
   0  -8 -17   12.72    6.38
   2   8  17   -1.31    6.17
   3   8  17    2.16    6.29
   2   9  17    1.41    6.60
   3   9  17   -1.76    6.31
   0  -3  18    5.94    6.08
   0  -2  18   -4.65    5.26
   1  -2  18   18.85    5.99
   3   1 -18   16.54    7.18
   0  -1  18    5.82    5.16
   1  -1  18    3.81    5.01
   2  -1  18    6.07    5.24
   3   0 -18    7.51    6.59
   2   0 -18    2.89    5.75
   0   0  18   -1.20    4.64
   1   0  18   -0.12    4.65
   2   0  18    9.49    5.22
   3   0  18   -3.19    4.77
   3  -1 -18    0.85    6.17
   2  -1 -18    0.34    5.47
  -1   1  18    2.03    5.13
   3  -2 -18   -4.58    6.04
   2  -2 -18    9.52    5.85
   1  -2 -18    7.47    5.46
   0   2  18    2.36    4.97
   1   2  18    6.55    5.16
   2   2  18   10.49    5.23
   3   2  18    5.31    5.03
  -6  -2 -18   -1.52    7.45
   3  -3 -18    7.28    6.19
   2  -3 -18    8.85    6.03
   1  -3 -18   -1.29    5.11
   0   3  18   16.15    6.04
   1   3  18   31.64    6.53
   2   3  18    3.41    5.08
   3   3  18   -1.39    5.02
  -6  -3 -18    4.21    8.69
   2  -4 -18    1.05    5.62
   1  -4 -18    3.76    5.35
   0   4  18   22.41    6.38
   1   4  18   13.52    5.83
   2   4  18   13.75    5.78
   3   4  18    4.23    5.38
  -5  -4 -18    2.20    6.69
  -6  -4 -18    3.11    8.78
   2  -5 -18   12.20    6.38
   1  -5 -18    1.56    5.41
   0  -5 -18    2.14    5.20
   0   5  18    4.70    5.71
   1   5  18   27.53    6.62
   2   5  18   34.06    6.84
   3   5  18   20.44    6.23
  -5  -5 -18    1.25    7.29
   2  -6 -18  -14.10    5.40
   1  -6 -18    0.34    5.44
   1   6  18   28.79    6.90
   2   6  18   17.52    6.31
   3   6  18   -1.11    5.42
   1  -7 -18   15.59    6.64
   1   7  18    2.35    6.00
   2   7  18   -1.27    6.12
   3   7  18    8.26    6.27
   1  -8 -18   10.16    6.74
   2   8  18    0.59    6.26
   3   8  18   15.24    7.14
   0  -2  19   -3.09    5.61
   0  -1  19    6.94    5.49
   1  -1  19    1.82    5.46
   0   0  19   10.46    5.59
   1   0  19    4.51    5.44
   2   0  19    8.83    5.48
   0   1  19    1.55    5.24
   2  -2 -19   -2.55    5.70
   0   2  19   12.87    5.91
   1   2  19   11.08    5.82
   2   2  19   11.52    5.77
   3   2  19    7.50    5.42
   2  -3 -19   -0.07    5.94
   0   3  19   39.05    7.30
   1   3  19   15.64    6.06
   2   3  19    2.71    5.31
   3   3  19    8.56    5.86
  -6  -3 -19    4.20    8.92
   2  -4 -19    6.02    6.33
   1  -4 -19    0.50    5.76
   0   4  19    5.71    6.17
   1   4  19   32.03    7.05
   2   4  19    1.90    5.52
   3   4  19   11.11    6.16
  -6  -4 -19    1.51    9.25
   2  -5 -19    2.47    6.31
   1  -5 -19    7.10    5.96
   1   5  19   18.83    6.77
   2   5  19   -0.59    5.62
   3   5  19    8.16    6.14
  -5  -5 -19    0.91    7.74
   1  -6 -19    3.61    6.27
   1   6  19    6.69    6.03
   2   6  19   -2.28    5.58
   3   6  19    4.59    5.93
   1  -7 -19    2.59    6.75
   2   7  19    5.54    6.72
   2   8  19    1.43    7.02
   0  -1  20    8.48    6.15
   1   0  20   -5.39    5.44
   0   1  20    5.70    5.76
   1   1  20    9.75    5.90
   0   2  20   12.99    6.31
   1   2  20    1.38    5.63
   2   2  20    1.01    5.49
   1   3  20   11.50    6.17
   2   3  20    5.89    6.12
   2  -4 -20    3.58    6.65
   1   4  20   -2.53    5.80
   2   4  20    3.00    5.83
   1   5  20   -0.74    5.96
   2   5  20    3.96    6.47
   2   6  20   -1.42    6.11
   2   7  20   -3.84    6.61
   1   2  21   10.44    6.59
   1   3  21   -2.45    6.23
   1   4  21    1.67    6.66
   0   0   0    0.00    0.00
;
_shelx_hkl_checksum              92125
loop_
_space_group_symop_operation_xyz
'x, y, z'
loop_
_atom_site_label
_atom_site_type_symbol
_atom_site_fract_x
_atom_site_fract_y
_atom_site_fract_z
_atom_site_U_iso_or_equiv
_atom_site_adp_type
_atom_site_occupancy
_atom_site_site_symmetry_order
_atom_site_calc_flag
_atom_site_refinement_flags_posn
_atom_site_refinement_flags_adp
_atom_site_refinement_flags_occupancy
_atom_site_disorder_assembly
_atom_site_disorder_group
C1S C 1.228(2) -0.2968(15) 0.0979(9) 0.036(4) Uani 1 1 d . . . . .
H1S1 H 1.1226 -0.3699 0.1398 0.053 Uiso 1 1 calc R U . . .
H1S2 H 1.2758 -0.3358 0.0437 0.053 Uiso 1 1 calc R U . . .
H1S3 H 1.3692 -0.2923 0.1282 0.053 Uiso 1 1 calc R U . . .
C2 C 1.645(2) 0.2736(14) 0.0230(8) 0.028(3) Uani 1 1 d . . . . .
C2S C 0.861(3) -0.1420(15) -0.0032(9) 0.049(4) Uani 1 1 d . . . . .
H2S1 H 0.7442 -0.2090 0.0365 0.074 Uiso 1 1 calc R U . . .
H2S2 H 0.7790 -0.0402 -0.0361 0.074 Uiso 1 1 calc R U . . .
H2S3 H 0.9421 -0.1979 -0.0470 0.074 Uiso 1 1 calc R U . . .
C4 C 1.660(2) 0.4165(14) 0.1427(7) 0.027(3) Uani 1 1 d . . . . .
C4A C 1.462(2) 0.3357(14) 0.1892(7) 0.0184(19) Uani 1 1 d . . . . .
C6 C 1.175(2) 0.2959(13) 0.3103(7) 0.023(2) Uani 1 1 d . . . . .
C7 C 1.077(2) 0.1850(13) 0.2704(7) 0.020(2) Uani 1 1 d . . . . .
C8A C 1.363(2) 0.2269(13) 0.1539(7) 0.0184(19) Uani 1 1 d . . . . .
C61 C 1.077(2) 0.3426(13) 0.3930(7) 0.023(2) Uani 1 1 d . U . . .
C62 C 0.847(2) 0.4221(13) 0.3978(7) 0.028(3) Uani 1 1 d . U . . .
H62 H 0.7448 0.4361 0.3504 0.033 Uiso 1 1 calc R U . . .
C63 C 0.773(2) 0.4801(13) 0.4735(7) 0.025(2) Uani 1 1 d . U . . .
H63 H 0.6176 0.5320 0.4799 0.030 Uiso 1 1 calc R U . . .
C64 C 0.930(2) 0.4601(13) 0.5382(7) 0.026(3) Uani 1 1 d . U . . .
C65 C 1.148(2) 0.3843(13) 0.5360(7) 0.025(2) Uani 1 1 d . U . . .
H65 H 1.2473 0.3708 0.5843 0.030 Uiso 1 1 calc R U . . .
C66 C 1.224(2) 0.3259(13) 0.4614(7) 0.028(3) Uani 1 1 d . U . . .
H66 H 1.3804 0.2738 0.4574 0.034 Uiso 1 1 calc R U . . .
C72 C 0.880(2) 0.0937(14) 0.3115(7) 0.020(2) Uani 1 1 d . . . . .
C73A C 0.586(2) -0.0219(13) 0.3920(7) 0.026(3) Uani 1 1 d . . . . .
C74 C 0.404(2) -0.0727(13) 0.4567(7) 0.028(3) Uani 1 1 d . . . . .
H74 H 0.3768 -0.0318 0.5088 0.033 Uiso 1 1 calc R U . . .
C75 C 0.259(2) -0.1846(13) 0.4459(8) 0.030(3) Uani 1 1 d . . . . .
H75 H 0.1321 -0.2193 0.4900 0.036 Uiso 1 1 calc R U . . .
C76 C 0.304(2) -0.2446(14) 0.3685(8) 0.034(3) Uani 1 1 d . . . . .
H76 H 0.2041 -0.3187 0.3601 0.040 Uiso 1 1 calc R U . . .
C77 C 0.494(2) -0.1968(14) 0.3035(8) 0.030(3) Uani 1 1 d . . . . .
H77 H 0.5261 -0.2410 0.2527 0.036 Uiso 1 1 calc R U . . .
C77A C 0.632(3) -0.0846(15) 0.3148(7) 0.029(3) Uani 1 1 d . . . . .
N1 N 1.466(2) 0.2012(13) 0.0729(6) 0.026(3) Uani 1 1 d . . . . .
N3 N 1.748(2) 0.3808(13) 0.0616(6) 0.029(3) Uani 1 1 d D . . . .
O4 O 1.7655(14) 0.5088(9) 0.1695(4) 0.0289(15) Uani 1 1 d . . . . .
N5 N 1.3678(17) 0.3657(10) 0.2680(6) 0.021(2) Uani 1 1 d . . . . .
N8 N 1.1802(19) 0.1542(11) 0.1938(6) 0.026(3) Uani 1 1 d . . . . .
N71 N 0.8131(19) -0.0109(11) 0.2648(6) 0.027(2) Uani 1 1 d . . . . .
N73 N 0.7474(18) 0.0882(11) 0.3884(6) 0.028(3) Uani 1 1 d . . . . .
O1S O 1.2478(15) -0.0015(9) 0.0019(5) 0.037(2) Uani 1 1 d . . . . .
O2 O 1.7293(14) 0.2561(9) -0.0499(5) 0.0289(15) Uani 1 1 d . . . . .
O2S O 0.396(2) 0.0251(13) 0.6756(6) 0.065(3) Uani 1 1 d . . . . .
O3S O 1.1346(15) 0.5049(9) -0.0461(5) 0.034(2) Uani 1 1 d . . . . .
S1 S 1.0757(6) -0.1032(4) 0.0651(2) 0.0313(9) Uani 1 1 d . . . . .
S2A S 0.6074(12) 0.1065(6) 0.6741(3) 0.059(2) Uani 0.783(12) 1 d . . P A 1
S2B S 0.674(3) -0.027(2) 0.7085(9) 0.037(7) Uani 0.217(12) 1 d . . P A 2
C4S C 0.847(3) 0.008(2) 0.6135(9) 0.063(5) Uani 1 1 d . . . . .
H41A H 0.9937 0.0582 0.6105 0.095 Uiso 0.783(12) 1 calc R U P A 1
H42A H 0.8709 -0.1060 0.6458 0.095 Uiso 0.783(12) 1 calc R U P A 1
H43A H 0.8039 0.0185 0.5516 0.095 Uiso 0.783(12) 1 calc R U P A 1
H41B H 0.7878 -0.0411 0.5705 0.095 Uiso 0.217(12) 1 calc R U P A 2
H42B H 0.8459 0.1238 0.5867 0.095 Uiso 0.217(12) 1 calc R U P A 2
H43B H 1.0093 -0.0384 0.6265 0.095 Uiso 0.217(12) 1 calc R U P A 2
C3S C 0.734(4) 0.037(3) 0.7800(11) 0.133(10) Uani 1 1 d . . . . .
H31A H 0.8758 0.0923 0.7780 0.200 Uiso 0.783(12) 1 calc R U P A 1
H32A H 0.6181 0.0585 0.8283 0.200 Uiso 0.783(12) 1 calc R U P A 1
H33A H 0.7793 -0.0788 0.7924 0.200 Uiso 0.783(12) 1 calc R U P A 1
H31B H 0.6189 0.0084 0.8328 0.200 Uiso 0.217(12) 1 calc R U P A 2
H32B H 0.8940 -0.0083 0.7978 0.200 Uiso 0.217(12) 1 calc R U P A 2
H33B H 0.7306 0.1539 0.7580 0.200 Uiso 0.217(12) 1 calc R U P A 2
S3 S 1.1046(6) 0.5212(4) -0.1462(2) 0.0375(9) Uani 1 1 d . . . . .
C5S C 1.234(2) 0.3411(13) -0.1703(8) 0.035(3) Uani 1 1 d . . . . .
H51S H 1.2181 0.3472 -0.2343 0.052 Uiso 1 1 calc R U . . .
H52S H 1.4029 0.3253 -0.1588 0.052 Uiso 1 1 calc R U . . .
H53S H 1.1529 0.2508 -0.1311 0.052 Uiso 1 1 calc R U . . .
C6S C 1.326(3) 0.6454(17) -0.2059(8) 0.052(4) Uani 1 1 d . . . . .
H61S H 1.3193 0.6621 -0.2716 0.078 Uiso 1 1 calc R U . B 1
H62S H 1.2991 0.7490 -0.1912 0.078 Uiso 1 1 calc R U . B 1
H63S H 1.4833 0.5938 -0.1880 0.078 Uiso 1 1 calc R U . B 1
Br1 Br 0.82140(18) 0.54277(12) 0.64202(8) 0.0408(5) Uani 1 1 d . . . C 1
H1 H 1.382(18) 0.139(11) 0.058(6) 0.00(3) Uiso 1 1 d . . . D 1
H3 H 1.845(17) 0.450(11) 0.034(7) 0.03(4) Uiso 1 1 d D . . E 1
loop_
_atom_site_aniso_label
_atom_site_aniso_U_11
_atom_site_aniso_U_22
_atom_site_aniso_U_33
_atom_site_aniso_U_23
_atom_site_aniso_U_13
_atom_site_aniso_U_12
C1S 0.032(10) 0.040(9) 0.040(8) -0.019(7) -0.007(6) -0.003(7)
C2 0.027(9) 0.023(7) 0.036(8) -0.014(6) -0.014(7) 0.008(6)
C2S 0.065(12) 0.038(9) 0.052(9) -0.026(7) -0.030(7) 0.027(7)
C4 0.034(9) 0.034(7) 0.018(6) -0.017(6) -0.006(6) 0.005(6)
C4A 0.013(5) 0.031(5) 0.011(4) -0.008(3) -0.005(3) 0.010(4)
C6 0.026(5) 0.023(5) 0.021(4) -0.015(4) -0.001(4) 0.007(4)
C7 0.019(6) 0.029(5) 0.014(4) -0.008(4) -0.010(4) 0.007(4)
C8A 0.013(5) 0.031(5) 0.011(4) -0.008(3) -0.005(3) 0.010(4)
C61 0.026(5) 0.023(5) 0.021(4) -0.015(4) -0.001(4) 0.007(4)
C62 0.043(8) 0.026(7) 0.014(5) -0.010(5) -0.011(5) 0.014(6)
C63 0.023(5) 0.035(5) 0.024(4) -0.022(4) -0.006(4) 0.007(4)
C64 0.037(8) 0.024(7) 0.021(6) -0.019(5) -0.005(5) 0.016(6)
C65 0.023(5) 0.035(5) 0.024(4) -0.022(4) -0.006(4) 0.007(4)
C66 0.041(8) 0.025(7) 0.013(6) -0.007(5) -0.006(5) 0.018(6)
C72 0.019(6) 0.029(5) 0.014(4) -0.008(4) -0.010(4) 0.007(4)
C73A 0.046(10) 0.016(7) 0.019(6) -0.009(5) -0.005(6) -0.005(6)
C74 0.037(9) 0.024(7) 0.025(7) -0.009(6) -0.008(6) -0.003(6)
C75 0.025(9) 0.020(7) 0.043(8) -0.014(6) 0.014(6) 0.008(6)
C76 0.032(9) 0.026(8) 0.047(9) -0.011(6) -0.018(7) -0.004(7)
C77 0.047(10) 0.025(8) 0.018(7) -0.008(6) -0.010(6) 0.005(7)
C77A 0.038(10) 0.034(8) 0.007(6) 0.001(5) 0.004(6) 0.007(7)
N1 0.030(8) 0.028(7) 0.024(6) -0.016(5) -0.004(5) 0.000(6)
N3 0.034(8) 0.042(7) 0.016(5) -0.013(5) -0.007(5) -0.004(6)
O4 0.034(4) 0.039(4) 0.019(3) -0.021(3) -0.002(3) 0.004(3)
N5 0.022(6) 0.026(6) 0.020(5) -0.017(4) 0.002(4) 0.005(5)
N8 0.036(7) 0.035(6) 0.013(5) -0.018(4) -0.003(5) 0.004(5)
N71 0.033(7) 0.032(6) 0.024(5) -0.020(5) -0.011(5) 0.000(5)
N73 0.033(8) 0.022(6) 0.025(6) -0.009(5) 0.011(5) 0.004(5)
O1S 0.049(7) 0.036(5) 0.032(5) -0.023(4) 0.008(4) -0.010(5)
O2 0.034(4) 0.039(4) 0.019(3) -0.021(3) -0.002(3) 0.004(3)
O2S 0.059(9) 0.070(7) 0.062(7) -0.008(6) -0.013(6) 0.000(7)
O3S 0.041(7) 0.048(6) 0.019(4) -0.020(4) -0.008(4) 0.008(5)
S1 0.039(3) 0.034(2) 0.0283(18) -0.0205(16) -0.0051(16) 0.0020(17)
S2A 0.115(6) 0.030(4) 0.033(3) -0.013(3) -0.021(3) 0.012(3)
S2B 0.059(14) 0.028(13) 0.015(8) 0.001(7) 0.001(7) 0.015(8)
C4S 0.044(12) 0.095(14) 0.051(10) -0.020(9) 0.014(9) -0.020(10)
C3S 0.18(3) 0.16(2) 0.065(13) -0.077(13) -0.037(14) 0.084(18)
S3 0.047(3) 0.042(2) 0.0263(18) -0.0174(16) -0.0011(17) 0.0048(19)
C5S 0.023(9) 0.032(8) 0.053(9) -0.024(7) 0.006(7) 0.006(7)
C6S 0.055(12) 0.067(11) 0.037(8) -0.023(7) 0.010(7) -0.008(9)
Br1 0.0487(11) 0.0559(11) 0.0275(8) -0.0318(7) -0.0008(7) 0.0043(8)
loop_
_atom_type_symbol
_atom_type_description
_atom_type_scat_dispersion_real
_atom_type_scat_dispersion_imag
_atom_type_scat_source
C C 0.0033 0.0016 'International Tables Vol C Tables 4.2.6.8 and 6.1.1.4'
H H 0.0000 0.0000 'International Tables Vol C Tables 4.2.6.8 and 6.1.1.4'
N N 0.0061 0.0033 'International Tables Vol C Tables 4.2.6.8 and 6.1.1.4'
O O 0.0106 0.0060 'International Tables Vol C Tables 4.2.6.8 and 6.1.1.4'
S S 0.1246 0.1234 'International Tables Vol C Tables 4.2.6.8 and 6.1.1.4'
Br Br -0.2901 2.4595 'International Tables Vol C Tables 4.2.6.8 and 6.1.1.4'
loop_
_geom_angle_atom_site_label_1
_geom_angle_atom_site_label_2
_geom_angle_atom_site_label_3
_geom_angle
S1 C1S H1S1 109.5
S1 C1S H1S2 109.5
H1S1 C1S H1S2 109.5
S1 C1S H1S3 109.5
H1S1 C1S H1S3 109.5
H1S2 C1S H1S3 109.5
O2 C2 N1 126.1(11)
O2 C2 N3 118.5(13)
N1 C2 N3 115.4(11)
S1 C2S H2S1 109.5
S1 C2S H2S2 109.5
H2S1 C2S H2S2 109.5
S1 C2S H2S3 109.5
H2S1 C2S H2S3 109.5
H2S2 C2S H2S3 109.5
O4 C4 N3 117.8(11)
O4 C4 C4A 126.1(10)
N3 C4 C4A 116.0(10)
N5 C4A C8A 120.1(11)
N5 C4A C4 118.8(10)
C8A C4A C4 121.1(10)
N5 C6 C61 115.6(10)
N5 C6 C7 118.5(9)
C61 C6 C7 125.8(11)
N8 C7 C72 115.0(9)
N8 C7 C6 120.3(11)
C72 C7 C6 124.5(10)
N8 C8A N1 119.9(10)
N8 C8A C4A 122.5(10)
N1 C8A C4A 117.7(11)
C66 C61 C62 120.0(10)
C66 C61 C6 118.5(12)
C62 C61 C6 120.9(11)
C63 C62 C61 118.5(10)
C63 C62 H62 120.7
C61 C62 H62 120.7
C64 C63 C62 118.1(11)
C64 C63 H63 121.0
C62 C63 H63 121.0
C65 C64 C63 124.8(10)
C65 C64 Br1 118.2(8)
C63 C64 Br1 117.0(9)
C64 C65 C66 117.9(10)
C64 C65 H65 121.1
C66 C65 H65 121.1
C65 C66 C61 120.6(12)
C65 C66 H66 119.7
C61 C66 H66 119.7
N73 C72 N71 112.1(10)
N73 C72 C7 130.9(10)
N71 C72 C7 117.0(9)
C74 C73A N73 129.7(10)
C74 C73A C77A 120.3(11)
N73 C73A C77A 109.9(11)
C73A C74 C75 120.2(10)
C73A C74 H74 119.9
C75 C74 H74 119.9
C74 C75 C76 118.9(11)
C74 C75 H75 120.5
C76 C75 H75 120.5
C77 C76 C75 121.2(11)
C77 C76 H76 119.4
C75 C76 H76 119.4
C77A C77 C76 118.8(11)
C77A C77 H77 120.6
C76 C77 H77 120.6
N71 C77A C77 133.3(11)
N71 C77A C73A 106.2(11)
C77 C77A C73A 120.5(11)
C2 N1 C8A 126.0(11)
C2 N1 H1 127(7)
C8A N1 H1 107(7)
C4 N3 C2 123.7(12)
C4 N3 H3 108(8)
C2 N3 H3 127(8)
C6 N5 C4A 119.4(9)
C8A N8 C7 119.2(9)
C77A N71 C72 107.2(9)
C72 N73 C73A 104.6(9)
O1S S1 C1S 105.6(6)
O1S S1 C2S 107.4(6)
C1S S1 C2S 99.4(6)
O2S S2A C3S 110.3(10)
O2S S2A C4S 106.2(7)
C3S S2A C4S 94.3(9)
C3S S2B C4S 117.2(17)
C3S S2B O2S 116.1(13)
C4S S2B O2S 105.1(10)
S2A C4S H41A 109.5
S2A C4S H42A 109.5
H41A C4S H42A 109.5
S2A C4S H43A 109.5
H41A C4S H43A 109.5
H42A C4S H43A 109.5
S2B C4S H41B 109.5
S2B C4S H42B 109.5
H41B C4S H42B 109.5
S2B C4S H43B 109.5
H41B C4S H43B 109.5
H42B C4S H43B 109.5
S2A C3S H31A 109.5
S2A C3S H32A 109.5
H31A C3S H32A 109.5
S2A C3S H33A 109.5
H31A C3S H33A 109.5
H32A C3S H33A 109.5
S2B C3S H31B 109.5
S2B C3S H32B 109.5
H31B C3S H32B 109.5
S2B C3S H33B 109.5
H31B C3S H33B 109.5
H32B C3S H33B 109.5
O3S S3 C5S 107.1(6)
O3S S3 C6S 104.2(6)
C5S S3 C6S 97.6(6)
S3 C5S H51S 109.5
S3 C5S H52S 109.5
H51S C5S H52S 109.5
S3 C5S H53S 109.5
H51S C5S H53S 109.5
H52S C5S H53S 109.5
S3 C6S H61S 109.5
S3 C6S H62S 109.5
H61S C6S H62S 109.5
S3 C6S H63S 109.5
H61S C6S H63S 109.5
H62S C6S H63S 109.5
loop_
_geom_bond_atom_site_label_1
_geom_bond_atom_site_label_2
_geom_bond_distance
C1S S1 1.767(13)
C1S H1S1 0.9800
C1S H1S2 0.9800
C1S H1S3 0.9800
C2 O2 1.208(13)
C2 N1 1.320(15)
C2 N3 1.440(15)
C2S S1 1.805(13)
C2S H2S1 0.9800
C2S H2S2 0.9800
C2S H2S3 0.9800
C4 O4 1.234(12)
C4 N3 1.389(13)
C4 C4A 1.419(16)
C4A N5 1.347(12)
C4A C8A 1.405(15)
C6 N5 1.334(13)
C6 C61 1.470(13)
C6 C7 1.463(14)
C7 N8 1.334(12)
C7 C72 1.439(15)
C8A N8 1.291(13)
C8A N1 1.377(12)
C61 C66 1.376(16)
C61 C62 1.406(16)
C62 C63 1.394(13)
C62 H62 0.9500
C63 C64 1.363(14)
C63 H63 0.9500
C64 C65 1.334(15)
C64 Br1 1.933(9)
C65 C66 1.383(13)
C65 H65 0.9500
C66 H66 0.9500
C72 N73 1.322(13)
C72 N71 1.408(13)
C73A C74 1.379(16)
C73A N73 1.390(14)
C73A C77A 1.419(14)
C74 C75 1.403(15)
C74 H74 0.9500
C75 C76 1.409(15)
C75 H75 0.9500
C76 C77 1.407(16)
C76 H76 0.9500
C77 C77A 1.381(17)
C77 H77 0.9500
C77A N71 1.335(14)
N1 H1 0.85(9)
N3 H3 0.851(12)
O1S S1 1.487(8)
O2S S2A 1.462(11)
O2S S2B 1.68(2)
O3S S3 1.525(7)
S2A C3S 1.77(2)
S2A C4S 1.827(15)
S2B C3S 1.44(2)
S2B C4S 1.641(19)
C4S H41A 0.9800
C4S H42A 0.9800
C4S H43A 0.9800
C4S H41B 0.9800
C4S H42B 0.9800
C4S H43B 0.9800
C3S H31A 0.9800
C3S H32A 0.9800
C3S H33A 0.9800
C3S H31B 0.9800
C3S H32B 0.9800
C3S H33B 0.9800
S3 C5S 1.767(11)
S3 C6S 1.770(13)
C5S H51S 0.9800
C5S H52S 0.9800
C5S H53S 0.9800
C6S H61S 0.9800
C6S H62S 0.9800
C6S H63S 0.9800
loop_
_geom_torsion_atom_site_label_1
_geom_torsion_atom_site_label_2
_geom_torsion_atom_site_label_3
_geom_torsion_atom_site_label_4
_geom_torsion
O4 C4 C4A N5 3.6(19)
N3 C4 C4A N5 -179.7(10)
O4 C4 C4A C8A -176.9(11)
N3 C4 C4A C8A -0.2(16)
N5 C6 C7 N8 0.4(16)
C61 C6 C7 N8 178.7(11)
N5 C6 C7 C72 175.9(11)
C61 C6 C7 C72 -5.9(18)
N5 C4A C8A N8 0.9(17)
C4 C4A C8A N8 -178.6(12)
N5 C4A C8A N1 179.7(10)
C4 C4A C8A N1 0.2(16)
N5 C6 C61 C66 -54.9(15)
C7 C6 C61 C66 126.8(13)
N5 C6 C61 C62 116.7(13)
C7 C6 C61 C62 -61.6(17)
C66 C61 C62 C63 -1.2(17)
C6 C61 C62 C63 -172.7(11)
C61 C62 C63 C64 1.7(17)
C62 C63 C64 C65 -2.3(18)
C62 C63 C64 Br1 179.7(9)
C63 C64 C65 C66 2.2(18)
Br1 C64 C65 C66 -179.8(9)
C64 C65 C66 C61 -1.6(17)
C62 C61 C66 C65 1.2(18)
C6 C61 C66 C65 172.9(11)
N8 C7 C72 N73 176.4(11)
C6 C7 C72 N73 1(2)
N8 C7 C72 N71 -2.7(15)
C6 C7 C72 N71 -178.3(10)
N73 C73A C74 C75 179.0(12)
C77A C73A C74 C75 -1.3(18)
C73A C74 C75 C76 0.5(18)
C74 C75 C76 C77 1.3(18)
C75 C76 C77 C77A -2.4(19)
C76 C77 C77A N71 -176.7(14)
C76 C77 C77A C73A 1.6(18)
C74 C73A C77A N71 178.9(12)
N73 C73A C77A N71 -1.3(13)
C74 C73A C77A C77 0.2(18)
N73 C73A C77A C77 180.0(11)
O2 C2 N1 C8A -176.7(11)
N3 C2 N1 C8A 4.2(18)
N8 C8A N1 C2 176.4(12)
C4A C8A N1 C2 -2.4(17)
O4 C4 N3 C2 179.2(11)
C4A C4 N3 C2 2.2(17)
O2 C2 N3 C4 176.8(11)
N1 C2 N3 C4 -4.1(17)
C61 C6 N5 C4A -176.7(10)
C7 C6 N5 C4A 1.8(16)
C8A C4A N5 C6 -2.5(16)
C4 C4A N5 C6 177.1(11)
N1 C8A N8 C7 -177.4(9)
C4A C8A N8 C7 1.3(17)
C72 C7 N8 C8A -177.8(11)
C6 C7 N8 C8A -2.0(16)
C77 C77A N71 C72 179.4(13)
C73A C77A N71 C72 0.9(12)
N73 C72 N71 C77A -0.1(13)
C7 C72 N71 C77A 179.1(11)
N71 C72 N73 C73A -0.7(12)
C7 C72 N73 C73A -179.7(12)
C74 C73A N73 C72 -179.0(13)
C77A C73A N73 C72 1.2(13)
