#------------------------------------------------------------------------------
#$Date: 2019-11-09 02:19:25 +0200 (Sat, 09 Nov 2019) $
#$Revision: 225399 $
#$URL: file:///home/coder/svn-repositories/cod/cif/4/03/47/4034708.cif $
#------------------------------------------------------------------------------
#
# This file is available in the Crystallography Open Database (COD),
# http://www.crystallography.net/
#
# All data on this site have been placed in the public domain by the
# contributors.
#
data_4034708
loop_
_publ_author_name
'Chalyk, Bohdan A.'
'Khutorianskyi, Andrii'
'Lysenko, Andrii'
'Fil, Yulia'
'Kuchkovska, Yuliya O.'
'Gavrilenko, Konstantin S.'
'Bakanovych, Iulia'
'Moroz, Yurii S.'
'Gorlova, Alina O.'
'Grygorenko, Oleksandr O.'
_publ_section_title
;
 Regioselective Synthesis of Functionalized 3- or 5-Fluoroalkyl Isoxazoles
 and Pyrazoles from Fluoroalkyl Ynones and Binucleophiles.
;
_journal_name_full               'The Journal of organic chemistry'
_journal_paper_doi               10.1021/acs.joc.9b02258
_journal_year                    2019
_chemical_formula_moiety         'C6 H8 F2 N2 O'
_chemical_formula_sum            'C6 H8 F2 N2 O'
_chemical_formula_weight         162.14
_space_group_crystal_system      monoclinic
_space_group_IT_number           14
_space_group_name_Hall           '-P 2ybc'
_space_group_name_H-M_alt        'P 1 21/c 1'
_atom_sites_solution_hydrogens   mixed
_audit_creation_method           SHELXL-2016/4
_cell_angle_alpha                90
_cell_angle_beta                 105.295(11)
_cell_angle_gamma                90
_cell_formula_units_Z            4
_cell_length_a                   7.914(4)
_cell_length_b                   10.509(5)
_cell_length_c                   9.039(5)
_cell_measurement_reflns_used    697
_cell_measurement_temperature    138(2)
_cell_measurement_theta_max      24.78
_cell_measurement_theta_min      2.67
_cell_volume                     725.1(6)
_computing_cell_refinement       'Bruker SMART'
_computing_data_collection       'Bruker SMART'
_computing_data_reduction        'Bruker SAINT'
_computing_molecular_graphics    'Bruker SHELXTL'
_computing_publication_material  'Bruker SHELXTL'
_computing_structure_refinement  'SHELXL-2016/4 (Sheldrick, 2016)'
_computing_structure_solution    'Bruker SHELXTL'
_diffrn_ambient_temperature      138(2)
_diffrn_measured_fraction_theta_full 1.000
_diffrn_measured_fraction_theta_max 0.997
_diffrn_measurement_device_type  'CCD area detector'
_diffrn_measurement_method       'omega scans'
_diffrn_radiation_monochromator  graphite
_diffrn_radiation_source         'sealed tube'
_diffrn_radiation_type           MoK\a
_diffrn_radiation_wavelength     0.71073
_diffrn_reflns_av_R_equivalents  0.0425
_diffrn_reflns_av_unetI/netI     0.0344
_diffrn_reflns_Laue_measured_fraction_full 1.000
_diffrn_reflns_Laue_measured_fraction_max 0.997
_diffrn_reflns_limit_h_max       9
_diffrn_reflns_limit_h_min       -9
_diffrn_reflns_limit_k_max       13
_diffrn_reflns_limit_k_min       -12
_diffrn_reflns_limit_l_max       11
_diffrn_reflns_limit_l_min       -11
_diffrn_reflns_number            6625
_diffrn_reflns_point_group_measured_fraction_full 1.000
_diffrn_reflns_point_group_measured_fraction_max 0.997
_diffrn_reflns_theta_full        25.242
_diffrn_reflns_theta_max         26.454
_diffrn_reflns_theta_min         2.668
_exptl_absorpt_coefficient_mu    0.137
_exptl_absorpt_correction_T_max  0.99
_exptl_absorpt_correction_T_min  0.65
_exptl_absorpt_correction_type   multi-scan
_exptl_absorpt_process_details   SADABS
_exptl_crystal_colour            colourless
_exptl_crystal_density_diffrn    1.485
_exptl_crystal_description       plate
_exptl_crystal_F_000             336
_exptl_crystal_size_max          0.500
_exptl_crystal_size_mid          0.400
_exptl_crystal_size_min          0.080
_refine_diff_density_max         0.401
_refine_diff_density_min         -0.188
_refine_diff_density_rms         0.046
_refine_ls_extinction_method     none
_refine_ls_goodness_of_fit_ref   1.074
_refine_ls_hydrogen_treatment    mixed
_refine_ls_matrix_type           full
_refine_ls_number_parameters     109
_refine_ls_number_reflns         1488
_refine_ls_number_restraints     0
_refine_ls_restrained_S_all      1.074
_refine_ls_R_factor_all          0.0825
_refine_ls_R_factor_gt           0.0475
_refine_ls_shift/su_max          0.004
_refine_ls_shift/su_mean         0.000
_refine_ls_structure_factor_coef Fsqd
_refine_ls_weighting_details
'w=1/[\s^2^(Fo^2^)+(0.0500P)^2^+0.4833P] where P=(Fo^2^+2Fc^2^)/3'
_refine_ls_weighting_scheme      calc
_refine_ls_wR_factor_gt          0.1168
_refine_ls_wR_factor_ref         0.1400
_reflns_Friedel_coverage         0.000
_reflns_number_gt                998
_reflns_number_total             1488
_reflns_threshold_expression     'I > 2\s(I)'
_cod_data_source_file            jo9b02258_si_002.cif
_cod_data_source_block           xr25
_cod_original_cell_volume        725.1(7)
_cod_original_sg_symbol_H-M      'P 21/c'
_cod_database_code               4034708
_shelx_shelxl_version_number     2016/4
_shelx_space_group_comment
;
The symmetry employed for this shelxl refinement is uniquely defined
by the following loop, which should always be used as a source of
symmetry information in preference to the above space-group names.
They are only intended as comments.
;
_shelx_estimated_absorpt_t_min   0.935
_shelx_estimated_absorpt_t_max   0.989
_shelx_res_file
;
TITL xr25 in P2(1)/c
 xr25.res created by SHELXL-2016/4 at 19:23:36 on 06-Jun-2018
CELL 0.71073   7.9141  10.5087   9.0392  90.000 105.295  90.000
ZERR    4.00   0.0043   0.0052   0.0051   0.000   0.011   0.000
LATT 1
SYMM -X, 0.5+Y, 0.5-Z
SFAC C  H  N  O  F
UNIT 24  32  8  4  8
L.S. 4
BOND
acta
conf
htab
FMAP 2
PLAN 20
SIZE 0.08 0.40 0.50
TEMP -135
WGHT    0.050000    0.483300
FVAR       0.98974
MOLE 1
F1    5    0.619431    0.299785    0.490596    11.00000    0.10887    0.09369 =
         0.06454    0.01733    0.03875   -0.03041
F2    5    0.694586    0.478474    0.602932    11.00000    0.11297    0.09023 =
         0.04866    0.00548    0.04747    0.02948
O1    4    0.951649    0.659327    0.026240    11.00000    0.06674    0.04042 =
         0.05414   -0.00295    0.03706   -0.00769
N1    3    0.891802    0.442557    0.194958    11.00000    0.05560    0.04431 =
         0.03661   -0.00224    0.02550   -0.00549
N2    3    0.886971    0.371763    0.317549    11.00000    0.05719    0.03912 =
         0.03587    0.00081    0.02236   -0.00033
C1    1    0.787090    0.437334    0.385079    11.00000    0.04766    0.04387 =
         0.02688   -0.00281    0.01148   -0.00272
C2    1    0.729660    0.550549    0.307594    11.00000    0.05261    0.04111 =
         0.03380   -0.00046    0.01607    0.00169
AFIX  43
H2    2    0.657006    0.613745    0.334206    11.00000   -1.20000
AFIX   0
C3    1    0.800115    0.550937    0.185746    11.00000    0.04494    0.03735 =
         0.03550   -0.00287    0.01176   -0.00412
C4    1    0.750866    0.385029    0.525945    11.00000    0.05971    0.06262 =
         0.03634    0.00523    0.02177    0.01176
AFIX  13
H4    2    0.858841    0.344722    0.592451    11.00000   -1.20000
AFIX   0
C5    1    0.785070    0.642364    0.055600    11.00000    0.06025    0.04052 =
         0.03985    0.00045    0.02356   -0.00394
AFIX  13
H5    2    0.743160    0.726270    0.084273    11.00000   -1.20000
AFIX   0

C6    1    0.660054    0.595870   -0.087578    11.00000    0.08482    0.05083 =
         0.04040    0.00574    0.01827   -0.00928
AFIX 137
H6A   2    0.655499    0.656776   -0.170640    11.00000   -1.50000
H6B   2    0.543208    0.587285   -0.070778    11.00000   -1.50000
H6C   2    0.699171    0.512949   -0.115551    11.00000   -1.50000
AFIX   0
H1N   2    0.955828    0.416269    0.136474    11.00000    0.04209
H1O   2    1.003800    0.712624    0.073796    11.00000    0.10437
HKLF 4




REM  xr25 in P2(1)/c
REM R1 =  0.0475 for     998 Fo > 4sig(Fo)  and  0.0825 for all    1488 data
REM    109 parameters refined using      0 restraints

END

WGHT      0.0480      0.4987

REM Instructions for potential hydrogen bonds
EQIV $1 x, y, z-
HTAB C6 F2_$1
EQIV $2 -x+2, -y+1, -
HTAB N1 O1_$2
EQIV $3 -x+2, y+1/2, -z+1/
HTAB O1 N2_$3

REM Highest difference peak  0.401,  deepest hole -0.188,  1-sigma level  0.046
Q1    1   0.6190  0.6706 -0.0193  11.00000  0.05    0.40
Q2    1   0.7792  0.5709 -0.0013  11.00000  0.05    0.39
Q3    1   0.7824  0.4199  0.4529  11.00000  0.05    0.20
Q4    1   0.9617  0.3239  0.3372  11.00000  0.05    0.17
Q5    1   0.9598  0.6414 -0.0727  11.00000  0.05    0.16
Q6    1   0.6647  0.2213  0.4332  11.00000  0.05    0.16
Q7    1   0.5752  0.4186  0.5449  11.00000  0.05    0.15
Q8    1   0.7110  0.5536  0.2129  11.00000  0.05    0.15
Q9    1   0.7265  0.4510  0.3354  11.00000  0.05    0.14
Q10   1   0.5000  0.5000  0.5000  10.50000  0.05    0.14
Q11   1   0.7442  0.2756  0.5180  11.00000  0.05    0.14
Q12   1   0.7950  0.4922  0.1545  11.00000  0.05    0.13
Q13   1   0.7837  0.5973  0.1280  11.00000  0.05    0.13
Q14   1   0.8251  0.3878  0.3645  11.00000  0.05    0.13
Q15   1   0.6031  0.5441  0.4764  11.00000  0.05    0.12
Q16   1   0.8444  0.4860  0.3949  11.00000  0.05    0.12
Q17   1   0.8691  0.5206  0.7049  11.00000  0.05    0.12
Q18   1   1.0174  0.5776  0.0497  11.00000  0.05    0.12
Q19   1   0.6802  0.7002  0.3336  11.00000  0.05    0.12
Q20   1   0.4939  0.6105 -0.0877  11.00000  0.05    0.12
;
_shelx_res_checksum              10609
_shelx_hkl_file
;
  -1   0   0 1163.51   47.56
   1   0   0 1185.32   47.65
   1   0   0 1232.39   51.31
  -1   0   0 1236.68   51.32
  -1   0   0 1191.26   47.70
   1   0   0 1136.57   47.72
   1   0   0 1131.17   60.20
  -1   0   0 1151.00   60.33
  -2   0   0 5903.37  218.35
  -2   0   0 5605.22  275.80
  -2   0   0 5624.43  218.50
  -2   0   0 5356.93  234.55
   2   0   0 5212.63  234.45
   2   0   0 5408.51  275.46
   2   0   0 5378.62  218.58
   2   0   0 5444.92  218.40
  -3   0   0  396.24   20.20
   3   0   0  385.54   20.07
   3   0   0  394.31   16.44
   3   0   0  383.74   16.09
  -3   0   0  397.25   16.51
   3   0   0  353.00   17.68
  -3   0   0  351.12   17.77
   4   0   0    1.15    1.77
  -4   0   0   -1.69    1.67
   4   0   0    2.21    1.41
  -4   0   0   -1.20    1.63
   4   0   0    1.37    1.53
   4   0   0   -0.20    1.51
   5   0   0    5.97    2.51
  -5   0   0    4.28    2.30
   5   0   0    4.25    2.32
   5   0   0    4.85    1.93
  -5   0   0   -1.43    2.26
   6   0   0   91.16    6.81
  -6   0   0   84.79    7.13
   6   0   0   85.51    5.43
  -6   0   0   80.61    6.79
  -7   0   0   71.91    6.79
   8   0   0    1.54    2.51
  -8   0   0    4.85    3.94
   9   0   0   10.43    3.10
   0  -1   0   -3.37    0.48
   0   1   0   -4.03    0.43
   0  -1   0   -2.13    0.38
   0  -1   0   -3.38    0.50
   0   1   0   -3.80    0.46
  -1   1   0  174.72    7.39
   1   1   0  166.17    7.99
   1  -1   0  172.61    7.32
  -1  -1   0  165.45    7.45
  -1  -1   0  164.20    8.02
  -1   1   0  163.92    7.32
   1   1   0  173.99    7.21
   1  -1   0  165.63    9.24
   1   1   0  157.34    7.42
   1  -1   0  152.56    7.31
  -1  -1   0  184.01    7.22
  -1   1   0  170.58    9.29
  -2  -1   0   30.54    2.59
  -2   1   0   42.08    2.59
   2  -1   0   35.35    2.39
  -2  -1   0   34.89    2.07
  -2   1   0   30.26    2.74
   2   1   0   34.81    2.33
   2  -1   0   34.80    2.73
  -2  -1   0   34.90    2.37
  -2   1   0   38.43    3.02
   2   1   0   34.60    2.59
   2  -1   0   32.92    2.86
   2   1   0   34.58    2.06
  -2   1   0   36.43    2.38
   2   1   0   30.00    2.52
  -2  -1   0   39.69    2.64
   3  -1   0  292.43   14.06
   3   1   0  292.88   14.00
  -3   1   0  267.18   13.97
   3   1   0  293.02   15.31
  -3   1   0  295.61   15.99
   3   1   0  300.96   12.37
  -3  -1   0  289.11   15.40
   3  -1   0  285.00   12.66
   3  -1   0  279.20   15.77
  -3   1   0  301.50   12.92
  -3  -1   0  273.20   14.05
   3   1   0  281.86   12.90
  -3  -1   0  317.96   12.51
  -4   1   0   37.64    3.82
   4   1   0   39.03    3.70
   4  -1   0   43.13    3.84
  -4  -1   0   38.64    3.95
   4   1   0   41.37    2.87
   4   1   0   45.14    3.34
   4  -1   0   44.18    3.84
   4   1   0   35.39    3.29
   4  -1   0   40.77    3.19
  -4  -1   0   37.13    3.43
  -4   1   0   37.29    3.73
  -5   1   0  106.73    7.89
   5  -1   0  122.70    7.86
   5  -1   0  107.49    6.28
   5   1   0  118.45    6.91
   5   1   0  108.38    7.39
  -5  -1   0  115.07    7.55
   5  -1   0  119.78    7.64
   5   1   0  113.87    6.06
  -5  -1   0  112.15    7.90
  -5   1   0  112.33    7.77
   6   1   0   54.10    5.30
   6  -1   0   57.14    4.36
  -6  -1   0   59.27    5.92
  -6   1   0   46.92    5.49
   6   1   0   55.64    4.80
  -6  -1   0   52.18    5.08
  -6   1   0   54.29    5.68
   6   1   0   50.68    3.98
   6  -1   0   60.55    5.51
   7   1   0   90.10    5.88
  -7  -1   0   91.34    7.44
  -7   1   0   85.64    7.89
   7  -1   0   90.11    6.15
  -8   1   0    3.01    4.08
  -8   1   0    3.07    4.12
   8  -1   0   -3.55    2.65
   8   1   0   -0.85    2.35
   9  -1   0   -1.96    2.66
  -9   1   0    0.34    3.99
   9   1   0   -1.66    2.38
   0  -2   0 3587.19  141.97
   0  -2   0 3694.74  180.39
   0  -2   0 3609.21  142.80
   0   2   0 3474.20  142.07
   0   2   0 3444.00  180.14
  -1   2   0   72.49    3.70
   1  -2   0   72.64    3.65
   1   2   0   73.15    3.97
   1   2   0   69.23    3.81
  -1   2   0   68.02    4.55
   1  -2   0   72.82    3.67
  -1  -2   0   67.62    4.04
  -1   2   0   72.80    3.74
  -1  -2   0   70.30    3.80
   1  -2   0   75.60    4.64
   2   2   0 2799.41  115.38
  -2  -2   0 3089.78  115.38
   2  -2   0 2808.25  115.02
  -2   2   0 3056.66  145.44
  -2  -2   0 2855.46  115.38
   2  -2   0 3018.68  145.29
   2  -2   0 2914.65  115.23
   2   2   0 3023.44  115.53
   2  -2   0 2610.59  123.69
  -2   2   0 2892.77  115.27
   2   2   0 2859.76  123.78
  -2  -2   0 2672.27  123.80
  -3  -2   0   86.38    5.62
   3   2   0   86.12    4.13
  -3  -2   0   96.85    4.29
   3  -2   0   91.29    4.88
   3   2   0   86.27    5.05
   3  -2   0   80.03    5.28
  -3   2   0   85.53    4.91
  -3   2   0   88.60    6.11
   3   2   0   89.14    5.35
  -3  -2   0   76.53    4.95
   3  -2   0   93.01    6.03
   4   2   0  158.60    7.39
  -4  -2   0  162.22    9.13
   4   2   0  158.99    9.03
  -4   2   0  157.64   10.23
  -4  -2   0  160.63    9.37
   4  -2   0  155.51    8.08
   4   2   0  169.51    8.48
   4  -2   0  170.28   10.11
  -4   2   0  164.15    8.19
   4  -2   0  158.62    9.08
   5   2   0  121.87    6.07
   5  -2   0  123.60    6.83
   5  -2   0  116.15    7.68
  -5  -2   0  109.00    7.32
   5   2   0  111.58    7.52
   5   2   0  134.90    7.40
  -5   2   0  111.33    8.56
  -5   2   0  114.65    6.82
  -5  -2   0  117.50    8.06
  -6   2   0   -6.12    3.13
  -6  -2   0   -5.14    2.48
   6   2   0   -6.17    1.64
  -6  -2   0   -2.96    2.90
   6  -2   0   -4.27    1.98
  -6   2   0    0.53    2.52
   6  -2   0    2.36    2.60
   6   2   0    1.48    2.34
   6   2   0   -3.02    2.52
   7   2   0    0.29    2.09
  -7   2   0    0.06    3.59
   7  -2   0    1.23    2.45
  -7   2   0   -5.06    2.80
   7   2   0   -1.03    2.81
  -7  -2   0    0.63    2.92
   8   2   0   -1.90    2.06
  -8   2   0    3.61    3.74
   8  -2   0    0.33    2.95
  -8   2   0   -1.14    3.97
  -9   2   0    4.71    4.29
   9  -2   0    1.95    3.14
  -9   2   0    4.88    4.75
   0   3   0    1.40    1.15
   0   3   0   -1.20    1.24
   0   3   0   -0.43    0.52
   0  -3   0   -2.64    0.99
   0  -3   0    0.52    1.19
   0  -3   0    0.42    0.82
   1  -3   0    2.50    1.57
  -1   3   0    2.14    1.62
   1   3   0    2.01    0.96
  -1  -3   0    1.13    0.54
   1   3   0    1.99    1.40
   1  -3   0    3.36    1.25
   1  -3   0    2.62    1.19
  -1  -3   0    2.18    1.38
  -1   3   0    2.74    1.41
   2   3   0 1724.49   71.29
  -2   3   0 1778.59   89.63
  -2  -3   0 1744.72   76.53
   2   3   0 1734.36   76.48
   2  -3   0 1781.44   89.52
   2  -3   0 1786.61   70.91
  -2   3   0 1753.03   71.07
   2  -3   0 1797.07   71.02
   3   3   0   69.31    4.58
  -3  -3   0   66.46    3.26
   3   3   0   64.27    3.17
  -3   3   0   65.45    5.44
   3  -3   0   67.77    4.30
  -3  -3   0   68.13    5.02
   3  -3   0   73.62    4.89
   3   3   0   69.23    4.77
  -3   3   0   72.62    4.35
   3  -3   0   70.43    5.37
   4  -3   0   14.49    2.91
   4   3   0   12.31    1.57
  -4  -3   0   11.23    2.91
  -4   3   0   11.22    2.45
  -4  -3   0   11.77    1.69
   4   3   0   13.71    2.79
  -4   3   0   11.89    3.19
   4  -3   0   13.14    2.54
   4   3   0   15.90    2.74
  -5   3   0    7.84    3.32
   5  -3   0   10.83    2.58
   5  -3   0    8.07    2.70
   5   3   0    7.32    2.83
   5   3   0    6.70    2.66
   5   3   0   11.41    1.86
  -5  -3   0   13.08    3.65
  -5   3   0    4.31    2.60
   6   3   0   67.43    5.53
   6  -3   0   53.16    5.64
  -6   3   0   63.28    6.84
   6  -3   0   62.33    4.97
   6   3   0   63.95    4.09
   6   3   0   63.64    5.74
  -6  -3   0   67.12    6.64
  -6   3   0   64.15    5.30
  -7   3   0   37.33    6.24
   7   3   0   45.84    5.30
  -7   3   0   35.69    5.07
   7   3   0   41.03    3.49
   7  -3   0   35.46    4.37
   8   3   0   12.51    4.00
   8  -3   0    8.87    3.53
  -8   3   0   -4.11    4.20
  -8   3   0    3.12    4.01
  -9   3   0    0.86    5.04
   9  -3   0   -0.56    3.10
   0  -4   0 1001.70   39.64
   0   4   0  925.06   50.08
   0  -4   0 1037.78   50.20
   0   4   0  960.62   40.35
   1  -4   0  800.83   32.02
   1  -4   0  837.35   40.55
   1   4   0  773.01   31.40
   1   4   0  760.36   39.79
   1   4   0  744.16   32.45
  -1  -4   0  786.30   31.49
  -1   4   0  777.87   32.42
  -1   4   0  767.26   40.46
  -2   4   0  140.10    8.99
   2  -4   0  152.03    9.04
   2   4   0  134.78    7.41
  -2  -4   0  137.74    7.90
   2  -4   0  140.69    7.05
  -2   4   0  141.69    7.26
  -3   4   0   98.77    7.38
   3  -4   0  100.84    7.29
   3   4   0  105.80    6.69
   3   4   0  108.14    6.33
  -3   4   0  108.93    6.07
  -3  -4   0  106.57    6.81
   3  -4   0  102.53    5.92
   4   4   0    3.01    2.37
  -4   4   0   -0.84    2.42
  -4  -4   0    0.71    2.36
   4   4   0   -2.66    2.15
   4  -4   0   -0.34    2.10
  -4   4   0    2.76    2.18
   4   4   0    1.65    0.91
   4  -4   0    0.11    1.98
  -5   4   0    3.98    2.55
  -5  -4   0   11.61    3.35
   5   4   0    4.83    2.77
   5  -4   0    6.28    2.73
   5   4   0    1.92    2.55
   5  -4   0    3.53    2.25
  -5   4   0    4.49    3.32
   5   4   0    5.59    1.39
   6   4   0   14.63    2.06
   6   4   0   26.62    4.35
  -6   4   0   24.59    5.32
  -6  -4   0   14.53    4.47
  -6   4   0   11.64    3.55
   6  -4   0   18.00    3.49
   6   4   0   23.58    4.13
  -7   4   0   10.05    3.86
   7   4   0   19.25    4.27
   7  -4   0   14.67    3.61
  -7   4   0   14.99    5.47
   8   4   0    9.19    4.00
   8  -4   0    6.05    3.58
  -8   4   0    6.88    5.31
  -8   4   0    2.11    3.77
   9  -4   0    4.32    3.56
  -9   4   0   -0.10    5.33
   0  -5   0   -0.81    1.17
   0   5   0   -0.16    1.68
   0   5   0   -2.09    1.57
  -1   5   0   68.90    4.53
   1  -5   0   64.64    5.35
   1   5   0   68.55    3.24
  -1  -5   0   66.97    3.24
   1   5   0   66.39    4.59
  -1   5   0   59.53    5.12
   1  -5   0   63.18    3.99
   1   5   0   62.49    4.31
  -2   5   0   36.20    3.50
   2  -5   0   37.26    4.10
   2   5   0   37.57    2.57
   2  -5   0   35.74    3.11
  -2  -5   0   34.97    3.66
   2   5   0   40.12    3.99
  -2   5   0   34.41    4.08
  -3   5   0  145.00    7.70
   3  -5   0  133.32    7.36
  -3   5   0  122.62    9.33
  -3  -5   0  136.74    8.42
   3   5   0  147.51    8.06
  -4   5   0   82.92    5.67
  -4   5   0   68.08    6.90
   4  -5   0   85.67    6.25
  -4  -5   0   93.16    6.71
   4  -5   0   78.17    5.52
   4   5   0   80.73    5.97
   5  -5   0    1.71    2.33
  -5   5   0    6.66    2.92
   5   5   0    3.78    2.82
  -5  -5   0    5.33    3.16
   5   5   0    0.10    2.49
   5  -5   0    0.60    2.17
  -5   5   0   -1.01    3.15
   6  -5   0   58.98    5.40
  -6   5   0   64.75    7.47
   6   5   0   72.02    6.17
  -6   5   0   70.75    5.82
   7   5   0   13.14    4.18
  -7   5   0   11.03    5.27
   7  -5   0    5.76    3.23
  -7   5   0    9.75    3.92
   8  -5   0   11.37    3.85
   8   5   0   13.36    4.55
  -8   5   0   11.02    5.70
   0   6   0    9.48    2.60
   0   6   0   11.62    2.65
   0  -6   0   11.78    1.83
   1  -6   0   22.33    3.67
   1   6   0   26.86    1.93
  -1  -6   0   23.00    1.84
   1   6   0   28.46    3.45
   1  -6   0   20.57    2.57
  -1   6   0   22.68    3.61
   1   6   0   24.64    2.68
  -1   6   0   24.68    3.36
  -2   6   0  127.68    9.27
  -2  -6   0  140.48    8.38
   2  -6   0  145.09    7.32
  -2   6   0  129.26    7.81
   2   6   0  129.11    7.82
   2   6   0  141.30    7.74
  -3   6   0   67.77    6.45
  -3  -6   0   67.88    5.71
   3   6   0   68.60    5.45
  -3   6   0   68.33    5.26
   3  -6   0   75.68    5.06
   4  -6   0    2.18    2.45
  -4  -6   0    5.33    2.74
  -4   6   0    3.61    2.54
   4   6   0    1.96    2.70
  -4   6   0    2.74    2.98
   5  -6   0    0.60    2.57
  -5   6   0   -2.25    3.65
   5  -6   0    1.20    2.55
   5   6   0    3.04    2.96
  -5   6   0   -0.39    3.17
  -5  -6   0    0.77    2.90
   6   6   0   -3.65    2.56
  -6   6   0   -2.40    3.95
  -6   6   0   -3.52    3.31
   6  -6   0   -2.05    2.56
   7   6   0    0.78    3.43
  -7   6   0    2.61    4.84
  -7   6   0    5.41    3.62
   7  -6   0   -0.74    2.77
   8   6   0    4.52    3.80
   8  -6   0    3.62    3.24
   0   7   0    0.62    2.12
   0   7   0   -2.84    1.87
   0  -7   0   -1.54    1.25
   1   7   0    6.31    2.96
   1  -7   0    3.80    1.96
  -1   7   0    1.99    2.65
   1   7   0    3.30    1.86
  -1  -7   0    6.14    1.40
  -1   7   0    6.15    2.68
   2   7   0  285.64   14.70
  -2  -7   0  253.60   14.28
  -2   7   0  252.50   16.21
  -2   7   0  269.23   13.42
   2  -7   0  284.60   12.81
   2   7   0  269.95   13.65
   3   7   0   32.00    4.40
  -3  -7   0   38.64    4.90
  -3   7   0   40.11    4.47
  -3   7   0   27.30    5.13
   3  -7   0   38.03    4.06
  -4   7   0    0.25    3.38
  -4   7   0    0.35    2.72
   4   7   0   -4.09    2.36
   4  -7   0   -3.87    2.24
  -4  -7   0    0.09    2.91
  -5   7   0  100.41    7.16
  -5   7   0   79.67    8.58
   5  -7   0   91.99    6.71
   5   7   0   88.31    7.22
  -6   7   0   -0.91    4.51
  -6   7   0    1.35    3.54
   6   7   0   -1.60    2.71
   6  -7   0    2.49    2.98
   7   7   0    5.20    3.71
   7  -7   0   -1.06    3.12
  -7   7   0   -4.35    3.12
  -7   7   0   -0.79    4.92
   8  -7   0   -1.98    3.19
   0   8   0   74.78    5.83
   0  -8   0   69.68    4.33
   0   8   0   72.83    5.95
  -1   8   0    1.14    2.77
   1  -8   0    1.75    1.98
   1   8   0   -2.27    2.32
  -1  -8   0   -0.86    1.22
   1   8   0   -0.28    1.40
  -1   8   0   -3.09    2.26
  -2  -8   0   -0.79    2.22
  -2   8   0   -4.65    2.79
   2   8   0   -2.56    1.76
   2   8   0   -1.30    2.39
  -2   8   0    3.36    2.86
   2  -8   0   -0.13    2.08
  -3  -8   0    7.10    3.29
  -3   8   0    1.82    2.97
  -3   8   0    2.63    3.75
   3   8   0    7.83    3.43
   3  -8   0   -0.05    2.38
   4   8   0   -3.25    2.52
   4  -8   0   -1.40    2.69
  -4   8   0   -0.47    4.00
  -4   8   0    3.06    3.40
  -5   8   0   20.70    4.73
   5   8   0   22.97    4.72
   5  -8   0   18.59    3.94
  -5   8   0   19.63    5.82
  -6   8   0    0.54    3.94
   6   8   0    2.90    3.47
   6  -8   0    0.71    3.05
  -6   8   0    1.47    4.71
   7  -8   0    3.01    3.38
   7   8   0    8.62    4.36
   0   9   0   -2.75    2.90
   0   9   0   -5.80    2.40
   0  -9   0   -0.93    1.63
  -1  -9   0    0.59    1.73
   1  -9   0    3.95    2.36
   1   9   0    1.58    1.93
  -1   9   0   -0.72    3.41
  -1   9   0   -2.48    2.94
   1   9   0    4.77    3.24
  -2   9   0    4.33    3.63
   2  -9   0    5.04    2.71
  -2   9   0    5.47    3.53
   2   9   0    1.27    2.38
   2   9   0    3.25    3.68
  -2  -9   0    3.46    3.24
  -3   9   0    9.34    3.49
   3  -9   0   -0.52    2.67
   3   9   0    3.08    3.44
  -3   9   0   -2.70    3.86
  -4   9   0   37.62    6.77
   4  -9   0   38.00    4.94
  -4   9   0   46.60    5.72
   4   9   0   38.89    5.73
  -5   9   0   22.46    4.82
   5   9   0   25.90    5.09
  -5   9   0   19.04    6.28
   5  -9   0   21.92    4.37
   6  -9   0   40.70    5.53
   6   9   0   38.03    6.13
  -6   9   0   52.11    6.50
   0 -10   0  169.35    8.52
   0  10   0  164.61   10.53
   0  10   0  169.63   11.45
   1  10   0  131.16    9.43
  -1  10   0  145.62    9.63
  -1  10   0  136.03   10.47
   1 -10   0  149.85    8.00
  -2  10   0   12.38    3.97
  -2  10   0    9.43    4.66
   2 -10   0   15.31    3.35
   2  10   0    8.42    3.95
   3  10   0   52.70    6.44
  -3  10   0   53.02    7.63
   3 -10   0   46.51    5.04
  -3  10   0   40.11    5.93
   4 -10   0   18.98    4.13
  -4  10   0   18.77    5.98
   4  10   0   24.65    5.30
  -4  10   0   21.14    5.19
  -5  10   0    3.18    3.86
   5 -10   0    9.68    3.88
   5  10   0    1.68    3.61
   6  10   0    3.11    3.81
   6 -10   0    2.93    3.37
   0  11   0   -0.14    3.67
   0  11   0   -4.25    3.45
   1  11   0   29.53    5.49
   1 -11   0   33.36    4.06
  -1  11   0   22.81    5.08
  -1  11   0   30.90    6.07
  -2  11   0   -3.47    4.52
   2 -11   0    3.31    2.86
   2  11   0    1.66    3.64
  -2  11   0   -0.68    3.51
   3  11   0   -3.66    3.94
  -3  11   0    2.25    3.96
  -3  11   0   -5.71    4.31
   3 -11   0    1.74    2.87
   4 -11   0    9.40    3.62
  -4  11   0    9.92    4.59
   4  11   0    6.77    4.21
  -4  11   0   19.93    6.32
   5  11   0    9.26    4.42
   5 -11   0   13.25    4.09
  -5  11   0   17.22    5.15
   0  12   0   25.86    5.58
  -1  12   0    4.26    4.27
  -1  12   0    1.23    4.51
   1  12   0   -3.94    4.17
  -2  12   0   15.34    5.75
   2  12   0   10.93    4.72
  -2  12   0   11.21    4.68
   2 -12   0   29.43    4.27
  -3  12   0   10.01    5.80
  -3  12   0    7.97    4.63
   3  12   0   10.38    5.01
   3 -12   0   21.05    4.13
   0  13   0   -4.43    3.89
  -1  13   0    0.74    4.46
   9   0  -1   -1.07    2.62
   8   0  -1   -0.84    2.50
  -8   0   1    3.23    4.07
  -7   0   1   -2.47    3.80
   7   0  -1   -1.62    2.38
   6   0  -1   -4.08    2.28
   6   0  -1   -0.67    2.02
  -6   0   1    1.04    2.65
  -6   0   1   -7.75    2.74
   6   0  -1   -0.47    2.13
  -5   0   1   -3.35    2.18
   5   0  -1   -2.34    1.63
   5   0  -1   -1.57    1.75
   5   0  -1   -0.95    1.47
   5   0  -1   -1.06    1.90
  -5   0   1   -0.73    2.12
   4   0  -1    2.56    1.74
   4   0  -1    0.13    1.58
   4   0  -1    0.36    1.36
  -4   0   1   -1.97    1.66
   4   0  -1    0.44    1.36
  -4   0   1   -0.81    1.71
  -3   0   1    5.17    1.35
   3   0  -1    4.81    1.30
   3   0  -1    7.09    1.44
   3   0  -1    4.87    1.63
  -3   0   1    6.23    1.70
   3   0  -1    5.48    1.63
  -3   0   1    4.99    1.93
  -2   0   1    0.25    0.95
   2   0  -1   -0.23    0.84
  -2   0   1   -2.55    0.83
  -2   0   1    0.62    0.53
   2   0  -1   -1.16    1.01
   2   0  -1   -1.08    0.66
   2   0  -1    0.96    0.99
  -1   0   1   -0.56    0.56
   1   0  -1    0.43    0.62
  -1   0   1    0.50    0.40
   1   0  -1   -0.42    0.47
   1   0  -1   -0.23    0.35
   0   0  -1   -0.77    0.54
   0   0  -1   -0.61    0.71
   0   0   1   -1.17    0.63
   0   0  -1    0.00    0.63
  -1   0  -1    0.01    0.93
  -1   0  -1    0.90    0.88
  -1   0  -1    0.68    0.68
   1   0   1    0.61    0.68
   1   0   1    1.47    0.80
   2   0   1   17.75    1.79
  -2   0  -1   15.11    1.72
  -2   0  -1   11.37    2.05
   2   0   1   11.30    2.10
  -2   0  -1   18.15    2.17
  -2   0  -1   12.38    2.15
   3   0   1    2.40    1.58
  -3   0  -1    1.32    1.79
  -3   0  -1    1.63    1.69
   3   0   1    1.42    1.32
   4   0   1   -4.71    1.64
  -4   0  -1   -1.15    1.86
   4   0   1    1.26    1.47
  -4   0  -1    1.93    2.09
  -5   0  -1    3.48    2.63
   5   0   1   -1.41    1.72
  -5   0  -1   -2.51    2.24
   5   0   1   -0.02    2.11
  -6   0  -1    0.54    2.82
   6   0   1   -1.45    1.88
   6   0   1   -1.07    2.48
  -6   0  -1   -0.28    3.03
   7   0   1    1.99    2.49
  -7   0  -1    1.79    3.48
   8   0   1    1.05    2.52
   9   0   1    1.41    2.74
  -9   0  -1   -2.88    4.40
   9   1  -1   -1.01    2.64
   9  -1  -1    3.07    3.14
   8   1  -1    2.93    2.51
  -8   1   1    0.79    3.35
  -8   1   1    3.92    4.17
   8  -1  -1   -0.39    2.63
   7   1  -1    0.91    2.69
  -7   1   1   -8.17    3.09
  -7  -1   1   -5.48    3.42
   7  -1  -1   -2.04    2.21
   7   1  -1   -1.51    2.42
  -6  -1   1    6.71    3.43
   6  -1  -1   11.54    2.67
   6   1  -1    9.93    2.65
   6   1  -1    4.57    2.62
  -6   1   1    8.91    3.24
   6  -1  -1    5.66    2.87
  -6   1   1    2.32    3.16
  -6  -1   1    5.76    3.24
   6   1  -1    9.05    2.67
   6   1  -1    6.76    2.20
   5   1  -1    2.14    2.05
   5   1  -1   -0.32    1.85
   5   1  -1    0.99    1.74
   5  -1  -1    1.37    1.84
   5  -1  -1   -1.72    2.14
  -5  -1   1    0.21    2.23
  -5   1   1    0.38    2.31
   5   1  -1    1.17    1.91
   5  -1  -1    1.92    2.18
  -5  -1   1    0.44    2.25
  -5   1   1   -1.13    2.58
   4   1  -1   47.15    3.51
  -4  -1   1   42.72    3.87
  -4   1   1   30.21    2.81
  -4  -1   1   36.63    3.63
   4  -1  -1   44.79    3.39
   4  -1  -1   47.77    3.93
   4   1  -1   41.56    2.94
   4   1  -1   40.31    3.17
   4   1  -1   42.74    3.66
  -4   1   1   39.08    4.06
  -4   1   1   42.73    4.00
   4  -1  -1   43.56    3.81
   3   1  -1  107.52    6.03
   3  -1  -1  108.47    6.79
   3  -1  -1  106.83    5.50
   3   1  -1  103.81    5.18
  -3  -1   1   99.07    6.45
   3   1  -1  114.65    5.55
  -3  -1   1  105.34    6.17
   3  -1  -1  111.72    6.19
   3   1  -1  113.01    6.40
  -3  -1   1  116.94    5.64
  -3   1   1  110.67    7.03
  -2   1   1  480.25   24.52
  -2  -1   1  456.78   19.20
  -2  -1   1  477.34   20.92
  -2   1   1  478.55   19.13
   2   1  -1  472.26   20.82
  -2   1   1  502.97   19.51
   2   1  -1  436.35   19.13
   2  -1  -1  472.31   24.40
   2  -1  -1  430.06   20.89
  -2   1   1  461.53   19.08
   2   1  -1  451.02   19.34
   2   1  -1  466.20   24.11
   2  -1  -1  487.90   19.43
  -2  -1   1  483.65   19.40
   1   1  -1  438.18   18.29
  -1  -1   1  460.44   19.61
  -1   1   1  444.76   18.28
   1   1  -1  452.52   19.59
   1   1  -1  430.15   18.24
   1  -1  -1  436.86   18.69
   1  -1  -1  462.58   18.30
  -1   1   1  459.89   23.13
  -1  -1   1  415.48   18.24
  -1  -1   1  445.19   18.29
  -1   1   1  461.39   18.90
   1  -1  -1  447.96   23.04
   0  -1  -1  235.10   10.02
   0   1   1  236.39   10.05
   0   1   1  227.67   10.02
   0   1  -1  230.52   10.14
   0  -1   1  235.53   10.13
   0  -1   1  242.65   10.11
   0   1  -1  258.57   10.12
   0  -1  -1  225.87   10.01
  -1   1  -1 4557.60  171.28
  -1  -1  -1 4261.79  184.08
  -1  -1  -1 4736.34  171.69
   1   1   1 4223.18  171.77
   1   1   1 4140.79  171.51
   1  -1   1 4383.88  184.12
   1  -1   1 4442.73  171.41
  -1   1  -1 4161.60  171.47
   1  -1   1 4163.03  171.27
  -1   1  -1 4443.76  184.15
  -1  -1  -1 4236.45  171.40
   1   1   1 3911.22  183.90
  -2  -1  -1 7020.98  277.68
   2   1   1 7275.47  278.50
   2  -1   1 7171.67  277.99
  -2  -1  -1 6779.63  297.96
  -2   1  -1 7277.26  350.12
   2  -1   1 6575.29  297.82
   2   1   1 6510.93  297.81
  -2   1  -1 7123.17  297.99
   2   1   1 6753.52  277.73
  -2   1  -1 6811.85  277.64
  -2  -1  -1 7495.83  277.35
   3   1   1   -0.09    1.24
   3   1   1    1.67    1.15
  -3  -1  -1    1.81    1.73
  -3   1  -1    0.86    1.73
   3  -1   1    3.15    1.56
   3  -1   1    0.37    1.28
  -3   1  -1    4.56    1.96
  -3  -1  -1    2.02    1.49
   3   1   1    3.44    1.74
  -4   1  -1  192.67   11.87
   4  -1   1  205.81    9.52
  -4  -1  -1  185.48   11.02
   4   1   1  203.43   10.18
   4  -1   1  198.02   10.83
   4   1   1  189.76   10.78
  -4  -1  -1  201.59   11.37
   4   1   1  214.67    9.23
  -4   1  -1  196.90   10.94
   5   1   1   82.49    6.08
   5   1   1   80.22    4.72
  -5   1  -1   66.54    6.09
  -5  -1  -1   72.44    5.68
   5   1   1   85.49    5.76
  -5   1  -1   74.84    6.22
  -5  -1  -1   73.76    6.37
   5  -1   1   82.59    5.12
   5  -1   1   77.70    5.90
  -6   1  -1   28.20    4.77
   6  -1   1   18.38    3.86
   6  -1   1   27.38    3.50
  -6  -1  -1   23.90    4.11
  -6   1  -1   19.73    4.19
  -6  -1  -1   22.49    4.59
   6   1   1   20.81    3.95
   6   1   1   19.97    2.85
  -7   1  -1   62.55    6.84
  -7   1  -1   78.34    6.29
  -7  -1  -1   66.40    6.36
  -8   1  -1   21.90    4.97
  -8   1  -1   17.97    5.06
   8  -1   1   23.17    3.74
   8   1   1   26.86    3.71
  -9   1  -1    1.08    4.21
   9  -1   1    0.86    2.68
   9  -2  -1    3.25    3.26
  -9   2   1   11.49    5.61
   8  -2  -1   27.65    4.28
   8   2  -1   33.25    4.82
  -8   2   1   32.63    6.00
   8   2  -1   28.11    3.49
  -7   2   1   -3.70    3.39
   7   2  -1   -2.54    2.56
   7   2  -1   -3.58    2.11
  -7   2   1   -4.08    2.69
   7  -2  -1   -2.06    2.66
  -6   2   1  230.39   15.28
   6   2  -1  270.35   12.57
  -6  -2   1  253.27   14.05
   6   2  -1  241.69   11.34
   6  -2  -1  250.97   13.78
   6  -2  -1  236.25   11.96
   6   2  -1  244.93   13.78
   6   2  -1  230.86   13.33
  -5   2   1  394.84   17.03
   5  -2  -1  402.64   19.25
  -5   2   1  347.44   21.65
   5   2  -1  386.49   17.44
   5   2  -1  399.06   20.49
  -5  -2   1  388.13   19.33
   5   2  -1  383.44   18.91
   5  -2  -1  393.45   17.30
   5   2  -1  369.89   16.51
   4  -2  -1  634.37   32.73
   4   2  -1  613.88   28.18
  -4   2   1  634.92   25.77
  -4  -2   1  629.01   28.52
   4   2  -1  607.52   26.15
   4  -2  -1  611.42   26.04
   4   2  -1  604.21   25.37
  -4   2   1  608.85   32.90
   4  -2  -1  574.32   28.21
   4   2  -1  637.44   31.73
  -3  -2   1   77.72    4.13
  -3   2   1   78.11    5.76
   3  -2  -1   82.34    4.60
   3   2  -1   83.51    4.93
   3   2  -1   79.77    4.65
   3  -2  -1   83.69    5.72
   3   2  -1   82.14    4.99
   3  -2  -1   83.44    5.24
  -3   2   1   83.84    4.28
   3   2  -1   89.06    4.10
  -3  -2   1   87.84    5.23
  -2  -2   1  428.89   17.65
   2  -2  -1  447.27   17.57
   2  -2  -1  418.22   17.08
  -2   2   1  417.59   17.17
  -2   2   1  439.37   22.19
   2   2  -1  381.82   16.99
   2   2  -1  390.99   17.53
  -2  -2   1  409.03   18.80
   2   2  -1  415.50   18.73
   2   2  -1  390.03   17.09
   2  -2  -1  428.73   22.04
  -1   2   1 4387.36  175.99
   1  -2  -1 4583.86  175.58
  -1  -2   1 4203.49  188.66
  -1  -2   1 4212.33  175.87
  -1   2   1 4589.51  175.45
   1  -2  -1 4663.18  221.41
   1  -2  -1 4249.98  175.63
  -1   2   1 4471.33  221.51
   1   2  -1 4240.54  175.66
  -1  -2   1 4492.84  175.64
   0   2   1  261.83   14.11
   0  -2  -1  263.85   11.36
   0   2   1  255.61   11.38
   0  -2  -1  283.63   14.12
   0  -2   1  264.71   11.53
   0   2  -1  280.83   11.28
   0   2  -1  262.46   11.56
   0  -2   1  270.79   11.30
   0  -2  -1  267.04   11.12
  -1  -2  -1 9487.88  367.80
   1  -2   1 9346.55  365.57
  -1   2  -1 9999.97  365.51
  -1   2  -1 9495.00  461.70
   1  -2   1 9440.84  367.67
  -1  -2  -1 8914.64  392.47
  -1   2  -1 8869.45  365.79
  -1  -2  -1 9131.35  365.58
   1   2   1 8705.82  366.74
   1   2   1 8670.37  368.19
   2   2   1  280.84   11.70
   2  -2   1  288.19   12.32
   2   2   1  282.94   12.63
   2  -2   1  268.90   13.26
  -2   2  -1  291.69   12.55
  -2   2  -1  284.92   15.54
   2   2   1  270.61   13.43
  -2  -2  -1  291.03   11.65
  -2  -2  -1  265.59   13.55
  -3   2  -1   37.17    3.49
   3   2   1   44.24    2.48
   3  -2   1   37.82    3.53
   3   2   1   40.11    3.54
  -3  -2  -1   37.43    3.72
   3   2   1   37.59    3.42
  -3   2  -1   40.20    3.59
  -3  -2  -1   38.90    2.87
  -3   2  -1   39.34    3.96
  -3  -2  -1   42.95    2.67
   3  -2   1   37.00    3.04
  -4   2  -1  324.38   15.23
  -4  -2  -1  311.47   17.45
   4   2   1  337.60   16.51
   4   2   1  359.85   14.25
   4  -2   1  338.83   14.87
   4  -2   1  323.69   16.48
  -4   2  -1  325.55   18.75
  -4   2  -1  325.89   16.63
   4   2   1  331.24   15.41
  -4  -2  -1  317.34   16.79
   5   2   1    0.97    2.34
  -5   2  -1    8.25    3.34
  -5   2  -1    0.27    3.23
  -5   2  -1    6.31    2.83
   5  -2   1    6.14    2.55
   5  -2   1    3.73    2.21
   5   2   1    5.35    2.63
   5   2   1    2.26    1.62
  -5  -2  -1    2.81    2.89
  -5  -2  -1    4.45    2.19
   6  -2   1   98.64    6.21
   6  -2   1  103.96    7.54
  -6  -2  -1   86.19    7.66
   6   2   1   99.02    5.58
  -6  -2  -1   91.43    6.66
  -6   2  -1  103.03    7.90
  -6   2  -1   83.34    6.75
   6   2   1   85.84    7.21
   6   2   1   92.33    6.88
  -6   2  -1   86.49    7.66
  -7   2  -1    3.46    3.42
   7   2   1   -0.60    2.00
   7  -2   1   -0.27    2.32
  -7   2  -1    1.16    4.12
   8  -2   1   -0.22    2.68
  -8   2  -1   -2.10    3.44
  -8   2  -1   -0.96    3.99
   9  -2   1   11.66    3.46
  -9   2  -1   10.97    4.64
   9  -3  -1    3.54    3.35
  -9   3   1   -0.85    4.66
   9   3  -1    8.43    4.12
   8   3  -1   26.26    4.75
  -8   3   1   14.34    4.18
   8  -3  -1   12.56    3.57
  -8   3   1   21.72    5.81
   7   3  -1    8.53    2.31
  -7   3   1    9.45    3.38
   7  -3  -1    9.35    3.16
   7   3  -1   13.86    3.88
  -7   3   1    9.93    4.70
   6   3  -1   29.08    4.21
  -6  -3   1   28.84    4.91
   6  -3  -1   29.01    3.79
   6  -3  -1   26.62    4.23
   6   3  -1   29.37    4.33
   6   3  -1   33.95    3.05
  -6   3   1   21.35    4.93
   6   3  -1   34.33    3.11
  -6   3   1   26.29    3.69
   5   3  -1    3.35    2.43
   5   3  -1    0.72    1.54
  -5  -3   1   -0.17    2.76
  -5   3   1   -1.85    2.10
   5   3  -1    2.22    2.04
  -5   3   1    5.72    3.26
   5  -3  -1    3.45    2.31
   5  -3  -1    2.13    2.11
   5   3  -1    1.01    1.51
  -4  -3   1  107.43    7.20
   4  -3  -1  116.69    6.48
   4   3  -1  116.62    5.52
   4   3  -1  113.32    6.60
   4   3  -1  120.09    6.61
   4   3  -1  119.54    7.05
   4  -3  -1  114.33    7.20
  -4   3   1  109.51    6.17
  -4   3   1  120.64    8.36
   3   3  -1   38.32    2.97
   3  -3  -1   53.12    4.33
   3  -3  -1   51.74    2.96
   3   3  -1   47.31    2.55
   3   3  -1   39.68    3.42
   3  -3  -1   49.05    3.50
   3   3  -1   43.30    3.49
   3   3  -1   46.40    2.67
  -3  -3   1   45.88    3.72
  -3   3   1   44.90    3.06
  -3   3   1   53.42    4.51
  -2  -3   1    3.27    1.49
  -2   3   1    1.14    1.80
  -2   3   1    2.73    1.33
   2  -3  -1    1.75    1.58
   2   3  -1    1.10    0.78
   2   3  -1    1.75    0.82
   2   3  -1    7.16    1.78
   2  -3  -1    0.69    0.98
   2  -3  -1    1.32    1.40
  -1   3   1  614.26   23.50
   1  -3  -1  572.89   23.45
  -1  -3   1  573.43   23.90
   1  -3  -1  590.23   29.67
  -1   3   1  575.07   23.53
  -1   3   1  569.74   29.66
   1   3  -1  521.39   23.76
  -1  -3   1  550.70   23.28
   1  -3  -1  546.14   23.39
   1   3  -1  579.76   23.15
   0   3   1  553.77   29.10
   0   3  -1  538.80   23.60
   0   3  -1  615.28   23.19
   0  -3  -1  581.93   29.12
   0  -3  -1  566.68   22.98
   0  -3   1  560.71   23.60
   0  -3   1  567.15   23.17
   0   3   1  526.41   23.39
   0  -3  -1  566.15   23.41
   1  -3   1  499.09   18.93
  -1  -3  -1  411.69   18.27
  -1   3  -1  434.71   19.17
  -1  -3  -1  403.76   20.51
  -1   3  -1  491.92   23.96
  -1  -3  -1  445.99   18.28
   1   3   1  417.69   19.07
  -1  -3  -1  488.64   23.14
  -2  -3  -1   43.90    3.72
   2  -3   1   45.88    3.21
   2   3   1   45.44    3.74
   2  -3   1   47.98    3.50
  -2   3  -1   45.17    4.12
   2   3   1   38.01    3.22
   2   3   1   39.95    2.18
  -2   3  -1   43.60    3.37
   3   3   1  341.60   16.85
  -3  -3  -1  367.10   14.33
  -3  -3  -1  359.90   17.21
   3   3   1  353.34   14.33
  -3   3  -1  323.95   19.25
   3  -3   1  338.08   16.67
   3   3   1  334.04   15.71
  -3   3  -1  333.97   15.52
   3  -3   1  343.11   15.29
   4   3   1  583.96   27.60
   4   3   1  578.99   25.77
   4   3   1  624.28   24.24
  -4   3  -1  564.63   31.87
   4  -3   1  571.10   25.16
   4  -3   1  586.37   27.59
  -4  -3  -1  602.37   28.13
  -4   3  -1  583.53   25.60
  -5   3  -1    6.48    3.19
   5  -3   1    7.90    2.62
   5   3   1   10.17    2.98
   5   3   1    8.09    1.71
   5   3   1    5.27    2.86
  -5   3  -1    7.16    3.56
  -5  -3  -1   11.79    3.68
   5  -3   1    5.83    2.88
  -5  -3  -1   10.14    2.14
  -6   3  -1   -1.62    3.51
  -6  -3  -1   -3.34    2.20
   6   3   1   -4.07    1.67
   6  -3   1   -0.55    2.53
   6   3   1    2.83    3.13
   6  -3   1    3.66    2.98
  -6   3  -1   -4.99    2.65
  -7   3  -1    3.71    4.26
   7   3   1    2.51    2.07
   7  -3   1    6.94    3.24
  -7   3  -1    7.26    3.73
   7   3   1    3.85    3.20
   8   3   1   12.21    4.01
  -8   3  -1    7.11    5.10
  -8   3  -1    2.16    3.73
   8  -3   1    4.96    2.86
  -9   3  -1   -0.40    5.45
   9  -3   1    1.22    3.07
   9   4  -1   23.92    5.12
  -9   4   1   21.20    6.54
   9  -4  -1   12.77    4.20
  -8   4   1   22.29    6.15
   8  -4  -1   20.40    4.06
   8   4  -1   36.14    5.33
   7   4  -1   40.33    5.07
  -7   4   1   25.69    4.25
  -7   4   1   29.70    6.10
   7  -4  -1   32.78    4.41
   6  -4  -1    0.72    2.44
  -6   4   1   -2.78    2.57
   6   4  -1    0.01    1.60
  -6  -4   1    7.19    3.61
   6   4  -1    5.57    2.91
   6   4  -1    0.08    2.53
  -6   4   1   -2.29    3.79
   6  -4  -1   -3.93    2.63
   5   4  -1    3.20    2.51
  -5   4   1   -1.77    2.13
  -5   4   1    4.50    3.48
  -5  -4   1    2.53    2.68
   5   4  -1    2.49    2.38
   5   4  -1    2.35    1.12
   5  -4  -1    5.25    2.59
   5   4  -1   -0.31    1.31
   5  -4  -1    4.25    2.33
  -4   4   1    4.84    3.18
   4  -4  -1    8.03    2.50
   4   4  -1    3.21    2.33
   4   4  -1    6.34    1.32
  -4  -4   1    7.68    2.80
   4   4  -1    7.41    2.45
   4   4  -1    4.53    1.36
   4   4  -1    9.55    1.23
   4  -4  -1   11.28    2.80
  -4   4   1    5.95    2.34
   3   4  -1  456.76   18.74
  -3   4   1  458.64   19.58
  -3  -4   1  451.15   21.56
   3  -4  -1  463.05   24.97
   3  -4  -1  461.98   19.85
  -3   4   1  447.19   25.08
   3   4  -1  479.94   18.69
   3   4  -1  445.38   21.41
   3   4  -1  448.37   20.11
   2  -4  -1  342.92   15.07
   2   4  -1  373.23   14.50
  -2  -4   1  328.99   14.57
   2  -4  -1  359.24   15.37
   2  -4  -1  356.58   19.42
  -2   4   1  356.25   15.31
  -2   4   1  344.75   19.42
  -2  -4   1  367.30   16.73
   2   4  -1  342.29   15.71
  -1  -4   1  307.69   13.08
   1  -4  -1  305.64   16.91
   1  -4  -1  301.11   13.46
   1   4  -1  301.76   13.92
   1   4  -1  338.25   12.98
  -1   4   1  303.53   13.58
   1  -4  -1  305.29   13.33
  -1   4   1  310.81   16.92
   0   4   1    0.56    0.70
   0   4   1    4.05    1.64
   0  -4   1    3.51    1.15
   0   4  -1    4.49    1.78
   0   4   1    2.77    1.44
   0  -4  -1    2.62    1.15
   0   4  -1    4.16    1.85
   0  -4  -1    1.96    1.61
  -1  -4  -1  182.24    7.99
  -1  -4  -1  197.07   10.28
   1   4   1  183.29    9.14
   1  -4   1  186.75    8.69
  -1  -4  -1  184.29    7.93
  -1   4  -1  187.79    9.23
  -1   4  -1  185.99   11.14
   1   4   1  200.96   10.33
  -2   4  -1  163.70   10.65
   2   4   1  162.84    8.80
   2  -4   1  193.14    8.59
  -2   4  -1  179.53    8.92
  -2  -4  -1  172.94    9.62
  -3   4  -1  768.97   33.35
  -3  -4  -1  802.42   36.31
  -3   4  -1  779.40   41.84
   3  -4   1  801.76   33.07
   3   4   1  776.42   33.57
   3  -4   1  781.95   35.76
   3   4   1  808.18   36.13
   4   4   1  235.71   11.77
  -4   4  -1  228.27   11.58
  -4  -4  -1  213.17   12.69
   4  -4   1  212.15   12.09
   4  -4   1  227.47   11.10
   4   4   1  228.57    9.66
   4   4   1  231.27   12.53
  -4   4  -1  225.53   14.25
   5  -4   1   36.61    4.84
  -5   4  -1   39.70    5.88
  -5  -4  -1   41.42    5.53
   5   4   1   41.66    4.89
   5  -4   1   43.30    4.08
   5   4   1   41.55    4.97
  -5   4  -1   37.17    4.73
   5   4   1   42.24    2.79
   6   4   1   -1.59    2.89
  -6   4  -1    2.44    3.97
  -6   4  -1   -1.33    2.95
   6  -4   1    0.49    2.51
   7   4   1    2.76    3.14
   7  -4   1    2.08    2.85
  -7   4  -1    0.02    3.35
  -7   4  -1   -0.87    3.91
   8  -4   1    6.07    3.16
   8   4   1    5.40    3.95
  -8   4  -1    5.20    5.58
  -8   4  -1    5.52    4.38
   9  -5  -1    1.08    3.32
   8   5  -1   -0.99    3.15
   8  -5  -1   -0.31    2.96
  -8   5   1    1.12    4.91
   7  -5  -1   -1.89    2.73
  -7   5   1    4.18    4.53
   7   5  -1    5.63    3.48
  -7   5   1    0.28    3.16
  -6   5   1   64.61    5.33
   6  -5  -1   60.48    5.41
  -6   5   1   44.72    7.35
   6   5  -1   68.35    5.94
  -6  -5   1   75.79    6.88
   6   5  -1   70.80    6.13
  -5   5   1   -1.25    3.25
   5   5  -1   -2.55    2.36
   5  -5  -1   -5.21    1.88
   5  -5  -1    2.20    2.46
   5   5  -1   -0.39    1.03
  -5  -5   1    3.04    2.85
  -5   5   1   -0.65    2.38
   5   5  -1    2.00    2.53
   4  -5  -1  185.42    9.62
   4   5  -1  182.79    9.96
  -4   5   1  163.06   11.94
  -4   5   1  191.09    9.42
  -4  -5   1  204.07   11.05
   3  -5  -1  173.87    9.07
  -3   5   1  173.92   11.60
   3   5  -1  187.93    9.66
  -3  -5   1  185.01   10.17
  -3   5   1  187.96    9.10
  -2   5   1  158.45   10.02
   2  -5  -1  162.32   10.04
  -2   5   1  159.05    7.94
  -2  -5   1  153.85    8.64
  -2  -5   1  143.95    6.89
   2   5  -1  157.73    8.83
   2   5  -1  154.08    8.34
   2   5  -1  163.31    6.79
   2  -5  -1  159.67    7.91
  -1  -5   1 1249.49   50.18
   1   5  -1 1330.53   50.06
   1  -5  -1 1220.97   50.43
   1   5  -1 1166.46   51.15
  -1   5   1 1275.90   63.83
  -1   5   1 1227.81   50.86
   1  -5  -1 1335.26   63.91
   1   5  -1 1133.51   63.22
   0  -5  -1  240.37   10.71
   0   5  -1  240.85   11.80
   0  -5   1  250.77   10.90
   0   5   1  246.09   13.69
   0  -5  -1  258.33   13.81
   0   5  -1  250.33   14.02
   0   5   1  238.99   11.52
  -1  -5  -1  118.43    6.71
  -1   5  -1  114.77    6.58
   1   5   1  115.45    6.68
   1   5   1  107.04    6.38
  -1   5  -1  112.03    7.62
   1  -5   1  111.99    5.88
  -1  -5  -1  109.12    4.98
   1   5   1  105.22    4.98
  -2   5  -1   48.54    4.72
  -2   5  -1   46.83    4.18
  -2  -5  -1   51.57    4.64
   2  -5   1   55.95    3.86
   2   5   1   46.58    4.14
   3  -5   1  200.73    9.72
  -3   5  -1  187.99   10.05
  -3   5  -1  186.87   12.41
   3  -5   1  186.44   10.56
  -3  -5  -1  195.48   11.12
   3   5   1  189.54   10.19
   4  -5   1   54.73    5.05
   4   5   1   54.59    5.03
  -4   5  -1   55.69    5.12
   4  -5   1   60.65    4.72
  -4  -5  -1   68.63    5.99
  -4   5  -1   56.63    6.16
   5  -5   1   -4.59    2.38
  -5   5  -1   -2.02    3.77
   5   5   1   -2.19    2.41
   5   5   1    4.61    2.91
  -5  -5  -1    3.24    3.54
   5  -5   1   -3.21    2.42
  -5   5  -1   -5.13    2.64
  -6   5  -1   -0.85    4.33
  -6   5  -1    1.41    3.72
   6  -5   1    0.14    2.63
   6   5   1    0.19    2.87
  -7   5  -1    1.25    3.52
   7   5   1   -2.31    3.28
   7  -5   1    0.79    2.80
  -7   5  -1   -1.80    4.32
  -8   5  -1    3.70    4.39
   8  -5   1    3.40    3.12
   8   5   1    4.40    4.05
  -8   5  -1    1.95    5.78
  -8   6   1    2.88    5.24
   8   6  -1   -4.45    3.39
   8  -6  -1    0.31    3.14
   7  -6  -1   15.26    3.74
   7   6  -1   23.52    4.81
  -7   6   1   18.40    5.70
  -6   6   1   12.86    4.99
  -6   6   1   18.36    3.83
   6  -6  -1   21.23    3.96
   6   6  -1   21.06    4.27
   5  -6  -1   96.42    7.35
   5   6  -1  105.03    7.09
  -5   6   1   93.60    6.36
  -5  -6   1  110.47    7.91
   5  -6  -1   83.83    6.38
  -5   6   1   84.02    8.37
   4   6  -1    4.48    2.97
  -4   6   1   -1.22    3.11
  -4   6   1    2.66    2.44
  -4  -6   1    1.26    2.39
   4  -6  -1   -5.59    1.94
   3  -6  -1   26.11    3.50
  -3  -6   1   32.09    4.18
  -3   6   1   36.38    3.74
   3   6  -1   31.48    2.58
  -3   6   1   24.94    4.71
   3   6  -1   35.24    4.15
   2   6  -1  696.12   36.87
   2  -6  -1  709.62   30.10
   2   6  -1  739.50   30.96
  -2  -6   1  711.16   29.17
  -2   6   1  753.93   30.49
   2   6  -1  690.35   28.93
  -2  -6   1  720.65   32.78
  -2   6   1  713.13   38.18
   1  -6  -1    5.23    2.71
  -1  -6   1    7.82    1.52
   1  -6  -1    7.53    1.96
  -1   6   1    1.36    2.11
  -1   6   1    8.50    2.64
   1   6  -1    8.80    2.31
   1   6  -1    7.98    2.61
   0  -6  -1  187.90    8.65
   0   6   1  176.27    9.60
   0   6  -1  188.12    9.94
   0   6   1  197.40   11.21
   0  -6  -1  207.87   11.36
   0   6  -1  188.43   11.43
   0  -6   1  185.59    8.80
   1   6   1    0.59    1.59
   1   6   1    3.75    1.17
   1   6   1    2.69    2.27
  -1   6  -1    2.40    2.47
  -1  -6  -1    1.48    1.78
  -1   6  -1   -1.51    2.71
   1  -6   1    0.28    1.62
  -1  -6  -1    1.18    1.06
  -2   6  -1   42.20    4.54
  -2   6  -1   46.41    5.12
   2  -6   1   49.10    3.82
   2   6   1   46.54    4.29
  -2  -6  -1   41.61    4.30
  -3   6  -1   -1.98    2.68
  -3   6  -1    4.34    2.73
   3   6   1   -0.69    2.38
   3  -6   1    0.30    2.08
  -3  -6  -1   -0.28    2.46
   4   6   1   14.20    3.41
  -4  -6  -1    7.91    3.40
  -4   6  -1    8.26    3.31
   4  -6   1   11.00    2.98
   4  -6   1   12.87    3.31
  -4   6  -1   12.74    4.44
   5  -6   1    4.82    2.90
  -5   6  -1    1.35    4.09
   5   6   1    2.86    3.21
  -5   6  -1    4.61    3.28
   6  -6   1   -1.12    2.47
  -6   6  -1    6.44    3.81
   6   6   1    1.63    3.22
  -6   6  -1    4.51    4.54
   7   6   1   -2.50    3.47
  -7   6  -1   -0.09    4.92
   7  -6   1    4.68    3.05
  -7   6  -1   -2.46    3.35
   8   6   1   -1.83    3.55
  -8   6  -1   -1.66    4.11
   8  -6   1    1.42    3.05
   8   7  -1   -0.50    3.52
   8  -7  -1   -4.27    2.77
   7   7  -1   39.30    5.58
  -7   7   1   30.31    7.27
   7  -7  -1   27.62    4.68
   6  -7  -1   -2.25    2.55
  -6   7   1   -1.56    3.94
  -6   7   1    4.67    3.23
   6   7  -1   -3.70    2.66
   5   7  -1  189.72   11.03
  -5   7   1  192.72   10.48
  -5   7   1  166.65   13.45
  -5  -7   1  212.19   12.33
   5  -7  -1  174.98   10.35
  -4  -7   1    6.78    3.29
   4  -7  -1    4.22    2.83
  -4   7   1   10.58    2.94
   4   7  -1    8.08    3.34
  -4   7   1    3.63    3.98
  -3   7   1   31.87    3.86
  -3   7   1   28.40    5.02
   3   7  -1   34.51    4.36
   3  -7  -1   22.64    3.54
   3   7  -1   27.58    2.57
  -3  -7   1   28.40    4.11
   2  -7  -1    3.84    2.26
   2   7  -1    6.49    2.20
  -2   7   1    0.63    2.24
  -2  -7   1    7.34    1.44
  -2  -7   1    3.06    2.49
   2   7  -1    5.39    2.81
   2   7  -1   -0.32    1.22
  -2   7   1    4.81    3.16
   1   7  -1  171.70   10.49
  -1  -7   1  168.87    8.10
   1   7  -1  168.63    9.54
   1  -7  -1  181.79    8.60
  -1   7   1  171.29   10.96
  -1   7   1  174.78    9.28
   0   7  -1   97.49    7.10
   0   7   1  108.73    7.03
   0  -7  -1   90.51    5.13
   0  -7   1   95.07    5.32
   0   7   1   92.64    6.39
   0  -7  -1  100.29    6.99
   0   7  -1  107.69    6.89
  -1   7  -1   84.97    6.20
   1  -7   1   88.17    5.25
   1   7   1   83.85    5.90
  -1  -7  -1   84.73    4.24
   1   7   1   86.02    4.33
  -1   7  -1   86.95    6.94
   1   7   1   85.48    6.02
  -2   7  -1   -2.04    3.12
   2   7   1   -0.02    2.50
   2  -7   1   -0.04    1.91
  -2  -7  -1   -0.09    2.25
  -2   7  -1    1.14    2.45
  -3   7  -1   57.63    5.44
  -3  -7  -1   53.30    5.35
   3  -7   1   68.70    4.93
  -3   7  -1   55.87    6.41
   3   7   1   55.22    5.23
  -4  -7  -1   17.53    4.46
   4   7   1   19.02    4.05
   4  -7   1   15.10    3.90
  -4   7  -1   12.59    3.86
  -4   7  -1   10.32    4.76
   4  -7   1    9.86    3.18
   5   7   1   29.61    4.89
   5  -7   1   25.47    4.13
  -5   7  -1   33.52    5.06
  -5   7  -1   32.69    6.35
   6   7   1   -4.01    2.87
  -6   7  -1   -0.10    4.51
  -6   7  -1    0.34    3.32
   6  -7   1    1.44    2.80
  -7   7  -1    8.99    5.41
   7  -7   1    5.46    3.29
   7   7   1   10.18    4.18
  -7   7  -1    7.09    4.55
   7  -8  -1    1.98    3.11
   7   8  -1    2.06    3.60
  -6   8   1   14.07    5.77
   6   8  -1   14.46    4.35
   6  -8  -1    8.82    3.65
  -6   8   1   21.14    4.41
  -5   8   1   34.58    6.78
   5  -8  -1   28.82    4.50
  -5   8   1   41.08    5.16
   5   8  -1   40.72    5.51
  -4   8   1   25.08    4.08
   4  -8  -1   25.74    4.06
   4   8  -1   26.93    4.63
  -4   8   1   22.07    5.47
  -4  -8   1   23.97    4.93
  -3   8   1   26.70    5.26
  -3  -8   1   36.44    4.77
  -3   8   1   37.07    4.64
   3   8  -1   24.57    4.24
   3  -8  -1   25.88    3.88
   3   8  -1   27.83    2.79
   2  -8  -1    8.38    2.58
  -2   8   1    9.81    3.18
  -2   8   1    9.15    3.59
  -2  -8   1    8.05    1.61
   2   8  -1    7.42    2.57
   2   8  -1   -0.76    2.77
  -2  -8   1    5.79    2.75
   1  -8  -1   -3.27    1.72
  -1  -8   1   -0.55    1.38
  -1   8   1   -3.88    2.43
  -1   8   1   -1.37    2.21
   1   8  -1   -0.46    2.50
   1   8  -1   -6.05    1.92
   0  -8   1  109.97    5.87
   0   8  -1   94.50    7.06
   0  -8  -1  110.81    7.85
   0   8   1  111.71    7.58
   0   8   1   96.46    6.86
   0   8  -1  105.44    7.81
   0  -8  -1   95.01    5.53
  -1   8  -1    6.59    3.38
   1   8   1    8.39    3.17
  -1   8  -1    9.45    3.64
   1   8   1   10.44    2.77
  -1  -8  -1   10.79    1.61
   1  -8   1   13.38    2.55
   2   8   1  196.87   11.52
  -2   8  -1  190.89   13.62
   2   8   1  216.71   11.87
  -2  -8  -1  203.03   12.25
   2  -8   1  223.15   10.74
  -2   8  -1  210.59   11.71
   3  -8   1    1.57    2.57
   3   8   1   -2.85    2.37
  -3   8  -1   -3.67    3.17
  -3  -8  -1   -2.77    2.58
  -3   8  -1   -0.57    3.17
   4   8   1   -0.70    2.79
  -4   8  -1   -4.67    3.75
  -4   8  -1    2.35    3.40
   4  -8   1   -1.64    2.63
   5   8   1    7.40    3.77
   5  -8   1    9.67    3.44
  -5   8  -1   13.98    4.59
  -5   8  -1    5.35    5.08
   6  -8   1    2.77    2.89
   6   8   1   -0.85    2.88
  -6   8  -1    4.12    4.10
  -6   8  -1   -4.47    4.18
   7   8   1    8.56    4.46
   7  -8   1    5.85    3.28
  -7   8  -1    9.85    5.04
   7  -9  -1    1.35    3.36
   7   9  -1   -7.59    2.73
   6  -9  -1   12.71    3.99
  -6   9   1   15.67    6.11
   6   9  -1    9.85    4.18
  -5   9   1   23.04    4.66
   5   9  -1   18.97    4.87
   5  -9  -1   16.25    3.90
  -5   9   1   20.37    6.16
  -4   9   1    3.44    4.70
   4   9  -1    0.17    3.30
   4  -9  -1    2.75    3.14
  -4   9   1   -0.64    3.04
  -3  -9   1   40.97    5.55
   3   9  -1   39.70    5.32
   3  -9  -1   38.06    4.51
  -3   9   1   40.35    6.36
  -3   9   1   44.76    5.48
  -2   9   1   -0.77    2.67
   2   9  -1   -6.24    2.21
   2  -9  -1    0.29    2.36
  -2  -9   1    1.31    2.99
   2   9  -1   -0.33    2.92
  -2   9   1   -0.46    3.76
  -1   9   1   12.09    3.51
   1   9  -1   19.48    4.13
  -1   9   1   19.61    4.40
   1   9  -1   17.95    3.97
   1  -9  -1   23.96    3.19
  -1  -9   1   22.77    2.66
   0   9   1   82.60    6.92
   0   9   1   79.90    6.73
   0  -9  -1   88.18    5.12
   0  -9   1   88.78    5.32
   0   9  -1   89.32    7.01
   0   9  -1   86.25    7.31
  -1   9  -1  405.64   19.09
   1  -9   1  393.60   17.31
   1   9   1  348.49   21.02
  -1   9  -1  388.61   22.43
   1   9   1  374.41   18.69
  -2   9  -1   35.35    5.93
   2   9   1   28.89    5.07
  -2   9  -1   24.33    4.85
   2  -9   1   31.74    3.97
   3  -9   1   19.99    3.68
  -3   9  -1   17.52    5.25
   3   9   1   19.69    4.66
  -3   9  -1   21.31    4.72
   4  -9   1   -0.60    2.71
  -4   9  -1   -3.29    3.52
   4   9   1   -2.08    3.17
  -4   9  -1    2.58    4.09
  -5   9  -1    6.89    4.26
   5   9   1   -1.33    3.20
  -5   9  -1   -3.63    4.35
   5  -9   1   -2.35    2.63
   6  -9   1    1.61    3.27
  -6   9  -1    3.56    4.91
   6   9   1    3.34    3.75
   6  10  -1    5.17    4.40
   6 -10  -1    1.33    3.39
   5 -10  -1    1.88    3.64
  -5  10   1    2.84    3.72
   5  10  -1   -2.05    3.48
  -5  10   1    4.51    5.44
  -4  10   1    5.41    3.82
   4 -10  -1    8.72    3.69
   4  10  -1   11.87    4.32
  -4  10   1   12.28    5.18
   3  10  -1   -1.57    3.51
   3 -10  -1   -1.49    2.92
  -3  10   1    1.69    3.37
  -3  10   1    0.41    4.56
  -2  10   1    7.03    3.91
   2 -10  -1    1.29    2.76
   2  10  -1    9.83    4.02
  -2  10   1    5.94    4.26
   1  10  -1   -0.48    3.17
   1 -10  -1    2.20    2.62
  -1  10   1    5.65    3.73
   1  10  -1    2.93    3.45
  -1  10   1   -4.44    3.45
   0 -10  -1    1.83    1.97
   0 -10   1    2.42    2.42
   0  10   1   -4.36    3.36
   0  10  -1    1.56    3.87
   0  10  -1    2.08    3.36
   0  10   1    1.96    3.47
   1  10   1   17.92    4.68
   1  10   1   20.25    4.22
  -1  10  -1   12.14    4.72
   1 -10   1   16.12    3.11
  -1  10  -1   24.89    5.11
  -2  10  -1    5.48    3.81
   2  10   1    7.63    3.91
  -2  10  -1   10.39    4.79
   2 -10   1    8.30    2.86
   3 -10   1   10.29    3.47
  -3  10  -1   16.25    5.61
  -3  10  -1    6.60    3.97
   3  10   1    9.11    4.20
   4 -10   1    0.40    2.96
  -4  10  -1   -3.17    4.28
  -4  10  -1    3.32    4.35
   4  10   1    3.98    3.70
   5  10   1    0.73    3.58
   5 -10   1   -0.68    2.70
  -5  10  -1    7.55    4.48
   5 -11  -1    8.76    4.29
   5  11  -1    9.52    4.86
  -4  11   1    8.36    4.02
   4 -11  -1    0.31    3.23
  -4  11   1    6.42    5.05
   4  11  -1    4.59    3.99
  -3  11   1    7.87    3.98
  -3  11   1    1.39    4.33
   3  11  -1   -1.46    3.55
   3 -11  -1    3.68    3.32
  -2  11   1   27.28    5.96
   2 -11  -1   27.00    4.20
   2  11  -1   28.55    5.73
  -2  11   1   21.33    4.76
   1 -11  -1   87.63    5.95
  -1  11   1   84.11    7.43
  -1  11   1   77.83    7.97
   0  11  -1   -0.95    3.64
   0  11   1   -0.02    3.37
   0  11   1   -0.96    3.30
   0  11  -1   -4.38    2.94
   1 -11   1  127.77    7.58
   1  11   1  121.00    9.21
  -1  11  -1  107.76    9.80
  -1  11  -1  121.10    9.40
  -2  11  -1    7.96    4.74
  -2  11  -1    8.88    5.22
   2 -11   1   13.97    3.38
   2  11   1    8.41    4.22
  -3  11  -1   16.94    5.30
   3 -11   1   21.63    3.98
   3  11   1   17.75    5.06
  -3  11  -1   22.33    6.52
   4  11   1    0.35    4.35
  -4  11  -1    5.75    4.68
   4 -11   1    4.49    3.39
   4 -12  -1    1.61    3.42
  -3  12   1   -3.59    3.65
  -3  12   1   -3.57    4.63
   3 -12  -1    3.72    3.27
   3  12  -1    3.37    3.85
   2  12  -1    5.67    4.41
  -2  12   1   13.95    4.56
  -2  12   1    0.99    4.71
  -1  12   1   -3.68    3.66
   1  12  -1    4.42    4.39
  -1  12   1   -2.10    3.70
   0  12   1    1.54    4.01
   0  12  -1    4.73    4.26
   1  12   1   12.45    5.17
  -1  12  -1    8.42    4.40
  -1  12  -1    3.38    4.29
  -2  12  -1   37.15    7.05
   2 -12   1   36.65    4.85
   2  12   1   31.78    6.32
   3  12   1    8.00    4.93
  -3  12  -1   12.87    5.15
   3 -12   1   12.86    3.68
   9   0  -2   -6.42    2.72
  -8   0   2    0.19    4.21
   8   0  -2   -0.91    2.57
  -7   0   2  117.77    9.61
   7   0  -2  124.24    8.67
   7   0  -2  127.87    7.46
  -7   0   2  133.82    9.48
  -6   0   2    0.56    3.22
   6   0  -2    5.60    2.62
   6   0  -2    0.88    2.06
  -6   0   2    2.14    2.74
   5   0  -2  176.63    8.51
  -5   0   2  155.78   10.96
   5   0  -2  174.86    9.85
  -5   0   2  173.82   10.07
   5   0  -2  193.68   10.85
   5   0  -2  185.39    8.81
   4   0  -2   42.92    3.86
   4   0  -2   40.25    2.77
  -4   0   2   33.70    3.92
  -4   0   2   37.05    2.84
  -4   0   2   41.70    3.67
   4   0  -2   46.14    3.24
   4   0  -2   35.78    3.39
   3   0  -2 2237.37   90.32
   3   0  -2 2358.54  114.19
   3   0  -2 2293.00   97.34
  -3   0   2 2275.51   90.27
   3   0  -2 2130.31   90.52
   2   0  -2  245.91   11.20
   2   0  -2  243.19   10.13
   2   0  -2  242.75   13.35
  -2   0   2  252.54   10.18
   2   0  -2  228.14   10.56
   1   0  -2 1317.02   53.10
   1   0  -2 1309.81   52.88
  -1   0   2 1318.73   53.17
   0   0  -2 2664.05  102.49
   0   0  -2 2658.36  110.18
   0   0  -2 2465.13  102.30
   0   0   2 2462.53  102.51
  -1   0  -2  287.96   12.77
  -1   0  -2  297.05   11.99
   1   0   2  266.75   12.69
   1   0   2  254.25   11.87
  -1   0  -2  269.44   12.17
   2   0   2  196.00    9.73
  -2   0  -2  189.41    9.78
   2   0   2  192.10    8.80
  -3   0  -2  495.84   25.28
   3   0   2  500.16   20.21
  -3   0  -2  473.54   22.35
   3   0   2  421.78   21.93
   4   0   2  125.05    6.10
  -4   0  -2  105.41    7.24
   4   0   2  100.80    6.84
  -4   0  -2   95.89    7.19
  -5   0  -2  245.26   15.06
  -5   0  -2  252.13   14.29
   5   0   2  267.85   14.09
   5   0   2  259.49   12.09
  -6   0  -2   -2.64    3.24
   6   0   2   -0.62    2.11
   7   0   2    4.47    2.53
  -7   0  -2    5.49    3.73
  -8   0  -2    7.63    4.35
   8   0   2    3.01    2.55
  -9   1   2    3.45    5.02
   9   1  -2   -3.76    2.92
   9  -1  -2   -1.72    3.18
   8  -1  -2    6.81    2.96
  -8   1   2    4.32    3.30
   8   1  -2    3.02    2.57
  -8   1   2   10.62    4.85
   7   1  -2    3.76    2.51
  -7  -1   2   -3.07    2.71
  -7   1   2   -0.47    3.72
   7  -1  -2   -0.44    2.54
   7  -1  -2   -1.11    2.44
   7   1  -2   -0.34    2.57
   7   1  -2   -1.61    2.13
   6   1  -2   11.23    2.61
   6  -1  -2   10.96    2.79
   6   1  -2   18.17    2.86
  -6   1   2    4.71    3.71
   6  -1  -2   11.58    3.14
   6   1  -2   13.15    3.18
   6   1  -2   15.86    3.20
  -6  -1   2   15.62    3.68
  -5   1   2  217.84   14.32
   5   1  -2  234.96   10.98
   5   1  -2  239.24   12.44
  -5  -1   2  230.22   12.65
   5  -1  -2  241.84   12.64
   5   1  -2  266.45   13.74
   5  -1  -2  222.92   11.22
   5  -1  -2  246.77   14.08
   5   1  -2  236.59   11.12
   4  -1  -2  321.66   17.82
   4  -1  -2  319.90   15.60
   4   1  -2  349.09   17.60
   4  -1  -2  322.07   14.30
   4   1  -2  310.92   15.40
  -4   1   2  323.05   13.75
   4   1  -2  325.15   14.10
   4   1  -2  327.15   14.07
  -4  -1   2  307.37   15.54
  -4   1   2  306.58   18.14
   3  -1  -2    5.48    1.64
   3  -1  -2    8.22    2.04
  -3  -1   2    7.05    1.59
   3   1  -2    9.36    1.57
   3   1  -2    7.57    1.54
  -3   1   2    8.46    2.39
  -3   1   2    7.35    1.01
   3   1  -2    6.67    1.84
   3  -1  -2    7.90    1.55
   3   1  -2    7.01    1.43
  -2  -1   2 2702.12  108.94
   2  -1  -2 2572.40  101.54
   2   1  -2 2667.93  108.88
   2   1  -2 2294.05  101.32
   2   1  -2 2528.54  101.38
   2  -1  -2 2454.54  127.93
   2   1  -2 2516.76  101.51
  -2   1   2 2566.63  128.16
   1  -1  -2  206.72    8.61
   1   1  -2  211.97    9.24
   1   1  -2  206.82    8.96
  -1  -1   2  204.59    9.25
   1  -1  -2  198.86    9.12
   1  -1  -2  183.71    8.99
  -1  -1   2  214.21    9.02
   0  -1   2  171.09    7.99
   0   1  -2  169.09    7.84
   0  -1  -2  164.35    7.70
   0   1  -2  181.76    7.92
   0  -1   2  175.84    7.91
   0  -1   2  180.67    7.90
   0   1   2  162.50    7.85
   0  -1  -2  170.40    7.86
   0   1  -2  176.06    7.98
   0   1   2  168.75    7.78
   1   1   2  786.00   35.37
   1   1   2  770.98   33.08
  -1  -1  -2  805.13   35.43
  -1   1  -2  864.04   35.23
  -1   1  -2  819.57   33.09
  -1  -1  -2  860.92   32.84
   1  -1   2  778.79   32.90
  -1  -1  -2  794.66   33.06
   1  -1   2  814.81   35.15
   1   1   2  744.80   32.76
   2  -1   2 1306.05   51.52
   2   1   2 1240.22   51.90
  -2   1  -2 1266.08   55.39
  -2  -1  -2 1243.69   55.56
   2   1   2 1263.08   51.28
   2   1   2 1244.15   55.45
   2  -1   2 1285.38   55.37
  -2   1  -2 1297.00   51.83
   3  -1   2  508.95   21.10
  -3   1  -2  501.77   21.59
   3   1   2  504.02   23.12
   3   1   2  489.95   20.79
   3  -1   2  485.68   22.95
   3   1   2  497.08   21.71
  -3   1  -2  502.34   23.11
  -3   1  -2  482.04   26.43
  -3  -1  -2  471.18   23.18
   4   1   2   30.01    2.71
  -4  -1  -2   26.86    3.27
   4  -1   2   27.83    3.71
  -4   1  -2   24.30    3.70
   4  -1   2   27.52    3.00
  -4   1  -2   25.32    3.77
   4   1   2   29.54    3.85
   4   1   2   29.57    3.78
  -4   1  -2   28.87    4.05
  -4  -1  -2   24.14    4.05
  -5   1  -2    8.78    3.37
   5  -1   2    5.57    2.91
  -5  -1  -2    6.31    2.95
   5   1   2   -0.24    2.42
   5   1   2    9.22    2.15
  -5  -1  -2    1.05    3.10
   5  -1   2   12.36    2.61
  -5   1  -2    5.28    2.97
  -5   1  -2    6.48    3.42
   6   1   2    1.66    1.92
  -6   1  -2   -2.31    3.18
  -6  -1  -2    0.10    3.15
   6  -1   2    2.56    2.23
  -6   1  -2   -3.06    3.20
   7  -1   2   18.39    3.41
   7   1   2   15.22    3.12
  -7   1  -2   11.19    4.60
  -7  -1  -2   14.84    4.06
  -7   1  -2   10.85    4.58
   8  -1   2    1.62    2.47
  -8   1  -2   -5.51    3.80
   8   1   2    1.18    2.26
   9  -2  -2    5.48    3.61
  -9   2   2   10.85    5.72
   8  -2  -2   -4.77    2.80
   8   2  -2   -1.74    2.38
  -8   2   2   -0.71    4.66
   8   2  -2    4.07    3.23
   7   2  -2    0.03    2.31
   7  -2  -2   -1.37    2.65
  -7  -2   2   -0.22    3.20
   7   2  -2   -5.15    2.51
  -7   2   2   -2.50    2.49
   7   2  -2   -2.38    2.25
  -7   2   2    1.32    3.86
   6  -2  -2   95.85    7.20
  -6   2   2  100.74    8.68
   6   2  -2  112.17    6.69
   6   2  -2  109.25    7.21
   6  -2  -2  112.57    6.76
  -6   2   2  100.13    6.04
  -6  -2   2  104.49    7.69
   6   2  -2  113.12    7.38
   6   2  -2   99.67    5.99
   5   2  -2    5.72    2.32
  -5   2   2    0.62    1.97
   5   2  -2   13.64    2.53
  -5   2   2    4.32    3.48
  -5   2   2    7.89    2.05
   5  -2  -2   10.18    2.62
   5   2  -2   11.44    2.17
  -5  -2   2    5.48    2.67
   5   2  -2   13.92    2.58
   5  -2  -2    6.04    2.50
   4  -2  -2    1.45    1.62
   4  -2  -2    0.72    1.83
  -4   2   2    0.00    1.24
   4  -2  -2   -0.45    1.96
   4   2  -2   -1.77    1.31
   4   2  -2   -1.35    1.42
  -4  -2   2   -1.97    1.71
  -4   2   2   -1.29    1.12
   4   2  -2    1.22    1.58
   4   2  -2    0.35    1.56
  -4   2   2   -4.30    2.34
  -3   2   2  155.44    6.49
   3   2  -2  140.69    6.84
   3   2  -2  150.85    7.62
   3  -2  -2  154.63    7.35
   3   2  -2  134.97    7.11
   3  -2  -2  152.33    9.16
  -3  -2   2  144.71    7.70
  -3   2   2  157.82    9.42
  -3   2   2  150.14    6.46
   2   2  -2    6.24    1.53
  -2   2   2   11.40    2.33
  -2   2   2    8.62    0.85
  -2  -2   2    7.24    1.57
   2   2  -2    7.83    1.62
   2  -2  -2    5.69    1.53
  -2  -2   2    8.01    1.64
   2   2  -2    9.32    1.34
  -2  -2   2    8.01    1.33
   2  -2  -2    9.52    2.13
   1  -2  -2  393.46   20.19
  -1  -2   2  373.14   16.14
  -1   2   2  372.68   15.66
   1   2  -2  396.00   16.12
  -1  -2   2  381.18   16.76
   1  -2  -2  372.08   15.60
   1   2  -2  372.26   16.11
  -1  -2   2  385.14   16.18
   1  -2  -2  358.65   15.91
   0  -2   2 2589.14  105.01
   0   2  -2 2659.61  105.12
   0  -2  -2 2417.95  104.69
   0   2   2 2594.50  104.94
   0  -2   2 2778.59  105.11
   0  -2  -2 2676.24  104.83
   0  -2  -2 2649.40  104.85
  -1   2  -2    1.95    1.55
  -1  -2  -2   -1.41    1.06
   1  -2   2    1.65    1.04
   1   2   2    2.12    1.49
  -1  -2  -2    3.32    1.68
   1   2   2   -1.74    1.16
   1  -2   2    1.01    1.30
   2   2   2    2.06    1.21
   2   2   2    1.26    1.55
   2  -2   2    2.67    1.44
  -2   2  -2    2.66    1.59
  -2  -2  -2    1.66    1.04
  -2   2  -2   -0.42    1.72
   2  -2   2    0.41    1.31
  -2  -2  -2    1.38    1.68
   2   2   2    1.20    1.79
   3  -2   2   30.14    3.01
  -3   2  -2   29.26    3.89
  -3   2  -2   29.04    3.53
   3   2   2   26.02    2.33
   3   2   2   23.12    3.27
  -3  -2  -2   24.31    3.48
  -3   2  -2   21.77    3.04
   3  -2   2   24.10    3.21
   3   2   2   29.13    3.42
   4   2   2   92.40    6.42
  -4   2  -2   91.14    6.43
  -4  -2  -2   99.95    7.00
  -4   2  -2   83.25    6.99
   4  -2   2   91.28    6.35
  -4  -2  -2   79.15    5.77
   4  -2   2   85.65    5.50
   4   2   2   93.05    6.24
   4   2   2   94.02    5.07
  -4   2  -2   94.60    6.24
   5   2   2   50.33    4.92
   5   2   2   54.07    3.82
   5  -2   2   48.90    5.02
   5   2   2   46.61    5.35
  -5  -2  -2   49.20    4.44
  -5   2  -2   56.22    6.03
  -5  -2  -2   41.16    5.54
   5  -2   2   51.77    4.33
  -5   2  -2   41.94    5.12
  -6   2  -2    1.75    3.26
  -6  -2  -2   -3.68    2.44
  -6   2  -2   -2.79    3.62
   6   2   2    2.78    2.09
   6   2   2    0.07    2.72
   6  -2   2    0.10    2.26
  -7   2  -2   -0.44    3.72
  -7   2  -2    2.35    4.29
   7  -2   2   -2.70    2.00
   7   2   2    3.34    2.42
  -8   2  -2    2.73    4.49
  -8   2  -2   -1.28    4.22
   8  -2   2   -3.60    2.21
  -9   3   2   15.98    6.09
   9  -3  -2    3.16    3.47
   9   3  -2    2.51    3.48
   8  -3  -2   13.17    3.78
  -8   3   2   21.43    6.06
   8   3  -2   18.07    3.15
   8   3  -2   22.45    4.33
  -7   3   2   30.88    3.92
   7   3  -2   43.79    4.99
   7   3  -2   41.49    5.11
  -7   3   2   39.38    6.62
  -7  -3   2   40.29    5.83
   7   3  -2   45.93    3.91
   7  -3  -2   42.69    4.80
   6  -3  -2    4.98    3.04
  -6   3   2    1.70    3.75
  -6   3   2   -2.78    2.01
   6   3  -2    4.11    2.34
   6   3  -2    4.74    2.62
   6   3  -2   -0.32    2.01
   6  -3  -2    3.39    2.64
  -6  -3   2    3.31    3.30
   6   3  -2    1.23    2.45
   5   3  -2   16.79    3.05
   5  -3  -2   20.96    3.49
   5   3  -2   19.61    2.70
  -5   3   2   16.78    2.36
   5   3  -2   15.84    2.33
   5  -3  -2   16.83    2.99
  -5   3   2   14.46    4.12
  -5   3   2   14.02    2.26
   5   3  -2   20.53    3.17
  -5  -3   2   15.69    3.36
   4  -3  -2  189.19    9.63
   4   3  -2  200.50   11.11
   4  -3  -2  207.28   10.80
   4   3  -2  206.41    8.96
  -4  -3   2  200.70   10.52
   4   3  -2  194.09   10.19
   4   3  -2  187.94    9.62
  -4   3   2  190.50   12.41
  -4   3   2  197.54    8.88
   3   3  -2   25.74    2.86
  -3   3   2   27.37    3.83
   3  -3  -2   31.41    3.25
   3   3  -2   26.39    2.12
  -3  -3   2   26.97    2.68
   3  -3  -2   25.35    1.87
   3   3  -2   28.16    2.58
   3  -3  -2   31.40    2.81
  -3   3   2   26.94    2.01
   2   3  -2    2.91    0.87
   2  -3  -2    5.94    1.88
   2   3  -2    5.68    1.65
   2  -3  -2    5.01    1.02
  -2   3   2    4.54    1.04
  -2  -3   2    5.09    1.33
  -2  -3   2    3.53    1.30
   2  -3  -2    4.74    1.51
  -2   3   2    2.53    2.09
   1  -3  -2  365.09   15.15
  -1  -3   2  346.45   15.43
  -1   3   2  377.23   19.54
  -1   3   2  345.26   15.16
   1   3  -2  380.86   15.38
   1  -3  -2  356.73   15.28
   1   3  -2  353.17   15.73
   1  -3  -2  362.56   19.36
   0  -3  -2  315.15   13.24
   0  -3  -2  286.12   12.81
   0  -3  -2  305.40   12.99
   0  -3   2  304.14   13.25
   0   3   2  299.80   13.23
   0  -3  -2  317.93   16.32
   0   3  -2  299.15   13.55
  -1  -3  -2  223.74   12.22
  -1   3  -2  242.32   11.55
   1   3   2  244.94   10.70
   1   3   2  251.34   11.47
  -1  -3  -2  253.27   10.74
   1  -3   2  259.56   11.84
   1  -3   2  254.62   11.23
  -1  -3  -2  258.15   13.39
   2   3   2   26.37    3.15
   2  -3   2   29.43    2.87
  -2   3  -2   24.47    3.16
  -2   3  -2   25.75    3.52
   2  -3   2   26.89    2.82
  -2  -3  -2   25.43    1.93
  -2  -3  -2   23.78    3.15
   2   3   2   26.20    2.09
  -3   3  -2 2229.51  120.33
  -3   3  -2 2401.72   95.99
  -3  -3  -2 2486.92   94.54
   3   3   2 2289.15  102.89
   3   3   2 2302.36   95.98
  -3  -3  -2 2472.49  103.38
   3  -3   2 2366.46  102.64
   3  -3   2 2363.12   95.47
   3   3   2 2372.01   94.74
   4  -3   2    3.29    2.13
   4  -3   2    3.13    2.21
   4   3   2    2.39    1.53
   4   3   2    0.64    2.40
  -4   3  -2   -1.06    2.96
  -4  -3  -2   -0.70    1.71
   4   3   2    2.94    2.41
  -4  -3  -2    4.93    2.73
  -4   3  -2    3.44    2.67
   5   3   2  373.18   15.90
  -5  -3  -2  388.86   19.72
   5  -3   2  367.77   18.74
   5   3   2  339.23   18.58
  -5   3  -2  342.95   17.43
   5   3   2  372.58   17.72
   5  -3   2  347.42   16.70
  -5   3  -2  358.81   21.38
  -6   3  -2   -2.35    3.87
  -6   3  -2    1.87    3.22
   6   3   2   -1.56    1.85
   6  -3   2    5.15    2.78
   6   3   2   -1.34    2.75
  -7   3  -2    3.34    3.57
   7   3   2    4.68    3.48
   7  -3   2    1.96    2.73
  -7   3  -2    6.45    5.13
  -8   3  -2   -2.73    3.74
   8  -3   2    0.91    2.81
  -8   3  -2   -9.64    3.60
   9  -4  -2   -1.76    3.41
  -9   4   2    2.48    5.73
   9   4  -2    5.37    3.71
   8   4  -2    6.80    3.81
  -8   4   2   15.62    5.99
   8  -4  -2    6.51    3.38
   7  -4  -2    4.13    3.03
   7   4  -2    3.98    2.31
  -7   4   2    5.02    2.87
   7   4  -2    5.57    3.36
  -7   4   2    5.24    5.03
  -6   4   2  125.75   10.66
  -6   4   2  137.53    7.61
   6  -4  -2  132.38    8.20
   6   4  -2  139.93    8.83
  -6  -4   2  146.37    9.56
   6  -4  -2  146.83    9.41
   6   4  -2  158.56    8.75
   6   4  -2  134.61    7.02
   5   4  -2    2.53    2.17
  -5   4   2    1.66    1.98
   5  -4  -2    5.88    2.70
  -5   4   2   -1.58    2.92
   5   4  -2    2.74    2.52
  -5  -4   2    1.02    2.42
   5   4  -2    4.82    1.76
   5  -4  -2    2.12    2.43
   5   4  -2    0.43    1.68
   4  -4  -2  828.40   34.85
   4   4  -2  865.91   35.13
  -4   4   2  837.72   34.09
  -4  -4   2  865.68   37.63
  -4   4   2  744.67   43.94
   4   4  -2  798.47   42.42
   4   4  -2  881.75   33.84
   4   4  -2  805.20   37.24
   3   4  -2   10.71    2.45
   3  -4  -2   14.65    1.75
   3   4  -2   14.74    1.94
  -3  -4   2   13.42    2.44
   3  -4  -2   16.20    2.49
   3   4  -2   12.70    1.69
  -3   4   2   13.89    3.43
   3  -4  -2   16.65    3.20
  -3   4   2   13.07    1.89
  -2  -4   2  173.48    8.43
   2   4  -2  174.26    9.03
   2  -4  -2  198.02   11.18
  -2  -4   2  195.55    9.32
  -2   4   2  171.02   11.10
   2  -4  -2  180.64    8.23
  -2   4   2  183.40    8.36
   2  -4  -2  197.31    8.81
   2   4  -2  183.01    8.32
   1  -4  -2  739.97   29.24
  -1   4   2  691.83   36.96
   1   4  -2  707.44   29.84
  -1   4   2  675.25   29.20
   1  -4  -2  751.66   36.95
   1  -4  -2  702.67   29.13
  -1  -4   2  681.78   29.24
   0  -4  -2  324.80   16.26
   0   4   2  299.47   13.31
   0  -4  -2  283.94   12.64
   0   4   2  298.43   16.23
   0  -4   2  283.73   13.05
   0   4  -2  297.05   13.71
   1   4   2   49.23    3.85
  -1   4  -2   54.07    4.14
  -1  -4  -2   53.72    3.05
   1  -4   2   53.62    3.72
  -1  -4  -2   54.42    3.76
  -1  -4  -2   47.59    4.06
  -1  -4  -2   51.49    2.85
   2  -4   2    9.24    2.11
   2   4   2   14.84    2.65
  -2  -4  -2   10.07    2.85
  -2  -4  -2   10.00    1.74
   2  -4   2   11.42    2.17
  -2  -4  -2    5.80    1.30
  -2   4  -2   14.76    2.85
  -2   4  -2   12.67    3.19
   3  -4   2   37.04    3.84
   3  -4   2   37.67    3.53
   3   4   2   32.43    2.40
  -3  -4  -2   33.53    2.38
  -3   4  -2   39.74    4.52
   3   4   2   37.75    4.19
  -3   4  -2   31.46    4.80
  -3  -4  -2   32.96    4.17
  -3  -4  -2   40.48    2.56
   4  -4   2   32.63    3.63
  -4  -4  -2   27.35    4.32
  -4   4  -2   24.98    4.92
   4  -4   2   24.03    3.77
  -4   4  -2   28.29    4.07
   4   4   2   29.23    2.41
   4   4   2   30.77    4.05
   4   4   2   34.60    4.47
   5  -4   2  139.52    8.29
  -5   4  -2  130.73    8.90
   5   4   2  151.67    7.15
  -5   4  -2  132.38   10.72
   5   4   2  152.29    9.69
   5  -4   2  132.80    9.28
  -5  -4  -2  147.13   10.20
   5   4   2  153.05    9.20
   6   4   2    4.76    3.29
  -6   4  -2    2.80    4.48
  -6   4  -2    6.15    4.05
   6  -4   2    5.84    2.72
  -7   4  -2    5.12    5.01
   7   4   2    5.63    3.77
  -7   4  -2   -0.26    3.60
   7  -4   2    1.03    2.54
   8   4   2    2.68    3.66
  -8   4  -2    0.43    5.30
  -8   4  -2   -4.67    3.69
   8  -4   2   -2.44    2.93
   9  -5  -2   -1.94    2.97
   9   5  -2   -1.15    3.89
   8  -5  -2    8.54    3.72
  -8   5   2    9.32    5.59
   8   5  -2    3.67    3.59
   7  -5  -2   83.15    6.52
   7   5  -2   91.55    6.94
  -7   5   2   80.28    8.74
   6   5  -2   23.75    4.29
  -6   5   2   11.70    5.29
   6  -5  -2   22.17    3.97
   6   5  -2   31.45    4.41
  -6   5   2   28.54    3.65
  -6  -5   2   26.73    4.86
   5   5  -2   75.14    4.27
  -5  -5   2   89.93    6.51
  -5   5   2   75.81    5.00
   5   5  -2   83.08    5.04
   5   5  -2   91.20    6.05
   5  -5  -2   78.48    6.34
  -5   5   2   75.36    7.47
   5  -5  -2   77.45    5.69
   5   5  -2   74.47    5.91
   4  -5  -2    7.95    2.86
  -4   5   2   10.21    2.33
   4   5  -2    4.51    2.64
   4   5  -2    6.18    1.55
  -4  -5   2    7.97    2.88
  -4   5   2    3.37    3.42
   3   5  -2   21.79    2.16
  -3   5   2   33.64    4.73
   3  -5  -2   30.26    3.46
  -3   5   2   31.71    2.89
   3   5  -2   33.47    2.39
   3   5  -2   35.49    3.86
  -3  -5   2   29.21    3.50
  -2   5   2  157.42    7.74
   2  -5  -2  166.11   10.17
  -2  -5   2  153.69    7.52
   2  -5  -2  161.90    7.92
   2   5  -2  158.68    8.43
  -2  -5   2  157.23    8.45
  -2   5   2  152.06   10.12
  -1   5   2  861.54   45.00
  -1  -5   2  841.25   35.55
  -1   5   2  860.87   35.80
   1   5  -2  853.15   36.37
   1  -5  -2  849.22   35.45
   1  -5  -2  914.30   45.00
   0   5   2  376.00   21.55
   0  -5  -2  397.61   16.90
   0  -5  -2  429.64   21.64
   0   5  -2  401.40   18.17
   0   5   2  404.74   17.77
   0  -5   2  400.53   17.36
  -1  -5  -2  127.24    5.97
  -1   5  -2  129.30    7.36
   1  -5   2  128.76    6.66
  -1  -5  -2  124.50    7.50
  -1  -5  -2  120.31    5.73
   1   5   2  125.73    7.07
  -1   5  -2  128.83    8.59
   2  -5   2   10.89    2.36
   2   5   2    7.96    2.56
  -2   5  -2    6.17    3.04
  -2  -5  -2    6.65    2.62
  -2   5  -2    7.48    2.88
  -2  -5  -2   10.14    1.78
  -2  -5  -2    7.16    1.05
   3  -5   2  154.90    8.88
  -3   5  -2  156.87    8.82
   3   5   2  152.50    8.75
  -3  -5  -2  136.30    9.20
  -3   5  -2  147.59   10.51
   3  -5   2  147.64    8.14
   4  -5   2   28.15    3.69
   4  -5   2   42.76    4.74
  -4   5  -2   39.52    4.82
  -4  -5  -2   38.37    5.17
  -4   5  -2   37.80    5.91
   4   5   2   31.86    4.36
   5  -5   2  244.47   12.52
   5  -5   2  241.08   13.98
  -5   5  -2  234.20   16.16
   5   5   2  243.84   13.36
  -5   5  -2  255.84   13.50
  -6   5  -2   62.72    7.55
  -6   5  -2   70.74    6.65
   6   5   2   66.75    6.36
   6  -5   2   57.47    5.35
  -7   5  -2   -1.20    4.81
   7   5   2   -0.78    3.38
   7  -5   2    0.68    2.46
  -7   5  -2   -2.09    3.59
   8  -5   2    3.46    3.14
   8   5   2    4.73    4.03
  -8   5  -2   -1.57    4.14
   8  -6  -2   -1.45    3.12
  -8   6   2    1.07    5.02
   8   6  -2   -0.59    3.15
   7  -6  -2   10.52    3.65
   7   6  -2   12.76    3.89
  -6   6   2   47.28    4.34
   6  -6  -2   32.00    4.57
  -6  -6   2   35.11    5.48
   6   6  -2   40.18    5.13
  -6   6   2   38.55    6.76
  -5   6   2    0.04    2.33
   5  -6  -2   -2.66    2.65
  -5  -6   2    0.03    3.34
  -5   6   2   -0.30    3.93
   5   6  -2   -1.40    2.44
  -4  -6   2    9.89    2.91
   4   6  -2    6.33    3.02
  -4   6   2   10.25    2.58
   4   6  -2   11.86    1.60
   4  -6  -2    8.68    3.24
  -4   6   2    9.36    3.84
   3   6  -2  120.79    5.41
   3   6  -2  104.52    6.96
   3  -6  -2  120.95    6.91
  -3  -6   2  109.62    7.16
  -3   6   2   99.32    8.43
  -3   6   2  112.47    6.40
  -2   6   2  219.60   13.58
  -2  -6   2  212.99   10.06
   2   6  -2  229.60   11.39
   2  -6  -2  217.31   10.55
  -2  -6   2  225.83   11.55
  -2   6   2  221.87   10.60
  -1   6   2   15.17    2.84
   1  -6  -2   15.50    3.43
  -1  -6   2   16.93    2.31
  -1   6   2   17.48    3.25
   1   6  -2   21.07    3.26
   1   6  -2   12.70    2.92
   1  -6  -2   19.62    2.48
   0   6   2  347.60   16.09
   0  -6  -2  375.28   19.45
   0  -6   2  351.42   15.57
   0   6  -2  355.60   19.78
   0   6   2  346.82   19.36
   0  -6  -2  336.63   15.05
   0   6  -2  349.56   16.59
  -1  -6  -2  632.37   31.76
  -1  -6  -2  626.11   25.06
   1  -6   2  612.86   25.88
  -1   6  -2  629.32   26.92
  -1  -6  -2  566.71   24.80
  -1   6  -2  586.56   32.78
   1   6   2  597.19   26.50
   2  -6   2   -1.52    1.69
   2   6   2    2.48    2.46
  -2   6  -2    2.15    3.00
  -2  -6  -2   -3.02    2.23
  -2  -6  -2   -0.60    1.51
  -2   6  -2   -0.43    2.38
   3   6   2   32.75    4.23
  -3   6  -2   24.17    4.15
  -3   6  -2   29.72    5.15
   3  -6   2   27.06    3.48
  -3  -6  -2   24.45    4.14
   3  -6   2   27.36    3.82
  -4   6  -2    8.46    4.18
  -4   6  -2    0.37    3.28
   4  -6   2    8.10    2.87
  -4  -6  -2    4.53    3.44
   4  -6   2   12.20    3.31
   4   6   2   10.31    3.43
  -5   6  -2    4.24    4.44
   5  -6   2    5.84    2.83
   5   6   2    5.35    3.37
  -5   6  -2   -1.99    3.14
  -6   6  -2   -3.80    3.60
   6   6   2    2.21    3.03
   6  -6   2    1.80    2.63
  -6   6  -2    4.16    4.80
   7  -6   2    2.10    3.05
  -7   6  -2    1.83    5.25
   7   6   2    2.47    3.90
  -7   6  -2    2.92    4.52
   8   7  -2    4.71    3.78
   8  -7  -2   -0.77    2.90
   7   7  -2   26.77    4.97
   7  -7  -2   22.39    4.48
  -7   7   2   19.47    6.44
  -6   7   2    9.33    4.89
   6  -7  -2    9.56    3.53
   6   7  -2   11.23    3.74
  -5   7   2  193.52   14.75
   5  -7  -2  193.81   11.35
  -5  -7   2  240.21   13.15
   5   7  -2  218.35   11.97
  -5   7   2  209.89   10.87
  -4   7   2   65.57    5.13
   4   7  -2   68.48    4.76
   4  -7  -2   72.15    5.54
   4   7  -2   78.40    6.33
  -4  -7   2   90.63    6.72
  -4   7   2   67.70    7.19
  -3  -7   2    3.23    1.42
  -3   7   2   -3.48    2.04
   3   7  -2    0.44    1.97
   3  -7  -2    1.19    2.51
  -3   7   2    1.02    3.45
  -3  -7   2    1.39    2.53
   3   7  -2    3.17    2.60
  -2   7   2  100.22    7.77
   2   7  -2   97.21    6.73
  -2  -7   2  101.98    5.48
  -2   7   2   99.80    6.11
  -2  -7   2  101.04    6.76
   2  -7  -2   98.31    6.12
  -1   7   2   40.91    4.49
  -1  -7   2   53.03    3.64
   1  -7  -2   45.07    3.78
   1   7  -2   48.39    4.59
  -1   7   2   45.77    4.17
   1   7  -2   47.76    4.93
   0  -7  -2   10.23    3.24
   0   7   2   10.55    2.79
   0   7   2    3.75    2.61
   0  -7   2    5.68    1.96
   0   7  -2    4.16    2.56
   0  -7  -2    4.70    1.96
   0   7  -2    4.60    2.61
  -1  -7  -2   24.88    3.45
   1  -7   2   23.84    3.06
  -1   7  -2   20.32    4.10
  -1  -7  -2   19.44    2.05
  -1   7  -2   19.76    4.12
   1   7   2   28.19    3.89
   2   7   2   53.41    5.34
  -2   7  -2   53.72    5.82
  -2  -7  -2   45.63    3.75
  -2  -7  -2   44.68    5.50
  -2   7  -2   51.98    5.65
   2  -7   2   50.15    4.25
   3   7   2   10.53    3.33
  -3   7  -2    8.65    4.44
  -3   7  -2    4.50    3.44
   3  -7   2   11.42    2.90
  -3  -7  -2   10.24    3.69
   3  -7   2   13.04    3.28
  -4   7  -2   -2.09    4.13
   4  -7   2    0.48    2.53
   4  -7   2   -4.42    2.14
  -4   7  -2   -3.02    3.21
   4   7   2   -0.88    2.85
  -5   7  -2    3.28    4.15
   5  -7   2    2.86    2.71
  -5   7  -2    1.11    3.80
   5   7   2    5.79    3.43
   6   7   2   -1.78    3.08
   6  -7   2   -0.61    2.58
  -6   7  -2    2.13    3.74
  -6   7  -2    3.36    5.51
   7   7   2    1.84    4.08
   7  -7   2   -0.26    2.77
  -7   7  -2    5.31    4.59
   7   8  -2    4.97    4.01
   7  -8  -2    0.62    2.83
   6   8  -2   14.96    4.32
  -6   8   2    3.94    5.06
   6  -8  -2   12.64    3.95
   5  -8  -2   37.48    5.12
  -5   8   2   47.38    7.70
   5   8  -2   53.99    6.02
  -5   8   2   45.44    4.95
  -5  -8   2   57.05    6.53
  -4   8   2  110.09    7.21
  -4  -8   2  113.17    8.47
   4   8  -2  115.65    8.07
  -4   8   2  104.53    9.59
   4  -8  -2  114.54    7.38
  -3   8   2  107.88    9.12
  -3   8   2  108.59    6.97
   3  -8  -2  106.82    7.08
  -3  -8   2  120.68    8.01
   3   8  -2  114.67    7.88
   3   8  -2  112.05    7.36
  -2   8   2   11.84    3.82
  -2  -8   2   10.85    2.99
   2  -8  -2    9.83    2.87
  -2   8   2   18.43    3.20
  -2  -8   2   12.35    2.23
   2   8  -2    8.97    3.32
   1  -8  -2   -1.30    2.18
  -1  -8   2   -0.23    1.63
  -1   8   2   -2.55    2.49
   1   8  -2   -2.20    2.40
   1   8  -2    0.09    2.62
  -1   8   2   -3.32    2.24
   0  -8   2   32.42    3.42
   0   8   2   40.32    4.38
   0   8  -2   44.50    5.32
   0  -8  -2   30.71    3.22
   0   8   2   35.81    4.33
   0   8  -2   36.12    5.07
   0  -8  -2   26.57    4.89
   1  -8   2   46.58    4.05
   1   8   2   45.54    5.09
  -1  -8  -2   38.15    2.80
  -1   8  -2   57.68    5.91
  -1  -8  -2   43.63    4.46
  -1   8  -2   51.68    5.64
   1   8   2   35.58    4.10
  -2   8  -2  236.81   15.89
  -2   8  -2  246.17   13.58
   2  -8   2  258.98   12.39
  -2  -8  -2  246.69   14.27
   2   8   2  232.59   13.11
  -3   8  -2  189.80   11.20
   3  -8   2  187.14   10.06
  -3   8  -2  160.09   12.65
   3   8   2  178.85   10.94
   4   8   2   13.10    3.97
  -4   8  -2   19.43    5.54
  -4   8  -2   30.88    5.39
   4  -8   2   23.23    3.89
  -5   8  -2   15.76    4.96
   5   8   2   10.26    4.08
  -5   8  -2   12.85    5.79
   5  -8   2   13.91    3.67
   6   8   2    3.41    3.69
   6  -8   2    1.20    2.90
  -6   8  -2    3.41    4.13
   7   9  -2    0.43    3.63
   7  -9  -2    4.39    3.65
   6  -9  -2    7.81    3.71
   6   9  -2   10.29    4.30
  -6   9   2    6.97    5.65
  -5   9   2    2.25    4.94
   5  -9  -2    3.20    3.45
   5   9  -2    1.13    3.45
  -4  -9   2   23.00    4.71
   4  -9  -2   18.12    4.19
  -4   9   2   22.42    3.96
   4   9  -2   26.89    4.88
  -4   9   2   23.66    5.76
  -3   9   2   -0.17    2.89
   3   9  -2    4.38    3.42
   3  -9  -2   -2.50    2.75
  -3  -9   2    2.46    3.27
  -3   9   2   -0.05    4.06
  -2  -9   2   20.76    2.83
   2   9  -2   25.12    4.53
  -2   9   2   24.60    5.13
   2   9  -2   14.75    3.60
  -2  -9   2   25.80    4.34
  -2   9   2   26.18    4.29
   2  -9  -2   20.00    3.54
   1   9  -2   52.93    5.71
   1  -9  -2   56.11    4.50
   1   9  -2   56.12    6.08
  -1  -9   2   52.29    4.22
  -1   9   2   55.63    5.30
  -1   9   2   50.89    5.85
   0   9  -2   15.29    4.52
   0   9  -2   20.60    4.55
   0   9   2   14.61    3.95
   0  -9   2   18.69    3.01
   0   9   2   25.12    4.33
   0  -9  -2   12.40    2.54
   1   9   2   -1.85    3.13
   1   9   2   -4.15    2.95
  -1   9  -2    2.58    3.20
   1  -9   2   -0.24    2.23
  -1   9  -2   -0.09    4.18
   2   9   2    2.00    3.71
  -2   9  -2    0.19    3.63
   2  -9   2    0.36    2.35
  -2   9  -2   -3.12    3.85
   3   9   2   24.81    4.92
  -3   9  -2   30.95    5.61
  -3   9  -2   21.20    6.09
   3  -9   2   21.97    3.83
   4   9   2   -3.41    2.78
   4  -9   2   -0.91    2.57
  -4   9  -2   -1.58    3.56
  -4   9  -2   -4.82    4.57
   5   9   2   -2.40    3.23
  -5   9  -2    0.13    4.31
   5  -9   2   -3.05    2.49
  -5   9  -2   -8.49    4.05
  -6   9  -2    4.41    4.75
   6   9   2    1.86    3.51
   6  -9   2    5.69    3.37
   6 -10  -2    0.83    3.22
   6  10  -2   -0.49    3.74
   5 -10  -2   23.11    4.46
   5  10  -2   24.50    5.38
  -5  10   2   32.57    7.20
   4 -10  -2    8.21    3.43
  -4  10   2    9.40    3.68
   4  10  -2    9.58    4.09
  -4  10   2    7.00    4.67
   3  10  -2   12.43    4.42
   3 -10  -2   12.22    3.49
  -3  10   2    9.30    3.75
  -3 -10   2   10.30    4.21
  -3  10   2   15.30    5.28
   2  10  -2   13.14    4.17
  -2  10   2    9.14    4.68
  -2  10   2   18.66    4.15
  -2 -10   2   18.61    4.23
   2 -10  -2   13.86    3.36
   2  10  -2   12.91    4.14
  -1  10   2    1.84    3.68
  -1 -10   2    2.86    2.26
   1  10  -2   -1.07    3.63
  -1  10   2    1.82    3.35
   1  10  -2    2.13    3.52
   1 -10  -2    0.12    2.52
   0  10  -2   42.50    5.75
   0 -10   2   37.18    4.18
   0  10  -2   29.13    6.04
   0  10   2   34.49    5.02
   0  10   2   43.10    5.68
   1 -10   2   25.40    3.81
   1  10   2   19.24    4.69
  -1  10  -2   36.03    5.66
  -1  10  -2   23.32    5.63
   2 -10   2   41.97    4.70
   2  10   2   26.60    5.15
  -2  10  -2   37.89    6.05
  -2  10  -2   33.28    6.74
   3  10   2   19.56    4.92
  -3  10  -2   19.91    6.01
   3 -10   2   18.03    3.85
  -3  10  -2   13.25    4.90
   4  10   2    2.25    4.19
  -4  10  -2    6.20    5.76
   4 -10   2    5.20    3.40
  -4  10  -2   -5.14    3.61
  -5  10  -2   -1.60    3.96
   5  10   2   -3.68    3.30
   5 -10   2    0.88    2.93
   5 -11  -2   29.49    5.17
   5  11  -2   38.32    6.13
   4 -11  -2   50.21    5.81
   4  11  -2   51.26    6.73
  -4  11   2   40.45    7.66
   3  11  -2    9.85    4.49
  -3  11   2   14.82    5.51
  -3  11   2   12.94    4.56
   3 -11  -2    8.40    3.67
  -2  11   2   10.51    5.14
  -2  11   2   10.21    4.34
   2  11  -2    2.99    3.58
   2 -11  -2    7.01    3.17
  -1  11   2    8.96    3.90
  -1  11   2    7.07    4.60
   1  11  -2    7.72    4.07
   1  11  -2    1.30    3.92
   0  11  -2   11.71    5.03
   0 -11   2   17.58    3.43
   0  11  -2   18.93    4.98
   0  11   2   14.24    4.47
  -1  11  -2   13.65    4.92
  -1  11  -2   10.15    5.22
   1  11   2    7.50    4.27
   1 -11   2   19.14    3.55
  -2  11  -2   18.92    6.01
   2  11   2   23.54    5.49
   2 -11   2   22.26    3.90
  -2  11  -2   26.13    5.87
  -3  11  -2   -1.09    3.79
   3 -11   2    1.09    2.85
   3  11   2   -1.36    3.60
  -3  11  -2   -1.08    4.93
   4  11   2   -1.54    3.99
  -4  11  -2    4.63    5.03
   4 -11   2    3.93    3.43
   4 -12  -2    0.52    3.57
   3  12  -2    0.01    3.78
  -3  12   2    4.02    5.36
  -3  12   2    4.18    4.02
   3 -12  -2    2.31    3.40
   2  12  -2   -1.90    4.17
  -2  12   2    0.33    4.42
  -2  12   2   -1.63    3.52
   1  12  -2   13.90    4.78
  -1  12   2   15.63    4.61
   0  12   2   24.70    5.82
   0  12  -2   30.04    5.83
   0  12  -2   24.09    5.82
  -1  12  -2   15.43    5.18
   1 -12   2   24.95    3.89
   1  12   2   11.56    5.18
  -1  12  -2    8.68    5.41
  -2  12  -2   -0.08    4.57
  -2  12  -2    2.32    4.28
   2 -12   2    8.50    3.39
   2  12   2    6.39    4.10
   3 -12   2    3.31    3.30
   9   0  -3   -5.47    2.63
   8   0  -3   -3.83    2.78
   7   0  -3   -3.99    2.48
   7   0  -3   -0.15    2.46
   6   0  -3    1.67    1.63
   6   0  -3    3.13    2.36
   6   0  -3    4.89    2.54
  -5   0   3   -1.60    1.41
   5   0  -3    0.85    1.47
   5   0  -3    0.01    1.80
   5   0  -3    4.83    2.14
   5   0  -3    2.60    2.32
   4   0  -3    4.25    1.71
   4   0  -3    4.15    1.18
   4   0  -3    3.20    1.70
   4   0  -3    2.52    2.03
  -4   0   3    4.19    1.22
   3   0  -3   -2.24    1.46
   3   0  -3   -0.52    1.10
   3   0  -3   -2.35    0.74
  -3   0   3   -2.08    0.79
   3   0  -3   -2.38    1.26
   2   0  -3   -1.26    1.25
   2   0  -3   -0.01    0.76
  -2   0   3    1.03    0.88
   1   0  -3    0.86    0.99
  -1   0   3   -1.28    1.39
   0   0   3   -1.21    1.48
   0   0  -3    0.55    1.32
   0   0  -3    0.46    0.98
   1   0   3   -0.16    1.24
   1   0   3   -0.34    1.47
  -1   0  -3    1.57    1.32
  -2   0  -3    0.17    1.64
   2   0   3   -1.37    1.30
   2   0   3    0.13    1.41
   3   0   3   -0.43    1.68
   3   0   3   -0.31    1.61
  -3   0  -3   -3.54    1.82
  -4   0  -3   -0.93    2.54
   4   0   3   -0.74    2.18
   4   0   3    2.45    1.95
  -4   0  -3    1.08    2.65
  -5   0  -3    3.79    3.16
   5   0   3    1.82    2.39
  -5   0  -3   -2.06    2.58
   5   0   3    0.90    1.94
   6   0   3   -0.97    2.47
  -6   0  -3   -3.31    3.53
  -7   0  -3   -1.20    3.76
   7   0   3    1.52    2.34
  -7   0  -3   -0.41    4.13
   8   0   3    0.51    2.41
  -8   0  -3   -3.52    4.88
   9  -1  -3   -3.35    3.04
   9   1  -3   -0.46    2.74
   8  -1  -3   -2.04    2.79
   8   1  -3    1.74    2.98
  -7   1   3   -2.68    3.67
   7   1  -3    1.14    2.56
   7   1  -3   -4.19    2.23
   7  -1  -3   -0.50    2.50
   7   1  -3    0.43    2.39
  -7  -1   3   -0.38    2.97
   7  -1  -3    2.01    2.74
   6  -1  -3  245.78   13.21
   6   1  -3  266.23   11.62
   6   1  -3  265.62   11.79
  -6  -1   3  238.14   13.37
   6  -1  -3  251.99   11.94
   6   1  -3  228.16   12.79
  -6   1   3  191.29   14.88
   5   1  -3  282.35   12.49
   5   1  -3  285.54   12.72
   5  -1  -3  272.69   12.90
   5  -1  -3  276.43   14.12
  -5   1   3  241.55   16.39
   5   1  -3  309.91   15.95
  -5   1   3  281.17   11.97
  -5  -1   3  262.24   14.05
   5   1  -3  265.60   13.82
  -4  -1   3 1291.84   50.38
   4  -1  -3 1215.25   54.51
  -4  -1   3 1239.91   54.48
   4   1  -3 1155.33   63.57
   4   1  -3 1249.81   50.30
   4   1  -3 1205.05   54.28
   4  -1  -3 1258.73   50.82
   4   1  -3 1243.49   50.61
   4  -1  -3 1304.32   64.04
   3  -1  -3  103.59    6.69
  -3  -1   3   91.07    4.81
   3  -1  -3   92.71    5.22
   3   1  -3   84.00    5.00
   3   1  -3  101.40    5.23
   3   1  -3   96.84    4.74
   2  -1  -3  570.29   24.93
   2   1  -3  648.10   26.15
  -2  -1   3  624.57   25.30
   2  -1  -3  584.57   24.30
   2   1  -3  588.88   24.55
   2  -1  -3  563.23   31.37
   1  -1  -3 1947.15   78.55
  -1  -1   3 1887.72   79.24
  -1  -1   3 2104.87   78.88
   1   1  -3 1921.29   78.79
  -1   1   3 1955.71   79.24
   0  -1   3   85.85    5.24
   0   1   3   93.91    5.23
   0  -1  -3   92.63    4.90
   0  -1  -3   97.65    5.22
   0   1  -3   93.41    4.64
   0   1  -3   95.12    5.04
   0  -1   3   98.15    5.04
   0  -1   3   96.65    4.66
   1   1   3  622.51   26.84
  -1   1  -3  655.07   28.45
  -1  -1  -3  676.70   28.88
   1  -1   3  601.51   26.88
  -1   1  -3  643.37   27.03
   1  -1   3  660.91   28.43
   1   1   3  630.48   28.76
  -2   1  -3  156.51    8.49
   2   1   3  160.13    8.59
  -2   1  -3  157.41    8.35
   2  -1   3  160.96    8.41
   2   1   3  157.05    7.83
   2  -1   3  155.86    7.94
  -2  -1  -3  159.50    8.72
  -3   1  -3   49.61    4.47
  -3  -1  -3   59.16    4.91
  -3   1  -3   53.64    4.60
   3  -1   3   59.96    4.52
   3  -1   3   58.35    4.22
   3   1   3   54.01    3.85
   3   1   3   49.47    4.36
   4   1   3   45.01    3.85
  -4   1  -3   58.34    5.03
   4  -1   3   51.02    4.21
   4   1   3   54.43    4.86
  -4   1  -3   54.77    4.83
   4  -1   3   49.99    4.63
  -4  -1  -3   51.87    4.83
  -4   1  -3   50.00    5.18
  -4  -1  -3   51.80    5.21
   5   1   3   -1.15    1.73
   5  -1   3   -1.94    2.20
   5   1   3   -2.12    2.22
  -5   1  -3   -4.70    2.99
   5  -1   3   -0.29    2.22
  -5  -1  -3   -4.15    2.23
  -5   1  -3   -0.78    2.86
  -5  -1  -3    3.72    3.37
  -5   1  -3   -0.28    3.26
  -6   1  -3   38.47    5.72
   6   1   3   47.19    4.25
   6  -1   3   47.20    4.60
  -6   1  -3   38.20    6.23
  -6  -1  -3   47.03    5.38
   7  -1   3    7.39    2.94
   7   1   3    5.58    2.67
  -7   1  -3    4.57    4.48
  -7   1  -3    4.00    4.56
   8  -1   3   -1.17    2.31
  -8   1  -3   -5.70    3.51
   8   1   3    0.58    2.32
   9   2  -3    7.96    3.26
   9  -2  -3   10.16    3.91
  -9   2   3   13.59    6.09
   8  -2  -3   22.07    4.28
  -8   2   3   25.07    6.30
   8   2  -3   29.22    4.03
   8   2  -3   35.58    4.61
   7   2  -3    2.63    2.65
  -7   2   3    1.58    4.15
   7   2  -3   -3.49    2.40
   7  -2  -3    3.23    3.01
   7  -2  -3    1.61    2.85
   7   2  -3    4.58    2.65
  -7  -2   3    1.41    3.34
  -6  -2   3    3.95    2.69
  -6   2   3   -2.32    3.74
   6   2  -3    3.26    2.52
   6  -2  -3    6.12    2.57
  -6   2   3   -0.29    1.78
   6   2  -3    1.70    2.28
   6   2  -3    2.80    2.24
   6  -2  -3    3.50    2.54
   6   2  -3    7.04    2.34
  -5  -2   3  130.97    8.20
  -5   2   3  133.42    6.35
   5  -2  -3  142.97    8.36
   5   2  -3  147.42    8.87
  -5   2   3  132.36    6.33
  -5   2   3  127.98    9.86
   5  -2  -3  145.29    7.72
   5   2  -3  142.21    7.31
   5   2  -3  125.56    7.84
   5   2  -3  152.71    7.26
   4  -2  -3  186.23    8.99
   4   2  -3  172.27    9.19
   4   2  -3  170.17   10.67
   4  -2  -3  183.39    9.74
   4   2  -3  182.34    8.59
   4  -2  -3  180.00   11.10
  -4  -2   3  179.56    9.40
  -4   2   3  177.01   11.62
   4   2  -3  191.07    8.72
   3  -2  -3    0.42    1.79
   3  -2  -3    1.76    1.64
   3   2  -3   -0.11    1.25
  -3  -2   3   -0.04    1.10
   3   2  -3    1.93    1.44
  -3   2   3    1.52    2.50
   3   2  -3    2.17    1.15
  -2  -2   3   71.09    3.47
   2   2  -3   67.51    3.46
   2   2  -3   65.23    3.89
  -2  -2   3   60.86    4.12
  -2  -2   3   70.35    4.07
   2  -2  -3   66.09    5.08
   2  -2  -3   65.89    4.03
   1   2  -3 1768.15   72.01
  -1   2   3 1869.59   71.74
   1  -2  -3 1716.60   71.90
  -1  -2   3 1848.03   72.36
   1  -2  -3 1849.04   71.54
   1  -2  -3 1660.45   90.58
   0   2   3  194.02    9.07
   0  -2  -3  199.54    8.96
   0  -2   3  197.79    8.89
   0   2  -3  190.79    9.19
   0  -2   3  184.73    9.20
   0   2   3  196.12    9.11
  -1  -2  -3   28.53    2.99
   1  -2   3   28.81    2.91
   1   2   3   26.52    2.99
  -1   2  -3   26.71    2.36
  -1   2  -3   29.11    3.15
   1   2   3   24.83    2.65
   2   2   3  162.73    8.04
  -2   2  -3  169.21    8.79
  -2   2  -3  160.06    8.68
  -2  -2  -3  168.60    9.39
   2  -2   3  168.76    8.41
   2   2   3  162.40    9.17
   2  -2   3  176.88    8.81
   2   2   3  157.99    8.67
  -3   2  -3   34.49    4.13
   3   2   3   31.89    4.04
  -3  -2  -3   44.47    4.39
   3  -2   3   34.06    3.60
   3   2   3   34.43    3.06
   3   2   3   38.29    3.90
   3  -2   3   35.77    3.51
  -3   2  -3   41.01    3.98
  -4   2  -3   40.83    4.92
   4  -2   3   45.53    4.39
   4   2   3   39.95    3.53
   4   2   3   36.93    4.51
  -4   2  -3   41.87    4.83
   4  -2   3   39.96    3.82
   4   2   3   45.47    4.34
  -4   2  -3   34.31    4.42
  -4  -2  -3   44.56    5.19
  -5   2  -3  126.25    8.66
   5   2   3  120.64    8.28
   5   2   3  121.98    6.77
  -5  -2  -3  126.76    9.15
   5  -2   3  110.56    7.87
  -5   2  -3  115.37    8.27
  -5   2  -3  101.60    8.82
   5  -2   3  111.44    7.05
  -5  -2  -3  111.57    7.82
  -6  -2  -3   23.72    4.19
  -6   2  -3   19.94    4.87
  -6   2  -3   19.22    5.13
   6   2   3   20.44    3.18
   6  -2   3   22.05    3.54
  -7   2  -3    2.61    4.45
  -7   2  -3    1.83    4.76
   7   2   3    6.15    2.68
   7  -2   3    8.71    3.02
   8  -2   3   -1.10    2.49
  -8   2  -3   -1.69    4.85
  -9   3   3   22.49    6.74
   9  -3  -3   14.14    4.13
   8   3  -3   17.93    3.86
  -8   3   3    3.04    4.83
   8   3  -3   12.12    3.25
   8  -3  -3   13.90    3.83
  -7  -3   3   46.07    6.13
   7   3  -3   66.82    5.99
   7  -3  -3   60.89    5.48
   7   3  -3   65.84    4.86
  -7   3   3   63.05    7.45
   7   3  -3   71.89    5.71
   6   3  -3   -4.02    1.99
   6   3  -3   -1.93    2.20
  -6  -3   3   -1.80    2.52
  -6   3   3   -1.31    1.53
   6  -3  -3   -0.58    1.94
   6   3  -3   -1.42    2.12
  -6   3   3    1.30    3.72
   6  -3  -3    0.22    2.35
   6   3  -3   -2.83    1.92
   5  -3  -3  110.10    7.18
  -5   3   3   92.54    8.42
   5   3  -3  116.88    5.97
  -5   3   3  102.28    5.10
   5   3  -3  120.30    7.30
  -5  -3   3  105.72    7.01
   5   3  -3  110.25    6.40
   5  -3  -3  104.46    6.49
   5   3  -3   99.66    6.59
   4  -3  -3  252.82   12.06
  -4   3   3  266.64   15.77
   4   3  -3  256.87   12.50
   4   3  -3  237.88   11.42
  -4  -3   3  263.05   12.79
   4   3  -3  262.42   11.97
  -3  -3   3   91.15    5.16
   3   3  -3   86.07    5.16
   3   3  -3   75.65    4.75
   3  -3  -3   95.14    5.34
   3  -3  -3   91.65    6.53
   3   3  -3   99.16    5.12
  -3   3   3   95.84    7.09
   2  -3  -3  704.12   28.02
  -2   3   3  696.29   28.15
  -2  -3   3  709.93   30.21
  -2   3   3  622.75   36.38
  -2  -3   3  663.92   28.93
   2   3  -3  673.26   28.90
   2  -3  -3  753.34   36.52
   2  -3  -3  704.40   28.85
   1   3  -3  347.41   15.42
   1  -3  -3  326.80   14.98
   1  -3  -3  359.23   19.06
  -1   3   3  353.67   14.89
  -1  -3   3  335.39   15.38
   1  -3  -3  362.13   14.80
   0  -3   3   87.08    4.56
   0  -3   3   76.85    5.11
   0   3   3   80.84    5.00
   0  -3  -3  107.22    6.18
   0  -3  -3   84.91    4.74
   0   3  -3   98.46    5.49
  -1  -3  -3 3430.85  144.94
   1  -3   3 3314.20  134.85
   1   3   3 3362.67  134.51
  -1   3  -3 3346.44  135.14
   1   3   3 3360.92  135.05
   2   3   3  160.05    8.37
  -2  -3  -3  145.97    8.83
  -2   3  -3  153.25    8.33
   2  -3   3  139.26    7.86
   2  -3   3  157.32    8.22
   2   3   3  151.03    7.41
   3   3   3  224.13   10.61
   3  -3   3  230.02   12.08
   3   3   3  210.96   11.72
   3  -3   3  226.83   11.29
  -3   3  -3  242.22   14.47
  -3  -3  -3  233.98   12.82
  -3   3  -3  237.56   11.92
   3   3   3  240.06   12.69
   4   3   3    4.09    2.58
  -4   3  -3    3.88    2.82
   4  -3   3    4.17    2.35
   4   3   3    5.01    2.82
  -4  -3  -3    4.98    3.21
  -4   3  -3    3.88    3.26
   4  -3   3    5.50    2.56
   4   3   3    2.31    1.87
   5  -3   3    3.75    2.60
  -5  -3  -3    1.83    2.71
  -5   3  -3    8.56    3.60
   5  -3   3    0.38    2.60
  -5   3  -3    5.36    4.16
   5   3   3    4.71    3.18
   5   3   3    4.77    2.07
   5   3   3   13.09    3.76
  -6   3  -3    4.72    4.68
   6   3   3    9.30    2.53
  -6   3  -3   -1.79    3.82
   6  -3   3    8.47    3.06
   6   3   3   -0.16    3.11
   7  -3   3   -0.36    2.72
  -7   3  -3    0.35    4.39
  -7   3  -3   -3.55    4.45
  -8   3  -3   -0.29    5.11
  -8   3  -3   -1.71    4.98
   8  -3   3    1.27    2.74
   9  -4  -3    4.65    3.85
  -9   4   3   12.05    6.12
   9   4  -3    8.16    4.34
  -8   4   3    7.67    5.57
   8   4  -3    4.78    3.89
   8  -4  -3    4.83    3.17
   7  -4  -3    7.94    3.51
  -7  -4   3    6.95    3.40
  -7   4   3    3.96    4.64
   7   4  -3    8.64    3.24
   7   4  -3    6.02    2.63
   7   4  -3    3.60    3.14
   6   4  -3  325.08   14.01
   6   4  -3  344.79   15.35
   6  -4  -3  296.84   16.30
   6  -4  -3  292.40   14.95
   6   4  -3  317.04   16.00
  -6   4   3  298.05   13.50
  -6   4   3  287.48   19.42
  -5  -4   3   91.75    6.58
   5   4  -3   96.27    5.17
   5   4  -3   89.58    6.29
  -5   4   3   80.76    4.63
   5  -4  -3   91.68    6.65
   5  -4  -3   93.41    6.06
  -5   4   3   90.12    4.67
   5   4  -3   95.02    6.15
   5   4  -3   95.84    6.20
  -5   4   3   86.82    7.97
   4   4  -3   31.57    3.11
   4   4  -3   37.92    3.77
   4  -4  -3   26.91    3.47
  -4   4   3   27.42    2.12
  -4  -4   3   31.49    3.38
   4   4  -3   27.20    2.77
  -4   4   3   24.86    4.94
   3  -4  -3    2.86    1.07
   3   4  -3    0.52    1.84
   3  -4  -3    3.07    1.80
  -3  -4   3    1.57    1.69
  -3  -4   3    3.63    1.54
  -3   4   3    4.73    2.93
  -3   4   3    1.68    1.21
   2  -4  -3  485.23   20.49
  -2   4   3  426.12   25.93
   2   4  -3  485.49   20.89
  -2   4   3  475.92   19.95
  -2  -4   3  493.23   21.44
   2  -4  -3  521.54   26.05
   2  -4  -3  485.32   19.86
  -2  -4   3  450.02   20.52
  -1   4   3  360.94   16.01
   1  -4  -3  360.09   15.99
  -1  -4   3  372.48   16.45
   1  -4  -3  387.17   20.37
   1  -4  -3  380.38   15.97
   1   4  -3  362.96   16.68
   0   4  -3  297.09   13.96
   0  -4  -3  285.92   12.95
   0  -4   3  296.26   13.57
   0  -4  -3  306.38   16.50
   0   4   3  304.53   13.58
  -1  -4  -3   40.55    4.02
  -1   4  -3   43.41    3.92
  -1  -4  -3   52.26    3.77
   1   4   3   40.37    3.65
   1  -4   3   32.80    3.30
  -1  -4  -3   41.44    2.83
   1  -4   3   33.18    2.94
   2  -4   3    3.91    2.14
  -2  -4  -3    8.04    2.74
   2  -4   3    5.40    1.85
  -2   4  -3    5.23    2.59
   2   4   3    0.94    2.13
   2   4   3    0.81    1.73
  -3   4  -3   23.56    4.55
  -3   4  -3   18.32    3.64
   3  -4   3   22.00    3.32
  -3  -4  -3   25.79    4.13
   3   4   3   23.15    3.68
   3   4   3   20.83    2.41
   3  -4   3   17.88    3.05
  -4  -4  -3  224.71   12.70
   4   4   3  212.32   12.06
   4  -4   3  175.45   11.09
   4   4   3  191.45   11.08
  -4   4  -3  180.09   13.16
   4  -4   3  201.19   10.44
  -4   4  -3  207.37   11.29
   4   4   3  197.63    9.36
   5   4   3   28.94    4.87
   5   4   3   34.43    3.14
  -5   4  -3   21.75    5.46
   5  -4   3   22.53    3.72
  -5   4  -3   19.62    4.64
   5  -4   3   28.82    4.49
  -6   4  -3  100.30    9.32
   6  -4   3   87.72    6.62
  -6   4  -3   88.78    7.80
   6   4   3   85.32    7.42
   7   4   3   50.64    6.53
  -7   4  -3   53.71    6.95
   7  -4   3   44.54    5.24
  -7   4  -3   48.16    8.29
  -8   4  -3   -0.06    4.24
   8  -4   3    0.12    2.71
  -8   4  -3   -3.29    4.75
   9  -5  -3    4.31    3.67
   9   5  -3    8.37    4.30
   8   5  -3    0.21    3.32
   8  -5  -3    0.23    3.15
  -8   5   3   -2.60    5.07
  -7  -5   3    3.95    3.35
  -7   5   3    8.69    5.40
   7  -5  -3    3.34    3.11
   7   5  -3    2.72    3.11
   7   5  -3    3.41    2.90
   6   5  -3    3.57    2.89
   6   5  -3   10.00    2.29
  -6   5   3    9.20    4.82
   6   5  -3   13.60    3.54
  -6  -5   3    3.79    3.67
   6  -5  -3   13.00    3.62
   5   5  -3    9.45    2.09
   5   5  -3    9.47    3.02
  -5   5   3   10.64    4.35
   5   5  -3   12.67    3.09
  -5   5   3   11.21    2.05
   5  -5  -3    5.47    2.69
  -5  -5   3    9.49    2.94
   5   5  -3   12.54    2.63
   4  -5  -3  172.17    9.10
  -4   5   3  153.73   11.64
   4   5  -3  170.22    9.23
  -4  -5   3  167.84    9.53
  -4   5   3  176.33    7.91
   4  -5  -3  178.51    7.82
   4   5  -3  162.55    8.03
   3  -5  -3   83.73    5.23
   3   5  -3   78.07    5.50
   3  -5  -3   79.44    4.31
  -3  -5   3   83.40    4.85
  -3   5   3   70.89    4.44
  -3  -5   3   84.07    5.26
  -3   5   3   79.07    6.92
  -2   5   3    6.85    3.21
   2  -5  -3    8.66    2.12
   2   5  -3    9.87    2.58
  -2  -5   3    9.45    1.92
  -2   5   3    5.60    1.89
  -2  -5   3    9.19    2.22
   1  -5  -3   83.09    5.88
   1   5  -3   75.67    5.32
   1  -5  -3   69.62    4.31
  -1   5   3   62.07    5.71
  -1   5   3   75.84    4.66
  -1  -5   3   70.13    4.71
   0  -5   3   30.66    3.37
   0  -5  -3   32.58    3.49
   0   5   3   33.77    3.61
   0   5  -3   43.52    4.25
   0  -5  -3   33.18    2.68
  -1  -5  -3   55.38    4.21
   1  -5   3   47.96    3.97
  -1  -5  -3   45.77    4.65
  -1  -5  -3   54.00    3.22
   1   5   3   46.77    4.34
  -1   5  -3   48.34    4.47
  -2   5  -3   21.74    4.39
   2  -5   3   24.43    3.15
  -2   5  -3   28.06    4.12
  -2  -5  -3   23.45    2.08
  -2  -5  -3   22.57    3.91
   2   5   3   24.62    3.62
  -2  -5  -3   25.23    2.73
   2  -5   3   25.04    3.27
   3   5   3   69.81    5.60
   3  -5   3   72.79    5.18
   3  -5   3   70.79    5.40
  -3   5  -3   66.46    5.64
  -3  -5  -3   68.11    4.48
  -3   5  -3   60.10    6.48
  -3  -5  -3   58.43    5.69
  -4   5  -3   85.08    8.28
   4   5   3  102.79    7.27
   4   5   3   93.36    5.01
   4  -5   3   87.65    6.38
  -4   5  -3   95.44    7.22
   4  -5   3   95.57    7.09
  -4  -5  -3  106.74    8.23
   5  -5   3   16.77    3.50
  -5   5  -3   13.30    4.47
   5   5   3   18.34    4.13
  -5   5  -3   15.69    5.60
  -6   5  -3   -1.39    4.17
   6  -5   3   -0.74    2.62
  -6   5  -3  -11.10    4.63
   6   5   3   -1.04    2.97
   7   5   3   -3.30    3.57
  -7   5  -3    0.01    4.75
   7  -5   3    4.91    3.32
  -7   5  -3   -0.56    5.26
  -8   6   3    1.76    5.41
   8   6  -3   -0.15    3.12
   8  -6  -3   -3.13    2.86
  -7   6   3   21.74    6.69
   7   6  -3   37.25    4.99
   7  -6  -3   18.53    4.11
  -6   6   3   24.41    6.07
  -6  -6   3   21.77    4.39
   6  -6  -3   16.05    4.10
   6   6  -3   40.34    4.85
  -5   6   3  263.85   12.37
   5  -6  -3  272.92   13.68
  -5   6   3  240.02   17.47
   5   6  -3  290.81   12.14
  -5  -6   3  297.73   14.93
   5   6  -3  260.53   13.72
   4   6  -3   -0.44    1.41
  -4   6   3   -0.21    1.71
   4  -6  -3    1.17    2.59
  -4  -6   3    3.10    2.35
  -4   6   3    4.03    3.88
   4   6  -3    1.20    2.63
  -3  -6   3 1007.41   42.43
  -3   6   3  871.23   50.20
   3   6  -3  968.01   40.23
  -3  -6   3  926.30   39.07
  -3   6   3  952.35   39.03
   3  -6  -3  948.47   39.62
   2   6  -3   58.01    4.75
  -2  -6   3   50.89    4.05
  -2   6   3   49.88    3.87
   2  -6  -3   48.52    3.88
  -2   6   3   45.80    5.15
  -2  -6   3   48.36    3.85
   1  -6  -3    9.50    2.95
   1   6  -3   14.52    3.16
  -1   6   3   10.02    2.47
   1  -6  -3   11.56    2.17
  -1   6   3   15.82    3.34
  -1  -6   3   13.68    2.54
   0  -6  -3   70.50    4.14
   0   6   3   62.96    4.79
   0  -6   3   64.13    4.62
   0   6  -3   67.64    5.44
   0  -6  -3   69.11    5.41
   1  -6   3   43.87    3.83
  -1  -6  -3   38.50    2.77
  -1   6  -3   46.21    5.07
   1   6   3   42.24    4.04
  -1   6  -3   35.31    4.51
  -1  -6  -3   39.62    3.89
  -2   6  -3   55.80    5.20
  -2  -6  -3   51.42    5.16
  -2  -6  -3   53.07    4.08
   2  -6   3   49.43    4.35
   2   6   3   49.51    4.74
  -2  -6  -3   58.69    3.17
   2  -6   3   50.57    4.34
  -2   6  -3   42.22    5.97
  -2  -6  -3   47.11    3.00
   3  -6   3   50.27    4.71
  -3  -6  -3   48.80    5.72
  -3   6  -3   50.94    5.77
   3  -6   3   52.36    4.57
   3   6   3   42.87    5.16
  -3  -6  -3   43.64    2.59
  -3  -6  -3   43.33    3.44
  -3   6  -3   42.68    6.38
  -4   6  -3  172.13   10.60
   4  -6   3  170.75   10.33
   4  -6   3  160.17    9.45
  -4   6  -3  147.50   12.11
   4   6   3  172.27   10.33
   5  -6   3    4.67    2.71
   5   6   3   -0.19    2.93
  -5   6  -3   -0.30    4.56
  -5   6  -3   -0.02    3.53
   6   6   3   94.21    8.16
  -6   6  -3   92.82    9.96
  -6   6  -3  101.44    8.51
  -7   6  -3   31.72    6.41
   7  -6   3   31.70    4.84
   7   6   3   27.33    5.55
   8  -7  -3   -3.35    2.79
   8   7  -3    2.81    3.65
  -7   7   3   17.18    6.15
   7  -7  -3    7.22    3.67
   7   7  -3   18.77    4.46
   6  -7  -3   11.00    3.75
  -6  -7   3   11.04    3.86
   6   7  -3    8.91    3.93
  -6   7   3    6.83    5.18
   5  -7  -3   -2.96    3.07
  -5   7   3    1.57    4.27
   5   7  -3    6.88    3.41
  -5  -7   3    4.36    3.20
  -4   7   3  117.89    6.41
   4   7  -3   98.78    5.53
  -4  -7   3  118.12    7.69
   4   7  -3  111.85    7.62
  -4   7   3  112.91    9.44
   4  -7  -3  101.25    6.98
   3  -7  -3   12.12    2.90
  -3   7   3    8.12    4.05
  -3   7   3    8.52    2.76
  -3  -7   3    9.23    2.76
   3   7  -3    7.69    3.17
  -3  -7   3   10.71    2.26
  -2   7   3   12.81    3.77
  -2   7   3    3.92    2.46
   2   7  -3    6.57    3.01
  -2  -7   3    5.83    2.34
   2  -7  -3    7.96    2.56
  -2  -7   3    5.11    2.71
  -1  -7   3   94.65    5.81
  -1   7   3   85.97    7.25
   1  -7  -3   99.80    5.58
   1   7  -3   89.67    6.65
  -1   7   3   91.92    6.00
   0   7  -3  411.83   23.49
   0   7   3  418.62   19.10
   0  -7  -3  443.98   23.00
   0   7  -3  413.48   19.77
   0  -7   3  404.61   18.60
   0  -7  -3  391.29   17.79
  -1  -7  -3  108.61    7.34
  -1   7  -3  102.64    7.43
  -1  -7  -3  102.62    5.36
  -1   7  -3   94.72    8.19
   1  -7   3  102.13    6.44
   1   7   3  107.61    7.00
  -2   7  -3   56.59    5.46
  -2  -7  -3   58.85    6.21
   2   7   3   50.68    5.68
  -2  -7  -3   44.50    2.93
   2  -7   3   52.99    4.61
  -2   7  -3   43.96    6.30
  -2  -7  -3   51.66    4.43
   3   7   3    1.51    3.04
  -3   7  -3    0.51    3.41
  -3   7  -3   -0.09    3.74
   3  -7   3    3.29    2.70
   3  -7   3    3.90    2.77
   4   7   3   27.96    4.90
   4  -7   3   28.41    4.65
   4  -7   3   29.73    4.34
  -4   7  -3   36.25    5.89
  -4   7  -3   35.79    6.92
   5  -7   3   -1.27    2.33
  -5   7  -3   -3.19    4.73
  -5   7  -3   -6.22    3.38
   5   7   3    1.00    3.16
   6   7   3   -2.38    3.21
  -6   7  -3    3.84    5.74
  -6   7  -3    1.33    4.46
   6  -7   3    1.66    2.95
   7  -7   3    3.23    3.17
   7   8  -3    1.86    3.50
   7  -8  -3    6.57    3.47
   6  -8  -3    9.38    3.56
   6   8  -3    6.35    3.75
  -6   8   3    7.42    5.40
   5   8  -3   15.36    4.18
   5  -8  -3   15.02    3.86
  -5  -8   3   19.89    4.29
  -5   8   3   18.81    5.59
  -4  -8   3    3.29    2.81
  -4   8   3    2.93    4.47
   4   8  -3    2.38    3.36
  -4   8   3    1.63    2.57
   4  -8  -3    1.48    2.96
   3  -8  -3   89.75    6.40
   3   8  -3   90.96    6.76
  -3   8   3   83.75    8.08
  -3  -8   3   90.84    6.53
  -3  -8   3   92.81    5.46
  -3   8   3   90.10    6.06
   3   8  -3   78.08    6.69
   2   8  -3   16.37    3.89
   2  -8  -3   11.88    3.35
   2   8  -3   15.10    3.51
  -2   8   3   14.99    3.21
  -2  -8   3   15.01    3.29
  -2  -8   3   21.11    3.08
  -2   8   3   15.30    4.48
  -1   8   3    6.51    2.79
  -1   8   3    2.83    3.22
   1   8  -3    5.90    3.09
  -1  -8   3    4.72    2.31
   1  -8  -3    1.42    2.35
   1   8  -3    1.81    2.82
   0  -8   3  145.73    8.29
   0   8  -3  151.52    9.54
   0   8  -3  148.92   10.64
   0  -8  -3  154.01    7.73
   0   8   3  147.22    8.93
  -1   8  -3   -2.02    3.39
   1  -8   3    1.11    2.49
  -1   8  -3    9.48    3.98
   1   8   3   -0.63    2.97
  -1  -8  -3    1.41    3.20
  -1  -8  -3    1.52    1.99
   2  -8   3   11.65    3.29
  -2   8  -3   12.85    4.83
   2   8   3   10.77    3.65
  -2   8  -3   21.45    4.56
   3  -8   3    4.50    2.96
  -3   8  -3    2.14    4.34
  -3   8  -3    4.71    3.54
   3   8   3   -2.41    2.95
   3  -8   3    5.44    3.18
  -4   8  -3   24.76    6.12
  -4   8  -3   19.20    5.08
   4   8   3   25.95    5.26
   4  -8   3   19.59    3.91
  -5   8  -3    2.58    5.20
  -5   8  -3    2.33    4.53
   5  -8   3    8.29    3.30
   5   8   3    3.29    3.89
   6  -8   3    4.97    3.26
   6   8   3    3.58    3.77
  -6   8  -3    2.28    4.75
   7  -9  -3   -1.05    3.12
   7   9  -3    1.40    3.84
   6   9  -3   21.74    4.87
   6  -9  -3   18.19    4.38
   5  -9  -3   -1.45    3.00
  -5   9   3   -3.17    4.69
   5   9  -3   -3.33    3.08
  -4   9   3   57.20    8.10
   4  -9  -3   57.87    5.57
  -4  -9   3   60.98    6.03
   4   9  -3   49.75    6.16
  -4   9   3   60.69    5.13
  -3   9   3  102.52    8.92
   3   9  -3   88.92    7.36
   3   9  -3   92.76    7.25
  -3  -9   3   92.47    7.13
  -3   9   3   96.72    6.79
   3  -9  -3   93.27    6.75
  -2  -9   3    3.30    2.47
   2   9  -3    4.76    3.28
  -2  -9   3    2.90    2.98
   2   9  -3    0.21    3.05
   2  -9  -3   -2.30    2.70
  -2   9   3    5.39    4.32
  -2   9   3    3.75    2.92
   1   9  -3   23.06    4.82
   1  -9  -3   23.62    3.74
  -1   9   3   24.03    4.19
  -1   9   3   28.64    5.36
   1   9  -3   23.16    4.72
  -1  -9   3   23.79    3.71
   0  -9   3    6.05    2.77
   0   9  -3    8.94    4.05
   0  -9  -3    4.70    2.48
   0   9  -3    6.53    3.72
   0   9   3   10.24    3.53
   1  -9   3    8.33    2.96
   1   9   3    0.59    3.47
  -1   9  -3    8.96    4.42
  -1   9  -3    4.13    3.85
  -2   9  -3   10.53    4.75
   2   9   3    2.08    3.32
   2  -9   3    6.37    2.95
  -2   9  -3    6.16    4.20
   3   9   3   15.71    4.69
   3  -9   3   13.74    3.56
  -3   9  -3   21.45    6.46
  -3   9  -3   12.53    4.70
   4  -9   3   65.38    5.84
   4   9   3   52.92    6.78
  -4   9  -3   49.57    8.51
  -4   9  -3   54.16    7.10
   5  -9   3    5.20    3.19
  -5   9  -3    7.60    5.04
   5   9   3    3.46    3.66
   6 -10  -3    7.08    4.18
   6  10  -3    7.33    4.11
   5  10  -3   -2.22    3.34
  -5  10   3    1.91    4.82
   5 -10  -3   -1.63    3.14
   4 -10  -3   -3.61    2.75
   4  10  -3   -2.26    3.29
  -4  10   3    5.85    4.26
  -3  10   3   71.58    6.26
   3  10  -3   79.59    7.13
   3 -10  -3   70.85    6.07
  -3  10   3   71.48    7.83
   2  10  -3  106.27    8.60
  -2 -10   3  111.78    8.04
  -2  10   3  104.38    7.58
   2 -10  -3  107.32    7.11
  -2  10   3  110.79    9.46
   2  10  -3  107.26    8.52
  -1 -10   3    5.30    2.91
  -1  10   3    9.63    3.71
   1  10  -3    4.51    3.73
   1  10  -3   -0.79    3.78
   1 -10  -3    1.33    2.76
  -1  10   3    7.80    4.45
   0  10  -3   25.27    5.46
   0  10  -3   30.88    5.51
   0  10   3   24.81    4.68
   0 -10   3   31.18    4.16
  -1  10  -3    5.16    4.68
   1  10   3   -2.34    3.21
   1 -10   3   -0.34    2.60
  -1  10  -3   -4.80    3.22
  -2  10  -3   -3.13    4.51
  -2  10  -3    1.68    3.71
   2 -10   3    4.84    3.01
   2  10   3   -0.21    3.83
   3 -10   3   29.65    4.59
  -3  10  -3   34.35    6.17
   3  10   3   29.69    5.52
  -3  10  -3   29.97    7.20
   4 -10   3   18.63    4.07
  -4  10  -3   16.54    5.69
   4  10   3   21.63    5.34
   5 -11  -3   -3.50    3.05
   5  11  -3    1.16    3.84
   4  11  -3    0.21    3.46
  -4  11   3    3.78    5.11
   4 -11  -3   -3.21    3.08
   3 -11  -3    8.42    3.70
  -3  11   3   10.69    3.94
  -3  11   3   19.34    5.92
   3  11  -3   11.50    4.49
   2  11  -3    6.97    4.11
  -2  11   3    3.50    4.14
  -2  11   3    9.86    4.65
   2 -11  -3    0.83    3.21
   1  11  -3    7.24    4.03
  -1  11   3   11.93    4.20
  -1  11   3    5.29    4.16
   1  11  -3    0.12    4.18
   0 -11   3    6.26    3.20
   0  11   3    5.80    4.17
   0  11  -3    3.89    4.50
   0  11  -3   -1.65    3.62
  -1  11  -3   -6.69    4.71
  -1  11  -3    0.87    3.83
   1 -11   3    4.90    3.12
   1  11   3   -0.50    3.52
  -2  11  -3    6.93    5.55
   2  11   3    6.37    4.33
  -2  11  -3   11.54    5.34
   2 -11   3   10.56    3.57
   3  11   3    0.77    3.95
  -3  11  -3   -3.99    4.23
   3 -11   3    5.04    3.49
   3 -12  -3    3.28    3.66
   3  12  -3    8.34    4.37
  -3  12   3   13.52    5.49
   2  12  -3    5.12    4.43
  -2  12   3    8.87    4.61
  -2  12   3   22.57    5.84
   1  12  -3    2.52    4.30
  -1  12   3   -3.66    3.36
   0  12  -3   -3.88    3.59
   0  12   3    0.30    3.40
   0  12  -3   -2.68    4.98
  -1  12  -3   -0.87    5.45
   1 -12   3    0.21    3.13
   1  12   3   -2.28    4.08
  -1  12  -3   -0.33    4.05
   2  12   3   -4.56    3.55
   2 -12   3    6.21    3.39
   9   0  -4   80.86    6.70
   8   0  -4   -1.42    2.67
   7   0  -4   -1.40    2.28
   7   0  -4   -2.22    2.28
   6   0  -4   33.08    2.74
   6   0  -4   34.20    4.05
   6   0  -4   43.27    4.19
  -5   0   4   51.77    3.11
   5   0  -4   42.92    3.98
   5   0  -4   49.77    3.95
   5   0  -4   51.20    3.02
   4   0  -4  551.66   24.06
   4   0  -4  577.09   22.99
  -4   0   4  576.90   23.02
   4   0  -4  549.87   30.27
   4   0  -4  544.63   25.41
  -3   0   4  470.38   18.04
   3   0  -4  422.62   17.89
   3   0  -4  446.67   19.66
   3   0  -4  394.09   18.83
   2   0  -4  504.47   23.37
   2   0  -4  531.66   22.59
  -2   0   4  597.70   22.70
  -2   0   4  558.77   23.84
  -1   0   4  319.88   14.48
   1   0  -4  309.03   13.57
   0   0  -4   13.48    2.21
   0   0   4    7.97    2.24
   0   0  -4   14.15    1.78
   1   0   4  453.07   20.36
  -1   0  -4  437.00   20.31
   1   0   4  412.69   19.43
  -1   0  -4  467.79   19.60
  -2   0  -4  367.02   16.91
   2   0   4  368.06   17.54
  -2   0  -4  373.94   17.67
   2   0   4  354.81   16.51
   3   0   4   41.42    3.78
   3   0   4   40.52    4.00
  -3   0  -4   48.04    4.47
   4   0   4   34.72    3.89
   4   0   4   31.32    4.28
  -4   0  -4   25.44    4.31
  -5   0  -4  103.71    8.20
   5   0   4  100.24    7.70
  -5   0  -4   95.91    8.16
   5   0   4  104.01    6.68
  -6   0  -4   53.14    6.65
  -6   0  -4   58.19    6.51
   6   0   4   51.82    5.10
   7   0   4    2.01    2.73
  -7   0  -4    5.98    4.73
   8   0   4   17.79    3.92
   9   1  -4    3.42    3.17
   9  -1  -4    1.10    3.66
   8   1  -4   -0.23    2.96
   8  -1  -4    4.23    3.35
   7  -1  -4   13.02    3.54
   7   1  -4   10.16    3.30
   7   1  -4   15.12    3.23
   7   1  -4   16.26    2.84
   7  -1  -4   13.27    3.55
   6   1  -4    0.55    2.26
   6   1  -4    1.40    1.87
   6  -1  -4   -2.83    2.06
   6   1  -4    1.23    2.18
   6  -1  -4    0.34    2.12
   5  -1  -4  274.69   12.86
   5  -1  -4  265.70   13.68
   5   1  -4  273.85   12.65
   5   1  -4  231.79   13.24
   5   1  -4  302.48   12.23
   4   1  -4  210.60   12.99
   4   1  -4  203.92   10.23
   4  -1  -4  209.90   10.83
   4  -1  -4  205.28   10.34
   4   1  -4  212.96   10.58
   4   1  -4  216.85    9.59
  -4  -1   4  230.95    9.78
   3  -1  -4   36.30    3.27
  -3  -1   4   41.19    2.84
   3   1  -4   39.60    2.67
   3   1  -4   38.79    2.63
   3  -1  -4   48.23    4.44
   3   1  -4   33.26    3.19
  -2  -1   4  888.79   42.69
   2  -1  -4 1087.78   42.45
  -2  -1   4 1105.65   43.85
   2   1  -4 1062.41   42.82
   2  -1  -4 1021.22   43.37
   2  -1  -4 1075.16   42.42
   2   1  -4 1124.53   45.62
  -1  -1   4   21.73    2.83
   1  -1  -4   22.07    2.15
   1  -1  -4   22.76    2.19
   1   1  -4   18.38    2.24
   1   1  -4   19.99    1.30
  -1   1   4   22.45    2.87
   0   1   4   59.33    4.42
   0  -1   4   64.79    4.66
   0   1  -4   65.79    4.34
   0  -1  -4   67.30    4.25
   0  -1   4   64.46    3.75
   0   1  -4   70.57    3.70
   1   1   4  137.48    7.33
  -1   1  -4  134.48    7.43
   1  -1   4  119.03    7.23
  -1  -1  -4  139.89    7.60
  -1   1  -4  143.01    7.21
   2   1   4  264.44   12.45
  -2  -1  -4  258.31   13.40
   2  -1   4  267.39   13.04
  -2   1  -4  268.28   12.92
   2   1   4  270.28   13.36
  -2   1  -4  262.35   13.13
   2  -1   4  245.19   12.43
   3   1   4   13.39    2.95
   3   1   4   12.79    2.64
  -3   1  -4   13.90    3.13
  -3  -1  -4   13.66    3.32
   3  -1   4   18.50    2.99
   3  -1   4   11.36    2.70
  -3   1  -4   14.37    3.44
   4  -1   4    9.48    3.08
   4   1   4    8.37    2.87
  -4   1  -4    7.94    3.32
   4  -1   4   10.07    2.77
  -4  -1  -4   10.23    3.54
   4   1   4   11.76    2.64
  -4   1  -4    7.35    3.09
  -5  -1  -4   -2.84    3.09
  -5   1  -4   -4.22    3.35
  -5   1  -4    0.21    3.48
  -5   1  -4    1.46    3.38
   5  -1   4    0.64    2.38
   5  -1   4    2.91    2.75
   5   1   4    2.78    2.65
   5   1   4   -1.15    2.63
  -6   1  -4    2.88    4.11
   6  -1   4    6.42    3.00
  -6  -1  -4    3.39    3.91
  -6   1  -4    1.87    4.16
   6   1   4    8.11    2.95
   7  -1   4    8.93    3.12
  -7   1  -4   -1.90    4.08
  -7   1  -4   -2.62    4.71
   7   1   4    7.54    3.19
   8  -1   4    4.95    3.10
   9   2  -4   -0.34    3.39
   9  -2  -4   -2.22    3.21
   8   2  -4    9.28    3.28
   8  -2  -4    8.35    3.75
   7  -2  -4   17.07    3.79
   7   2  -4   11.12    3.10
  -7  -2   4    5.81    4.09
   7   2  -4   14.46    3.16
   7  -2  -4   15.32    3.50
   7   2  -4   14.41    3.42
  -6  -2   4   11.11    3.06
   6  -2  -4   14.26    3.12
   6  -2  -4   11.67    3.05
   6   2  -4   17.60    2.79
   6   2  -4   20.24    2.93
   6   2  -4   12.73    2.98
   5   2  -4    7.39    2.10
   5   2  -4    7.07    2.14
  -5  -2   4    5.53    2.47
   5   2  -4    6.88    2.82
   5  -2  -4   10.35    2.65
   5  -2  -4    8.58    2.57
   5   2  -4    5.03    2.08
   4   2  -4   33.01    3.26
   4  -2  -4   34.16    3.12
   4   2  -4   32.03    2.76
   4   2  -4   34.00    2.82
   3  -2  -4   54.20    3.82
   3  -2  -4   53.17    4.82
   3   2  -4   47.64    3.88
   3   2  -4   52.35    3.49
   3   2  -4   55.30    3.15
  -2  -2   4 1767.08   72.64
   2  -2  -4 1785.17   71.31
   2  -2  -4 1865.97   91.24
   2  -2  -4 1750.31   72.27
   2   2  -4 1742.67   71.97
   1  -2  -4  222.46    9.82
  -1  -2   4  217.60   10.82
   1   2  -4  225.49   10.36
   1  -2  -4  210.46   10.38
   0  -2  -4 1575.59   66.76
   0   2  -4 1499.48   62.36
   0  -2   4 1495.48   62.62
   0   2   4 1503.99   62.42
   0  -2   4 1567.90   65.89
  -1   2  -4   25.24    2.36
  -1   2  -4   29.50    3.48
   1  -2   4   24.09    3.22
  -1  -2  -4   24.83    3.17
   1  -2   4   21.93    2.14
   1   2   4   26.20    3.10
   1   2   4   24.09    3.28
   2   2   4   81.92    5.30
  -2   2  -4   93.51    5.67
   2   2   4   89.10    6.08
  -2   2  -4   90.79    6.04
   2  -2   4   80.57    5.58
  -2  -2  -4   91.12    6.25
   2  -2   4   83.11    5.46
   3   2   4  226.40   11.44
   3  -2   4  232.96   11.86
  -3   2  -4  261.43   12.84
   3   2   4  239.93   12.94
   3  -2   4  233.13   12.48
  -3   2  -4  224.90   12.35
  -3  -2  -4  251.16   13.31
   4   2   4   37.50    4.69
  -4   2  -4   28.47    4.83
  -4   2  -4   30.91    5.46
   4  -2   4   30.76    4.12
   4   2   4   34.75    3.73
  -4   2  -4   38.35    4.62
   4  -2   4   33.44    4.24
  -4  -2  -4   35.45    5.11
   5  -2   4   -1.70    2.43
  -5   2  -4    2.73    2.94
  -5   2  -4    1.15    3.69
  -5  -2  -4   -3.46    2.67
   5   2   4    1.26    2.42
  -5   2  -4   -0.42    3.53
   5  -2   4   -1.80    2.53
   6  -2   4   13.15    3.35
   6   2   4   19.28    3.31
  -6   2  -4   17.03    5.10
  -6   2  -4   11.78    5.02
  -7   2  -4   -1.17    4.86
   7  -2   4   -1.34    2.64
  -7   2  -4   -6.01    3.71
   9  -3  -4   -1.85    3.33
  -8   3   4    1.44    4.84
   8  -3  -4    0.94    3.02
   8   3  -4   -1.76    2.84
   8   3  -4   -1.84    3.07
   7   3  -4   17.73    3.22
   7   3  -4   10.98    3.35
  -7   3   4   17.17    6.02
  -7  -3   4   23.40    4.21
   7   3  -4   19.01    3.68
   7  -3  -4   18.29    3.89
  -6   3   4   -5.40    4.26
   6   3  -4   -0.56    1.92
   6   3  -4   -0.88    2.16
  -6  -3   4   -0.66    2.43
   6  -3  -4   -0.82    2.56
   6   3  -4    1.47    2.32
   6  -3  -4    0.01    2.45
   5   3  -4   31.22    3.20
  -5  -3   4   23.23    3.45
   5  -3  -4   26.16    3.78
   5  -3  -4   29.81    3.62
   5   3  -4   33.36    3.60
  -5   3   4   18.74    5.02
   5   3  -4   34.24    4.18
   5   3  -4   29.08    3.07
   4   3  -4   15.26    2.50
   4   3  -4   17.93    2.54
   4   3  -4   14.85    2.09
  -4  -3   4   12.03    2.08
   4  -3  -4   15.80    2.57
  -3  -3   4   15.09    2.83
   3  -3  -4   20.81    2.78
  -3  -3   4   14.03    1.79
   3   3  -4   20.40    2.57
   2  -3  -4    0.60    1.05
   2  -3  -4   -0.40    1.71
   2  -3  -4    3.26    2.44
  -2  -3   4    2.89    2.17
   2   3  -4   -0.14    1.76
   1   3  -4  471.52   20.55
  -1   3   4  470.37   20.04
   1  -3  -4  450.39   20.22
  -1  -3   4  456.28   20.76
   1  -3  -4  480.35   19.88
   1  -3  -4  490.70   25.64
   0  -3  -4   66.39    4.61
   0  -3   4   75.49    3.99
   0  -3   4   73.32    4.96
   0   3  -4   81.03    5.19
   0   3   4   74.86    4.90
   0   3   4   75.17    4.83
  -1  -3  -4    5.07    2.37
   1   3   4   11.40    2.71
   1  -3   4    3.01    2.14
   1   3   4    7.83    2.07
  -1   3  -4    7.75    2.48
   1  -3   4    9.06    1.78
  -2   3  -4   11.58    3.13
  -2  -3  -4   11.66    3.07
   2  -3   4   11.36    2.81
   2   3   4    8.88    2.77
   2  -3   4   11.63    2.30
   2   3   4   10.98    2.36
   3  -3   4    2.30    2.20
   3   3   4    3.51    2.22
   3  -3   4    2.87    2.17
  -3  -3  -4    1.83    2.50
   3   3   4    9.54    2.99
  -3   3  -4    6.47    3.03
   3   3   4    5.20    2.55
   4   3   4   35.47    3.84
   4  -3   4   29.01    4.18
  -4   3  -4   40.28    5.16
  -4   3  -4   35.09    5.79
  -4  -3  -4   37.76    5.39
   4   3   4   42.21    5.34
   4   3   4   33.70    4.79
   4  -3   4   30.67    4.19
  -5  -3  -4    7.67    3.07
  -5   3  -4    6.58    4.17
   5  -3   4    4.89    3.09
   5  -3   4    0.17    2.68
   5   3   4    4.75    2.51
  -5   3  -4    3.19    4.13
  -6   3  -4   24.42    6.23
  -6   3  -4   32.80    5.80
   6  -3   4   26.84    4.13
   7  -3   4    4.99    3.02
  -7   3  -4   -8.10    4.77
  -7   3  -4   -0.71    4.18
   9  -4  -4    1.09    3.36
  -8   4   4    4.84    5.75
   8   4  -4    1.75    3.08
   8  -4  -4    0.88    3.31
  -7   4   4   36.70    7.28
   7   4  -4   39.63    4.69
   7  -4  -4   36.31    4.88
   7   4  -4   27.07    4.24
  -7  -4   4   19.85    4.37
   7   4  -4   35.09    3.90
   6   4  -4   88.71    5.83
   6  -4  -4   65.36    5.66
   6   4  -4   77.42    4.95
   6   4  -4   71.24    5.52
   6  -4  -4   78.12    6.27
  -6  -4   4   70.56    5.97
  -6   4   4   48.82    8.18
  -5  -4   4   34.02    4.01
   5   4  -4   36.02    3.49
   5   4  -4   41.08    3.49
   5  -4  -4   37.71    4.00
  -5   4   4   30.04    5.82
   5   4  -4   44.04    4.27
   4   4  -4  379.14   17.09
  -4  -4   4  409.63   18.34
   4   4  -4  411.84   18.23
   4   4  -4  403.88   17.62
   4  -4  -4  401.27   17.77
  -4   4   4  328.62   22.36
   3   4  -4   15.87    2.78
   3  -4  -4   15.49    2.66
  -3  -4   4   12.34    2.67
  -3   4   4   13.52    1.54
  -3  -4   4   10.07    1.85
   2   4  -4  966.27   41.63
   2  -4  -4  983.23   41.31
  -2  -4   4  987.95   41.74
  -2  -4   4  992.23   43.23
  -2   4   4  988.78   40.73
   2  -4  -4 1068.31   40.64
  -1  -4   4   57.15    4.60
  -1   4   4   62.16    4.12
   1  -4  -4   57.02    4.07
   1  -4  -4   60.14    5.21
   1   4  -4   58.01    4.59
   0   4   4  191.01    9.29
   0  -4   4  173.41    9.39
   0   4  -4  185.15    9.62
   0  -4  -4  173.75    8.67
   0  -4   4  195.32    8.72
   0  -4  -4  161.29   10.83
  -1  -4  -4  237.20   12.64
  -1   4  -4  242.35   11.98
   1  -4   4  230.66   11.42
   1   4   4  231.41   10.98
   1  -4   4  223.92   11.56
   1   4   4  241.39   11.77
   2  -4   4  115.68    6.97
   2  -4   4  106.95    6.68
  -2  -4  -4  114.71    7.75
  -2   4  -4  117.84    7.40
   2   4   4  107.11    7.15
   2   4   4  114.72    6.29
  -3  -4  -4   41.69    5.26
  -3   4  -4   30.14    5.48
   3   4   4   33.33    4.57
   3  -4   4   40.73    4.08
   3  -4   4   33.32    4.23
   3   4   4   37.77    3.42
  -3   4  -4   36.15    4.79
   4   4   4   11.61    3.45
  -4   4  -4   11.10    3.85
   4  -4   4    8.26    2.97
   4   4   4    5.96    2.48
   4  -4   4   11.10    3.06
  -4   4  -4    7.36    4.26
   5   4   4    5.43    2.46
  -5   4  -4   -3.91    3.93
  -5   4  -4    0.85    3.58
   5   4   4   -1.37    2.78
   5  -4   4   -0.15    2.47
  -6   4  -4   -7.11    4.49
   6  -4   4   -1.91    2.29
   6   4   4    1.73    3.21
  -6   4  -4   -1.50    3.95
  -7   4  -4    3.98    4.78
  -7   4  -4   -3.02    5.20
   7  -4   4    5.88    3.43
   9  -5  -4   -1.49    3.33
   8   5  -4   66.57    6.06
   8  -5  -4   44.08    5.78
  -8   5   4   42.59    8.42
  -7  -5   4   27.17    4.82
   7   5  -4   33.57    4.79
   7   5  -4   42.52    5.05
  -7   5   4   31.80    7.08
   7  -5  -4   33.51    4.75
   6   5  -4   99.56    5.79
  -6   5   4   85.50    8.83
   6   5  -4  104.74    6.93
   6  -5  -4   88.96    6.72
   6   5  -4  106.52    6.97
  -6  -5   4   90.09    7.12
   5   5  -4  334.37   14.61
  -5   5   4  251.36   18.31
   5   5  -4  290.70   13.32
   5  -5  -4  292.80   14.38
  -5  -5   4  298.16   15.00
   4   5  -4  277.92   13.35
   4  -5  -4  325.27   14.38
   4   5  -4  325.07   14.41
  -4   5   4  263.67   18.13
  -4   5   4  285.71   12.51
  -4  -5   4  312.84   14.59
  -3  -5   4  284.92   13.43
   3   5  -4  286.79   13.76
  -3  -5   4  304.62   13.55
   3  -5  -4  287.96   12.22
  -3   5   4  275.69   12.39
   3  -5  -4  290.20   13.44
  -3   5   4  259.12   17.26
  -2  -5   4   50.99    4.23
   2  -5  -4   43.66    3.71
   2   5  -4   45.17    4.33
  -2   5   4   40.84    3.47
  -2  -5   4   50.90    3.18
   1  -5  -4  135.70    7.25
  -1   5   4  143.81    7.47
   1  -5  -4  146.15    9.37
   1   5  -4  139.17    8.15
  -1  -5   4  137.44    7.87
   0  -5  -4    7.52    2.71
   0  -5   4    8.36    2.45
   0   5  -4   13.98    3.19
   0   5   4    8.84    2.58
   0  -5   4    9.14    1.72
   0  -5  -4    8.49    1.97
   1  -5   4   15.93    2.31
  -1   5  -4   18.24    3.57
  -1  -5  -4   15.12    3.00
   1   5   4   20.74    3.30
  -1  -5  -4   18.80    3.72
  -1  -5  -4   14.48    2.31
   1  -5   4   17.28    3.04
   2  -5   4   40.66    4.40
   2   5   4   39.72    4.84
  -2  -5  -4   34.28    3.21
  -2  -5  -4   49.81    5.04
   2  -5   4   41.59    3.91
  -2   5  -4   54.37    5.42
  -2  -5  -4   49.27    4.28
   3   5   4   56.51    4.14
  -3   5  -4   54.88    6.69
  -3  -5  -4   67.98    5.05
   3  -5   4   54.10    4.97
   3  -5   4   58.65    5.11
  -3  -5  -4   65.92    6.31
   3   5   4   60.85    5.64
  -3   5  -4   62.28    5.85
   4  -5   4   -2.04    2.53
   4   5   4    9.15    3.57
   4  -5   4   -2.58    2.34
  -4   5  -4   -0.30    4.00
  -4   5  -4    4.52    3.51
  -5   5  -4  111.04    8.45
  -5   5  -4   96.18    9.59
   5   5   4   99.10    8.07
   5  -5   4  101.55    7.30
   6  -5   4   12.14    3.49
   6   5   4   17.44    4.79
  -6   5  -4   14.16    5.02
  -6   5  -4   22.73    6.96
  -7   5  -4   19.38    5.75
   7  -5   4   23.99    4.53
   8   6  -4    3.43    3.49
   8  -6  -4    0.75    3.31
   7  -6  -4   42.56    5.51
   7   6  -4   54.35    5.89
  -7   6   4   34.73    7.78
  -6   6   4   21.45    5.93
   6  -6  -4   22.00    4.13
  -6  -6   4   16.01    4.17
   6   6  -4   28.69    4.56
   5  -6  -4   43.31    5.15
  -5  -6   4   51.24    4.92
   5   6  -4   47.75    5.07
  -5   6   4   40.68    7.10
   5   6  -4   50.18    3.79
   4   6  -4   37.99    3.54
  -4  -6   4   40.61    3.90
  -4   6   4   42.72    3.21
   4   6  -4   50.90    4.96
  -4   6   4   38.50    6.50
   4  -6  -4   48.75    4.36
   3  -6  -4    7.52    3.03
  -3   6   4   11.28    2.32
  -3  -6   4   12.75    2.80
  -3  -6   4   16.08    2.56
   3   6  -4   16.90    3.37
  -3   6   4    9.70    4.21
  -2  -6   4    3.93    2.32
   2   6  -4    3.41    2.70
  -2  -6   4    1.80    1.84
  -2   6   4    1.75    2.10
   2  -6  -4    2.85    2.27
   1   6  -4   96.65    6.57
  -1  -6   4   84.67    5.93
  -1   6   4   86.80    5.65
   1  -6  -4   86.85    5.26
   0   6  -4   80.11    6.18
   0  -6   4   76.37    5.55
   0   6   4   77.39    5.60
   0  -6  -4   86.96    6.56
   0  -6  -4   80.20    4.86
   1  -6   4  236.31   11.73
   1   6   4  223.06   11.86
  -1  -6  -4  227.59   13.00
  -1  -6  -4  224.40   10.43
  -1   6  -4  225.45   12.32
   2  -6   4   86.92    5.95
  -2   6  -4   79.97    6.62
   2   6   4   81.72    6.41
   2  -6   4   85.46    6.11
  -2  -6  -4   73.85    4.62
  -2  -6  -4   87.55    6.19
  -2  -6  -4   78.96    6.89
  -2   6  -4   97.11    8.08
  -3   6  -4   18.05    5.08
   3   6   4   19.59    4.14
   3  -6   4   19.06    3.63
  -3   6  -4    9.41    4.16
   3  -6   4   16.11    3.59
   4  -6   4    1.43    2.49
  -4   6  -4    4.69    4.19
  -4   6  -4    7.36    4.17
   4  -6   4    3.90    3.24
   4   6   4    2.22    3.50
   5  -6   4    8.56    3.22
  -5   6  -4    1.86    4.70
  -5   6  -4    6.61    4.71
   5   6   4    7.44    3.95
  -6   6  -4    9.00    6.22
   6  -6   4    6.32    3.21
   6   6   4    3.34    3.64
  -6   6  -4    5.66    4.66
   8  -7  -4    1.84    3.22
   8   7  -4    8.72    4.08
   7   7  -4   21.46    4.36
   7  -7  -4   14.14    4.08
  -7   7   4   13.79    6.10
   6   7  -4   26.20    4.64
  -6   7   4   22.68    6.68
   6  -7  -4   18.24    4.26
   5  -7  -4    9.36    3.50
  -5   7   4   18.43    5.95
   5   7  -4   19.50    3.99
  -5  -7   4   16.63    3.59
   4   7  -4   32.57    4.56
  -4  -7   4   32.06    3.91
   4   7  -4   24.72    3.18
  -4   7   4   23.48    5.97
  -4   7   4   27.71    3.27
   4  -7  -4   22.94    4.08
  -3  -7   4   21.94    3.19
  -3  -7   4   28.79    3.63
  -3   7   4   29.12    5.52
   3  -7  -4   21.38    3.47
   3   7  -4   22.08    3.92
  -3   7   4   19.02    3.00
   2  -7  -4    1.36    2.31
  -2  -7   4    1.44    1.96
  -2   7   4    8.35    3.65
  -2   7   4    4.11    2.40
  -2  -7   4    0.30    2.19
   2   7  -4    4.63    3.14
  -1  -7   4  229.66   11.54
   1  -7  -4  215.45   10.67
   1   7  -4  220.11   12.21
  -1   7   4  224.52   11.32
   0   7  -4  133.28    8.55
   0  -7   4  130.18    7.74
   0  -7  -4  123.26    6.70
   0   7   4  122.00    7.81
  -1   7  -4   16.88    4.03
  -1  -7  -4   19.43    3.64
   1   7   4   14.89    3.61
  -1  -7  -4   14.13    4.26
   1  -7   4   13.88    2.59
  -1  -7  -4   15.31    2.35
  -1   7  -4   19.25    4.97
   1  -7   4   22.43    3.77
   2  -7   4   -1.41    2.37
   2  -7   4    1.55    2.69
  -2   7  -4   -1.07    3.18
  -2   7  -4   -1.17    3.79
   2   7   4   -3.39    2.78
  -3   7  -4   33.43    6.32
   3  -7   4   35.87    4.62
   3   7   4   39.08    5.56
   3  -7   4   26.97    4.33
  -3   7  -4   41.56    5.77
   4  -7   4   12.83    3.51
  -4   7  -4   17.45    5.75
  -4   7  -4   13.00    4.58
   4   7   4   21.70    4.91
  -5   7  -4   42.02    8.28
   5   7   4   44.18    6.25
   5  -7   4   33.04    4.88
  -5   7  -4   41.50    6.36
   6  -7   4   15.89    4.07
   6   7   4   10.81    4.24
  -6   7  -4   12.82    5.07
   7  -8  -4   -6.30    2.67
   7   8  -4   -1.50    3.16
  -6   8   4    4.56    5.26
   6   8  -4   -2.13    2.78
   6  -8  -4   -0.92    3.08
   5   8  -4   20.59    4.22
  -5   8   4    9.60    5.26
   5  -8  -4   13.13    3.98
  -4   8   4   77.37    8.60
   4   8  -4  104.31    7.54
   4  -8  -4   99.48    6.98
   3  -8  -4   57.83    5.26
  -3   8   4   60.66    4.93
  -3  -8   4   62.81    4.89
  -3   8   4   39.85    6.92
   3   8  -4   59.77    5.74
  -3  -8   4   66.29    5.20
  -2  -8   4  315.17   15.12
  -2  -8   4  303.77   14.56
  -2   8   4  277.46   14.28
   2   8  -4  311.10   15.73
  -2   8   4  294.42   18.55
   2  -8  -4  287.37   14.13
  -1  -8   4   84.37    6.12
   1  -8  -4   82.93    5.48
  -1   8   4   79.32    6.20
   1   8  -4   85.34    6.90
   0   8  -4    5.77    3.90
   0   8  -4    3.30    3.42
   0   8   4    5.62    2.91
   0  -8   4    8.64    3.07
   0  -8  -4   -0.59    2.19
   1  -8   4  139.50    8.62
  -1  -8  -4  136.24    7.06
   1   8   4  127.22    8.75
  -1   8  -4  161.45    9.88
  -1   8  -4  140.49   10.93
  -2   8  -4   32.25    5.56
   2  -8   4   33.22    4.42
   2  -8   4   38.89    4.49
   2   8   4   19.45    4.78
  -2   8  -4   22.92    5.69
  -3   8  -4    3.94    3.81
   3  -8   4    4.01    3.05
  -3   8  -4   -1.83    4.21
   3   8   4   -2.72    3.23
   3  -8   4    0.63    3.01
   4   8   4    1.39    3.21
  -4   8  -4   -2.12    4.54
  -4   8  -4   -5.35    3.35
   4  -8   4    1.55    3.04
   5  -8   4    3.14    2.80
  -5   8  -4    4.29    4.84
   5   8   4   -1.26    3.57
   7  -9  -4    1.96    3.47
   6   9  -4    8.96    4.06
   6  -9  -4   -2.42    3.05
   5   9  -4   10.27    3.93
  -5   9   4   -6.35    4.41
   5  -9  -4    4.07    3.49
   4   9  -4   73.31    6.67
   4  -9  -4   65.51    6.00
  -4   9   4   53.28    8.28
  -3   9   4   35.79    4.41
   3   9  -4   36.46    5.33
  -3   9   4   32.18    6.52
   3  -9  -4   31.84    4.45
   3   9  -4   24.87    4.79
   2  -9  -4   37.30    4.76
  -2  -9   4   39.76    4.67
   2   9  -4   50.12    6.19
  -2   9   4   42.37    4.97
  -2   9   4   42.43    6.87
   2   9  -4   46.83    6.09
  -1  -9   4    4.32    2.83
   1  -9  -4    7.08    3.02
   1   9  -4    6.85    4.25
  -1   9   4    7.16    3.23
   1   9  -4   12.96    4.21
   0   9  -4    1.81    3.64
   0   9  -4   -0.63    3.58
   0   9   4    4.11    3.22
   0  -9  -4   -1.76    2.31
   0  -9   4    1.62    2.69
  -1   9  -4   26.17    5.76
   1  -9   4   22.07    3.95
   1   9   4   20.18    4.60
  -1   9  -4   27.24    5.37
  -2   9  -4    4.14    4.68
   2   9   4   -0.85    3.18
  -2   9  -4    0.20    3.57
   2  -9   4    0.16    2.57
   2  -9   4    4.82    3.03
   3   9   4   -5.15    2.89
   3  -9   4    2.52    3.11
  -3   9  -4    1.33    4.30
  -3   9  -4   -5.20    3.74
  -4   9  -4   -2.15    4.31
   4   9   4   12.92    4.88
   4  -9   4   -0.12    2.74
   5  -9   4    7.58    3.89
   5   9   4    3.03    4.12
  -5   9  -4    6.70    5.38
   6  10  -4    1.13    3.72
   6 -10  -4   -7.20    3.11
   5  10  -4   27.01    5.35
   5 -10  -4   15.34    4.39
   4  10  -4   12.90    4.39
  -4  10   4   -1.23    5.11
   4 -10  -4    7.49    3.78
   3 -10  -4    6.21    3.50
   3  10  -4   13.35    4.25
  -3  10   4   18.69    5.73
  -2  10   4   33.69    5.12
   2  10  -4   42.49    6.15
   2  10  -4   46.81    6.36
  -2  10   4   47.53    7.68
   2 -10  -4   39.91    5.03
   1  10  -4   -0.64    4.08
  -1 -10   4   -4.16    2.63
   1  10  -4   -5.72    3.11
   1 -10  -4   -6.16    2.70
  -1  10   4   -8.50    3.04
   0  10   4   -6.29    3.12
   0 -10   4   -0.18    2.57
   0  10  -4   -5.04    3.73
   0  10  -4    1.49    3.67
  -1  10  -4   19.16    5.35
  -1  10  -4    9.35    5.25
   1 -10   4   11.18    3.43
   1  10   4    6.46    3.77
  -2  10  -4    3.59    4.18
  -2  10  -4    3.12    4.81
   2  10   4    3.79    3.75
   2 -10   4    4.68    3.15
  -3  10  -4   -2.74    4.00
   3  10   4    1.81    4.17
   3 -10   4    4.32    3.22
  -4  10  -4    2.16    4.30
   4  10   4    3.77    4.04
   4 -10   4   -1.13    2.98
   4 -11  -4   -2.51    3.34
   4  11  -4   -1.40    3.74
  -3  11   4   11.56    5.62
   3  11  -4    8.64    4.38
   3 -11  -4   -1.43    3.17
  -2  11   4    1.43    4.70
  -2  11   4   -4.83    3.26
   2 -11  -4    1.34    3.27
   2  11  -4   -0.42    3.50
   1  11  -4   63.84    7.71
   1  11  -4   58.76    7.34
  -1  11   4   65.27    6.39
   0  11  -4   62.44    8.64
   0 -11   4   68.63    6.00
   0  11  -4   59.09    7.79
   0  11   4   52.09    6.65
   1  11   4    0.55    3.80
  -1  11  -4    2.02    4.15
  -1  11  -4    3.12    5.82
   1 -11   4    2.31    2.91
  -2  11  -4   -1.65    3.78
   2  11   4   -0.40    4.02
   2 -11   4    0.45    3.01
   3 -11   4    2.62    3.19
   2  12  -4    5.43    3.84
  -1  12   4   10.64    4.22
   1  12  -4   13.61    4.72
   0  12   4   -2.32    3.55
   0  12  -4   -8.94    4.98
   0  12  -4   -3.79    3.96
   1 -12   4    6.77    3.55
   9   0  -5   -0.06    3.26
   8   0  -5    2.39    3.10
   7   0  -5   -1.60    2.22
   7   0  -5    3.11    2.69
   6   0  -5   -0.97    1.22
   6   0  -5   -1.93    2.12
   6   0  -5   -4.29    1.82
   5   0  -5   -2.47    1.63
   5   0  -5   -0.96    1.02
  -5   0   5   -1.18    1.14
   5   0  -5   -0.41    1.94
  -4   0   5   -1.49    1.17
   4   0  -5    1.41    0.99
   4   0  -5    2.56    2.08
   4   0  -5    0.52    1.41
   3   0  -5    1.32    1.11
   3   0  -5   -1.63    1.80
  -3   0   5   -2.45    1.34
  -2   0   5    0.03    1.95
   2   0  -5   -2.94    1.07
   1   0  -5    1.27    1.15
  -1   0   5   -1.93    1.95
   1   0  -5   -1.60    1.55
   0   0  -5   -0.08    1.93
   0   0  -5    1.57    1.39
   0   0   5    2.22    2.21
   1   0   5   -2.69    1.84
   1   0   5    2.26    1.70
  -1   0  -5   -1.39    2.22
  -1   0  -5    0.68    1.68
   2   0   5   -0.95    1.64
   2   0   5   -1.03    1.93
  -2   0  -5    0.59    2.08
  -2   0  -5    0.04    2.43
   3   0   5    3.39    2.16
  -3   0  -5    2.50    2.37
  -3   0  -5   -3.04    2.91
   3   0   5   -0.48    2.03
  -4   0  -5    0.85    3.12
   4   0   5   -0.74    2.40
   4   0   5   -1.49    2.15
  -4   0  -5   -3.74    2.61
   5   0   5   -6.79    1.85
  -5   0  -5   -8.04    3.49
  -5   0  -5   -4.57    2.89
  -6   0  -5    1.63    4.38
   6   0   5    5.51    3.32
  -6   0  -5    0.62    4.17
  -7   0  -5   -3.61    4.41
   7   0   5    5.44    3.15
   9  -1  -5    5.98    3.47
   9   1  -5    6.70    3.80
   8  -1  -5  106.26    7.55
   8   1  -5  105.62    7.36
   7   1  -5   73.85    6.14
   7  -1  -5   74.20    6.41
   7   1  -5   90.68    6.08
   7  -1  -5   73.40    5.93
   6   1  -5    1.64    2.22
   6  -1  -5    3.97    2.52
   6   1  -5   -0.39    1.67
   6   1  -5   -2.94    1.88
   6  -1  -5   -2.42    2.17
   5  -1  -5   11.09    2.86
   5   1  -5    7.61    2.08
   5   1  -5    7.91    2.57
   5   1  -5   10.62    1.95
   5  -1  -5   11.81    2.52
   4  -1  -5    3.86    1.74
  -4  -1   5    1.38    1.54
   4  -1  -5    3.61    2.11
   4   1  -5   -1.85    1.99
   4   1  -5    3.74    1.51
   4   1  -5    4.46    1.45
   3  -1  -5   97.53    4.35
   3  -1  -5   89.46    4.33
   3   1  -5   92.16    4.91
   3   1  -5   93.11    4.81
   3  -1  -5   91.90    5.86
   3   1  -5   89.37    5.87
   2   1  -5    1.72    1.56
   2  -1  -5    6.27    2.45
   2  -1  -5    6.59    1.41
   2  -1  -5    3.56    1.28
  -2  -1   5    4.11    2.28
   1  -1  -5  707.58   28.95
   1   1  -5  682.17   30.17
   1   1  -5  673.78   29.16
  -1   1   5  706.50   30.06
  -1  -1   5  704.64   30.14
   0  -1   5  164.31    9.27
   0   1  -5  170.32    8.33
   0   1   5  168.50    9.23
   0  -1  -5  183.30    8.73
   0  -1  -5  170.47    8.94
   0   1  -5  170.62    8.83
  -1   1  -5    4.24    1.78
  -1  -1  -5    5.15    2.04
   1  -1   5    0.09    2.17
   1   1   5    0.58    2.13
  -1   1  -5   -1.36    2.14
   1  -1   5    1.41    1.20
  -2   1  -5   23.22    3.30
  -2  -1  -5   29.74    3.84
   2   1   5   28.57    3.76
   2  -1   5   29.54    3.35
   2  -1   5   22.97    3.61
  -2   1  -5   22.75    3.96
   2   1   5   28.03    3.70
  -3  -1  -5   15.40    3.60
  -3   1  -5   11.58    3.80
   3  -1   5   12.54    3.03
   3  -1   5   17.23    3.25
   3   1   5   18.52    3.20
  -3   1  -5   15.48    3.38
   3   1   5   20.87    3.60
  -4   1  -5   -2.02    3.14
   4   1   5    3.27    2.73
   4  -1   5    0.09    2.54
  -4  -1  -5   -1.08    3.22
   4  -1   5    2.55    2.71
  -4   1  -5   -0.01    2.87
   4   1   5    0.98    2.54
  -5  -1  -5   14.08    4.41
  -5   1  -5   17.76    5.21
   5  -1   5   10.93    3.31
  -5   1  -5   20.43    4.99
   5   1   5   11.73    3.36
  -6   1  -5    2.85    4.06
   6   1   5    0.81    2.59
  -6   1  -5    3.07    4.33
   6  -1   5    2.54    2.72
  -7   1  -5    3.79    4.23
  -7  -1  -5    9.58    4.82
   7  -1   5    1.34    2.98
   7   1   5    6.50    2.95
   9   2  -5   10.60    3.66
   9  -2  -5   11.68    4.21
   8   2  -5   21.54    3.71
   8   2  -5   14.35    3.75
   8  -2  -5   18.78    4.18
   7  -2  -5   35.04    4.55
   7   2  -5   42.89    4.55
   7  -2  -5   37.35    4.86
   7   2  -5   36.11    4.60
   7   2  -5   44.80    4.10
   6   2  -5   -0.02    2.09
   6  -2  -5    0.86    2.53
   6   2  -5    4.49    2.52
   6   2  -5   -1.31    1.97
   6  -2  -5   -1.19    2.28
   5   2  -5   61.97    4.62
   5   2  -5   55.48    4.20
   5  -2  -5   54.91    4.63
   5   2  -5   66.23    4.23
   5  -2  -5   59.62    4.75
   4   2  -5   31.39    2.79
   4  -2  -5   36.40    3.76
   4   2  -5   33.37    3.61
   4   2  -5   26.24    2.42
   3  -2  -5   69.16    4.98
  -3  -2   5   71.39    5.34
   3   2  -5   74.47    4.45
   2  -2  -5   27.73    3.43
   2  -2  -5   24.38    2.09
  -2  -2   5   18.47    3.25
   2  -2  -5   21.93    2.12
   2   2  -5   25.97    2.89
   1   2  -5  263.03   12.50
   1  -2  -5  261.63   12.72
  -1  -2   5  271.33   13.24
  -1   2   5  270.08   13.03
   0   2   5  462.73   21.42
   0  -2  -5  488.95   22.51
   0  -2   5  470.88   21.66
   0   2  -5  496.65   21.35
   0   2  -5  478.76   21.34
   0  -2   5  484.41   21.39
   1  -2   5  289.10   13.57
  -1   2  -5  288.20   13.93
  -1   2  -5  286.67   13.57
  -1  -2  -5  294.83   14.59
   1   2   5  278.22   13.64
   1  -2   5  267.96   13.81
   2  -2   5   66.56    4.74
  -2   2  -5   61.73    4.71
  -2  -2  -5   65.47    5.43
  -2   2  -5   65.25    5.49
   2  -2   5   56.21    5.00
   2   2   5   59.89    4.81
   3   2   5  104.77    7.22
  -3   2  -5   92.11    7.11
   3   2   5   96.03    6.33
  -3   2  -5  104.22    6.82
   3  -2   5   89.62    6.50
  -3  -2  -5   96.07    7.53
   3  -2   5   86.59    6.46
  -4   2  -5   29.91    4.45
   4  -2   5   30.54    4.22
   4   2   5   26.78    4.55
  -4  -2  -5   26.74    5.08
   4  -2   5   25.24    4.00
  -4   2  -5   23.82    4.84
   4   2   5   23.46    3.75
   5  -2   5   -0.72    2.49
   5   2   5   -0.79    2.65
  -5   2  -5   -2.84    4.27
  -5   2  -5   -4.58    3.56
  -5  -2  -5   -3.36    3.41
   6  -2   5   15.22    3.93
  -6   2  -5   10.21    5.29
   6   2   5   12.12    3.51
  -6   2  -5    8.32    4.45
  -7   2  -5   -5.20    5.42
   7  -2   5    3.87    3.47
  -7   2  -5    0.20    4.42
   9  -3  -5   12.10    4.31
   8  -3  -5    5.38    3.49
   8   3  -5    0.33    3.00
   7   3  -5   11.19    3.32
   7   3  -5   11.14    3.10
   7  -3  -5   11.98    3.46
   7   3  -5    6.15    3.01
   6  -3  -5  117.02    7.73
   6   3  -5  121.51    6.88
   6   3  -5  105.54    6.61
   6   3  -5  102.57    6.85
   6  -3  -5  106.12    7.11
   5   3  -5   29.87    3.60
   5   3  -5   33.23    3.55
   5   3  -5   25.00    2.94
   5  -3  -5   30.57    4.03
   4   3  -5  184.20    9.25
   4   3  -5  191.79    9.12
   4   3  -5  167.95    9.45
   4  -3  -5  208.23   10.04
  -3  -3   5   -0.07    2.15
   3   3  -5    2.46    1.77
   3  -3  -5    1.67    1.95
   2  -3  -5  149.95    8.32
   2   3  -5  151.45    8.16
  -2  -3   5  160.65    8.96
   2  -3  -5  163.12    7.40
  -1  -3   5   -0.95    2.08
   1  -3  -5   -2.36    2.06
   1   3  -5   -2.90    1.89
   0   3  -5  789.43   34.03
   0  -3  -5  771.53   36.14
   0   3   5  796.93   33.92
   0  -3   5  820.15   34.36
   0  -3   5  804.28   34.71
   1   3   5  120.81    7.34
  -1   3  -5  118.98    7.42
   1   3   5  114.39    6.92
   1  -3   5  120.35    6.52
  -1  -3  -5  114.99    7.50
   1  -3   5  113.35    7.28
  -2  -3  -5  216.02   11.65
  -2   3  -5  197.48   10.91
   2  -3   5  181.41   10.12
   2   3   5  196.32   10.09
   2  -3   5  182.93   10.36
   3  -3   5    0.48    2.25
  -3   3  -5    7.26    3.30
   3  -3   5    7.31    3.02
   3   3   5    3.80    2.42
  -3  -3  -5    7.03    3.46
  -4   3  -5    1.09    3.16
   4  -3   5   -2.99    2.21
   4  -3   5    2.76    2.70
   4   3   5    5.31    2.67
  -4   3  -5   -2.23    3.77
  -5   3  -5   -2.18    3.81
   5  -3   5    4.07    2.82
   5   3   5    7.32    3.02
  -5   3  -5   -3.84    3.93
  -6   3  -5   13.51    5.01
   6  -3   5   16.15    4.21
  -6   3  -5    9.00    5.56
   7  -3   5    4.79    3.23
  -7   3  -5    6.41    6.38
  -7   3  -5   -1.31    4.71
   9  -4  -5   -2.94    3.37
   8  -4  -5    0.18    3.49
   8   4  -5    4.46    2.74
   7  -4  -5   34.35    4.83
   7   4  -5   39.13    4.74
   7   4  -5   36.34    4.08
   6  -4  -5    0.54    2.44
   6   4  -5   -0.62    2.41
   6  -4  -5   -1.80    2.68
  -6  -4   5   -3.05    2.49
   6   4  -5    1.78    2.31
   6   4  -5   -4.07    2.00
   5   4  -5    5.46    2.40
   5   4  -5    1.68    1.89
   5  -4  -5   -3.83    2.28
   5   4  -5    3.66    2.08
  -5  -4   5    2.45    2.13
   4   4  -5  385.23   17.86
  -4  -4   5  378.88   18.07
   4  -4  -5  417.51   18.36
   4   4  -5  415.39   18.02
   3  -4  -5  243.52   11.74
  -3  -4   5  230.23   12.00
   3   4  -5  233.89   11.61
  -2  -4   5   67.02    5.28
   2  -4  -5   66.53    4.78
  -2   4   5   60.86    4.14
   2   4  -5   76.69    5.14
   2  -4  -5   64.29    4.02
   1  -4  -5  974.14   41.64
  -1   4   5 1009.65   41.60
   1   4  -5 1008.07   42.20
  -1  -4   5 1010.03   42.46
   0  -4  -5   46.15    4.46
   0  -4  -5   40.01    4.63
   0  -4  -5   40.10    3.67
   0   4  -5   45.63    4.67
   0  -4   5   40.48    2.79
   0  -4   5   41.35    4.55
   0   4   5   43.32    4.07
  -1   4  -5  294.12   14.71
   1  -4   5  290.13   13.99
   1   4   5  292.40   14.54
   1  -4   5  293.48   14.48
  -1  -4  -5  311.55   15.59
   1   4   5  282.99   13.80
   2  -4   5   23.01    3.69
  -2   4  -5   26.20    4.34
  -2  -4  -5   22.77    4.33
   2   4   5   24.14    3.30
   2   4   5   23.32    3.92
   3  -4   5   13.70    3.16
  -3  -4  -5   16.60    4.26
  -3   4  -5   15.60    4.03
   3   4   5   19.50    3.14
   3   4   5   10.88    3.65
   3  -4   5   18.70    3.70
  -4   4  -5   21.89    4.83
  -4   4  -5   26.10    6.07
   4   4   5   20.04    4.57
   4  -4   5   23.85    4.23
   4   4   5   27.89    3.65
   4  -4   5   23.38    4.05
   5  -4   5    0.10    2.52
  -5   4  -5    2.76    3.90
  -5   4  -5   -7.81    4.18
   6  -4   5    3.70    3.15
  -6   4  -5    3.44    4.31
  -6   4  -5   -1.52    5.10
   8   5  -5   -3.68    3.01
   8  -5  -5   -2.19    3.29
   7   5  -5   23.34    4.29
   7   5  -5   18.24    3.36
   7  -5  -5   16.55    4.04
   6  -5  -5    1.52    3.18
   6   5  -5    4.75    2.98
   6   5  -5    0.95    2.27
  -5  -5   5  144.02    8.44
   5   5  -5  151.29    8.14
   5   5  -5  161.94    8.85
   5  -5  -5  153.60    8.97
   4   5  -5    2.61    2.45
   4  -5  -5    1.16    2.46
   4   5  -5    0.11    2.17
  -4  -5   5    1.88    1.58
   3  -5  -5    0.68    2.25
  -3  -5   5    4.02    2.62
   3  -5  -5    7.19    1.50
  -3   5   5    1.42    1.60
  -3  -5   5    6.02    1.34
   3   5  -5    3.52    2.43
  -2  -5   5   32.16    4.29
   2   5  -5   41.48    4.44
  -2   5   5   29.27    3.26
   2  -5  -5   30.51    3.65
   1   5  -5   48.90    5.07
  -1  -5   5   46.40    4.92
   1  -5  -5   43.23    3.72
  -1   5   5   39.44    3.95
   0   5  -5   74.31    5.83
   0  -5  -5   71.14    4.86
   0  -5   5   72.67    5.67
   0  -5   5   72.15    4.32
   0   5   5   78.61    5.58
   1  -5   5  119.06    7.50
  -1   5  -5  104.40    7.62
  -1  -5  -5  117.76    8.24
  -1  -5  -5  120.36    8.06
   1   5   5  112.45    7.47
   1  -5   5  111.60    6.55
  -1  -5  -5  115.13    6.54
  -2  -5  -5   30.14    4.79
   2   5   5   24.34    4.30
   2  -5   5   26.91    4.16
  -2   5  -5   28.41    4.56
  -2  -5  -5   25.46    4.04
  -3   5  -5   10.46    4.01
   3  -5   5   11.77    3.44
  -3   5  -5   10.77    5.00
   3   5   5   11.83    3.82
   3   5   5   11.12    2.67
   3  -5   5   11.79    3.17
   4  -5   5    3.02    2.77
   4  -5   5    3.62    3.00
   4   5   5    4.95    3.58
  -4   5  -5    1.60    4.45
  -4   5  -5    0.81    3.81
  -5   5  -5    5.72    5.37
   5   5   5   11.40    4.43
   5  -5   5    5.55    3.56
  -5   5  -5   10.17    4.72
   6  -5   5   -0.84    2.94
  -6   5  -5    4.98    4.73
  -6   5  -5   -6.33    4.85
   8  -6  -5   -2.00    3.33
   8   6  -5   -1.64    3.15
   7   6  -5   49.62    5.58
   7  -6  -5   31.65    5.10
  -7   6   5   47.45    8.68
   6   6  -5  239.07   12.05
   6   6  -5  236.48   10.75
  -6   6   5  172.35   15.20
   6  -6  -5  204.48   11.77
   5   6  -5   60.21    4.56
   5  -6  -5   62.20    5.50
   5   6  -5   71.31    5.78
  -4  -6   5  201.78   10.30
   4   6  -5  178.67   10.12
   4  -6  -5  182.62   10.11
  -4  -6   5  181.11    9.65
  -3  -6   5   22.49    2.38
  -3   6   5   24.24    2.93
  -3  -6   5   25.65    4.00
   3   6  -5   27.67    4.16
   3  -6  -5   25.82    3.56
  -2  -6   5   36.40    2.64
   2  -6  -5   33.35    3.71
   2   6  -5   42.16    4.79
  -2  -6   5   32.30    4.30
  -2   6   5   33.38    3.65
  -1  -6   5  206.44   11.33
   1  -6  -5  207.80   10.54
   1   6  -5  225.23   11.88
  -1   6   5  213.43   10.94
   0   6  -5  121.95    8.15
   0   6   5  117.95    7.58
   0  -6   5  120.59    6.58
   0  -6  -5  117.21    6.69
   0  -6   5  128.44    7.94
   1  -6   5   39.35    3.70
   1  -6   5   42.31    4.95
   1   6   5   50.38    5.24
  -1  -6  -5   40.67    3.72
  -1  -6  -5   56.42    5.64
  -1   6  -5   47.58    5.50
  -1  -6  -5   46.53    4.83
  -2   6  -5  123.56    8.58
  -2  -6  -5  116.64    6.53
   2  -6   5  119.58    8.04
   2   6   5  120.56    8.35
  -3   6  -5   -4.22    3.78
   3  -6   5    3.26    2.85
  -3   6  -5   -1.86    3.40
   3   6   5    3.92    3.47
   3  -6   5   -0.38    2.49
   4  -6   5    5.52    3.16
  -4   6  -5   10.36    4.46
   4  -6   5   10.48    3.54
   4   6   5    9.42    4.15
  -4   6  -5    4.60    4.96
   5   6   5    1.00    4.16
  -5   6  -5   -4.86    4.50
  -5   6  -5   -0.24    3.87
   5  -6   5    6.21    3.23
   6   6   5    8.21    4.38
   6  -6   5   12.19    4.20
  -6   6  -5   15.48    6.18
   8  -7  -5   -1.83    3.08
   7  -7  -5    5.35    3.57
   7   7  -5   -0.87    3.16
   6   7  -5   11.34    3.79
  -6   7   5    9.55    5.02
   6  -7  -5   10.39    3.84
  -5   7   5   37.37    7.46
   5   7  -5   36.03    3.63
   5   7  -5   56.60    5.70
   5  -7  -5   42.52    5.01
  -4  -7   5   18.06    3.73
   4  -7  -5   24.12    3.93
   4   7  -5   17.10    3.79
  -3  -7   5  445.21   19.91
   3   7  -5  411.40   20.24
  -3   7   5  416.23   18.76
   3  -7  -5  426.77   19.44
  -2  -7   5    5.55    2.03
   2   7  -5    8.69    3.72
  -2  -7   5    7.93    3.31
   2  -7  -5   11.91    3.05
  -2   7   5    6.92    2.63
   1  -7  -5  236.30   11.44
  -1  -7   5  231.73   12.41
  -1   7   5  226.40   11.96
   1   7  -5  239.25   13.07
   0   7   5    4.69    2.95
   0   7  -5    2.50    3.52
   0  -7  -5    4.89    2.28
   0  -7   5    0.67    3.00
   0  -7   5    0.25    1.78
   1  -7   5    4.92    2.26
  -1  -7  -5   -0.84    2.10
   1   7   5    0.82    2.93
  -1   7  -5    1.65    3.04
   1  -7   5   -2.12    2.36
   2  -7   5   11.32    2.81
   2  -7   5   22.05    4.13
  -2   7  -5   14.51    5.18
  -2   7  -5   21.40    4.84
   2   7   5   23.77    4.55
   3   7   5   42.02    5.90
  -3   7  -5   49.52    6.84
  -3   7  -5   35.99    7.19
   3  -7   5   53.95    5.19
   3  -7   5   39.91    5.39
  -4   7  -5   -1.27    4.78
   4   7   5    0.39    3.56
   4  -7   5    3.96    3.23
  -4   7  -5    5.14    4.40
  -5   7  -5    0.32    4.27
   5  -7   5    1.43    3.04
   5   7   5   -1.19    3.28
   7  -8  -5   -5.73    3.26
   7   8  -5   -4.76    3.13
   6  -8  -5   12.91    4.08
  -6   8   5   10.73    5.83
   6   8  -5   19.08    4.50
   5   8  -5    8.86    3.71
   5  -8  -5    5.15    3.46
  -5   8   5   -0.49    4.91
  -4  -8   5   -2.78    2.69
   4  -8  -5    2.22    3.04
   4   8  -5    4.66    3.07
  -3  -8   5   50.61    5.38
   3  -8  -5   57.35    5.23
   3   8  -5   55.92    6.31
   2  -8  -5   31.92    4.14
  -2   8   5   25.52    4.13
  -2  -8   5   35.69    4.60
   2   8  -5   33.68    5.32
  -1  -8   5    1.18    2.77
  -1   8   5   -1.32    2.70
   1   8  -5   -0.32    3.37
   1  -8  -5   -0.10    2.31
   0   8   5   39.14    5.24
   0  -8  -5   33.67    3.85
   0   8  -5   37.77    5.63
   0  -8   5   39.06    4.86
   1  -8   5   13.99    3.81
  -1   8  -5    9.51    4.75
  -1   8  -5   11.69    4.55
   1   8   5   11.34    3.70
   2   8   5   -4.27    2.54
  -2   8  -5    2.20    3.72
  -2   8  -5   -4.64    3.90
   2  -8   5    0.38    2.84
   3  -8   5    0.63    2.82
   3   8   5    0.23    3.54
  -3   8  -5    5.54    4.22
  -3   8  -5   -5.01    4.31
  -4   8  -5   -2.49    3.69
   4  -8   5    5.18    3.13
   4   8   5   -4.88    3.39
  -5   8  -5    7.51    5.28
   5   8   5    0.20    3.73
   5  -8   5    8.03    3.58
   6  -9  -5   -1.81    3.43
   6   9  -5   -4.40    3.23
   5  -9  -5   -3.37    2.97
  -5   9   5    7.11    4.82
   5   9  -5    0.99    3.59
   4   9  -5   59.47    6.54
   4  -9  -5   60.48    5.68
   3  -9  -5   26.67    4.41
   3   9  -5   30.89    5.16
  -3  -9   5   28.94    4.43
   2   9  -5    4.01    3.92
  -2   9   5    0.88    2.86
   2  -9  -5    5.94    3.15
  -2  -9   5    3.11    3.11
  -1   9   5   33.87    4.94
  -1  -9   5   43.81    5.23
   1   9  -5   39.58    5.92
   1  -9  -5   39.66    4.35
   0  -9   5  154.50    9.82
   0   9  -5  163.57   12.42
   0   9  -5  165.42   11.01
   0   9   5  161.52   10.07
   1  -9   5   41.18    5.22
  -1   9  -5   25.86    6.22
  -1   9  -5   34.50    5.82
   1   9   5   28.10    5.11
  -2   9  -5   -7.14    4.01
  -2   9  -5    0.92    4.05
   2  -9   5    3.14    3.23
   2   9   5   -4.24    3.22
  -3   9  -5    8.42    4.73
   3  -9   5    3.67    3.05
   3   9   5   -0.27    3.85
  -4   9  -5    4.51    4.68
   4   9   5   -1.23    4.01
   4  -9   5    2.62    3.14
   5  10  -5   -1.25    3.78
   5 -10  -5   -0.79    3.74
   4  10  -5    3.95    3.86
   4 -10  -5   -0.06    3.36
   3 -10  -5    1.69    3.54
   3  10  -5    1.08    3.65
   2  10  -5    1.42    3.72
   2  10  -5    0.61    4.16
  -2 -10   5    1.14    3.30
   2 -10  -5   -1.99    3.22
  -1  10   5    6.45    3.75
   1  10  -5   10.80    5.03
  -1 -10   5   11.94    3.89
   1  10  -5    6.07    4.03
   0  10   5   -5.29    3.15
   0  10  -5    0.41    4.55
   0  10  -5   -6.34    3.04
   0 -10   5    1.20    3.03
   1 -10   5    6.63    3.44
  -1  10  -5    7.31    4.36
   1  10   5    7.94    3.99
  -1  10  -5    3.76    5.38
  -2  10  -5   27.02    6.16
   2  10   5   14.33    4.73
   2 -10   5   22.11    4.72
   3  10   5    1.50    4.34
   3 -10   5   -2.27    3.03
  -3  10  -5    2.04    4.40
   4 -11  -5   -4.51    3.59
   4  11  -5   -1.33    3.82
   3  11  -5    1.36    3.72
   3 -11  -5   -0.34    3.49
   2  11  -5    0.99    3.48
   1  11  -5   -4.54    4.29
   1  11  -5    2.85    3.83
  -1  11   5   -0.30    3.33
  -1 -11   5    1.48    3.14
   0 -11   5    4.66    3.43
   0  11   5   -2.39    3.18
   0  11  -5    2.13    3.98
   0  11  -5   -5.83    4.40
   1 -11   5    2.15    3.20
  -1  11  -5    0.90    4.33
   1  11   5    1.41    3.73
   9   0  -6   -0.62    3.20
   8   0  -6  161.53    9.62
   7   0  -6    3.05    2.75
   7   0  -6    4.08    3.05
   6   0  -6  750.66   36.14
   6   0  -6  840.35   34.45
   5   0  -6   92.84    4.43
   5   0  -6   84.76    6.04
   5   0  -6   82.67    5.63
   4   0  -6    0.29    2.31
   4   0  -6    0.07    1.12
   4   0  -6    0.26    1.41
   3   0  -6   30.17    4.08
   3   0  -6   26.86    2.39
   2   0  -6  215.86   10.14
  -2   0   6  215.36   11.62
   1   0  -6    5.50    2.00
   1   0  -6    1.17    1.45
  -1   0   6    5.62    2.71
   0   0  -6  251.16   12.75
   0   0   6  268.64   13.48
   0   0  -6  263.44   12.67
   1   0   6  351.15   17.23
  -1   0  -6  355.02   17.28
  -1   0  -6  371.54   17.23
   2   0   6  302.18   15.54
  -2   0  -6  316.03   16.10
   2   0   6  327.93   16.08
  -2   0  -6  318.10   15.92
  -3   0  -6   56.33    5.36
   3   0   6   50.93    4.98
  -3   0  -6   50.21    6.04
   3   0   6   45.18    4.75
   4   0   6   69.23    6.06
  -4   0  -6   48.53    6.36
  -4   0  -6   66.06    6.50
   4   0   6   60.96    5.79
  -5   0  -6   -0.87    3.88
  -5   0  -6    3.43    4.51
   5   0   6    6.34    3.45
  -6   0  -6    0.79    4.26
   6   0   6    7.96    3.75
   9  -1  -6   -1.34    3.43
   9   1  -6    2.62    3.39
   8   1  -6    0.87    2.96
   8  -1  -6    4.61    3.35
   7  -1  -6   15.99    3.71
   7   1  -6   11.64    3.34
   7  -1  -6   16.96    3.55
   7   1  -6   19.09    3.64
   6  -1  -6    8.14    2.94
   6  -1  -6   12.44    3.23
   6   1  -6   18.29    3.47
   6   1  -6    6.89    2.75
   5  -1  -6  104.33    6.56
   5   1  -6  100.97    6.16
   5   1  -6  109.94    5.59
   5   1  -6  103.25    6.74
   5  -1  -6  101.09    6.82
   4  -1  -6    7.37    2.78
   4   1  -6    5.00    2.73
   4   1  -6    5.74    1.67
   4   1  -6    6.13    1.72
   3  -1  -6    1.31    1.44
   3  -1  -6    2.35    1.41
   3   1  -6    5.21    1.16
   3  -1  -6    4.09    2.33
   3   1  -6    4.16    1.80
   3   1  -6    3.10    2.72
  -3  -1   6    5.42    2.81
   2   1  -6  206.69   10.18
   2  -1  -6  235.55   11.44
   2   1  -6  204.20    9.55
   2  -1  -6  210.95    9.85
  -2  -1   6  219.68   11.63
  -2   1   6  215.08   11.49
   1   1  -6   38.99    3.77
   1   1  -6   41.24    2.55
  -1  -1   6   39.87    4.80
   1  -1  -6   38.77    3.43
  -1   1   6   41.29    4.76
   1  -1  -6   40.22    3.45
   0  -1  -6   85.10    5.67
   0   1  -6   87.69    4.88
   0  -1   6   77.91    6.12
   0   1   6   79.26    6.15
   0   1  -6   75.58    5.60
   0  -1  -6   79.43    5.43
   1  -1   6  154.71    9.38
  -1  -1  -6  157.73    9.22
   1  -1   6  162.48    8.71
  -1  -1  -6  162.98    9.23
  -1   1  -6  165.64    9.41
   1   1   6  159.89    9.25
  -1   1  -6  159.36    8.70
   2   1   6    0.38    2.50
  -2   1  -6   -1.04    2.26
   2  -1   6   -0.86    2.53
  -2   1  -6   -1.59    3.02
   2  -1   6    1.61    2.24
  -2  -1  -6    0.53    3.15
  -2  -1  -6    6.63    2.94
   3   1   6   13.90    3.34
   3   1   6   21.52    3.97
   3  -1   6   14.69    3.34
  -3   1  -6   15.25    4.44
   3  -1   6   22.20    3.87
  -3   1  -6   12.28    3.41
  -3  -1  -6   18.26    4.56
  -3  -1  -6   22.55    4.17
  -4   1  -6    0.47    3.92
  -4  -1  -6   -1.70    3.44
   4  -1   6   10.33    3.69
  -4   1  -6    1.99    3.29
   4  -1   6    3.93    2.96
   4   1   6    4.88    3.03
  -5  -1  -6   -2.60    3.70
  -5   1  -6   -1.57    4.16
   5  -1   6    0.26    2.67
   5   1   6    2.96    2.99
  -5   1  -6   -0.76    3.57
   6   1   6    3.49    3.02
  -6   1  -6   -9.44    4.23
  -6  -1  -6   -4.56    3.63
   6  -1   6    0.99    3.29
  -6   1  -6   -0.57    4.48
   9   2  -6    6.60    3.43
   9  -2  -6    6.64    4.09
   8  -2  -6   64.13    6.01
   8   2  -6   62.63    5.57
   7  -2  -6   26.23    4.23
   7   2  -6   26.84    4.01
   7  -2  -6   20.13    4.06
   6   2  -6   77.83    5.70
   6   2  -6   65.67    5.21
   6  -2  -6   73.08    5.92
   6   2  -6   88.86    5.27
   6  -2  -6   72.24    5.86
   5  -2  -6   64.21    5.33
   5  -2  -6   67.81    5.18
   5   2  -6   60.30    4.33
   5   2  -6   77.96    5.49
   5   2  -6   67.07    4.48
   4  -2  -6  383.78   17.21
   4   2  -6  351.30   16.94
   4   2  -6  344.20   16.21
   4   2  -6  371.80   16.01
   3  -2  -6  602.37   24.91
   3  -2  -6  600.29   24.89
  -3  -2   6  631.00   27.38
   3  -2  -6  633.61   26.94
   3   2  -6  578.80   25.80
  -2  -2   6   70.47    5.76
   2  -2  -6   67.93    5.44
   2   2  -6   71.71    4.86
   2  -2  -6   70.86    4.21
  -1  -2   6   85.80    6.39
  -1   2   6   85.61    6.25
   1  -2  -6   83.37    5.60
   1  -2  -6   81.90    5.07
   1   2  -6   76.76    5.44
   0   2  -6   74.27    4.21
   0   2  -6   73.23    5.70
   0  -2   6   78.88    6.06
   0   2   6   72.53    5.66
   0  -2  -6   72.26    5.39
   1  -2   6   96.78    5.98
  -1   2  -6  109.05    6.15
   1  -2   6  101.76    7.07
  -1  -2  -6  110.42    7.07
   1   2   6   98.98    6.92
  -1   2  -6   96.71    6.99
  -2   2  -6   21.82    3.35
  -2   2  -6   25.97    4.52
  -2  -2  -6   29.31    4.35
   2  -2   6   19.72    2.99
   2   2   6   25.09    3.75
   2  -2   6   31.83    4.45
  -3  -2  -6   24.15    4.75
   3   2   6   22.03    3.92
   3  -2   6   24.47    4.10
  -3   2  -6   19.29    3.74
  -3   2  -6   22.98    4.82
   3  -2   6   20.72    3.63
   4  -2   6    6.64    3.39
  -4   2  -6    9.44    3.77
   4   2   6   10.36    3.26
  -4   2  -6    6.02    4.13
   4  -2   6    7.12    3.23
   5  -2   6    2.07    3.15
  -5   2  -6    4.78    4.33
  -5   2  -6    2.82    5.04
   5   2   6    3.28    3.06
   6  -2   6    3.29    3.13
   6   2   6    2.86    2.91
  -6   2  -6   -4.85    4.52
  -6   2  -6   -3.11    4.05
   9   3  -6   -0.75    3.17
   9  -3  -6   -0.82    3.51
   8  -3  -6    0.61    3.12
   8   3  -6    1.64    2.77
   7  -3  -6   14.37    3.89
   7   3  -6   11.12    3.01
   6  -3  -6  191.29   11.55
   6   3  -6  222.26   10.61
   6   3  -6  202.81   10.69
   6  -3  -6  196.76   11.09
   5   3  -6    7.17    1.85
   5  -3  -6    5.70    2.94
   5   3  -6   10.99    2.94
   5   3  -6    9.84    2.81
   4  -3  -6   34.64    4.34
   4   3  -6   37.61    3.70
   4   3  -6   31.83    4.35
  -3  -3   6   32.05    4.44
   3   3  -6   41.81    4.06
   3  -3  -6   35.17    4.39
   3  -3  -6   30.83    2.34
   3  -3  -6   37.72    2.52
  -2  -3   6    1.34    2.73
   2  -3  -6    3.17    1.64
   2  -3  -6    4.71    2.96
   2   3  -6    3.23    2.39
   1  -3  -6   11.64    3.21
   1   3  -6   14.37    3.26
  -1  -3   6    7.18    3.11
   0  -3  -6   79.41    5.70
   0   3   6   69.27    5.49
   0   3  -6   70.29    5.67
   0  -3   6   74.66    5.95
   1   3   6    3.40    2.59
  -1  -3  -6    3.75    2.58
   1  -3   6    6.21    1.90
  -1   3  -6    0.10    2.82
   1  -3   6    3.91    2.68
   2  -3   6   65.39    5.65
   2   3   6   60.71    5.19
  -2   3  -6   60.00    6.27
  -2  -3  -6   61.16    5.94
   3  -3   6   28.01    4.59
   3  -3   6   26.85    4.07
   3   3   6   39.88    4.66
  -3  -3  -6   37.32    5.46
  -3   3  -6   33.68    5.35
   4  -3   6   -3.20    2.56
   4   3   6   -1.32    2.57
  -4   3  -6   -1.58    3.98
   4  -3   6   -2.61    2.43
   5  -3   6   -2.73    2.87
  -5   3  -6   -2.66    4.83
  -5   3  -6    4.88    4.39
   5   3   6    2.14    2.71
   6  -3   6    4.30    3.63
  -6   3  -6   -1.91    5.83
  -6   3  -6    1.64    4.57
   8  -4  -6   -1.07    3.31
   8   4  -6   -3.53    2.40
   7  -4  -6   -1.66    2.66
   7   4  -6    3.25    2.82
   7   4  -6    6.10    3.07
   6   4  -6  100.09    6.50
   6  -4  -6   93.49    6.85
   6   4  -6   81.30    6.00
   6  -4  -6   98.21    7.24
   5  -4  -6  292.05   14.32
   5   4  -6  288.98   13.59
   5   4  -6  269.25   13.69
   4  -4  -6   10.23    3.34
   4   4  -6    9.16    3.14
   4   4  -6   15.73    2.98
  -4  -4   6   10.70    3.29
   3   4  -6  130.00    7.78
  -3  -4   6  137.05    8.49
   3  -4  -6  136.41    8.03
   2  -4  -6   58.58    4.94
   2   4  -6   63.69    5.12
  -2  -4   6   55.22    5.33
  -1  -4   6   27.85    4.40
   1   4  -6   34.89    4.26
   1  -4  -6   28.90    3.95
   0  -4  -6   42.44    4.39
   0  -4   6   36.66    4.75
   0  -4  -6   42.51    4.94
   0  -4   6   32.42    2.44
   0   4  -6   37.15    4.69
  -1   4  -6  199.89   11.34
   1  -4   6  185.18    9.89
   1   4   6  201.88   10.56
   1  -4   6  198.25   11.16
  -1  -4  -6  205.35   11.70
   2   4   6    8.55    3.09
   2  -4   6    7.43    3.31
  -2  -4  -6    7.58    3.72
  -2   4  -6    7.89    3.83
   2  -4   6    6.37    2.52
   3  -4   6   25.05    4.43
  -3   4  -6   29.27    5.21
   3  -4   6   22.52    3.87
   3   4   6   31.88    4.17
   4  -4   6   -8.45    2.51
   4  -4   6   -0.56    3.00
   4   4   6    1.46    2.55
  -4   4  -6   -3.30    4.48
  -4   4  -6    2.36    3.57
   5  -4   6    0.44    2.95
  -5   4  -6   -0.46    4.75
  -5   4  -6   -4.30    4.92
   6  -4   6    3.40    3.34
  -6   4  -6    0.54    4.58
   8  -5  -6    6.77    3.67
   7   5  -6   -2.91    2.88
   7   5  -6    1.36    2.46
   7  -5  -6   -2.28    2.90
   6  -5  -6   52.20    5.80
   6   5  -6   63.42    5.41
   6   5  -6   56.78    4.70
   5   5  -6    6.08    2.71
   5   5  -6    8.88    2.91
   5  -5  -6    5.89    3.28
  -4  -5   6   73.48    5.94
   4  -5  -6   62.53    5.42
   4   5  -6   64.78    5.21
   3   5  -6   15.51    3.37
   3  -5  -6   23.71    3.66
  -3  -5   6   16.36    3.65
   2  -5  -6    5.92    2.64
  -2  -5   6   -2.88    2.68
   2   5  -6    2.30    2.74
   1   5  -6    1.40    2.70
   1  -5  -6    1.64    2.30
  -1   5   6    0.07    2.27
  -1  -5   6   -3.21    2.48
   0  -5   6  217.40   11.65
   0  -5  -6  206.14   12.12
   0   5  -6  201.13   11.53
   0   5   6  209.98   11.23
   0  -5  -6  198.20   10.56
   0  -5   6  197.08    9.65
   1   5   6  415.51   19.84
   1  -5   6  395.97   19.01
  -1  -5  -6  402.62   18.58
  -1   5  -6  429.98   20.18
  -1  -5  -6  428.41   21.23
   1  -5   6  388.96   19.64
   2   5   6    0.91    2.43
   2  -5   6   -0.15    2.17
  -2   5  -6    5.49    3.48
   2   5   6    1.30    3.30
   2  -5   6   -1.08    2.73
   3   5   6   78.26    7.17
   3  -5   6   78.36    6.72
   3   5   6   89.04    5.91
  -3   5  -6   85.17    7.69
   3  -5   6   84.82    6.33
   4  -5   6    5.03    3.39
  -4   5  -6    4.03    5.25
  -4   5  -6    7.90    4.27
   5  -5   6   -0.21    3.08
  -5   5  -6   -0.62    4.27
  -5   5  -6   -4.68    5.16
   8  -6  -6    7.76    4.00
   7   6  -6   22.23    4.28
   7  -6  -6   14.37    4.23
   6   6  -6   14.98    3.80
   6   6  -6   20.40    3.27
   6  -6  -6   19.27    4.20
   5   6  -6    4.66    2.79
   5   6  -6   -0.09    2.57
   5  -6  -6   -2.88    2.77
  -4  -6   6   54.92    5.61
   4  -6  -6   49.19    5.18
   4   6  -6   48.95    4.83
  -3  -6   6    0.48    2.83
   3  -6  -6   -6.98    2.03
   3   6  -6   -3.54    2.59
   2  -6  -6   34.19    4.15
  -2  -6   6   30.07    4.78
  -2   6   6   27.84    3.83
   2   6  -6   47.84    5.32
  -1   6   6    2.51    2.90
   1  -6  -6    8.71    3.01
   1   6  -6    8.47    3.45
  -1  -6   6    3.74    2.98
   0   6   6    4.38    3.06
   0   6  -6   -1.12    3.04
   0  -6   6    6.15    3.21
   0  -6  -6    6.72    3.69
   0  -6  -6    0.70    2.63
  -1  -6  -6   25.01    3.70
   1   6   6   32.47    4.90
   1  -6   6   28.91    4.55
  -1   6  -6   24.36    4.77
  -2  -6  -6   16.83    3.28
   2   6   6   12.33    4.14
   2  -6   6   15.50    3.87
  -2   6  -6   25.54    5.11
   3  -6   6   27.00    4.68
  -3   6  -6   25.09    5.01
  -3   6  -6   15.78    5.78
   3   6   6   19.90    4.90
   4  -6   6   -0.98    3.00
  -4   6  -6   -3.95    4.81
  -4   6  -6   -2.42    4.12
   4   6   6   -0.15    3.45
   5  -6   6    6.57    3.52
  -5   6  -6    6.89    4.46
   7   7  -6    0.84    3.21
   7  -7  -6    3.78    3.43
   6   7  -6    4.67    3.27
   6  -7  -6    1.75    3.22
   5   7  -6   18.47    3.96
   5  -7  -6   17.65    4.06
   5   7  -6   22.57    3.51
   4  -7  -6   90.49    6.77
   4   7  -6   98.29    7.09
  -4  -7   6   92.06    6.97
  -3  -7   6   -0.41    3.06
   3   7  -6    6.29    3.65
   3  -7  -6    3.56    3.06
  -2   7   6   -4.93    2.27
  -2  -7   6   -1.97    2.88
   2  -7  -6    2.15    2.70
   2   7  -6    0.98    3.27
  -1  -7   6   88.82    7.09
  -1   7   6   93.95    6.85
   1   7  -6  107.01    7.94
   1  -7  -6   95.20    6.34
   0  -7  -6    6.04    2.79
   0   7   6    2.58    3.38
   0  -7   6   -2.33    3.02
   0   7  -6    3.80    3.65
   1  -7   6   63.76    6.20
  -1   7  -6   73.85    6.94
  -1  -7  -6   77.38    5.27
   1   7   6   70.58    6.57
   2  -7   6    2.47    2.89
  -2   7  -6   -2.18    3.25
   2   7   6    2.60    3.76
  -3   7  -6    9.48    4.65
  -3   7  -6   10.08    5.54
   3  -7   6   14.76    4.07
   3   7   6   11.52    4.27
   4   7   6   -0.21    3.53
   4  -7   6    3.35    3.44
  -4   7  -6   -4.08    3.93
   7  -8  -6   -0.28    3.53
   6   8  -6   -6.31    2.69
   6  -8  -6    3.97    3.76
   5  -8  -6   26.24    4.73
   5   8  -6   35.29    5.32
   4  -8  -6   -3.01    2.92
   4   8  -6   -2.31    2.97
  -4  -8   6    2.97    3.42
  -3  -8   6    5.86    3.72
   3  -8  -6   10.33    3.40
   3   8  -6   12.89    4.11
   2   8  -6   77.29    7.14
  -2  -8   6   81.65    6.81
   2  -8  -6   81.50    5.97
  -2   8   6   77.71    6.05
  -1  -8   6   31.52    5.11
   1   8  -6   36.11    5.76
  -1   8   6   26.67    4.57
   1  -8  -6   29.03    3.96
   0  -8   6   28.01    4.66
   0  -8  -6   22.45    3.65
   0   8   6   14.38    4.29
   0   8  -6   18.37    4.85
  -1   8  -6    4.30    4.06
   1   8   6    5.40    3.72
   1  -8   6    2.72    3.12
  -2   8  -6   17.31    6.18
   2  -8   6   18.08    4.31
   2   8   6   14.13    4.32
  -2   8  -6   11.15    4.42
   3  -8   6    4.94    3.21
  -3   8  -6   12.65    4.82
   3   8   6    7.82    4.26
   4   8   6   -0.29    4.20
   4  -8   6    6.69    3.39
  -4   8  -6   -2.24    4.20
   6  -9  -6    1.03    3.89
   5   9  -6   -3.31    3.32
   5  -9  -6    2.34    3.59
   4   9  -6   13.90    4.64
   4  -9  -6   15.88    4.02
   3  -9  -6    1.30    3.19
   3   9  -6   -5.21    2.89
  -3  -9   6    1.36    3.25
   2   9  -6  104.71    8.38
   2  -9  -6   89.62    6.60
  -2  -9   6   90.56    7.50
  -1  -9   6   30.15    4.89
   1  -9  -6   20.55    3.63
   1   9  -6   15.87    4.75
  -1   9   6   18.36    4.24
   0  -9   6   38.56    5.54
   0   9   6   32.50    5.23
   0   9  -6   47.23    6.80
   0   9  -6   41.15    7.11
  -1   9  -6   10.31    5.83
   1  -9   6    2.42    3.20
   1   9   6    2.20    3.90
  -1   9  -6    5.59    4.56
   2  -9   6    8.38    3.70
  -2   9  -6    9.86    4.71
   2   9   6    1.89    4.21
  -3   9  -6    2.79    4.58
   3   9   6    4.95    4.58
   3  -9   6    2.17    3.52
   5 -10  -6   22.29    5.03
   4  10  -6    4.25    4.01
   4 -10  -6   -1.68    3.18
   3 -10  -6   -7.76    3.05
   3  10  -6   -1.26    3.78
  -2 -10   6   40.35    5.55
   2  10  -6   28.77    6.00
   2 -10  -6   36.90    4.86
  -1 -10   6    4.15    3.89
   1  10  -6    7.51    4.34
  -1  10   6    2.94    3.83
   1  10  -6    1.38    4.76
   0  10  -6   13.38    4.65
   0 -10   6   18.15    4.56
   0  10  -6   15.28    5.98
   0  10   6   16.01    4.56
  -1  10  -6   38.45    6.68
   1 -10   6   23.70    4.92
   1  10   6   17.50    5.05
   2 -10   6   10.09    3.89
  -1 -11   6   16.70    4.55
   1  11  -6   17.33    5.65
   1  11  -6   15.79    6.24
   0 -11   6   -1.22    3.26
   9   0  -7   -3.43    3.29
   8   0  -7   -2.25    2.77
   7   0  -7   -2.86    2.44
   6   0  -7   -2.43    2.70
   5   0  -7   -1.12    2.78
   5   0  -7   -3.22    1.71
   4   0  -7   -0.50    1.55
   4   0  -7   -1.01    2.66
   4   0  -7   -1.97    1.47
   3   0  -7   -0.31    1.73
   3   0  -7   -2.69    2.78
   2   0  -7   -1.16    1.87
   2   0  -7   -0.99    1.37
  -2   0   7    1.48    2.94
  -1   0   7    1.74    2.69
   1   0  -7   -6.07    2.26
   1   0  -7   -0.46    1.52
   0   0   7    0.94    2.70
   0   0  -7    1.98    2.12
   0   0  -7   -1.44    2.79
  -1   0  -7   -1.51    2.13
   1   0   7    0.26    2.58
  -1   0  -7    0.45    3.24
  -2   0  -7   -6.28    2.33
  -2   0  -7   -1.31    3.14
   2   0   7   -1.19    2.71
   3   0   7    1.64    3.20
  -3   0  -7   -1.30    3.10
  -3   0  -7   -0.34    3.77
   3   0   7   -0.10    2.54
  -4   0  -7   -2.87    3.61
   4   0   7    3.27    2.99
  -5   0  -7    2.82    4.11
   5   0   7    1.74    3.28
   9   1  -7   -1.94    2.99
   9  -1  -7    2.27    3.82
   8  -1  -7    2.66    3.43
   8   1  -7    5.59    3.34
   7   1  -7    1.57    2.95
   7  -1  -7    3.51    3.05
   6   1  -7   80.65    6.35
   6  -1  -7   75.11    6.13
   6  -1  -7   65.26    5.55
   5  -1  -7    1.33    2.90
   5  -1  -7    1.51    2.11
   5   1  -7    0.81    1.71
   5   1  -7    1.89    3.11
   5   1  -7   -2.18    1.62
   4  -1  -7  125.02    7.96
   4   1  -7  121.95    6.30
   4  -1  -7  114.81    5.51
   4   1  -7  116.10    7.85
   4   1  -7  107.83    5.97
  -3  -1   7   -0.50    2.73
   3  -1  -7   -1.15    1.56
   3   1  -7   -1.94    1.71
   3  -1  -7   -2.01    2.65
   3   1  -7   -0.30    2.85
   2  -1  -7    6.56    2.15
  -2  -1   7   -0.15    2.43
  -2   1   7    2.69    2.81
   2   1  -7    2.02    2.17
   2  -1  -7   -2.24    2.88
  -1  -1   7  424.81   20.27
   1  -1  -7  410.45   19.48
   1   1  -7  413.51   19.03
   1  -1  -7  433.24   18.89
  -1   1   7  429.72   20.18
   1   1  -7  395.19   18.57
   0  -1  -7   78.24    5.59
   0  -1   7   74.06    6.42
   0   1   7   73.99    6.66
   0   1  -7   90.46    6.27
   0   1  -7   82.25    4.99
   0  -1  -7   76.86    5.82
  -1   1  -7  227.04   12.43
   1  -1   7  213.20   12.44
  -1  -1  -7  243.50   12.44
   1   1   7  217.56   12.44
  -1  -1  -7  219.97   12.20
  -1   1  -7  232.34   11.81
   2  -1   7   17.33    3.59
  -2  -1  -7   18.66    3.98
  -2   1  -7   22.82    3.81
   2  -1   7   26.27    4.41
  -2   1  -7   26.71    4.94
   2   1   7   24.39    4.35
  -2  -1  -7   18.25    4.36
  -3   1  -7   23.65    4.33
   3  -1   7   32.81    4.38
  -3  -1  -7   23.69    4.86
   3  -1   7   24.09    4.51
   3   1   7   28.41    4.52
  -3  -1  -7   22.90    4.88
  -3   1  -7   23.26    5.27
  -4  -1  -7   38.43    6.08
   4   1   7   33.45    5.09
   4  -1   7   33.80    5.07
  -4   1  -7   33.27    6.11
   5   1   7   12.56    3.95
  -5   1  -7    7.14    4.71
  -5   1  -7    9.51    5.67
  -5  -1  -7   10.90    4.61
   5  -1   7    7.41    3.48
   9  -2  -7    2.50    3.77
   9   2  -7    4.32    3.35
   8   2  -7    0.53    2.64
   8  -2  -7   -1.60    2.78
   7  -2  -7  137.57    9.14
   7   2  -7  149.60    8.92
   6  -2  -7    2.52    2.66
   6   2  -7    1.56    2.61
   6  -2  -7    7.23    3.56
   5  -2  -7  300.66   15.81
   5   2  -7  316.38   15.82
   5   2  -7  324.27   14.40
   5  -2  -7  327.08   16.13
   4  -2  -7  553.67   24.57
   4   2  -7  538.64   24.49
   4   2  -7  511.79   22.95
   3   2  -7   68.30    4.98
  -3  -2   7   70.48    6.27
   3  -2  -7   72.10    6.02
   3  -2  -7   65.22    4.10
   2  -2  -7  129.11    6.79
   2   2  -7  123.98    7.42
  -2  -2   7  125.25    8.55
   2  -2  -7  121.70    8.20
  -1  -2   7    6.13    3.18
   1   2  -7    7.15    2.88
  -1   2   7    1.92    3.21
   1  -2  -7    3.64    2.43
   1  -2  -7    5.62    2.68
   0   2   7  123.45    8.20
   0  -2   7  124.22    8.39
   0   2  -7  125.20    6.44
   0  -2  -7  124.98    7.77
   0  -2  -7  117.47    7.50
   0   2  -7  116.76    7.80
  -1   2  -7    3.58    2.21
   1  -2   7    7.23    3.36
  -1   2  -7    5.51    3.26
  -1  -2  -7    4.54    2.71
   1   2   7    4.75    2.97
  -1  -2  -7    5.17    3.42
   2  -2   7   79.93    6.22
   2   2   7   96.15    7.30
   2  -2   7  107.50    7.62
  -2   2  -7  116.78    7.10
  -2   2  -7  102.97    8.08
  -2  -2  -7  101.78    7.68
  -3   2  -7   -4.91    3.38
   3  -2   7   -2.13    2.79
   3   2   7    3.58    3.51
  -3   2  -7    3.72    3.18
   3  -2   7   -1.37    2.91
   4  -2   7   55.93    6.40
  -4   2  -7   54.87    7.16
  -4  -2  -7   58.39    7.13
   4   2   7   66.15    6.07
  -5  -2  -7    1.65    4.27
   5  -2   7    2.03    3.05
   5   2   7   10.63    3.83
  -5   2  -7   12.36    5.73
  -5   2  -7   11.38    5.29
   8  -3  -7   -3.15    2.82
   8   3  -7   -4.96    2.49
   7  -3  -7   -0.18    3.36
   7   3  -7   -2.50    2.89
   6  -3  -7   76.09    6.17
   6  -3  -7   73.72    6.22
   6   3  -7   84.41    6.27
   5  -3  -7   56.64    5.48
   5   3  -7   54.08    5.62
   5   3  -7   46.22    4.25
   4   3  -7    6.56    3.62
   4  -3  -7   -0.35    3.06
   4   3  -7    2.72    2.46
  -3  -3   7  390.69   18.99
   3  -3  -7  382.73   16.20
   3   3  -7  375.07   17.49
   3  -3  -7  369.46   18.24
  -2  -3   7    9.26    3.69
   2   3  -7    9.89    3.06
   2  -3  -7    4.84    2.13
   2  -3  -7    9.04    3.26
  -1  -3   7  182.14   11.08
   1   3  -7  185.34   10.48
   1  -3  -7  186.04   10.72
   1  -3  -7  192.88   10.62
   1  -3  -7  196.26    9.76
   0   3  -7   25.74    4.33
   0   3   7   35.12    4.71
   0  -3   7   19.86    4.17
   0  -3  -7   34.80    4.41
   1  -3   7   -0.28    2.16
   1  -3   7    8.62    3.56
   1   3   7    7.70    3.13
  -1   3  -7    4.58    3.33
  -1  -3  -7    5.60    3.24
  -2  -3  -7  106.64    8.17
  -2   3  -7   97.51    7.93
   2   3   7   95.14    7.21
   2  -3   7   87.58    7.33
   3  -3   7    8.42    3.66
   3   3   7   22.23    4.02
  -3   3  -7   19.43    5.28
   4   3   7    5.09    3.21
   4  -3   7    6.40    3.65
  -4   3  -7    0.02    3.90
   5  -3   7   -1.95    3.01
  -5   3  -7    0.57    4.44
  -5   3  -7   -2.87    5.14
   8   4  -7    0.26    2.76
   8  -4  -7   -2.59    3.35
   7   4  -7   40.48    4.66
   7  -4  -7   28.90    4.86
   6   4  -7   49.12    4.64
   6   4  -7   45.68    5.04
   6  -4  -7   34.96    5.01
   5   4  -7  197.11   10.68
   5  -4  -7  178.01   10.66
   5   4  -7  187.06    9.92
   4  -4  -7   11.65    3.79
   4   4  -7   14.15    3.52
   4   4  -7   17.36    3.98
  -4  -4   7   14.56    4.07
   3   4  -7  152.55    8.96
   3  -4  -7  148.02    9.27
  -3  -4   7  164.55   10.02
   2  -4  -7   -2.82    2.58
   2   4  -7    6.34    2.89
  -2  -4   7    0.74    3.06
   1   4  -7   29.11    4.51
   1  -4  -7   32.83    4.64
   1  -4  -7   32.70    4.54
  -1  -4   7   32.57    5.05
   0  -4  -7   37.26    4.82
   0  -4   7   30.27    5.08
   0  -4  -7   27.98    4.32
   0   4  -7   35.61    4.88
   1  -4   7   25.08    4.57
   1   4   7   33.22    4.52
  -1  -4  -7   27.75    4.61
  -1   4  -7   32.68    5.08
   2  -4   7  225.56   13.47
  -2   4  -7  261.00   14.30
   2   4   7  247.13   12.98
  -3   4  -7    7.19    4.43
   3   4   7    3.47    3.17
   3  -4   7    4.70    3.16
   4  -4   7   17.50    4.46
  -4   4  -7   20.04    5.68
   5  -4   7    2.67    3.41
  -5   4  -7    3.45    4.90
   8  -5  -7   17.89    4.78
   7   5  -7    3.01    2.75
   7  -5  -7    4.15    3.38
   6  -5  -7    4.09    3.26
   6   5  -7   -1.22    2.88
   6   5  -7    5.18    2.88
   5  -5  -7   94.17    6.88
   5   5  -7   87.76    6.56
   5   5  -7   78.10    6.04
   4   5  -7    1.49    2.73
  -4  -5   7    3.91    3.56
   4  -5  -7    1.07    2.83
   3  -5  -7   46.55    5.19
  -3  -5   7   39.88    5.48
   3   5  -7   45.80    5.19
   2   5  -7    2.51    3.13
   2  -5  -7   -1.08    2.75
  -2  -5   7    1.48    3.06
   1   5  -7    7.01    3.53
   1  -5  -7    4.08    3.13
  -1  -5   7    5.49    3.46
   0  -5  -7    0.39    2.95
   0   5  -7   -0.63    3.07
   0  -5  -7    7.29    3.64
   0  -5   7    2.16    3.32
  -1   5  -7   19.60    4.74
   1  -5   7   23.52    4.50
  -1  -5  -7   21.08    3.92
   2   5   7   11.53    3.29
   2  -5   7   10.02    3.73
  -2   5  -7   16.20    4.54
  -3   5  -7   13.25    4.82
   3  -5   7   12.78    4.15
   4  -5   7    2.20    3.34
  -4   5  -7   -2.30    3.95
   7  -6  -7    9.77    3.94
   6   6  -7    1.75    2.79
   6  -6  -7   -2.65    2.95
   6   6  -7   -1.79    2.35
   5   6  -7   -0.97    2.67
   5  -6  -7   -0.45    2.90
   5   6  -7    1.74    2.73
   4   6  -7   -1.62    2.69
  -4  -6   7    4.64    3.48
   4  -6  -7   -0.57    2.86
   3  -6  -7   35.70    4.88
  -3  -6   7   29.74    5.17
   3   6  -7   37.10    5.12
   2  -6  -7    8.59    3.30
  -2  -6   7    7.74    3.75
   2   6  -7    7.01    3.65
   1  -6  -7  103.53    6.87
  -1  -6   7   93.96    7.61
   1   6  -7   95.32    7.71
   0   6   7   -0.12    3.03
   0   6  -7    0.11    3.39
   0  -6  -7   -2.00    2.58
   0  -6   7   -4.01    2.64
   1  -6   7    2.78    3.58
  -1  -6  -7    4.12    3.03
   1   6   7    3.96    3.68
  -1   6  -7    2.22    3.51
  -2   6  -7    7.30    4.13
   2   6   7    7.33    3.90
   2  -6   7    3.99    3.32
  -2  -6  -7    7.27    3.02
   3  -6   7   25.06    4.94
  -3   6  -7   29.94    5.98
  -4   6  -7    1.09    4.23
   4  -6   7    2.31    2.95
   7  -7  -7    3.56    3.99
   6  -7  -7   -2.45    3.29
   6   7  -7    2.16    3.29
   5   7  -7   33.99    4.47
   5  -7  -7   33.58    4.92
   5   7  -7   31.25    4.85
   4   7  -7   41.27    5.44
   4  -7  -7   41.46    5.21
  -4  -7   7   51.31    6.04
  -3  -7   7   10.44    4.11
   3  -7  -7    5.57    3.13
   3   7  -7    3.57    3.65
   2   7  -7    3.64    3.68
   2  -7  -7    0.95    2.82
  -2  -7   7    0.43    3.26
  -1  -7   7    4.89    3.79
   1  -7  -7    3.41    2.94
  -1   7   7   -1.07    2.93
   1   7  -7    0.13    3.69
   0   7  -7    5.29    3.97
   0  -7   7    8.33    3.86
   0   7   7    8.41    3.61
   0  -7  -7    4.56    2.90
   1   7   7   -0.50    3.37
   1  -7   7    0.92    3.20
  -1  -7  -7    1.35    2.75
  -1   7  -7    0.78    3.62
   2  -7   7   29.34    5.37
  -2   7  -7   31.31    5.88
   2   7   7   27.77    5.26
   3   7   7   -1.17    3.97
  -3   7  -7    1.56    4.18
   3  -7   7    2.84    3.20
   6   8  -7   15.10    4.51
   6  -8  -7   11.58    4.28
   5  -8  -7   31.06    5.31
   5   8  -7   45.80    5.94
   4   8  -7   52.25    6.43
  -4  -8   7   58.45    6.42
   4  -8  -7   49.35    5.65
   3   8  -7    0.65    3.79
  -3  -8   7    2.96    3.62
   3  -8  -7   -0.94    2.85
   2  -8  -7    4.32    3.10
   2   8  -7    3.10    3.72
  -2  -8   7    2.81    3.54
  -1   8   7    4.54    3.39
  -1  -8   7    8.58    3.98
   1  -8  -7   10.31    3.31
   1   8  -7    4.22    3.84
   0   8  -7   -0.98    3.59
   0  -8   7    2.84    3.57
   0  -8  -7    4.03    2.99
   0   8   7   -1.41    3.41
   1   8   7   12.50    4.30
  -1   8  -7    9.94    4.47
   1  -8   7   14.41    4.33
   2   8   7    1.28    4.04
  -2   8  -7    2.33    3.97
   2  -8   7    2.58    3.49
  -3   8  -7    3.18    4.23
   3  -8   7    9.22    4.16
   5  -9  -7   24.12    5.22
   5   9  -7   36.87    5.82
   4   9  -7    3.43    3.91
   4  -9  -7   -2.13    3.40
  -3  -9   7   41.32    5.93
   3  -9  -7   35.49    5.01
   3   9  -7   33.62    5.88
  -2  -9   7   22.07    4.90
   2   9  -7   18.51    5.00
   2  -9  -7   19.84    3.93
   1  -9  -7   16.44    3.74
   1   9  -7   24.77    5.62
  -1  -9   7   27.13    5.05
   0   9   7    2.33    3.55
   0   9  -7   -0.51    3.41
   0  -9   7    2.16    3.51
   1  -9   7    1.67    3.50
   1   9   7    1.80    3.89
  -1   9  -7    0.80    4.22
   2  -9   7    5.23    3.82
   3  10  -7    8.21    4.45
   3 -10  -7    0.58    3.59
   2  10  -7    2.00    4.37
  -2 -10   7    4.84    3.92
   1  10  -7   12.93    4.97
  -1 -10   7   14.87    4.82
   0 -10   7   21.05    5.05
   8   0  -8    2.71    3.24
   7   0  -8    7.84    3.91
   6   0  -8   62.68    5.99
   5   0  -8   12.92    4.14
   4   0  -8   35.67    5.36
   3   0  -8  276.76   13.23
   3   0  -8  292.41   15.28
  -2   0   8    0.18    3.09
   2   0  -8   -0.95    2.50
  -1   0   8  186.52   11.48
   1   0  -8  181.85    9.54
   1   0  -8  198.13   10.39
   0   0   8   70.87    6.56
   0   0  -8   72.62    6.09
   0   0  -8   71.24    5.19
  -1   0  -8    9.94    3.13
   1   0   8    5.32    3.45
  -1   0  -8    4.88    3.86
  -2   0  -8   15.91    4.58
   2   0   8    9.59    4.08
  -3   0  -8   -0.19    4.17
   3   0   8    1.93    3.66
   4   0   8    8.84    4.18
  -4   0  -8    4.81    4.92
   8   1  -8    3.76    3.37
   8  -1  -8    6.18    3.71
   7  -1  -8    9.62    3.86
   7   1  -8   14.11    4.08
   6  -1  -8   48.15    5.89
   6   1  -8   54.79    5.92
   5  -1  -8    3.00    3.11
   5   1  -8    1.39    3.30
   4   1  -8   -2.13    2.79
   4   1  -8   -2.46    2.07
   4  -1  -8   -4.42    3.13
   3  -1  -8  187.39    9.52
   3   1  -8  194.19   10.06
   3   1  -8  187.57   11.51
   3  -1  -8  204.28   11.81
  -3  -1   8  209.02   12.18
  -2   1   8  204.14   12.05
   2  -1  -8  195.79   10.28
  -2  -1   8  210.18   12.20
   2  -1  -8  199.93   11.70
   2  -1  -8  190.97   10.09
   2   1  -8  194.51   10.41
   1  -1  -8   33.68    4.36
   1  -1  -8   37.18    3.90
  -1   1   8   30.74    5.08
  -1  -1   8   25.89    4.93
   1   1  -8   33.55    4.48
   0  -1   8   39.89    5.83
   0   1   8   46.04    5.78
   0  -1  -8   49.54    5.52
   0   1  -8   50.22    5.55
   0  -1  -8   41.94    4.30
  -1  -1  -8   53.77    6.19
  -1  -1  -8   67.00    5.67
   1  -1   8   52.63    6.24
  -1   1  -8   68.22    6.42
   1   1   8   55.98    6.36
   2   1   8    1.32    2.97
  -2  -1  -8   -1.23    3.06
   2  -1   8    2.48    3.27
  -2  -1  -8    2.58    3.55
  -2   1  -8    5.96    4.31
   3  -1   8    1.55    3.52
  -3  -1  -8   11.16    4.55
  -3   1  -8    5.14    4.35
   3   1   8    4.36    3.20
  -4   1  -8   15.58    5.36
  -4  -1  -8   23.64    5.65
   4  -1   8   24.47    4.87
   4   1   8   28.68    5.18
   8  -2  -8    0.11    3.40
   8   2  -8    2.71    3.24
   7   2  -8   10.86    3.81
   7  -2  -8    0.09    3.22
   6  -2  -8    1.47    3.21
   6   2  -8    2.87    3.25
   5   2  -8    7.52    3.75
   5  -2  -8    2.15    3.39
   4  -2  -8  215.38   12.48
   4   2  -8  211.89   12.54
   4   2  -8  225.71   11.06
   3  -2  -8    2.70    3.58
   3  -2  -8   -2.16    2.05
  -3  -2   8   -1.23    3.08
   3   2  -8   -0.92    2.60
   2   2  -8   -1.03    2.63
   2  -2  -8    2.16    2.56
   2  -2  -8   -2.77    3.27
  -2  -2   8    0.04    3.19
   2  -2  -8   -2.30    2.33
   1   2  -8    0.99    2.89
  -1  -2   8    0.98    3.33
  -1   2   8    1.11    2.98
   1  -2  -8    1.13    2.41
   1  -2  -8    0.24    2.74
   0  -2  -8   40.86    4.72
   0   2  -8   42.39    5.31
   0   2   8   47.16    5.74
   0  -2   8   27.83    5.06
   0  -2  -8   40.06    4.86
  -1  -2  -8    0.03    2.95
  -1  -2  -8   -0.76    3.34
  -1   2  -8   -0.94    3.38
   1   2   8   -0.55    3.04
   1  -2   8   -3.67    3.30
  -2   2  -8    4.13    3.95
   2  -2   8    0.77    3.05
   2   2   8    3.25    3.22
  -2  -2  -8   -0.03    3.38
  -2  -2  -8    2.24    3.74
  -3  -2  -8   -1.39    4.04
   3   2   8    0.34    2.84
   3  -2   8   -0.36    2.92
  -3   2  -8    1.59    4.07
   4   2   8    4.95    3.64
  -4  -2  -8    1.71    4.33
  -4   2  -8    5.66    4.54
   4  -2   8    1.59    3.52
   8   3  -8    3.67    3.35
   8  -3  -8    3.90    3.55
   7  -3  -8   14.62    4.33
   7   3  -8   22.26    4.38
   6  -3  -8    2.04    3.56
   6   3  -8    3.01    3.19
   5   3  -8  168.68   10.55
   5  -3  -8  163.57   10.41
   5   3  -8  174.01    9.22
   4   3  -8   -1.54    3.35
   4  -3  -8    0.17    3.28
  -4  -3   8    4.51    3.74
   4   3  -8    0.33    2.60
  -3  -3   8  434.17   21.95
   3   3  -8  444.85   20.48
   3  -3  -8  451.16   21.51
  -2  -3   8   14.34    4.54
   2  -3  -8   14.74    3.19
   2  -3  -8   21.87    4.60
   2   3  -8   18.76    3.79
   1  -3  -8   55.81    5.86
   1  -3  -8   44.74    4.63
   1  -3  -8   40.01    4.61
  -1  -3   8   39.51    5.72
   1   3  -8   39.66    5.17
   0  -3  -8    7.94    3.38
   0   3   8   13.05    3.94
   0  -3   8    9.99    3.93
   0   3  -8    7.57    3.98
   0  -3  -8    8.32    3.32
  -1  -3  -8   42.71    5.41
  -1   3  -8   34.87    5.67
   1  -3   8   31.64    5.39
  -1  -3  -8   39.69    5.23
   1   3   8   38.61    5.30
  -2   3  -8   -3.43    3.25
   2  -3   8   -2.19    3.03
   2   3   8   -0.48    2.82
   3  -3   8   31.38    5.31
  -3   3  -8   27.48    6.03
   3   3   8   49.86    5.73
  -4   3  -8   49.34    7.52
   4  -3   8   29.26    5.56
  -4  -3  -8   30.84    5.94
   4   3   8   31.86    4.95
   7   4  -8    2.09    3.29
   7  -4  -8   -0.06    3.57
   6   4  -8   12.05    3.67
   6  -4  -8    5.94    3.63
   5   4  -8   -1.88    3.03
   5  -4  -8    0.13    3.02
   5   4  -8    2.77    2.84
   4  -4  -8    5.93    3.83
  -4  -4   8    3.54    3.99
   4   4  -8    3.72    3.16
   3  -4  -8   13.40    4.07
   3   4  -8   12.30    3.67
  -3  -4   8   12.45    4.27
   2   4  -8   52.82    5.59
   2  -4  -8   46.55    4.25
  -2  -4   8   40.29    6.06
   2  -4  -8   52.06    5.78
   1   4  -8  117.68    8.24
   1  -4  -8  112.24    7.24
   1  -4  -8  124.60    8.45
   1  -4  -8  118.84    8.31
  -1  -4   8  125.75    8.99
   0  -4  -8   32.94    4.83
   0  -4   8   33.35    5.30
   0   4  -8   38.78    5.45
   0  -4  -8   36.50    5.28
  -1   4  -8   40.82    6.05
   1   4   8   40.02    5.36
   1  -4   8   41.13    5.73
   2   4   8    3.08    3.13
   2  -4   8    9.41    3.86
  -2   4  -8    1.97    4.09
   3  -4   8    5.60    3.81
   3   4   8    6.51    3.21
  -3   4  -8   -4.24    3.62
   4  -4   8    4.80    3.98
  -4   4  -8    6.54    4.63
   7  -5  -8   -2.06    3.06
   7   5  -8   -3.51    2.91
   6  -5  -8    0.72    3.18
   6   5  -8   10.93    3.59
   5   5  -8   44.66    5.05
   5   5  -8   52.03    6.08
   5  -5  -8   43.62    5.60
  -4  -5   8    9.35    4.17
   4  -5  -8   17.76    4.27
   4   5  -8   11.01    3.52
   3   5  -8   78.75    6.54
   3  -5  -8   73.88    6.45
  -3  -5   8   82.65    7.33
   2   5  -8   41.66    5.60
   2  -5  -8   46.62    5.36
  -2  -5   8   28.39    5.43
   1  -5  -8  145.51    9.21
   1  -5  -8  142.72    9.73
  -1  -5   8  141.68    9.93
   1   5  -8  140.16    9.48
   0   5  -8   -0.48    3.40
   0  -5   8   -2.32    2.94
   0  -5  -8    0.55    3.06
   1  -5   8    2.63    3.28
  -1  -5  -8    0.56    3.19
  -1   5  -8    1.05    3.63
   2   5   8    0.73    2.97
  -2   5  -8    0.08    4.00
   2  -5   8    3.46    3.47
  -3   5  -8    3.32    4.56
   3  -5   8    1.80    3.39
   7  -6  -8    4.02    3.91
   6   6  -8   27.14    4.29
   6  -6  -8   23.05    4.91
   6   6  -8   18.93    4.22
   5  -6  -8   43.28    5.78
   5   6  -8   56.25    6.04
   5   6  -8   56.12    6.25
  -4  -6   8    7.36    4.04
   4   6  -8   14.90    4.16
   4  -6  -8   10.73    3.86
   3  -6  -8    3.86    3.59
  -3  -6   8   -0.78    3.27
   3   6  -8    1.00    3.39
   2   6  -8    8.31    3.61
  -2  -6   8   13.04    4.72
   2  -6  -8   19.56    4.34
   1   6  -8   14.96    4.59
  -1  -6   8   14.73    4.42
   1  -6  -8   12.97    3.89
   0  -6   8    6.20    3.98
   0   6  -8    5.37    4.18
   0  -6  -8   11.16    3.68
  -1   6  -8   15.26    4.81
   1  -6   8   23.13    5.01
  -1  -6  -8   20.96    4.10
  -2   6  -8   17.80    5.28
   2  -6   8   25.27    5.30
   3  -6   8   16.86    4.43
  -3   6  -8   19.45    5.85
   6  -7  -8   14.79    4.64
   6   7  -8   12.25    4.22
   5  -7  -8    4.11    3.86
   5   7  -8    3.15    3.59
   5   7  -8    5.11    3.34
  -4  -7   8   44.93    6.10
   4   7  -8   46.32    6.10
   4  -7  -8   39.55    5.35
  -3  -7   8   24.23    5.14
   3   7  -8   22.12    4.83
   3  -7  -8   17.62    4.21
   2  -7  -8    1.17    3.30
  -2  -7   8   -1.07    3.67
   2   7  -8   -1.50    3.61
  -1  -7   8    8.20    4.33
   1  -7  -8    8.53    3.62
   1   7  -8    4.22    4.06
   0  -7  -8    7.09    3.61
   0  -7   8    8.01    4.25
   0   7  -8    6.81    4.23
  -1   7  -8   29.71    6.15
   1  -7   8   42.62    6.21
  -2   7  -8   -0.69    3.75
   2  -7   8    1.43    3.46
   5  -8  -8   14.78    4.65
   5   8  -8    8.66    4.29
  -4  -8   8   17.73    4.85
   4  -8  -8   10.99    4.09
   4   8  -8    8.31    4.39
   3   8  -8   -0.31    3.62
   3  -8  -8    1.45    3.41
  -3  -8   8    1.97    3.88
  -2  -8   8    3.64    3.70
   2   8  -8   -2.81    3.66
   2  -8  -8   -5.32    3.00
  -1  -8   8    0.93    3.51
   1   8  -8   -4.56    3.67
   1  -8  -8   -3.17    3.22
   0   8   8   -0.32    3.40
   0  -8   8    5.26    4.00
   0   8  -8   -3.54    3.72
   1  -8   8    0.31    3.50
   1   8   8   -1.79    3.84
  -1   8  -8    2.63    3.95
   3   9  -8   25.96    5.61
  -3  -9   8   25.45    5.32
   3  -9  -8   15.08    4.27
  -2  -9   8   -0.13    3.93
   2   9  -8   -2.23    3.85
   2  -9  -8   -0.97    3.49
  -1  -9   8    3.94    3.76
   7   0  -9    4.20    3.89
   6   0  -9   -1.72    3.33
   5   0  -9    4.85    3.76
   4   0  -9   -1.94    3.10
   3   0  -9    1.40    3.64
   3   0  -9    0.11    2.63
  -2   0   9   -0.33    3.50
   2   0  -9   -1.58    2.95
   1   0  -9    1.97    3.19
  -1   0   9    4.65    3.82
   0   0  -9   -2.10    3.16
   0   0   9    1.56    3.46
  -1   0  -9   -3.06    3.32
   1   0   9   -1.81    3.10
   2   0   9   -0.47    3.38
  -2   0  -9   -3.64    3.91
   3   0   9   -1.69    3.23
  -3   0  -9   -2.23    4.12
   7   1  -9   48.02    6.12
   7  -1  -9   49.12    6.37
   6  -1  -9   62.66    7.07
   6   1  -9   64.25    7.12
   5   1  -9    4.24    3.81
   5  -1  -9   10.02    4.36
   4  -1  -9   83.05    7.69
   4   1  -9  100.12    8.18
   3   1  -9    4.42    3.00
   3   1  -9   10.07    4.31
  -3  -1   9   13.20    4.64
   3  -1  -9    8.25    4.58
   2   1  -9  351.00   17.26
   2  -1  -9  366.65   16.99
  -2  -1   9  356.85   19.04
   2  -1  -9  353.71   18.38
  -2   1   9  357.30   19.01
   1   1  -9   59.62    5.75
   1  -1  -9   50.50    5.60
  -1  -1   9   51.38    6.74
  -1   1   9   59.12    6.88
   0   1   9   70.13    7.24
   0  -1   9   48.61    6.65
   0  -1  -9   62.90    6.03
   0   1  -9   61.48    6.02
  -1   1  -9   23.21    5.20
   1  -1   9   21.58    4.85
   1   1   9   27.26    5.19
  -1  -1  -9   28.41    5.12
   2  -1   9    1.03    3.18
  -2  -1  -9    2.05    4.20
  -2   1  -9   -6.48    3.51
   2   1   9    1.13    3.20
  -3  -1  -9   10.77    5.01
   3   1   9   17.16    4.83
  -3   1  -9   20.81    5.93
   3  -1   9   13.59    4.76
   7   2  -9    0.47    3.24
   7  -2  -9   -2.84    3.53
   6   2  -9   12.33    4.45
   6  -2  -9    3.98    3.82
   5  -2  -9   67.25    7.17
   5   2  -9   64.26    7.14
   4  -2  -9    0.20    3.73
   4   2  -9    2.88    4.24
   3   2  -9    0.58    2.94
  -3  -2   9    6.06    4.03
   3  -2  -9   -2.64    3.49
   2  -2  -9   11.79    3.25
  -2  -2   9    9.50    4.28
   2  -2  -9    9.24    4.12
   2   2  -9   11.21    3.86
  -1   2   9   40.53    5.83
   1  -2  -9   45.25    5.20
   1   2  -9   33.78    5.09
  -1  -2   9   42.63    6.43
   0  -2   9   54.77    6.80
   0   2   9   68.98    7.18
   0  -2  -9   55.06    6.01
   0   2  -9   50.11    6.33
  -1   2  -9   11.25    4.57
   1   2   9   13.17    4.34
  -1  -2  -9    8.47    4.01
   1  -2   9   13.25    4.48
   2  -2   9   25.61    5.60
  -2  -2  -9   27.26    5.48
  -2   2  -9   24.47    5.89
   2   2   9   26.56    5.33
  -3  -2  -9    1.39    4.34
   3   2   9    1.76    4.11
  -3   2  -9   -2.92    4.63
   3  -2   9    1.43    4.26
   7   3  -9    1.50    3.52
   7  -3  -9   -4.72    2.96
   6  -3  -9   12.04    4.31
   6   3  -9    8.36    4.06
   5  -3  -9  116.66    8.73
   5   3  -9  103.49    8.50
   4   3  -9    7.28    4.22
   4  -3  -9   -2.25    3.11
  -4  -3   9   -2.15    3.35
   4   3  -9    1.32    3.04
   3   3  -9    5.60    3.55
   3  -3  -9    8.50    3.92
  -3  -3   9    4.55    4.05
  -2  -3   9   13.74    4.63
   2   3  -9    8.18    3.65
   2  -3  -9    7.06    3.99
  -1  -3   9   -0.10    3.12
   1  -3  -9   -3.58    2.62
   1   3  -9   -0.86    3.02
   1  -3  -9   -0.22    3.15
   0  -3   9    5.22    3.92
   0   3   9    2.99    3.50
   0   3  -9    1.47    3.57
   0  -3  -9   -2.09    3.05
   1   3   9    5.59    3.70
  -1   3  -9    9.43    4.61
   1  -3   9   11.51    4.19
  -1  -3  -9    2.16    3.66
   2  -3   9   -1.61    3.52
   2   3   9   -1.96    3.79
  -2  -3  -9   -1.54    3.53
  -2   3  -9    0.27    4.74
  -3  -3  -9   -2.01    3.47
   3   3   9    1.84    3.62
  -3   3  -9   -2.64    4.38
   3  -3   9   -2.40    3.30
   7   4  -9    6.94    3.82
   7  -4  -9    6.63    4.07
   6  -4  -9    0.45    3.41
   6   4  -9    3.04    3.84
   5  -4  -9    0.09    3.55
   5   4  -9   -6.20    3.45
   4   4  -9   64.03    5.81
   4  -4  -9   69.33    6.61
  -4  -4   9   76.60    7.35
   4   4  -9   53.50    7.07
   3   4  -9   51.80    5.88
  -3  -4   9   39.77    6.35
   3  -4  -9   45.78    6.14
   2  -4  -9   28.34    5.11
  -2  -4   9   28.80    5.70
   2   4  -9   30.04    5.05
   1  -4  -9    2.62    3.70
  -1  -4   9    1.17    3.46
   1  -4  -9    7.26    3.13
   1   4  -9    4.77    3.60
   0  -4   9    0.53    3.34
   0   4  -9   10.37    4.34
   0  -4  -9    3.39    3.35
   0  -4  -9    4.00    3.41
  -1   4  -9   28.37    5.69
  -1  -4  -9   18.77    4.42
   1  -4   9   23.52    5.48
   1   4   9   15.88    4.45
  -2   4  -9   -1.99    4.28
   2  -4   9    3.41    3.53
   2   4   9    4.65    3.86
  -2  -4  -9   -3.81    3.29
   6   5  -9   -0.25    3.17
   6  -5  -9    2.20    3.78
   5   5  -9    0.38    4.00
   5  -5  -9   -7.48    2.95
   4   5  -9   11.67    4.11
   4  -5  -9    5.82    4.25
  -4  -5   9    9.68    4.40
  -3  -5   9   15.45    4.82
   3  -5  -9   22.56    4.93
   3   5  -9   20.67    4.68
  -2  -5   9    1.43    3.73
   2   5  -9    0.03    3.09
   2  -5  -9    1.24    3.34
  -1  -5   9    1.21    3.58
   1   5  -9    2.90    3.65
   1  -5  -9    3.66    3.39
   0   5  -9    8.13    4.82
   0  -5  -9   17.58    4.16
   0  -5   9   10.76    4.37
  -1   5  -9   10.34    5.03
  -1  -5  -9   20.87    4.43
   1  -5   9   20.14    5.03
   2  -5   9   14.05    4.83
  -2   5  -9   11.60    5.44
  -2  -5  -9   19.75    4.26
   5   6  -9    5.40    3.93
   5   6  -9    2.83    3.58
   5  -6  -9    3.58    3.87
   4  -6  -9   10.52    4.35
   4   6  -9    9.56    4.20
  -4  -6   9   13.99    4.57
   3   6  -9    1.30    3.76
   3  -6  -9    5.68    3.97
  -3  -6   9   11.12    4.56
   2  -6  -9   55.60    6.26
  -2  -6   9   49.57    6.94
   2   6  -9   47.04    6.56
   1   6  -9   46.76    6.61
  -1  -6   9   47.89    6.77
   1  -6  -9   50.77    5.90
   0  -6  -9   95.86    7.55
   0   6  -9   95.53    8.49
   0  -6   9   84.01    8.06
  -1   6  -9   16.53    5.70
   1  -6   9   17.78    4.82
  -1  -6  -9   18.52    4.28
   4   7  -9   17.10    4.87
   4  -7  -9   18.16    4.73
  -4  -7   9   22.27    5.52
   3  -7  -9   -0.44    3.76
   3   7  -9   -1.59    3.73
  -3  -7   9    5.07    4.27
   2   7  -9    0.41    3.92
   2  -7  -9    5.50    3.54
  -2  -7   9    1.81    3.95
  -1  -7   9    3.54    4.10
   1   7  -9   -2.00    3.72
   1  -7  -9   -1.42    3.44
   0  -7   9    3.38    4.23
   0  -7  -9    5.29    3.67
   0   7  -9    3.81    4.30
   2  -8  -9   16.06    4.32
   6   0 -10   31.20    5.84
   5   0 -10  198.69   12.89
   4   0 -10  310.98   17.40
   3   0 -10   -3.93    3.39
   2   0 -10   46.02    5.42
  -2   0  10   30.26    6.00
  -1   0  10    1.85    3.94
   1   0 -10    5.36    3.87
   0   0 -10  174.73   11.20
   0   0  10  173.54   11.98
   1   0  10    6.37    4.34
  -1   0 -10   -4.82    3.45
   2   0  10   24.79    5.75
   6   1 -10    2.42    3.58
   6  -1 -10   -1.00    3.98
   5  -1 -10    4.27    4.47
   5   1 -10    8.87    4.50
   4  -1 -10    0.71    3.60
   4   1 -10    5.51    4.30
   3  -1 -10    8.47    4.21
   3   1 -10    1.99    3.85
  -3  -1  10    7.90    4.35
  -2   1  10    3.09    4.09
   2   1 -10   -0.13    3.22
  -2  -1  10    0.99    3.79
   2  -1 -10    2.02    3.74
   1  -1 -10   15.08    4.17
  -1   1  10   16.83    5.13
   1   1 -10   11.02    4.33
  -1  -1  10   10.34    4.65
   0   1  10    0.86    3.60
   0  -1 -10    1.80    3.80
   0  -1  10    5.41    4.15
   0   1 -10    0.87    4.13
   1   1  10    2.06    3.85
  -1   1 -10    2.95    4.36
  -1  -1 -10   -0.10    4.00
   1  -1  10    4.26    4.23
   2  -1  10   11.56    4.61
   2   1  10   13.81    4.94
   6   2 -10   17.48    5.21
   6  -2 -10   11.44    4.56
   5   2 -10   17.80    5.03
   5  -2 -10   19.35    5.15
   4  -2 -10   -1.24    3.52
   4   2 -10    5.05    3.89
   3   2 -10    0.45    3.23
  -3  -2  10    3.87    3.96
   3  -2 -10    3.74    3.89
   2   2 -10    5.61    3.50
   2  -2 -10    0.26    3.28
  -2  -2  10    2.60    3.77
   1  -2 -10    3.87    3.62
  -1  -2  10    5.01    4.47
   1   2 -10    5.18    4.01
   1  -2 -10    4.20    3.53
  -1   2  10    9.70    4.63
   0  -2  10   61.98    7.66
   0  -2 -10   64.46    6.83
   0   2 -10   53.81    7.05
   0   2  10   75.42    7.81
   1   2  10    4.83    4.23
  -1   2 -10    2.36    4.35
   1  -2  10    3.61    3.64
  -1  -2 -10    4.00    4.06
   6   3 -10   15.36    5.11
   6  -3 -10   12.41    4.79
   5  -3 -10    2.56    4.06
   5   3 -10    4.51    4.31
   4  -3 -10    6.23    4.58
   4   3 -10   -0.02    3.57
  -3  -3  10   -0.63    3.81
   3   3 -10   -0.73    3.13
   3  -3 -10    6.30    4.06
   2   3 -10   24.42    4.91
   2  -3 -10   27.70    5.43
  -2  -3  10   28.53    5.83
   1   3 -10   -1.87    3.66
  -1  -3  10    2.44    3.64
   1  -3 -10   -1.83    3.29
   0  -3 -10    2.55    3.45
   0  -3  10    0.43    3.72
   0   3  10    5.33    3.89
   0  -3 -10    0.96    3.50
   0   3 -10   -4.22    3.65
  -1  -3 -10    5.47    4.16
   1   3  10    1.41    3.87
  -1   3 -10    3.08    4.32
   1  -3  10    6.37    4.22
   5   4 -10    6.88    4.27
   5  -4 -10    1.86    4.32
   4  -4 -10   63.33    7.32
   4   4 -10   54.68    7.35
  -4  -4  10   52.30    7.44
  -3  -4  10   17.71    5.37
   3   4 -10   20.20    4.73
   3  -4 -10   14.82    4.59
   2  -4 -10    3.70    4.28
  -2  -4  10    9.50    4.68
   2   4 -10    7.26    4.29
  -1  -4  10   23.72    5.52
   1  -4 -10   19.45    5.12
   1   4 -10   25.90    5.54
   0  -4 -10    9.47    3.97
   0  -4  10   13.67    4.74
   0  -4 -10    7.67    3.94
   0   4 -10    6.24    4.71
   1  -4  10    8.80    4.45
  -1  -4 -10   14.61    4.04
   1   4  10   16.78    4.98
   4  -5 -10   11.39    4.66
  -4  -5  10   19.15    5.64
   3   5 -10   44.35    6.23
   3  -5 -10   38.00    6.35
  -3  -5  10   40.94    6.90
  -2  -5  10   24.66    5.68
   2  -5 -10   22.56    5.35
   2   5 -10   24.83    5.42
   1  -5 -10   11.49    4.43
   1   5 -10    6.21    4.19
  -1  -5  10   10.61    5.01
   0   5 -10   15.85    5.37
   0  -5  10   13.46    4.69
   0  -5 -10   13.68    4.29
  -3  -6  10    2.18    4.36
   3  -6 -10   -0.60    4.25
  -2  -6  10   -1.09    4.10
   2  -6 -10    0.04    3.47
   4   0 -11    4.10    4.28
   3   0 -11    3.15    3.52
   2   0 -11   -1.69    2.99
  -2   0  11   -0.26    4.26
  -1   0  11   -1.66    3.72
   4   1 -11    2.84    4.15
   4  -1 -11   -0.65    3.47
   3   1 -11   49.60    6.75
   3  -1 -11   40.60    6.43
  -3  -1  11   29.74    6.36
  -2  -1  11    6.53    4.38
   2  -1 -11   20.36    5.05
  -1  -1  11   -1.96    4.24
  -1   1  11    2.00    4.40
   1   1 -11    4.31    4.19
   4   2 -11   25.33    5.82
   4  -2 -11   23.42    5.63
   3  -2 -11   90.50    8.10
  -3  -2  11   74.53    8.89
   3   2 -11   77.03    8.25
   2  -2 -11    5.88    3.96
  -2  -2  11    2.82    3.73
   1  -2 -11    4.03    3.63
  -1  -2  11   -1.67    3.73
  -1   2  11   -0.51    4.19
  -3  -3  11   -1.57    3.77
   3  -3 -11    2.48    3.96
   2  -3 -11    2.94    3.81
  -2  -3  11    5.25    4.47
   0   0   0    0.00    0.00
;
_shelx_hkl_checksum              92501
loop_
_space_group_symop_operation_xyz
'x, y, z'
'-x, y+1/2, -z+1/2'
'-x, -y, -z'
'x, -y-1/2, z-1/2'
loop_
_atom_site_label
_atom_site_type_symbol
_atom_site_fract_x
_atom_site_fract_y
_atom_site_fract_z
_atom_site_U_iso_or_equiv
_atom_site_adp_type
_atom_site_occupancy
_atom_site_site_symmetry_order
_atom_site_calc_flag
_atom_site_refinement_flags_posn
_atom_site_refinement_flags_adp
F1 F 0.6194(3) 0.2998(2) 0.4906(2) 0.0860(7) Uani 1 1 d . .
F2 F 0.6946(3) 0.47847(19) 0.60293(19) 0.0790(6) Uani 1 1 d . .
O1 O 0.9516(3) 0.65933(18) 0.0262(2) 0.0498(5) Uani 1 1 d . .
N1 N 0.8918(3) 0.4426(2) 0.1950(2) 0.0430(5) Uani 1 1 d . .
N2 N 0.8870(3) 0.37176(18) 0.3175(2) 0.0422(5) Uani 1 1 d . .
C1 C 0.7871(3) 0.4373(2) 0.3851(2) 0.0392(6) Uani 1 1 d . .
C2 C 0.7297(3) 0.5505(2) 0.3076(3) 0.0416(6) Uani 1 1 d . .
H2 H 0.657006 0.613745 0.334206 0.050 Uiso 1 1 calc R U
C3 C 0.8001(3) 0.5509(2) 0.1857(3) 0.0390(6) Uani 1 1 d . .
C4 C 0.7509(4) 0.3850(3) 0.5259(3) 0.0512(7) Uani 1 1 d . .
H4 H 0.858841 0.344722 0.592451 0.061 Uiso 1 1 calc R U
C5 C 0.7851(3) 0.6424(2) 0.0556(3) 0.0449(6) Uani 1 1 d . .
H5 H 0.743160 0.726270 0.084273 0.054 Uiso 1 1 calc R U
C6 C 0.6601(4) 0.5959(3) -0.0876(3) 0.0584(8) Uani 1 1 d . .
H6A H 0.655499 0.656776 -0.170640 0.088 Uiso 1 1 calc R U
H6B H 0.543208 0.587285 -0.070778 0.088 Uiso 1 1 calc R U
H6C H 0.699171 0.512949 -0.115551 0.088 Uiso 1 1 calc R U
H1N H 0.956(3) 0.416(2) 0.136(3) 0.042(7) Uiso 1 1 d . .
H1O H 1.004(5) 0.713(4) 0.074(5) 0.104(16) Uiso 1 1 d . .
loop_
_atom_site_aniso_label
_atom_site_aniso_U_11
_atom_site_aniso_U_22
_atom_site_aniso_U_33
_atom_site_aniso_U_23
_atom_site_aniso_U_13
_atom_site_aniso_U_12
F1 0.1089(15) 0.0937(15) 0.0645(12) 0.0173(10) 0.0388(11) -0.0304(12)
F2 0.1130(15) 0.0902(14) 0.0487(10) 0.0055(9) 0.0475(10) 0.0295(11)
O1 0.0667(13) 0.0404(10) 0.0541(12) -0.0030(9) 0.0371(10) -0.0077(10)
N1 0.0556(13) 0.0443(12) 0.0366(11) -0.0022(9) 0.0255(10) -0.0055(10)
N2 0.0572(13) 0.0391(11) 0.0359(11) 0.0008(9) 0.0224(10) -0.0003(9)
C1 0.0477(14) 0.0439(14) 0.0269(11) -0.0028(10) 0.0115(10) -0.0027(11)
C2 0.0526(15) 0.0411(13) 0.0338(12) -0.0005(10) 0.0161(11) 0.0017(11)
C3 0.0449(13) 0.0373(13) 0.0355(12) -0.0029(10) 0.0118(10) -0.0041(11)
C4 0.0597(17) 0.0626(18) 0.0363(13) 0.0052(12) 0.0218(12) 0.0118(14)
C5 0.0603(16) 0.0405(14) 0.0399(13) 0.0004(11) 0.0236(12) -0.0039(12)
C6 0.085(2) 0.0508(16) 0.0404(14) 0.0057(13) 0.0183(14) -0.0093(15)
loop_
_atom_type_symbol
_atom_type_description
_atom_type_scat_dispersion_real
_atom_type_scat_dispersion_imag
_atom_type_scat_source
C C 0.0033 0.0016 'International Tables Vol C Tables 4.2.6.8 and 6.1.1.4'
H H 0.0000 0.0000 'International Tables Vol C Tables 4.2.6.8 and 6.1.1.4'
N N 0.0061 0.0033 'International Tables Vol C Tables 4.2.6.8 and 6.1.1.4'
O O 0.0106 0.0060 'International Tables Vol C Tables 4.2.6.8 and 6.1.1.4'
F F 0.0171 0.0103 'International Tables Vol C Tables 4.2.6.8 and 6.1.1.4'
loop_
_geom_angle_atom_site_label_1
_geom_angle_atom_site_label_2
_geom_angle_atom_site_label_3
_geom_angle
C3 N1 N2 112.9(2)
C1 N2 N1 104.1(2)
N2 C1 C2 111.7(2)
N2 C1 C4 118.7(2)
C2 C1 C4 129.5(2)
C3 C2 C1 105.1(2)
N1 C3 C2 106.1(2)
N1 C3 C5 121.5(2)
C2 C3 C5 132.3(2)
F2 C4 F1 105.5(2)
F2 C4 C1 109.8(2)
F1 C4 C1 110.8(2)
O1 C5 C6 108.4(2)
O1 C5 C3 109.9(2)
C6 C5 C3 111.6(2)
loop_
_geom_bond_atom_site_label_1
_geom_bond_atom_site_label_2
_geom_bond_distance
F1 C4 1.346(3)
F2 C4 1.346(3)
O1 C5 1.423(3)
N1 C3 1.341(3)
N1 N2 1.344(3)
N2 C1 1.314(3)
C1 C2 1.395(3)
C1 C4 1.483(3)
C2 C3 1.359(3)
C3 C5 1.499(3)
C5 C6 1.489(4)
loop_
_geom_torsion_atom_site_label_1
_geom_torsion_atom_site_label_2
_geom_torsion_atom_site_label_3
_geom_torsion_atom_site_label_4
_geom_torsion
C3 N1 N2 C1 0.9(3)
N1 N2 C1 C2 -0.8(3)
N1 N2 C1 C4 179.1(2)
N2 C1 C2 C3 0.3(3)
C4 C1 C2 C3 -179.5(3)
N2 N1 C3 C2 -0.8(3)
N2 N1 C3 C5 -178.6(2)
C1 C2 C3 N1 0.3(3)
C1 C2 C3 C5 177.8(3)
N2 C1 C4 F2 161.4(2)
C2 C1 C4 F2 -18.8(4)
N2 C1 C4 F1 -82.4(3)
C2 C1 C4 F1 97.4(3)
N1 C3 C5 O1 -44.4(3)
C2 C3 C5 O1 138.4(3)
N1 C3 C5 C6 75.9(3)
C2 C3 C5 C6 -101.3(3)
