#------------------------------------------------------------------------------
#$Date: 2019-11-11 14:58:45 +0200 (Mon, 11 Nov 2019) $
#$Revision: 226284 $
#$URL: file:///home/coder/svn-repositories/cod/cif/4/03/47/4034761.cif $
#------------------------------------------------------------------------------
#
# This file is available in the Crystallography Open Database (COD),
# http://www.crystallography.net/
#
# All data on this site have been placed in the public domain by the
# contributors.
#
data_4034761
loop_
_publ_author_name
'Bunda, Szilvia'
'Udvardy, Antal'
'Voronova, Krisztina'
'Jo\'o, Ferenc'
_publ_section_title
;
 Organic Solvent-Free, Pd(II)-Salan Complex-Catalyzed Synthesis of Biaryls
 via Suzuki-Miyaura Cross-Coupling in Water and Air.
;
_journal_issue                   24
_journal_name_full               'The Journal of organic chemistry'
_journal_page_first              15486
_journal_page_last               15492
_journal_paper_doi               10.1021/acs.joc.8b02340
_journal_volume                  83
_journal_year                    2018
_chemical_formula_moiety         'C13 H9 N O4, C3  H7  N  O'
_chemical_formula_sum            'C16 H16 N2 O5'
_chemical_formula_weight         316.31
_space_group_IT_number           2
_space_group_name_Hall           '-P 1'
_space_group_name_H-M_alt        'P -1'
_symmetry_cell_setting           triclinic
_symmetry_space_group_name_Hall  '-P 1'
_symmetry_space_group_name_H-M   'P -1'
_atom_sites_solution_hydrogens   geom
_atom_sites_solution_primary     direct
_atom_sites_solution_secondary   direct
_audit_creation_date             2018-08-18T00:14:27-00:00
_audit_creation_method           'WinGX routine CIF_UPDATE'
_cell_angle_alpha                87.994(3)
_cell_angle_beta                 71.069(3)
_cell_angle_gamma                79.461(3)
_cell_formula_units_Z            2
_cell_length_a                   7.9772(5)
_cell_length_b                   9.3301(5)
_cell_length_c                   11.0632(6)
_cell_measurement_reflns_used    379
_cell_measurement_temperature    299(2)
_cell_measurement_theta_max      79.92
_cell_measurement_theta_min      6.27
_cell_volume                     765.47(8)
_computing_cell_refinement       'Bruker SAINT'
_computing_data_collection       'Bruker APEX2'
_computing_data_reduction        'Bruker SAINT'
_computing_molecular_graphics    'MERCURY (Macrae et al., 2006)'
_computing_publication_material  'PublCIF (Westrip, 2010)'
_computing_structure_refinement  'SHELXL-2018/1 (Sheldrick, 2018)'
_computing_structure_solution    'SHELXT 2014/5 (Sheldrick, 2014)'
_diffrn_ambient_temperature      299(2)
_diffrn_measured_fraction_theta_full 0.946
_diffrn_measured_fraction_theta_max 0.94
_diffrn_measurement_device_type  'Bruker D8 Venture'
_diffrn_measurement_method       '\f and \w scans'
_diffrn_radiation_type           CuK\a
_diffrn_radiation_wavelength     1.54178
_diffrn_reflns_av_R_equivalents  0.0693
_diffrn_reflns_Laue_measured_fraction_full 0.946
_diffrn_reflns_Laue_measured_fraction_max 0.94
_diffrn_reflns_limit_h_max       9
_diffrn_reflns_limit_h_min       -9
_diffrn_reflns_limit_k_max       11
_diffrn_reflns_limit_k_min       -8
_diffrn_reflns_limit_l_max       12
_diffrn_reflns_limit_l_min       -13
_diffrn_reflns_number            5825
_diffrn_reflns_point_group_measured_fraction_full 0.946
_diffrn_reflns_point_group_measured_fraction_max 0.94
_diffrn_reflns_theta_full        67.679
_diffrn_reflns_theta_max         69.798
_diffrn_reflns_theta_min         4.823
_diffrn_source                   'INCOATEC I\mS 3.0,  microfocus sealed tube'
_diffrn_standards_number         0
_exptl_absorpt_coefficient_mu    0.866
_exptl_absorpt_correction_T_max  0.735
_exptl_absorpt_correction_T_min  0.408
_exptl_absorpt_correction_type   multi-scan
_exptl_absorpt_process_details
'SADABS 2016/2: Krause, L., Herbst-Irmer, R., Sheldrick G.M. & Stalke D.,J. Appl. Cryst. 48 (2015) 3-10'
_exptl_crystal_colour            colourless
_exptl_crystal_density_diffrn    1.372
_exptl_crystal_density_method    'not measured'
_exptl_crystal_description       rod
_exptl_crystal_F_000             332
_exptl_crystal_size_max          0.341
_exptl_crystal_size_mid          0.2
_exptl_crystal_size_min          0.06
_refine_diff_density_max         0.536
_refine_diff_density_min         -0.418
_refine_diff_density_rms         0.132
_refine_ls_extinction_method     none
_refine_ls_goodness_of_fit_ref   1.123
_refine_ls_hydrogen_treatment    constr
_refine_ls_matrix_type           full
_refine_ls_number_constraints    0
_refine_ls_number_parameters     211
_refine_ls_number_reflns         2720
_refine_ls_number_restraints     0
_refine_ls_restrained_S_all      1.123
_refine_ls_R_factor_all          0.1223
_refine_ls_R_factor_gt           0.1081
_refine_ls_shift/su_max          0
_refine_ls_shift/su_mean         0
_refine_ls_structure_factor_coef Fsqd
_refine_ls_weighting_details
'w=1/[\s^2^(Fo^2^)+(0.2000P)^2^] where P=(Fo^2^+2Fc^2^)/3'
_refine_ls_weighting_scheme      calc
_refine_ls_wR_factor_ref         0.288
_reflns_number_gt                2075
_reflns_number_total             2720
_reflns_threshold_expression     'I > 2\s(I)'
_iucr_refine_instructions_details
;
TITL cu_18084_2_0m_a.res in P-1
    shelx.res
    created by SHELXL-2018/1 at 00:13:50 on 18-Aug-2018
REM Old TITL cu_18084_2_0m_a.res in P-1
REM SHELXT solution in P-1
REM R1 0.250, Rweak 0.008, Alpha 0.077, Orientation as input
REM Formula found by SHELXT: C15 N5 O3
CELL 1.54178 7.9772 9.3301 11.0632 87.994 71.069 79.461
ZERR 2 0.0005 0.0005 0.0006 0.003 0.003 0.003
LATT 1
SFAC C H N O
UNIT 32 32 4 10
 
L.S. 14
PLAN  25
TEMP 26
BOND $H
list 4
fmap 2
acta
REM <olex2.extras>
REM <HklSrc "%.\\cu_18084_2_0m.hkl">
REM </olex2.extras>
 
WGHT    0.200000
FVAR       0.60433
N2    3   -0.076749    0.364546    0.914621    11.00000    0.06163    0.05593 =
         0.06165    0.01157   -0.02437   -0.01594
O1    4    0.475456    0.494942    0.716458    11.00000    0.06318    0.06297 =
         0.08706    0.03431   -0.02517   -0.01302
O2    4    0.292969    0.653276    0.640481    11.00000    0.05398    0.07099 =
         0.09779    0.03747   -0.02675   -0.01399
AFIX 147
H003  2    0.217738    0.606366    0.683157    11.00000   -1.50000
AFIX   0
C4    1    0.882662    0.809105    0.429223    11.00000    0.05273    0.04056 =
         0.05108    0.00553   -0.02315   -0.00449
N1    3    1.469615    1.081603    0.141236    11.00000    0.07372    0.06631 =
         0.07057    0.01578   -0.01909   -0.02488
C1    1    0.598272    0.674127    0.574317    11.00000    0.05457    0.04286 =
         0.05364    0.00739   -0.02194   -0.00768
C8    1    1.034187    0.880071    0.352099    11.00000    0.05495    0.04144 =
         0.05000    0.00755   -0.02523   -0.00655
C7    1    0.451582    0.597893    0.651512    11.00000    0.05421    0.04469 =
         0.05741    0.00839   -0.02061   -0.00699
 
O5    4    0.028237    0.541461    0.783638    11.00000    0.06168    0.07339 =
         0.08535    0.02524   -0.02424   -0.01596
C11   1    1.318793    1.011231    0.212123    11.00000    0.06328    0.05145 =
         0.05322    0.01012   -0.01940   -0.01670
C20   1    0.052347    0.423146    0.836014    11.00000    0.05370    0.05943 =
         0.06611    0.00774   -0.02409   -0.00880
AFIX  43
H00B  2    0.170017    0.372923    0.818127    11.00000   -1.20000
AFIX   0
 
C13   1    1.004498    1.022559    0.310254    11.00000    0.05701    0.04555 =
         0.05959    0.01307   -0.02103   -0.00537
AFIX  43
H00C  2    0.887132    1.074013    0.330041    11.00000   -1.20000
AFIX   0
C3    1    0.908323    0.700873    0.514706    11.00000    0.05281    0.04994 =
         0.06393    0.01412   -0.02996   -0.00824
AFIX  43
H00D  2    1.021788    0.672678    0.523347    11.00000   -1.20000
AFIX   0
O4    4    1.438588    1.196158    0.090887    11.00000    0.09581    0.08689 =
         0.13291    0.05612   -0.01768   -0.02983
C2    1    0.768128    0.634640    0.586912    11.00000    0.05916    0.04699 =
         0.06154    0.01743   -0.02902   -0.00769
AFIX  43
H00F  2    0.787632    0.563325    0.644178    11.00000   -1.20000
AFIX   0
C5    1    0.710950    0.848693    0.417969    11.00000    0.05770    0.05213 =
         0.06392    0.02291   -0.02747   -0.00921
AFIX  43
H00G  2    0.690387    0.920949    0.361731    11.00000   -1.20000
AFIX   0
C9    1    1.212493    0.805207    0.318993    11.00000    0.05658    0.04688 =
         0.06844    0.01331   -0.02475   -0.00704
AFIX  43
H00H  2    1.235322    0.709497    0.344276    11.00000   -1.20000
AFIX   0
C6    1    0.571598    0.781642    0.489467    11.00000    0.04954    0.06215 =
         0.06740    0.01860   -0.02817   -0.00714
AFIX  43
H00I  2    0.458174    0.808992    0.480587    11.00000   -1.20000
AFIX   0
O3    4    1.621406    1.023226    0.134163    11.00000    0.06407    0.11107 =
         0.15740    0.05103   -0.02652   -0.02957
C12   1    1.145424    1.088355    0.240331    11.00000    0.06900    0.04521 =
         0.06250    0.01490   -0.02554   -0.01055
AFIX  43
H00K  2    1.124057    1.183138    0.212616    11.00000   -1.20000
AFIX   0
C10   1    1.354574    0.870084    0.249927    11.00000    0.05193    0.05725 =
         0.07228    0.01312   -0.02142   -0.00554
AFIX  43
H00L  2    1.472472    0.819540    0.229200    11.00000   -1.20000
AFIX   0
 
C22   1   -0.265078    0.438896    0.948525    11.00000    0.05976    0.08632 =
         0.07858    0.01203   -0.01684   -0.01771
AFIX 137
H00A  2   -0.270157    0.533937    0.912239    11.00000   -1.50000
H00E  2   -0.317055    0.448405    1.039851    11.00000   -1.50000
H00J  2   -0.331316    0.383020    0.915682    11.00000   -1.50000
AFIX   0
C21   1   -0.041835    0.225760    0.971381    11.00000    0.10173    0.06269 =
         0.08314    0.02510   -0.03376   -0.01567
AFIX 137
H00M  2    0.085690    0.189894    0.944815    11.00000   -1.50000
H00N  2   -0.100208    0.157675    0.944355    11.00000   -1.50000
H00O  2   -0.087708    0.237178    1.062815    11.00000   -1.50000
AFIX   0
HKLF 4
 
 
 
 
REM  cu_18084_2_0m_a.res in P-1
REM R1 =  0.1081 for    2075 Fo > 4sig(Fo)  and  0.1223 for all    2720 data
REM    211 parameters refined using      0 restraints
 
END
 
WGHT      0.2000      0.0000
 
REM Highest difference peak  0.536,  deepest hole -0.418,  1-sigma level  0.132
Q1    1   0.0000  0.5000  1.0000  10.50000  0.05    0.54
Q2    1  -0.0429  0.5578  0.9468  11.00000  0.05    0.46
Q3    1   1.1194  0.8433  0.2883  11.00000  0.05    0.42
Q4    1   1.0250  0.8978  0.3264  11.00000  0.05    0.42
Q5    1   1.1328  0.8526  0.2549  11.00000  0.05    0.41
Q6    1   0.6059  0.7103  0.5552  11.00000  0.05    0.40
Q7    1  -0.1290  0.3681  0.9180  11.00000  0.05    0.37
Q8    1   0.4933  0.7516  0.6360  11.00000  0.05    0.35
Q9    1   0.8192  0.8354  0.4044  11.00000  0.05    0.34
Q10   1   1.5503  1.2975  0.0945  11.00000  0.05    0.34
Q11   1   1.5000  1.0000  0.0000  10.50000  0.05    0.33
Q12   1   1.2432  0.8859  0.1978  11.00000  0.05    0.31
Q13   1  -0.0570  0.2951  0.9513  11.00000  0.05    0.31
Q14   1   1.6269  1.1787  0.1169  11.00000  0.05    0.31
Q15   1  -0.1239  0.4597  0.8382  11.00000  0.05    0.30
Q16   1   1.0149  0.9040  0.4918  11.00000  0.05    0.30
Q17   1   1.5019  1.0831  0.1566  11.00000  0.05    0.29
Q18   1   1.4691  0.9131  0.0782  11.00000  0.05    0.28
Q19   1   0.5236  0.6984  0.7115  11.00000  0.05    0.28
Q20   1   0.5492  0.6148  0.6795  11.00000  0.05    0.27
Q21   1   1.5570  1.0273  0.0706  11.00000  0.05    0.27
Q22   1   1.4437  0.9825  0.1783  11.00000  0.05    0.26
Q23   1   0.5000  0.5000  0.5000  10.50000  0.05    0.26
Q24   1   0.3878  0.5487  0.7793  11.00000  0.05    0.25
Q25   1   1.4987  0.9982  0.2243  11.00000  0.05    0.25
;
_cod_data_source_file            jo8b02340_si_004.cif
_cod_data_source_block           15
_cod_database_code               4034761
_publcif_datablock.id            {b948f9c6-1972-436a-b5be-7d7105834ad6}
_iucr_refine_reflections_details
;
  -1   0   0    0.00    0.10
   1   0   0    0.00    0.10
  -2   0   0 1411.76  163.58
   2   0   0 1208.18  158.68
  -3   0   0   96.69   10.00
   3   0   0   96.49   10.00
  -4   0   0   54.69    5.70
  -5   0   0    4.20    0.90
  -5   0   0    6.30    0.70
  -5   0   0    5.80    0.70
  -6   0   0    5.10    1.00
  -6   0   0    6.30    0.80
   6   0   0    6.40    0.80
   6   0   0    5.90    0.70
  -8   0   0    0.20    0.20
   8   0   0    0.10    0.20
  -9   0   0    0.20    0.20
   8  -1   0    1.70    0.30
  -8   1   0    2.10    0.40
   7  -1   0    2.60    0.40
   6  -1   0    0.00    0.20
  -6   1   0    0.20    0.20
  -6   1   0   -0.10    0.60
   5  -1   0    6.40    0.80
  -5   1   0    7.60    0.80
  -5   1   0    5.30    1.10
  -5   1   0    7.50    0.90
   3  -1   0  196.18   20.30
   2  -1   0   11.20    1.20
  -2   1   0   12.20    1.30
   1  -1   0    8.90    0.90
  -1   1   0    8.50    0.90
   0   1   0    0.50    0.10
   0   1   0    0.60    0.40
  -1  -1   0  237.68   31.60
   1   1   0  217.68   31.60
  -2  -1   0    0.00    0.10
   2   1   0    0.00    0.10
   2   1   0    0.00    0.10
  -3  -1   0   30.80    3.10
   3   1   0   24.80    3.10
   3   1   0   33.70    3.20
  -4  -1   0    1.80    0.30
  -5  -1   0   16.40    1.80
  -5  -1   0   17.80    1.80
   5   1   0   15.70    1.80
  -6  -1   0   69.99    8.40
  -6  -1   0   86.39    8.30
   6   1   0   79.59    8.20
  -7  -1   0   17.40    2.00
   7   1   0   18.30    1.90
  -8  -1   0    1.30    0.30
   8   1   0    1.70    0.20
  -9  -1   0    3.70    0.50
   8  -2   0    5.00    0.60
  -8   2   0    6.20    0.70
   7  -2   0    0.90    0.20
  -7   2   0    0.80    0.30
   6  -2   0   12.60    1.50
  -6   2   0   13.20    1.90
  -6   2   0   16.10    1.60
   5  -2   0    7.40    0.90
  -5   2   0    7.70    0.90
  -5   2   0    6.40    1.20
  -5   2   0    9.50    0.90
   4  -2   0   60.99    5.80
  -4   2   0   48.40    5.80
  -4   2   0   56.89    5.80
  -3   2   0   54.59    5.00
  -3   2   0   41.20    5.10
   2  -2   0   18.40    1.80
  -2   2   0   16.80    1.80
   1  -2   0   18.70    1.70
  -1   2   0   16.10    2.80
  -1   2   0   13.50    1.80
   0   2   0   28.80    3.00
  -2  -2   0   90.49    9.40
   2   2   0   90.39    9.40
  -3  -2   0   60.69    6.20
   3   2   0   58.39    6.20
   4   2   0   67.49    7.10
   4   2   0   69.69    7.50
  -5  -2   0   11.30    1.20
  -5  -2   0   10.20    1.30
   5   2   0   11.80    1.40
   5   2   0   11.30    1.20
  -6  -2   0  272.37   31.90
  -6  -2   0  319.47   31.80
   6   2   0  328.17   31.70
  -7  -2   0    5.10    0.80
   7   2   0    6.10    0.80
  -8  -2   0    0.40    0.20
  -9  -2   0    0.00    0.20
   8  -3   0   -0.20    0.10
   7  -3   0    0.30    0.20
  -7   3   0    0.10    0.20
   6  -3   0    0.30    0.20
  -6   3   0    0.40    0.20
   5  -3   0    1.10    0.30
  -5   3   0    1.30    0.30
  -5   3   0    0.90    0.50
   4  -3   0   32.40    3.30
  -4   3   0   33.70    3.20
  -4   3   0   25.90    3.50
  -4   3   0   30.00    3.30
   3  -3   0    0.10    0.10
  -3   3   0   -0.10    0.30
  -2   3   0    1.10    0.40
  -1   3   0   -0.80    1.70
  -1   3   0    1.60    0.40
  -1  -3   0   64.19    6.90
   1   3   0   68.69    7.30
  -4  -3   0   16.30    1.90
   4   3   0   18.90    2.60
  -5  -3   0    5.50    0.70
  -5  -3   0    4.50    0.70
   5   3   0    6.40    1.60
   5   3   0    5.50    0.70
  -6  -3   0   10.80    1.40
   6   3   0   11.90    1.60
  -7  -3   0    4.60    0.70
   7   3   0    4.90    0.90
  -8  -3   0    0.20    0.20
   8   3   0    0.10    0.20
  -9  -3   0    0.10    0.10
   9   3   0    0.40    0.10
   7  -4   0   -0.10    0.20
   6  -4   0   10.20    1.20
   5  -4   0    7.60    0.90
  -5   4   0    7.70    1.30
  -5   4   0    6.50    0.80
   4  -4   0    3.80    0.50
  -4   4   0    3.40    0.90
  -4   4   0    4.10    0.50
   3  -4   0    1.90    0.30
  -3   4   0    1.00    0.40
  -3   4   0    1.40    0.20
   2  -4   0   98.29    9.80
  -2   4   0   90.29    9.90
   1  -4   0    1.20    0.10
  -1   4   0    0.80    0.40
   0   4   0   21.50    2.40
  -1  -4   0   45.20    4.70
  -2  -4   0   50.29    6.10
  -2  -4   0   67.49    6.10
  -3  -4   0   12.00    1.30
   3   4   0   12.90    2.20
  -4  -4   0   10.50    1.10
   4   4   0    8.50    1.20
   4   4   0    9.60    2.00
  -5  -4   0    3.50    0.60
   5   4   0    4.40    0.60
   5   4   0    5.30    1.10
   5   4   0    4.80    1.30
  -7  -4   0    0.00    0.20
   7   4   0    0.00    0.30
  -8  -4   0    3.10    0.50
   8   4   0    3.00    0.50
  -9  -4   0    0.00    0.10
   7  -5   0    4.10    0.50
   6  -5   0    3.40    0.50
   5  -5   0    1.40    0.40
  -5   5   0    1.80    0.70
   4  -5   0    5.40    0.80
  -4   5   0    6.70    1.30
  -4   5   0    6.40    0.70
   3  -5   0   14.20    1.50
  -3   5   0   14.00    1.40
  -3   5   0   11.90    1.70
  -2   5   0    2.00    0.20
  -2   5   0    1.30    0.50
  -1   5   0    0.20    0.30
   0  -5   0   60.59    7.10
   0  -5   0   72.09    7.10
   0   5   0   73.19    7.20
  -1  -5   0    0.90    0.10
   1   5   0   -0.30    1.10
  -2  -5   0   13.00    1.30
   2   5   0   10.50    2.30
  -3  -5   0    0.30    0.20
   3   5   0    0.10    0.20
   3   5   0   -0.60    0.80
   3   5   0    0.10    0.30
   3   5   0    0.10    0.20
   3   5   0    0.50    1.10
  -4  -5   0    9.40    1.10
   4   5   0    9.60    1.10
   4   5   0    9.70    1.70
   4   5   0   14.10    3.10
   4   5   0    7.90    1.20
   5   5   0   21.00    2.40
   5   5   0   21.30    2.90
   5   5   0   23.30    3.20
  -6  -5   0    0.40    0.20
   6   5   0    0.50    0.30
   6   5   0    1.60    1.00
  -7  -5   0    2.80    0.50
   7   5   0    2.80    0.50
  -8  -5   0   -0.10    0.20
   8   5   0    0.00    0.20
   8   5   0    0.00    0.10
   6  -6   0    0.70    0.20
   5  -6   0    0.40    0.20
   4  -6   0    0.00    0.20
  -4   6   0    0.40    0.20
  -4   6   0    0.40    0.50
   3  -6   0    8.10    0.90
  -3   6   0    8.20    0.90
  -3   6   0    6.20    1.70
  -2   6   0   21.70    2.30
  -2   6   0   21.00    2.60
  -1   6   0    6.40    0.80
  -1   6   0    6.00    1.00
  -1   6   0    8.40    0.80
   0   6   0   78.49    7.90
   0   6   0   74.79    8.00
   0   6   0   66.99    8.00
   0   6   0   81.79    8.60
   1   6   0   22.40    2.50
   1   6   0   23.60    3.00
   1   6   0   21.50    2.60
   1   6   0   24.50    2.50
  -2  -6   0    1.50    0.20
  -2  -6   0    1.90    0.30
   2   6   0    0.10    1.00
   2   6   0    2.10    0.40
   2   6   0    2.20    0.50
   2   6   0    2.60    0.40
   2   6   0    2.10    1.00
  -3  -6   0   20.80    2.60
   3   6   0   23.20    3.20
   3   6   0   28.50    2.60
   3   6   0   24.70    2.60
   3   6   0   26.40    2.70
   3   6   0   23.50    2.80
  -4  -6   0    0.60    0.20
   4   6   0    1.20    1.00
   4   6   0    1.00    1.10
   4   6   0    0.80    0.20
   5   6   0    5.50    0.80
   5   6   0    6.40    0.70
   5   6   0    3.90    1.40
  -6  -6   0    0.00    0.10
   6   6   0    0.00    0.10
   6   6   0    0.30    0.30
   6   6   0    0.20    1.40
  -7  -6   0    1.40    0.40
   7   6   0    1.00    0.20
   7   6   0    0.90    0.30
  -8  -6   0    0.10    0.20
   8   6   0    0.00    0.20
   6  -7   0    0.10    0.10
  -6   7   0    0.20    0.20
  -6   7   0   -0.20    0.40
   5  -7   0    0.00    0.10
   4  -7   0    0.20    0.20
   3  -7   0   88.19   10.00
  -3   7   0   98.09   10.00
  -3   7   0  102.49   10.40
  -2   7   0    3.90    0.50
  -2   7   0    4.20    1.00
  -1   7   0   15.20    2.30
  -1   7   0   18.40    2.20
   0   7   0   22.60    2.40
   0   7   0   22.40    3.20
  -1  -7   0   11.20    1.30
   1   7   0   10.10    1.20
   1   7   0    9.80    1.10
   1   7   0   10.50    1.20
   1   7   0   11.00    1.50
   1   7   0    6.80    2.10
   1   7   0    8.70    1.90
   2   7   0    0.80    0.40
   2   7   0    0.90    1.30
   2   7   0    1.20    0.50
   2   7   0    0.70    1.30
   2   7   0    1.80    0.20
   2   7   0    1.30    0.30
   3   7   0   10.50    1.20
   3   7   0   10.70    1.20
   3   7   0   10.10    2.70
   3   7   0    9.40    1.40
   3   7   0   10.40    1.10
   3   7   0   10.10    2.00
   4   7   0    4.00    1.50
   4   7   0    4.10    0.80
   4   7   0    4.60    0.50
   4   7   0    4.00    0.60
   6   7   0    6.80    1.50
   6   7   0    7.20    0.90
   7   7   0    0.10    0.20
  -5   8   0    0.00    0.40
  -5   8   0    0.10    0.20
   4  -8   0   43.10    3.90
  -4   8   0   36.70    4.20
  -4   8   0   32.40    4.00
  -3   8   0   -0.70    0.60
  -3   8   0    0.20    0.10
  -2   8   0    7.40    0.80
  -2   8   0    6.70    1.10
  -2   8   0    5.90    1.30
  -1   8   0   -0.30    0.40
  -1   8   0    0.10    0.10
  -1   8   0   -0.10    0.50
  -1   8   0   -0.40    0.70
  -1   8   0   -0.10    1.20
   0   8   0   -0.60    0.70
   0   8   0    0.20    0.10
   0   8   0   -0.60    0.40
   0   8   0   -0.20    0.20
   0   8   0    0.10    1.30
   0   8   0   -0.20    0.30
   1   8   0    2.10    0.40
   1   8   0    1.50    0.70
   1   8   0    1.30    0.70
   1   8   0    1.20    0.40
   1   8   0    2.00    1.50
   2   8   0   13.00    3.10
   2   8   0   14.20    1.70
   2   8   0   16.00    1.70
   2   8   0   15.60    2.00
   2   8   0   14.10    2.50
   3   8   0   42.20    4.50
   3   8   0   39.90    4.40
   3   8   0   43.00    4.60
   4   8   0   42.50    4.30
   4   8   0   44.50    4.90
   4   8   0   34.90    4.30
   5   8   0    5.40    1.50
   5   8   0    2.80    0.50
   6   8   0    0.80    0.90
   6   8   0    0.80    0.30
   7   8   0    4.10    0.60
  -4   9   0    3.20    0.50
  -4   9   0    3.60    0.70
  -3   9   0    2.30    0.80
  -3   9   0    0.80    0.30
  -2   9   0    1.50    0.60
  -2   9   0    0.00    0.30
  -1   9   0   -0.90    0.70
  -1   9   0   -0.60    0.60
  -1   9   0   -0.20    0.30
  -1   9   0    0.10    0.10
   0   9   0   11.70    1.50
   0   9   0   14.40    1.90
   0   9   0   13.00    2.40
   1   9   0   11.80    1.70
   1   9   0   11.00    1.30
   1   9   0    9.20    1.20
   1   9   0    8.10    2.10
   2   9   0    8.90    1.10
   2   9   0    8.40    1.40
   2   9   0    7.00    1.00
   3   9   0  137.59   14.20
   3   9   0  128.69   14.20
   3   9   0  144.09   14.40
   4   9   0    5.60    1.50
   4   9   0    3.60    0.60
   5   9   0    3.00    1.20
   5   9   0    2.80    0.50
   6   9   0    0.00    0.20
  -2  10   0    0.70    0.40
  -2  10   0    0.80    0.30
  -1  10   0    1.00    0.40
  -1  10   0    1.90    0.60
   0  10   0    8.80    1.10
   0  10   0   10.20    1.50
   1  10   0    0.10    0.60
   1  10   0    0.10    1.30
   1  10   0   -0.10    0.30
   1  10   0    0.20    0.20
   2  10   0    9.50    1.10
   2  10   0    7.80    1.90
   2  10   0   10.60    1.20
   3  10   0   13.40    1.50
   3  10   0   12.60    1.60
   3  10   0   14.50    2.20
   4  10   0    1.90    0.40
   4  10   0    2.30    1.40
   5  10   0    0.20    0.60
   5  10   0    0.10    0.20
   0  11   0    0.00    0.30
   0  11   0   -0.30    0.20
   1  11   0    5.40    0.90
   2  11   0    3.50    0.60
   2  11   0    2.20    1.10
   3  11   0    0.30    0.20
   3  11   0    0.90    0.90
   3  11  -1    2.30    0.30
   2  11  -1    7.80    0.90
   2  11  -1    9.80    1.10
   1  11  -1   -0.20    0.30
   1  11  -1    0.00    1.20
   0  11  -1    0.20    0.20
   0  11  -1    0.60    0.40
   5  10  -1    0.10    0.20
   5  10  -1   -0.10    0.70
   4  10  -1   -0.20    0.20
   4  10  -1    0.10    0.80
   3  10  -1    0.70    0.30
   3  10  -1    1.20    0.40
   3  10  -1    0.60    1.10
   2  10  -1   13.90    1.60
   2  10  -1   13.20    1.50
   2  10  -1   13.40    2.40
   1  10  -1    0.50    1.20
   1  10  -1    1.40    0.70
   1  10  -1    1.20    0.40
   1  10  -1    1.20    0.40
   0  10  -1    2.90    0.70
   0  10  -1    0.30    1.10
   0  10  -1    2.30    0.50
   0  10  -1    2.00    0.30
  -1  10  -1   11.60    1.30
  -1  10  -1   10.70    1.50
  -2  10  -1   -0.20    0.20
  -2  10  -1    0.00    0.30
   6   9  -1    0.10    0.20
   5   9  -1    4.20    0.60
   5   9  -1    2.60    1.40
   4   9  -1    0.30    0.30
   4   9  -1    0.40    1.10
   3   9  -1   12.60    1.40
   3   9  -1   11.90    1.40
   3   9  -1    9.40    2.20
   2   9  -1   24.80    2.70
   2   9  -1   24.10    3.40
   2   9  -1   27.30    3.00
   2   9  -1   21.90    2.60
   1   9  -1   40.60    5.00
   1   9  -1   41.80    5.60
   1   9  -1   52.49    5.30
   1   9  -1   53.39    5.10
   0   9  -1    1.40    1.50
   0   9  -1    0.80    0.30
   0   9  -1    0.20    0.40
   0   9  -1    1.20    0.70
  -1   9  -1    1.40    0.50
  -1   9  -1    1.80    0.70
  -1   9  -1    3.80    1.50
  -2   9  -1   -0.30    0.50
  -2   9  -1   -0.50    0.30
  -3   9  -1   -0.10    0.30
  -3   9  -1    0.90    0.50
  -4   9  -1    7.60    0.90
   7   8  -1    1.20    0.30
   6   8  -1    0.00    0.20
   6   8  -1   -0.30    0.60
   5   8  -1    3.70    1.30
   5   8  -1    3.30    0.60
   4   8  -1    0.60    1.30
   4   8  -1    3.00    0.50
   2   8  -1    6.40    0.90
   2   8  -1    6.20    1.80
   2   8  -1    7.40    1.30
   2   8  -1    7.80    1.00
   1   8  -1    5.90    0.90
   1   8  -1    6.60    0.80
   1   8  -1    8.50    2.20
   1   8  -1    7.30    1.30
   1   8  -1    3.50    1.60
   0   8  -1    0.20    1.40
   0   8  -1    2.10    0.40
   0   8  -1    1.90    0.80
   0   8  -1    1.40    0.50
  -1   8  -1   -0.40    0.50
  -1   8  -1    1.50    1.60
  -1   8  -1   -0.30    0.70
  -1   8  -1    0.00    0.20
  -2   8  -1   -0.50    1.00
  -2   8  -1    1.60    0.50
  -3   8  -1   -0.70    0.50
  -4   8  -1   49.80    5.40
   4  -8   1   49.10    5.10
  -5   8  -1    1.50    0.50
   7   7  -1    0.20    0.20
   6   7  -1    0.80    0.30
   6   7  -1    0.70    0.80
   5   7  -1    1.70    1.90
   5   7  -1    0.90    0.40
   4   7  -1    8.90    1.20
   4   7  -1   10.40    1.20
   4   7  -1   10.60    2.00
   3   7  -1   89.49    9.10
   3   7  -1   85.19    9.20
   3   7  -1   92.69    9.70
   3   7  -1   76.39   10.10
   3   7  -1   89.09    9.10
   2   7  -1   26.40    3.20
   2   7  -1   27.90    3.90
   2   7  -1   33.80    3.20
   2   7  -1   28.60    3.30
   1   7  -1    1.10    1.70
   1   7  -1    1.70    0.70
   1   7  -1    1.30    0.40
   1   7  -1    0.80    1.40
   1   7  -1    1.60    0.30
   0   7  -1    8.40    1.90
   0   7  -1   10.90    1.20
  -1   7  -1    2.10    0.40
  -1   7  -1    1.80    0.60
  -1   7  -1    1.90    0.30
  -1   7  -1    1.70    0.80
  -2   7  -1    3.00    1.00
  -2   7  -1    4.20    1.00
  -2   7  -1    3.70    0.50
  -2   7  -1    5.30    0.60
  -3   7  -1   10.90    1.60
  -3   7  -1   11.00    1.20
   3  -7   1   10.20    1.20
   4  -7   1    1.30    0.30
  -5   7  -1    9.90    1.60
   5  -7   1   12.50    1.30
  -6   7  -1    2.10    0.60
   6  -7   1    3.10    0.40
   8   6  -1    0.40    0.10
  -8  -6   1    0.70    0.20
   7   6  -1    0.30    0.20
  -7  -6   1    0.00    0.20
   6   6  -1   39.80    3.90
   6   6  -1   37.20    4.20
  -6  -6   1   31.60    3.80
   5   6  -1    4.30    1.30
   5   6  -1    3.70    0.60
   4   6  -1    0.50    0.30
   4   6  -1   -0.10    0.20
   4   6  -1   -0.60    0.90
   4   6  -1    0.20    1.20
   3   6  -1   43.60    4.30
   3   6  -1   36.30    5.20
   3   6  -1   37.40    4.40
   3   6  -1   38.90    4.80
   3   6  -1   42.50    4.30
   2   6  -1   16.30    1.90
   2   6  -1   16.20    1.70
   2   6  -1   11.60    2.90
   2   6  -1   12.90    2.10
   1   6  -1   89.39   10.60
   1   6  -1   98.39   10.30
   1   6  -1  103.59   10.10
   1   6  -1   97.49   10.20
   0   6  -1    6.10    0.90
   0   6  -1    5.20    1.00
   0   6  -1    5.30    0.70
  -1   6  -1   35.80    3.90
  -1   6  -1   31.60    3.50
  -1   6  -1   33.20    3.80
  -1   6  -1   35.80    4.10
  -3   6  -1    1.10    0.50
  -3   6  -1    0.80    0.20
  -4   6  -1    1.50    0.60
   4  -6   1    0.70    0.20
   5  -6   1    0.00    0.20
   6  -6   1    3.10    0.50
   8   5  -1    0.00    0.20
  -8  -5   1    0.10    0.20
   7   5  -1   -0.10    0.10
   7   5  -1   -0.10    0.20
  -7  -5   1    0.00    0.20
   5   5  -1   15.50    1.80
   5   5  -1   18.20    3.00
   4   5  -1    6.90    1.80
   4   5  -1    8.20    1.50
   4   5  -1    7.90    1.00
  -4  -5   1    9.20    1.00
   3   5  -1    7.50    0.80
   3   5  -1    6.70    1.10
  -3  -5   1    5.90    0.80
  -2  -5   1   31.10    3.20
  -1  -5   1   46.00    4.80
  -3   5  -1  139.39   13.30
  -3   5  -1  109.99   13.60
   3  -5   1  136.49   13.40
  -4   5  -1    2.30    0.70
  -4   5  -1    3.80    0.40
   4  -5   1    3.40    0.50
  -5   5  -1    1.30    0.60
   6  -5   1    1.60    0.30
   7  -5   1    5.20    0.60
   8   4  -1    0.20    0.10
  -8  -4   1    0.30    0.20
   7   4  -1    0.10    0.20
  -7  -4   1    0.00    0.20
   5   4  -1    0.00    1.10
   5   4  -1    0.50    0.30
   5   4  -1   -0.30    0.70
  -5  -4   1    0.30    0.20
   4   4  -1    0.40    1.30
   4   4  -1    0.10    0.20
   4   4  -1    0.80    0.70
  -4  -4   1   -0.10    0.10
   3   4  -1   15.30    2.50
  -3  -4   1   13.00    1.50
   2   4  -1  283.17   29.70
   1   4  -1   42.30    4.90
  -1  -4   1   41.20    4.20
  -1  -4   1   35.30    4.10
  -1   4  -1   -0.20    0.30
  -2   4  -1   39.20    4.30
  -3   4  -1   24.20    3.10
  -3   4  -1   30.80    2.90
  -4   4  -1    5.00    1.00
  -4   4  -1    7.30    0.70
   4  -4   1    6.40    0.80
  -5   4  -1    0.10    0.50
   5  -4   1    0.20    0.20
   7  -4   1    0.60    0.20
   8  -4   1    0.90    0.20
  -8  -3   1    0.20    0.20
   7   3  -1    0.10    0.20
  -7  -3   1   -0.10    0.20
   6   3  -1    6.10    0.80
  -6  -3   1    5.20    0.70
   5   3  -1    1.50    0.40
   5   3  -1    1.50    1.20
  -5  -3   1    1.00    0.30
   4   3  -1    2.30    1.10
   4   3  -1    2.20    0.50
  -4  -3   1    1.60    0.30
   3   3  -1  384.46   40.10
   2   3  -1    7.80    1.70
   2   3  -1    5.80    0.60
  -2  -3   1    5.50    0.60
   1   3  -1    8.30    2.60
  -1  -3   1    6.70    0.80
  -1  -3   1    7.90    0.80
   0   3  -1   36.40    4.00
   0  -3   1   39.20    3.90
  -1   3  -1   -0.60    0.90
  -1   3  -1   -0.10    0.30
   2  -3   1    2.10    0.20
  -3   3  -1    0.50    0.40
  -4   3  -1   11.30    1.10
  -4   3  -1    7.80    1.40
  -4   3  -1    9.80    1.10
   4  -3   1   10.50    1.10
  -5   3  -1    0.80    0.50
  -5   3  -1    1.20    0.30
   5  -3   1    1.30    0.30
  -6   3  -1    5.60    0.70
  -6   3  -1    6.30    1.20
   6  -3   1    4.90    0.70
  -7   3  -1    4.70    0.60
   7  -3   1    3.10    0.50
   8  -3   1    0.00    0.10
  -8  -2   1    5.00    0.70
   7   2  -1    0.80    0.20
  -7  -2   1    0.50    0.30
   6   2  -1  118.39   11.00
   6   2  -1   96.09   10.90
  -6  -2   1  110.29   11.20
  -6  -2   1   97.59   11.00
   5   2  -1  108.29   12.00
   5   2  -1  122.99   12.10
  -5  -2   1  109.59   12.00
  -5  -2   1  122.49   12.00
   4   2  -1   -0.70    0.90
  -4  -2   1   -0.10    0.10
   2   2  -1    2.10    0.30
  -2  -2   1    2.10    0.30
   1   2  -1   67.59    6.90
  -1  -2   1   65.19    6.90
   0   2  -1   43.00    4.50
   0  -2   1   43.90    4.50
  -1   2  -1    8.10    1.00
  -1   2  -1    7.80    1.80
  -2   2  -1    1.50    0.40
  -2   2  -1    2.10    0.20
   2  -2   1    2.70    0.30
  -3   2  -1   42.00    4.70
   3  -2   1   48.30    4.70
  -4   2  -1  205.18   21.10
   4  -2   1  204.08   21.20
  -5   2  -1   29.20    3.10
  -5   2  -1   32.50    3.00
  -5   2  -1   24.00    3.30
   5  -2   1   28.50    3.00
  -6   2  -1   13.00    1.30
  -6   2  -1    8.90    1.60
   6  -2   1   11.10    1.30
  -7   2  -1   -0.10    0.20
   7  -2   1   -0.20    0.10
  -8   2  -1    2.30    0.40
   8  -2   1    1.70    0.40
  -8  -1   1   -0.10    0.20
   7   1  -1   15.70    1.70
   6   1  -1    1.30    1.40
   6   1  -1    1.10    0.20
   6   1  -1    1.90    0.40
  -6  -1   1    1.20    0.30
   5   1  -1   36.10    4.00
  -5  -1   1   38.70    4.10
  -5  -1   1   39.60    4.00
  -4  -1   1   10.30    1.40
  -4  -1   1   13.30    1.30
   3   1  -1   34.60    3.60
  -3  -1   1   33.20    3.50
   2   1  -1  156.58   16.20
   1   1  -1  320.87   46.40
  -1  -1   1  360.06   47.60
   0   1  -1   13.00    1.30
   0   1  -1   12.00    1.30
   0  -1   1   12.80    1.30
   1  -1   1 9999.00 1054.69
  -2   1  -1    7.80    0.90
   2  -1   1    8.80    0.90
  -4   1  -1   73.09    7.60
  -5   1  -1   20.00    2.10
  -5   1  -1   20.20    2.10
   5  -1   1   18.80    2.10
  -6   1  -1    2.30    0.40
  -6   1  -1    2.80    0.70
   6  -1   1    2.30    0.40
  -8   1  -1   -0.20    0.20
   8  -1   1   -0.10    0.10
  -9   1  -1    0.00    0.10
   8   0  -1    1.30    0.20
  -8   0   1    1.60    0.40
   7   0  -1    9.50    1.10
  -7   0   1   10.40    1.20
   6   0  -1    9.30    1.10
  -6   0   1   11.10    1.20
  -6   0   1    9.80    1.40
   5   0  -1    6.80    0.80
  -5   0   1    7.40    0.90
  -5   0   1    6.30    1.00
  -5   0   1    7.40    0.80
  -4   0   1   11.70    1.60
  -4   0   1   16.00    1.50
   3   0  -1    0.50    0.10
  -3   0   1    0.30    0.10
  -3   0   1    0.10    0.20
   2   0  -1  382.76   64.19
  -2   0   1  402.46   64.39
   1   0  -1  399.16   56.89
  -1   0   1  444.56   57.49
  -1   0  -1  177.18   29.40
   1   0   1  179.68   29.30
   2   0   1   39.10    3.90
   2   0   1   35.40    3.90
  -3   0  -1   49.90    5.00
   3   0   1   46.60    5.00
  -4   0  -1    9.50    1.00
  -5   0  -1   14.00    1.40
  -5   0  -1   13.40    1.50
   5   0   1   12.40    1.40
   5   0   1   12.70    1.50
  -6   0  -1    0.60    0.40
  -6   0  -1    1.20    0.30
   6   0   1    0.90    0.20
   6   0   1    1.50    0.40
  -7   0  -1    2.40    0.50
   7   0   1    2.70    0.40
  -8   0  -1    3.40    0.50
   8   0   1    2.60    0.40
  -9   0  -1    2.40    0.40
   8  -1  -1   -0.20    0.10
  -8   1   1   -0.10    0.20
   7  -1  -1   25.40    3.00
  -7   1   1   31.40    3.10
   6  -1  -1    0.30    0.20
  -6   1   1    0.80    0.30
  -6   1   1    1.40    0.50
   5  -1  -1   23.90    2.70
  -5   1   1   27.50    2.70
  -5   1   1   22.50    2.90
  -5   1   1   26.70    2.70
   4  -1  -1   27.40    3.20
  -4   1   1   29.50    3.20
  -4   1   1   33.60    3.20
  -4   1   1   31.20    3.30
  -3   1   1    3.00    0.60
  -3   1   1    4.30    0.40
   2  -1  -1   40.00    4.00
  -2   1   1   42.80    4.00
  -2   1   1   33.60    4.10
   1  -1  -1  278.27   45.20
  -1   1   1  298.17   44.70
   0   1   1    0.90    0.20
  -1  -1  -1   44.70    4.70
  -2  -1  -1   61.89    6.00
  -2  -1  -1   55.49    5.90
   2   1   1   54.49    5.90
  -3  -1  -1   12.60    1.40
   3   1   1   13.80    1.50
   3   1   1   11.80    1.40
  -4  -1  -1    0.60    0.20
  -5  -1  -1   10.50    1.20
   5   1   1   10.30    1.20
   5   1   1   10.80    1.20
  -6  -1  -1    6.90    1.20
   6   1   1    8.30    0.90
   6   1   1    7.40    1.00
  -7  -1  -1  210.78   24.50
  -7  -1  -1  239.78   24.20
   7   1   1  242.38   24.10
   7   1   1  239.38   24.20
  -8  -1  -1   -0.10    0.20
   8   1   1    0.30    0.10
  -9  -1  -1    5.40    0.70
   8  -2  -1   -0.10    0.10
   7  -2  -1    0.60    0.20
  -7   2   1    0.80    0.30
   6  -2  -1    6.10    0.80
  -6   2   1    7.60    1.10
  -6   2   1    7.90    0.90
   5  -2  -1    0.90    0.20
  -5   2   1    1.00    0.50
   4  -2  -1    2.80    0.40
  -4   2   1    3.00    0.40
  -4   2   1    1.90    0.50
  -4   2   1    2.80    0.30
  -3   2   1   15.50    1.90
  -3   2   1   17.90    1.80
   2  -2  -1   56.09    5.30
  -2   2   1   46.50    5.40
   1  -2  -1   31.60    2.80
  -1   2   1   22.90    2.90
   0  -2  -1 2053.99  222.68
   0   2   1 2082.29  220.88
   1   2   1  158.38   16.60
  -4  -2  -1    4.20    0.50
  -5  -2  -1    3.40    0.50
  -5  -2  -1    3.70    0.50
   5   2   1    4.40    0.70
   5   2   1    5.30    1.10
   6   2   1    4.50    0.90
   6   2   1    4.00    0.50
   6   2   1    3.80    0.70
  -7  -2  -1    9.20    1.10
   7   2   1    8.60    1.10
  -8  -2  -1    1.50    0.30
  -9  -2  -1    1.30    0.30
   6  -3  -1    3.80    0.60
  -6   3   1    4.00    0.60
   5  -3  -1    0.40    0.20
  -5   3   1    0.40    0.20
   4  -3  -1    5.70    0.70
  -4   3   1    5.90    0.60
  -4   3   1    6.00    0.70
  -4   3   1    4.50    1.00
  -3   3   1  193.48   18.00
  -3   3   1  153.98   18.10
   2  -3  -1   23.80    2.30
  -2   3   1   19.90    2.40
   1  -3  -1    7.50    0.80
  -1   3   1    6.80    0.90
   0   3   1  154.98   16.50
  -2  -3  -1  134.09   13.80
   2   3   1  132.49   14.00
  -3  -3  -1   96.99   11.00
  -3  -3  -1  110.89   11.10
   3   3   1  110.69   11.30
  -4  -3  -1  112.29   12.40
   4   3   1  127.89   12.80
  -5  -3  -1   63.89    7.90
  -5  -3  -1   72.39    7.90
   5   3   1   82.99    8.00
   5   3   1   84.69    8.30
  -7  -3  -1   37.90    4.10
   7   3   1   38.50    4.10
  -8  -3  -1    0.30    0.20
   8   3   1    0.30    0.30
  -9  -3  -1    1.00    0.20
   7  -4  -1    0.80    0.20
   6  -4  -1   15.70    1.70
   5  -4  -1    1.70    0.40
  -5   4   1    2.10    0.70
  -4   4   1   30.70    2.90
  -4   4   1   24.70    3.20
  -3   4   1   25.40    2.50
  -3   4   1   22.10    2.80
   2  -4  -1    1.70    0.20
  -2   4   1    1.20    0.40
   1  -4  -1    1.20    0.20
  -1   4   1    0.70    0.40
  -1  -4  -1    8.70    1.00
   1   4   1    8.50    1.80
   1   4   1   10.40    1.10
  -2  -4  -1    2.20    0.30
  -2  -4  -1    2.90    0.50
   2   4   1    1.50    1.00
  -4  -4  -1    3.90    0.60
   4   4   1    4.60    1.10
   4   4   1    5.00    0.60
  -5  -4  -1   16.90    2.20
  -5  -4  -1   22.20    2.20
   5   4   1   22.80    2.70
   5   4   1   20.90    2.20
  -6  -4  -1   55.99    6.30
   6   4   1   64.99    6.40
  -7  -4  -1   -0.10    0.30
   7   4   1    0.00    0.30
  -8  -4  -1    5.50    0.70
   8   4   1    5.40    0.70
  -9  -4  -1    2.20    0.30
   9   4   1    1.30    0.20
   7  -5  -1    1.00    0.20
   6  -5  -1    3.90    0.50
   4  -5  -1    0.50    0.20
  -4   5   1    0.50    0.50
  -4   5   1    0.70    0.20
   3  -5  -1    4.70    0.60
  -3   5   1    3.80    0.50
  -3   5   1    3.60    0.90
  -2   5   1    0.60    0.40
  -2   5   1    1.40    0.20
   1  -5  -1    0.40    0.10
  -1   5   1    0.30    0.30
   0  -5  -1   12.50    1.10
   0  -5  -1    9.10    1.10
  -1  -5  -1    4.70    0.50
  -2  -5  -1   17.70    2.20
  -2  -5  -1   21.80    2.30
   2   5   1   22.80    2.30
  -3  -5  -1   63.19    7.50
  -3  -5  -1   66.19    7.40
   3   5   1   72.99    7.90
   3   5   1   75.49    7.50
   3   5   1   75.79    7.60
   3   5   1   66.19    7.90
   3   5   1   78.69    7.50
  -4  -5  -1    1.50    0.30
   4   5   1    1.20    0.30
   4   5   1    1.70    0.20
   4   5   1    1.40    0.80
   4   5   1    2.30    1.10
   4   5   1    1.10    0.30
   5   5   1   25.00    3.00
   5   5   1   22.80    3.20
   5   5   1   27.90    2.80
  -6  -5  -1    8.90    1.10
   6   5   1   11.40    1.20
  -7  -5  -1    0.50    0.20
   7   5   1    0.80    0.30
   7   5   1    1.30    0.20
  -8  -5  -1    1.20    0.30
   8   5   1    1.20    0.30
  -9  -5  -1    0.30    0.10
   6  -6  -1    0.00    0.20
   5  -6  -1    0.80    0.30
   4  -6  -1    2.80    0.50
  -4   6   1    2.90    0.40
   3  -6  -1   19.60    2.20
  -3   6   1   20.00    2.10
  -3   6   1   20.60    2.50
  -2   6   1    3.30    0.80
  -2   6   1    3.40    0.40
  -1   6   1    7.30    0.90
  -1   6   1    8.30    1.20
   0   6   1  143.39   15.90
   0   6   1  170.08   15.90
   0   6   1  139.79   15.70
  -1  -6  -1   18.80    2.10
   1   6   1   21.00    2.20
   1   6   1   20.60    2.20
   1   6   1   21.70    2.40
  -2  -6  -1   25.30    3.10
  -2  -6  -1   31.80    3.20
   2   6   1   28.00    3.30
   2   6   1   33.10    3.20
   2   6   1   30.70    3.10
   2   6   1   27.30    3.10
   2   6   1   27.60    3.60
  -3  -6  -1    9.20    1.00
   3   6   1    8.90    1.00
   3   6   1    8.70    2.10
   3   6   1    9.20    1.10
   3   6   1    9.20    1.80
   3   6   1    8.60    1.30
   3   6   1    9.30    1.10
  -4  -6  -1   16.60    1.70
   4   6   1   14.20    1.90
   4   6   1   12.30    1.70
   4   6   1   19.20    2.50
   4   6   1   16.70    1.70
   4   6   1   14.90    1.70
   4   6   1   15.90    2.40
   6   6   1    0.80    0.30
   6   6   1    1.10    0.20
   6   6   1    1.20    1.00
  -7  -6  -1    2.60    0.40
   7   6   1    3.00    0.40
   7   6   1    2.40    0.50
  -8  -6  -1    0.40    0.20
   8   6   1    0.20    0.10
   8   6   1    0.10    0.20
   5  -7  -1    1.80    0.30
   4  -7  -1    0.70    0.20
   3  -7  -1   71.69    8.40
  -3   7   1   92.09    9.40
  -2   7   1   65.99    6.60
  -2   7   1   53.69    6.20
  -1   7   1   39.40    4.50
  -1   7   1   38.00    4.00
   0   7   1   10.40    1.40
   0   7   1    7.30    1.00
   0   7   1    9.70    1.90
   0   7   1    7.90    1.50
   0   7   1    9.80    1.00
  -1  -7  -1   16.50    2.00
   1   7   1   16.20    2.60
   1   7   1   14.80    1.80
   1   7   1   16.60    2.10
   1   7   1   16.00    1.90
   1   7   1   20.30    1.90
   2   7   1   26.80    2.60
   2   7   1   22.70    2.50
   2   7   1   24.70    2.90
   2   7   1   22.60    2.50
   2   7   1   23.60    2.70
   2   7   1   18.00    3.20
   3   7   1   11.80    2.50
   3   7   1    8.90    1.20
   3   7   1   10.50    1.90
   3   7   1   10.00    1.10
   3   7   1   11.00    1.40
   3   7   1    9.90    1.20
   4   7   1    6.30    1.10
   4   7   1    5.50    0.90
   4   7   1    5.80    0.60
   4   7   1    2.60    1.50
   4   7   1    5.60    0.70
   5   7   1    1.90    0.30
   5   7   1    3.40    1.30
   5   7   1    1.90    0.40
   6   7   1   -0.30    0.80
   6   7   1   -0.10    0.10
   6   7   1   -0.20    0.20
   7   7   1    0.70    0.30
   7   7   1    0.70    0.10
   8   7   1    0.90    0.20
  -4   8   1    1.50    0.40
  -4   8   1    1.20    0.80
  -3   8   1    2.30    0.80
  -2   8   1   -0.20    0.70
  -2   8   1   -0.10    0.10
  -1   8   1    5.30    1.10
  -1   8   1    3.90    1.10
  -1   8   1    4.10    0.50
   0   8   1    1.50    0.50
   0   8   1    2.60    0.40
   0   8   1    2.70    0.90
   0   8   1    5.30    1.80
   0   8   1    4.00    0.90
   1   8   1    5.30    0.70
   1   8   1    6.90    0.80
   1   8   1    4.90    1.70
   1   8   1    5.80    1.10
   1   8   1    5.10    1.00
   1   8   1    5.50    0.80
   2   8   1   10.70    2.30
   2   8   1    8.80    1.00
   2   8   1    7.40    1.30
   2   8   1    6.60    0.90
   2   8   1    7.00    0.80
   3   8   1   16.50    1.90
   3   8   1   16.80    1.90
   3   8   1   17.90    2.70
   3   8   1   16.20    1.80
   3   8   1   18.20    2.20
   4   8   1   68.39    7.30
   4   8   1   61.09    7.30
   4   8   1   71.99    7.30
   4   8   1   80.99    8.00
   5   8   1    2.90    0.30
   5   8   1    1.50    1.10
   6   8   1   13.50    1.50
   7   8   1    0.50    0.20
  -3   9   1    0.00    0.20
  -3   9   1   -0.30    0.40
  -2   9   1   -0.30    0.50
  -2   9   1   -0.20    0.30
  -2   9   1    0.00    0.10
  -1   9   1    0.50    0.30
  -1   9   1    0.70    0.20
  -1   9   1    0.20    0.60
   0   9   1    0.80    1.30
   0   9   1    0.10    0.10
   0   9   1    0.00    0.30
   0   9   1    0.00    0.70
   1   9   1    5.10    0.70
   1   9   1    8.70    2.00
   1   9   1    4.20    0.60
   1   9   1    6.50    1.30
   1   9   1    6.70    0.80
   2   9   1    1.90    0.70
   2   9   1    2.10    0.40
   2   9   1    2.70    1.60
   2   9   1    1.90    0.50
   3   9   1   18.10    2.10
   3   9   1   21.50    2.40
   3   9   1   20.80    2.90
   3   9   1   17.00    2.10
   4   9   1    1.40    0.30
   4   9   1    1.10    1.10
   5   9   1    0.70    0.80
   5   9   1    0.70    0.30
   6   9   1    2.10    0.40
  -2  10   1    0.40    0.40
  -2  10   1    0.90    0.20
  -1  10   1    0.40    0.30
  -1  10   1    0.20    0.40
   0  10   1    1.10    0.60
   1  10   1    5.40    0.80
   1  10   1    4.90    1.80
   1  10   1    6.20    1.20
   2  10   1   11.00    1.40
   2  10   1   11.40    1.30
   3  10   1    6.90    1.70
   3  10   1    5.40    0.70
   3  10   1    5.40    0.80
   4  10   1    2.20    1.10
   4  10   1    1.20    0.30
   5  10   1    0.40    0.20
   0  11   1    1.00    0.40
   0  11   1    0.40    0.20
   1  11   1    5.70    0.80
   1  11   1    7.70    1.00
   2  11   1    1.60    0.30
   2  11  -2    0.40    0.20
   1  11  -2    1.30    0.30
   1  11  -2    0.90    0.20
   1  11  -2    0.20    0.80
   0  11  -2    0.10    0.20
   4  10  -2    6.20    1.30
   4  10  -2    4.30    0.60
   3  10  -2    4.10    0.60
   3  10  -2    5.20    1.80
   2  10  -2    0.40    0.30
   2  10  -2    0.50    1.10
   2  10  -2    0.70    0.30
   1  10  -2    0.90    0.30
   1  10  -2    1.40    0.60
   1  10  -2    0.00    1.20
   1  10  -2    1.00    0.40
   0  10  -2    3.80    1.60
   0  10  -2    6.10    0.80
   0  10  -2    4.60    0.60
   0  10  -2    6.00    1.00
  -1  10  -2    5.50    1.00
  -1  10  -2    6.50    1.00
  -2  10  -2    0.20    0.30
  -2  10  -2    0.70    0.40
   6   9  -2    3.50    0.50
   5   9  -2    0.30    0.70
   5   9  -2    0.50    0.30
   4   9  -2   -0.20    1.00
   4   9  -2    0.00    0.20
   3   9  -2    0.70    0.30
   3   9  -2    0.30    0.30
   3   9  -2   -0.30    1.20
   2   9  -2    9.90    1.20
   2   9  -2   10.30    1.60
   2   9  -2    9.00    1.10
   2   9  -2    6.80    2.00
   1   9  -2   17.60    1.80
   1   9  -2   16.50    2.20
   1   9  -2   13.40    1.70
   0   9  -2    3.60    1.80
   0   9  -2    2.60    0.80
   0   9  -2    3.00    0.50
   0   9  -2    2.70    0.60
  -1   9  -2   11.50    1.30
  -1   9  -2   13.10    1.70
  -1   9  -2    9.30    2.30
  -1   9  -2   11.40    1.50
  -2   9  -2    1.30    0.40
  -2   9  -2    2.50    0.60
  -3   9  -2   -0.20    0.30
  -3   9  -2    0.40    0.40
  -4   9  -2    0.10    0.30
  -4   9  -2   -0.40    0.20
   6   8  -2    0.20    0.20
   5   8  -2    0.90    0.30
   5   8  -2    0.50    0.90
   4   8  -2    0.30    0.30
   4   8  -2   -0.10    1.10
   3   8  -2    2.40    0.50
   3   8  -2    3.90    0.50
   3   8  -2    6.10    1.80
   2   8  -2   96.59    9.40
   2   8  -2   71.79   10.20
   2   8  -2   89.49    9.20
   2   8  -2   72.49    9.70
   2   8  -2  102.19    9.20
   1   8  -2    7.60    1.40
   1   8  -2    7.60    1.00
   1   8  -2    7.10    0.90
   0   8  -2   19.30    2.30
   0   8  -2   15.30    1.80
   0   8  -2   15.20    1.90
  -1   8  -2    6.30    0.80
  -1   8  -2    6.50    1.20
  -1   8  -2    7.10    2.10
  -1   8  -2    4.20    0.80
  -2   8  -2   10.60    2.00
  -2   8  -2   13.90    2.10
  -2   8  -2   16.40    1.60
  -3   8  -2    1.20    0.60
   3  -8   2    2.10    0.30
  -4   8  -2    0.20    0.60
   4  -8   2    0.30    0.10
  -5   8  -2    1.10    0.60
   5  -8   2    0.40    0.20
   7   7  -2    1.30    0.30
   6   7  -2    0.40    0.30
   5   7  -2   13.60    2.40
   5   7  -2   20.40    2.00
   4   7  -2    4.20    1.50
   4   7  -2    3.20    0.60
   3   7  -2  266.77   28.20
   3   7  -2  233.18   29.00
   3   7  -2  289.47   28.70
   3   7  -2  298.07   28.20
   2   7  -2   55.19    5.90
   2   7  -2   62.19    5.90
   2   7  -2   53.49    6.10
   2   7  -2   52.49    6.50
   1   7  -2   37.60    4.00
   1   7  -2   42.80    4.20
   1   7  -2   29.90    4.50
   1   7  -2   37.70    4.00
   0   7  -2    1.40    0.40
   0   7  -2    1.00    0.50
   0   7  -2    1.70    0.70
   0   7  -2    1.10    1.10
   0   7  -2   -0.50    1.40
  -1   7  -2    0.00    1.00
  -1   7  -2   -0.20    0.70
  -1   7  -2    0.20    0.40
  -1   7  -2    0.50    0.30
  -2   7  -2    2.90    0.80
  -2   7  -2    2.10    1.00
  -2   7  -2    1.70    0.80
  -2   7  -2    2.50    0.50
  -3   7  -2    0.20    0.60
  -3   7  -2    1.00    0.30
   3  -7   2    1.00    0.20
  -4   7  -2    4.40    0.90
   4  -7   2    4.70    0.60
  -5   7  -2    2.50    0.80
   5  -7   2    3.70    0.50
  -6   7  -2    1.10    0.30
   7   6  -2    3.60    0.60
  -7  -6   2    5.00    0.60
   6   6  -2    3.20    0.50
  -6  -6   2    2.70    0.50
   4   6  -2   15.30    2.40
   4   6  -2   15.00    3.60
   4   6  -2   16.50    1.80
   3   6  -2   16.40    2.60
   3   6  -2   19.80    2.00
   3   6  -2   17.80    2.00
   3   6  -2   19.50    3.50
   2   6  -2    9.30    1.00
   2   6  -2    5.10    2.00
   2   6  -2    7.70    0.90
   2   6  -2    7.60    1.20
   1   6  -2    4.00    0.80
   1   6  -2    4.00    0.60
   1   6  -2    4.50    0.60
   0   6  -2   16.60    1.80
   0   6  -2   13.90    1.70
   0   6  -2   16.20    2.00
  -1   6  -2   13.40    2.20
  -1   6  -2   16.90    2.00
  -2   6  -2   27.50    3.60
  -2   6  -2   33.10    3.30
   2  -6   2   34.90    3.40
  -3   6  -2   29.30    3.70
   3  -6   2   34.90    3.40
  -4   6  -2  238.98   26.10
   4  -6   2  259.77   25.80
   5  -6   2    0.60    0.20
   6  -6   2    5.20    0.60
   7  -6   2    0.90    0.20
  -8  -5   2    2.40    0.40
  -7  -5   2    0.10    0.20
   6   5  -2    9.50    1.10
  -6  -5   2    7.90    1.00
   5   5  -2   -0.10    0.30
   5   5  -2    0.60    0.80
   5   5  -2   -1.10    1.20
  -5  -5   2    0.10    0.20
   4   5  -2    0.40    1.20
   4   5  -2    0.20    0.20
   4   5  -2    1.30    0.90
  -4  -5   2    0.10    0.10
  -4  -5   2    0.10    0.10
   3   5  -2    4.70    1.80
   3   5  -2    3.20    0.40
   3   5  -2    2.70    0.50
  -3  -5   2    2.50    0.40
   2   5  -2    0.80    0.30
   2   5  -2    0.90    0.20
   2   5  -2    0.80    0.20
   2   5  -2    1.00    1.30
  -2  -5   2    0.50    0.10
   1   5  -2    1.30    1.40
  -1  -5   2    1.60    0.20
   0   5  -2  187.28   19.40
  -2   5  -2   22.90    2.70
  -3   5  -2   38.80    4.10
   3  -5   2   39.00    4.10
  -4   5  -2    8.70    1.50
   4  -5   2   10.60    1.10
  -5   5  -2    1.00    0.60
   5  -5   2    0.80    0.30
   6  -5   2    1.50    0.30
   7  -5   2    0.10    0.20
  -8  -4   2   -0.10    0.20
   7   4  -2    0.60    0.20
  -7  -4   2    0.60    0.30
   5   4  -2    2.10    1.40
   5   4  -2    1.30    0.30
  -5  -4   2    0.90    0.30
   4   4  -2  111.59   11.90
   4   4  -2  106.29   11.60
   4   4  -2  114.89   11.20
  -4  -4   2   98.89   11.20
   3   4  -2    3.80    0.50
   3   4  -2    5.30    1.60
  -3  -4   2    2.90    0.40
   2   4  -2   32.80    3.10
  -2  -4   2   26.70    3.10
   1   4  -2   19.00    1.90
  -1  -4   2   17.40    2.00
   0   4  -2   99.39   10.30
  -1   4  -2   -1.30    1.10
  -1   4  -2    0.10    0.30
  -2   4  -2    1.00    0.40
  -3   4  -2    1.70    0.50
  -4   4  -2    0.30    0.40
   4  -4   2    0.60    0.20
  -5   4  -2    0.30    0.10
  -5   4  -2    0.10    0.50
   5  -4   2    0.30    0.20
   6  -4   2    3.60    0.70
   7  -4   2    6.60    0.80
   8  -4   2    0.50    0.20
  -8  -3   2    1.30    0.30
   7   3  -2    3.10    0.60
  -7  -3   2    3.70    0.60
   6   3  -2    0.00    0.20
   6   3  -2    0.40    1.20
  -6  -3   2   -0.20    0.20
   5   3  -2    7.10    0.80
   5   3  -2    6.40    1.80
  -5  -3   2    5.10    0.80
   4   3  -2   21.20    2.10
   4   3  -2   24.10    3.10
  -4  -3   2   16.60    2.10
  -4  -3   2   17.90    2.10
  -3  -3   2   17.20    1.80
   1   3  -2    1.00    0.20
   1   3  -2    2.10    1.20
  -1  -3   2    1.00    0.10
   0   3  -2    8.00    0.90
   0   3  -2    8.10    2.20
   0  -3   2    8.70    1.00
  -1   3  -2    9.00    1.10
  -2   3  -2   -1.00    0.90
  -2   3  -2   -0.10    0.20
  -3   3  -2    1.50    0.40
  -4   3  -2   18.70    2.10
   4  -3   2   19.50    2.10
  -5   3  -2    0.00    0.10
  -5   3  -2    0.00    0.40
  -6   3  -2   14.60    2.30
  -6   3  -2   18.10    1.90
   6  -3   2   17.30    1.90
  -7   3  -2   24.20    2.60
   7  -3   2   24.90    2.60
   8  -3   2    1.00    0.20
  -8  -2   2    2.30    0.40
   6   2  -2   40.50    4.00
   6   2  -2   35.60    3.90
  -6  -2   2   36.40    4.00
   5   2  -2    3.80    0.50
   5   2  -2    3.20    0.40
  -5  -2   2    3.00    0.50
  -4  -2   2    6.70    1.00
  -4  -2   2    8.50    0.90
  -4  -2   2    7.90    0.90
  -3  -2   2   56.69    6.80
  -3  -2   2   74.89    6.80
   0   2  -2  196.68   18.50
   0  -2   2  156.98   18.20
  -1   2  -2   11.70    1.30
  -3   2  -2   25.20    2.60
  -4   2  -2  111.19   12.10
   4  -2   2  122.49   12.10
  -5   2  -2    5.50    0.70
  -5   2  -2    5.90    0.60
  -5   2  -2    4.40    1.00
   5  -2   2    5.60    0.70
  -6   2  -2    2.90    0.90
  -6   2  -2    3.70    0.50
   6  -2   2    3.40    0.50
  -8   2  -2    0.00    0.20
   8  -2   2   -0.20    0.10
  -8  -1   2   -0.10    0.20
   7   1  -2    4.60    0.60
  -7  -1   2    4.50    0.70
   6   1  -2   -1.00    1.50
   6   1  -2    1.80    0.30
  -6  -1   2    2.00    0.40
   5   1  -2    0.80    1.40
  -5  -1   2    0.60    0.30
  -5  -1   2    0.10    0.20
   4   1  -2   37.70    3.80
  -4  -1   2   32.30    3.90
  -4  -1   2   39.30    3.80
  -3  -1   2  138.19   14.40
   0   1  -2  135.29   14.40
   0  -1   2  139.49   14.20
  -1   1  -2   28.10    3.20
   1  -1   2   32.70    3.20
  -2   1  -2   17.60    1.80
  -3   1  -2   30.80    3.20
  -4   1  -2   10.00    1.10
  -5   1  -2    5.70    0.60
  -5   1  -2    5.40    0.70
   5  -1   2    5.20    0.70
  -6   1  -2    1.40    0.60
  -6   1  -2    1.90    0.40
   6  -1   2    1.90    0.30
  -7   1  -2    1.20    0.40
   7  -1   2    1.10    0.30
  -8   1  -2    1.50    0.40
   8  -1   2    1.20    0.20
  -9   1  -2   -0.10    0.10
   8   0  -2    2.20    0.30
  -8   0   2    1.70    0.30
   7   0  -2    5.30    0.60
  -7   0   2    5.10    0.70
   6   0  -2  303.27   33.30
   6   0  -2  298.97   32.50
  -6   0   2  340.17   32.60
  -6   0   2  314.47   32.80
   5   0  -2    0.50    0.20
  -5   0   2    0.40    0.20
  -5   0   2    0.90    0.30
  -4   0   2    8.60    1.20
  -4   0   2   10.10    1.00
  -3   0   2    1.80    0.20
  -3   0   2    1.50    0.40
   2   0  -2   86.39    8.30
  -2   0   2   70.99    8.40
  -2   0   2   84.09    8.30
   1   0  -2  266.77   45.70
  -1   0   2  297.77   46.60
   0   0  -2   35.70    3.70
  -2   0  -2   12.40    1.30
   2   0   2   11.60    1.40
  -3   0  -2   11.50    1.20
  -4   0  -2   82.99    8.60
  -5   0  -2   29.10    3.30
  -5   0  -2   31.30    3.30
   5   0   2   30.70    3.30
   5   0   2   33.10    3.30
  -6   0  -2   17.40    2.40
   6   0   2   21.70    2.20
   6   0   2   19.90    2.20
  -7   0  -2    0.30    0.30
  -7   0  -2    0.80    0.50
   7   0   2    0.40    0.20
  -8   0  -2    0.10    0.20
   8   0   2    0.00    0.10
  -9   0  -2    0.50    0.20
   8  -1  -2    2.20    0.30
  -8   1   2    3.50    0.40
   7  -1  -2    0.60    0.20
  -7   1   2    0.90    0.30
   6  -1  -2    4.00    0.60
  -6   1   2    4.80    0.70
   5  -1  -2    0.10    0.10
  -5   1   2    0.20    0.20
  -5   1   2    0.30    0.30
   4  -1  -2    1.10    0.20
  -4   1   2    0.90    0.20
  -4   1   2    0.80    0.30
  -4   1   2    0.60    0.40
  -4   1   2    1.00    0.20
  -3   1   2    5.20    0.80
  -2   1   2   29.80    2.90
  -2   1   2   26.20    3.00
  -1  -1  -2  174.18   18.00
  -3  -1  -2   17.90    1.70
  -3  -1  -2   14.80    1.90
  -4  -1  -2  147.29   15.20
  -5  -1  -2   15.20    1.60
  -5  -1  -2   12.70    1.60
   5   1   2   14.30    1.50
   5   1   2   14.70    1.60
  -6  -1  -2    1.00    0.30
   6   1   2    2.00    0.40
   6   1   2    0.70    0.50
   6   1   2    1.10    0.20
  -7  -1  -2    1.10    0.50
  -7  -1  -2    0.20    0.20
   7   1   2    0.20    0.30
   7   1   2    0.10    0.20
  -8  -1  -2    0.40    0.20
   8   1   2    0.50    0.10
  -9  -1  -2    0.00    0.20
   8  -2  -2    0.00    0.20
   7  -2  -2    1.00    0.20
  -7   2   2    1.60    0.40
   5  -2  -2    8.00    1.00
  -5   2   2    8.00    1.30
  -5   2   2   10.50    1.10
   4  -2  -2   19.10    2.10
  -4   2   2   21.10    2.00
  -4   2   2   21.20    2.10
  -4   2   2   15.90    2.30
  -3   2   2   53.39    5.70
   1  -2  -2    6.70    0.70
  -1   2   2    7.30    0.90
  -1  -2  -2    7.90    1.00
   1   2   2    8.60    1.00
  -3  -2  -2   22.60    2.40
  -3  -2  -2   21.30    2.50
   3   2   2   23.90    2.50
  -4  -2  -2   15.30    1.70
   4   2   2   16.80    1.90
  -5  -2  -2   11.00    1.30
  -5  -2  -2   11.50    1.30
  -6  -2  -2   18.80    2.40
   6   2   2   21.90    2.40
   6   2   2   24.20    2.30
  -7  -2  -2    7.20    0.90
   7   2   2    7.20    1.00
  -8  -2  -2   26.10    2.70
   8   2   2   23.10    2.70
  -9  -2  -2    0.00    0.20
   7  -3  -2   -0.20    0.20
   6  -3  -2   -0.10    0.20
  -6   3   2    0.00    0.20
   5  -3  -2    1.10    0.30
  -5   3   2    1.30    0.30
  -5   3   2    1.20    0.50
   4  -3  -2   43.40    4.50
  -4   3   2   37.20    4.80
  -4   3   2   46.00    4.60
  -4   3   2   45.50    4.50
   3  -3  -2   90.99    9.70
  -3   3   2   88.29    9.70
  -3   3   2  102.69   10.20
  -2   3   2   10.00    1.30
   1  -3  -2   23.60    2.50
  -1   3   2   23.70    2.60
   0   3   2  125.29   13.00
   1   3   2  320.77   33.40
   2   3   2    5.50    1.10
   2   3   2    6.70    0.80
  -3  -3  -2    0.20    0.20
  -3  -3  -2    0.10    0.10
   3   3   2   -0.10    0.50
  -4  -3  -2  149.59   15.80
   4   3   2  154.98   16.00
  -6  -3  -2   63.59    7.30
   6   3   2   75.39    7.30
  -7  -3  -2  106.19   11.20
   7   3   2  109.39   11.30
  -8  -3  -2    0.00    0.20
   8   3   2   -0.20    0.20
  -9  -3  -2    0.10    0.20
   7  -4  -2   -0.20    0.10
   6  -4  -2    0.80    0.20
   5  -4  -2    2.00    0.40
   4  -4  -2   10.20    1.20
  -4   4   2    9.90    1.10
   3  -4  -2    4.00    0.50
  -3   4   2    3.70    0.50
  -3   4   2    3.60    0.80
  -2   4   2    1.80    0.50
  -2   4   2    2.50    0.30
   1  -4  -2    4.00    0.50
  -1   4   2    4.20    0.70
   0   4   2   20.20    2.20
  -1  -4  -2  131.99   15.10
   1   4   2  159.18   15.20
  -2  -4  -2   54.99    6.40
  -2  -4  -2   67.49    6.50
  -3  -4  -2   14.00    1.60
  -3  -4  -2   14.50    1.50
   3   4   2   12.60    2.00
  -4  -4  -2  106.29   10.80
   4   4   2  107.89   10.80
   4   4   2   96.39   11.00
   6   4   2   44.30    4.70
  -7  -4  -2   14.60    1.70
   7   4   2   15.30    1.70
  -8  -4  -2    0.00    0.20
   8   4   2    0.10    0.30
  -9  -4  -2    0.10    0.20
   9   4   2    0.30    0.10
   6  -5  -2   -0.10    0.20
   5  -5  -2   -0.20    0.20
   4  -5  -2    0.10    0.20
  -4   5   2    0.10    0.10
  -4   5   2    0.30    0.50
   3  -5  -2    9.70    1.30
  -3   5   2   10.90    1.50
  -3   5   2   10.00    1.10
   2  -5  -2   26.90    2.60
  -2   5   2   22.50    2.80
  -2   5   2   23.00    2.50
  -1   5   2    8.00    1.10
  -1   5   2    7.70    0.90
   0  -5  -2    0.00    0.10
   0   5   2   -0.20    0.30
  -1  -5  -2   71.09    7.60
  -1  -5  -2   73.49    7.50
  -2  -5  -2    9.50    1.10
  -2  -5  -2    8.30    0.90
   2   5   2    6.70    1.60
  -3  -5  -2  198.58   20.80
  -3  -5  -2  185.18   20.90
   3   5   2  202.88   21.30
   3   5   2  202.08   20.80
   3   5   2  229.68   21.20
   3   5   2  191.88   20.90
  -4  -5  -2    3.60    0.50
   4   5   2    3.10    0.50
   4   5   2    3.90    0.40
   4   5   2    4.70    1.40
   4   5   2    2.60    0.50
   4   5   2    3.10    0.70
   5   5   2    5.40    0.80
   5   5   2    6.50    1.60
   5   5   2    7.30    0.70
  -6  -5  -2    7.90    1.00
   6   5   2    8.60    1.00
  -7  -5  -2    3.30    0.50
   7   5   2    3.20    0.60
  -8  -5  -2    0.00    0.20
   8   5   2    0.10    0.10
   8   5   2    0.00    0.20
  -9  -5  -2    0.80    0.20
   9   5   2    0.50    0.10
   6  -6  -2    3.50    0.40
   5  -6  -2   -0.10    0.20
   4  -6  -2    0.20    0.20
  -4   6   2    1.50    0.80
  -4   6   2    0.10    0.10
   3  -6  -2    3.70    0.50
  -3   6   2    3.60    0.90
  -3   6   2    3.00    0.50
   2  -6  -2   10.10    1.00
  -2   6   2    8.60    1.30
  -2   6   2    7.40    1.00
  -1   6   2   38.00    4.40
  -1   6   2   46.70    4.70
   0  -6  -2   10.20    1.00
   0   6   2    9.20    1.10
   0   6   2    9.20    1.00
  -1  -6  -2   52.89    6.00
  -1  -6  -2   62.69    6.20
   1   6   2   59.89    6.10
   1   6   2   65.39    6.60
   1   6   2   55.39    6.00
   1   6   2   51.99    6.20
  -2  -6  -2    0.20    0.10
   2   6   2    0.50    0.20
   2   6   2    0.60    0.20
   2   6   2    1.00    0.90
   2   6   2    0.80    0.20
   2   6   2    0.60    0.40
   2   6   2    0.70    0.40
  -3  -6  -2   37.40    4.60
  -3  -6  -2   43.70    4.60
   3   6   2   46.90    5.40
   3   6   2   46.70    4.50
   3   6   2   44.30    4.70
   3   6   2   40.80    4.60
   3   6   2   46.20    4.60
   3   6   2   43.10    5.10
   5   6   2    1.10    0.30
   5   6   2    2.30    1.20
   5   6   2    1.30    0.20
   6   6   2    7.00    1.00
   6   6   2    9.60    1.00
  -7  -6  -2    1.30    0.30
   7   6   2    1.00    0.30
   7   6   2    1.40    0.20
  -8  -6  -2    2.20    0.30
   8   6   2    2.40    0.30
   4  -7  -2    0.10    0.20
  -4   7   2    0.20    0.10
   3  -7  -2    9.00    1.00
  -3   7   2    8.10    1.40
  -3   7   2    8.90    1.00
  -2   7   2   -0.10    0.40
  -2   7   2    0.10    0.10
  -1   7   2    1.80    0.30
  -1   7   2    1.30    0.40
  -1   7   2    1.70    1.00
   0  -7  -2   20.40    2.30
   0   7   2   24.20    2.90
   0   7   2   16.50    2.00
   0   7   2   18.10    2.10
   0   7   2   19.70    2.50
  -1  -7  -2    3.40    0.80
   1   7   2    4.50    0.90
   1   7   2    2.90    0.40
   1   7   2    3.50    0.70
   1   7   2    5.20    1.50
   1   7   2    4.10    0.50
  -2  -7  -2   10.70    1.60
   2   7   2   10.80    1.30
   2   7   2   14.00    1.40
   2   7   2   13.80    1.60
   3   7   2    2.00    0.40
   3   7   2    1.50    0.40
   3   7   2    2.40    1.30
   3   7   2    1.60    0.60
   3   7   2    1.80    0.40
   4   7   2   16.20    1.70
   4   7   2   14.80    1.70
   4   7   2   13.70    1.80
   4   7   2   16.40    2.00
   4   7   2   17.50    2.60
   5   7   2    0.30    0.10
   5   7   2    0.20    0.30
   5   7   2    0.50    1.10
   6   7   2    0.30    0.10
   6   7   2    0.20    0.30
   7   7   2    8.30    1.10
   7   7   2   10.40    1.00
   8   7   2    0.20    0.20
   8   7   2    0.40    0.10
   4  -8  -2    5.50    0.60
  -4   8   2    5.40    0.70
  -3   8   2    1.40    0.40
  -3   8   2    0.20    0.60
  -3   8   2    1.60    0.20
  -2   8   2    9.80    1.20
  -2   8   2    9.80    1.10
  -2   8   2    8.70    1.60
  -1   8   2    5.20    0.90
  -1   8   2    6.70    1.50
  -1   8   2    5.20    0.60
  -1   8   2    4.40    1.20
   0   8   2    3.00    0.80
   0   8   2    3.70    1.00
   0   8   2    4.20    0.50
   0   8   2    3.70    0.70
   1   8   2    4.00    1.00
   1   8   2    6.40    0.80
   1   8   2    6.30    1.30
   1   8   2    5.90    0.70
   1   8   2    8.70    2.00
   2   8   2    4.30    0.70
   2   8   2    4.80    0.60
   2   8   2    5.90    1.10
   2   8   2    5.90    0.80
   2   8   2    5.30    1.70
   3   8   2   20.90    2.30
   3   8   2   16.20    2.00
   3   8   2   17.00    1.90
   3   8   2   17.40    2.00
   3   8   2   20.50    2.90
   4   8   2    3.10    0.50
   4   8   2    2.40    0.50
   4   8   2    2.30    1.30
   4   8   2    2.70    0.70
   4   8   2    3.60    0.40
   5   8   2   11.30    1.50
   5   8   2   14.30    1.40
   6   8   2    0.90    0.20
   6   8   2    0.90    0.30
   7   8   2    0.10    0.20
   7   8   2    0.20    0.10
  -3   9   2   21.40    2.50
  -3   9   2   22.20    2.40
  -2   9   2   -0.30    0.50
  -2   9   2    0.10    0.10
  -2   9   2    0.00    0.30
  -1   9   2    1.70    0.70
  -1   9   2    1.00    0.40
  -1   9   2    1.90    0.30
   0   9   2    1.40    0.40
   0   9   2    1.90    0.80
   0   9   2    1.60    0.30
   1   9   2    1.20    0.20
   1   9   2    0.80    0.30
   1   9   2    1.60    0.70
   1   9   2    2.20    1.40
   2   9   2    1.60    1.40
   2   9   2    1.30    0.20
   2   9   2    1.00    0.40
   2   9   2    1.50    0.30
   2   9   2    0.70    0.60
   3   9   2    0.10    0.10
   3   9   2    0.10    0.70
   3   9   2    0.40    1.10
   3   9   2    0.00    0.20
   3   9   2   -0.30    0.30
   4   9   2    0.80    1.10
   4   9   2    0.20    0.10
   4   9   2    0.50    0.30
   5   9   2    3.60    0.50
   5   9   2    1.80    1.00
   5   9   2    3.00    0.40
   6   9   2    1.60    0.30
   7   9   2    0.10    0.20
  -2  10   2    0.10    0.30
  -2  10   2    0.20    0.20
  -1  10   2    0.00    0.10
  -1  10   2    0.20    0.40
  -1  10   2    0.00    0.20
   0  10   2   -0.20    0.50
   0  10   2    0.10    0.30
   0  10   2   -0.20    0.10
   1  10   2    0.20    0.10
   1  10   2    0.50    0.60
   1  10   2   -0.10    0.30
   2  10   2   10.40    1.20
   2  10   2   13.10    1.40
   3  10   2    5.20    0.70
   3  10   2    7.40    1.60
   3  10   2    8.50    1.40
   3  10   2    6.10    0.90
   4  10   2    3.90    0.60
   4  10   2    5.70    1.40
   5  10   2    0.40    0.20
   1  11   2    1.10    0.30
   1  11   2    1.40    0.50
   2  11   2    1.50    0.50
   4  10  -3    0.20    0.20
   4  10  -3    0.50    0.60
   3  10  -3    0.20    0.20
   3  10  -3   -0.20    0.80
   2  10  -3    1.10    0.40
   2  10  -3    0.80    1.10
   2  10  -3    1.30    0.30
   1  10  -3    0.10    1.50
   1  10  -3   -0.50    0.40
   1  10  -3    0.00    0.30
   0  10  -3    0.00    0.20
   0  10  -3   -0.40    0.90
   0  10  -3    0.20    0.50
   0  10  -3   -0.20    0.30
  -1  10  -3    0.30    1.10
  -1  10  -3   -0.10    0.20
  -1  10  -3   -0.20    0.30
  -1  10  -3   -0.10    0.20
   5   9  -3    0.40    0.20
   5   9  -3    0.80    0.60
   4   9  -3    0.20    1.20
   4   9  -3    0.60    0.30
   3   9  -3    1.00    1.30
   3   9  -3    4.50    0.60
   2   9  -3   25.00    2.80
   2   9  -3   26.20    3.60
   2   9  -3   26.00    2.80
   1   9  -3    2.50    0.50
   1   9  -3    2.90    1.60
   1   9  -3    2.60    0.50
   1   9  -3    3.30    0.90
   0   9  -3    0.90    0.60
   0   9  -3    1.20    1.50
   0   9  -3    0.50    0.40
   0   9  -3    1.00    0.30
  -1   9  -3   25.60    2.70
  -1   9  -3   23.30    2.40
  -1   9  -3   17.30    3.20
  -1   9  -3   21.60    2.50
  -2   9  -3    3.40    0.60
  -2   9  -3    5.00    0.70
  -2   9  -3    5.20    0.90
  -3   9  -3    0.30    0.30
  -3   9  -3    1.10    0.40
  -4   9  -3    2.70    0.50
   6   8  -3    0.10    0.20
   5   8  -3    0.20    0.90
   5   8  -3    0.40    0.20
   4   8  -3    0.10    0.20
   4   8  -3   -0.10    0.90
   3   8  -3   -0.30    1.20
   3   8  -3    0.10    0.30
   3   8  -3    0.30    0.30
   2   8  -3  246.98   26.30
   2   8  -3  253.57   26.10
   2   8  -3  262.17   26.10
   2   8  -3  245.98   26.70
   1   8  -3    9.00    2.30
   1   8  -3   14.40    1.50
   1   8  -3   13.10    1.90
   1   8  -3   12.30    1.50
   0   8  -3   10.30    1.40
   0   8  -3   12.80    1.80
   0   8  -3   10.00    1.30
  -1   8  -3   36.40    5.50
  -1   8  -3   51.99    5.10
  -1   8  -3   45.50    4.80
  -1   8  -3   45.70    4.90
  -2   8  -3    1.80    0.70
  -2   8  -3    0.30    0.50
  -2   8  -3    1.60    1.50
  -2   8  -3    1.30    0.40
  -3   8  -3    1.00    0.30
  -3   8  -3    0.40    0.50
   3  -8   3    1.00    0.20
  -4   8  -3    0.90    0.50
   4  -8   3    1.90    0.30
  -5   8  -3    0.40    0.30
   5  -8   3    1.90    0.30
   6   7  -3    4.10    0.60
   5   7  -3    0.20    0.20
   5   7  -3    0.10    0.80
  -5  -7   3    0.50    0.30
   3   7  -3   97.69   10.30
   3   7  -3  100.19   10.90
   3   7  -3   97.39   11.50
   2   7  -3   66.59    8.00
   2   7  -3   76.39    7.40
   2   7  -3   60.19    8.50
   2   7  -3   70.09    7.50
   2   7  -3   73.79    7.40
   1   7  -3   56.59    6.10
   1   7  -3   59.99    6.30
   1   7  -3   56.79    6.10
   0   7  -3    4.00    0.80
   0   7  -3    6.30    1.20
   0   7  -3    5.20    0.70
  -1   7  -3    7.30    1.10
  -2   7  -3    3.00    0.50
  -2   7  -3    3.20    0.90
  -3   7  -3    1.50    0.40
  -3   7  -3    1.40    0.70
   3  -7   3    1.80    0.30
  -4   7  -3    1.10    0.60
  -4   7  -3    1.70    0.30
   4  -7   3    1.30    0.30
  -5   7  -3   32.00    3.60
   5  -7   3   33.10    3.40
   6  -7   3    0.10    0.10
   7   6  -3    2.50    0.30
   6   6  -3   -0.20    0.20
  -6  -6   3    0.00    0.20
   5   6  -3    7.90    1.60
   5   6  -3   10.50    1.10
  -5  -6   3    8.70    1.10
   4   6  -3   -0.70    1.40
   4   6  -3    0.70    1.10
   4   6  -3    0.80    0.30
  -4  -6   3    0.80    0.20
   3   6  -3    1.50    0.40
   3   6  -3    2.70    0.40
   3   6  -3    3.30    1.80
   3   6  -3    1.30    1.10
   2   6  -3    0.30    1.50
   2   6  -3    0.50    0.50
   2   6  -3    0.20    0.20
   2   6  -3    0.30    0.20
   1   6  -3    8.90    1.30
   1   6  -3    9.30    1.10
   1   6  -3    9.00    1.10
   0   6  -3   22.60    2.40
   0   6  -3   19.50    2.40
   0   6  -3   26.60    2.70
  -1   6  -3    2.60    0.40
  -1   6  -3    0.40    1.40
  -2   6  -3    0.50    0.60
  -2   6  -3    0.00    0.30
  -3   6  -3   13.20    1.90
  -3   6  -3   12.20    1.90
   3  -6   3   16.60    1.60
  -4   6  -3  164.18   18.70
   4  -6   3  189.68   18.40
  -5   6  -3   -0.10    0.40
   5  -6   3   -0.10    0.10
  -6   6  -3    1.50    0.40
   6  -6   3    0.30    0.20
   7  -6   3    0.00    0.10
   7   5  -3    1.30    0.30
  -7  -5   3    1.10    0.30
   6   5  -3    1.00    0.30
  -6  -5   3    0.70    0.30
   5   5  -3    2.00    1.50
   5   5  -3    0.90    0.80
   5   5  -3    1.80    0.40
  -5  -5   3    1.30    0.30
   4   5  -3    4.70    0.70
   4   5  -3    5.40    1.80
   4   5  -3    6.60    2.10
   3   5  -3   34.10    4.10
   3   5  -3   48.20    5.30
  -3  -5   3   37.40    4.00
   2   5  -3   22.30    2.90
   2   5  -3   27.80    2.80
   2   5  -3   21.20    3.80
   2   5  -3   30.20    2.80
   1   5  -3    2.20    0.40
   1   5  -3    2.60    0.50
   1   5  -3    0.90    1.40
  -2   5  -3    0.00    1.00
  -4   5  -3    2.30    0.70
   4  -5   3    2.60    0.40
  -5   5  -3    6.20    1.10
   5  -5   3    4.70    0.70
   6  -5   3    1.80    0.40
   7  -5   3   -0.30    0.20
  -8  -4   3    6.50    0.70
  -7  -4   3    1.90    0.40
   6   4  -3   15.90    1.80
  -6  -4   3   16.80    1.80
   5   4  -3    6.10    2.00
   5   4  -3    4.90    0.60
  -5  -4   3    3.50    0.60
   4   4  -3   39.80    4.70
   4   4  -3   43.50    4.40
   4   4  -3   39.40    5.20
   3   4  -3    4.00    1.50
   3   4  -3    4.40    0.50
  -3  -4   3    3.00    0.40
   2   4  -3   -0.40    1.10
   1   4  -3   31.70    4.20
   1   4  -3   26.90    3.10
  -1  -4   3   30.70    3.10
   0   4  -3    4.80    0.60
   0   4  -3    3.50    1.60
  -1   4  -3   58.79    6.20
   3  -4   3    2.00    0.30
  -4   4  -3    0.00    0.40
   4  -4   3    0.00    0.20
  -5   4  -3    4.00    0.50
   5  -4   3    3.50    0.50
  -6   4  -3   14.60    1.70
   6  -4   3   16.20    1.80
   7  -4   3    2.40    0.40
   8  -4   3    1.70    0.30
  -8  -3   3    0.20    0.20
  -7  -3   3   -0.10    0.20
   6   3  -3    3.30    2.20
   5   3  -3   -0.60    1.40
   5   3  -3    0.70    0.30
  -5  -3   3    0.00    0.20
   4   3  -3   12.70    1.30
   4   3  -3   11.80    1.20
   4   3  -3   13.90    2.60
  -4  -3   3    9.90    1.30
  -4  -3   3   10.10    1.30
   3   3  -3   -0.40    1.00
  -3  -3   3    0.20    0.10
  -2  -3   3   27.50    2.90
   1   3  -3    9.40    2.10
   1   3  -3    6.20    0.70
  -1  -3   3    5.70    0.70
   0   3  -3  129.89   12.50
   0   3  -3  114.79   12.00
   0   3  -3  104.69   12.00
  -1   3  -3  116.39   12.10
  -3   3  -3    4.50    0.80
  -4   3  -3   -0.10    0.30
   4  -3   3   -0.10    0.10
  -5   3  -3    0.20    0.40
  -5   3  -3    0.40    0.20
   5  -3   3    0.10    0.20
  -6   3  -3    1.60    0.70
  -6   3  -3    1.70    0.40
   6  -3   3    1.70    0.30
  -7   3  -3   15.20    1.70
   7  -3   3   14.50    1.60
   8  -3   3   -0.10    0.20
  -8  -2   3    0.10    0.20
  -7  -2   3    0.50    0.30
   6   2  -3    0.90    0.20
   6   2  -3    0.80    1.40
  -6  -2   3    0.70    0.30
   5   2  -3    7.20    2.00
   5   2  -3    4.10    0.50
  -5  -2   3    3.80    0.60
   4   2  -3    1.50    0.30
   4   2  -3    2.00    1.40
  -4  -2   3    1.40    0.30
  -3  -2   3   31.40    3.30
   1   2  -3  139.39   14.90
   1   2  -3  149.29   14.90
   0   2  -3   49.40    5.30
   0   2  -3   49.60    5.40
   0   2  -3   54.19    5.30
  -1   2  -3    8.40    0.90
  -1   2  -3   10.10    2.00
  -2   2  -3   22.00    2.20
  -2   2  -3   18.30    2.80
  -3   2  -3    8.20    0.90
  -4   2  -3    4.60    0.60
  -4   2  -3    3.90    0.50
   4  -2   3    4.60    0.50
  -5   2  -3   10.00    1.70
  -5   2  -3   13.50    1.40
   5  -2   3   13.90    1.40
  -6   2  -3    1.90    0.40
  -6   2  -3    1.20    0.70
   6  -2   3    1.60    0.30
  -7   2  -3    9.60    1.20
  -7   2  -3   11.20    1.50
   7  -2   3    8.50    1.10
  -8   2  -3    0.00    0.20
   8  -2   3   -0.20    0.10
   9  -2   3    0.30    0.10
  -8  -1   3    0.00    0.20
   7   1  -3    0.00    0.10
  -7  -1   3   -0.20    0.20
   6   1  -3    2.40    0.40
   6   1  -3   -0.10    1.50
  -6  -1   3    2.60    0.50
   5   1  -3  120.19   13.20
  -5  -1   3  135.29   13.30
   4   1  -3    1.40    0.30
   4   1  -3    3.60    1.50
  -4  -1   3    1.10    0.30
  -4  -1   3    1.50    0.30
  -3  -1   3   59.49    6.10
  -3  -1   3   56.69    6.00
  -2  -1   3   53.39    6.10
  -2  -1   3   63.79    6.10
   1   1  -3   52.49    5.50
  -2   1  -3   16.30    2.20
  -2   1  -3   18.00    1.80
  -3   1  -3   17.00    1.80
  -4   1  -3   43.50    4.50
  -5   1  -3   22.90    2.30
  -5   1  -3   20.80    2.40
   5  -1   3   21.60    2.30
  -6   1  -3    5.30    0.70
   6  -1   3    4.70    0.60
  -7   1  -3   12.20    2.00
  -7   1  -3   15.10    1.60
   7  -1   3   13.90    1.50
  -8   1  -3   -0.30    0.30
   8  -1   3   -0.10    0.10
  -9   1  -3    5.10    0.60
   9  -1   3    5.50    0.60
  -8   0   3    0.10    0.10
   7   0  -3    0.70    0.20
  -7   0   3    0.70    0.30
   6   0  -3   13.60    1.50
  -6   0   3   14.20    1.60
   5   0  -3   77.09    9.10
  -5   0   3   97.49    9.30
  -5   0   3   87.09    9.10
   4   0  -3   21.20    2.30
  -4   0   3   22.90    2.40
  -4   0   3   21.10    2.50
  -3   0   3   35.40    3.60
  -3   0   3   33.40    3.70
  -2   0   3   19.10    2.10
  -2   0   3   19.60    2.00
   1   0  -3    0.60    0.10
   1   0  -3    0.60    0.20
  -1   0   3    0.60    0.20
   0   0  -3    6.80    0.80
   0   0   3    5.30    0.70
   1   0   3  253.27   26.20
  -3   0  -3   40.10    4.90
  -3   0  -3   51.59    4.80
  -5   0  -3  218.28   23.70
  -5   0  -3  233.78   23.70
   5   0   3  235.78   23.70
   6   0   3    0.90    0.40
   6   0   3    1.70    0.30
  -7   0  -3    1.10    0.60
  -7   0  -3    1.20    0.30
   7   0   3    0.90    0.20
  -8   0  -3    0.70    0.30
   8   0   3    0.50    0.20
  -9   0  -3    0.00    0.20
   7  -1  -3   -0.30    0.10
  -7   1   3    0.20    0.20
   6  -1  -3    0.40    0.20
  -6   1   3    0.50    0.30
   5  -1  -3   11.80    1.50
  -5   1   3   13.40    1.60
  -5   1   3   16.70    1.80
   4  -1  -3    4.40    0.60
  -4   1   3    4.70    0.80
  -4   1   3    7.80    1.00
  -4   1   3    6.00    0.60
   3  -1  -3    0.00    0.10
  -3   1   3    0.00    0.30
  -3   1   3    0.10    0.20
  -2   1   3   20.40    2.30
   1  -1  -3  107.69   11.10
   0  -1  -3   98.79   10.30
  -4  -1  -3   52.79    5.50
  -5  -1  -3   54.29    6.10
  -5  -1  -3   60.09    6.10
   5   1   3   54.49    6.10
   5   1   3   62.99    6.10
  -6  -1  -3    0.20    0.20
   6   1   3    0.50    0.20
   6   1   3    0.20    0.30
  -7  -1  -3    1.30    0.40
   7   1   3    1.50    0.50
  -8  -1  -3   -0.20    0.20
   8   1   3    0.20    0.10
  -9  -1  -3    0.00    0.20
   7  -2  -3    8.40    1.00
  -7   2   3    7.60    0.90
   6  -2  -3   13.00    1.60
  -6   2   3   16.30    1.70
   5  -2  -3    0.90    0.30
  -5   2   3    1.00    0.30
   4  -2  -3    6.60    0.90
  -4   2   3    8.10    0.90
  -4   2   3    6.50    1.10
  -4   2   3    7.80    0.80
   3  -2  -3   86.09    8.40
  -3   2   3   74.19    8.30
  -3   2   3   87.19    8.30
  -3   2   3   71.89    8.40
  -2   2   3    0.10    0.30
   1  -2  -3    3.60    0.40
  -1   2   3    3.40    0.60
   0  -2  -3   21.50    2.40
  -1  -2  -3   27.10    3.20
   1   2   3   32.00    3.20
  -3  -2  -3   13.70    1.60
  -3  -2  -3   14.10    1.50
  -4  -2  -3   18.70    2.30
  -4  -2  -3   20.60    2.10
  -5  -2  -3   32.20    3.70
  -5  -2  -3   36.90    3.70
   5   2   3   35.70    3.70
  -6  -2  -3    8.30    1.00
   6   2   3    9.20    1.10
  -7  -2  -3   44.20    4.80
   7   2   3   45.70    4.80
  -8  -2  -3    1.50    0.40
   8   2   3    0.50    0.30
  -9  -2  -3    1.60    0.40
   7  -3  -3    0.00    0.10
  -6   3   3    3.30    0.40
   5  -3  -3    5.10    0.70
  -5   3   3    4.50    0.60
   4  -3  -3    3.10    0.50
  -4   3   3    2.70    0.40
  -4   3   3    3.30    0.80
   3  -3  -3   12.40    1.30
  -3   3   3   10.80    1.50
  -3   3   3   12.10    1.30
  -2   3   3   41.90    4.70
  -2   3   3   45.30    4.50
  -1   3   3  126.19   13.20
   0   3   3    0.50    0.30
  -2  -3  -3   57.49    6.10
   2   3   3   57.69    6.10
  -3  -3  -3   17.80    1.90
  -3  -3  -3   14.40    1.70
  -4  -3  -3   12.70    1.60
  -4  -3  -3   13.10    1.40
  -5  -3  -3   24.00    2.80
  -5  -3  -3   27.40    2.80
   5   3   3   27.80    2.90
  -6  -3  -3   10.80    1.40
   6   3   3   13.40    1.40
  -7  -3  -3  185.88   19.50
   7   3   3  189.98   19.50
  -8  -3  -3    0.30    0.20
   8   3   3    0.30    0.30
  -9  -3  -3    3.30    0.50
   6  -4  -3    2.10    0.40
   5  -4  -3    1.20    0.30
   4  -4  -3    0.40    0.20
  -4   4   3    0.20    0.50
  -4   4   3    0.30    0.10
   3  -4  -3   21.20    2.20
  -3   4   3   18.50    2.10
   2  -4  -3    0.40    0.10
  -2   4   3    0.00    0.30
  -2   4   3    0.10    0.10
  -1   4   3    3.00    0.70
  -1   4   3    3.60    0.40
   0   4   3  151.88   15.80
  -1  -4  -3    0.10    0.30
   1   4   3    0.50    0.30
  -2  -4  -3   85.59    8.90
   2   4   3   84.69    8.90
  -3  -4  -3  109.69   10.50
  -3  -4  -3   90.19   10.40
  -4  -4  -3   37.70    4.20
  -4  -4  -3   35.50    4.30
   4   4   3   43.70    4.30
   4   4   3   47.00    4.80
  -5  -4  -3    0.90    0.20
   5   4   3    1.00    0.30
   6   4   3   17.40    2.00
  -7  -4  -3   16.50    1.90
   7   4   3   17.40    1.90
  -8  -4  -3    1.20    0.30
   8   4   3    0.90    0.40
  -9  -4  -3    0.20    0.20
   9   4   3    0.50    0.10
   6  -5  -3    0.20    0.20
   5  -5  -3    1.40    0.30
   4  -5  -3    6.50    0.80
  -4   5   3    6.00    0.70
  -4   5   3    6.20    1.30
   3  -5  -3   10.50    1.30
  -3   5   3   11.10    1.60
  -3   5   3   10.60    1.20
   2  -5  -3    0.30    0.10
  -2   5   3   -0.10    0.30
  -2   5   3    0.00    0.10
  -1   5   3    2.30    0.30
  -1   5   3    1.80    0.50
   0   5   3   36.80    3.90
  -1  -5  -3    0.60    0.40
   1   5   3    1.30    0.20
   1   5   3    2.30    0.50
  -2  -5  -3   12.60    1.50
   2   5   3   10.10    1.30
   2   5   3   11.90    2.00
   2   5   3   12.40    1.50
  -3  -5  -3   27.30    3.20
  -3  -5  -3   30.30    3.30
   3   5   3   34.30    3.20
   3   5   3   29.60    3.20
   3   5   3   30.60    3.30
  -4  -5  -3   10.00    1.10
   4   5   3   10.10    1.20
   4   5   3   10.40    1.90
   4   5   3    9.50    1.40
   5   5   3   62.39    7.10
   5   5   3   72.79    6.50
   5   5   3   52.59    6.60
  -6  -5  -3    2.70    0.40
   6   5   3    2.20    0.50
  -7  -5  -3    0.90    0.30
   7   5   3    0.80    0.50
   7   5   3    1.20    0.20
  -8  -5  -3    0.00    0.20
   8   5   3    0.20    0.10
   8   5   3   -0.20    0.20
  -9  -5  -3    3.10    0.40
   9   5   3    2.20    0.30
   5  -6  -3    0.20    0.20
   4  -6  -3    2.30    0.40
  -4   6   3    3.10    0.40
   3  -6  -3    6.40    0.80
  -3   6   3    7.10    1.20
  -3   6   3    6.90    0.80
   2  -6  -3   21.40    2.40
  -2   6   3   21.50    2.40
  -2   6   3   25.40    2.80
  -1   6   3    1.40    0.30
  -1   6   3    1.30    0.50
   0  -6  -3    2.70    0.60
   0   6   3    3.60    0.70
   0   6   3    2.60    0.40
   0   6   3    3.60    0.50
   0   6   3    3.00    1.00
  -1  -6  -3   23.40    2.80
  -1  -6  -3   24.90    2.60
   1   6   3   19.50    2.70
   1   6   3   26.90    2.60
   1   6   3   23.90    2.60
   1   6   3   27.50    3.20
  -2  -6  -3    1.20    0.20
  -2  -6  -3    0.50    0.40
   2   6   3    2.50    1.10
   2   6   3    1.40    0.40
   2   6   3    1.50    0.30
   2   6   3    1.30    0.20
   2   6   3    1.20    0.40
   2   6   3    1.50    0.30
  -3  -6  -3   45.10    4.80
  -3  -6  -3   44.50    4.90
   3   6   3   46.90    5.00
   3   6   3   43.90    4.80
   3   6   3   45.40    4.80
   3   6   3   44.00    5.30
   3   6   3   48.70    4.80
   4   6   3    0.70    0.30
   4   6   3    0.60    0.30
   4   6   3    0.60    0.50
   4   6   3    0.80    0.20
   4   6   3    1.10    1.30
   5   6   3    4.90    1.60
   5   6   3    8.80    0.90
   5   6   3    7.90    1.00
   6   6   3    1.60    0.20
   6   6   3    0.70    0.30
  -7  -6  -3    0.20    0.10
   7   6   3    0.20    0.30
   7   6   3    0.20    0.10
   8   6   3    0.10    0.20
   8   6   3    0.00    0.10
   9   6   3    0.30    0.10
   5  -7  -3    0.30    0.10
  -5   7   3   -0.30    0.40
   3  -7  -3    2.40    0.40
  -3   7   3    2.30    0.30
  -3   7   3    2.10    0.40
  -2   7   3    6.10    0.80
  -2   7   3    6.40    0.90
  -1   7   3    9.40    1.10
  -1   7   3    8.80    1.00
   0  -7  -3    1.70    0.60
   0   7   3    0.30    0.70
   0   7   3    0.50    1.10
   0   7   3    1.50    0.30
   0   7   3    1.10    0.60
   0   7   3    1.10    0.30
  -1  -7  -3    6.70    1.20
   1   7   3   10.10    2.00
   1   7   3    8.10    1.00
   1   7   3    7.20    0.90
   1   7   3    7.50    1.30
  -2  -7  -3    2.80    0.70
   2   7   3    3.80    0.80
   2   7   3    4.00    0.60
   2   7   3    5.10    0.70
   2   7   3    4.50    0.90
   2   7   3    3.60    0.50
   3   7   3    9.20    1.20
   3   7   3   10.10    2.00
   3   7   3    9.10    1.20
   3   7   3   10.80    1.40
   3   7   3   10.70    1.10
   4   7   3   10.80    1.60
   4   7   3   10.60    1.30
   4   7   3   12.10    1.20
   4   7   3   12.90    2.20
   4   7   3    9.90    1.40
   5   7   3    0.00    0.10
   5   7   3    0.20    1.00
   5   7   3    0.00    0.30
   6   7   3    0.90    0.20
   6   7   3    0.70    0.30
   7   7   3    1.00    0.30
   7   7   3    1.40    0.20
   8   7   3    1.10    0.20
   8   7   3    0.70    0.30
  -4   8   3   -0.50    0.40
  -3   8   3    1.10    0.20
  -3   8   3    0.00    0.60
  -3   8   3    0.60    0.20
  -2   8   3   22.00    3.10
  -2   8   3   30.60    2.80
  -2   8   3   24.30    2.70
  -1   8   3    0.10    0.10
  -1   8   3   -0.80    0.60
  -1   8   3   -0.10    0.30
   0   8   3   10.30    1.70
   0   8   3   11.70    1.30
   0   8   3    9.50    1.20
   1   8   3    2.40    0.40
   1   8   3    1.70    0.70
   1   8   3    3.00    1.50
   1   8   3    2.50    0.80
   1   8   3    2.00    0.30
   2   8   3    0.20    0.50
   2   8   3    0.10    0.20
   2   8   3   -0.10    0.30
   2   8   3    1.70    1.40
   3   8   3    4.80    1.70
   3   8   3    1.50    0.40
   3   8   3    2.20    0.30
   3   8   3    2.90    0.50
   3   8   3    2.60    0.70
   4   8   3   15.80    1.50
   4   8   3   13.70    1.60
   4   8   3   11.50    2.40
   4   8   3   13.50    1.70
   4   8   3   15.30    1.90
   5   8   3    2.10    0.50
   5   8   3    4.70    1.40
   5   8   3    2.60    0.30
   6   8   3    0.10    0.20
   6   8   3   -0.10    0.10
   7   8   3    1.80    0.20
   7   8   3    1.10    0.40
  -3   9   3   12.00    1.50
  -2   9   3    2.30    0.30
  -2   9   3    2.60    0.80
  -1   9   3   10.20    1.40
  -1   9   3    7.30    0.90
   0   9   3   -0.10    0.60
   0   9   3   -0.20    0.30
   0   9   3    0.00    0.10
   1   9   3    0.90    0.20
   1   9   3    0.50    0.30
   1   9   3    0.80    0.60
   2   9   3    0.40    0.50
   2   9   3   -0.10    0.30
   2   9   3    0.40    0.20
   2   9   3    2.30    1.50
   3   9   3    0.10    0.30
   3   9   3    0.00    0.20
   3   9   3    0.10    0.10
   3   9   3    0.10    1.00
   3   9   3   -0.20    0.50
   4   9   3    8.00    1.90
   4   9   3    9.60    1.10
   4   9   3   10.50    1.10
   5   9   3    6.10    0.70
   5   9   3    5.10    0.70
   6   9   3    1.10    0.30
   6   9   3    1.20    0.20
   7   9   3    0.20    0.20
  -1  10   3    1.90    0.30
  -1  10   3    1.70    0.30
  -1  10   3    2.20    0.50
   0  10   3    0.20    0.10
   0  10   3   -0.10    0.20
   0  10   3    0.00    0.40
   1  10   3    1.90    0.60
   1  10   3    1.50    0.20
   1  10   3    0.80    0.30
   2  10   3    4.20    0.80
   2  10   3    2.80    0.50
   2  10   3    3.00    0.40
   3  10   3    1.30    0.20
   3  10   3    1.60    0.60
   4  10   3   19.60    1.90
   4  10   3   16.20    1.90
   5  10   3    4.50    0.60
   3  10  -4    0.70    0.20
   3  10  -4    0.50    0.90
   2  10  -4    0.80    1.00
   2  10  -4    0.70    0.30
   1  10  -4    3.30    1.30
   1  10  -4    1.90    0.40
   1  10  -4    3.10    0.40
   0  10  -4    4.20    0.60
   0  10  -4    3.90    0.60
  -1  10  -4    1.30    0.80
  -1  10  -4    1.10    0.30
  -2  10  -4    3.90    0.50
   4   9  -4    0.10    0.70
   4   9  -4    0.10    0.20
   3   9  -4   -0.10    1.20
   3   9  -4    0.50    0.30
   2   9  -4    0.70    0.30
   2   9  -4    0.50    0.30
   2   9  -4   -0.20    1.20
   1   9  -4   -1.20    1.30
   1   9  -4   -0.30    0.30
   1   9  -4    0.10    0.30
   0   9  -4   -0.20    0.30
   0   9  -4   -0.10    0.30
   0   9  -4   -0.20    1.40
   0   9  -4    0.30    0.60
  -1   9  -4    0.60    0.50
  -1   9  -4    0.90    1.40
  -1   9  -4    0.40    0.30
  -1   9  -4    0.60    0.30
  -2   9  -4   14.70    1.80
  -2   9  -4   14.40    1.70
  -2   9  -4   15.10    1.70
  -3   9  -4   -0.50    0.40
  -3   9  -4   -0.40    0.20
  -3   9  -4    0.00    0.20
  -4   9  -4    1.00    0.30
   5   8  -4    1.80    0.70
   5   8  -4    0.80    0.30
   4   8  -4   15.30    1.70
   4   8  -4   16.70    2.30
   3   8  -4    0.00    0.20
   3   8  -4   -0.10    1.30
   2   8  -4   14.60    1.80
   2   8  -4   18.20    1.80
   2   8  -4   14.80    2.80
   1   8  -4   17.80    3.00
   1   8  -4   18.30    2.10
   1   8  -4   13.50    2.90
   1   8  -4   20.70    2.20
   0   8  -4   28.00    3.00
   0   8  -4   27.10    3.10
   0   8  -4   24.30    4.30
  -1   8  -4   -0.40    0.30
  -1   8  -4    0.20    0.60
  -1   8  -4   -0.50    1.00
  -1   8  -4    0.00    0.30
  -2   8  -4    6.10    1.00
  -2   8  -4    8.60    1.00
  -3   8  -4   -0.10    0.20
  -3   8  -4    0.50    0.40
   3  -8   4   -0.40    0.20
  -4   8  -4    0.30    0.40
  -4   8  -4    0.10    0.20
  -4   8  -4   -0.40    0.30
   4  -8   4   -0.10    0.10
   6   7  -4   -0.10    0.10
  -6  -7   4    0.50    0.10
   5   7  -4   -0.10    0.20
   5   7  -4    0.40    0.70
  -5  -7   4    0.20    0.20
   4   7  -4    0.10    1.00
   4   7  -4    0.50    0.20
  -4  -7   4    0.30    0.20
   2   7  -4    1.50    1.30
   2   7  -4    4.20    2.00
   2   7  -4    4.70    0.60
   2   7  -4    3.20    0.60
   1   7  -4    5.70    1.10
   1   7  -4    5.80    0.80
   1   7  -4    5.70    0.80
   0   7  -4    0.60    0.70
   0   7  -4    0.80    0.40
   0   7  -4    0.80    1.40
   0   7  -4    1.30    0.40
  -1   7  -4    3.30    0.80
  -1   7  -4    2.30    0.50
  -1   7  -4    1.20    0.50
  -1   7  -4    0.70    1.50
  -2   7  -4    6.60    0.90
  -2   7  -4    5.80    1.20
  -3   7  -4    7.90    1.70
   3  -7   4    9.10    1.10
  -4   7  -4    0.40    0.40
  -4   7  -4    0.30    0.30
   4  -7   4    0.40    0.20
  -5   7  -4   22.50    2.40
   6  -7   4    1.10    0.20
  -7  -6   4    0.30    0.10
   6   6  -4   -0.10    0.20
  -6  -6   4   -0.10    0.10
   5   6  -4    0.00    0.70
   5   6  -4    0.00    0.20
  -5  -6   4    0.00    0.20
   4   6  -4   -0.10    0.20
   4   6  -4    1.00    1.30
   4   6  -4   -0.20    0.90
  -4  -6   4   -0.30    0.20
   3   6  -4    0.70    1.40
   3   6  -4    0.40    1.10
   2   6  -4  320.77   34.20
   2   6  -4  349.67   33.20
   2   6  -4  316.47   33.30
  -2  -6   4  295.47   33.10
   1   6  -4   30.20    3.80
   1   6  -4   35.80    5.20
   1   6  -4   39.50    3.70
   1   6  -4   33.90    3.90
   0   6  -4    4.70    0.70
   0   6  -4    4.20    0.70
   0   6  -4    5.80    1.00
  -1   6  -4    0.90    0.60
  -1   6  -4    1.00    1.30
   1  -6   4    1.20    0.30
  -3   6  -4    0.20    0.50
   3  -6   4    0.10    0.20
  -4   6  -4   11.00    1.40
   4  -6   4    9.30    1.10
   5  -6   4    0.00    0.20
   6  -6   4    7.40    0.90
   7  -6   4    2.50    0.30
  -7  -5   4    0.00    0.10
   6   5  -4    0.70    0.20
  -6  -5   4    0.90    0.30
   5   5  -4   46.80    4.60
  -5  -5   4   41.00    4.60
   4   5  -4    3.10    1.20
   4   5  -4   10.20    2.60
   4   5  -4    6.30    0.70
  -4  -5   4    4.70    0.70
   3   5  -4   35.30    4.90
  -3  -5   4   32.50    3.50
   2   5  -4   54.19    5.90
   2   5  -4   59.29    5.90
   2   5  -4   54.09    7.00
   1   5  -4   54.49    5.80
   1   5  -4   63.69    5.80
   1   5  -4   44.40    6.80
   0   5  -4   61.19    7.10
   0   5  -4   75.19    7.30
  -1   5  -4   -0.30    1.20
  -2   5  -4   15.90    1.90
   3  -5   4    9.70    1.10
  -4   5  -4    1.30    0.60
   4  -5   4    1.70    0.30
   6  -5   4    0.40    0.20
   7  -5   4    0.20    0.20
  -7  -4   4   -0.20    0.20
  -6  -4   4    1.20    0.30
   5   4  -4    1.00    1.40
   5   4  -4    0.40    0.20
  -5  -4   4    0.60    0.30
   4   4  -4    8.00    0.90
   4   4  -4    6.00    2.70
  -4  -4   4    6.70    0.90
   3   4  -4   -0.20    1.20
   3   4  -4    0.20    0.20
  -3  -4   4    0.30    0.10
   2   4  -4   11.70    2.60
   1   4  -4    1.20    1.50
   1   4  -4    1.40    0.20
   1   4  -4    1.40    0.30
   0   4  -4   48.50    6.00
  -1   4  -4  121.19   13.30
   3  -4   4   60.99    6.40
  -4   4  -4  337.57   35.20
  -5   4  -4    1.30    0.30
  -5   4  -4    1.10    0.60
   5  -4   4    1.30    0.30
   7  -4   4    2.50    0.40
   8  -4   4    0.30    0.20
  -7  -3   4    0.00    0.20
  -6  -3   4    1.20    0.30
   5   3  -4   -0.60    1.20
   5   3  -4    0.50    0.20
  -5  -3   4    0.10    0.20
   4   3  -4    1.70    1.40
   4   3  -4    1.80    0.40
   4   3  -4    2.10    0.30
   3   3  -4    2.20    1.30
   3   3  -4    2.30    0.40
  -3  -3   4    1.60    0.30
  -3  -3   4    1.30    0.30
   2   3  -4    0.60    1.20
   1   3  -4   22.90    3.30
   1   3  -4   20.80    2.30
   0   3  -4  263.97   30.20
   0   3  -4  322.07   30.70
  -2   3  -4    0.50    1.10
  -3   3  -4    1.10    0.40
  -4   3  -4    0.60    0.20
  -4   3  -4    0.30    0.40
   4  -3   4    0.60    0.20
  -5   3  -4    0.20    0.40
   5  -3   4    0.10    0.20
  -6   3  -4    1.10    0.60
  -6   3  -4    0.50    0.20
   6  -3   4    0.40    0.20
  -7   3  -4    0.30    0.20
   7  -3   4   -0.20    0.20
  -8   3  -4    1.00    0.20
   8  -3   4    0.40    0.20
  -7  -2   4    0.80    0.30
   6   2  -4    1.80    0.30
  -6  -2   4    1.50    0.40
   5   2  -4    1.20    0.30
   5   2  -4    0.20    1.60
  -5  -2   4    1.00    0.30
   4   2  -4   37.00    4.10
  -4  -2   4   41.90    4.20
   3   2  -4    2.80    1.20
   3   2  -4    1.40    0.30
  -3  -2   4    1.10    0.20
   2   2  -4   82.09    8.60
   1   2  -4    0.60    0.10
   1   2  -4    0.40    0.20
   1   2  -4    1.00    1.10
   0   2  -4   56.49    5.60
   0   2  -4   50.89    5.70
  -1   2  -4    0.80    1.00
  -1   2  -4    0.70    0.10
  -1   2  -4    0.20    0.40
  -2   2  -4    2.30    1.00
  -2   2  -4    1.70    0.20
  -3   2  -4    0.50    0.10
  -4   2  -4   12.70    1.60
  -4   2  -4   15.70    1.70
   4  -2   4   17.10    1.70
  -5   2  -4   11.40    1.70
  -6   2  -4    1.60    0.30
  -6   2  -4    1.50    0.70
   6  -2   4    1.60    0.30
  -7   2  -4   10.30    1.20
   7  -2   4    8.80    1.10
  -8   2  -4    4.00    0.60
   8  -2   4    3.70    0.50
   9  -2   4    0.30    0.10
   7   1  -4    4.50    0.50
  -7  -1   4    3.90    0.60
   6   1  -4    0.60    0.20
  -6  -1   4    0.90    0.30
   5   1  -4   13.50    1.50
  -5  -1   4   14.70    1.60
   4   1  -4   81.89    9.00
  -4  -1   4   92.09    9.10
   3   1  -4    4.70    1.40
  -3  -1   4    3.30    0.60
   1   1  -4   42.00    4.50
   0   1  -4   58.99    5.50
   0   1  -4   45.40    5.40
  -1   1  -4    6.40    1.00
  -2   1  -4    0.30    0.40
  -2   1  -4    0.60    0.70
  -3   1  -4    0.30    0.50
  -4   1  -4   12.80    1.40
  -5   1  -4   44.10    4.60
  -5   1  -4   43.00    4.60
   5  -1   4   44.40    4.60
  -6   1  -4   -0.20    0.20
   6  -1   4   -0.20    0.10
  -7   1  -4   17.00    2.60
  -7   1  -4   23.30    2.30
   7  -1   4   21.10    2.20
  -8   1  -4    0.00    0.20
   8  -1   4    0.00    0.20
  -9   1  -4    0.60    0.20
   9  -1   4    0.30    0.10
   7   0  -4    0.00    0.10
  -7   0   4   -0.10    0.20
   6   0  -4   11.00    1.40
  -6   0   4   14.40    1.50
  -5   0   4    8.30    1.10
   4   0  -4    3.80    0.50
  -4   0   4    4.70    0.60
   3   0  -4    3.50    0.60
   3   0  -4    2.50    0.40
  -3   0   4    2.40    0.40
  -3   0   4    3.30    0.60
   2   0  -4  209.48   19.50
  -2   0   4  166.98   19.50
   1   0  -4  125.69   13.00
   0   0   4   61.69    6.40
  -1   0  -4    2.10    0.40
  -3   0  -4   31.80    3.00
  -3   0  -4   25.20    3.20
  -4   0  -4  207.88   21.50
  -5   0  -4   29.50    3.00
  -5   0  -4   27.50    3.10
   5   0   4   31.80    3.00
   5   0   4   24.80    3.10
  -6   0  -4    3.60    0.50
  -7   0  -4    0.50    0.50
  -7   0  -4    0.10    0.20
   7   0   4    0.10    0.20
  -8   0  -4    2.20    0.40
   8   0   4    1.20    0.20
  -9   0  -4    0.50    0.20
   7  -1  -4    2.30    0.30
  -7   1   4    2.90    0.40
   6  -1  -4    7.00    0.90
  -6   1   4    7.70    0.90
   5  -1  -4    4.80    0.60
  -5   1   4    5.00    0.70
   4  -1  -4   22.60    2.60
  -4   1   4   27.30    2.80
  -4   1   4   23.60    2.70
   3  -1  -4    7.20    0.90
  -3   1   4    7.80    1.10
  -3   1   4    8.10    1.00
  -3   1   4    8.30    0.90
   2  -1  -4   94.29    8.80
  -2   1   4   73.29    8.80
   1  -1  -4  150.48   15.10
  -1   1   4  138.69   15.00
   0  -1  -4   28.90    3.40
   0   1   4   34.50    3.40
  -1  -1  -4  109.59   11.50
   1   1   4  110.19   11.40
  -2  -1  -4  126.29   13.20
  -3  -1  -4    0.30    0.10
  -3  -1  -4    0.00    0.40
  -4  -1  -4   16.00    2.20
  -4  -1  -4   20.10    1.90
  -5  -1  -4    5.00    0.70
  -5  -1  -4    5.20    0.60
   5   1   4    5.70    0.60
   5   1   4    3.70    0.60
  -6  -1  -4    4.40    0.70
   6   1   4    4.40    0.70
   6   1   4    5.70    0.60
  -7  -1  -4    2.50    0.50
   7   1   4    2.40    0.50
   7   1   4    2.50    0.40
  -8  -1  -4    0.70    0.30
   8   1   4    0.80    0.10
  -9  -1  -4    5.10    0.70
   7  -2  -4    0.50    0.10
   6  -2  -4   46.60    5.40
  -6   2   4   56.39    5.40
   5  -2  -4   -0.10    0.20
  -5   2   4   -0.10    0.20
   4  -2  -4   13.70    1.70
  -4   2   4   13.80    1.70
  -4   2   4   17.10    1.70
  -4   2   4   16.80    2.00
   3  -2  -4    6.30    0.80
  -3   2   4    6.80    0.80
  -3   2   4    6.60    0.70
  -3   2   4    6.10    1.00
  -2   2   4   14.20    1.70
   1  -2  -4   60.39    5.80
  -1   2   4   47.30    5.70
   0  -2  -4   67.59    7.10
  -1  -2  -4   77.49    8.90
   1   2   4   92.19    8.90
  -2  -2  -4    0.90    0.30
  -3  -2  -4    0.10    0.10
  -3  -2  -4    0.20    0.30
  -4  -2  -4   23.70    2.40
  -4  -2  -4   22.20    2.70
  -5  -2  -4    1.50    0.30
  -5  -2  -4    0.80    0.30
   5   2   4    1.00    0.30
   6   2   4   14.60    1.60
  -7  -2  -4    7.90    1.00
   7   2   4    7.00    1.00
  -8  -2  -4   46.40    4.90
  -9  -2  -4    3.70    0.50
   6  -3  -4    0.20    0.20
   5  -3  -4    8.10    0.90
  -5   3   4    7.50    0.90
   4  -3  -4    1.70    0.60
   4  -3  -4    1.00    0.30
  -4   3   4    0.60    0.50
  -4   3   4    1.10    0.30
  -4   3   4    1.30    0.20
   3  -3  -4    0.00    0.20
  -3   3   4    0.20    0.10
  -3   3   4    0.40    0.20
  -3   3   4   -0.10    0.30
   2  -3  -4    5.50    0.70
  -2   3   4    5.70    0.60
  -1   3   4   40.30    4.40
   0  -3  -4   43.60    4.90
   0   3   4   47.40    4.90
  -2  -3  -4   73.69    7.60
   2   3   4   69.69    7.60
  -3  -3  -4   27.60    2.90
  -4  -3  -4    0.70    0.20
  -4  -3  -4    1.00    0.40
  -5  -3  -4    2.70    0.50
  -5  -3  -4    2.20    0.40
   5   3   4    2.50    0.50
  -6  -3  -4    0.00    0.20
   6   3   4    0.20    0.30
  -7  -3  -4   -0.20    0.20
   7   3   4    0.10    0.30
  -8  -3  -4    0.40    0.20
   8   3   4    0.20    0.30
  -9  -3  -4   -0.10    0.20
   6  -4  -4    0.90    0.20
   5  -4  -4    5.00    0.70
   4  -4  -4    1.10    0.30
  -4   4   4    1.60    0.30
  -4   4   4    1.20    0.50
   3  -4  -4    0.50    0.20
  -3   4   4    0.20    0.40
  -3   4   4    0.60    0.20
   2  -4  -4   90.29    9.30
  -2   4   4   89.69    9.40
  -2   4   4   86.39    9.20
  -1   4   4    2.60    0.40
  -1   4   4    3.20    0.70
   0  -4  -4  367.66   34.70
   0   4   4  301.47   34.50
  -2  -4  -4   65.79    7.00
   2   4   4   66.29    7.00
  -3  -4  -4    4.50    0.80
  -3  -4  -4    3.90    0.60
   3   4   4    5.60    0.60
   3   4   4    7.60    1.50
  -4  -4  -4    0.50    0.30
  -4  -4  -4    0.20    0.10
   4   4   4    0.10    0.10
   4   4   4   -0.30    0.90
  -5  -4  -4   38.10    3.90
  -5  -4  -4   32.90    3.90
   5   4   4   39.10    3.90
  -6  -4  -4   41.80    4.40
   6   4   4   40.80    4.40
  -7  -4  -4   11.40    1.30
   7   4   4   11.10    1.40
  -8  -4  -4   27.00    2.60
   8   4   4   21.00    2.60
  -9  -4  -4    0.30    0.20
   9   4   4    0.50    0.10
   6  -5  -4    0.20    0.10
   5  -5  -4    3.40    0.50
   4  -5  -4    0.00    0.20
  -4   5   4    0.40    0.20
   3  -5  -4   16.30    1.90
  -3   5   4   17.40    1.90
  -3   5   4   18.70    2.30
  -2   5   4    8.90    1.30
  -2   5   4    7.90    0.90
   1  -5  -4    1.70    0.60
  -1   5   4    2.80    0.70
  -1   5   4    2.10    0.30
   0  -5  -4   24.30    2.80
   0   5   4   28.50    2.80
   0   5   4   21.10    2.60
  -1  -5  -4   85.99    9.00
   1   5   4   88.09    9.30
   1   5   4   80.29    8.80
  -2  -5  -4   10.30    1.30
   2   5   4    8.50    1.00
   2   5   4   10.50    1.30
  -3  -5  -4    0.40    0.20
  -3  -5  -4    0.20    0.30
   3   5   4    1.10    0.40
   3   5   4    0.40    0.20
   3   5   4    0.40    0.20
   3   5   4    0.70    0.80
   3   5   4    0.80    0.20
  -4  -5  -4  126.39   14.00
  -4  -5  -4  120.89   14.10
   4   5   4  133.79   14.10
   4   5   4  156.38   14.50
   4   5   4  137.39   14.00
   5   5   4    0.20    0.10
   5   5   4    0.20    0.30
  -6  -5  -4    9.00    1.00
   6   5   4    8.30    1.10
  -7  -5  -4   55.39    5.60
   7   5   4   49.90    5.60
  -8  -5  -4    0.70    0.30
   8   5   4    0.90    0.30
   9   5   4    0.30    0.10
   5  -6  -4    1.10    0.20
   4  -6  -4   -0.10    0.20
  -4   6   4    0.00    0.10
   2  -6  -4    2.70    0.50
  -2   6   4    3.00    0.80
  -2   6   4    3.00    0.40
   1  -6  -4    3.30    0.90
  -1   6   4    3.50    0.80
  -1   6   4    2.40    0.40
   0   6   4    7.30    1.10
   0   6   4    7.20    0.90
  -1  -6  -4   22.00    2.50
   1   6   4   21.20    2.90
   1   6   4   21.50    2.20
   1   6   4   18.10    2.20
  -2  -6  -4    1.60    0.40
   2   6   4    2.90    1.30
   2   6   4    2.50    0.60
   2   6   4    2.10    0.50
   2   6   4    2.00    0.30
   2   6   4    2.20    0.40
  -3  -6  -4    6.00    1.00
  -3  -6  -4    5.10    0.70
   3   6   4    5.60    0.80
   3   6   4    7.50    1.00
   3   6   4    6.40    0.70
   3   6   4    6.00    1.60
   3   6   4    5.20    0.70
   4   6   4   15.60    2.00
   4   6   4   15.70    2.10
   4   6   4   17.70    2.60
   4   6   4   18.60    1.90
   5   6   4    0.30    0.30
   5   6   4    0.10    0.10
   6   6   4    3.70    0.70
   6   6   4    5.80    0.60
   7   6   4   26.40    2.80
  -8  -6  -4    1.80    0.30
   8   6   4    0.80    0.30
   8   6   4    1.90    0.20
   9   6   4    0.30    0.10
   4  -7  -4    0.20    0.10
   3  -7  -4    2.30    0.50
  -3   7   4    3.30    0.40
   2  -7  -4   10.90    1.30
  -2   7   4   11.70    1.20
  -1   7   4    7.10    0.90
  -1   7   4    8.20    1.30
  -1   7   4    5.20    0.80
   0  -7  -4    2.50    0.90
   0   7   4    1.70    0.60
   0   7   4    0.50    0.60
   0   7   4    1.50    0.30
   0   7   4    1.50    0.40
  -1  -7  -4   20.90    3.00
   1   7   4   17.70    2.50
   1   7   4   23.90    2.70
   1   7   4   24.60    2.40
   1   7   4   18.90    2.30
  -2  -7  -4   -0.40    0.50
   2   7   4    0.80    1.30
   2   7   4    0.80    0.50
   2   7   4    0.70    0.30
   2   7   4    0.80    0.20
   2   7   4    0.70    0.60
   3   7   4   24.80    2.50
   3   7   4   20.40    2.50
   3   7   4   24.50    3.30
   3   7   4   20.90    2.50
   3   7   4   25.60    2.70
   4   7   4    3.00    1.50
   4   7   4    2.60    0.70
   4   7   4    3.10    0.50
   4   7   4    3.40    0.40
   5   7   4    1.60    0.30
   5   7   4    0.90    0.30
   6   7   4    1.50    0.40
   6   7   4    2.10    0.30
   7   7   4    3.00    0.40
   8   7   4    0.20    0.10
   8   7   4    0.30    0.20
  -3   8   4    0.30    0.50
  -3   8   4    0.80    0.20
  -2   8   4    7.60    0.90
  -1   8   4   28.20    3.30
   0   8   4   18.70    1.90
   0   8   4   14.30    2.10
   0   8   4   13.90    1.80
   0   8   4   20.40    2.30
   1   8   4    2.30    0.40
   1   8   4    1.90    0.30
   1   8   4    1.20    0.70
   1   8   4    1.70    0.70
   2   8   4    1.20    0.30
   2   8   4    1.10    0.40
   2   8   4    1.00    0.50
   3   8   4   14.10    1.90
   3   8   4   17.20    2.10
   3   8   4   17.80    1.80
   3   8   4   20.00    2.80
   4   8   4    8.30    1.20
   4   8   4    8.80    0.90
   4   8   4    7.10    1.00
   5   8   4    5.10    0.60
   5   8   4    4.40    0.70
   6   8   4    0.00    0.10
   6   8   4    0.10    0.20
   7   8   4   -0.10    0.20
   7   8   4    0.10    0.10
   8   8   4    0.00    0.10
  -2   9   4    0.70    0.20
  -2   9   4    0.70    0.50
  -1   9   4    1.00    0.20
  -1   9   4    0.50    0.50
   0   9   4    2.20    0.40
   0   9   4    2.30    0.70
   0   9   4    2.50    0.30
   1   9   4    1.80    0.60
   1   9   4    1.30    0.30
   1   9   4    1.40    0.40
   2   9   4    0.20    0.10
   2   9   4   -0.10    0.30
   2   9   4    0.20    0.50
   3   9   4    1.10    0.60
   3   9   4    1.00    0.20
   3   9   4    1.00    0.40
   4   9   4    2.40    0.40
   4   9   4    2.50    0.30
   5   9   4   14.40    1.60
   5   9   4   14.30    1.50
   6   9   4    0.90    0.30
   6   9   4    1.40    0.20
   7   9   4    2.30    0.20
   7   9   4    1.70    0.30
  -1  10   4    0.30    0.10
  -1  10   4    0.20    0.30
   0  10   4    1.40    0.50
   1  10   4   -0.50    0.20
   1  10   4    0.10    0.10
   1  10   4    0.10    0.40
   2  10   4    2.90    0.40
   2  10   4    4.30    0.80
   3  10   4    0.90    0.20
   4  10   4    0.30    0.10
   5  10   4    2.50    0.30
   1  10  -5    0.50    0.90
   1  10  -5    1.30    0.30
   0  10  -5    5.80    0.70
   0  10  -5    4.30    1.30
  -1  10  -5    0.70    0.30
  -1  10  -5    1.10    0.20
  -1  10  -5    0.80    0.60
   4   9  -5    4.20    1.10
   4   9  -5    4.40    0.60
   3   9  -5    3.90    0.50
   3   9  -5    2.60    1.20
   2   9  -5    8.50    2.00
   2   9  -5    8.70    1.10
   1   9  -5   -0.20    0.30
   1   9  -5   -0.10    0.30
   1   9  -5   -0.70    1.20
   0   9  -5   -0.10    0.40
   0   9  -5   -0.80    1.50
   0   9  -5    0.00    0.30
  -1   9  -5    0.10    1.30
  -1   9  -5    1.00    0.30
  -1   9  -5    0.90    0.40
  -2   9  -5    6.30    0.80
  -2   9  -5    5.60    0.70
  -3   9  -5    0.10    0.20
  -3   9  -5   -0.10    0.20
   5   8  -5    7.20    0.90
   4   8  -5    0.70    0.20
   4   8  -5    1.30    0.80
   3   8  -5    0.70    0.30
   3   8  -5    0.40    1.10
   2   8  -5    0.10    0.30
   2   8  -5    0.10    1.30
   1   8  -5   -0.30    1.10
   1   8  -5    0.30    0.30
   1   8  -5   -0.10    0.30
   0   8  -5    0.10    1.10
   0   8  -5    0.40    0.30
   0   8  -5    0.40    0.30
  -1   8  -5    0.00    0.30
  -1   8  -5    0.50    1.10
  -1   8  -5    0.20    0.30
  -1   8  -5   -0.30    0.60
  -2   8  -5   33.10    3.50
  -2   8  -5   32.70    3.70
  -2   8  -5   32.90    3.60
   3  -8   5    3.30    0.40
  -4   8  -5    6.10    0.80
   4  -8   5    7.40    0.80
  -5   8  -5    0.10    0.20
   5  -8   5    0.70    0.10
   5   7  -5    2.00    0.30
  -5  -7   5    1.50    0.30
   4   7  -5    0.20    0.20
   4   7  -5    0.20    0.80
   3   7  -5    1.90    0.40
   3   7  -5    1.80    1.30
   2   7  -5   13.20    1.60
   2   7  -5   16.30    3.40
   1   7  -5   82.39    8.20
   1   7  -5   77.09    8.20
  -1  -7   5   76.09    8.20
   0   7  -5   12.60    1.40
   0   7  -5   11.50    1.40
   0   7  -5   10.00    1.70
  -1   7  -5   38.00    4.10
  -1   7  -5   40.00    4.30
  -1   7  -5   36.70    4.10
  -2   7  -5   13.50    1.50
  -2   7  -5   12.50    1.60
  -3   7  -5   19.40    2.60
   3  -7   5   26.60    2.50
   4  -7   5    3.60    0.50
  -5   7  -5    0.20    0.30
   5  -7   5    1.10    0.20
   6  -7   5    0.50    0.20
  -6  -6   5    1.00    0.20
   5   6  -5    0.90    0.30
  -5  -6   5    1.10    0.30
   4   6  -5    5.40    0.70
   4   6  -5    7.60    1.50
  -4  -6   5    4.50    0.70
   3   6  -5   -0.20    1.20
   3   6  -5    0.00    0.20
   3   6  -5   -0.20    1.00
   2   6  -5  373.86   38.40
  -2  -6   5  347.47   37.20
   1   6  -5   70.29    8.10
   1   6  -5   86.79    8.00
  -1  -6   5   71.79    8.00
   0   6  -5   44.70    4.60
   0   6  -5   40.00    4.80
   0   6  -5   44.90    4.60
  -1   6  -5   12.30    1.60
  -1   6  -5   11.30    1.40
  -2   6  -5    1.90    1.70
  -2   6  -5    2.10    0.80
  -4   6  -5   19.20    2.20
   5  -6   5    0.50    0.20
   6  -6   5    0.00    0.20
   7  -6   5    0.10    0.10
  -6  -5   5    5.20    0.70
   5   5  -5    0.00    0.20
  -5  -5   5    0.00    0.20
   4   5  -5   -0.50    1.10
   4   5  -5    0.60    0.80
   4   5  -5   -0.10    0.20
  -4  -5   5   -0.10    0.20
   3   5  -5   19.30    3.60
  -3  -5   5   19.10    2.10
   2   5  -5   28.90    4.30
   2   5  -5   24.80    2.70
  -2  -5   5   23.70    2.60
   1   5  -5   46.00    5.60
   1   5  -5   57.79    5.70
  -1  -5   5   57.49    5.60
   0   5  -5    0.10    1.40
  -1   5  -5   -0.30    1.20
   1  -5   5    0.00    0.20
  -2   5  -5    7.30    0.80
   2  -5   5    7.80    0.90
  -3   5  -5    6.70    1.00
   3  -5   5    7.40    0.90
  -4   5  -5    6.70    1.00
   4  -5   5    5.80    0.80
   6  -5   5   -0.20    0.20
   7  -5   5   18.00    1.90
  -7  -4   5   -0.10    0.10
  -6  -4   5    0.00    0.20
   5   4  -5    6.70    1.00
  -5  -4   5    9.10    1.00
   4   4  -5    1.30    1.40
   4   4  -5    0.90    0.30
  -4  -4   5    0.50    0.30
   3   4  -5   12.80    2.60
  -3  -4   5   10.20    1.20
   2   4  -5   10.70    1.20
   2   4  -5   11.20    2.50
  -2  -4   5   10.00    1.10
   1   4  -5    7.60    1.00
   1   4  -5    9.80    2.40
  -1  -4   5   10.10    1.00
   0   4  -5    5.30    2.60
  -1   4  -5   79.59    9.30
  -3   4  -5   35.80    4.00
   3  -4   5   39.80    4.00
  -4   4  -5  138.49   15.00
   4  -4   5  151.38   15.10
  -5   4  -5    1.10    0.30
  -5   4  -5    1.00    0.60
   5  -4   5    1.80    0.30
   7  -4   5    1.20    0.30
   8  -4   5    0.10    0.10
  -7  -3   5    0.20    0.20
  -6  -3   5    0.00    0.20
   5   3  -5    7.80    2.20
  -5  -3   5    5.50    0.80
   4   3  -5    2.80    0.40
   4   3  -5    1.40    1.30
  -4  -3   5    2.60    0.50
   3   3  -5   16.60    1.60
   3   3  -5   14.90    2.60
   3   3  -5   13.70    1.50
  -3  -3   5   11.80    1.50
   2   3  -5    6.30    1.70
   2   3  -5    4.50    0.60
   2   3  -5    6.20    0.70
  -2  -3   5    5.50    0.60
   1   3  -5    3.50    1.50
   0   3  -5    1.50    0.20
   0   3  -5    1.10    1.30
  -1   3  -5   89.29    9.40
  -1   3  -5   89.59    8.80
  -1   3  -5   76.89    8.80
  -2   3  -5   -0.10    1.00
  -3   3  -5    6.30    1.00
  -4   3  -5    0.60    0.20
  -4   3  -5    0.20    0.40
   4  -3   5    0.50    0.20
  -5   3  -5    5.60    1.20
  -5   3  -5    7.70    0.90
   5  -3   5    8.00    0.90
  -6   3  -5    1.80    0.40
  -6   3  -5    2.20    0.80
   6  -3   5    1.90    0.40
  -7   3  -5    0.50    0.20
   7  -3   5    0.20    0.20
  -8   3  -5    3.30    0.50
   8  -3   5    5.10    0.50
  -7  -2   5   -0.10    0.20
   5   2  -5   -0.10    0.10
  -5  -2   5    0.10    0.20
   4   2  -5    1.20    0.30
   4   2  -5   -1.00    2.50
  -4  -2   5    1.30    0.40
   3   2  -5    2.30    0.40
   3   2  -5    4.70    1.50
   2   2  -5   28.80    3.10
   1   2  -5   44.50    4.70
   0   2  -5    0.80    0.40
   0   2  -5    1.10    1.10
  -1   2  -5    0.00    0.40
  -1   2  -5    0.10    0.90
  -1   2  -5    0.10    0.10
  -2   2  -5   23.30    2.90
  -2   2  -5   24.30    2.50
  -2   2  -5   23.90    2.50
  -4   2  -5   35.50    3.70
   4  -2   5   33.30    3.60
  -5   2  -5    4.00    0.60
   5  -2   5    3.90    0.50
  -6   2  -5   20.90    2.20
   6  -2   5   20.00    2.20
  -7   2  -5   18.40    2.30
  -7   2  -5   17.90    1.90
   7  -2   5   16.20    1.90
  -8   2  -5   14.60    1.60
   8  -2   5   14.30    1.60
   9  -2   5    0.00    0.10
  -7  -1   5    0.10    0.20
   6   1  -5   -0.10    0.10
  -6  -1   5   -0.10    0.20
   5   1  -5   22.90    2.70
  -5  -1   5   28.40    2.80
   4   1  -5   10.50    1.30
  -4  -1   5   13.20    1.40
   3   1  -5    0.00    1.10
   3   1  -5    0.10    0.10
   3   1  -5    0.30    0.20
  -3  -1   5    0.20    0.20
   2   1  -5   65.19    6.90
  -2  -1   5   64.99    6.80
   1   1  -5   40.30    4.30
   0   1  -5   58.99    5.90
   0   1  -5   52.19    5.80
  -1   1  -5  108.09   11.90
  -1   1  -5  117.79   11.70
  -2   1  -5   18.80    2.40
  -2   1  -5   17.60    2.20
  -3   1  -5  184.38   22.00
  -3   1  -5  236.48   21.80
  -4   1  -5    0.50    0.10
  -4   1  -5    0.40    0.20
   4  -1   5    0.60    0.20
  -5   1  -5   13.60    1.60
  -5   1  -5   14.60    1.60
   5  -1   5   15.10    1.60
  -6   1  -5   -0.10    0.20
   6  -1   5   -0.10    0.20
  -7   1  -5   12.90    1.40
  -7   1  -5   10.70    1.80
   7  -1   5   12.70    1.40
  -8   1  -5    0.60    0.30
   8  -1   5    0.60    0.20
  -9   1  -5    1.30    0.30
   6   0  -5    0.50    0.20
  -6   0   5    0.50    0.30
   5   0  -5    1.60    0.50
   5   0  -5   -1.80    1.50
  -5   0   5    2.00    0.50
   4   0  -5    3.10    1.70
   4   0  -5    3.70    0.50
  -4   0   5    4.00    0.60
   3   0  -5   39.70    4.60
  -3   0   5   47.30    4.60
   2   0  -5  173.58   18.40
  -2   0   5  180.48   18.30
   0   0  -5   13.20    1.60
  -1   0  -5   46.70    5.70
  -1   0  -5   59.59    5.80
  -2   0  -5   40.60    4.40
  -3   0  -5   35.10    4.30
  -3   0  -5   43.50    4.10
  -4   0  -5   12.00    1.90
  -4   0  -5   16.80    1.50
   4   0   5   12.60    1.60
   4   0   5   15.00    1.60
  -5   0  -5    0.80    0.30
  -5   0  -5    1.00    0.20
   5   0   5    1.40    0.20
   5   0   5    0.60    0.20
  -6   0  -5    4.70    0.70
   6   0   5    5.10    0.60
  -7   0  -5   16.20    1.90
   7   0   5   16.90    1.80
  -8   0  -5   -0.10    0.20
   8   0   5    0.20    0.10
  -9   0  -5    0.50    0.20
   7  -1  -5    0.40    0.10
   6  -1  -5    2.70    0.40
  -6   1   5    3.50    0.50
   5  -1  -5  120.49   13.60
  -5   1   5  141.99   13.70
   4  -1  -5    2.80    0.50
  -4   1   5    3.30    0.60
   3  -1  -5   18.70    2.10
  -3   1   5   19.00    2.20
  -3   1   5   21.30    2.10
   2  -1  -5    4.40    0.60
   2  -1  -5    4.40    0.80
  -2   1   5    4.60    0.70
   1  -1  -5   57.89    6.90
  -1   1   5   71.49    6.80
   0  -1  -5   17.00    2.10
   0   1   5   19.30    2.00
  -1  -1  -5  242.08   25.10
  -2  -1  -5   49.20    5.40
  -3  -1  -5    4.80    1.00
  -3  -1  -5    5.90    0.60
  -4  -1  -5    5.50    1.10
  -4  -1  -5    7.80    0.80
  -5  -1  -5   26.90    2.70
  -5  -1  -5   27.40    2.70
   5   1   5   21.30    2.70
  -6  -1  -5    8.90    1.00
   6   1   5    7.40    1.00
  -7  -1  -5    7.10    1.10
   7   1   5   10.20    1.00
  -8  -1  -5   -0.10    0.20
  -9  -1  -5    1.10    0.30
   6  -2  -5    3.60    0.50
  -6   2   5    3.70    0.40
   5  -2  -5    3.00    0.50
  -5   2   5    3.30    0.50
   4  -2  -5    1.20    0.30
  -4   2   5    1.90    0.30
  -4   2   5    1.30    0.40
   3  -2  -5    4.60    1.00
   3  -2  -5    3.80    0.60
  -3   2   5    3.40    0.60
  -3   2   5    4.60    0.80
  -3   2   5    4.20    0.50
   2  -2  -5    6.50    0.80
   2  -2  -5    8.10    1.20
  -2   2   5    6.40    0.80
  -2   2   5    5.50    0.80
  -2   2   5    8.50    1.00
   1  -2  -5    9.90    1.50
  -1   2   5   12.20    1.40
   0  -2  -5   12.00    1.70
   0   2   5   15.30    1.60
  -1  -2  -5   54.49    6.00
   1   2   5   57.89    6.00
  -2  -2  -5    1.90    0.50
  -3  -2  -5   88.29    9.30
  -4  -2  -5   80.79    7.90
  -4  -2  -5   73.59    8.10
   4   2   5   72.59    7.90
  -5  -2  -5   67.09    7.00
  -5  -2  -5   65.49    7.20
   5   2   5   66.69    7.00
  -6  -2  -5    0.10    0.20
   6   2   5   -0.30    0.20
   6   2   5    0.10    0.10
  -7  -2  -5    2.70    0.50
   7   2   5    2.20    0.50
  -8  -2  -5    5.10    0.70
  -9  -2  -5    1.50    0.30
   6  -3  -5    1.10    0.20
   5  -3  -5    4.50    0.60
   4  -3  -5    4.60    0.70
  -4   3   5    5.90    0.60
  -4   3   5    5.00    0.70
   3  -3  -5    1.00    0.50
   3  -3  -5    0.30    0.20
  -3   3   5    0.30    0.20
  -3   3   5    0.50    0.40
  -3   3   5    0.40    0.20
   2  -3  -5   17.10    1.90
  -2   3   5   16.50    1.90
  -2   3   5   17.30    1.80
   1  -3  -5  119.89   14.60
   1  -3  -5  139.29   14.80
  -1   3   5  162.68   14.70
   0  -3  -5    7.40    1.30
   0   3   5   10.00    1.20
  -2  -3  -5   93.99    9.90
  -3  -3  -5  226.28   23.60
  -4  -3  -5    0.20    0.40
  -4  -3  -5    0.30    0.10
   4   3   5    0.10    0.10
   4   3   5    0.30    0.20
  -5  -3  -5   17.50    2.00
  -5  -3  -5   18.40    2.00
   5   3   5   18.10    2.00
  -6  -3  -5    0.10    0.20
   6   3   5    0.10    0.30
  -7  -3  -5   -0.10    0.20
   7   3   5   -0.20    0.30
  -8  -3  -5    1.30    0.30
   8   3   5    1.00    0.40
  -9  -3  -5   13.90    1.40
   9   3   5   11.70    1.30
   6  -4  -5    2.30    0.30
   5  -4  -5    0.10    0.20
   4  -4  -5    0.10    0.20
  -4   4   5    0.20    0.10
   3  -4  -5    7.60    1.00
  -3   4   5    9.20    1.00
   2  -4  -5    2.40    0.70
  -2   4   5    2.10    0.30
  -2   4   5    2.30    0.60
   1  -4  -5    0.60    0.20
   1  -4  -5    0.50    0.40
  -1   4   5    0.30    0.10
  -1   4   5    0.40    0.40
   0  -4  -5   55.19    5.70
   0   4   5   48.90    5.40
  -1  -4  -5  106.79   11.30
  -2  -4  -5   65.29    6.50
   2   4   5   63.89    6.50
   2   4   5   53.69    6.30
  -3  -4  -5    6.40    0.80
  -3  -4  -5    7.10    1.10
   3   4   5    8.90    0.80
  -4  -4  -5    1.30    0.40
   4   4   5    1.30    0.20
   4   4   5    1.10    0.30
  -5  -4  -5    6.80    0.80
   5   4   5    5.60    0.90
   5   4   5    8.30    0.80
  -6  -4  -5    0.50    0.20
   6   4   5    0.30    0.30
   6   4   5    1.00    0.20
  -7  -4  -5   23.10    2.30
   7   4   5   18.80    2.30
  -8  -4  -5   31.10    3.30
   8   4   5   35.30    3.20
   8   4   5   25.10    3.30
  -9  -4  -5    1.90    0.30
   9   4   5    1.80    0.20
   5  -5  -5    0.00    0.10
   4  -5  -5    1.20    0.30
  -4   5   5    1.30    0.20
   3  -5  -5    2.30    0.40
   2  -5  -5    2.00    0.40
  -2   5   5    2.10    0.30
  -2   5   5    2.40    0.70
   1  -5  -5   16.50    2.00
   1  -5  -5   21.60    2.40
  -1   5   5   18.00    2.00
   0  -5  -5   -0.10    0.40
   0   5   5    0.00    0.10
   0   5   5    0.10    0.40
  -1  -5  -5   14.00    2.00
   1   5   5   10.30    1.20
   1   5   5   10.10    1.40
  -2  -5  -5   38.10    3.80
   2   5   5   31.00    3.60
   2   5   5   36.90    3.80
   2   5   5   31.30    3.50
   2   5   5   32.20    3.70
  -3  -5  -5    6.70    0.90
  -3  -5  -5    6.20    1.20
   3   5   5    7.70    0.80
   3   5   5    8.70    0.90
   4   5   5    2.90    0.40
   4   5   5    2.30    0.50
   5   5   5   30.30    2.80
   5   5   5   21.50    2.80
  -6  -5  -5    0.30    0.10
   6   5   5    0.30    0.10
   6   5   5    0.00    0.30
  -7  -5  -5   34.80    3.60
   7   5   5   38.80    3.60
   7   5   5   28.70    3.70
  -8  -5  -5    2.40    0.40
   8   5   5    1.80    0.40
   8   5   5    2.40    0.30
  -9  -5  -5    0.60    0.20
   9   5   5    0.90    0.10
   4  -6  -5   -0.20    0.10
   3  -6  -5    0.10    0.20
  -3   6   5    0.30    0.20
   2  -6  -5    2.50    0.60
  -2   6   5    3.50    0.50
  -2   6   5    2.60    0.90
   1  -6  -5    5.70    0.70
  -1   6   5    5.10    0.70
  -1   6   5    7.10    1.20
   0  -6  -5   16.10    2.20
   0   6   5   13.00    1.50
   0   6   5   12.40    1.50
  -1  -6  -5    0.30    0.60
   1   6   5    0.60    0.40
   1   6   5    0.80    0.20
   1   6   5    1.40    0.50
  -2  -6  -5    4.20    0.90
   2   6   5    3.90    0.50
   2   6   5    4.20    0.80
   2   6   5    4.50    0.90
  -3  -6  -5    6.30    1.10
   3   6   5    5.40    0.80
   3   6   5    4.40    0.80
   3   6   5    5.60    0.90
   3   6   5    5.90    0.70
   4   6   5   15.10    1.90
   4   6   5   18.70    1.80
   5   6   5    0.90    0.30
   5   6   5    1.40    0.20
   6   6   5   12.20    1.20
   6   6   5    8.30    1.20
   7   6   5   15.30    1.60
   8   6   5    1.80    0.30
   9   6   5    0.30    0.10
   4  -7  -5    0.30    0.10
  -4   7   5   -0.50    0.40
   3  -7  -5    0.50    0.20
  -3   7   5    0.90    0.20
   2  -7  -5    3.20    0.50
  -2   7   5    3.70    0.50
  -1   7   5    2.80    0.90
  -1   7   5    4.10    1.00
  -1   7   5    4.40    0.50
   0   7   5    1.50    0.60
   0   7   5    1.50    0.30
   0   7   5    1.80    0.70
   1   7   5    0.20    0.30
   1   7   5   -0.10    0.40
   1   7   5    0.30    0.20
   1   7   5   -0.40    0.50
  -2  -7  -5    8.10    1.50
   2   7   5    8.60    1.20
   2   7   5    7.90    0.90
   2   7   5    8.40    1.10
   4   7   5    6.50    0.70
   4   7   5    5.30    0.80
   4   7   5    5.40    1.10
   5   7   5    2.10    0.50
   5   7   5    1.80    0.30
   6   7   5    2.30    0.40
   6   7   5    2.00    0.40
   7   7   5    1.40    0.20
   7   7   5    1.10    0.30
   8   7   5    0.50    0.20
   8   7   5    0.60    0.10
  -3   8   5    0.00    0.40
  -3   8   5    0.30    0.10
  -2   8   5    8.30    1.20
  -2   8   5    7.20    0.80
  -1   8   5    0.10    0.50
  -1   8   5    0.20    0.20
   1   8   5    3.80    0.60
   1   8   5    4.40    0.50
   1   8   5    4.10    0.90
   2   8   5    1.00    0.40
   2   8   5    2.10    0.60
   2   8   5    1.10    0.20
   3   8   5    0.40    0.50
   3   8   5   -0.10    0.20
   4   8   5    0.10    0.20
   4   8   5    0.10    0.20
   5   8   5    4.50    0.70
   5   8   5    6.00    0.60
   6   8   5    2.70    0.40
   7   8   5    0.50    0.20
   7   8   5    0.60    0.10
  -2   9   5    1.10    0.70
  -2   9   5    0.80    0.20
  -1   9   5    2.80    0.40
  -1   9   5    3.30    0.60
   0   9   5    2.60    0.30
   0   9   5    1.60    0.60
   1   9   5    0.60    0.50
   1   9   5    0.30    0.20
   2   9   5    1.00    0.20
   2   9   5    0.60    0.50
   3   9   5    5.00    0.90
   3   9   5    4.60    0.60
   4   9   5    7.50    0.80
   5   9   5    0.20    0.10
   5   9   5    0.00    0.10
   6   9   5    0.90    0.20
   6   9   5    1.50    0.20
   7   9   5    0.00    0.10
   0  10   5    1.30    0.40
   0  10   5    1.40    0.20
   1  10   5    0.40    0.10
   1  10   5    0.10    0.30
   2  10   5    0.00    0.10
   2  10   5   -0.20    0.30
   3  10   5    0.20    0.10
   4  10   5    1.00    0.20
   5  10   5    0.20    0.10
   3   9  -6    0.50    0.20
   3   9  -6    1.20    0.80
   2   9  -6   -0.20    0.90
   2   9  -6    0.00    0.20
   1   9  -6   -0.70    1.00
   1   9  -6    0.10    0.30
   0   9  -6    1.60    0.40
   0   9  -6    0.70    0.40
   0   9  -6    0.50    1.20
  -1   9  -6    0.00    0.20
  -1   9  -6   -0.50    1.20
  -1   9  -6    0.00    0.20
  -2   9  -6    3.80    1.40
  -3   9  -6    4.30    0.50
  -3   9  -6    3.90    0.60
   4   8  -6    0.90    0.50
   4   8  -6    1.00    0.20
   3   8  -6    0.60    0.30
   3   8  -6    0.80    1.00
   2   8  -6    0.30    0.30
   2   8  -6   -0.10    1.30
   1   8  -6    5.00    0.80
  -1  -8   6    7.10    0.80
   0   8  -6    8.40    1.10
   0   8  -6    7.40    1.00
   0  -8   6    8.70    1.00
  -1   8  -6    2.30    0.50
  -1   8  -6    2.20    0.50
   1  -8   6    3.50    0.50
  -2   8  -6   22.60    2.90
  -2   8  -6   26.00    2.90
   2  -8   6   30.60    2.80
  -3   8  -6    1.90    0.40
  -3   8  -6    1.70    0.40
  -3   8  -6    1.00    0.90
   3  -8   6    2.60    0.30
  -4   8  -6    0.20    0.20
  -4   8  -6    0.30    0.20
   4  -8   6    0.40    0.10
  -5  -7   6    1.30    0.20
   4   7  -6    0.80    0.20
   4   7  -6    1.50    0.70
  -4  -7   6    1.20    0.30
   3   7  -6    4.90    0.70
   3   7  -6    6.00    1.60
  -3  -7   6    5.20    0.70
   2   7  -6    1.60    0.40
  -2  -7   6    1.80    0.30
   1   7  -6   75.49    9.70
   1   7  -6   74.99    8.40
  -1  -7   6   90.59    8.40
   0   7  -6   14.30    1.60
   0   7  -6   14.10    1.70
   0  -7   6   14.40    1.60
  -2   7  -6   50.39    5.70
  -2   7  -6   57.99    5.80
  -3   7  -6    0.30    0.30
  -3   7  -6    0.50    0.30
  -4   7  -6   -0.10    0.30
  -4   7  -6   -0.20    0.20
   4  -7   6    0.40    0.20
  -5   7  -6    0.20    0.20
   5  -7   6    0.70    0.20
   6  -7   6    0.20    0.20
  -5  -6   6    1.30    0.30
   4   6  -6    7.40    1.40
   4   6  -6    6.10    0.70
  -4  -6   6    5.60    0.80
   3   6  -6   -0.20    0.90
   3   6  -6    0.20    0.20
   2   6  -6   79.89    7.40
  -2  -6   6   62.89    7.40
   1   6  -6   28.20    2.90
   1   6  -6   21.00    4.40
  -1  -6   6   27.20    2.80
   0   6  -6   25.50    3.10
   0   6  -6   28.40    3.10
   0  -6   6   32.60    3.10
  -1   6  -6    0.80    0.30
  -1   6  -6    1.20    1.50
   1  -6   6    0.80    0.30
  -2   6  -6   25.00    2.80
   3  -6   6   12.00    1.40
   4  -6   6    0.90    0.30
   5  -6   6    1.20    0.30
   6  -6   6    0.80    0.20
  -6  -5   6    3.70    0.50
  -5  -5   6    0.10    0.20
   4   5  -6    3.20    0.50
  -4  -5   6    2.80    0.50
   3   5  -6    6.30    2.00
   3   5  -6    6.00    0.80
   2   5  -6   12.30    1.20
   2   5  -6    9.90    2.60
  -2  -5   6    9.20    1.20
   1   5  -6    3.20    2.00
   1   5  -6    3.50    0.50
  -1  -5   6    3.50    0.50
   0   5  -6    0.10    1.40
   0   5  -6   -0.10    0.20
   0  -5   6    0.20    0.20
  -1   5  -6    0.20    1.30
   1  -5   6    2.10    0.40
   3  -5   6   21.90    2.40
  -4   5  -6   15.90    1.80
   4  -5   6   18.80    1.90
   5  -5   6  148.59   15.40
   6  -5   6    1.30    0.30
   7  -5   6    5.00    0.60
  -6  -4   6    1.10    0.30
  -5  -4   6    1.60    0.40
   4   4  -6    0.80    0.20
   4   4  -6    2.10    1.20
  -4  -4   6    0.80    0.30
   3   4  -6    4.20    0.60
   3   4  -6    4.70    1.80
   2   4  -6  213.68   21.70
  -2  -4   6  188.58   20.70
   1   4  -6   19.50    2.20
   1   4  -6   16.40    3.60
  -1  -4   6   23.20    2.20
   0   4  -6    0.20    1.40
   0  -4   6   -0.10    0.10
  -1   4  -6    7.40    0.90
  -2   4  -6   -0.10    1.00
  -2   4  -6    1.10    0.30
   2  -4   6    2.00    0.30
  -3   4  -6    5.70    0.90
  -3   4  -6    7.50    0.80
  -3   4  -6    7.80    2.00
   3  -4   6    8.80    0.90
  -4   4  -6    3.70    0.70
  -4   4  -6    3.50    0.50
  -6   4  -6    1.20    0.30
   6  -4   6    1.40    0.30
   7  -4   6    1.20    0.30
   8  -4   6    3.20    0.40
  -6  -3   6    3.70    0.50
  -5  -3   6   19.40    2.20
   4   3  -6    6.70    2.10
   4   3  -6    5.20    0.60
  -4  -3   6    5.40    0.80
   3   3  -6    0.30    0.20
   3   3  -6   -0.20    1.00
   2   3  -6    0.00    0.10
   2   3  -6   -0.40    1.10
   2   3  -6    0.10    0.20
  -2  -3   6    0.10    0.20
   1   3  -6    0.10    0.10
   1   3  -6    0.20    0.20
   1   3  -6   -0.30    1.10
  -1  -3   6    0.10    0.10
   0   3  -6   29.90    3.20
  -1   3  -6    5.50    0.70
  -2   3  -6   23.90    2.60
  -3   3  -6   54.19    6.40
   3  -3   6   68.39    6.40
  -4   3  -6    4.10    0.60
   4  -3   6    5.30    0.60
  -5   3  -6   12.40    1.50
   5  -3   6   13.60    1.50
  -6   3  -6    5.50    0.70
   6  -3   6    6.10    0.70
  -7   3  -6    6.50    0.80
   7  -3   6    7.10    0.80
  -8   3  -6    0.10    0.10
   8  -3   6    0.00    0.20
  -6  -2   6    1.00    0.30
   5   2  -6    0.10    0.10
  -5  -2   6    0.20    0.30
   4   2  -6    0.00    1.30
   4   2  -6    0.00    0.20
  -4  -2   6    0.00    0.20
   3   2  -6   -0.70    1.10
   3   2  -6    0.50    0.20
   2   2  -6   10.50    2.30
   2   2  -6    9.90    1.20
  -2  -2   6   11.50    1.20
   1   2  -6   48.70    6.00
   1   2  -6   59.59    6.70
  -1  -2   6   65.19    6.00
   0   2  -6   20.30    2.70
   0   2  -6   17.00    1.70
   0   2  -6   12.50    1.80
  -1   2  -6   55.39    6.50
  -1   2  -6   65.99    5.90
  -1   2  -6   49.30    6.10
  -2   2  -6   83.29    9.10
  -2   2  -6   83.39    8.90
  -4   2  -6  170.08   18.10
   4  -2   6  179.38   18.10
  -5   2  -6    1.40    0.30
   5  -2   6    1.40    0.30
  -6   2  -6    0.10    0.50
  -6   2  -6    0.30    0.20
   6  -2   6    0.20    0.20
  -7   2  -6    0.00    0.20
   7  -2   6   -0.10    0.20
  -8   2  -6    4.00    0.60
   8  -2   6    4.90    0.60
   6   1  -6    0.40    0.10
  -6  -1   6   -0.10    0.30
   5   1  -6    0.20    0.20
  -5  -1   6    0.20    0.30
   4   1  -6    8.20    1.00
  -4  -1   6   10.70    1.20
   3   1  -6   -0.10    1.30
   3   1  -6    0.10    0.20
  -3  -1   6    0.30    0.20
   2   1  -6    4.50    0.50
  -2  -1   6    3.70    0.50
   1   1  -6   84.29    8.50
   1   1  -6   78.59    8.60
   0   1  -6    1.30    0.40
   0   1  -6    2.20    1.10
  -1   1  -6  125.89   15.00
  -1   1  -6  160.28   15.20
  -2   1  -6    0.30    1.60
  -2   1  -6    1.30    0.60
  -3   1  -6    0.50    0.10
  -3   1  -6    0.40    0.20
  -3   1  -6    0.10    0.50
   3  -1   6    0.90    0.20
  -4   1  -6    4.10    0.60
   4  -1   6    4.10    0.50
  -5   1  -6   19.80    2.40
   5  -1   6   24.30    2.40
  -6   1  -6    1.30    0.40
   6  -1   6    2.80    0.50
  -7   1  -6    0.50    0.40
  -8   1  -6    8.90    1.20
   8  -1   6   11.20    1.10
  -9   1  -6    1.30    0.30
   6   0  -6   -0.10    0.10
  -6   0   6    0.10    0.20
   5   0  -6    0.00    0.20
  -5   0   6    0.00    0.20
   4   0  -6   15.40    1.90
  -4   0   6   19.10    2.00
   3   0  -6    0.70    1.40
   3   0  -6    0.00    0.20
  -3   0   6    0.20    0.20
   2   0  -6   21.20    2.60
   2   0  -6   27.90    2.80
   1   0  -6   22.50    2.60
   0   0  -6    6.60    1.10
   0   0  -6    9.80    1.90
  -1   0  -6    0.00    0.40
  -1   0  -6   -0.10    0.70
  -2   0  -6   59.09    6.10
  -2   0  -6   54.69    6.20
  -3   0  -6    0.40    0.50
  -4   0  -6   24.00    3.20
  -4   0  -6   29.30    2.80
  -5   0  -6   27.60    2.90
  -5   0  -6   26.40    2.90
  -6   0  -6    0.10    0.20
   6   0   6   -0.10    0.20
  -7   0  -6    0.10    0.20
   7   0   6    0.10    0.20
  -8   0  -6    9.10    1.20
   8   0   6   10.80    1.10
  -9   0  -6    0.20    0.20
   6  -1  -6    0.20    0.10
  -6   1   6    0.50    0.20
   5  -1  -6    0.60    0.20
  -5   1   6    0.30    0.20
   4  -1  -6   38.30    4.20
   4  -1  -6   32.50    5.70
  -4   1   6   46.30    4.30
   3  -1  -6   24.10    3.10
   3  -1  -6   34.40    3.60
  -3   1   6   27.40    3.20
  -3   1   6   32.20    3.10
   2  -1  -6   28.90    3.30
  -2   1   6   32.30    3.40
  -2   1   6   32.00    3.30
   1  -1  -6    0.20    0.40
   1  -1  -6    0.20    0.20
  -1   1   6   -0.40    0.30
   0  -1  -6    2.30    0.50
  -1  -1  -6   38.00    4.20
  -2  -1  -6   82.19    8.30
  -2  -1  -6   73.79    8.20
  -3  -1  -6   22.00    2.60
  -4  -1  -6   14.70    2.00
  -4  -1  -6   18.30    1.70
   4   1   6   13.20    1.90
  -5  -1  -6   81.19    8.30
  -5  -1  -6   77.09    8.30
   6   1   6   32.90    3.50
  -7  -1  -6   13.60    1.80
   7   1   6   18.50    1.80
  -8  -1  -6    2.10    0.40
  -9  -1  -6    0.90    0.30
   6  -2  -6   -0.10    0.10
   5  -2  -6    0.70    0.20
  -5   2   6    0.50    0.20
   4  -2  -6    1.70    0.40
  -4   2   6    1.30    0.30
   3  -2  -6    0.60    0.30
  -3   2   6    0.60    0.30
  -3   2   6    0.70    0.20
   2  -2  -6   21.20    2.30
  -2   2   6   19.70    2.20
  -2   2   6   22.40    2.30
   1  -2  -6    0.50    0.40
   1  -2  -6    0.60    0.20
  -1   2   6    1.00    0.40
  -1   2   6    0.40    0.20
   0  -2  -6   39.70    4.70
   0   2   6   45.30    4.60
  -1  -2  -6   21.40    2.50
  -3  -2  -6  121.49   12.80
  -4  -2  -6   96.89   11.00
  -4  -2  -6  109.99   10.80
  -5  -2  -6    9.90    1.10
  -5  -2  -6   10.70    1.10
   5   2   6    7.70    1.10
  -6  -2  -6   16.00    1.70
   6   2   6   13.60    1.70
  -7  -2  -6    4.50    0.70
   7   2   6    4.80    0.80
  -8  -2  -6    8.00    1.00
  -9  -2  -6    0.20    0.20
   9   2   6    0.20    0.10
   5  -3  -6    6.00    0.70
   4  -3  -6    3.40    0.50
   3  -3  -6    0.30    0.20
  -3   3   6    0.60    0.10
  -3   3   6    0.40    0.20
  -3   3   6   -0.10    0.50
   2  -3  -6    1.10    0.70
   2  -3  -6    1.20    0.30
  -2   3   6    1.40    0.60
  -2   3   6    1.90    0.30
  -2   3   6    1.20    0.20
   1  -3  -6    8.20    1.30
   1  -3  -6    6.70    0.80
  -1   3   6    6.00    0.70
   0  -3  -6    5.80    1.00
   0  -3  -6    5.50    0.60
   0   3   6    3.70    0.50
  -1  -3  -6    7.00    1.10
   1   3   6    7.60    1.00
   1   3   6    4.70    0.70
  -2  -3  -6    0.10    0.40
   2   3   6    0.10    0.10
  -3  -3  -6    2.30    0.60
   3   3   6    2.30    0.30
  -4  -3  -6   11.00    1.60
  -4  -3  -6   12.50    1.30
  -4  -3  -6    8.90    1.30
   4   3   6   11.70    1.30
  -5  -3  -6    5.60    0.80
   5   3   6    5.40    0.80
   5   3   6    7.60    0.70
  -6  -3  -6   10.20    1.10
   6   3   6    8.60    1.20
  -7  -3  -6    2.10    0.40
   7   3   6    1.40    0.40
  -8  -3  -6   12.60    1.40
   8   3   6   12.20    1.30
  -9  -3  -6    0.10    0.20
   9   3   6    0.10    0.10
   5  -4  -6    0.60    0.20
   4  -4  -6    1.60    0.30
   3  -4  -6   -0.10    0.30
  -3   4   6    0.20    0.10
   2  -4  -6    0.10    0.20
  -2   4   6    0.00    0.10
  -2   4   6   -0.70    0.50
   1  -4  -6   13.40    1.60
   1  -4  -6   17.60    2.10
  -1   4   6   13.30    1.50
   0  -4  -6   71.89    6.90
   0   4   6   60.49    6.90
  -1  -4  -6    0.90    0.20
  -1  -4  -6    0.60    0.60
   1   4   6    0.90    0.50
   1   4   6    0.60    0.20
  -2  -4  -6   29.40    3.20
   2   4   6   25.90    2.90
  -3  -4  -6    0.30    0.40
   3   4   6    0.50    0.20
  -4  -4  -6    3.30    0.60
  -4  -4  -6    2.50    0.70
   4   4   6    3.30    0.60
   4   4   6    3.50    0.40
  -5  -4  -6    3.30    0.50
   5   4   6    2.90    0.60
   5   4   6    4.10    0.50
  -6  -4  -6   14.40    1.70
   6   4   6   12.90    1.70
   6   4   6   17.00    1.60
  -7  -4  -6    6.60    0.80
   7   4   6    4.70    0.90
   7   4   6    7.60    0.70
  -8  -4  -6   31.00    2.90
   8   4   6   22.30    2.90
   8   4   6   28.30    2.90
   9   4   6    5.40    0.60
   4  -5  -6    2.00    0.40
   3  -5  -6    0.10    0.20
  -3   5   6    0.00    0.10
   2  -5  -6    3.20    0.60
  -2   5   6    4.40    1.00
  -2   5   6    3.70    0.50
   1  -5  -6    0.40    0.20
  -1   5   6    0.40    0.20
  -1   5   6    0.20    0.50
   0  -5  -6    5.30    1.30
   0  -5  -6    5.90    0.80
   0   5   6    8.00    1.20
   0   5   6    6.00    0.70
  -1  -5  -6   94.89    9.60
   1   5   6   96.99    9.50
   1   5   6   75.09    9.30
  -2  -5  -6    0.80    0.60
   2   5   6    1.00    0.20
  -3  -5  -6    0.00    0.40
   3   5   6    0.20    0.10
  -6  -5  -6    2.90    0.40
   6   5   6    2.70    0.40
   6   5   6    1.70    0.50
  -7  -5  -6    4.70    0.60
   7   5   6    4.80    0.50
   7   5   6    3.80    0.70
  -8  -5  -6    4.00    0.50
   8   5   6    2.30    0.50
   8   5   6    3.50    0.40
   9   5   6    0.10    0.10
   4  -6  -6    0.10    0.10
   3  -6  -6    0.90    0.30
  -3   6   6    1.30    0.20
   2  -6  -6    3.00    0.50
  -2   6   6    3.80    0.50
  -1   6   6    0.10    0.10
   0  -6  -6   23.70    2.70
   0   6   6   22.90    2.90
   0   6   6   28.60    2.70
  -1  -6  -6   31.40    3.50
   1   6   6   32.60    3.40
   1   6   6   25.70    3.00
   1   6   6   25.40    3.20
  -2  -6  -6    0.70    0.80
   2   6   6    1.00    0.20
   2   6   6    2.00    0.50
  -3  -6  -6    2.10    0.70
   3   6   6    2.30    0.40
   5   6   6    3.90    0.50
   6   6   6   31.10    2.90
   6   6   6   24.10    3.00
   7   6   6    3.40    0.40
   8   6   6    1.60    0.20
   8   6   6    1.20    0.30
   3  -7  -6    2.10    0.30
  -3   7   6    1.60    0.50
   2  -7  -6    1.70    0.30
  -2   7   6    2.20    0.30
  -2   7   6    1.20    0.60
   1  -7  -6    4.90    0.60
  -1   7   6    3.70    0.50
   0   7   6    0.90    0.20
   0   7   6    0.40    0.50
   0   7   6   -0.30    0.60
   1   7   6    6.50    0.70
   1   7   6    6.20    1.10
   1   7   6    5.80    1.20
   2   7   6    6.10    0.80
   2   7   6    7.60    1.10
   3   7   6    0.40    0.20
   3   7   6    1.00    0.40
   5   7   6    0.20    0.20
   5   7   6    0.30    0.20
   6   7   6    3.60    0.60
   6   7   6    4.30    0.50
   7   7   6    5.70    0.60
   7   7   6    4.90    0.70
   8   7   6   -0.10    0.20
   8   7   6    0.00    0.10
  -2   8   6    2.00    0.30
  -2   8   6    1.80    0.50
  -1   8   6    4.80    0.90
  -1   8   6    5.40    0.60
   0   8   6    0.10    0.40
   0   8   6    0.10    0.20
   1   8   6    0.00    0.10
   1   8   6   -0.30    0.40
   2   8   6   -0.10    0.10
   2   8   6    0.10    0.40
   3   8   6    0.10    0.20
   3   8   6   -0.10    0.40
   4   8   6    2.40    0.40
   5   8   6    2.10    0.40
   5   8   6    2.00    0.30
   6   8   6    1.90    0.30
   6   8   6    1.70    0.30
   7   8   6    3.90    0.40
   7   8   6    3.20    0.50
  -1   9   6    7.30    0.80
  -1   9   6    8.30    1.00
   0   9   6    0.20    0.30
   0   9   6    0.10    0.10
   1   9   6    1.00    0.40
   1   9   6    1.00    0.20
   2   9   6   -0.30    0.40
   2   9   6    0.00    0.10
   3   9   6    0.70    0.20
   4   9   6    1.30    0.20
   5   9   6    3.20    0.40
   6   9   6    0.20    0.10
   1  10   6    0.10    0.10
   2  10   6    0.20    0.10
   3  10   6    1.40    0.20
   4  10   6    0.60    0.10
   1   9  -7    0.30    0.80
   1   9  -7    0.50    0.20
   0   9  -7   -1.10    0.90
   0   9  -7    0.00    0.20
  -2   9  -7    0.80    0.70
  -2   9  -7    0.60    0.30
   3   8  -7    0.00    0.60
   3   8  -7    0.10    0.20
   2   8  -7    0.10    0.90
   2   8  -7    0.20    0.20
  -2  -8   7    0.30    0.20
   1   8  -7    1.50    0.40
   1   8  -7   -0.50    1.00
   0   8  -7   14.90    1.50
   0  -8   7   12.00    1.40
  -1   8  -7   -0.10    0.30
   1  -8   7   -0.10    0.10
  -2   8  -7   -0.80    0.80
  -2   8  -7    0.20    0.20
  -3   8  -7    5.50    0.70
   3  -8   7    6.10    0.70
  -4   8  -7    0.40    0.20
   4  -8   7    0.40    0.10
   4   7  -7    1.30    0.30
   3   7  -7    8.90    1.50
   3   7  -7    7.40    0.90
  -3  -7   7    7.70    0.90
   2   7  -7    0.90    0.30
   2   7  -7    0.40    1.00
   1   7  -7   20.30    2.00
  -1  -7   7   16.10    1.90
   0   7  -7    1.70    0.40
   0  -7   7    1.90    0.30
  -1   7  -7    5.20    0.90
   1  -7   7    6.60    0.80
  -2   7  -7    1.30    0.30
  -2   7  -7    1.10    0.40
   2  -7   7    1.70    0.30
  -3   7  -7    4.40    0.70
  -3   7  -7    4.60    0.80
  -5   7  -7    3.00    0.50
  -5   7  -7    2.50    0.50
   5  -7   7    3.80    0.40
  -5  -6   7    2.10    0.40
   4   6  -7    0.40    0.20
  -4  -6   7    0.00    0.20
   3   6  -7   -0.10    0.90
   3   6  -7    0.40    0.20
  -3  -6   7    0.10    0.20
   2   6  -7   -0.20    0.20
  -2  -6   7   -0.30    0.10
  -2   6  -7   54.79    5.90
   2  -6   7   47.30    5.30
  -3   6  -7    9.50    1.20
   4  -6   7    1.50    0.30
   5  -6   7    0.20    0.20
   6  -6   7    0.80    0.20
  -5  -5   7    0.20    0.20
  -4  -5   7    0.40    0.20
   3   5  -7    0.30    0.80
   3   5  -7    0.50    0.20
   2   5  -7   10.60    1.10
  -2  -5   7    8.80    1.10
   1   5  -7  224.88   25.40
   1   5  -7  244.88   24.30
  -1  -5   7  234.28   24.30
   0   5  -7   21.10    2.70
   0  -5   7   27.80    2.60
   3  -5   7   48.90    5.20
   4  -5   7    2.00    0.50
   5  -5   7   25.20    2.70
   6  -5   7    0.30    0.20
   7  -5   7    0.30    0.20
  -5  -4   7    0.20    0.30
  -4  -4   7   17.30    1.90
   3   4  -7    3.80    2.10
   3   4  -7    2.20    0.40
   2   4  -7  106.29   10.00
  -2  -4   7   85.59    9.90
   1   4  -7   52.89    5.70
  -1  -4   7   54.99    5.70
   0   4  -7   49.40    5.20
  -1   4  -7    0.90    1.30
  -1   4  -7    2.50    0.40
   1  -4   7    2.60    0.50
  -2   4  -7    2.00    1.10
   2  -4   7    1.90    0.40
   3  -4   7   13.60    1.50
   4  -4   7    5.70    0.80
  -6   4  -7    0.80    0.20
   6  -4   7    1.10    0.30
   7  -4   7    2.20    0.40
  -6  -3   7    0.10    0.20
  -5  -3   7    0.20    0.20
  -4  -3   7    0.30    0.30
   3   3  -7    0.10    1.20
   3   3  -7    1.90    0.30
   2   3  -7    5.50    0.70
   2   3  -7    6.60    1.90
  -2  -3   7    5.40    0.70
   1   3  -7   38.70    5.30
   1   3  -7   37.30    4.40
   1   3  -7   43.80    4.40
  -1  -3   7   45.60    4.40
   0   3  -7    1.90    1.40
   0   3  -7    2.20    0.40
   0  -3   7    3.10    0.40
  -1   3  -7    6.90    1.80
  -1   3  -7    9.30    1.00
  -2   3  -7   95.89   10.00
  -3   3  -7   32.50    3.80
   3  -3   7   30.20    3.40
  -4   3  -7    4.00    0.70
   4  -3   7    3.20    0.50
  -5   3  -7  258.27   27.00
  -6   3  -7    0.60    0.20
   6  -3   7    0.50    0.20
  -7   3  -7    4.90    0.70
   7  -3   7    6.50    0.70
   8  -3   7    1.40    0.20
  -6  -2   7   -0.10    0.20
  -5  -2   7    1.00    0.30
   4   2  -7    0.00    0.10
  -4  -2   7    0.10    0.30
   3   2  -7    0.60    1.30
   3   2  -7    1.10    0.30
  -3  -2   7    1.40    0.40
   2   2  -7   13.20    1.50
   2   2  -7   13.00    2.60
  -2  -2   7   14.50    1.50
   1   2  -7    4.80    0.70
   1   2  -7    6.00    1.60
  -1  -2   7    6.50    0.70
   0   2  -7    1.40    1.20
   0   2  -7    0.80    0.20
   0  -2   7    0.70    0.20
  -1   2  -7   92.09    9.60
  -1   2  -7   87.69    9.90
  -2   2  -7   78.59    8.80
  -2   2  -7   81.69    8.70
  -4   2  -7   47.80    5.20
   4  -2   7   49.99    5.20
  -5   2  -7    9.60    1.30
   5  -2   7   11.80    1.20
  -7   2  -7    0.30    0.20
  -8   2  -7    0.10    0.20
   8  -2   7    0.40    0.20
   8  -2   7    0.00    0.10
  -6  -1   7    0.70    0.20
   5   1  -7    2.50    0.40
  -5  -1   7    3.20    0.50
   4   1  -7    1.90    0.40
  -4  -1   7    2.20    0.50
   3   1  -7    5.10    0.70
   3   1  -7    9.00    2.30
  -3  -1   7    7.10    0.90
   2   1  -7    2.30    0.40
   2   1  -7    0.90    1.10
  -2  -1   7    2.60    0.40
   1   1  -7   16.60    2.60
   1   1  -7   14.60    1.70
  -1  -1   7   13.30    1.60
   0   1  -7    0.70    0.40
   0   1  -7    0.90    0.20
   0  -1   7    1.10    0.20
  -1   1  -7   68.99    7.90
  -1   1  -7   73.59    7.50
  -2   1  -7    0.30    0.50
  -2   1  -7    0.90    0.80
  -2   1  -7    0.80    0.20
   2  -1   7    1.20    0.20
  -3   1  -7   14.00    1.40
  -3   1  -7   10.90    1.80
  -4   1  -7    0.30    0.10
  -4   1  -7    0.50    0.30
   4  -1   7    0.60    0.20
  -5   1  -7   27.00    3.30
   5  -1   7   34.70    3.30
  -6   1  -7   10.60    1.50
   6  -1   7   15.30    1.50
  -7   1  -7    0.20    0.30
   7  -1   7    0.20    0.20
  -8   1  -7    7.00    0.90
   8  -1   7    6.40    0.80
  -9   1  -7    0.90    0.30
  -6   0   7    0.10    0.10
   5   0  -7    0.80    0.20
  -5   0   7    0.90    0.30
   4   0  -7    0.00    0.30
  -4   0   7    0.20    0.30
   3   0  -7   22.60    4.10
   3   0  -7   26.50    2.70
   1   0  -7   23.70    2.70
   1   0  -7   23.80    2.90
  -1   0   7   27.00    2.70
   0   0  -7   13.50    1.90
   0   0  -7   15.20    1.70
   0   0   7   16.80    1.70
  -1   0  -7   19.50    2.60
  -1   0  -7   25.20    3.00
  -1   0  -7   22.00    2.40
  -2   0  -7    3.30    0.40
  -2   0  -7    2.20    0.70
  -2   0  -7    2.00    0.80
  -3   0  -7    0.30    0.20
  -3   0  -7    0.10    0.40
   3   0   7    0.40    0.20
  -4   0  -7    8.20    0.90
  -4   0  -7    6.60    1.30
  -4   0  -7    5.60    0.80
   4   0   7    7.70    0.80
  -5   0  -7    0.10    0.20
   5   0   7    0.50    0.30
  -6   0  -7    0.10    0.20
   6   0   7    0.20    0.20
  -7   0  -7    3.10    0.60
   7   0   7    4.10    0.50
   8   0   7    7.90    0.90
  -9   0  -7    0.00    0.20
   9   0   7    0.00    0.10
   5  -1  -7    8.10    0.90
  -5   1   7    6.10    0.80
   4  -1  -7   11.60    1.30
  -4   1   7   12.40    1.40
   3  -1  -7    0.00    0.20
  -3   1   7    0.10    0.20
   2  -1  -7    1.40    0.30
   2  -1  -7    0.20    1.30
   2  -1  -7    1.80    0.60
  -2   1   7    1.30    0.40
  -2   1   7    1.50    0.20
   1  -1  -7   36.20    4.50
   1  -1  -7   47.90    4.80
  -1   1   7   44.20    4.50
   0  -1  -7   34.10    3.80
   0  -1  -7   38.10    4.00
   0   1   7   35.10    3.70
  -1  -1  -7   16.80    2.20
  -1  -1  -7   11.60    1.50
  -1  -1  -7   11.90    1.80
   1   1   7   15.20    1.50
  -2  -1  -7    0.50    0.40
   2   1   7    1.10    0.20
  -3  -1  -7    1.80    0.30
  -3  -1  -7    1.20    0.60
   3   1   7    2.50    0.40
  -4  -1  -7    0.50    0.50
  -4  -1  -7    0.50    0.20
  -4  -1  -7    0.70    0.20
   4   1   7    0.50    0.10
   4   1   7    1.00    0.20
   5   1   7   27.20    2.90
   6   1   7   19.10    2.00
   7   1   7    0.50    0.20
  -8  -1  -7    0.60    0.30
  -9  -1  -7   -0.10    0.20
   9   1   7    0.10    0.10
   5  -2  -7    0.80    0.20
   4  -2  -7    0.10    0.20
  -4   2   7    0.20    0.20
   3  -2  -7   17.80    1.90
  -3   2   7   16.90    2.00
   2  -2  -7   15.00    1.70
  -2   2   7   14.90    1.60
  -2   2   7   14.30    1.70
   1  -2  -7   37.70    3.60
  -1   2   7   26.80    3.10
  -1   2   7   26.90    3.20
   0  -2  -7   -0.20    0.50
   0  -2  -7    0.40    0.20
   0   2   7    0.60    0.10
  -1  -2  -7   10.50    1.20
  -1  -2  -7   12.70    1.60
   1   2   7    9.40    1.20
   1   2   7   12.10    1.20
  -2  -2  -7   85.09    9.20
   2   2   7   86.49    8.90
  -3  -2  -7   46.10    4.90
   3   2   7   47.20    4.90
  -4  -2  -7    0.30    0.20
  -4  -2  -7    0.30    0.10
  -4  -2  -7    0.40    0.50
   4   2   7    0.40    0.10
   5   2   7    6.00    0.70
  -6  -2  -7    0.20    0.20
   6   2   7    0.20    0.10
  -7  -2  -7    0.50    0.30
   7   2   7    0.60    0.20
  -8  -2  -7    2.00    0.40
   8   2   7    2.10    0.30
  -9  -2  -7    0.50    0.20
   9   2   7    0.40    0.10
   5  -3  -7   14.90    1.60
   4  -3  -7    1.10    0.30
   3  -3  -7    9.30    1.20
  -3   3   7   11.20    1.10
   2  -3  -7    0.60    0.20
  -2   3   7    0.40    0.10
   1  -3  -7    9.20    1.60
   1  -3  -7    8.50    1.10
  -1   3   7    7.70    1.00
  -1   3   7   10.80    1.40
   0  -3  -7    4.80    0.70
   0   3   7    6.70    1.00
   0   3   7    5.10    0.60
  -1  -3  -7    0.60    0.20
  -1  -3  -7   -0.10    0.40
   1   3   7    0.50    0.10
  -2  -3  -7   17.30    1.80
  -2  -3  -7   16.40    2.10
   2   3   7   15.90    1.80
  -3  -3  -7   41.00    5.00
  -3  -3  -7   50.29    4.80
   3   3   7   44.90    4.70
  -4  -3  -7    0.30    0.20
  -4  -3  -7    0.60    0.40
   4   3   7    1.00    0.30
   4   3   7    0.30    0.10
  -5  -3  -7   10.00    1.20
   5   3   7    8.40    1.20
   5   3   7   11.60    1.10
  -6  -3  -7    0.20    0.20
   6   3   7    0.20    0.10
   6   3   7    0.00    0.30
  -7  -3  -7    2.90    0.50
   7   3   7    3.60    0.40
  -8  -3  -7    4.80    0.60
   8   3   7    3.50    0.50
  -9  -3  -7    3.90    0.50
   9   3   7    2.90    0.40
   4  -4  -7    2.90    0.50
   3  -4  -7    0.20    0.20
  -3   4   7    0.10    0.10
   2  -4  -7   -0.10    0.20
  -2   4   7    0.00    0.10
   1  -4  -7    0.60    0.30
  -1   4   7    0.70    0.20
  -1   4   7   -0.10    0.50
   0  -4  -7    3.70    0.60
   0  -4  -7    4.90    1.10
   0   4   7    3.40    0.50
   0   4   7    4.70    0.90
  -1  -4  -7    4.10    0.90
  -1  -4  -7    4.30    0.60
   1   4   7    4.10    0.50
   1   4   7    4.80    0.90
  -2  -4  -7   34.80    3.60
  -2  -4  -7   35.60    3.90
   2   4   7   31.90    3.60
  -3  -4  -7   12.90    1.30
  -3  -4  -7   10.10    1.70
   3   4   7   11.70    1.30
  -4  -4  -7    3.10    0.50
   4   4   7    3.70    0.60
   4   4   7    3.10    0.40
  -6  -4  -7   -0.10    0.10
   6   4   7    0.00    0.30
   6   4   7    0.00    0.10
  -7  -4  -7    0.50    0.20
   7   4   7   -0.10    0.30
   7   4   7    0.90    0.20
  -8  -4  -7    3.10    0.50
   8   4   7    2.80    0.40
  -9  -4  -7    0.60    0.20
   9   4   7    0.40    0.10
   4  -5  -7    1.70    0.30
   3  -5  -7    0.00    0.20
  -3   5   7    0.10    0.10
   2  -5  -7   -0.10    0.20
  -2   5   7    0.00    0.10
   1  -5  -7   19.60    2.10
  -1   5   7   18.50    2.00
   0  -5  -7    0.90    0.30
   0   5   7    0.90    0.20
   0   5   7    0.60    0.70
  -1  -5  -7  116.99   12.70
   1   5   7  126.69   13.00
  -2  -5  -7    2.50    0.40
  -2  -5  -7    1.90    0.70
   2   5   7    1.60    0.30
  -3  -5  -7   25.00    3.10
   3   5   7   25.10    2.70
  -5  -5  -7    1.90    0.30
   5   5   7    1.60    0.30
   5   5   7    1.10    0.40
   6   5   7    2.80    0.50
   6   5   7    2.30    0.50
  -7  -5  -7    6.40    0.80
   7   5   7    5.50    0.70
  -8  -5  -7    2.60    0.40
   8   5   7    1.80    0.30
   9   5   7    6.10    0.70
   3  -6  -7    0.10    0.10
  -3   6   7    0.30    0.40
  -3   6   7    0.10    0.10
   2  -6  -7    1.00    0.30
  -2   6   7    1.40    0.20
   1  -6  -7    0.30    0.20
  -1   6   7    0.80    0.50
  -1   6   7    0.80    0.20
   0  -6  -7    7.30    0.80
   0   6   7    5.00    1.30
   0   6   7    5.90    0.80
   0   6   7    7.60    1.00
   1   6   7    5.80    0.70
   2   6   7   18.10    2.00
   3   6   7    8.40    1.00
   5   6   7    8.20    1.00
   5   6   7    8.90    1.00
   6   6   7    0.60    0.20
   6   6   7    0.40    0.30
   7   6   7    1.60    0.40
   7   6   7    2.00    0.30
   2  -7  -7    0.60    0.20
  -2   7   7    0.10    0.30
  -2   7   7    0.00    0.10
  -1   7   7    0.20    0.40
  -1   7   7   -0.10    0.10
   0   7   7    3.80    0.70
   0   7   7    3.20    0.50
   1   7   7    3.80    0.60
   1   7   7    3.80    0.50
   2   7   7    4.40    0.60
   3   7   7    0.10    0.20
   4   7   7    0.40    0.20
   5   7   7    2.30    0.30
   5   7   7    2.00    0.30
   6   7   7    0.30    0.20
   6   7   7    0.20    0.10
   7   7   7    5.60    0.70
   8   7   7    4.50    0.50
  -1   8   7    3.00    0.40
   0   8   7   11.20    1.30
   0   8   7   12.70    1.40
   1   8   7    2.20    0.50
   2   8   7    0.90    0.20
   3   8   7    0.70    0.20
   4   8   7    2.70    0.40
   5   8   7    0.00    0.10
   6   8   7    0.30    0.10
   7   8   7    3.30    0.40
   0   9   7    4.00    0.50
   1   9   7    1.20    0.20
   2   9   7    0.30    0.10
   3   9   7   -0.10    0.10
   4   9   7    3.00    0.40
   5   9   7    0.40    0.10
   6   9   7    4.80    0.50
   2   8  -8    0.10    0.70
   2   8  -8   -0.10    0.20
   1   8  -8    4.80    1.30
   1   8  -8    4.00    0.60
   0   8  -8   -0.20    0.80
   0   8  -8    0.10    0.20
   0  -8   8    0.50    0.10
  -1   8  -8    0.10    0.20
  -1   8  -8    0.10    0.80
   1  -8   8    0.10    0.10
  -2   8  -8    1.80    0.30
  -2   8  -8    0.10    0.70
   2  -8   8    1.70    0.30
  -3   8  -8   -0.80    0.60
  -3   8  -8    0.60    0.20
   3  -8   8    0.60    0.10
   3   7  -8    1.00    0.60
  -3  -7   8    0.10    0.20
   2   7  -8    0.20    0.20
   2   7  -8   -0.70    0.90
   1   7  -8    2.80    0.50
  -1  -7   8    2.50    0.40
   0   7  -8   11.70    1.20
   0  -7   8    9.20    1.10
  -1   7  -8    0.70    0.30
   1  -7   8    1.00    0.20
  -2   7  -8    0.10    0.30
   2  -7   8    0.50    0.20
  -5   7  -8   11.90    1.40
   5  -7   8   13.40    1.40
  -4  -6   8    2.90    0.40
   3   6  -8    0.10    0.50
   3   6  -8    0.50    0.20
  -3  -6   8    0.10    0.20
   2   6  -8    0.10    0.20
   1   6  -8    0.60    0.20
  -1  -6   8    0.20    0.20
   0   6  -8    5.10    0.80
   0  -6   8    5.60    0.70
  -1   6  -8    7.20    1.10
   1  -6   8    9.00    1.00
   3  -6   8   11.20    1.30
   4  -6   8    0.90    0.30
   5  -6   8    0.70    0.20
  -6   6  -8    4.10    0.60
   6  -6   8    6.10    0.60
  -4  -5   8    2.20    0.40
   3   5  -8    0.40    0.60
  -3  -5   8    0.10    0.20
   2   5  -8    0.70    0.20
  -2  -5   8    0.40    0.20
   1   5  -8  124.59   14.50
   1   5  -8  134.29   13.10
  -1  -5   8  119.89   13.10
   0   5  -8   71.69    7.70
   0   5  -8   70.19    9.10
   0  -5   8   77.89    7.70
   1  -5   8   30.40    3.20
   2  -5   8   58.49    6.10
   3  -5   8    4.90    0.80
   4  -5   8    0.20    0.20
   5  -5   8    9.20    1.10
   6  -5   8    1.80    0.40
   7  -5   8    3.20    0.40
  -5  -4   8    1.30    0.30
  -4  -4   8    3.40    0.50
  -3  -4   8    0.90    0.30
   2   4  -8    9.70    1.10
   2   4  -8   13.70    2.40
  -2  -4   8    8.90    1.10
   1   4  -8    3.80    0.50
   1   4  -8    2.70    1.60
  -1  -4   8    3.20    0.50
   0   4  -8   12.60    3.10
   0   4  -8   14.30    1.50
   0   4  -8   13.20    1.50
   2  -4   8   16.00    1.80
  -3   4  -8    0.00    0.20
   3  -4   8    0.30    0.30
  -4   4  -8    0.30    0.20
   4  -4   8    0.50    0.30
  -5   4  -8    0.20    0.20
   5  -4   8    1.20    0.30
   6  -4   8   97.99   10.20
   7  -4   8    0.50    0.20
  -5  -3   8    0.30    0.20
  -4  -3   8    2.60    0.50
   3   3  -8    3.60    0.40
  -3  -3   8    4.70    0.60
   2   3  -8   13.90    3.00
   2   3  -8   17.20    1.90
  -2  -3   8   17.90    1.90
   1   3  -8   13.10    1.50
   1   3  -8   15.60    1.50
   1   3  -8   11.10    2.80
  -1  -3   8   13.30    1.50
   0   3  -8   -0.10    0.20
   0   3  -8   -0.60    1.40
   0  -3   8   -0.10    0.20
  -1   3  -8    2.40    1.20
   1  -3   8    2.50    0.40
   2  -3   8   13.00    1.50
  -3   3  -8    1.40    0.30
   3  -3   8    1.80    0.40
  -4   3  -8    5.70    0.80
   5  -3   8  111.59   11.60
  -6   3  -8    1.70    0.30
  -7   3  -8    7.80    0.90
   8  -3   8    0.40    0.10
  -5  -2   8    0.10    0.20
   4   2  -8    2.60    0.40
  -4  -2   8    4.30    0.60
   3   2  -8    0.50    0.20
  -3  -2   8    0.80    0.30
   2   2  -8   15.20    1.70
  -2  -2   8   15.60    1.70
   1   2  -8    4.70    0.60
  -1  -2   8    4.90    0.60
  -2   2  -8   11.00    1.40
  -3   2  -8   10.40    1.40
   3  -2   8   13.50    1.40
  -4   2  -8   18.30    2.40
   4  -2   8   25.30    2.40
   5  -2   8    4.00    0.60
  -6   2  -8    2.10    0.50
   6  -2   8    3.40    0.40
  -7   2  -8    1.30    0.30
   7  -2   8    2.40    0.30
  -8   2  -8    0.60    0.20
   8  -2   8    0.80    0.20
  -5  -1   8    0.30    0.20
   4   1  -8    0.00    0.10
  -4  -1   8   -0.10    0.20
   3   1  -8    0.10    0.20
  -3  -1   8    0.20    0.30
   2   1  -8   -0.30    1.20
   2   1  -8   -0.10    0.20
   1   1  -8   22.10    3.50
   1   1  -8   22.00    2.40
   1   1  -8   21.00    2.40
  -1  -1   8   24.30    2.40
  -1   1  -8    0.00    0.80
  -3   1  -8   19.10    2.10
  -3   1  -8   21.10    2.60
  -4   1  -8    9.70    1.40
   4  -1   8   14.40    1.40
   5  -1   8   58.49    6.10
  -6   1  -8    1.70    0.40
   6  -1   8    1.60    0.30
  -7   1  -8    8.40    1.00
   7  -1   8    7.00    0.80
  -8   1  -8    2.20    0.50
   8  -1   8    1.10    0.20
   8  -1   8    1.70    0.20
   5   0  -8    0.00    0.10
  -5   0   8    0.00    0.20
   4   0  -8   10.00    1.20
  -4   0   8   11.50    1.30
   3   0  -8    3.00    0.50
  -3   0   8    4.10    0.60
   2   0  -8   -0.50    1.20
   2   0  -8    0.80    0.30
  -2   0   8    1.20    0.40
   1   0  -8   21.10    2.40
  -1   0   8   22.70    2.40
   0   0  -8    1.60    1.20
   0   0   8    2.40    0.40
  -1   0  -8    5.20    1.30
  -1   0  -8    4.40    1.00
  -1   0  -8    3.90    0.60
   1   0   8    5.00    0.60
  -2   0  -8   31.40    4.30
  -2   0  -8   43.40    4.00
  -3   0  -8    6.10    0.80
  -3   0  -8    5.10    1.20
  -4   0  -8    4.20    0.60
  -5   0  -8   15.40    1.60
   5   0   8   13.20    1.50
  -6   0  -8    0.30    0.30
   6   0   8    0.40    0.20
   6   0   8    0.30    0.10
  -7   0  -8    0.60    0.30
   7   0   8    0.50    0.10
   7   0   8    0.30    0.20
   8   0   8    3.70    0.40
  -9   0  -8    0.90    0.20
   5  -1  -8    0.10    0.10
   4  -1  -8    3.20    0.50
  -4   1   8    4.10    0.70
   3  -1  -8    0.20    0.20
  -3   1   8    0.20    0.20
   2  -1  -8    7.80    1.00
  -2   1   8    9.00    1.10
   1  -1  -8   25.80    3.90
   1  -1  -8   17.80    2.10
  -1   1   8   19.50    2.20
   0  -1  -8   14.90    1.70
   0  -1  -8   15.80    2.10
   0   1   8   16.40    1.80
  -1  -1  -8   22.10    2.60
  -1  -1  -8   28.90    3.30
  -1  -1  -8   21.40    2.90
   1   1   8   24.00    2.50
  -2  -1  -8   20.00    2.40
   2   1   8   24.60    2.40
  -3  -1  -8    8.20    0.90
  -3  -1  -8    6.10    1.30
  -4  -1  -8    5.00    0.90
  -4  -1  -8    2.80    0.50
   4   1   8    4.00    0.50
   4   1   8    3.10    0.40
  -5  -1  -8   27.90    2.90
  -5  -1  -8   21.50    2.70
  -6  -1  -8    0.10    0.20
   6   1   8   -0.10    0.10
   6   1   8   -0.10    0.10
  -7  -1  -8    0.30    0.30
   7   1   8    0.30    0.10
  -8  -1  -8   11.70    1.20
   8   1   8    9.20    1.10
  -9  -1  -8    0.10    0.20
   9   1   8    0.00    0.10
   4  -2  -8   16.80    1.80
   3  -2  -8    5.00    0.70
  -3   2   8    4.80    0.60
   2  -2  -8    7.40    1.00
   2  -2  -8    8.80    3.80
  -2   2   8    9.10    0.90
  -2   2   8    7.10    0.90
   1  -2  -8    1.00    0.30
   1  -2  -8    1.70    0.70
   1  -2  -8   -1.10    1.30
  -1   2   8    0.80    0.30
  -1   2   8    1.00    0.20
   0  -2  -8    2.20    0.40
   0  -2  -8    2.50    0.80
   0  -2  -8    1.00    1.30
   0   2   8    2.10    0.40
   0   2   8    2.70    0.30
  -1  -2  -8    0.10    0.20
  -1  -2  -8    0.50    0.80
  -2  -2  -8   52.49    6.10
  -2  -2  -8   58.79    5.80
   2   2   8   52.99    5.70
   2   2   8   56.49    5.80
  -3  -2  -8   10.00    1.80
  -3  -2  -8   12.60    1.40
   3   2   8   14.80    1.40
   3   2   8   12.10    1.40
  -6  -2  -8    0.60    0.30
   6   2   8    0.70    0.20
  -7  -2  -8    0.50    0.30
   7   2   8    1.00    0.20
  -8  -2  -8    2.10    0.40
   8   2   8    1.80    0.20
  -9  -2  -8    0.00    0.20
   9   2   8    0.10    0.10
   4  -3  -8    0.80    0.20
   3  -3  -8    3.40    0.50
   2  -3  -8    2.70    0.50
  -2   3   8    3.50    0.40
   1  -3  -8    0.20    0.20
  -1   3   8    0.30    0.10
   0  -3  -8    0.00    0.20
   0  -3  -8   -0.80    0.50
   0   3   8    0.10    0.10
  -1  -3  -8    5.70    1.20
  -1  -3  -8    3.60    0.60
  -2  -3  -8   15.50    1.70
  -2  -3  -8   14.40    2.10
   2   3   8   16.10    1.70
  -3  -3  -8    1.00    0.50
  -3  -3  -8    0.80    0.30
   3   3   8    0.90    0.20
  -4  -3  -8   18.30    2.20
  -4  -3  -8   17.10    1.90
   4   3   8   15.90    1.80
  -5  -3  -8   13.80    1.50
   5   3   8   12.90    1.40
  -6  -3  -8    6.80    0.80
   6   3   8    5.20    0.70
  -7  -3  -8    6.10    0.70
   7   3   8    5.10    0.60
   8   3   8    2.80    0.30
   9   3   8    2.20    0.30
   4  -4  -8    0.60    0.20
   3  -4  -8    1.10    0.30
   2  -4  -8    2.10    0.40
  -2   4   8    3.00    0.40
   1  -4  -8    2.40    0.60
  -1   4   8    1.50    0.30
   0  -4  -8   21.30    2.30
   0   4   8   20.70    2.20
  -1  -4  -8    0.30    0.20
  -1  -4  -8    0.10    0.60
   1   4   8    0.30    0.20
  -2  -4  -8  114.49   11.90
  -2  -4  -8  117.79   11.50
   2   4   8  100.59   11.50
  -3  -4  -8   52.89    5.10
  -3  -4  -8   46.40    5.50
   3   4   8   46.10    5.10
  -4  -4  -8   54.39    5.80
  -4  -4  -8   60.99    6.20
   4   4   8   51.79    5.80
  -5  -4  -8    0.30    0.20
   5   4   8    0.20    0.10
  -6  -4  -8    6.20    0.80
   6   4   8    6.00    0.70
  -7  -4  -8    1.80    0.30
   7   4   8    1.40    0.20
  -8  -4  -8    4.50    0.60
  -9  -4  -8    0.00    0.10
   9   4   8    0.10    0.10
   3  -5  -8    0.60    0.20
   2  -5  -8   -0.10    0.20
  -2   5   8    0.10    0.10
   1  -5  -8    0.30    0.20
  -1   5   8    0.40    0.20
   0  -5  -8    0.70    0.30
   0   5   8    1.30    0.20
  -1  -5  -8    5.90    0.80
   1   5   8    5.80    0.70
  -2  -5  -8    9.10    1.00
   2   5   8    8.20    1.00
  -3  -5  -8    1.00    0.30
   3   5   8    1.30    0.20
  -4  -5  -8    6.90    0.80
   4   5   8    6.50    0.80
  -5  -5  -8    0.30    0.20
   5   5   8    0.60    0.20
  -6  -5  -8    0.20    0.20
   6   5   8    0.30    0.10
  -7  -5  -8    0.60    0.40
   7   5   8    0.20    0.10
  -8  -5  -8    2.30    0.40
   8   5   8    2.20    0.30
   2  -6  -8    0.00    0.10
  -2   6   8    0.20    0.10
   1  -6  -8    0.80    0.30
  -1   6   8    0.90    0.20
   0  -6  -8    9.00    1.10
   0   6   8   10.00    1.10
   1   6   8    0.10    0.10
  -2  -6  -8    0.30    0.20
   2   6   8    0.10    0.20
   3   6   8    2.40    0.40
   4   6   8    0.60    0.20
   5   6   8   -0.10    0.10
   6   6   8    6.00    0.70
   7   6   8    0.00    0.10
   8   6   8    2.90    0.30
   0   7   8    0.60    0.20
   1   7   8   10.00    1.10
   2   7   8    0.50    0.20
   3   7   8    1.50    0.30
   4   7   8    0.30    0.10
   5   7   8    0.40    0.20
   6   7   8    0.80    0.20
   7   7   8    3.10    0.40
   0   8   8    4.70    0.50
   1   8   8    0.10    0.10
   2   8   8    0.40    0.20
   3   8   8    0.40    0.20
   4   8   8   -0.10    0.10
   5   8   8    0.10    0.10
   6   8   8    1.80    0.20
   2   9   8    0.30    0.10
   3   9   8    0.20    0.10
   4   9   8    0.00    0.10
   5   9   8    0.00    0.10
   0   8  -9    0.00    0.20
  -1   8  -9    0.20    0.20
  -1   8  -9   -0.20    0.50
   1  -8   9    0.40    0.10
  -2   8  -9    1.30    0.30
   2  -8   9    1.10    0.20
   2   7  -9    0.20    0.50
  -2  -7   9    0.10    0.20
   1   7  -9   -0.10    0.70
   1   7  -9    0.90    0.20
   0   7  -9    0.10    0.20
   0  -7   9    0.10    0.20
  -1   7  -9   11.80    1.30
   1  -7   9    9.20    1.10
  -2   7  -9    0.50    0.30
   2  -7   9    0.40    0.20
  -3   7  -9    3.70    0.60
   3  -7   9    5.70    0.60
  -4   7  -9    0.10    0.20
   4  -7   9   -0.10    0.10
  -3  -6   9    0.10    0.20
   2   6  -9    2.50    0.40
   2   6  -9    2.30    0.80
   1   6  -9    0.00    0.20
  -1  -6   9   -0.10    0.20
   0   6  -9    2.80    0.50
   0  -6   9    2.30    0.40
  -1   6  -9    8.00    1.00
   1  -6   9    7.90    0.90
  -2   6  -9    0.10    0.30
   2  -6   9    0.10    0.20
   3  -6   9   28.60    3.00
   4  -6   9    0.20    0.20
   5  -6   9    0.10    0.10
  -3  -5   9    4.30    0.60
   1   5  -9   39.80    4.00
  -1  -5   9   37.00    4.00
   0   5  -9    0.20    0.30
   0  -5   9    0.20    0.20
  -1   5  -9    0.50    0.40
   1  -5   9    0.50    0.20
   2  -5   9    0.00    0.20
   3  -5   9   29.80    3.20
   4  -5   9    4.90    0.60
   5  -5   9    3.60    0.50
   6  -5   9    0.40    0.20
  -3  -4   9    0.10    0.20
   1   4  -9    0.20    0.20
  -1  -4   9    0.30    0.20
  -1   4  -9    4.70    0.80
   1  -4   9    6.60    0.80
   2  -4   9   15.70    1.70
  -3   4  -9    8.40    1.00
   4  -4   9    3.50    0.60
   6  -4   9   10.00    1.10
   7  -4   9    5.40    0.60
  -4  -3   9    1.40    0.30
  -3  -3   9    0.10    0.20
   2   3  -9    6.80    0.80
   1   3  -9  116.19   12.10
  -1  -3   9  117.69   12.30
   0   3  -9    5.70    0.70
   0   3  -9    6.10    0.70
   0  -3   9    5.50    0.70
  -2   3  -9    0.40    0.20
   2  -3   9    0.20    0.20
  -3   3  -9   16.10    2.10
   3  -3   9   22.50    2.10
  -4   3  -9    7.20    1.10
   4  -3   9   10.00    1.00
  -5   3  -9    5.20    0.80
   5  -3   9    8.00    0.80
   6  -3   9    3.40    0.50
  -7   3  -9    0.60    0.20
  -4  -2   9    4.60    0.60
   3   2  -9    2.40    0.40
  -3  -2   9    2.30    0.40
   2   2  -9   13.20    1.50
  -1   2  -9   22.30    3.00
  -2   2  -9    0.20    0.20
   2  -2   9    0.10    0.20
  -3   2  -9    4.10    0.60
   3  -2   9    3.60    0.50
  -4   2  -9   22.00    2.70
   4  -2   9   26.80    2.60
  -5   2  -9    0.20    0.30
   5  -2   9    0.60    0.30
  -6   2  -9    2.00    0.40
   6  -2   9    3.30    0.40
  -7   2  -9    3.60    0.60
   7  -2   9    5.10    0.60
  -8   2  -9    0.20    0.10
   8  -2   9    0.10    0.10
   4   1  -9   -0.10    0.10
  -4  -1   9   -0.10    0.20
   3   1  -9   -0.10    0.20
  -3  -1   9   -0.10    0.20
   2   1  -9    1.60    0.30
  -2  -1   9    1.90    0.40
   1   1  -9   14.80    1.80
  -1  -1   9   17.30    1.80
   0   1  -9   18.70    2.10
   0  -1   9   19.30    2.10
  -2   1  -9   20.40    2.40
   2  -1   9   23.30    2.40
  -3   1  -9   37.90    4.60
  -3   1  -9   45.80    4.80
   3  -1   9   46.10    4.60
  -4   1  -9    0.10    0.20
   4  -1   9    0.20    0.20
  -5   1  -9  180.18   21.40
   5  -1   9  232.08   21.40
  -6   1  -9    0.00    0.30
   6  -1   9    0.20    0.20
  -7   1  -9    2.90    0.50
   7  -1   9    3.30    0.40
  -8   1  -9    0.20    0.20
   4   0  -9    0.20    0.10
  -4   0   9    0.20    0.20
   3   0  -9    1.40    0.30
  -3   0   9    1.70    0.40
   2   0  -9    3.70    0.50
  -2   0   9    4.10    0.60
   0   0  -9   16.10    3.40
  -1   0  -9    7.70    1.00
   1   0   9    8.10    0.90
  -2   0  -9   26.40    3.20
  -2   0  -9   25.60    2.90
   2   0   9   28.90    2.90
  -3   0  -9    0.10    0.20
   3   0   9    0.10    0.20
  -4   0  -9   25.40    2.70
  -4   0  -9   18.70    2.40
   4   0   9   21.90    2.30
  -5   0  -9   15.60    2.00
   5   0   9   18.90    1.90
  -6   0  -9   13.60    1.70
   6   0   9   16.40    1.60
  -7   0  -9    0.20    0.30
   7   0   9   -0.20    0.10
   7   0   9    0.00    0.10
  -8   0  -9   -0.10    0.20
   4  -1  -9    0.00    0.10
   3  -1  -9    3.70    0.50
   2  -1  -9    0.00    0.20
  -2   1   9   -0.20    0.20
   1  -1  -9    5.00    1.90
   1  -1  -9    1.30    0.30
  -1   1   9    1.40    0.40
   0  -1  -9    4.60    0.60
  -1  -1  -9    8.10    1.00
   1   1   9    8.00    0.90
  -2  -1  -9    0.00    0.20
   2   1   9    0.10    0.20
  -3  -1  -9    3.20    0.50
   3   1   9    3.60    0.50
  -5  -1  -9   21.30    2.30
   5   1   9   17.90    2.20
   5   1   9   23.40    2.20
  -6  -1  -9   10.20    1.10
   6   1   9    7.90    0.90
   6   1   9    7.70    0.90
  -7  -1  -9    0.00    0.20
   7   1   9   -0.10    0.10
  -8  -1  -9    0.20    0.20
   8   1   9    0.20    0.10
   4  -2  -9    0.70    0.20
   3  -2  -9    8.90    1.00
   2  -2  -9    6.50    0.80
  -1   2   9    2.60    0.40
   0  -2  -9    0.40    0.20
   0   2   9    0.40    0.20
  -1  -2  -9    2.20    0.40
   1   2   9    3.20    0.40
  -2  -2  -9   13.70    2.20
  -2  -2  -9   10.30    1.20
   2   2   9    9.80    1.20
   2   2   9   11.70    1.20
  -3  -2  -9   18.60    2.10
  -3  -2  -9   22.00    2.50
   3   2   9   18.90    2.00
   3   2   9   17.30    2.00
  -4  -2  -9    1.50    0.30
   4   2   9    1.70    0.30
  -5  -2  -9    2.60    0.40
   5   2   9    2.00    0.30
  -6  -2  -9    1.60    0.40
   6   2   9    1.80    0.20
  -7  -2  -9    0.20    0.20
   7   2   9    0.00    0.10
   8   2   9    4.00    0.40
   3  -3  -9   -0.10    0.10
   2  -3  -9    0.20    0.20
   1  -3  -9    7.30    1.00
  -1   3   9    8.80    0.90
   0  -3  -9    0.20    0.20
   0   3   9    0.00    0.10
  -1  -3  -9    5.20    0.70
   1   3   9    5.00    0.60
  -2  -3  -9    2.40    0.40
   2   3   9    2.40    0.30
  -3  -3  -9   38.00    3.90
   3   3   9   35.10    3.80
  -4  -3  -9   25.30    2.60
   4   3   9   21.90    2.50
  -5  -3  -9   10.10    1.10
   5   3   9    9.60    1.10
  -6  -3  -9    3.90    0.50
   6   3   9    3.00    0.40
  -7  -3  -9    1.80    0.30
   7   3   9    1.10    0.20
  -8  -3  -9    3.20    0.40
   8   3   9    2.20    0.30
   3  -4  -9    1.90    0.30
   2  -4  -9    1.20    0.30
   1  -4  -9    0.20    0.20
  -1   4   9    0.20    0.10
   0  -4  -9    0.10    0.20
   0   4   9    0.10    0.10
  -1  -4  -9    0.10    0.20
   1   4   9    0.10    0.10
  -2  -4  -9    9.40    1.10
   2   4   9    9.50    1.10
  -3  -4  -9    0.40    0.20
   3   4   9    0.30    0.10
  -4  -4  -9    2.30    0.40
   4   4   9    2.10    0.30
  -5  -4  -9    2.70    0.40
   5   4   9    2.40    0.30
  -6  -4  -9    0.90    0.30
   6   4   9    0.80    0.20
  -7  -4  -9   -0.10    0.20
   7   4   9    0.20    0.10
  -8  -4  -9    0.80    0.20
   8   4   9    0.50    0.10
   2  -5  -9   -0.10    0.10
   1  -5  -9    0.20    0.20
   0  -5  -9    0.90    0.30
   0   5   9    1.50    0.20
  -1  -5  -9    5.10    0.70
   1   5   9    4.80    0.60
  -2  -5  -9    0.40    0.20
   2   5   9    0.00    0.10
  -3  -5  -9    7.70    0.90
   3   5   9    7.70    0.90
  -4  -5  -9   -0.10    0.20
   4   5   9    0.00    0.10
  -5  -5  -9    2.90    0.40
   5   5   9    2.10    0.30
  -6  -5  -9    0.60    0.20
   6   5   9    0.40    0.10
  -7  -5  -9    4.80    0.60
   7   5   9    4.10    0.50
   8   5   9    1.70    0.20
   1  -6  -9    0.20    0.10
  -1   6   9    0.30    0.10
   0  -6  -9    0.30    0.20
   0   6   9    0.00    0.10
  -1  -6  -9    0.50    0.30
   1   6   9    1.20    0.20
  -2  -6  -9    5.40    0.70
   2   6   9    4.80    0.60
  -3  -6  -9   -0.20    0.20
   3   6   9    0.10    0.10
  -4  -6  -9    2.30    0.50
   4   6   9    1.70    0.30
   5   6   9    0.30    0.10
   6   6   9   -0.10    0.10
   7   6   9    0.10    0.10
   0   7   9    0.10    0.10
   1   7   9   11.00    1.20
   2   7   9    2.30    0.30
   3   7   9   -0.10    0.10
   4   7   9    0.20    0.10
   5   7   9   -0.10    0.10
   6   7   9    0.10    0.10
   7   7   9    2.90    0.30
   1   8   9    1.60    0.20
   2   8   9    1.70    0.20
   3   8   9    1.80    0.30
   4   8   9    0.40    0.10
   5   8   9    0.40    0.10
   0   7 -10   -0.40    0.40
  -1   7 -10    4.60    0.60
   1  -7  10    4.50    0.60
  -2   7 -10    0.00    0.20
   2  -7  10    0.00    0.10
   1   6 -10    0.30    0.60
   0   6 -10   10.50    1.10
   0  -6  10    8.80    1.10
  -1   6 -10    0.10    0.20
   1  -6  10    0.00    0.20
  -2   6 -10    2.00    0.40
   2  -6  10    2.20    0.40
  -3   6 -10    0.10    0.20
   3  -6  10    0.20    0.20
  -4   6 -10    0.10    0.20
   4  -6  10    0.30    0.10
  -2  -5  10    0.00    0.20
   0   5 -10   13.50    1.40
   0  -5  10   11.50    1.40
  -1   5 -10    2.30    0.40
   1  -5  10    1.50    0.30
  -2   5 -10    0.90    0.30
   2  -5  10    0.60    0.30
   3  -5  10   22.40    2.40
   4  -5  10    1.30    0.30
   5  -5  10    2.30    0.30
  -3  -4  10    0.50    0.20
  -2  -4  10    0.00    0.30
  -1  -4  10    0.50    0.20
   0   4 -10   41.90    4.20
   0  -4  10   38.10    4.20
  -1   4 -10    4.30    0.60
   1  -4  10    3.80    0.60
  -2   4 -10   11.40    1.50
   2  -4  10   13.70    1.40
   3  -4  10    1.70    0.30
   4  -4  10    1.40    0.30
   5  -4  10    0.20    0.20
   6  -4  10   23.90    2.50
  -3  -3  10    1.40    0.30
  -2  -3  10    1.20    0.30
   1   3 -10   20.20    2.50
  -1  -3  10   27.50    2.60
   0   3 -10   26.20    2.90
   0  -3  10   27.30    2.90
  -1   3 -10   22.20    2.30
  -1   3 -10   19.50    2.40
   1  -3  10   23.40    2.30
  -2   3 -10    4.60    0.70
   2  -3  10    4.90    0.60
  -3   3 -10    0.50    0.30
   3  -3  10    0.50    0.20
  -4   3 -10    0.40    0.20
   4  -3  10    0.50    0.20
  -5   3 -10    0.70    0.20
   5  -3  10    1.30    0.30
  -6   3 -10    1.70    0.30
   7  -3  10    2.80    0.30
  -3  -2  10    0.00    0.20
  -2  -2  10    0.90    0.30
   1   2 -10    1.70    0.30
   0   2 -10   14.30    1.60
   0  -2  10   13.90    1.60
   1  -2  10    1.20    0.30
  -2   2 -10    0.10    0.30
   2  -2  10    0.30    0.20
  -3   2 -10   14.10    1.60
   3  -2  10    9.80    1.20
  -4   2 -10    4.10    0.70
   4  -2  10    5.00    0.60
  -5   2 -10    0.20    0.20
  -6   2 -10   99.49   10.30
  -7   2 -10    3.20    0.40
   7  -2  10    3.30    0.40
   3   1 -10    0.50    0.20
  -3  -1  10    1.10    0.30
   2   1 -10    3.00    0.50
  -2  -1  10    3.40    0.50
   1   1 -10   10.20    1.20
   0  -1  10   -0.30    0.30
  -1   1 -10    0.00    0.20
   1  -1  10    0.00    0.30
  -2   1 -10   11.40    1.30
   2  -1  10   11.20    1.30
  -3   1 -10    2.30    0.50
   3  -1  10    2.30    0.40
  -5   1 -10   27.40    3.10
   5  -1  10   29.40    3.00
  -6   1 -10    3.40    0.50
   6  -1  10    3.30    0.40
   7  -1  10    1.20    0.20
  -8   1 -10    0.30    0.20
   3   0 -10   -0.10    0.10
  -3   0  10    0.00    0.10
   2   0 -10    3.30    0.50
  -2   0  10    3.30    0.50
   1   0 -10    2.60    0.40
  -1   0  10    2.20    0.40
   0   0 -10    0.60    0.30
  -1   0 -10    0.30    0.20
   1   0  10    0.10    0.20
  -2   0 -10    4.70    0.60
   2   0  10    4.30    0.60
  -3   0 -10    1.90    0.40
   3   0  10    1.50    0.30
  -4   0 -10   15.70    1.70
   4   0  10   13.60    1.60
  -5   0 -10    0.40    0.30
   5   0  10    0.40    0.20
  -6   0 -10    7.20    0.80
   6   0  10    5.80    0.70
  -7   0 -10    3.60    0.50
  -8   0 -10    0.70    0.20
   3  -1 -10    0.10    0.10
   2  -1 -10    4.60    0.50
  -2   1  10    3.30    0.50
   1  -1 -10    1.30    0.30
   0  -1 -10    0.00    0.20
   0   1  10   -0.10    0.20
  -1  -1 -10    0.90    0.30
  -2  -1 -10    3.50    0.50
   2   1  10    2.80    0.40
  -3  -1 -10    0.40    0.20
   3   1  10    0.20    0.10
  -4  -1 -10    0.00    0.20
   4   1  10    0.10    0.10
   5   1  10    8.70    0.90
  -6  -1 -10    0.00    0.20
  -7  -1 -10    0.60    0.30
  -8  -1 -10    0.40    0.20
   3  -2 -10    3.50    0.40
   2  -2 -10    0.00    0.20
   1  -2 -10    0.70    0.20
   0  -2 -10    2.60    0.40
   1   2  10    3.40    0.40
  -2  -2 -10    1.20    0.30
  -3  -2 -10    0.00    0.20
  -4  -2 -10   14.20    1.50
   4   2  10   12.60    1.40
  -5  -2 -10    2.90    0.50
   5   2  10    2.60    0.30
  -6  -2 -10    0.00    0.20
   6   2  10    0.10    0.10
  -7  -2 -10    2.80    0.40
   7   2  10    1.90    0.30
  -8  -2 -10    0.50    0.20
   2  -3 -10    3.50    0.50
   1  -3 -10    0.90    0.20
   0  -3 -10    1.00    0.30
  -1  -3 -10    5.20    0.70
   1   3  10    6.40    0.70
  -2  -3 -10    2.80    0.50
   2   3  10    3.40    0.40
  -3  -3 -10   17.50    1.90
   3   3  10   15.40    1.70
  -4  -3 -10    2.50    0.40
   4   3  10    2.20    0.30
  -5  -3 -10    0.60    0.20
   5   3  10    0.50    0.10
  -6  -3 -10    0.70    0.20
   6   3  10    0.50    0.10
   7   3  10    0.10    0.10
   8   3  10    0.80    0.10
   2  -4 -10    2.60    0.40
   1  -4 -10   -0.10    0.20
   0  -4 -10    0.80    0.20
   0   4  10    0.70    0.20
  -1  -4 -10    0.10    0.20
   1   4  10    0.10    0.10
  -2  -4 -10    3.10    0.50
   2   4  10    3.20    0.40
  -3  -4 -10    2.20    0.40
   3   4  10    2.50    0.30
  -4  -4 -10    2.50    0.40
   4   4  10    2.10    0.30
  -5  -4 -10    0.10    0.20
   5   4  10    0.00    0.10
  -6  -4 -10    0.40    0.20
   6   4  10    0.20    0.10
  -7  -4 -10    0.20    0.20
   7   4  10    0.10    0.10
  -8  -4 -10    1.00    0.30
   8   4  10    0.40    0.10
   1  -5 -10    0.00    0.10
   0  -5 -10    0.30    0.20
   0   5  10    0.40    0.10
  -1  -5 -10    0.20    0.20
   1   5  10    0.20    0.10
  -2  -5 -10    0.10    0.20
   2   5  10    0.00    0.10
  -3  -5 -10    1.80    0.40
   3   5  10    2.10    0.30
  -4  -5 -10    1.30    0.30
   4   5  10    0.90    0.20
  -5  -5 -10    0.70    0.30
   5   5  10    0.70    0.20
  -6  -5 -10    0.40    0.20
   6   5  10    0.50    0.10
  -7  -5 -10    1.00    0.30
   7   5  10    0.60    0.10
   0  -6 -10    2.30    0.40
   0   6  10    2.50    0.30
  -1  -6 -10    0.10    0.10
   1   6  10    0.40    0.10
   2   6  10    8.80    1.00
  -3  -6 -10    0.50    0.20
   3   6  10    0.60    0.20
  -4  -6 -10    6.10    0.70
   4   6  10    6.20    0.70
  -5  -6 -10    0.20    0.20
   5   6  10    0.00    0.10
   6   6  10    0.70    0.10
   7   6  10    0.00    0.10
   1   7  10    0.90    0.20
   2   7  10    1.00    0.20
   3   7  10    1.10    0.20
   4   7  10    3.40    0.40
   5   7  10    0.10    0.10
   6   7  10    0.70    0.10
   1  -6  11    3.10    0.40
  -2   6 -11    0.20    0.10
   2  -6  11    0.20    0.10
   3  -6  11    0.70    0.20
  -1  -5  11    0.40    0.20
   0  -5  11    1.40    0.30
  -1   5 -11    0.20    0.20
   1  -5  11    0.10    0.20
  -2   5 -11    0.50    0.20
   2  -5  11    0.40    0.20
  -3   5 -11    6.70    0.80
   3  -5  11    6.80    0.80
  -4   5 -11    0.40    0.20
   4  -5  11    0.30    0.10
  -1  -4  11    0.20    0.20
   0  -4  11    4.40    0.60
   1  -4  11   24.70    2.60
  -2   4 -11    6.80    0.80
   2  -4  11    6.10    0.80
  -3   4 -11   10.20    1.20
   3  -4  11   10.60    1.20
   4  -4  11    0.80    0.30
   5  -4  11    0.10    0.10
  -2  -3  11    0.60    0.20
  -1  -3  11    4.60    0.60
   1  -3  11   -0.30    0.20
  -2   3 -11    0.50    0.30
  -2   3 -11   -0.10    0.20
   2  -3  11   -0.20    0.20
  -3   3 -11    8.50    1.00
   3  -3  11    9.00    1.00
  -4   3 -11    0.10    0.20
   4  -3  11    0.30    0.20
  -5   3 -11    0.80    0.20
   5  -3  11    0.70    0.20
   6  -3  11    0.30    0.10
  -2  -2  11    2.30    0.40
   1   2 -11    4.30    0.60
  -1  -2  11    5.20    0.60
   0   2 -11    1.00    0.30
   0  -2  11    0.50    0.20
  -1   2 -11    3.00    0.50
   1  -2  11    2.00    0.40
  -2   2 -11    4.20    0.60
   2  -2  11    3.00    0.50
  -3   2 -11    0.40    0.30
   3  -2  11    0.20    0.20
  -4   2 -11   -0.10    0.20
   4  -2  11   -0.10    0.20
  -5   2 -11    0.70    0.30
   5  -2  11    0.90    0.20
  -6   2 -11    1.40    0.30
   6  -2  11    1.90    0.30
  -7   2 -11    2.70    0.40
   2   1 -11    1.80    0.30
  -2  -1  11    1.20    0.30
   1   1 -11   17.20    2.00
  -1  -1  11   18.10    2.00
   0   1 -11    1.60    0.30
  -1   1 -11    1.40    0.30
   1  -1  11    1.30    0.30
  -2   1 -11    0.30    0.20
   2  -1  11    0.20    0.20
  -3   1 -11    2.00    0.40
   3  -1  11    1.50    0.30
  -4   1 -11    5.00    0.70
   4  -1  11    3.70    0.50
  -5   1 -11    2.30    0.40
   5  -1  11    1.80    0.30
  -6   1 -11    1.70    0.50
   6  -1  11    0.90    0.20
  -7   1 -11    0.30    0.20
   2   0 -11    2.30    0.40
  -2   0  11    2.90    0.40
   1   0 -11   -0.10    0.20
  -1   0  11    0.20    0.20
   0   0 -11    6.70    0.80
   0   0  11    6.60    0.80
  -1   0 -11    0.00    0.20
  -2   0 -11    0.00    0.20
   2   0  11   -0.20    0.10
  -3   0 -11    0.20    0.20
   3   0  11   -0.20    0.10
  -4   0 -11   11.00    1.10
   4   0  11    8.00    1.00
  -5   0 -11    1.40    0.30
   5   0  11    0.90    0.20
  -7   0 -11    0.60    0.20
   2  -1 -11    0.30    0.20
   1  -1 -11    3.00    0.40
   0  -1 -11    4.90    0.60
   0   1  11    4.50    0.60
  -1  -1 -11    0.30    0.20
   1   1  11    0.10    0.20
  -2  -1 -11    0.10    0.20
   3   1  11    3.70    0.40
  -5  -1 -11   29.10    3.10
  -6  -1 -11    4.40    0.60
  -7  -1 -11    0.70    0.20
   1  -2 -11    0.20    0.20
   0  -2 -11    0.50    0.20
  -1  -2 -11    0.00    0.20
  -2  -2 -11    5.80    0.70
  -3  -2 -11    2.90    0.50
  -4  -2 -11    0.60    0.20
  -5  -2 -11    1.00    0.30
  -6  -2 -11    9.30    1.10
  -7  -2 -11    0.70    0.20
   1  -3 -11    0.50    0.20
   0  -3 -11    0.10    0.20
  -1  -3 -11   -0.20    0.20
  -2  -3 -11    0.00    0.20
  -3  -3 -11    5.20    0.70
  -4  -3 -11    4.90    0.60
  -5  -3 -11    2.50    0.40
  -6  -3 -11    0.80    0.30
  -7  -3 -11    0.00    0.20
   1  -4 -11    0.20    0.10
   0  -4 -11    0.00    0.10
  -1  -4 -11    0.40    0.20
  -2  -4 -11    1.60    0.30
   2   4  11    1.40    0.30
  -3  -4 -11    3.30    0.50
   3   4  11    3.40    0.40
  -4  -4 -11    3.80    0.50
   4   4  11    3.20    0.40
  -5  -4 -11    2.50    0.40
   5   4  11    1.60    0.20
  -6  -4 -11    0.30    0.20
   6   4  11    0.10    0.10
  -7  -4 -11    0.00    0.20
   0  -5 -11    0.00    0.10
  -1  -5 -11    3.40    0.40
  -2  -5 -11    0.00    0.10
   2   5  11    0.00    0.10
  -3  -5 -11    4.20    0.50
   3   5  11    3.00    0.40
  -4  -5 -11    7.80    0.90
   4   5  11    7.00    0.80
  -5  -5 -11    5.40    0.60
   5   5  11    4.70    0.60
  -6  -5 -11    0.20    0.20
   6   5  11    0.20    0.10
  -1  -6 -11    1.00    0.20
  -2  -6 -11    0.30    0.10
   2   6  11    0.00    0.10
  -3  -6 -11    0.30    0.10
   4   6  11    0.00    0.10
   5   6  11    1.00    0.20
   0  -4  12   13.90    1.50
   1  -4  12    0.10    0.20
   2  -4  12   -0.10    0.10
  -3   4 -12    0.10    0.20
   3  -4  12   -0.20    0.10
  -4   4 -12    1.90    0.30
   4  -4  12    1.80    0.30
   0  -3  12    0.70    0.20
   1  -3  12    0.20    0.20
   2  -3  12    2.30    0.30
  -3   3 -12    5.70    0.60
   3  -3  12    5.40    0.60
  -4   3 -12    1.40    0.30
   4  -3  12    1.50    0.20
  -5   3 -12    0.10    0.20
   5  -3  12    0.30    0.10
  -1  -2  12    0.90    0.20
   0   2 -12    8.10    0.90
  -1   2 -12    0.20    0.20
  -2   2 -12    2.70    0.40
   2  -2  12    2.20    0.40
  -3   2 -12    0.10    0.20
   3  -2  12    0.00    0.20
  -4   2 -12    1.20    0.20
   4  -2  12    0.80    0.20
  -5   2 -12    0.40    0.20
   5  -2  12    0.40    0.10
   1   1 -12    5.70    0.50
  -1  -1  12    3.90    0.50
   0   1 -12    0.50    0.20
   0  -1  12    0.60    0.20
  -1   1 -12    1.20    0.40
  -2   1 -12    0.70    0.30
   2  -1  12    0.50    0.20
  -3   1 -12   -0.10    0.20
   3  -1  12    0.20    0.20
  -4   1 -12    0.10    0.20
   4  -1  12    0.00    0.10
  -5   1 -12    0.60    0.20
  -6   1 -12    0.20    0.20
   1   0 -12    0.30    0.10
   0   0  12    3.50    0.40
   1   0  12    2.40    0.40
  -2   0 -12    0.40    0.20
  -3   0 -12    1.60    0.30
   4   0  12    3.40    0.40
  -6   0 -12   25.30    2.70
   1  -1 -12    3.30    0.40
   0  -1 -12   -0.10    0.10
  -1  -1 -12    0.50    0.20
  -2  -1 -12    0.40    0.20
  -3  -1 -12    0.20    0.20
  -4  -1 -12    0.30    0.20
  -5  -1 -12    9.30    1.10
  -6  -1 -12    3.50    0.50
   0  -2 -12    0.00    0.10
  -1  -2 -12    0.50    0.20
  -2  -2 -12    0.30    0.20
  -3  -2 -12    0.00    0.20
  -4  -2 -12    0.50    0.20
  -5  -2 -12    1.30    0.30
  -6  -2 -12    4.70    0.60
   0  -3 -12    0.10    0.10
  -1  -3 -12   -0.10    0.10
  -2  -3 -12    0.40    0.20
  -3  -3 -12    0.30    0.20
  -4  -3 -12    3.20    0.40
  -5  -3 -12    6.00    0.70
  -6  -3 -12    0.40    0.20
  -1  -4 -12    0.00    0.10
  -2  -4 -12    0.50    0.20
  -3  -4 -12    0.40    0.20
  -4  -4 -12    6.20    0.70
  -5  -4 -12    1.10    0.20
  -6  -4 -12    0.20    0.10
  -2  -5 -12    0.00    0.10
  -3  -5 -12    1.50    0.30
  -4  -5 -12    0.10    0.10
  -5  -5 -12   -0.10    0.10
  -1   1 -13    0.50    0.10
  -2   1 -13    0.60    0.20
  -3   1 -13    2.20    0.40
  -4   1 -13    0.20    0.20
  -1   0 -13    0.00    0.10
  -2   0 -13    1.30    0.30
  -3   0 -13    0.20    0.20
  -4   0 -13   -0.20    0.10
  -5   0 -13    0.10    0.10
  -1  -1 -13    0.20    0.10
  -2  -1 -13    0.00    0.10
  -3  -1 -13    0.10    0.20
  -4  -1 -13    0.50    0.20
  -5  -1 -13    2.20    0.30
  -2  -2 -13    0.00    0.10
  -3  -2 -13    0.20    0.10
  -4  -2 -13    0.50    0.20
  -5  -2 -13    0.00    0.10
  -3  -3 -13   -0.10    0.10
  -4  -3 -13    0.00    0.10
   0   0   0    0.00    0.00
_computing_structure_solution     'SHELXT 2014/5 (Sheldrick, 2014)'
_computing_structure_solution     'SHELXT 2014/5 (Sheldrick, 2014)'
_computing_structure_solution     'SHELXT 2014/5 (Sheldrick, 2014)'
_computing_structure_solution     'SHELXT 2014/5 (Sheldrick, 2014)'
_computing_structure_solution     'SHELXT 2014/5 (Sheldrick, 2014)'
;
_publcif_info_exptl_table_max_cols 4
_publcif_info_exptl_table_use_headnotes n
loop_
_space_group_symop_operation_xyz
'x, y, z'
'-x, -y, -z'
loop_
_atom_site_label
_atom_site_fract_x
_atom_site_fract_y
_atom_site_fract_z
_atom_site_U_iso_or_equiv
_atom_site_adp_type
_atom_site_calc_flag
_atom_site_occupancy
_atom_site_type_symbol
N2 -0.0767(3) 0.3645(2) 0.9146(2) 0.0582(6) Uani d 1 N
O1 0.4755(3) 0.4949(2) 0.7165(2) 0.0715(7) Uani d 1 O
O2 0.2930(3) 0.6533(2) 0.6405(2) 0.0742(7) Uani d 1 O
H003 0.217738 0.606366 0.683157 0.111 Uiso calc 1 H
C4 0.8827(3) 0.8091(2) 0.4292(2) 0.0472(6) Uani d 1 C
N1 1.4696(4) 1.0816(3) 0.1412(3) 0.0700(7) Uani d 1 N
C1 0.5983(3) 0.6741(3) 0.5743(2) 0.0496(6) Uani d 1 C
C8 1.0342(3) 0.8801(2) 0.3521(2) 0.0472(6) Uani d 1 C
C7 0.4516(3) 0.5979(3) 0.6515(3) 0.0519(6) Uani d 1 C
O5 0.0282(3) 0.5415(2) 0.7836(2) 0.0734(7) Uani d 1 O
C11 1.3188(4) 1.0112(3) 0.2121(2) 0.0552(7) Uani d 1 C
C20 0.0523(4) 0.4231(3) 0.8360(3) 0.0589(7) Uani d 1 C
H00B 0.170017 0.372923 0.818127 0.071 Uiso calc 1 H
C13 1.0045(4) 1.0226(3) 0.3103(3) 0.0543(7) Uani d 1 C
H00C 0.887132 1.074013 0.330041 0.065 Uiso calc 1 H
C3 0.9083(3) 0.7009(3) 0.5147(3) 0.0533(6) Uani d 1 C
H00D 1.021788 0.672678 0.523347 0.064 Uiso calc 1 H
O4 1.4386(4) 1.1962(3) 0.0909(3) 0.1095(11) Uani d 1 O
C2 0.7681(3) 0.6346(3) 0.5869(3) 0.0542(6) Uani d 1 C
H00F 0.787632 0.563325 0.644178 0.065 Uiso calc 1 H
C5 0.7110(3) 0.8487(3) 0.4180(3) 0.0566(7) Uani d 1 C
H00G 0.690387 0.920949 0.361731 0.068 Uiso calc 1 H
C9 1.2125(3) 0.8052(3) 0.3190(3) 0.0568(7) Uani d 1 C
H00H 1.235322 0.709497 0.344276 0.068 Uiso calc 1 H
C6 0.5716(4) 0.7816(3) 0.4895(3) 0.0582(7) Uani d 1 C
H00I 0.458174 0.808992 0.480587 0.07 Uiso calc 1 H
O3 1.6214(3) 1.0232(4) 0.1342(3) 0.1125(11) Uani d 1 O
C12 1.1454(4) 1.0884(3) 0.2403(3) 0.0582(7) Uani d 1 C
H00K 1.124057 1.183138 0.212616 0.07 Uiso calc 1 H
C10 1.3546(4) 0.8701(3) 0.2499(3) 0.0610(7) Uani d 1 C
H00L 1.472472 0.81954 0.2292 0.073 Uiso calc 1 H
C22 -0.2651(4) 0.4389(4) 0.9485(3) 0.0759(9) Uani d 1 C
H00A -0.270157 0.533937 0.912239 0.114 Uiso calc 1 H
H00E -0.317055 0.448405 1.039851 0.114 Uiso calc 1 H
H00J -0.331316 0.38302 0.915682 0.114 Uiso calc 1 H
C21 -0.0418(6) 0.2258(4) 0.9714(4) 0.0821(10) Uani d 1 C
H00M 0.08569 0.189894 0.944815 0.123 Uiso calc 1 H
H00N -0.100208 0.157675 0.944355 0.123 Uiso calc 1 H
H00O -0.087708 0.237178 1.062815 0.123 Uiso calc 1 H
loop_
_atom_site_aniso_label
_atom_site_aniso_U_11
_atom_site_aniso_U_22
_atom_site_aniso_U_33
_atom_site_aniso_U_12
_atom_site_aniso_U_13
_atom_site_aniso_U_23
N2 0.0616(12) 0.0559(13) 0.0617(13) -0.0159(9) -0.0244(10) 0.0116(10)
O1 0.0632(12) 0.0630(12) 0.0871(15) -0.0130(9) -0.0252(10) 0.0343(10)
O2 0.0540(11) 0.0710(14) 0.0978(16) -0.0140(9) -0.0267(11) 0.0375(12)
C4 0.0527(13) 0.0406(12) 0.0511(12) -0.0045(9) -0.0231(10) 0.0055(9)
N1 0.0737(16) 0.0663(15) 0.0706(15) -0.0249(12) -0.0191(12) 0.0158(12)
C1 0.0546(13) 0.0429(12) 0.0536(13) -0.0077(10) -0.0219(10) 0.0074(9)
C8 0.0550(13) 0.0414(12) 0.0500(12) -0.0066(10) -0.0252(10) 0.0075(9)
C7 0.0542(13) 0.0447(12) 0.0574(13) -0.0070(10) -0.0206(11) 0.0084(10)
O5 0.0617(12) 0.0734(14) 0.0853(15) -0.0160(9) -0.0242(10) 0.0252(11)
C11 0.0633(15) 0.0514(14) 0.0532(13) -0.0167(11) -0.0194(11) 0.0101(10)
C20 0.0537(14) 0.0594(15) 0.0661(15) -0.0088(11) -0.0241(12) 0.0077(12)
C13 0.0570(13) 0.0455(13) 0.0596(14) -0.0054(10) -0.0210(11) 0.0131(10)
C3 0.0528(13) 0.0499(13) 0.0639(14) -0.0082(10) -0.0300(11) 0.0141(11)
O4 0.0958(19) 0.0869(19) 0.133(3) -0.0298(15) -0.0177(17) 0.0561(18)
C2 0.0592(14) 0.0470(13) 0.0615(14) -0.0077(10) -0.0290(11) 0.0174(10)
C5 0.0577(14) 0.0521(14) 0.0639(15) -0.0092(10) -0.0275(12) 0.0229(11)
C9 0.0566(14) 0.0469(13) 0.0684(16) -0.0070(10) -0.0247(12) 0.0133(11)
C6 0.0495(13) 0.0621(16) 0.0674(15) -0.0071(10) -0.0282(11) 0.0186(12)
O3 0.0641(15) 0.111(2) 0.157(3) -0.0296(14) -0.0265(17) 0.051(2)
C12 0.0690(16) 0.0452(13) 0.0625(15) -0.0106(11) -0.0255(12) 0.0149(11)
C10 0.0519(14) 0.0572(15) 0.0723(17) -0.0055(11) -0.0214(12) 0.0131(12)
C22 0.0598(16) 0.086(2) 0.079(2) -0.0177(14) -0.0168(14) 0.0120(16)
C21 0.102(2) 0.0627(19) 0.083(2) -0.0157(16) -0.0338(18) 0.0251(16)
loop_
_atom_type_symbol
_atom_type_description
_atom_type_scat_dispersion_real
_atom_type_scat_dispersion_imag
_atom_type_scat_source
C C 0.0181 0.0091 'International Tables Vol C Tables 4.2.6.8 and 6.1.1.4'
H H 0 0 'International Tables Vol C Tables 4.2.6.8 and 6.1.1.4'
N N 0.0311 0.018 'International Tables Vol C Tables 4.2.6.8 and 6.1.1.4'
O O 0.0492 0.0322 'International Tables Vol C Tables 4.2.6.8 and 6.1.1.4'
loop_
_geom_angle_atom_site_label_1
_geom_angle_atom_site_label_2
_geom_angle_atom_site_label_3
_geom_angle
C20 N2 C21 122.1(3)
C20 N2 C22 120.7(3)
C21 N2 C22 117.2(3)
C7 O2 H003 109.5
C3 C4 C5 118.1(2)
C3 C4 C8 120.8(2)
C5 C4 C8 121.1(2)
O4 N1 O3 122.2(3)
O4 N1 C11 118.7(3)
O3 N1 C11 119.1(3)
C6 C1 C2 119.0(2)
C6 C1 C7 122.3(2)
C2 C1 C7 118.7(2)
C13 C8 C9 117.8(2)
C13 C8 C4 121.6(2)
C9 C8 C4 120.7(2)
O1 C7 O2 123.2(3)
O1 C7 C1 123.5(2)
O2 C7 C1 113.3(2)
C10 C11 C12 122.0(3)
C10 C11 N1 118.8(3)
C12 C11 N1 119.2(3)
O5 C20 N2 124.3(3)
O5 C20 H00B 117.9
N2 C20 H00B 117.9
C12 C13 C8 121.3(2)
C12 C13 H00C 119.3
C8 C13 H00C 119.3
C2 C3 C4 121.1(2)
C2 C3 H00D 119.4
C4 C3 H00D 119.4
C3 C2 C1 120.3(2)
C3 C2 H00F 119.9
C1 C2 H00F 119.9
C6 C5 C4 120.6(2)
C6 C5 H00G 119.7
C4 C5 H00G 119.7
C10 C9 C8 121.5(2)
C10 C9 H00H 119.3
C8 C9 H00H 119.3
C5 C6 C1 120.9(2)
C5 C6 H00I 119.6
C1 C6 H00I 119.6
C13 C12 C11 118.8(2)
C13 C12 H00K 120.6
C11 C12 H00K 120.6
C9 C10 C11 118.7(2)
C9 C10 H00L 120.7
C11 C10 H00L 120.7
N2 C22 H00A 109.5
N2 C22 H00E 109.5
H00A C22 H00E 109.5
N2 C22 H00J 109.5
H00A C22 H00J 109.5
H00E C22 H00J 109.5
N2 C21 H00M 109.5
N2 C21 H00N 109.5
H00M C21 H00N 109.5
N2 C21 H00O 109.5
H00M C21 H00O 109.5
H00N C21 H00O 109.5
loop_
_geom_bond_atom_site_label_1
_geom_bond_atom_site_label_2
_geom_bond_distance
N2 C20 1.307(4)
N2 C21 1.440(4)
N2 C22 1.466(4)
O1 C7 1.204(3)
O2 C7 1.319(3)
O2 H003 0.82
C4 C3 1.393(3)
C4 C5 1.397(3)
C4 C8 1.487(4)
N1 O4 1.210(4)
N1 O3 1.212(4)
N1 C11 1.461(4)
C1 C6 1.385(4)
C1 C2 1.388(4)
C1 C7 1.489(4)
C8 C13 1.397(3)
C8 C9 1.401(3)
O5 C20 1.241(4)
C11 C10 1.376(4)
C11 C12 1.378(4)
C20 H00B 0.93
C13 C12 1.376(4)
C13 H00C 0.93
C3 C2 1.382(4)
C3 H00D 0.93
C2 H00F 0.93
C5 C6 1.379(4)
C5 H00G 0.93
C9 C10 1.375(4)
C9 H00H 0.93
C6 H00I 0.93
C12 H00K 0.93
C10 H00L 0.93
C22 H00A 0.96
C22 H00E 0.96
C22 H00J 0.96
C21 H00M 0.96
C21 H00N 0.96
C21 H00O 0.96
loop_
_publcif_info_datablock.id
_publcif_info_datablock.publ_exptl
_publcif_info_datablock.publ_geom
_publcif_info_datablock.structure
{337b8554-8972-43aa-9119-cea86fe2ae19} ? ? ?
{b948f9c6-1972-436a-b5be-7d7105834ad6} y y y
loop_
_publcif_info_exptl_table_extra_item
sin_theta_over_lambda_max
loop_
_publcif_info_tables.block_id
_publcif_info_tables.reference_item
{337b8554-8972-43aa-9119-cea86fe2ae19} '_publcif_info_datablock.publ_exptl'
loop_
_publcif_info_cif.paper_type
CE
