#------------------------------------------------------------------------------
#$Date: 2019-11-08 02:16:23 +0200 (Fri, 08 Nov 2019) $
#$Revision: 224706 $
#$URL: file:///home/coder/svn-repositories/cod/cif/4/03/46/4034687.cif $
#------------------------------------------------------------------------------
#
# This file is available in the Crystallography Open Database (COD),
# http://www.crystallography.net/
#
# All data on this site have been placed in the public domain by the
# contributors.
#
data_4034687
loop_
_publ_author_name
'Yuan, Yumeng'
'Pan, Guoshuai'
'Zhang, Xiaofeng'
'Li, Buhong'
'Xiang, Shengchang'
'Huang, Qiufeng'
_publ_section_title
;
 Synthesis of seven-membered azepino[3,2,1-hi]indoles via
 rhodium-catalyzed regioselectively C-H activation/DBU-catalyzed
 intramolecualr amidation of 7-phenylindoles in one pot.
;
_journal_name_full               'The Journal of organic chemistry'
_journal_paper_doi               10.1021/acs.joc.9b02289
_journal_year                    2019
_chemical_formula_moiety         'C19 H15 N O3'
_chemical_formula_sum            'C19 H15 N O3'
_chemical_formula_weight         305.32
_chemical_name_systematic        y2
_space_group_crystal_system      triclinic
_space_group_IT_number           2
_space_group_name_Hall           '-P 1'
_space_group_name_H-M_alt        'P -1'
_atom_sites_solution_hydrogens   geom
_atom_sites_solution_primary     dual
_audit_creation_date             2019-06-29
_audit_creation_method
;
Olex2 1.2
(compiled 2018.05.29 svn.r3508 for OlexSys, GUI svn.r5506)
;
_cell_angle_alpha                79.529(5)
_cell_angle_beta                 87.131(5)
_cell_angle_gamma                85.915(5)
_cell_formula_units_Z            2
_cell_length_a                   8.1949(5)
_cell_length_b                   8.5852(5)
_cell_length_c                   10.9177(7)
_cell_measurement_reflns_used    3387
_cell_measurement_temperature    296.2(4)
_cell_measurement_theta_max      72.7750
_cell_measurement_theta_min      4.0910
_cell_volume                     752.86(8)
_computing_cell_refinement       'CrysAlisPro 1.171.39.46e (Rigaku OD, 2018)'
_computing_data_collection       'CrysAlisPro 1.171.39.46e (Rigaku OD, 2018)'
_computing_data_reduction        'CrysAlisPro 1.171.39.46e (Rigaku OD, 2018)'
_computing_molecular_graphics    'Olex2 (Dolomanov et al., 2009)'
_computing_publication_material  'Olex2 (Dolomanov et al., 2009)'
_computing_structure_refinement  'ShelXL (Sheldrick, 2015)'
_computing_structure_solution    'ShelXT (Sheldrick, 2015)'
_diffrn_ambient_environment      air
_diffrn_ambient_temperature      296.2(4)
_diffrn_detector                 'CCD plate'
_diffrn_detector_area_resol_mean 10.5148
_diffrn_detector_type            Atlas
_diffrn_measured_fraction_theta_full 0.998
_diffrn_measured_fraction_theta_max 0.974
_diffrn_measurement_details
;
List of Runs (angles in degrees, time in seconds):

  # Type    Start    End  Width  t~exp~   \w     \q     \k     \f   Frames
--------------------------------------------------------------------------
  1  \w    -92.00  -2.00   1.00    2.00    --  -40.45 125.00 -90.00   90
  2  \w   -117.00  -8.00   1.00    2.00    --  -40.45 -77.00-150.00  109
  3  \w     23.00  96.00   1.00    2.00    --   40.45-125.00-180.00   73
  4  \w     12.00 113.00   1.00    2.00    --   40.45  57.00  30.00  101
  5  \w     16.00 115.00   1.00    2.00    --   40.45  38.00 150.00   99
  6  \w     30.00 117.00   1.00    6.00    --  103.24-125.00   0.00   87
  7  \w     74.00 176.00   1.00    6.00    --  103.24  61.00 -60.00  102
  8  \w     30.00 129.00   1.00    6.00    --  103.24 -45.00 150.00   99
  9  \w     30.00 117.00   1.00    6.00    --  103.24-125.00 120.00   87
 10  \w     21.00 109.00   1.00    6.00    --  103.24 -94.00-180.00   88
 11  \w     77.00 176.00   1.00    6.00    --  103.24  45.00   0.00   99
 12  \w     30.00 129.00   1.00    6.00    --  103.24 -45.00 -60.00   99
 13  \w     27.00 136.00   1.00    6.00    --  103.24 -77.00-120.00  109
 14  \w     75.00 178.00   1.00    6.00    --  103.24  30.00-120.00  103
 15  \w     94.00 176.00   1.00    6.00    --  103.24 125.00-180.00   82
 16  \w     94.00 176.00   1.00    6.00    --  103.24 125.00-150.00   82
 17  \w     94.00 176.00   1.00    6.00    --  103.24 125.00-120.00   82
 18  \w   -117.00  -8.00   1.00    2.00    --  -40.45 -77.00  90.00  109
 19  \w   -115.00 -16.00   1.00    2.00    --  -40.45 -38.00 -90.00   99
 20  \w     12.00  61.00   1.00    2.00    --   40.45  57.00-120.00   49
;
_diffrn_measurement_device       'four-circle diffractometer'
_diffrn_measurement_device_type  'SuperNova, Dual, Cu at home/near, Atlas'
_diffrn_measurement_method       '\w scans'
_diffrn_orient_matrix_type
'CrysAlisPro convention (1999,Acta A55,543-557)'
_diffrn_orient_matrix_UB_11      0.1185816000
_diffrn_orient_matrix_UB_12      -0.0021064000
_diffrn_orient_matrix_UB_13      0.1055011000
_diffrn_orient_matrix_UB_21      -0.1235584000
_diffrn_orient_matrix_UB_22      0.1093457000
_diffrn_orient_matrix_UB_23      0.0609400000
_diffrn_orient_matrix_UB_31      -0.0790141000
_diffrn_orient_matrix_UB_32      -0.1465358000
_diffrn_orient_matrix_UB_33      0.0760050000
_diffrn_radiation_monochromator  mirror
_diffrn_radiation_probe          x-ray
_diffrn_radiation_type           CuK\a
_diffrn_radiation_wavelength     1.54184
_diffrn_reflns_av_R_equivalents  0.0201
_diffrn_reflns_av_unetI/netI     0.0186
_diffrn_reflns_Laue_measured_fraction_full 0.998
_diffrn_reflns_Laue_measured_fraction_max 0.974
_diffrn_reflns_limit_h_max       9
_diffrn_reflns_limit_h_min       -9
_diffrn_reflns_limit_k_max       10
_diffrn_reflns_limit_k_min       -10
_diffrn_reflns_limit_l_max       13
_diffrn_reflns_limit_l_min       -12
_diffrn_reflns_number            8431
_diffrn_reflns_point_group_measured_fraction_full 0.998
_diffrn_reflns_point_group_measured_fraction_max 0.974
_diffrn_reflns_theta_full        67.684
_diffrn_reflns_theta_max         72.808
_diffrn_reflns_theta_min         4.121
_diffrn_source                   'micro-focus sealed X-ray tube'
_diffrn_source_type              'SuperNova (Cu) X-ray Source'
_exptl_absorpt_coefficient_mu    0.745
_exptl_absorpt_correction_T_max  1.00000
_exptl_absorpt_correction_T_min  0.80033
_exptl_absorpt_correction_type   multi-scan
_exptl_absorpt_process_details
;
CrysAlisPro 1.171.39.46e (Rigaku Oxford Diffraction, 2018)
Empirical absorption correction using spherical harmonics,
 implemented in SCALE3 ABSPACK scaling algorithm.
;
_exptl_crystal_colour            'clear light colourless'
_exptl_crystal_colour_lustre     clear
_exptl_crystal_colour_modifier   light
_exptl_crystal_colour_primary    colourless
_exptl_crystal_density_diffrn    1.347
_exptl_crystal_description       block
_exptl_crystal_F_000             320
_exptl_crystal_size_max          0.1
_exptl_crystal_size_mid          0.1
_exptl_crystal_size_min          0.1
_refine_diff_density_max         0.128
_refine_diff_density_min         -0.197
_refine_diff_density_rms         0.039
_refine_ls_extinction_method     none
_refine_ls_goodness_of_fit_ref   1.027
_refine_ls_hydrogen_treatment    constr
_refine_ls_matrix_type           full
_refine_ls_number_parameters     209
_refine_ls_number_reflns         2933
_refine_ls_number_restraints     0
_refine_ls_restrained_S_all      1.027
_refine_ls_R_factor_all          0.0481
_refine_ls_R_factor_gt           0.0397
_refine_ls_shift/su_max          0.000
_refine_ls_shift/su_mean         0.000
_refine_ls_structure_factor_coef Fsqd
_refine_ls_weighting_details
'w=1/[\s^2^(Fo^2^)+(0.0560P)^2^+0.1100P] where P=(Fo^2^+2Fc^2^)/3'
_refine_ls_weighting_scheme      calc
_refine_ls_wR_factor_gt          0.1003
_refine_ls_wR_factor_ref         0.1084
_reflns_Friedel_coverage         0.000
_reflns_number_gt                2463
_reflns_number_total             2933
_reflns_threshold_expression     'I > 2\s(I)'
_cod_data_source_file            jo9b02289_si_014.cif
_cod_data_source_block           y2-082
_cod_database_code               4034687
_shelx_shelxl_version_number     2014/7
_chemical_oxdiff_formula         'c h o n'
_shelx_space_group_comment
;
The symmetry employed for this shelxl refinement is uniquely defined
by the following loop, which should always be used as a source of
symmetry information in preference to the above space-group names.
They are only intended as comments.
;
_shelx_estimated_absorpt_t_max   0.929
_shelx_estimated_absorpt_t_min   0.929
_reflns_odcompleteness_completeness 100.00
_reflns_odcompleteness_iscentric 1
_reflns_odcompleteness_theta     66.97
_olex2_refinement_description
;
1. Fixed Uiso
 At 1.2 times of:
  All C(H) groups, All C(H,H) groups
 At 1.5 times of:
  All C(H,H,H) groups
2.a Ternary CH refined with riding coordinates:
 C007(H007)
2.b Secondary CH2 refined with riding coordinates:
 C00M(H00A,H00B)
2.c Aromatic/amide H refined with riding coordinates:
 C00C(H00C), C00D(H00D), C00E(H00E), C00G(H00G), C00H(H00H), C00I(H00I),
 C00J(H00J), C00K(H00K), C00L(H00L)
2.d Idealised Me refined as rotating group:
 C00N(H00F,H00M,H00N)
;
_shelx_res_file
;
    y2-082.res created by SHELXL-2014/7

TITL y2-082_a.res in P-1
REM Old TITL y2-082 in P-1
REM SHELXT solution in P-1
REM R1 0.148, Rweak 0.007, Alpha 0.031, Orientation as input
REM Formula found by SHELXT: C19 N O3
CELL 1.54184 8.1949 8.5852 10.9177 79.529 87.131 85.915
ZERR 2 0.0005 0.0005 0.0007 0.005 0.005 0.005
LATT 1
SFAC C H N O
UNIT 38 30 2 6

L.S. 10
PLAN  20
SIZE 0.1 0.1 0.1
BOND $H
list 4
fmap 2 53
ACTA
OMIT -2 1 2
OMIT -2 -4 1
REM <olex2.extras>
REM <HklSrc "%.\\y2-082.hkl">
REM </olex2.extras>

WGHT    0.056000    0.110000
FVAR       0.84767
O001  4    0.463015    0.036210    0.794795    11.00000    0.05499    0.06249 =
         0.05736   -0.00473   -0.01019    0.00392
O002  4    0.540370    0.127846    0.596795    11.00000    0.05057    0.06890 =
         0.07045    0.00057    0.00655    0.00051
O003  4    0.062238    0.001800    0.816438    11.00000    0.07428    0.06485 =
         0.06731   -0.00261    0.01279   -0.03045
N004  3    0.156093    0.243908    0.814318    11.00000    0.04397    0.04811 =
         0.03969   -0.00310    0.00183   -0.00348
C005  1    0.227987    0.376107    0.533696    11.00000    0.03699    0.04486 =
         0.04050   -0.00566    0.00462   -0.00115
C006  1    0.287678    0.437510    0.640243    11.00000    0.04015    0.03703 =
         0.04491   -0.00737    0.00269    0.00064
C007  1    0.254808    0.092792    0.650059    11.00000    0.04994    0.03705 =
         0.04771   -0.00703   -0.00045   -0.00880
AFIX  13
H007  2    0.237361   -0.010838    0.629023    11.00000   -1.20000
AFIX   0
C008  1    0.246219    0.375442    0.764477    11.00000    0.03954    0.04023 =
         0.04483   -0.00838   -0.00067    0.00164
C009  1    0.436371    0.091114    0.674756    11.00000    0.05049    0.03281 =
         0.05477   -0.00686   -0.00111    0.00036
C00A  1    0.205663    0.215283    0.537976    11.00000    0.03984    0.04720 =
         0.04146   -0.00871    0.00189   -0.00639
C00B  1    0.147646    0.105635    0.766037    11.00000    0.04663    0.04649 =
         0.04683   -0.00012   -0.00300   -0.00928
C00C  1    0.185744    0.483566    0.425241    11.00000    0.05022    0.05140 =
         0.04532   -0.00141    0.00551    0.00496
AFIX  43
H00C  2    0.200954    0.590890    0.420246    11.00000   -1.20000
AFIX   0
C00D  1    0.376973    0.572701    0.621806    11.00000    0.05410    0.03985 =
         0.06124   -0.01016    0.00896   -0.00473
AFIX  43
H00D  2    0.411943    0.615596    0.541159    11.00000   -1.20000
AFIX   0
C00E  1    0.140583    0.165973    0.436892    11.00000    0.05084    0.06415 =
         0.04935   -0.01699    0.00192   -0.01392
AFIX  43
H00E  2    0.125836    0.058862    0.440183    11.00000   -1.20000
AFIX   0
C00F  1    0.274286    0.454246    0.862740    11.00000    0.05912    0.05442 =
         0.05085   -0.01816   -0.00264    0.00324
C00G  1    0.121996    0.432328    0.325945    11.00000    0.05144    0.07746 =
         0.04016   -0.00196   -0.00025    0.00911
AFIX  43
H00G  2    0.095327    0.505118    0.254652    11.00000   -1.20000
AFIX   0
C00H  1    0.124825    0.246299    0.941856    11.00000    0.05966    0.06740 =
         0.04000   -0.00134    0.00606    0.00219
AFIX  43
H00H  2    0.065222    0.173333    0.996442    11.00000   -1.20000
AFIX   0
C00I  1    0.097682    0.274301    0.331804    11.00000    0.05247    0.08772 =
         0.04346   -0.01586   -0.00369   -0.00779
AFIX  43
H00I  2    0.052607    0.240459    0.265412    11.00000   -1.20000
AFIX   0
C00J  1    0.193768    0.369228    0.972417    11.00000    0.07927    0.07225 =
         0.04148   -0.01604    0.00015    0.00480
AFIX  43
H00J  2    0.190433    0.395707    1.051445    11.00000   -1.20000
AFIX   0
C00K  1    0.415660    0.645662    0.718944    11.00000    0.07018    0.04621 =
         0.08238   -0.02308    0.00455   -0.01236
AFIX  43
H00K  2    0.479062    0.733253    0.702568    11.00000   -1.20000
AFIX   0
C00L  1    0.361520    0.590251    0.839341    11.00000    0.08257    0.05950 =
         0.07276   -0.03387   -0.00480   -0.00686
AFIX  43
H00L  2    0.382863    0.642711    0.903653    11.00000   -1.20000
AFIX   0
C00M  1    0.630689    0.032957    0.833716    11.00000    0.05833    0.09378 =
         0.07924   -0.01611   -0.02119    0.01971
AFIX  23
H00A  2    0.705856    0.016859    0.764986    11.00000   -1.20000
H00B  2    0.649797   -0.055014    0.902001    11.00000   -1.20000
AFIX   0
C00N  1    0.661660    0.181913    0.873567    11.00000    0.06504    0.12785 =
         0.12601   -0.05562   -0.02223   -0.00695
AFIX 137
H00F  2    0.662918    0.266035    0.802406    11.00000   -1.50000
H00M  2    0.765574    0.170928    0.912157    11.00000   -1.50000
H00N  2    0.576771    0.206332    0.932237    11.00000   -1.50000
AFIX   0
HKLF 4

REM  y2-082_a.res in P-1
REM R1 =  0.0397 for    2463 Fo > 4sig(Fo)  and  0.0481 for all    2933 data
REM    209 parameters refined using      0 restraints

END

WGHT      0.0560      0.1100

REM Highest difference peak  0.128,  deepest hole -0.197,  1-sigma level  0.039
Q1    1   0.1792  0.2938  0.5530  11.00000  0.05    0.13
Q2    1   0.2176  0.1010  0.7112  11.00000  0.05    0.12
Q3    1   0.2282  0.1606  0.5999  11.00000  0.05    0.12
Q4    1   0.6852 -0.0732  0.7874  11.00000  0.05    0.11
Q5    1   0.2990  0.3620  0.7251  11.00000  0.05    0.10
Q6    1   0.0668  0.1234  0.9788  11.00000  0.05    0.10
Q7    1   0.1862  0.6351  0.4457  11.00000  0.05    0.10
Q8    1   0.3385  0.6459  0.7663  11.00000  0.05    0.10
Q9    1   0.1594 -0.1274  0.5742  11.00000  0.05    0.10
Q10   1   0.1776  0.0167  0.4437  11.00000  0.05    0.10
Q11   1   0.4485  0.6262  0.4927  11.00000  0.05    0.09
Q12   1   0.2795  0.4134  0.8143  11.00000  0.05    0.09
Q13   1   0.7852  0.2464  0.7012  11.00000  0.05    0.09
Q14   1   0.5621  0.2696  0.8804  11.00000  0.05    0.09
Q15   1   0.2644  0.4029  0.7070  11.00000  0.05    0.08
Q16   1   0.7433  0.1153  0.7207  11.00000  0.05    0.08
Q17   1   0.5793 -0.0604  0.9453  11.00000  0.05    0.08
Q18   1   0.7910  0.2124  0.8711  11.00000  0.05    0.08
Q19   1   0.2753  0.5555  0.8468  11.00000  0.05    0.08
Q20   1   0.4357  0.2277  0.9982  11.00000  0.05    0.08
;
_shelx_res_checksum              49411
_shelx_hkl_file
;
   0   0  -1  458.98    3.33
   0   0   1  461.07    2.54
   0   0   2  842.18    5.75
   0   0   2  868.06    4.76
   0   0  -2  830.73    6.66
   0   0   2  880.14    4.74
   0   0  -3  175.41    3.89
   0   0   3  176.85    2.62
   0   0   3  176.75    2.62
   0   0   3  178.76    3.27
   0   0   4  211.63    3.30
   0   0  -4  212.00    5.02
   0   0   4  215.97    4.20
   0   0  -4  217.24    4.59
   0   0   5  543.56    7.53
   0   0  -5  517.41    9.01
   0   0  -5  532.31    8.28
   0   0   5  533.05    5.84
   0   0  -6  145.05    4.89
   0   0  -6  149.78    5.44
   0   0   6  141.37    4.28
   0   0  -7   22.79    2.22
   0   0   8   91.48    2.96
   0   0   8   89.46    2.89
   0   0   8   94.16    2.99
   0   0  -8   92.90    4.86
   0   0   9   24.80    1.67
   0   0   9   23.63    1.59
   0   0  -9   23.40    2.62
   0   0   9   24.64    1.60
   0   0  10   40.70    2.08
   0   0  10   40.89    2.15
   0   0  11    0.52    0.42
   0   0  11    0.51    0.59
   0   0  12    0.37    0.27
   0   0  12    0.32    0.39
   0   0  13    0.09    0.18
   0  -1  12    4.29    0.61
   0  -1  11    0.48    0.42
   0  -1  11    0.73    0.37
   0  -1  10   30.94    1.87
   0  -1  10   31.22    1.79
   0  -1  10   29.52    1.77
   0  -1   9   12.98    1.26
   0  -1   9   12.04    1.17
   0  -1   9   11.16    1.10
   0  -1   8   11.95    1.13
   0   1  -8   14.33    1.99
   0  -1   8   10.35    1.03
   0  -1   8   10.98    1.11
   0  -1   7  114.58    3.06
   0  -1   7  116.60    3.16
   0   1  -6   81.36    3.78
   0  -1   6   81.46    3.11
   0   1  -5   18.03    1.58
   0   1  -5   18.90    1.66
   0  -1   5   20.53    1.45
   0   1  -4  257.09    4.93
   0  -1   4  253.37    4.68
   0   1  -4  262.22    5.28
   0  -1   3  961.39    8.17
   0   1  -3  962.94    8.82
   0   1  -3  951.51    7.79
   0  -1   3  961.18    8.49
   0  -1   2 1660.21    9.62
   0   1  -2 1644.95    7.69
   0   1  -1  290.50    2.01
   0  -1   1  285.30    3.47
   0  -1   0    0.42    0.18
   0   1   0    1.13    0.19
   0  -1  -1 1464.11    4.57
   0   1   1 1454.56    6.70
   0   1   1 1457.02    6.99
   0   1   2    6.33    0.56
   0   1   2    6.16    0.64
   0  -1  -2    5.99    0.78
   0  -1  -3   52.19    2.48
   0   1   3   51.89    1.76
   0  -1  -4  146.19    3.83
   0   1   4  145.54    3.42
   0  -1  -4  138.12    4.51
   0  -1  -5  600.09    8.88
   0   1   5  594.57    7.81
   0  -1  -6  182.24    6.41
   0   1   6  182.00    4.82
   0  -1  -6  175.89    5.41
   0   1   7    8.91    1.25
   0  -1  -7    8.86    1.36
   0  -1  -7   12.14    1.83
   0  -1  -8  124.14    5.61
   0   1   8  122.33    3.33
   0   1   8  119.07    3.37
   0   1   8  129.78    3.46
   0   1   9   34.66    1.94
   0   1   9   33.98    1.92
   0  -1  -9   35.04    3.21
   0   1  10    6.82    0.97
   0   1  10    5.87    0.90
   0   1  11   18.83    1.43
   0   1  11   18.48    1.41
   0   1  12    0.47    0.39
   0   1  12    0.11    0.30
   0   1  13    0.63    0.27
   0  -2  12    6.51    0.62
   0  -2  11    0.13    0.38
   0  -2  10    0.30    0.40
   0  -2  10   -0.03    0.38
   0  -2  10    0.26    0.37
   0  -2   9   38.68    1.98
   0  -2   9   37.75    2.03
   0  -2   9   37.54    2.00
   0  -2   8    6.99    0.90
   0  -2   8    7.98    0.95
   0   2  -8    8.23    1.60
   0  -2   8    5.31    0.75
   0  -2   7    0.63    0.38
   0  -2   7   -0.14    0.30
   0  -2   7   -0.06    0.32
   0   2  -6    2.38    0.80
   0  -2   6    2.14    0.64
   0  -2   5  721.86   10.13
   0   2  -5  682.84   10.56
   0  -2   4  300.82    6.09
   0   2  -4  303.68    6.27
   0  -2   3   21.30    1.62
   0   2  -3   20.89    1.52
   0   2  -3   25.36    1.22
   0  -2   3   23.22    1.59
   0  -2   2  104.96    3.29
   0  -2   2  116.39    3.18
   0   2  -1 1924.14   10.69
   0   2  -1 1916.55    8.91
   0  -2   1 1948.25   11.77
   0   2   0  660.48    6.21
   0   2   0  640.30    5.61
   0  -2   0  654.38    6.12
   0   2   1 1315.09    8.46
   0  -2  -1 1322.73    9.92
   0  -2  -1 1293.49    7.55
   0  -2  -2 1339.84    6.01
   0   2   2 1335.52    9.21
   0   2   3  112.76    2.91
   0   2   3  117.46    3.30
   0   2   3  108.74    3.49
   0  -2  -3  107.53    3.90
   0  -2  -3  115.17    3.29
   0  -2  -4   88.22    3.21
   0  -2  -4   90.42    3.98
   0   2   4   88.84    2.84
   0   2   5    2.78    0.69
   0  -2  -5    2.88    0.82
   0  -2  -5    2.68    0.97
   0  -2  -6  101.48    4.28
   0  -2  -6  100.25    4.99
   0   2   6   93.03    3.55
   0  -2  -7    3.24    1.21
   0  -2  -7    3.11    1.01
   0   2   7    2.19    0.80
   0  -2  -8   12.08    1.87
   0   2   8   12.29    1.10
   0   2   8   11.90    1.03
   0  -2  -8   12.46    2.09
   0  -2  -8   11.21    0.98
   0  -2  -9   26.68    2.95
   0   2   9   24.98    1.53
   0   2   9   25.32    1.64
   0   2   9   26.68    1.72
   0  -2  -9   28.00    1.57
   0   2  10   -0.10    0.42
   0   2  10    0.12    0.41
   0   2  11    8.05    0.98
   0   2  11    6.05    0.90
   0   2  12    0.87    0.41
   0   2  12    0.87    0.40
   0   2  13    0.74    0.28
   0   2  13    1.24    0.29
   0  -3  11    2.49    0.43
   0  -3  11    2.36    0.41
   0  -3  10   11.69    1.03
   0  -3  10   11.40    1.03
   0  -3   9   43.93    2.12
   0  -3   9   42.27    2.06
   0  -3   8   10.87    1.14
   0  -3   8   11.66    1.14
   0  -3   8   10.42    1.01
   0  -3   7    2.48    0.61
   0  -3   7    2.74    0.64
   0   3  -7    3.03    1.14
   0  -3   7    2.98    0.65
   0  -3   7    2.89    0.60
   0  -3   6   21.24    1.30
   0  -3   6   22.45    1.41
   0  -3   6   22.75    1.39
   0  -3   6   20.02    2.10
   0   3  -6   20.69    2.23
   0   3  -5   19.86    1.99
   0  -3   5   20.91    2.01
   0   3  -4  144.45    4.79
   0  -3   4  141.92    4.87
   0   3  -4  144.18    4.75
   0  -3   3    0.17    0.50
   0   3  -3    0.21    0.40
   0  -3   2   20.89    1.68
   0   3  -2   21.27    1.55
   0   3  -1   11.84    0.93
   0  -3   1   10.81    1.14
   0   3  -1    9.53    0.95
   0   3   0    4.40    0.64
   0  -3   0    4.20    0.72
   0   3   0    4.13    0.70
   0  -3  -1 1316.95    9.97
   0   3   1 1333.58   12.04
   0  -3  -1 1340.81    4.96
   0   3   1 1339.56   10.50
   0  -3  -2 1564.77   13.91
   0  -3  -2 1541.25    9.43
   0   3   2 1573.88   13.93
   0   3   2 1532.88   12.10
   0  -3  -3  292.44    5.95
   0  -3  -3  299.82    6.91
   0   3   3  288.14    5.70
   0   3   3  300.34    5.54
   0  -3  -3  288.09    3.29
   0  -3  -4  585.66   10.62
   0   3   4  571.75    8.11
   0  -3  -4  565.73    9.03
   0   3   5    0.07    0.37
   0  -3  -5    0.42    0.80
   0  -3  -5    0.19    0.56
   0   3   6  235.17    6.02
   0  -3  -6  224.21    7.76
   0  -3  -6  234.19    6.89
   0  -3  -7  132.41    5.68
   0   3   7  137.02    3.50
   0  -3  -7  126.58    6.25
   0  -3  -8   97.04    5.26
   0   3   8   92.22    2.88
   0  -3  -8   96.25    5.72
   0   3   8   90.28    3.00
   0  -3  -8   93.02    2.87
   0  -3  -9    2.58    1.63
   0   3   9    4.98    0.76
   0  -3  -9    5.37    0.75
   0  -3  -9    5.42    1.46
   0   3   9    5.46    0.80
   0   3  10   92.32    3.26
   0  -3 -10   92.37    2.90
   0   3  10   92.82    3.02
   0   3  10   87.22    2.98
   0   3  11    1.40    0.56
   0   3  11    1.62    0.55
   0   3  11    0.97    0.32
   0   3  12    0.00    0.33
   0   3  12   -0.01    0.26
   0   3  13    0.79    0.28
   0   3  13    1.03    0.27
   0  -4  10    0.30    0.29
   0  -4  10    0.95    0.32
   0  -4   9    0.16    0.30
   0  -4   9   -0.18    0.40
   0  -4   8   52.37    2.34
   0  -4   8   52.42    2.23
   0  -4   8   51.07    2.10
   0  -4   7   11.45    1.13
   0  -4   7   13.32    1.17
   0  -4   7   11.90    1.12
   0  -4   6    0.58    0.39
   0  -4   6   -0.09    0.34
   0   4  -6   -0.16    0.54
   0  -4   6   -0.10    0.48
   0   4  -6    0.75    0.79
   0  -4   6    0.01    0.66
   0   4  -5   20.52    2.15
   0  -4   5   21.06    1.30
   0   4  -5   22.87    2.33
   0  -4   5   20.66    1.40
   0  -4   5   21.00    1.36
   0  -4   5   20.59    1.35
   0  -4   5   20.12    2.24
   0   4  -4    1.27    0.79
   0  -4   4    1.43    0.72
   0   4  -4    1.33    0.78
   0  -4   3  123.69    4.85
   0   4  -3  122.15    4.41
   0  -4   2    1.78    0.72
   0   4  -2   -0.01    0.38
   0  -4   1    7.43    1.21
   0   4  -1    6.46    0.95
   0  -4   0   28.44    1.94
   0   4   0   27.30    1.76
   0  -4  -1  586.22    8.00
   0   4   1  584.21    8.12
   0  -4  -2  170.92    5.12
   0   4   2  165.53    4.53
   0  -4  -2  171.30    3.97
   0   4   2  173.85    4.88
   0  -4  -3  553.18    9.96
   0  -4  -3  540.24    6.19
   0   4   3  528.72    8.56
   0   4   3  535.08    8.72
   0   4   4  143.82    4.65
   0  -4  -4  145.95    5.59
   0   4   4  149.83    4.96
   0  -4  -5   11.20    1.54
   0  -4  -5    7.98    1.62
   0   4   5   11.43    1.52
   0   4   6  259.79    6.87
   0  -4  -6  259.75    8.68
   0  -4  -6  256.64    7.78
   0   4   7    2.99    0.64
   0  -4  -7    2.63    0.55
   0  -4  -7    3.63    1.20
   0  -4  -7    1.90    1.18
   0   4   8   91.51    2.81
   0   4   8   97.42    3.25
   0  -4  -8  114.34    5.94
   0  -4  -8   92.20    3.02
   0  -4  -8  106.51    6.31
   0   4   9   52.48    2.42
   0   4   9   49.51    2.17
   0  -4  -9   49.47    2.25
   0  -4 -10   18.69    1.35
   0   4  10   19.04    1.36
   0   4  10   20.22    1.50
   0   4  11    0.57    0.33
   0   4  11    0.42    0.51
   0  -4 -11    0.41    0.32
   0   4  11    0.29    0.29
   0   4  12    0.02    0.23
   0   4  12    0.09    0.30
   0   4  12   -0.03    0.23
   0   4  13    1.38    0.30
   0  -5  10    5.83    0.55
   0  -5   9    0.86    0.32
   0  -5   8    0.44    0.29
   0  -5   8    0.21    0.32
   0  -5   8    0.54    0.38
   0  -5   7   20.03    1.48
   0  -5   7   16.55    1.30
   0  -5   7   17.60    1.21
   0  -5   6    7.51    0.94
   0  -5   6    7.39    0.95
   0   5  -5   25.97    2.74
   0  -5   5   28.55    1.72
   0  -5   5   33.69    1.86
   0  -5   5   30.37    3.00
   0  -5   5   31.94    1.76
   0  -5   4   39.09    1.94
   0  -5   4   38.25    1.95
   0  -5   4   38.32    3.25
   0   5  -4   34.93    3.02
   0  -5   4   38.20    1.93
   0  -5   3   97.47    4.88
   0  -5   3   93.53    2.92
   0  -5   3   95.78    2.89
   0  -5   3  101.19    2.95
   0   5  -2   80.47    3.69
   0  -5   2   79.82    4.16
   0   5  -1    2.23    0.76
   0  -5   1    1.47    0.64
   0   5   0  169.62    5.04
   0  -5   0  176.00    5.50
   0   5   1  205.41    5.57
   0  -5  -1  209.82    5.63
   0  -5  -2  227.00    5.47
   0   5   2  224.06    6.42
   0   5   2  223.97    5.97
   0   5   3  480.48    9.44
   0   5   3  461.92    9.01
   0   5   4    1.85    0.80
   0  -5  -4    1.17    0.82
   0   5   4    1.02    0.68
   0   5   5    1.51    0.79
   0   5   5    1.92    0.55
   0  -5  -5    2.42    0.57
   0  -5  -5    2.69    0.56
   0  -5  -5    1.72    1.06
   0  -5  -6   17.65    1.28
   0  -5  -6   18.24    1.38
   0   5   6   19.10    1.42
   0   5   6   13.54    1.76
   0  -5  -6   17.63    2.51
   0  -5  -7   29.32    1.65
   0  -5  -7   28.52    3.23
   0  -5  -7   28.58    1.74
   0   5   7   30.23    1.85
   0  -5  -8    1.50    0.57
   0   5   8    1.25    0.58
   0  -5  -8    1.69    0.48
   0   5   9   29.44    1.91
   0  -5  -9   32.40    1.88
   0  -5 -10   22.09    1.46
   0   5  10   24.27    1.64
   0  -5 -11    7.31    0.74
   0   5  11    8.45    0.94
   0   5  11    7.53    0.85
   0   5  12    0.18    0.21
   0   5  12   -0.02    0.31
   0  -6   9    0.37    0.24
   0  -6   8    4.27    0.59
   0  -6   8    3.40    0.53
   0  -6   7    0.19    0.36
   0  -6   7   -0.22    0.42
   0  -6   6   22.50    1.52
   0  -6   6   21.83    1.51
   0  -6   5    9.67    1.09
   0  -6   5    7.96    1.00
   0  -6   4   80.73    2.91
   0  -6   4   78.75    2.93
   0   6  -4   77.15    4.67
   0  -6   4   80.14    2.92
   0  -6   3   44.07    2.14
   0  -6   3   44.78    1.97
   0  -6   3   43.82    2.18
   0  -6   3   43.69    3.57
   0   6  -3   42.59    3.42
   0  -6   3   41.96    2.09
   0  -6   2    2.30    0.61
   0  -6   2    1.72    0.93
   0  -6   2    1.48    0.45
   0  -6   2    2.39    0.61
   0  -6   2    2.64    0.63
   0  -6   1    0.05    0.38
   0  -6   1    0.23    0.42
   0  -6   1    0.53    0.42
   0  -6   1    1.05    0.70
   0  -6   0  102.40    3.10
   0  -6   0  103.29    2.86
   0  -6   0  102.17    2.86
   0  -6   0   98.23    2.99
   0  -6   0   99.85    4.72
   0  -6  -1   17.85    1.92
   0  -6  -1   17.76    1.29
   0  -6  -1   16.07    1.19
   0   6   1   17.48    2.17
   0  -6  -1   18.75    1.34
   0  -6  -2   64.52    2.37
   0   6   2   63.45    3.99
   0  -6  -2   61.00    2.30
   0  -6  -3   88.25    2.85
   0   6   3   84.63    4.23
   0   6   3   88.45    4.66
   0  -6  -3   85.74    2.89
   0  -6  -4   -0.16    0.32
   0   6   4   -1.01    0.48
   0   6   4    0.34    0.74
   0  -6  -4    0.13    0.35
   0   6   5   62.59    2.50
   0  -6  -5   65.63    2.60
   0   6   5   67.63    4.19
   0  -6  -5   67.46    2.67
   0   6   6   50.50    2.35
   0  -6  -6   48.84    2.34
   0  -6  -6   48.89    2.25
   0  -6  -7  238.20    4.94
   0  -6  -7  236.60    5.14
   0   6   7  234.24    5.19
   0  -6  -8   21.54    1.58
   0   6   8   23.30    1.74
   0  -6  -8   25.09    1.56
   0  -6  -9   -0.09    0.40
   0   6   9   -0.45    0.53
   0   6  10   15.36    1.27
   0  -6 -10   12.93    1.09
   0  -6 -11    4.58    0.55
   0   6  11    6.53    0.75
   0   6  11    5.70    0.72
   0   6  12    1.06    0.30
   0   6  12    0.58    0.20
   0  -7   8    0.21    0.16
   0  -7   8    0.62    0.20
   0  -7   7   -0.49    0.28
   0  -7   7    0.16    0.27
   0  -7   6    7.19    0.82
   0  -7   6    6.43    0.78
   0  -7   5   61.54    2.47
   0  -7   5   63.42    2.51
   0  -7   4   49.24    2.27
   0  -7   4   53.99    2.39
   0  -7   3    6.25    0.87
   0  -7   3    3.86    0.79
   0  -7   3    5.46    0.84
   0  -7   2   68.81    2.65
   0  -7   2   65.36    2.80
   0  -7   2   66.34    2.69
   0  -7   1   17.90    1.49
   0  -7   1   18.68    1.49
   0  -7   1   18.92    1.37
   0  -7   0    0.69    0.42
   0  -7   0   -0.18    0.32
   0  -7   0   -0.40    0.77
   0   7   0    0.44    0.78
   0  -7   0    0.42    0.47
   0  -7   0    0.22    0.51
   0  -7  -1   12.68    1.15
   0  -7  -1   13.35    1.29
   0   7   1   15.13    2.26
   0  -7  -1   12.27    1.20
   0   7   2   31.26    3.14
   0  -7  -2   27.81    1.79
   0  -7  -2   30.34    1.79
   0  -7  -2   29.75    1.77
   0  -7  -3    1.45    0.47
   0  -7  -3    2.09    0.65
   0  -7  -3    1.28    0.56
   0   7   4  130.26    6.28
   0  -7  -4  126.27    3.72
   0  -7  -5   11.35    1.18
   0  -7  -5   10.64    1.15
   0   7   5   10.91    1.06
   0  -7  -6    1.32    0.47
   0   7   6    0.52    0.45
   0  -7  -6    1.59    0.58
   0  -7  -7    6.24    0.93
   0   7   7    4.49    0.82
   0  -7  -7    4.37    0.77
   0  -7  -8    9.86    1.10
   0   7   8    9.49    1.10
   0  -7  -8    9.81    0.98
   0   7   9    1.13    0.48
   0  -7  -9    1.22    0.50
   0  -7  -9    1.30    0.40
   0   7  10    0.77    0.41
   0   7  11    0.56    0.25
   0   7  11    1.22    0.34
   0  -8   6    5.85    0.57
   0  -8   6    4.52    0.54
   0  -8   5    0.36    0.35
   0  -8   5    0.54    0.33
   0  -8   4   43.81    1.90
   0  -8   4   41.01    1.90
   0  -8   3    3.93    0.67
   0  -8   3    4.01    0.75
   0  -8   2   10.18    1.02
   0  -8   2   10.51    1.14
   0  -8   1   28.71    1.86
   0  -8   1   29.13    1.79
   0  -8   1   29.44    1.65
   0  -8   0   26.46    1.76
   0  -8   0   27.85    1.81
   0  -8   0   27.08    1.57
   0  -8   0   26.55    1.51
   0  -8  -1    3.04    0.64
   0  -8  -1    4.34    0.80
   0  -8  -1    4.32    0.76
   0  -8  -2    4.72    0.80
   0  -8  -2    4.41    0.76
   0  -8  -2    4.53    0.78
   0  -8  -3   39.46    1.94
   0  -8  -3   43.78    2.23
   0  -8  -3   43.35    2.20
   0  -8  -4   34.71    1.99
   0  -8  -4   32.38    1.92
   0  -8  -5   41.20    2.13
   0  -8  -5   38.59    2.09
   0  -8  -6    3.53    0.72
   0   8   6    2.04    0.51
   0  -8  -6    2.82    0.71
   0  -8  -7    8.69    0.93
   0   8   7   10.96    1.01
   0   8   8    0.74    0.46
   0  -8  -8   -0.08    0.26
   0  -8  -9   16.02    0.96
   0   8   9   16.83    1.11
   0   8  10    1.04    0.34
   0  -8 -10    0.98    0.29
   0   8  10    0.63    0.27
   0  -9   4    0.66    0.29
   0  -9   4    0.65    0.24
   0  -9   3    0.81    0.31
   0  -9   3    0.59    0.33
   0  -9   2   39.98    1.60
   0  -9   2   41.87    1.80
   0  -9   1    3.59    0.53
   0  -9   1    4.69    0.72
   0  -9   0   14.42    1.20
   0  -9  -1    0.45    0.30
   0  -9  -1    0.20    0.43
   0  -9  -2    6.82    0.80
   0  -9  -2    7.13    0.93
   0  -9  -3    8.24    0.92
   0  -9  -3    6.97    0.84
   0  -9  -4   56.94    2.30
   0  -9  -4   54.49    2.29
   0  -9  -5   -0.06    0.35
   0  -9  -5    0.36    0.41
   0  -9  -6   25.05    1.43
   0  -9  -6   27.25    1.50
   0  -9  -7    0.49    0.27
   0  -9  -7    1.20    0.39
   0  -9  -8   11.00    0.77
   0  -9  -8   10.65    0.77
   0 -10   2   -0.07    0.17
   0 -10   1    2.20    0.38
   0 -10   0   -0.27    0.26
   0 -10  -1    3.15    0.50
   0 -10  -2    0.15    0.31
   0 -10  -2   -0.37    0.20
   0 -10  -3   -0.13    0.28
   0 -10  -3    0.19    0.24
   0 -10  -4    2.11    0.40
   0 -10  -4    2.28    0.44
   0 -10  -5    1.07    0.29
   0 -10  -5    1.05    0.30
   0 -10  -6    0.43    0.23
   0 -10  -6    0.00    0.17
   1 -10  -6    0.80    0.23
   1 -10  -5    1.51    0.31
   1 -10  -5    2.38    0.35
   1 -10  -4    2.00    0.38
   1 -10  -4    1.96    0.38
   1 -10  -3    0.20    0.24
   1 -10  -3    0.35    0.21
   1 -10  -2    0.71    0.27
   1 -10  -2    0.40    0.26
   1 -10  -1    0.83    0.30
   1 -10   0    5.12    0.54
  -1  10   0    3.93    0.48
   1 -10   1    0.39    0.22
   1  -9  -8    0.49    0.18
   1  -9  -8   -0.25    0.22
   1  -9  -7    1.92    0.42
   1  -9  -7    2.75    0.43
   1  -9  -6    2.00    0.51
   1  -9  -6    2.15    0.44
   1  -9  -5   30.02    1.60
   1  -9  -5   32.12    1.60
   1  -9  -4   39.15    1.89
   1  -9  -4   36.27    1.76
   1  -9  -3  100.29    2.96
   1  -9  -3   99.71    2.99
   1  -9  -2    1.73    0.51
   1  -9  -2    1.87    0.49
   1  -9  -1    1.42    0.51
   1  -9  -1    1.09    0.41
   1  -9   0    2.27    0.43
   1  -9   0    2.05    0.55
   1  -9   1   43.28    1.90
   1  -9   1   43.10    1.64
  -1   9  -2    2.56    0.41
   1  -9   2    3.04    0.48
   1  -9   2    3.23    0.58
   1  -9   3    3.70    0.49
   1  -9   3    4.22    0.57
   1  -9   4    0.85    0.25
   1  -9   4    1.68    0.37
  -1   8  10    0.74    0.26
  -1   8  10    0.84    0.28
   1  -8  -9    0.80    0.33
  -1   8   9    0.33    0.31
   1  -8  -8    0.46    0.29
   1  -8  -8    0.06    0.30
  -1   8   8   -0.04    0.34
   1  -8  -7   21.55    1.39
  -1   8   7   21.32    1.36
   1  -8  -7   19.90    1.33
   1  -8  -6    0.45    0.43
   1  -8  -6    0.28    0.40
  -1   8   6    0.68    0.39
   1  -8  -5   56.79    2.48
   1  -8  -5   56.15    2.40
   1  -8  -4   22.23    1.57
   1  -8  -4   23.42    1.65
   1  -8  -3   25.34    1.73
   1  -8  -3   24.97    1.69
   1  -8  -2   35.81    1.99
   1  -8  -2   33.55    1.93
   1  -8  -1    0.18    0.53
   1  -8  -1   -0.24    0.36
   1  -8   0    8.95    0.95
   1  -8   0   10.12    1.10
   1  -8   0    8.41    0.90
   1  -8   1   40.31    1.93
   1  -8   1   46.46    2.25
   1  -8   2   13.26    1.15
   1  -8   2   15.08    1.32
   1  -8   3   24.81    1.51
   1  -8   3   24.69    1.59
   1  -8   4    1.11    0.47
   1  -8   4    1.25    0.47
   1  -8   5   39.81    1.67
   1  -8   5   36.89    1.59
   1  -8   6    0.68    0.26
   1  -8   6    0.49    0.24
  -1   7  11    0.14    0.24
  -1   7  11   -0.25    0.22
  -1   7  10    8.66    0.84
  -1   7  10    8.18    0.83
  -1   7   9    4.22    0.75
  -1   7   8   35.40    1.92
   1  -7  -8   33.59    1.71
   1  -7  -7   63.01    2.53
  -1   7   7   64.82    2.65
  -1   7   6   12.77    1.18
   1  -7  -6   14.00    1.30
  -1   7   5    0.46    0.46
   1  -7  -5    0.61    0.48
   1  -7  -4   24.87    1.69
   1  -7  -4   27.23    1.78
   1  -7  -3    1.93    0.66
   1  -7  -3    2.09    0.66
  -1   7   2   81.62    4.93
   1  -7  -2   77.86    2.91
   1  -7  -2   76.74    2.87
   1  -7  -2   73.45    2.72
   1  -7  -1    7.06    0.96
   1  -7  -1    7.71    0.93
   1  -7  -1    5.55    0.87
   1  -7   0   20.83    1.41
   1  -7   0   22.07    1.58
   1  -7   0   20.09    1.54
   1  -7   0   18.58    2.41
   1  -7   0   21.32    1.47
   1  -7   1    3.32    0.73
   1  -7   1    2.26    0.60
   1  -7   1    3.45    0.66
   1  -7   1    3.32    0.61
   1  -7   2   18.77    1.43
   1  -7   2   18.89    1.51
   1  -7   3    1.02    0.54
   1  -7   3    1.67    0.62
   1  -7   4   45.97    2.28
   1  -7   4   44.09    2.17
   1  -7   5   19.38    1.41
   1  -7   5   19.70    1.43
   1  -7   6   21.67    1.34
   1  -7   6   24.55    1.46
   1  -7   7    1.51    0.40
   1  -7   7    0.95    0.32
   1  -7   8    0.04    0.18
  -1   6  12    0.10    0.20
  -1   6  11    0.29    0.29
  -1   6  11    0.49    0.30
  -1   6  10    0.18    0.44
  -1   6  10   -0.71    0.51
   1  -6 -10   -0.41    0.34
  -1   6   9    4.95    0.86
   1  -6  -9    5.13    0.71
   1  -6  -8    0.22    0.34
  -1   6   8   -0.48    0.56
   1  -6  -8   -0.09    0.39
   1  -6  -7    2.72    0.70
  -1   6   7    2.15    0.63
   1  -6  -7    2.89    0.66
  -1   6   6    2.44    0.62
   1  -6  -6    1.97    0.56
   1  -6  -6    1.15    1.04
   1  -6  -6    1.41    0.51
  -1   6   5    7.63    0.93
   1  -6  -5    8.65    0.99
   1  -6  -5    9.09    1.04
   1  -6  -4   21.44    1.54
  -1   6   4   24.65    2.63
  -1   6   4   20.55    1.39
   1  -6  -4   21.33    1.50
  -1   6   4   19.59    2.21
   1  -6  -3   62.81    2.48
  -1   6   3   62.07    3.99
  -1   6   3   65.85    3.94
   1  -6  -2    2.39    0.64
  -1   6   2    1.76    0.93
   1  -6  -2    1.00    0.43
   1  -6  -2    2.53    0.58
  -1   6   2    0.77    0.79
   1  -6  -1   35.70    1.84
   1  -6  -1   36.00    2.70
  -1   6   1   37.47    3.13
   1  -6  -1   38.24    1.88
   1  -6  -1   37.56    1.86
  -1   6   1   35.76    2.93
   1  -6   0    1.89    0.51
  -1   6   0    3.04    1.10
   1  -6   0    2.20    0.64
   1  -6   0    1.46    0.66
   1  -6   0    0.37    0.30
   1  -6   0    1.52    0.42
  -1   6  -1  201.35    6.96
   1  -6   1  212.27    4.41
   1  -6   1  202.08    7.18
   1  -6   1  204.80    4.15
   1  -6   1  217.54    4.71
   1  -6   1  214.48    4.52
   1  -6   2  225.00    7.85
   1  -6   2  226.84    4.93
   1  -6   2  223.07    4.71
  -1   6  -2  209.10    7.27
   1  -6   2  224.66    4.72
   1  -6   3  142.34    6.54
  -1   6  -3  144.82    6.53
   1  -6   3  152.56    3.98
   1  -6   3  150.65    4.00
   1  -6   4   18.47    1.44
   1  -6   4   17.83    1.45
   1  -6   5   14.12    1.29
   1  -6   5   15.86    1.37
   1  -6   6    0.07    0.39
   1  -6   6    0.03    0.52
   1  -6   7    1.62    0.59
   1  -6   7    1.18    0.42
   1  -6   8   -0.26    0.26
   1  -6   8    0.21    0.30
   1  -6   9   -0.10    0.18
  -1   5  12    0.17    0.19
  -1   5  12    0.09    0.25
  -1   5  11    2.99    0.49
  -1   5  11    2.74    0.56
  -1   5  11    2.67    0.59
  -1   5  10    1.67    0.68
  -1   5  10    1.21    0.40
  -1   5  10    0.32    0.50
   1  -5 -10    1.29    0.39
   1  -5  -9    2.35    0.56
  -1   5   9    2.23    0.71
  -1   5   9    1.88    0.51
  -1   5   8   17.03    1.27
  -1   5   8   16.69    1.45
   1  -5  -8   17.38    1.36
  -1   5   7   42.89    2.18
   1  -5  -7   40.24    1.95
  -1   5   7   39.97    1.86
   1  -5  -7   40.51    2.05
   1  -5  -7   43.35    4.14
   1  -5  -6   48.44    4.18
  -1   5   6   48.40    2.24
   1  -5  -6   48.49    2.19
   1  -5  -6   44.50    2.03
   1  -5  -5   64.06    2.39
  -1   5   5   67.16    2.48
   1  -5  -5   65.03    2.44
   1  -5  -5   65.69    4.53
  -1   5   5   71.36    4.31
   1  -5  -4   14.86    2.01
  -1   5   4   13.45    1.82
  -1   5   4   15.58    1.76
  -1   5   3   96.46    4.17
  -1   5   3   89.80    4.33
   1  -5  -3   96.12    4.61
  -1   5   2    1.27    0.71
  -1   5   2    1.13    0.70
   1  -5  -2    0.47    0.44
   1  -5  -1  131.83    4.60
  -1   5   1  120.32    4.79
  -1   5   0  135.53    5.08
   1  -5   0  132.15    4.90
   1  -5   1   28.48    2.45
  -1   5  -1   30.87    2.53
   1  -5   2    3.66    1.08
  -1   5  -2    2.05    0.85
   1  -5   3   -0.02    0.36
   1  -5   3    0.20    0.45
   1  -5   3    0.11    0.35
   1  -5   3   -0.05    0.49
  -1   5  -3    1.02    0.62
   1  -5   4  125.08    3.52
  -1   5  -4  125.24    5.68
  -1   5  -4  121.98    5.75
   1  -5   4  125.44    3.53
   1  -5   4  132.70    6.08
   1  -5   5   -0.03    0.29
  -1   5  -5    0.97    0.61
   1  -5   5    0.14    0.41
  -1   5  -5   -0.06    0.93
   1  -5   5   -1.27    0.86
   1  -5   5   -0.12    0.43
   1  -5   6   10.40    1.12
   1  -5   6    9.99    1.09
   1  -5   6    8.32    0.96
   1  -5   7   10.97    1.16
   1  -5   7    9.60    0.98
   1  -5   7    7.96    0.93
   1  -5   8   38.30    1.93
   1  -5   8   37.88    1.75
   1  -5   8   35.57    1.69
   1  -5   9    0.49    0.25
   1  -5   9    0.16    0.31
   1  -5  10    0.74    0.26
  -1   4  13    0.57    0.22
  -1   4  12    6.76    0.75
  -1   4  12    6.39    0.64
  -1   4  11    4.66    0.68
  -1   4  11    5.29    0.70
  -1   4  11    4.94    0.71
  -1   4  11    6.17    0.89
  -1   4  10   55.89    2.35
  -1   4  10   56.45    2.56
  -1   4  10   58.35    2.42
  -1   4   9    1.19    0.49
   1  -4  -9    1.32    0.48
  -1   4   9    1.46    0.59
  -1   4   9    1.82    0.48
  -1   4   8    4.78    0.84
   1  -4  -8    5.80    0.82
   1  -4  -8    6.98    1.65
  -1   4   8    5.32    0.77
   1  -4  -8    8.35    1.87
  -1   4   7   50.66    2.29
   1  -4  -7   55.17    4.60
   1  -4  -7   52.34    3.83
   1  -4  -7   50.28    2.13
  -1   4   7   48.52    2.04
   1  -4  -6   14.69    2.29
  -1   4   6   15.12    1.19
   1  -4  -5  146.22    6.47
  -1   4   5  141.25    4.47
   1  -4  -4    0.11    0.42
   1  -4  -4   -0.26    0.65
  -1   4   4    0.38    0.66
  -1   4   4   -0.26    0.43
  -1   4   3   10.38    1.24
  -1   4   3   10.36    1.40
   1  -4  -3   11.48    1.13
   1  -4  -3    9.14    1.61
   1  -4  -2  375.83    6.09
  -1   4   2  374.49    7.56
  -1   4   2  365.30    6.94
   1  -4  -2  365.54    7.76
   1  -4  -2  373.14    5.19
  -1   4   1   11.24    1.33
   1  -4  -1   13.70    1.37
   1  -4  -1   14.17    1.33
  -1   4   0  194.44    5.31
   1  -4   0  194.40    5.16
   1  -4   1   14.59    1.52
  -1   4  -1   13.24    1.46
   1  -4   2   14.14    1.64
  -1   4  -2   16.63    1.69
   1  -4   3   59.75    3.48
  -1   4  -3   64.05    3.53
  -1   4  -4  138.17    5.58
   1  -4   4  145.30    5.74
  -1   4  -4  129.18    5.37
   1  -4   5   18.69    1.34
   1  -4   5   19.30    1.35
  -1   4  -5   21.22    2.44
   1  -4   5   17.29    2.15
  -1   4  -5   15.69    2.02
  -1   4  -6   20.20    2.42
  -1   4  -6   22.20    2.55
   1  -4   6   20.81    1.42
   1  -4   6   24.77    1.60
   1  -4   6   21.33    1.45
   1  -4   6   23.09    2.58
   1  -4   7    3.18    0.69
   1  -4   7    3.81    0.67
   1  -4   7    3.86    0.71
   1  -4   8    0.79    0.36
   1  -4   8    1.17    0.65
   1  -4   8    1.02    0.50
   1  -4   9   61.12    2.40
   1  -4   9   56.65    2.24
   1  -4  10    6.24    0.74
   1  -4  10    6.88    0.71
   1  -4  11    1.51    0.28
   1  -4  11    1.99    0.35
  -1   3  13    0.34    0.17
  -1   3  13    0.59    0.23
  -1   3  12    0.66    0.37
  -1   3  12    0.42    0.33
  -1   3  11   11.94    1.10
  -1   3  11   13.89    1.09
  -1   3  11   13.50    1.25
  -1   3  10   36.05    2.07
  -1   3  10   38.13    2.02
  -1   3  10   36.43    1.87
  -1   3   9  164.97    4.16
  -1   3   9  164.82    4.09
  -1   3   9  168.76    4.41
  -1   3   8   65.71    2.55
   1  -3  -8   61.39    4.24
  -1   3   8   67.43    2.56
   1  -3  -8   67.54    5.23
   1  -3  -7  111.03    5.26
  -1   3   7  124.86    3.34
   1  -3  -7  121.30    6.74
  -1   3   7  116.06    3.11
   1  -3  -6    1.77    1.15
   1  -3  -6    4.37    0.99
  -1   3   5  198.41    4.60
   1  -3  -5  183.41    7.17
   1  -3  -5  181.19    5.71
  -1   3   4    0.34    0.32
   1  -3  -4   -0.26    1.02
  -1   3   4    1.02    0.65
   1  -3  -4    1.70    0.76
  -1   3   3   50.09    2.13
   1  -3  -3   53.14    1.53
  -1   3   3   54.73    2.72
  -1   3   2   29.88    1.65
   1  -3  -2   25.90    1.38
  -1   3   2   24.89    1.75
   1  -3  -2   28.93    1.42
   1  -3  -2   24.83    2.04
   1  -3  -1  417.29    6.13
   1  -3  -1  420.53    4.83
  -1   3   1  420.12    6.75
   1  -3  -1  420.26    6.86
  -1   3   0   57.75    2.50
   1  -3   0   58.72    2.11
   1  -3   0   57.08    2.47
   1  -3   0   56.08    1.71
  -1   3  -1  170.01    4.41
   1  -3   1  181.24    3.39
   1  -3   1  169.42    4.57
   1  -3   2   23.39    1.86
  -1   3  -2   17.72    1.56
   1  -3   3  417.21    8.06
  -1   3  -3  410.75    7.96
   1  -3   4  205.81    5.99
  -1   3  -4  194.46    5.82
  -1   3  -4  195.31    6.01
  -1   3  -5   46.10    3.23
  -1   3  -5   47.04    3.18
   1  -3   5   49.72    3.18
   1  -3   6   25.98    2.43
  -1   3  -6   26.29    2.68
   1  -3   6   26.31    1.47
  -1   3  -6   27.39    2.65
   1  -3   6   28.23    1.62
   1  -3   6   28.11    1.61
  -1   3  -7    4.73    0.65
  -1   3  -7    6.22    1.42
  -1   3  -7    3.86    1.11
   1  -3   7    4.29    0.60
   1  -3   7    5.33    0.82
   1  -3   7    4.88    0.78
   1  -3   7    4.78    1.25
   1  -3   8   51.70    2.37
   1  -3   8   54.89    2.44
   1  -3   9    2.28    0.62
   1  -3   9    1.39    0.53
   1  -3  10    0.25    0.39
   1  -3  10   -0.20    0.44
   1  -3  11    4.87    0.61
   1  -3  11    4.48    0.58
  -1   2  13    1.25    0.31
  -1   2  13    0.73    0.27
  -1   2  12    0.81    0.41
  -1   2  12    1.53    0.47
  -1   2  11    0.52    0.46
  -1   2  11    0.63    0.42
  -1   2  11    0.46    0.32
  -1   2  10    1.11    0.45
  -1   2  10    0.24    0.43
  -1   2  10   -0.43    0.62
  -1   2   9   20.93    1.40
   1  -2  -9   19.01    2.89
  -1   2   9   19.83    1.50
  -1   2   9   18.34    1.48
   1  -2  -9   23.53    2.71
  -1   2   8   17.51    1.25
   1  -2  -8   15.97    2.16
   1  -2  -8   18.12    2.76
  -1   2   8   17.37    1.32
   1  -2  -7  142.81    5.66
   1  -2  -7  143.90    7.07
   1  -2  -6   50.65    3.93
   1  -2  -6   52.66    3.14
   1  -2  -5  211.11    7.26
   1  -2  -5  211.02    5.67
  -1   2   5  224.59    4.35
  -1   2   4    1.36    0.54
   1  -2  -4    1.90    0.61
   1  -2  -4    0.60    0.87
   1  -2  -3  124.92    1.57
   1  -2  -3  121.99    4.49
  -1   2   3  121.92    2.68
   1  -2  -3  130.15    3.63
  -1   2   3  124.03    3.70
   1  -2  -2   12.78    0.77
  -1   2   2   11.03    0.82
  -1   2   2   11.07    1.06
   1  -2  -2   12.27    1.36
   1  -2  -1 1941.60   13.58
   1  -2  -1 1974.61   10.07
   1  -2  -1 1937.64   10.96
  -1   2   1 1982.73   12.33
   1  -2   0  706.65    7.27
   1  -2   0  700.71    5.56
   1  -2   1  266.85    3.88
   1  -2   1  256.93    4.83
  -1   2  -1  252.62    4.65
   1  -2   2  291.10    5.58
   1  -2   2  286.86    4.83
   1  -2   3   94.13    3.39
  -1   2  -3   89.64    3.24
   1  -2   4    5.43    0.99
  -1   2  -4    4.90    0.96
  -1   2  -5  247.97    6.60
   1  -2   5  253.26    6.32
   1  -2   6    5.73    1.08
  -1   2  -6    4.18    0.96
  -1   2  -7    0.58    0.27
  -1   2  -7    1.04    0.77
   1  -2   7    1.32    0.54
   1  -2   7    1.46    0.47
   1  -2   8    7.08    0.95
  -1   2  -8    7.49    0.82
  -1   2  -8    9.87    1.81
   1  -2   8    7.00    0.95
   1  -2   9    2.68    0.64
   1  -2   9    1.68    0.54
   1  -2  10    2.19    0.69
   1  -2  10    1.94    0.57
   1  -2  11    9.27    0.90
   1  -2  11    8.58    0.91
   1  -2  12    5.12    0.56
  -1   1  13    2.04    0.34
  -1   1  13    1.65    0.35
  -1   1  12    5.75    0.73
  -1   1  12    7.82    0.84
  -1   1  11   59.73    2.50
  -1   1  11   65.69    2.60
  -1   1  10  226.93    5.09
  -1   1  10  230.55    4.66
  -1   1  10  234.11    5.04
  -1   1   9  134.15    3.78
  -1   1   9  137.26    3.89
  -1   1   9  127.90    3.56
   1  -1  -9  141.90    6.47
   1  -1  -8   20.75    2.91
  -1   1   8   25.78    1.61
   1  -1  -8   23.53    2.48
  -1   1   8   27.44    1.71
   1  -1  -7   40.49    3.67
   1  -1  -7   39.28    2.89
   1  -1  -6   16.40    2.26
   1  -1  -6   16.84    1.74
   1  -1  -5  105.65    4.75
   1  -1  -5  107.80    3.78
  -1   1   5  117.23    2.90
  -1   1   4  102.29    2.36
  -1   1   4   97.68    1.96
   1  -1  -4   96.96    4.06
   1  -1  -4  100.99    3.23
  -1   1   3    9.02    0.99
   1  -1  -3    6.30    1.09
  -1   1   3    8.16    0.57
   1  -1  -3    7.38    0.82
   1  -1  -2 1900.61   10.78
  -1   1   2 1917.83    7.01
   1  -1  -2 1950.74   13.27
  -1   1   2 1975.23   11.52
  -1   1   1    1.94    0.40
   1  -1  -1    2.11    0.50
  -1   1   0 1404.79    8.14
   1  -1   0 1414.36    7.19
  -1   1  -1  193.92    3.32
   1  -1   1  204.09    3.11
   1  -1   2  867.70    7.77
   1  -1   2  858.91    8.02
   1  -1   2  857.26    7.95
   1  -1   3   99.88    3.06
  -1   1  -3   95.68    2.93
   1  -1   3  102.29    3.04
  -1   1  -4  370.08    3.68
   1  -1   4  377.86    6.65
   1  -1   4  378.20    6.28
  -1   1  -4  366.13    6.55
   1  -1   5   14.59    1.32
  -1   1  -5   12.36    1.46
   1  -1   6   16.49    1.52
  -1   1  -6   19.63    1.97
   1  -1   7   17.76    1.27
  -1   1  -7   15.67    1.95
   1  -1   7   16.28    1.23
   1  -1   8   60.42    2.44
  -1   1  -8   58.89    4.02
   1  -1   8   59.90    2.51
  -1   1  -8   52.71    2.06
  -1   1  -9   57.37    2.18
   1  -1   9   56.49    2.52
   1  -1   9   55.39    2.47
   1  -1  10    0.89    0.59
   1  -1  10   -0.24    0.49
   1  -1  11   -0.12    0.45
   1  -1  12    0.77    0.36
  -1   0  13    0.21    0.17
  -1   0  12    5.61    0.66
  -1   0  12    7.56    0.79
  -1   0  11    9.50    1.04
  -1   0  11    9.27    1.03
  -1   0  10    2.64    0.68
  -1   0  10    3.60    0.73
  -1   0   9   59.26    2.38
   1   0  -9   59.52    4.18
  -1   0   9   62.15    2.61
  -1   0   9   63.81    2.46
  -1   0   9   61.54    2.63
  -1   0   8    1.91    0.50
  -1   0   8    1.91    0.47
   1   0  -8    2.39    0.80
  -1   0   8    0.91    0.42
  -1   0   8    1.94    0.57
   1   0  -7   80.68    4.07
   1   0  -7   76.54    4.78
   1   0  -6   95.42    3.94
   1   0  -6  104.30    4.99
  -1   0   5    2.90    0.51
  -1   0   5    3.51    0.51
   1   0  -5    3.70    0.77
   1   0  -5    2.71    0.93
  -1   0   4  383.06    4.96
   1   0  -4  390.05    6.05
   1   0  -4  400.02    7.43
  -1   0   4  404.15    4.96
   1   0  -3   52.82    2.34
  -1   0   3   52.05    1.64
  -1   0   3   49.45    1.67
   1   0  -3   49.96    1.85
  -1   0   2   21.95    1.02
   1   0  -2   23.94    1.40
   1   0  -2   22.04    1.00
  -1   0   2   22.22    0.96
   1   0  -1 1389.50    5.46
  -1   0   1 1392.16    6.66
   1   0   0   72.53    1.17
  -1   0   0   72.13    1.27
  -1   0  -1 2099.01    7.65
   1   0   1 2047.05    8.95
   1   0   2  473.30    4.33
  -1   0  -2  459.35    4.02
   1   0   2  458.31    5.21
   1   0   3   47.67    1.75
  -1   0  -3   49.87    1.69
   1   0   3   52.10    1.64
   1   0   3   53.84    2.11
  -1   0  -4  144.76    3.86
  -1   0  -4  137.01    3.36
   1   0   4  139.10    3.85
   1   0   4  143.66    3.26
  -1   0  -5    1.09    0.61
   1   0   5    0.83    0.34
  -1   0  -5    1.36    0.47
   1   0   5    1.22    0.63
  -1   0  -6  223.50    6.19
   1   0   6  226.02    6.04
  -1   0  -7   22.58    2.20
   1   0   7   25.74    2.26
   1   0   8  175.59    4.11
   1   0   8  177.16    3.91
  -1   0  -8  170.96    6.65
   1   0   8  174.77    4.12
  -1   0  -8  166.91    3.64
   1   0   9  230.86    4.71
   1   0   9  236.88    5.01
   1   0   9  237.70    5.04
  -1   0  -9  231.76    4.44
  -1   0  -9  234.63    8.34
  -1   0 -10   84.42    2.65
   1   0  10   82.46    2.80
   1   0  10   86.50    3.08
   1   0  10   80.63    3.01
   1   0  11   10.75    1.12
   1   0  12    1.00    0.41
   1   0  13    3.84    0.47
  -1  -1  12    1.00    0.34
  -1  -1  12    1.14    0.37
  -1  -1  11   12.71    1.08
  -1  -1  11   13.10    1.10
  -1  -1  10   17.48    1.41
  -1  -1  10   14.94    1.20
  -1  -1  10   16.85    1.37
  -1  -1   9   16.24    1.39
  -1  -1   9   15.50    1.25
  -1  -1   9   17.38    1.39
  -1  -1   8  111.58    3.40
   1   1  -8  116.94    5.51
  -1  -1   8  116.56    3.36
  -1  -1   8  112.04    3.17
  -1  -1   8  115.06    3.20
  -1  -1   7   11.08    0.96
   1   1  -7   10.98    1.66
  -1  -1   7   10.76    1.00
  -1  -1   7   11.74    1.04
   1   1  -6   87.41    3.87
   1   1  -6   92.52    4.52
  -1  -1   5  180.38    4.51
  -1  -1   5  184.01    4.50
   1   1  -5  183.50    5.55
   1   1  -5  178.58    4.86
  -1  -1   4  256.51    4.98
   1   1  -4  259.17    5.15
   1   1  -4  271.11    5.80
  -1  -1   4  262.21    4.85
   1   1  -3   62.04    2.41
   1   1  -3   61.79    2.14
  -1  -1   3   62.64    2.30
  -1  -1   3   63.64    2.17
  -1  -1   2   90.56    2.47
   1   1  -2   84.11    2.05
   1   1  -2   89.50    2.48
  -1  -1   2   89.71    2.38
  -1  -1   1 1058.21    7.33
   1   1  -1 1057.32    5.35
   1   1   0 3131.60   10.61
   1   1   0 3144.74    8.68
   1   1   1   12.52    0.73
  -1  -1  -1   12.77    0.67
   1   1   1   11.61    0.76
  -1  -1  -1   12.95    0.63
  -1  -1  -2   39.85    1.63
   1   1   2   38.85    1.65
  -1  -1  -2   41.05    1.46
   1   1   2   40.97    1.63
  -1  -1  -3 1122.96    9.73
  -1  -1  -3 1130.45    9.15
   1   1   3 1132.46    9.50
   1   1   4   30.83    1.79
  -1  -1  -4   31.14    1.81
  -1  -1  -4   29.64    1.83
   1   1   4   31.24    1.86
   1   1   4   32.46    1.24
  -1  -1  -5   43.32    2.38
   1   1   5   38.05    2.24
  -1  -1  -5   43.33    2.49
   1   1   6    0.74    0.65
  -1  -1  -6    0.85    0.63
  -1  -1  -6    0.81    0.46
   1   1   7  164.44    5.61
  -1  -1  -7  172.59    5.72
  -1  -1  -7  167.64    5.91
   1   1   8   44.57    3.14
   1   1   8   46.69    2.10
  -1  -1  -8   49.86    3.59
  -1  -1  -8   42.53    1.87
   1   1   8   40.26    1.90
   1   1   8   43.65    2.05
   1   1   9  229.72    4.76
   1   1   9  233.21    4.93
  -1  -1  -9  231.00    4.55
   1   1  10    1.53    0.55
  -1  -1 -10    0.58    0.37
   1   1  10    0.54    0.33
   1   1  11    4.57    0.69
   1   1  11    5.01    0.81
   1   1  12   -0.33    0.38
   1   1  13    0.39    0.23
  -1  -2  12    1.07    0.28
  -1  -2  11    0.07    0.27
  -1  -2  11    0.03    0.29
  -1  -2  10    0.25    0.33
  -1  -2  10    0.68    0.45
  -1  -2  10    0.65    0.45
  -1  -2   9   26.12    1.63
  -1  -2   9   25.25    1.69
  -1  -2   9   26.42    1.67
  -1  -2   8   99.78    2.99
  -1  -2   8   97.11    3.09
  -1  -2   8   96.42    3.02
  -1  -2   8   98.64    3.24
   1   2  -8   94.95    5.05
  -1  -2   7  101.51    2.99
   1   2  -7  101.89    4.86
  -1  -2   7  105.36    2.98
  -1  -2   7  103.98    3.14
  -1  -2   7   99.63    2.89
  -1  -2   6    6.53    1.11
   1   2  -6    9.74    1.34
   1   2  -5  120.60    4.36
  -1  -2   5  115.18    4.11
   1   2  -5  114.93    4.19
  -1  -2   5  118.14    4.32
   1   2  -4   79.34    3.10
  -1  -2   4   74.96    3.12
   1   2  -4   83.44    3.25
  -1  -2   4   76.76    3.25
   1   2  -3  120.81    3.32
  -1  -2   3  123.25    3.80
  -1  -2   3  127.90    3.66
   1   2  -3  130.36    3.56
  -1  -2   2   13.41    1.18
   1   2  -2   11.95    0.97
  -1  -2   1  488.83    6.11
   1   2  -1  484.26    3.77
   1   2  -1  489.25    4.23
   1   2   0  176.52    1.54
   1   2   0  169.31    2.04
  -1  -2   0  166.16    3.29
   1   2   0  167.44    3.53
   1   2   1    9.85    0.62
  -1  -2  -1   10.40    0.81
  -1  -2  -1   10.36    0.83
   1   2   1   10.58    0.94
  -1  -2  -2  310.11    3.71
  -1  -2  -2  315.44    4.61
   1   2   2  321.29    5.02
   1   2   3  196.80    4.84
  -1  -2  -3  192.83    4.13
  -1  -2  -3  189.76    4.65
   1   2   3  203.50    4.36
  -1  -2  -3  190.48    2.26
   1   2   4  381.32    6.55
  -1  -2  -4  390.70    6.57
  -1  -2  -4  387.29    7.36
   1   2   4  376.33    7.11
  -1  -2  -5  652.38    9.59
   1   2   5  627.07    9.35
   1   2   5  652.48   10.00
  -1  -2  -5  658.15   10.44
   1   2   6   -0.32    0.62
  -1  -2  -6    0.56    0.66
  -1  -2  -6   -0.09    0.52
   1   2   7   -0.10    0.55
  -1  -2  -7   -0.59    0.75
  -1  -2  -7   -0.70    0.54
  -1  -2  -8    0.90    0.47
  -1  -2  -8    3.37    1.13
  -1  -2  -8    2.20    0.52
   1   2   8    2.11    0.58
   1   2   8    0.95    0.58
   1   2   8    1.87    0.50
   1   2   9   47.35    2.18
   1   2   9   51.96    2.21
  -1  -2  -9   55.10    4.10
   1   2   9   52.21    2.35
  -1  -2  -9   50.16    2.17
   1   2  10   15.92    1.31
  -1  -2 -10   14.12    1.19
   1   2  10   15.52    1.30
  -1  -2 -11   13.42    1.06
   1   2  11   15.92    1.27
   1   2  12    1.61    0.43
   1   2  12    0.30    0.32
   1   2  13    0.65    0.26
  -1  -3  11    2.05    0.36
  -1  -3  10    2.29    0.53
  -1  -3  10    3.36    0.54
  -1  -3  10    2.70    0.52
  -1  -3   9  107.61    3.27
  -1  -3   9  105.93    3.10
  -1  -3   9  107.40    3.16
  -1  -3   8   35.64    1.89
  -1  -3   8   35.27    1.84
  -1  -3   8   34.85    1.94
  -1  -3   7   31.99    1.71
  -1  -3   7   32.63    1.76
  -1  -3   7   32.63    1.86
  -1  -3   7   31.28    1.66
  -1  -3   7   32.14    1.67
   1   3  -7   33.88    2.93
  -1  -3   6   34.04    1.65
  -1  -3   6   33.35    1.64
  -1  -3   6   36.07    1.74
   1   3  -6   31.80    2.70
  -1  -3   6   29.37    2.56
  -1  -3   6   37.30    1.86
  -1  -3   6   34.00    1.67
  -1  -3   5   24.16    2.19
   1   3  -5   27.76    2.26
   1   3  -4   40.33    2.47
  -1  -3   4   38.43    2.57
  -1  -3   4   39.93    2.73
  -1  -3   3   62.47    3.01
   1   3  -3   56.71    2.45
   1   3  -3   55.40    2.62
  -1  -3   3   59.12    3.14
   1   3  -3   60.62    2.59
   1   3  -2  111.78    2.98
   1   3  -2  117.54    3.08
  -1  -3   2  115.20    3.84
  -1  -3   2  117.58    4.10
  -1  -3   1   34.55    1.97
   1   3  -1   33.32    1.42
   1   3  -1   33.25    1.80
  -1  -3   1   33.31    2.04
  -1  -3   0  210.25    4.71
   1   3   0  206.77    3.24
  -1  -3   0  205.32    4.46
   1   3   0  212.03    4.79
  -1  -3  -1   50.80    2.07
  -1  -3  -1   49.39    2.17
   1   3   1   50.91    2.33
   1   3   1   49.82    2.53
   1   3   1   49.24    1.67
   1   3   2  119.33    4.17
  -1  -3  -2  124.17    3.04
   1   3   2  122.79    3.01
  -1  -3  -2  119.98    3.07
   1   3   2  126.02    3.67
   1   3   3   56.53    3.16
  -1  -3  -3   63.52    2.67
  -1  -3  -3   67.70    3.14
   1   3   3   62.00    2.75
  -1  -3  -4  303.44    7.19
  -1  -3  -4  301.92    6.40
   1   3   4  293.83    6.33
  -1  -3  -5  397.31    8.92
   1   3   5  371.42    8.57
  -1  -3  -5  384.59    7.95
   1   3   5  366.97    7.57
  -1  -3  -6   -0.08    0.82
  -1  -3  -6    0.06    0.57
   1   3   6   -0.90    0.71
   1   3   7   12.21    1.73
   1   3   7   12.17    1.10
  -1  -3  -7   12.76    1.06
  -1  -3  -7   11.10    1.68
  -1  -3  -7    9.37    1.79
  -1  -3  -8    2.21    1.08
  -1  -3  -8    1.71    0.47
   1   3   8    1.19    0.41
   1   3   8    0.97    0.50
  -1  -3  -8    1.36    0.94
   1   3   8   -0.17    0.77
   1   3   9   40.37    1.94
  -1  -3  -9   46.65    2.17
   1   3   9   45.96    2.22
   1   3  10   32.89    1.83
  -1  -3 -10   33.54    1.83
   1   3  10   35.90    2.01
   1   3  10   34.47    1.83
   1   3  11    5.74    0.83
   1   3  11    6.32    0.78
   1   3  11    5.76    0.78
  -1  -3 -11    5.22    0.71
   1   3  12    3.89    0.58
   1   3  12    4.55    0.57
  -1  -4  10    4.99    0.54
  -1  -4  10    2.77    0.44
  -1  -4   9    0.76    0.41
  -1  -4   9    1.36    0.42
  -1  -4   8   72.29    2.68
  -1  -4   8   74.37    2.48
  -1  -4   8   71.35    2.59
  -1  -4   8   69.47    2.47
  -1  -4   7   14.68    1.24
  -1  -4   7   16.13    1.32
  -1  -4   7   18.42    1.28
  -1  -4   7   16.70    1.30
  -1  -4   7   15.46    1.19
  -1  -4   6   17.75    1.32
  -1  -4   6   15.48    1.18
  -1  -4   6   17.15    1.36
  -1  -4   6   15.94    1.25
   1   4  -6   19.38    2.21
  -1  -4   6   17.09    2.24
  -1  -4   6   17.52    1.32
  -1  -4   5    0.11    0.34
   1   4  -5    0.35    0.43
  -1  -4   5    1.16    0.74
  -1  -4   5    0.32    0.33
  -1  -4   5    1.00    0.41
  -1  -4   5    0.19    0.32
  -1  -4   5    0.71    0.37
  -1  -4   4   32.01    2.69
   1   4  -4   32.76    2.48
  -1  -4   3   58.26    3.55
  -1  -4   3   57.25    3.31
   1   4  -3   57.63    3.04
  -1  -4   2   26.37    2.30
   1   4  -2   24.80    1.60
  -1  -4   2   27.63    2.20
  -1  -4   1    9.79    1.41
  -1  -4   1    8.96    1.23
   1   4  -1    9.06    0.92
   1   4  -1   10.67    1.17
   1   4   0  630.49    9.52
  -1  -4   0  619.52    9.12
   1   4   0  623.39    6.98
  -1  -4   0  647.68    9.75
   1   4   1  718.07   10.83
  -1  -4  -1  702.61    9.67
   1   4   1  704.56    7.75
   1   4   1  723.17   10.23
  -1  -4  -1  731.00    9.28
   1   4   2  102.89    3.16
   1   4   2   98.68    4.27
  -1  -4  -2  102.23    3.43
   1   4   2  103.16    3.87
  -1  -4  -2  102.35    3.31
   1   4   3   50.43    2.80
   1   4   3   45.08    3.10
   1   4   4   40.00    2.66
   1   4   4   37.75    2.93
  -1  -4  -5   -1.08    0.68
  -1  -4  -5   -0.07    0.83
   1   4   5   -0.48    0.57
  -1  -4  -6   15.86    1.95
   1   4   6   11.04    1.60
  -1  -4  -6   15.11    2.12
   1   4   7    8.61    1.00
  -1  -4  -7    6.37    0.76
   1   4   7    9.70    1.64
  -1  -4  -7    8.35    0.94
  -1  -4  -7    6.59    1.39
   1   4   8   14.17    1.35
  -1  -4  -8   15.83    2.30
  -1  -4  -8   12.94    1.19
   1   4   9   59.55    2.64
  -1  -4  -9   60.45    2.50
   1   4  10    8.48    1.03
  -1  -4 -10    9.36    1.00
   1   4  11    4.14    0.65
  -1  -4 -11    3.55    0.60
   1   4  11    3.41    0.66
  -1  -4 -12    3.03    0.44
   1   4  12    2.60    0.49
   1   4  12    3.02    0.47
  -1  -5   9    0.61    0.32
  -1  -5   9   -0.19    0.26
  -1  -5   8    7.65    0.84
  -1  -5   8    6.84    0.77
  -1  -5   8    6.94    0.80
  -1  -5   7    2.72    0.63
  -1  -5   7    3.36    0.66
  -1  -5   7    4.04    0.73
  -1  -5   6    2.67    0.64
  -1  -5   6    2.51    0.63
  -1  -5   6    2.67    0.54
  -1  -5   6    1.97    0.58
  -1  -5   5   15.30    1.27
  -1  -5   5   14.26    1.19
  -1  -5   5   15.66    1.32
  -1  -5   5   14.16    1.18
  -1  -5   5   15.30    1.26
  -1  -5   5   11.99    1.99
  -1  -5   4  229.02    4.69
  -1  -5   4  231.65    4.58
  -1  -5   4  232.30    4.50
  -1  -5   4  253.53    8.33
  -1  -5   4  236.00    4.73
  -1  -5   4  229.53    4.64
   1   5  -4  233.08    7.25
  -1  -5   4  234.96    4.68
  -1  -5   3  147.56    3.62
  -1  -5   3  154.19    3.64
  -1  -5   3  154.55    3.53
  -1  -5   3  153.24    3.68
  -1  -5   3  149.21    3.50
  -1  -5   3  152.60    6.18
  -1  -5   3  150.84    3.59
  -1  -5   2   44.14    3.16
  -1  -5   1    1.80    0.85
   1   5   0   41.32    2.77
   1   5   0   45.54    3.09
  -1  -5   0   45.88    2.86
   1   5   1   27.49    2.44
   1   5   1   26.09    2.37
  -1  -5  -1   25.46    2.05
   1   5   2   38.65    2.79
   1   5   2   35.63    2.87
  -1  -5  -2   40.40    2.43
   1   5   3  220.20    7.41
   1   5   3  241.30    6.94
   1   5   4   26.13    2.79
   1   5   4   23.77    2.32
  -1  -5  -5  106.16    3.07
   1   5   5  108.98    5.01
   1   5   5  109.82    3.19
  -1  -5  -5  112.53    3.07
  -1  -5  -6    0.61    0.39
  -1  -5  -6    0.25    0.32
   1   5   6   -0.32    0.47
  -1  -5  -7    6.46    0.84
   1   5   7    5.04    1.33
   1   5   7    5.52    0.87
  -1  -5  -7    5.89    0.84
  -1  -5  -8    3.84    0.64
   1   5   8    3.25    0.82
  -1  -5  -8    4.26    0.75
   1   5   9    1.26    0.58
  -1  -5  -9    1.61    0.56
   1   5  10   12.44    1.25
  -1  -5 -10   15.07    1.26
   1   5  11    2.00    0.54
   1   5  11    1.29    0.48
  -1  -5 -11    1.79    0.47
   1   5  12   -0.04    0.26
   1   5  12    0.26    0.27
  -1  -5 -12   -0.58    0.25
  -1  -6   8    3.49    0.53
  -1  -6   8    2.70    0.44
  -1  -6   7    2.35    0.53
  -1  -6   7    2.59    0.58
  -1  -6   6   58.08    2.41
  -1  -6   6   53.95    2.27
  -1  -6   6   56.06    2.12
  -1  -6   5   -0.03    0.47
  -1  -6   5    0.50    0.36
  -1  -6   5    0.07    0.40
  -1  -6   5   -0.53    0.50
  -1  -6   4  217.53    4.52
  -1  -6   4  212.02    4.62
  -1  -6   4  221.33    4.82
  -1  -6   4  216.49    4.78
  -1  -6   3   11.37    1.09
  -1  -6   3   11.17    1.19
  -1  -6   3   11.44    1.89
  -1  -6   3   11.77    1.15
  -1  -6   3   11.25    1.11
  -1  -6   2    2.02    0.49
  -1  -6   2    2.51    0.64
  -1  -6   2    2.00    0.54
  -1  -6   2    1.33    0.45
  -1  -6   2    3.50    0.97
  -1  -6   1   27.83    1.56
   1   6  -1   33.39    3.15
  -1  -6   1   28.77    1.68
  -1  -6   1   31.42    1.69
  -1  -6   1   33.69    1.84
  -1  -6   1   30.74    2.82
  -1  -6   0    7.00    0.84
  -1  -6   0    7.20    0.80
  -1  -6   0    6.86    0.82
  -1  -6   0    6.49    1.25
   1   6   0    5.98    1.32
  -1  -6   0    8.06    0.91
  -1  -6  -1   91.26    2.88
  -1  -6  -1   88.73    4.37
  -1  -6  -1   87.09    2.78
   1   6   1   83.80    4.61
  -1  -6  -1   89.00    2.68
  -1  -6  -2  104.43    4.49
   1   6   2  101.98    5.09
  -1  -6  -2  101.33    2.97
  -1  -6  -2  103.77    2.98
  -1  -6  -2   99.21    2.94
  -1  -6  -3    0.13    0.39
   1   6   3   -0.21    0.86
  -1  -6  -3    0.29    0.39
  -1  -6  -3    0.54    0.38
   1   6   4   32.78    1.73
  -1  -6  -4   36.28    1.89
  -1  -6  -4   34.48    1.86
   1   6   4   36.85    3.18
   1   6   5   11.84    1.14
   1   6   5   11.13    1.79
  -1  -6  -5   13.04    1.18
  -1  -6  -5   13.94    1.24
   1   6   6    0.09    0.85
  -1  -6  -6    0.23    0.53
   1   6   6   -0.20    0.41
  -1  -6  -6   -0.48    0.46
   1   6   7   15.76    1.41
  -1  -6  -7   16.70    1.35
  -1  -6  -7   16.10    1.41
  -1  -6  -8   11.10    1.07
   1   6   8    8.55    1.12
  -1  -6  -8    8.25    1.06
  -1  -6  -9    1.90    0.48
  -1  -6  -9    1.71    0.58
   1   6  10   -0.55    0.54
  -1  -6 -10    0.61    0.40
   1   6  11    0.69    0.38
   1   6  11    1.84    0.49
  -1  -6 -11    1.34    0.40
   1   6  12    1.52    0.32
   1   6  12    1.07    0.29
  -1  -7   8   19.54    0.86
  -1  -7   7    0.42    0.31
  -1  -7   7   -0.01    0.21
  -1  -7   6    7.78    0.86
  -1  -7   6    8.90    0.85
  -1  -7   5    7.63    0.93
  -1  -7   5    7.10    0.85
  -1  -7   4    4.43    0.80
  -1  -7   4    5.82    0.83
  -1  -7   4    5.48    0.80
  -1  -7   4    5.00    0.80
  -1  -7   3    0.94    0.52
  -1  -7   3    1.05    0.59
  -1  -7   3    0.26    0.52
  -1  -7   3   -0.05    0.40
  -1  -7   2   14.09    1.25
  -1  -7   2   13.30    1.22
  -1  -7   2   14.82    1.39
  -1  -7   2   14.01    1.24
  -1  -7   1   67.97    2.66
  -1  -7   1   71.16    2.59
  -1  -7   1   71.55    2.89
  -1  -7   0   34.30    1.98
  -1  -7   0   31.29    3.02
   1   7   0   32.76    3.36
  -1  -7   0   33.35    1.70
  -1  -7   0   33.26    1.70
  -1  -7   0   34.11    1.89
  -1  -7  -1    7.98    0.90
   1   7   1    9.33    1.86
  -1  -7  -1    8.43    1.03
  -1  -7  -1    8.23    1.01
  -1  -7  -2  134.84    3.75
  -1  -7  -2  136.32    3.68
   1   7   2  146.51    6.73
  -1  -7  -2  136.32    3.79
  -1  -7  -3   27.09    1.70
  -1  -7  -3   26.68    1.62
  -1  -7  -4  113.96    3.49
   1   7   4  111.56    5.98
  -1  -7  -4  102.56    3.37
   1   7   5  160.56    4.01
  -1  -7  -5  165.45    4.33
  -1  -7  -5  167.79    4.28
   1   7   6   20.39    1.50
  -1  -7  -6   20.18    1.57
  -1  -7  -6   22.18    1.60
   1   7   7   98.14    3.31
  -1  -7  -7   96.56    3.16
  -1  -7  -7  103.69    3.43
   1   7   8   -0.35    0.57
  -1  -7  -8    0.31    0.39
  -1  -7  -8   -0.36    0.51
   1   7   9    0.74    0.54
  -1  -7  -9    2.35    0.47
  -1  -7  -9    1.86    0.59
   1   7  10    0.54    0.37
  -1  -7 -10    0.66    0.35
   1   7  11    0.21    0.28
  -1  -7 -11    0.34    0.21
   1   7  11   -0.06    0.22
  -1  -8   6    5.95    0.53
  -1  -8   6    5.88    0.59
  -1  -8   5    1.33    0.37
  -1  -8   5   -0.01    0.32
  -1  -8   4    5.21    0.69
  -1  -8   4    5.47    0.75
  -1  -8   3    0.59    0.38
  -1  -8   3    1.35    0.49
  -1  -8   3   -0.06    0.47
  -1  -8   2   13.15    1.19
  -1  -8   2   13.36    1.14
  -1  -8   2   14.50    1.35
  -1  -8   1    0.43    0.55
  -1  -8   1    1.17    0.41
  -1  -8   1    0.45    0.49
  -1  -8   0  101.35    2.90
  -1  -8   0   95.62    3.20
  -1  -8   0   99.60    3.40
  -1  -8  -1    4.31    0.82
  -1  -8  -1    2.06    0.70
  -1  -8  -1    3.50    0.65
  -1  -8  -2    0.15    0.48
  -1  -8  -2    0.65    0.47
  -1  -8  -2    0.78    0.40
  -1  -8  -3   19.94    1.48
  -1  -8  -3   21.69    1.61
  -1  -8  -3   21.71    1.49
  -1  -8  -4   11.34    1.15
  -1  -8  -4   10.72    1.16
  -1  -8  -5   27.99    1.76
  -1  -8  -5   30.18    1.84
   1   8   6   14.73    1.19
  -1  -8  -6   19.28    1.46
  -1  -8  -7   -0.07    0.44
  -1  -8  -7   -0.15    0.44
   1   8   7    0.28    0.34
   1   8   8    0.61    0.39
  -1  -8  -8    1.15    0.43
   1   8   9   -0.18    0.33
  -1  -8  -9    0.02    0.20
   1   8  10    4.88    0.56
  -1  -9   4    3.18    0.43
  -1  -9   4    2.90    0.42
  -1  -9   3    0.02    0.25
  -1  -9   3    0.31    0.27
  -1  -9   2    0.02    0.27
  -1  -9   2    0.22    0.29
  -1  -9   1    7.98    0.94
  -1  -9   1    8.70    0.89
  -1  -9   1    7.22    0.70
  -1  -9   0    4.45    0.71
  -1  -9   0    5.28    0.74
  -1  -9  -1   17.49    1.31
  -1  -9  -1   16.42    1.11
  -1  -9  -1   16.07    1.27
  -1  -9  -2   22.59    1.43
  -1  -9  -2   26.74    1.64
  -1  -9  -2   24.61    1.44
  -1  -9  -3    1.90    0.47
  -1  -9  -3    1.67    0.46
  -1  -9  -3    1.88    0.59
  -1  -9  -4   17.43    1.28
  -1  -9  -4   18.70    1.39
  -1  -9  -5    9.98    0.97
  -1  -9  -5    8.41    0.91
  -1  -9  -6   -0.03    0.37
  -1  -9  -6    0.08    0.38
  -1  -9  -7    0.67    0.37
  -1  -9  -7    0.76    0.40
  -1  -9  -8    1.86    0.37
  -1  -9  -8    2.20    0.45
  -1  -9  -9    0.82    0.25
  -1 -10   1    3.99    0.47
  -1 -10   0   10.39    0.77
  -1 -10  -1    0.06    0.24
  -1 -10  -2    8.05    0.74
  -1 -10  -3   -0.31    0.25
  -1 -10  -3   -0.50    0.26
  -1 -10  -4    0.93    0.31
  -1 -10  -4    0.59    0.26
  -1 -10  -5    1.34    0.32
  -1 -10  -5    1.93    0.39
  -1 -10  -6    6.30    0.57
  -1 -10  -6    5.68    0.54
   2 -10  -5    0.23    0.17
   2 -10  -4    8.88    0.65
  -2  10   4    7.52    0.58
   2 -10  -3    0.03    0.17
  -2  10   3   -0.22    0.20
   2 -10  -2    0.43    0.22
   2 -10  -2    0.82    0.25
  -2  10   2    0.42    0.27
   2 -10  -1    2.40    0.34
  -2  10   1    2.58    0.40
  -2  10   0    0.41    0.20
   2  -9  -7   -0.05    0.20
   2  -9  -6    0.29    0.26
   2  -9  -6    0.08    0.20
   2  -9  -5    9.96    0.80
   2  -9  -5    9.65    0.91
   2  -9  -4   29.89    1.44
   2  -9  -4   33.49    1.67
   2  -9  -3    5.77    0.77
   2  -9  -3    6.23    0.74
   2  -9  -2    6.74    0.75
   2  -9  -2    6.65    0.77
   2  -9  -1    0.32    0.36
   2  -9  -1    0.37    0.34
   2  -9   0    5.52    0.63
   2  -9   0    5.80    0.70
   2  -9   1    0.35    0.24
   2  -9   1    0.69    0.38
  -2   9  -1    1.00    0.40
   2  -9   2    9.79    0.80
  -2   9  -2    8.21    0.68
   2  -9   2    9.58    0.74
   2  -9   3    3.64    0.47
   2  -9   3    2.49    0.38
   2  -9   4    0.12    0.15
   2  -9   4   -0.17    0.16
  -2   8   9   -0.04    0.19
  -2   8   9    0.80    0.31
  -2   8   8    0.34    0.33
  -2   8   8    0.32    0.29
   2  -8  -8    0.11    0.20
   2  -8  -7   -0.28    0.30
  -2   8   7    0.11    0.31
   2  -8  -7    0.59    0.36
   2  -8  -6    1.65    0.54
  -2   8   6    1.13    0.43
   2  -8  -6    1.18    0.42
   2  -8  -5   -0.02    0.49
   2  -8  -5   -0.15    0.34
   2  -8  -4  102.98    3.38
   2  -8  -4  103.30    3.10
   2  -8  -3    0.27    0.46
   2  -8  -3   -0.34    0.44
   2  -8  -2    0.26    0.40
   2  -8  -2    1.37    0.52
   2  -8  -1    7.09    0.92
   2  -8  -1    6.35    0.92
   2  -8   0   -0.44    0.38
   2  -8   0    0.25    0.32
   2  -8   0   -0.06    0.41
   2  -8   1    0.69    0.40
   2  -8   1    1.48    0.56
   2  -8   1    1.17    0.41
   2  -8   2    1.02    0.50
  -2   8  -2    1.56    0.51
   2  -8   2    1.80    0.52
  -2   8  -3   15.43    1.05
   2  -8   3   17.72    1.24
   2  -8   3   15.38    1.18
   2  -8   4   32.44    1.58
   2  -8   4   33.62    1.59
   2  -8   5    3.16    0.50
   2  -8   5    3.03    0.51
   2  -8   6   20.92    0.98
   2  -8   6   19.33    0.93
  -2   7  10    0.00    0.22
  -2   7  10   -0.04    0.29
  -2   7  10    0.01    0.23
  -2   7   9   33.49    1.60
  -2   7   9   33.38    1.69
  -2   7   8   33.85    1.82
   2  -7  -8   34.96    1.63
   2  -7  -8   32.77    1.55
   2  -7  -7   40.26    1.86
   2  -7  -7   42.35    2.01
  -2   7   7   45.57    2.18
  -2   7   6    5.61    0.83
   2  -7  -6    5.18    0.85
   2  -7  -6    5.29    0.77
  -2   7   5    5.15    0.83
   2  -7  -5    5.45    0.82
   2  -7  -5    5.14    0.84
   2  -7  -4    2.69    0.67
  -2   7   4    3.52    0.64
   2  -7  -4    2.98    0.66
   2  -7  -3   -0.48    0.40
   2  -7  -3   -0.37    0.45
   2  -7  -2    7.52    0.99
   2  -7  -2    7.78    0.96
   2  -7  -1    1.48    0.50
   2  -7  -1    1.18    0.45
   2  -7  -1    1.32    0.53
   2  -7   0    1.17    0.49
   2  -7   0    0.62    0.37
   2  -7   1   89.57    2.96
   2  -7   1   86.77    3.02
   2  -7   1   88.09    3.04
   2  -7   2   29.89    1.82
   2  -7   2   31.48    1.87
   2  -7   3    0.42    0.42
  -2   7  -3    0.85    0.47
   2  -7   3    0.84    0.49
   2  -7   4    7.12    0.94
   2  -7   4    6.57    0.91
   2  -7   5    2.44    0.61
   2  -7   5    3.61    0.68
   2  -7   6    8.95    0.86
   2  -7   6    8.73    0.87
   2  -7   7    0.42    0.29
   2  -7   7    0.07    0.24
  -2   6  11    7.90    0.71
  -2   6  11    8.07    0.73
  -2   6  11    8.33    0.73
  -2   6  10    5.05    0.72
  -2   6  10    6.00    0.76
  -2   6  10    5.92    0.66
  -2   6   9   41.79    2.07
  -2   6   8    1.62    0.64
  -2   6   7    9.72    1.11
   2  -6  -7    8.78    0.97
   2  -6  -6   61.35    2.60
  -2   6   6   61.57    2.61
  -2   6   5    2.75    1.21
  -2   6   5    2.45    0.67
   2  -6  -5    2.19    1.09
   2  -6  -5    2.60    0.69
   2  -6  -4    0.63    0.51
  -2   6   4    0.15    0.34
   2  -6  -4    0.30    0.82
  -2   6   4   -0.52    0.99
  -2   6   3   67.72    2.42
   2  -6  -3   69.34    2.53
   2  -6  -3   69.36    2.74
  -2   6   3   72.05    4.58
  -2   6   2   39.50    3.39
   2  -6  -2   39.21    2.02
   2  -6  -2   38.22    1.89
  -2   6   2   42.47    3.24
  -2   6   1    1.16    0.85
   2  -6  -1    0.97    0.44
   2  -6  -1    1.04    0.50
   2  -6  -1    0.86    0.45
   2  -6  -1    1.00    0.47
   2  -6   0   41.69    3.24
   2  -6   0   38.08    1.93
   2  -6   0   41.49    2.01
  -2   6   0   33.89    3.20
   2  -6   0   38.65    1.92
   2  -6   1   30.81    1.81
   2  -6   1   32.71    3.01
   2  -6   1   32.70    1.80
   2  -6   1   30.96    1.72
  -2   6  -1   28.68    2.91
  -2   6  -2   67.07    4.53
   2  -6   2   58.61    2.28
   2  -6   2   60.61    2.50
   2  -6   2   62.35    2.61
   2  -6   2   62.23    4.29
  -2   6  -3    0.19    0.90
   2  -6   3    0.09    0.47
   2  -6   3   -0.15    0.45
   2  -6   4    0.00    0.45
   2  -6   4   -0.10    0.50
   2  -6   5    1.15    0.49
   2  -6   5    1.23    0.58
   2  -6   5    0.88    0.57
   2  -6   6    3.79    0.70
   2  -6   6    3.63    0.69
   2  -6   6    2.91    0.59
   2  -6   7    0.14    0.33
   2  -6   7   -0.37    0.38
   2  -6   7   -0.12    0.27
  -2   6  -7   -0.48    0.29
   2  -6   8    0.29    0.20
   2  -6   8    0.73    0.36
   2  -6   8    0.59    0.26
   2  -6   9    0.17    0.19
  -2   5  12    1.28    0.30
  -2   5  12    0.84    0.29
  -2   5  11    0.72    0.40
  -2   5  11    1.16    0.40
  -2   5  11    1.34    0.41
  -2   5  11    1.09    0.34
  -2   5  10    1.03    0.37
  -2   5  10    1.36    0.50
  -2   5  10    1.79    0.46
  -2   5  10    0.98    0.45
  -2   5   9   11.07    1.10
  -2   5   9   12.48    1.13
  -2   5   9   11.59    1.23
   2  -5  -8   21.23    1.47
  -2   5   8   21.97    1.67
  -2   5   8   21.18    1.48
  -2   5   7   68.59    2.58
  -2   5   7   68.17    2.81
   2  -5  -7   69.33    2.65
  -2   5   6   76.30    2.84
  -2   5   6   73.29    2.59
   2  -5  -6   77.46    5.52
   2  -5  -6   71.67    2.65
   2  -5  -6   71.23    2.65
   2  -5  -5  172.49    7.74
  -2   5   5  155.21    3.60
   2  -5  -5  162.24    3.98
  -2   5   5  174.21    7.16
  -2   5   5  167.41    4.03
   2  -5  -5  163.32    3.93
   2  -5  -4   77.29    4.82
   2  -5  -4   71.75    2.59
  -2   5   4   73.62    2.53
  -2   5   4   76.49    4.55
   2  -5  -4   68.28    2.47
  -2   5   3  112.96    5.35
   2  -5  -3  111.84    5.31
  -2   5   3  112.43    4.39
   2  -5  -2   24.67    2.29
  -2   5   2   18.46    1.85
   2  -5  -2   22.07    1.84
  -2   5   2   21.58    2.33
   2  -5  -1   46.02    2.88
  -2   5   1   46.27    3.33
   2  -5   0   12.06    1.61
  -2   5   0   11.02    1.63
  -2   5  -1   31.06    2.82
   2  -5   1   26.55    2.44
   2  -5   2   49.34    3.50
   2  -5   2   47.41    2.13
  -2   5  -2   48.27    3.50
   2  -5   2   52.78    2.11
   2  -5   3   29.63    2.85
   2  -5   3   28.55    1.72
   2  -5   3   28.01    1.63
  -2   5  -3   30.03    2.90
   2  -5   4   13.10    1.20
   2  -5   4   12.49    1.20
  -2   5  -4   10.87    1.92
  -2   5  -4   12.71    1.98
   2  -5   4   12.30    2.07
   2  -5   5   17.02    1.38
  -2   5  -5   16.49    2.36
   2  -5   5   17.62    1.41
   2  -5   6    0.53    0.51
   2  -5   6    0.55    0.47
   2  -5   6   -0.03    0.47
  -2   5  -7    0.75    0.35
   2  -5   7    0.22    0.46
   2  -5   7    0.97    0.44
   2  -5   7    0.81    0.49
   2  -5   8    5.31    0.69
   2  -5   8    5.21    0.65
   2  -5   8    5.71    0.81
   2  -5   9    4.51    0.57
   2  -5   9    4.59    0.63
   2  -5  10    0.75    0.25
  -2   4  12    3.13    0.44
  -2   4  12    3.58    0.54
  -2   4  12    3.86    0.49
  -2   4  11   11.51    1.08
  -2   4  11   10.76    0.91
  -2   4  11    8.51    0.85
  -2   4  11    8.80    0.89
  -2   4  10   10.22    0.97
  -2   4  10    8.51    0.96
  -2   4  10   10.95    1.07
  -2   4  10   12.22    1.21
  -2   4   9   30.17    1.77
  -2   4   9   30.87    1.82
  -2   4   9   30.99    1.87
  -2   4   9   33.73    1.99
  -2   4   8   -0.35    0.50
  -2   4   8    0.06    0.37
   2  -4  -8   -0.02    0.94
   2  -4  -7  184.51    7.03
  -2   4   7  182.73    4.17
  -2   4   7  175.84    4.29
   2  -4  -7  194.37    9.24
   2  -4  -6    5.05    0.76
   2  -4  -6    5.05    1.70
  -2   4   6    4.36    0.72
  -2   4   6    3.52    0.60
   2  -4  -6    5.10    1.16
   2  -4  -5    0.92    0.43
   2  -4  -5    0.63    0.98
  -2   4   5    2.11    1.00
   2  -4  -4  164.43    6.99
   2  -4  -4  161.11    5.10
  -2   4   4  164.00    6.04
  -2   4   3   -0.11    0.37
  -2   4   3    0.90    0.87
   2  -4  -3   -0.24    0.36
   2  -4  -2  215.52    6.57
   2  -4  -2  227.00    5.34
   2  -4  -2  224.90    4.99
  -2   4   2  224.20    6.49
   2  -4  -1  140.50    4.58
   2  -4  -1  139.88    4.50
   2  -4  -1  140.69    3.75
  -2   4   1  144.00    5.10
   2  -4   0   30.34    2.29
  -2   4   0   32.46    2.47
   2  -4   0   31.57    1.79
  -2   4  -1  148.68    5.29
   2  -4   1  140.36    5.09
  -2   4  -2   10.70    1.58
   2  -4   2    9.31    1.48
  -2   4  -3   11.78    1.78
   2  -4   3   11.12    1.63
   2  -4   4  153.40    3.75
   2  -4   4  159.35    3.67
  -2   4  -4  151.34    6.29
   2  -4   4  150.88    6.13
  -2   4  -4  148.08    6.04
   2  -4   5    0.81    0.40
  -2   4  -5    0.99    1.05
   2  -4   5    1.30    0.77
   2  -4   5    1.00    0.42
  -2   4  -5    2.11    0.81
  -2   4  -6    2.68    0.95
   2  -4   6    0.88    0.41
  -2   4  -6   -0.46    0.90
   2  -4   6    1.75    0.60
   2  -4   6    1.10    0.70
   2  -4   7    0.27    0.38
   2  -4   7    0.68    0.49
   2  -4   7    0.13    0.44
  -2   4  -8   46.13    1.96
   2  -4   8   46.55    1.94
   2  -4   8   52.61    2.39
   2  -4   8   48.33    2.26
   2  -4   9    2.96    0.67
   2  -4   9    3.43    0.64
   2  -4  10   32.60    1.50
   2  -4  10   32.23    1.46
   2  -4  11    1.25    0.28
  -2   3  13    2.30    0.36
  -2   3  12    4.61    0.54
  -2   3  12    5.07    0.66
  -2   3  12    5.30    0.66
  -2   3  11    8.94    1.00
  -2   3  11    7.63    0.90
  -2   3  11    7.47    0.83
  -2   3  10    0.43    0.51
  -2   3  10    0.58    0.38
  -2   3  10    0.78    0.42
  -2   3  10    0.39    0.45
  -2   3   9   63.34    2.55
  -2   3   9   67.32    2.80
  -2   3   9   68.57    2.62
  -2   3   9   61.40    2.60
  -2   3   8    2.73    0.57
   2  -3  -8    5.40    1.42
  -2   3   8    3.36    0.70
  -2   3   8    4.57    0.82
   2  -3  -8    2.85    1.40
   2  -3  -7   18.92    2.26
  -2   3   7   21.62    1.45
  -2   3   7   20.76    1.43
   2  -3  -7   19.65    3.04
   2  -3  -6    4.63    1.09
   2  -3  -6    4.09    1.28
   2  -3  -5   42.98    3.87
  -2   3   5   41.48    3.05
   2  -3  -5   43.06    2.85
  -2   3   4   21.73    2.08
   2  -3  -4   23.26    1.95
   2  -3  -4   18.50    2.41
  -2   3   3  310.88    7.15
   2  -3  -3  295.99    6.14
  -2   3   3  312.79    4.97
   2  -3  -3  289.87    8.13
   2  -3  -3  310.44    4.97
   2  -3  -2   48.38    2.21
   2  -3  -2   45.14    2.21
  -2   3   2   44.74    2.59
   2  -3  -2   43.01    2.87
   2  -3  -1   20.95    1.79
   2  -3  -1   21.04    1.40
  -2   3   1   21.58    1.78
   2  -3  -1   23.13    1.67
   2  -3   0  135.96    3.52
   2  -3   0  138.51    3.67
   2  -3   0  136.61    4.26
  -2   3   0  140.62    4.40
   2  -3   1    3.61    0.86
  -2   3  -1    3.32    0.95
   2  -3   1    3.28    0.66
   2  -3   2   93.33    3.40
   2  -3   2   94.27    4.01
  -2   3  -2   98.84    4.01
  -2   3  -3    4.33    1.06
   2  -3   3    3.52    1.04
  -2   3  -4   19.01    1.96
   2  -3   4   15.50    1.83
  -2   3  -4   14.75    1.86
  -2   3  -5    2.31    0.84
   2  -3   5    3.32    0.63
  -2   3  -5    3.11    0.96
   2  -3   5    3.64    1.08
   2  -3   6    0.03    0.52
  -2   3  -6    0.03    0.72
   2  -3   6    0.53    0.32
   2  -3   6    0.07    0.32
  -2   3  -6    0.25    0.76
   2  -3   7   23.66    1.44
   2  -3   7   21.42    1.54
  -2   3  -7   22.06    2.68
  -2   3  -7   26.04    2.87
   2  -3   7   21.63    1.58
   2  -3   7   17.11    2.00
  -2   3  -8    3.50    0.62
   2  -3   8    4.42    0.79
   2  -3   8    3.58    0.73
   2  -3   9   47.07    2.25
  -2   3  -9   42.55    1.86
   2  -3   9   45.51    2.24
   2  -3  10    0.85    0.45
   2  -3  10    1.32    0.47
   2  -3  11    7.81    0.74
   2  -3  11    6.78    0.68
  -2   2  13    0.30    0.19
  -2   2  13   -0.03    0.18
  -2   2  12   13.66    1.04
  -2   2  12   12.26    0.84
  -2   2  12   12.80    0.98
  -2   2  11   26.70    1.55
  -2   2  11   27.72    1.73
  -2   2  11   26.08    1.61
  -2   2  10    8.78    1.04
  -2   2  10   12.09    1.22
  -2   2  10   11.47    1.22
  -2   2   9    9.20    1.08
  -2   2   9   10.89    1.04
  -2   2   9   12.44    1.10
  -2   2   9   10.22    1.15
   2  -2  -8    8.39    1.58
  -2   2   8   10.19    1.02
   2  -2  -8    9.89    2.56
  -2   2   8    9.35    1.08
  -2   2   8    9.97    1.04
  -2   2   8    9.71    0.98
   2  -2  -7    0.40    0.60
  -2   2   7    0.20    0.34
  -2   2   7    0.37    0.35
  -2   2   7   -0.99    0.44
   2  -2  -7   -0.23    1.07
   2  -2  -6    1.18    0.97
   2  -2  -6    1.81    0.73
   2  -2  -5  457.23   11.30
   2  -2  -5  439.13    8.47
  -2   2   4   18.10    1.76
   2  -2  -4   20.08    2.31
   2  -2  -4   22.47    1.76
   2  -2  -3  259.65    6.91
   2  -2  -3  257.43    5.56
  -2   2   3  266.72    3.29
  -2   2   3  247.35    5.66
   2  -2  -2   44.37    2.62
   2  -2  -2   47.58    2.19
  -2   2   2   44.86    2.29
   2  -2  -1 1208.80   11.86
   2  -2  -1 1218.37   10.16
  -2   2   1 1245.95   11.38
   2  -2   0   27.91    1.57
  -2   2   0   29.29    1.78
   2  -2   0   25.67    1.45
   2  -2   1  562.33    7.03
   2  -2   1  561.50    5.06
  -2   2  -1  571.35    7.98
   2  -2   2   73.33    2.87
  -2   2  -2   77.70    3.15
   2  -2   2   78.06    3.29
   2  -2   3 1667.95   15.17
  -2   2  -3 1643.85   14.77
   2  -2   3 1673.26   15.81
  -2   2  -3 1681.11   15.87
  -2   2  -4  231.80    6.03
   2  -2   4  237.24    6.28
  -2   2  -4  236.73    6.45
   2  -2   5    8.86    1.37
  -2   2  -5   11.32    1.54
   2  -2   6  125.82    5.08
   2  -2   6  128.14    3.27
  -2   2  -6  136.23    5.62
   2  -2   7   20.37    1.44
   2  -2   7   21.38    1.52
  -2   2  -7   16.63    2.16
  -2   2  -7   16.74    1.22
   2  -2   8    6.62    0.91
   2  -2   8    7.18    0.96
  -2   2  -8    7.27    1.58
  -2   2  -8    5.75    0.79
   2  -2   9    0.17    0.48
  -2   2  -9    0.10    0.32
   2  -2   9    0.03    0.48
   2  -2  10   -0.17    0.48
  -2   2 -10    0.16    0.31
   2  -2  10   -0.17    0.52
   2  -2  11    0.32    0.38
   2  -2  11    0.50    0.40
   2  -2  12   -0.07    0.21
  -2   1  13    0.48    0.24
  -2   1  13    1.24    0.28
  -2   1  12    0.20    0.28
  -2   1  12   -0.61    0.34
  -2   1  11    0.00    0.32
  -2   1  11    0.05    0.45
  -2   1  11    0.38    0.43
  -2   1  10    0.89    0.51
  -2   1  10    1.09    0.54
  -2   1   9   38.91    2.15
  -2   1   9   38.71    1.92
  -2   1   9   39.11    2.07
  -2   1   9   37.32    2.04
   2  -1  -8   35.09    3.95
  -2   1   8   33.72    1.77
  -2   1   8   36.35    2.00
   2  -1  -8   38.57    3.21
  -2   1   8   37.39    1.94
   2  -1  -7    7.34    1.39
  -2   1   7    8.59    0.92
   2  -1  -7    7.76    2.16
  -2   1   7    9.30    0.92
  -2   1   7    9.84    0.94
   2  -1  -6   10.03    2.05
   2  -1  -6   11.85    1.52
   2  -1  -5  591.45   12.01
   2  -1  -5  588.96    9.16
   2  -1  -4   46.43    3.07
  -2   1   4   46.08    1.96
   2  -1  -4   47.09    2.31
  -2   1   3  383.31    6.43
   2  -1  -3  377.14    5.68
   2  -1  -3  381.37    7.64
   2  -1  -2   25.81    1.35
  -2   1   2   24.00    1.51
   2  -1  -2   24.80    1.55
   2  -1  -1 2970.58   16.19
  -2   1   1 2948.51   14.81
   2  -1   0 9971.88   26.64
  -2   1   0 9999.00   26.58
   2  -1   1 2922.76   11.04
  -2   1  -1 2941.74   15.33
   2  -1   1 2929.98   15.25
  -2   1  -2    1.53    0.56
   2  -1   2    2.40    0.61
   2  -1   2    1.61    0.51
   2  -1   3  180.21    4.57
   2  -1   3  177.00    4.77
  -2   1  -3  177.07    4.23
   2  -1   4   71.90    3.14
  -2   1  -4   71.85    3.10
   2  -1   4   72.92    3.25
   2  -1   5  105.63    4.29
  -2   1  -5  107.64    4.20
   2  -1   5  104.61    3.99
   2  -1   6    0.81    0.52
  -2   1  -6   -0.18    0.47
   2  -1   7   18.21    1.29
   2  -1   7   14.95    1.24
  -2   1  -7   18.76    2.14
  -2   1  -7   15.98    1.16
   2  -1   8   71.59    2.74
   2  -1   8   73.62    2.79
  -2   1  -8   77.69    4.71
  -2   1  -8   64.30    2.43
  -2   1  -9   50.79    2.17
   2  -1   9   50.65    2.40
   2  -1   9   51.09    2.40
   2  -1  10   13.34    1.29
   2  -1  10   12.15    1.20
  -2   1 -10   11.98    1.04
  -2   1 -11   10.33    0.83
   2  -1  11   11.38    1.06
   2  -1  12    1.59    0.41
  -2   0  12    5.31    0.64
  -2   0  12    6.25    0.67
  -2   0  11   22.24    1.47
  -2   0  11   23.27    1.50
  -2   0  11   22.28    1.30
  -2   0  10  177.01    4.49
  -2   0  10  178.62    4.31
  -2   0  10  172.26    4.07
  -2   0   9   30.58    1.85
  -2   0   9   29.26    1.88
  -2   0   9   28.95    1.79
  -2   0   9   30.62    1.68
  -2   0   8   77.76    2.91
  -2   0   8   77.33    2.66
  -2   0   8   76.25    2.79
  -2   0   8   80.42    2.81
   2   0  -8   80.20    4.48
   2   0  -8   79.04    5.67
  -2   0   7    2.63    0.59
  -2   0   7    1.74    0.47
  -2   0   7    2.17    0.52
   2   0  -7    3.27    0.95
  -2   0   7    1.48    0.43
   2   0  -7    2.45    1.13
   2   0  -6  117.45    4.40
   2   0  -6  120.92    5.90
  -2   0   5   39.76    2.07
   2   0  -5   40.92    2.32
   2   0  -5   42.63    3.11
   2   0  -4  217.41    6.08
  -2   0   4  222.17    4.58
   2   0  -4  215.08    4.54
  -2   0   3   68.69    2.48
   2   0  -3   71.20    2.23
   2   0  -3   74.07    3.23
  -2   0   2 4302.48   17.05
   2   0  -2 4329.83   19.37
   2   0  -2 4301.30   13.95
   2   0  -2 4288.35   20.68
   2   0  -1  227.77    1.86
  -2   0   1  230.46    3.39
  -2   0   0  776.83    5.87
   2   0   0  775.35    5.49
   2   0   1   12.26    0.91
  -2   0  -1   11.80    0.68
  -2   0  -1   12.34    0.87
   2   0   2  802.48    8.09
  -2   0  -2  806.34    6.93
   2   0   3   22.93    1.72
   2   0   3   22.71    1.63
  -2   0  -3   21.93    1.38
   2   0   4  169.22    3.79
  -2   0  -4  170.07    4.34
   2   0   4  173.17    4.82
   2   0   5  224.84    6.08
   2   0   5  234.69    5.32
  -2   0  -5  240.92    5.89
   2   0   6   64.62    2.87
   2   0   6   61.04    3.48
  -2   0  -6   66.35    3.48
   2   0   7    0.12    0.26
   2   0   7   -0.63    0.78
   2   0   7    0.52    0.42
  -2   0  -7    0.29    0.59
  -2   0  -7    0.62    0.34
  -2   0  -8    9.42    1.63
   2   0   8   11.65    1.11
   2   0   8   11.23    1.14
  -2   0  -8    9.93    1.00
  -2   0  -9    4.06    0.71
   2   0   9    5.56    0.87
   2   0   9    5.30    0.88
   2   0  10   10.58    1.14
  -2   0 -10   11.70    1.06
   2   0  10   12.19    1.22
   2   0  11    1.12    0.45
  -2   0 -11    1.78    0.46
   2   0  12    0.01    0.33
   2   0  13   -0.10    0.18
  -2  -1  12    0.61    0.30
  -2  -1  12    0.06    0.21
  -2  -1  11    0.88    0.41
  -2  -1  11    1.79    0.49
  -2  -1  10    7.90    0.88
  -2  -1  10    7.98    1.02
  -2  -1  10    8.64    0.97
  -2  -1   9   51.41    2.44
  -2  -1   9   51.36    2.27
  -2  -1   9   47.53    2.21
  -2  -1   8   20.62    1.55
  -2  -1   8   19.27    1.41
  -2  -1   8   18.77    1.35
  -2  -1   8   19.16    1.43
  -2  -1   7   41.08    1.90
  -2  -1   7   38.73    1.98
   2   1  -7   40.90    3.69
   2   1  -7   41.55    2.96
  -2  -1   7   37.88    1.83
  -2  -1   7   41.10    1.97
   2   1  -6   24.21    2.62
   2   1  -6   22.57    1.98
  -2  -1   5  519.88    8.45
   2   1  -5  515.97   10.29
   2   1  -5  507.69    8.08
  -2  -1   4   35.55    2.13
  -2  -1   4   38.08    2.11
   2   1  -4   41.21    2.64
   2   1  -4   37.89    1.92
  -2  -1   3  253.76    5.04
   2   1  -3  243.99    5.57
   2   1  -3  238.91    4.00
  -2  -1   3  244.93    5.15
  -2  -1   2   10.28    1.00
   2   1  -2   10.46    1.12
  -2  -1   2   11.26    1.14
   2   1  -2    9.85    0.95
   2   1  -2   10.48    0.66
   2   1  -2   11.02    0.67
   2   1  -1  396.97    5.03
   2   1  -1  398.31    4.02
  -2  -1   0  497.05    2.74
   2   1   0  496.17    5.00
   2   1   1  371.31    4.87
  -2  -1  -1  366.83    3.16
  -2  -1  -2    7.01    0.63
   2   1   2    7.51    0.89
   2   1   3    2.08    0.59
  -2  -1  -3    1.98    0.48
   2   1   3    2.77    0.75
   2   1   3    3.38    0.77
  -2  -1  -4   92.32    3.11
   2   1   4   91.96    3.35
   2   1   4   84.55    3.36
   2   1   5   23.23    1.99
   2   1   5   26.08    1.59
   2   1   5   22.92    1.80
  -2  -1  -5   25.27    1.88
   2   1   6   25.77    2.29
  -2  -1  -6   27.36    2.20
   2   1   7   54.59    3.56
  -2  -1  -7   60.09    3.60
   2   1   8  152.54    3.85
   2   1   8  144.98    3.69
  -2  -1  -8  149.74    6.26
  -2  -1  -8  150.83    3.66
   2   1   8  138.25    6.03
   2   1   9   20.57    1.49
   2   1   9   25.30    2.77
  -2  -1  -9   22.71    2.66
  -2  -1  -9   20.15    1.41
  -2  -1 -10    6.61    0.86
   2   1  10    6.23    0.86
   2   1  11   22.67    1.46
  -2  -1 -11   22.00    1.36
   2   1  12    7.26    0.76
  -2  -1 -12    6.07    0.61
   2   1  13    0.76    0.26
  -2  -2  11    0.11    0.27
  -2  -2  11   -0.23    0.27
  -2  -2  10    2.20    0.58
  -2  -2  10    1.34    0.43
  -2  -2  10    1.70    0.51
  -2  -2   9    6.99    0.99
  -2  -2   9    7.37    0.99
  -2  -2   9    7.62    0.95
  -2  -2   8   61.94    2.53
  -2  -2   8   68.48    2.80
  -2  -2   8   64.06    2.49
  -2  -2   8   64.88    2.49
  -2  -2   7    6.90    0.83
  -2  -2   7    8.16    0.99
  -2  -2   7    5.71    0.80
  -2  -2   7    7.26    0.84
   2   2  -6  192.43    6.99
  -2  -2   6  211.77    6.42
  -2  -2   6  196.21    4.10
  -2  -2   6  190.46    6.02
  -2  -2   6  194.70    4.20
   2   2  -6  190.97    5.84
  -2  -2   5   18.99    1.87
   2   2  -5   23.21    2.27
  -2  -2   5   17.27    1.79
   2   2  -5   17.44    1.67
   2   2  -4  179.95    5.51
  -2  -2   4  188.39    5.43
   2   2  -4  182.36    4.45
  -2  -2   4  172.36    5.12
   2   2  -3   19.77    1.28
  -2  -2   3   15.58    1.56
  -2  -2   3   20.18    1.74
   2   2  -3   18.12    1.62
  -2  -2   2   17.62    1.46
  -2  -2   2   16.80    1.47
   2   2  -2   14.87    1.07
   2   2  -2   15.84    0.95
   2   2  -1    1.26    0.26
   2   2  -1    0.81    0.37
   2   2  -1    1.04    0.30
  -2  -2   1    1.33    0.59
  -2  -2   1    0.68    0.44
  -2  -2   0  137.02    3.56
   2   2   0  128.21    2.58
  -2  -2   0  131.00    3.48
   2   2   0  132.69    3.17
   2   2   1  287.77    4.25
  -2  -2  -1  304.44    4.95
   2   2   1  301.07    5.08
  -2  -2  -2  454.96    5.70
   2   2   2  450.82    6.20
  -2  -2  -2  465.71    5.41
   2   2   2  461.72    6.79
   2   2   2  463.72    7.57
  -2  -2  -3  185.99    4.00
  -2  -2  -3  188.93    3.32
   2   2   3  192.50    4.75
   2   2   3  181.05    5.09
   2   2   4   50.52    2.89
  -2  -2  -4   48.22    2.33
   2   2   4   50.95    2.71
  -2  -2  -5   29.63    2.10
   2   2   5   30.56    2.35
   2   2   6  134.84    5.25
  -2  -2  -6  132.68    4.87
   2   2   6  135.44    5.14
   2   2   7   33.05    2.81
  -2  -2  -7   38.52    2.91
  -2  -2  -7   40.33    1.81
   2   2   8   44.58    3.50
   2   2   8   44.53    1.96
  -2  -2  -8   49.30    3.65
  -2  -2  -8   46.33    2.08
   2   2   8   47.64    2.16
   2   2   9    0.14    0.41
   2   2   9   -0.35    0.41
  -2  -2  -9   -0.61    0.88
   2   2   9    1.43    0.94
   2   2   9   -0.46    0.41
  -2  -2  -9    0.62    0.49
   2   2  10   51.74    2.24
  -2  -2 -10   53.62    2.29
   2   2  10   54.72    2.26
  -2  -2 -11    5.51    0.75
   2   2  11    6.85    0.79
   2   2  12    2.20    0.46
  -2  -2 -12    2.08    0.39
  -2  -3  11    9.67    0.74
  -2  -3  10    1.08    0.42
  -2  -3  10    2.01    0.41
  -2  -3   9   51.63    2.12
  -2  -3   9   54.75    2.12
  -2  -3   9   48.68    2.29
  -2  -3   8  151.05    3.79
  -2  -3   8  148.67    4.10
  -2  -3   8  158.21    3.71
  -2  -3   8  153.06    3.85
  -2  -3   8  141.57    3.45
  -2  -3   7   95.02    3.09
  -2  -3   7   97.62    3.26
  -2  -3   7   93.73    3.04
  -2  -3   7   93.02    2.79
  -2  -3   7   90.12    2.83
  -2  -3   6   48.91    2.15
  -2  -3   6   49.47    2.09
  -2  -3   6   49.94    2.18
  -2  -3   6   52.99    3.63
  -2  -3   6   49.04    2.26
  -2  -3   6   46.63    2.01
  -2  -3   5    3.35    1.03
  -2  -3   5    3.61    1.02
  -2  -3   5    4.22    0.66
  -2  -3   4   60.06    3.38
  -2  -3   4   67.52    3.67
   2   3  -4   59.68    3.30
   2   3  -4   65.63    2.97
  -2  -3   3  251.47    6.65
   2   3  -3  250.49    6.19
   2   3  -3  233.33    5.01
  -2  -3   3  248.64    6.41
  -2  -3   2   82.13    3.49
  -2  -3   2   86.03    3.73
   2   3  -2   84.55    2.29
   2   3  -2   84.35    2.66
  -2  -3   1   65.95    3.09
   2   3  -1   66.22    1.62
   2   3  -1   65.83    2.77
  -2  -3   1   68.34    3.04
  -2  -3   0   97.14    3.47
   2   3   0  100.28    3.67
   2   3   0   97.14    1.81
   2   3   0   97.09    3.33
  -2  -3   0  100.71    3.50
   2   3   1   70.59    3.24
  -2  -3  -1   72.29    2.80
  -2  -3  -1   74.77    2.87
   2   3   1   72.37    2.89
   2   3   2  104.66    3.64
  -2  -3  -2  103.17    3.11
   2   3   2  100.22    4.11
   2   3   3   20.95    2.11
  -2  -3  -3   22.78    1.37
  -2  -3  -3   23.09    1.59
   2   3   3   23.92    1.93
   2   3   4  502.19   10.18
  -2  -3  -4  509.82    8.13
   2   3   4  526.24    9.14
  -2  -3  -5   16.30    1.66
   2   3   5   14.22    1.65
   2   3   5   14.53    1.84
  -2  -3  -6   76.35    3.88
   2   3   6   80.20    4.20
   2   3   6   76.91    4.32
   2   3   7   12.33    1.88
  -2  -3  -7   13.70    1.81
  -2  -3  -7   14.86    1.15
   2   3   8   21.05    2.51
  -2  -3  -8   22.39    2.55
   2   3   8   22.13    1.59
  -2  -3  -8   21.23    1.44
   2   3   9   28.67    1.82
  -2  -3  -9   31.65    1.82
   2   3  10    0.11    0.37
   2   3  10    0.35    0.41
  -2  -3 -10    0.10    0.39
   2   3  11    1.91    0.45
   2   3  11    2.64    0.53
  -2  -3 -11    1.72    0.53
  -2  -3 -12   -0.55    0.32
  -2  -4  10   13.27    0.94
  -2  -4   9   17.01    1.10
  -2  -4   9   16.09    1.24
  -2  -4   8    2.35    0.57
  -2  -4   8    1.38    0.45
  -2  -4   8    1.14    0.44
  -2  -4   8    1.32    0.64
  -2  -4   8    2.20    0.54
  -2  -4   7  163.18    4.06
  -2  -4   7  153.89    3.87
  -2  -4   7  157.02    4.16
  -2  -4   7  153.76    3.86
  -2  -4   7  157.13    3.66
  -2  -4   6   16.20    1.28
  -2  -4   6   15.11    1.30
  -2  -4   6   15.18    1.28
  -2  -4   6   15.27    1.37
  -2  -4   6   16.40    1.20
  -2  -4   6   16.05    1.30
  -2  -4   6   20.11    2.44
  -2  -4   5   81.66    2.75
  -2  -4   5   81.08    4.80
  -2  -4   5   76.28    2.81
  -2  -4   5   73.38    2.40
  -2  -4   5   77.84    4.63
  -2  -4   5   78.49    2.68
  -2  -4   5   77.12    2.77
  -2  -4   5   79.12    2.79
  -2  -4   4   72.22    4.29
  -2  -4   4   81.26    2.73
  -2  -4   4   81.93    2.70
  -2  -4   4   84.03    2.63
  -2  -4   4   82.60    2.62
  -2  -4   4   80.27    2.69
  -2  -4   4   75.11    4.30
   2   4  -3   17.99    1.86
  -2  -4   3   13.89    1.93
  -2  -4   3   17.25    1.98
   2   4  -2  255.18    6.18
  -2  -4   2  271.79    7.39
  -2  -4   2  258.06    7.06
   2   4  -2  257.65    5.59
  -2  -4   1  212.28    6.08
   2   4  -1  203.22    5.77
  -2  -4   1  201.48    6.06
   2   4  -1  213.10    5.90
  -2  -4   0  432.42    8.29
  -2  -4   0  416.84    8.21
   2   4   0  423.98    8.09
   2   4   0  424.97    8.69
  -2  -4  -1  369.35    7.28
  -2  -4  -1  387.99    7.47
   2   4   1  374.13    7.57
   2   4   2  163.35    5.91
   2   4   2  170.18    5.25
  -2  -4  -2  170.55    4.61
  -2  -4  -3   10.06    1.11
   2   4   3   10.18    1.46
   2   4   3   10.07    1.60
   2   4   4   20.23    2.36
   2   4   4   20.94    2.07
   2   4   5   18.51    2.22
  -2  -4  -5   20.51    2.00
   2   4   5   17.41    1.95
   2   4   6    8.18    1.68
   2   4   6    9.03    1.56
  -2  -4  -6    6.49    1.28
  -2  -4  -6    7.72    0.84
  -2  -4  -6    8.30    0.87
  -2  -4  -7   10.56    0.98
   2   4   7   10.26    1.74
   2   4   7   10.83    1.15
  -2  -4  -7   11.43    1.80
  -2  -4  -7   10.58    1.06
   2   4   8    3.35    0.75
  -2  -4  -8    3.29    0.58
  -2  -4  -8    2.65    0.62
  -2  -4  -8    4.40    1.22
   2   4   9    5.64    0.95
  -2  -4  -9    7.30    0.98
   2   4  10   57.90    2.52
  -2  -4 -10   60.42    2.49
   2   4  11    0.61    0.35
   2   4  11    0.84    0.44
  -2  -4 -11    0.35    0.32
   2   4  12   -0.03    0.20
   2   4  12    0.34    0.23
  -2  -4 -12    0.21    0.25
  -2  -5   9    6.47    0.67
  -2  -5   9    6.26    0.59
  -2  -5   8    8.26    0.81
  -2  -5   8    7.29    0.81
  -2  -5   8    7.91    0.87
  -2  -5   7   17.98    1.30
  -2  -5   7   17.72    1.42
  -2  -5   7   17.44    1.22
  -2  -5   7   17.57    1.34
  -2  -5   6   -0.15    0.56
  -2  -5   6    0.33    0.32
  -2  -5   6   -0.01    0.48
  -2  -5   6   -0.18    0.39
  -2  -5   6    0.22    0.41
  -2  -5   5    6.96    0.90
  -2  -5   5    8.44    1.03
  -2  -5   5    6.44    0.95
  -2  -5   5    4.89    1.46
  -2  -5   5    7.11    0.84
  -2  -5   5    7.32    0.92
  -2  -5   4    2.31    0.63
  -2  -5   4    3.37    0.81
  -2  -5   4    2.32    0.57
  -2  -5   4    3.14    0.67
  -2  -5   4    3.21    0.69
  -2  -5   4    3.10    0.70
  -2  -5   4    2.64    0.57
  -2  -5   4    2.42    1.02
  -2  -5   3   20.20    1.40
  -2  -5   3   19.15    1.34
  -2  -5   3   20.89    2.54
  -2  -5   3   18.15    1.38
  -2  -5   3   20.00    2.41
  -2  -5   3   19.53    1.25
  -2  -5   3   19.16    1.45
  -2  -5   3   18.43    1.39
  -2  -5   3   19.55    1.36
  -2  -5   2   97.29    3.01
  -2  -5   2  102.99    2.88
  -2  -5   2  100.49    5.02
  -2  -5   2   95.87    5.05
  -2  -5   2   99.45    2.86
  -2  -5   2   99.75    2.99
  -2  -5   2  101.80    2.99
  -2  -5   2  104.05    3.02
   2   5  -2   96.66    4.80
  -2  -5   1    7.83    1.41
   2   5  -1    5.45    1.22
  -2  -5   1    4.58    1.16
   2   5  -1    6.98    1.29
   2   5   0   45.16    3.21
  -2  -5   0   45.47    3.07
  -2  -5   0   41.81    3.05
   2   5   0   45.18    3.12
  -2  -5  -1   12.98    1.61
   2   5   1   11.86    1.64
  -2  -5  -1    9.21    1.42
   2   5   1   11.17    1.71
   2   5   2    4.22    1.20
   2   5   2    8.20    1.44
  -2  -5  -2    5.67    1.08
   2   5   3   34.98    3.18
   2   5   3   30.13    2.60
   2   5   4    8.61    1.79
   2   5   4    9.28    1.59
  -2  -5  -5   71.78    2.52
   2   5   5   71.22    2.66
   2   5   5   68.08    4.24
  -2  -5  -5   73.86    2.56
   2   5   5   67.50    4.76
  -2  -5  -6   34.91    1.83
   2   5   6   38.26    2.07
  -2  -5  -6   38.92    1.98
   2   5   6   39.96    3.34
  -2  -5  -7   74.55    2.68
   2   5   7   76.34    3.03
  -2  -5  -7   81.15    2.91
   2   5   7   78.32    4.89
   2   5   8    0.12    0.49
  -2  -5  -8    0.37    0.33
  -2  -5  -8   -0.37    0.45
   2   5   9    0.00    0.50
  -2  -5  -9    0.47    0.33
  -2  -5  -9   -0.50    0.51
   2   5  10    9.91    1.13
  -2  -5 -10   11.78    1.14
   2   5  11    9.08    0.89
   2   5  11    8.35    0.89
  -2  -5 -11    8.97    0.90
   2   5  12    0.00    0.19
   2   5  12    0.30    0.21
  -2  -5 -12    0.28    0.25
  -2  -6   8    1.62    0.38
  -2  -6   7   15.87    1.07
  -2  -6   7   15.46    1.02
  -2  -6   7   14.68    1.12
  -2  -6   6    7.36    0.95
  -2  -6   6    9.15    0.96
  -2  -6   6    7.85    0.82
  -2  -6   6   10.18    1.07
  -2  -6   5  368.46    6.29
  -2  -6   5  363.58    5.71
  -2  -6   5  371.36    6.25
  -2  -6   5  358.97    5.99
  -2  -6   5  371.29    5.87
  -2  -6   4   56.81    2.44
  -2  -6   4   54.07    2.36
  -2  -6   4   53.89    2.39
  -2  -6   4   54.02    2.25
  -2  -6   4   53.53    2.42
  -2  -6   3    6.79    0.97
  -2  -6   3    6.59    0.91
   2   6  -3    5.96    1.57
  -2  -6   3    5.35    0.85
  -2  -6   3    6.28    1.68
  -2  -6   3    5.85    0.80
  -2  -6   2   51.39    2.22
   2   6  -2   46.90    3.77
  -2  -6   2   53.65    4.12
  -2  -6   2   57.20    2.47
  -2  -6   2   53.21    2.31
  -2  -6   2   50.77    2.15
  -2  -6   1   22.15    1.43
  -2  -6   1   22.66    1.50
  -2  -6   1   27.58    2.91
  -2  -6   1   22.58    1.44
   2   6  -1   22.04    2.51
  -2  -6   1   24.25    1.59
  -2  -6   0   19.42    1.24
  -2  -6   0   18.21    1.38
  -2  -6   0   20.76    1.39
  -2  -6   0   19.07    2.28
  -2  -6   0   16.35    1.20
   2   6   0   18.19    2.41
  -2  -6  -1    2.10    0.93
   2   6   1    2.10    1.22
   2   6   1    1.65    0.92
  -2  -6  -1    1.59    0.56
  -2  -6  -1    1.39    0.49
  -2  -6  -1    1.16    0.45
  -2  -6  -1    0.48    0.38
  -2  -6  -2   16.22    1.24
   2   6   2   14.68    2.10
   2   6   2   16.85    2.40
  -2  -6  -2   12.90    1.12
  -2  -6  -2   14.81    1.14
   2   6   3   -0.19    0.99
  -2  -6  -3    0.47    0.32
  -2  -6  -3    0.39    0.41
  -2  -6  -3    0.41    0.41
   2   6   3    0.58    0.92
   2   6   4   15.95    2.22
  -2  -6  -4   15.42    1.26
   2   6   4   14.56    2.36
  -2  -6  -4   14.34    1.14
   2   6   4   15.27    1.26
  -2  -6  -4   15.50    1.24
   2   6   5  224.45    4.86
  -2  -6  -5  238.34    4.87
   2   6   5  246.68    8.59
  -2  -6  -5  236.62    4.91
   2   6   6   16.65    1.45
   2   6   6   19.55    2.52
  -2  -6  -6   16.69    1.36
  -2  -6  -6   17.84    1.41
   2   6   7   28.60    1.92
  -2  -6  -7   28.51    1.76
  -2  -6  -7   29.70    1.85
   2   6   8   -0.34    0.47
  -2  -6  -8    0.04    0.37
  -2  -6  -8   -0.62    0.59
   2   6   9    3.02    0.74
  -2  -6  -9    3.43    0.59
  -2  -6  -9    3.59    0.77
   2   6  10    1.19    0.48
  -2  -6 -10    1.23    0.47
   2   6  11    0.57    0.37
   2   6  11    0.30    0.30
  -2  -6 -11    0.65    0.36
   2   6  12   -0.03    0.19
  -2  -6 -12    0.28    0.20
  -2  -7   7    6.76    0.68
  -2  -7   6    2.04    0.52
  -2  -7   6    2.33    0.48
  -2  -7   6    2.38    0.42
  -2  -7   5    0.96    0.48
  -2  -7   5    0.19    0.45
  -2  -7   5    0.43    0.31
  -2  -7   4   49.79    2.25
  -2  -7   4   50.36    2.12
  -2  -7   4   48.61    2.16
  -2  -7   4   48.57    2.24
  -2  -7   3    0.37    0.42
  -2  -7   3   -0.44    0.40
  -2  -7   3    0.16    0.48
  -2  -7   3   -0.44    0.55
  -2  -7   2    2.70    0.78
  -2  -7   2    3.36    0.67
  -2  -7   2    3.07    0.67
  -2  -7   2    3.18    0.70
  -2  -7   1    0.48    0.56
  -2  -7   1    0.14    0.34
  -2  -7   1    0.97    0.41
  -2  -7   1    1.04    0.63
  -2  -7   0   98.40    3.35
  -2  -7   0   97.20    2.90
  -2  -7   0   93.13    5.42
  -2  -7   0   92.09    3.02
  -2  -7  -1   20.59    1.56
   2   7   1   16.78    2.47
  -2  -7  -1   16.98    1.33
  -2  -7  -1   18.25    1.31
  -2  -7  -2    0.13    0.47
   2   7   2   -0.08    0.89
  -2  -7  -2    1.55    0.53
  -2  -7  -2   -0.03    0.46
  -2  -7  -3  156.49    3.98
  -2  -7  -3  150.31    3.97
  -2  -7  -3  149.43    3.86
  -2  -7  -3  147.48    3.88
  -2  -7  -4    3.48    0.65
  -2  -7  -4    2.68    0.70
  -2  -7  -4    2.34    0.60
   2   7   5  150.21    3.90
  -2  -7  -5  151.39    4.05
  -2  -7  -5  148.60    4.01
   2   7   6    4.60    0.83
  -2  -7  -6    5.65    0.87
  -2  -7  -6    4.27    0.79
  -2  -7  -7   18.06    1.43
   2   7   7   18.46    1.48
  -2  -7  -7   20.20    1.54
   2   7   8    5.82    0.89
  -2  -7  -8    5.21    0.77
  -2  -7  -8    5.22    0.86
   2   7   9   10.06    1.06
  -2  -7  -9   10.03    0.88
  -2  -7  -9    8.92    0.94
   2   7  10    2.39    0.55
  -2  -7 -10    2.07    0.37
  -2  -7 -10    1.86    0.46
   2   7  11    0.91    0.31
  -2  -7 -11   -0.09    0.19
   2   7  11    0.78    0.31
  -2  -8   6   18.48    0.95
  -2  -8   5    3.37    0.52
  -2  -8   5    3.15    0.42
  -2  -8   4    4.91    0.67
  -2  -8   4    4.97    0.60
  -2  -8   3    1.53    0.56
  -2  -8   3    1.43    0.45
  -2  -8   3    1.70    0.45
  -2  -8   2    3.43    0.79
  -2  -8   2    1.45    0.48
  -2  -8   2    2.74    0.57
  -2  -8   1   52.96    2.24
  -2  -8   1   53.35    2.52
  -2  -8   0    0.61    0.49
  -2  -8   0    0.62    0.59
  -2  -8  -1   71.84    2.87
  -2  -8  -1   71.92    2.51
  -2  -8  -1   74.12    2.74
  -2  -8  -2    0.46    0.47
  -2  -8  -2   -0.23    0.33
  -2  -8  -2   -0.67    0.48
  -2  -8  -3    3.18    0.70
  -2  -8  -3    2.25    0.62
  -2  -8  -3    2.08    0.56
  -2  -8  -4   16.69    1.27
  -2  -8  -4   16.09    1.34
  -2  -8  -4   15.79    1.35
  -2  -8  -5    1.02    0.45
  -2  -8  -5    0.37    0.45
  -2  -8  -6    4.55    0.75
  -2  -8  -6    3.11    0.65
   2   8   6    2.84    0.55
   2   8   7    3.88    0.63
  -2  -8  -7    5.15    0.75
  -2  -8  -7    4.23    0.70
  -2  -8  -8    0.35    0.31
   2   8   8   -0.06    0.30
  -2  -8  -8   -0.62    0.38
   2   8   9    1.37    0.40
  -2  -8  -9    1.36    0.36
  -2  -8  -9    0.52    0.29
   2   8  10    0.11    0.20
  -2  -9   4   22.56    0.98
  -2  -9   3    7.05    0.63
  -2  -9   3    8.09    0.65
  -2  -9   2   -0.01    0.32
  -2  -9   2    0.33    0.25
  -2  -9   2    0.27    0.28
  -2  -9   1    0.83    0.40
  -2  -9   1    2.10    0.41
  -2  -9   1    1.75    0.46
  -2  -9   0    3.86    0.72
  -2  -9   0    3.25    0.53
  -2  -9  -1    1.08    0.55
  -2  -9  -1    0.63    0.35
  -2  -9  -2    0.20    0.36
  -2  -9  -2   -0.26    0.24
  -2  -9  -2   -0.21    0.39
  -2  -9  -3    1.11    0.47
  -2  -9  -3    0.46    0.35
  -2  -9  -3    1.53    0.53
  -2  -9  -4   16.13    1.19
  -2  -9  -4   16.24    1.21
  -2  -9  -5    6.38    0.77
  -2  -9  -5    7.15    0.82
  -2  -9  -6    0.53    0.35
  -2  -9  -6   -0.25    0.35
  -2  -9  -7    1.94    0.44
  -2  -9  -7    2.50    0.50
  -2  -9  -8    0.48    0.24
  -2  -9  -8    0.91    0.32
  -2  -9  -9    2.99    0.37
  -2 -10   0    1.16    0.27
  -2 -10  -1   11.12    0.77
  -2 -10  -2    0.06    0.21
  -2 -10  -3    5.37    0.51
  -2 -10  -3    7.03    0.66
  -2 -10  -4    0.13    0.17
  -2 -10  -4    1.33    0.34
  -2 -10  -5    5.31    0.54
  -2 -10  -5    4.22    0.48
  -2 -10  -6    0.10    0.15
  -2 -10  -6    0.19    0.17
   3  -9  -6    1.06    0.28
   3  -9  -5    0.07    0.22
  -3   9   5    0.39    0.23
   3  -9  -4   13.57    1.01
  -3   9   4   12.27    0.88
   3  -9  -3   10.71    0.92
  -3   9   3   11.96    0.94
   3  -9  -2    0.25    0.32
   3  -9  -2   -0.07    0.22
  -3   9   2   -0.23    0.33
   3  -9  -1    1.41    0.40
  -3   9   1    1.15    0.44
   3  -9  -1    1.66    0.37
   3  -9   0   -0.27    0.26
  -3   9   0    0.24    0.29
   3  -9   1    0.55    0.22
   3  -9   1    0.32    0.24
  -3   9  -1    0.20    0.25
   3  -9   2    7.45    0.59
   3  -9   2    6.89    0.57
  -3   9  -2    7.30    0.59
   3  -9   3    1.04    0.25
  -3   8   8    9.94    0.77
  -3   8   7    2.35    0.44
   3  -8  -7    2.30    0.44
  -3   8   6    0.09    0.28
   3  -8  -6   -0.04    0.32
   3  -8  -5    1.55    0.52
   3  -8  -4    2.25    0.62
   3  -8  -3    1.53    0.60
   3  -8  -3    0.86    0.36
   3  -8  -2    4.85    0.82
   3  -8  -2    5.19    0.68
   3  -8  -1    0.01    0.39
   3  -8  -1    0.45    0.30
   3  -8   0   13.02    1.05
   3  -8   0   11.11    1.06
   3  -8   0   10.73    0.98
  -3   8   0   11.06    1.11
   3  -8   1    0.06    0.29
   3  -8   1   -0.15    0.36
   3  -8   1   -0.51    0.36
  -3   8  -1    0.25    0.43
   3  -8   2    0.87    0.37
  -3   8  -2    0.67    0.44
   3  -8   2    1.00    0.41
   3  -8   3    0.29    0.30
   3  -8   3    0.46    0.36
  -3   8  -3    0.44    0.29
   3  -8   4    2.47    0.43
   3  -8   4    3.04    0.50
   3  -8   5   20.96    0.98
  -3   8  -5   18.72    0.86
  -3   7  10    1.12    0.32
  -3   7   9    3.02    0.50
  -3   7   9    4.23    0.63
  -3   7   8   19.25    1.32
  -3   7   7   -0.35    0.46
   3  -7  -7    0.21    0.34
  -3   7   6    3.29    0.71
   3  -7  -6    3.46    0.64
  -3   7   5    3.31    0.63
   3  -7  -5    2.92    0.69
  -3   7   4   11.36    1.07
   3  -7  -4   11.61    1.23
   3  -7  -3    0.39    0.30
   3  -7  -3    0.57    0.50
   3  -7  -2    0.40    0.50
   3  -7  -2    0.31    0.33
   3  -7  -1   16.88    1.43
   3  -7  -1   16.65    1.28
   3  -7  -1   18.52    1.35
   3  -7   0   37.53    1.98
   3  -7   0   34.51    1.95
   3  -7   0   35.26    1.85
   3  -7   1   86.61    2.97
   3  -7   1   85.33    3.00
   3  -7   1   83.93    2.84
   3  -7   2   12.88    1.25
   3  -7   2   13.55    1.14
   3  -7   2   13.48    1.19
  -3   7  -2   13.20    1.19
   3  -7   3   25.03    1.65
   3  -7   3   23.20    1.51
  -3   7  -3   22.30    1.48
   3  -7   4   -0.03    0.48
   3  -7   4    0.78    0.40
  -3   7  -4   -0.47    0.33
   3  -7   5   16.56    1.21
   3  -7   5   17.88    1.19
   3  -7   5   20.15    1.14
   3  -7   6    0.69    0.34
   3  -7   6    0.06    0.26
  -3   7  -6    0.52    0.26
   3  -7   6   -0.31    0.23
   3  -7   7    4.25    0.46
   3  -7   7    3.43    0.42
  -3   6  11    2.21    0.36
  -3   6  11    2.44    0.37
  -3   6  10    3.24    0.48
  -3   6  10    3.69    0.53
  -3   6  10    4.26    0.63
  -3   6   9   13.66    1.11
  -3   6   9   13.41    1.16
  -3   6   9   11.98    0.99
  -3   6   8    7.72    0.85
  -3   6   8    7.98    0.99
   3  -6  -7   62.10    2.41
  -3   6   7   60.93    2.63
  -3   6   6    5.26    0.87
   3  -6  -6    5.04    0.81
   3  -6  -5    3.76    0.77
  -3   6   5    4.20    0.76
   3  -6  -4   22.02    1.65
  -3   6   4   23.48    1.59
   3  -6  -3    0.70    0.46
  -3   6   3    0.87    0.49
  -3   6   3    1.45    0.91
  -3   6   2    1.84    0.77
   3  -6  -2    2.38    0.68
   3  -6  -2    1.59    0.48
  -3   6   1    3.41    1.23
   3  -6  -1    1.64    0.57
   3  -6  -1    3.10    0.64
   3  -6  -1    1.16    0.46
   3  -6   0    1.65    0.58
   3  -6   0   -0.12    0.84
   3  -6   0    1.72    0.59
   3  -6   0    1.39    0.50
  -3   6   0    2.38    1.32
   3  -6   1   82.24    3.04
   3  -6   1   84.66    4.99
   3  -6   1   84.74    2.83
   3  -6   1   87.77    3.00
  -3   6  -1   90.61    5.53
   3  -6   2   19.63    1.54
   3  -6   2   19.59    1.40
   3  -6   2   17.36    1.35
   3  -6   3    0.24    0.46
   3  -6   3    1.26    0.51
  -3   6  -3    0.87    0.40
   3  -6   4   18.27    1.51
   3  -6   4   15.52    1.28
  -3   6  -4   16.89    1.26
   3  -6   5    0.92    0.53
   3  -6   5    0.63    0.45
   3  -6   6    0.20    0.40
   3  -6   6   -0.03    0.39
   3  -6   6    0.13    0.34
   3  -6   7    3.26    0.52
   3  -6   7    3.28    0.54
   3  -6   7    2.25    0.45
  -3   6  -7    2.36    0.46
   3  -6   8   11.70    0.72
   3  -6   8   11.46    0.79
   3  -6   8    9.79    0.68
  -3   5  11    8.16    0.76
  -3   5  11    8.43    0.74
  -3   5  11    7.45    0.68
  -3   5  11    6.30    0.57
  -3   5  10   36.59    1.76
  -3   5  10   34.09    1.66
  -3   5  10   34.33    1.64
  -3   5  10   32.07    1.59
  -3   5   9   13.07    1.15
  -3   5   9   11.01    1.15
  -3   5   9   11.67    1.10
  -3   5   9   12.50    1.15
  -3   5   8   12.71    1.29
  -3   5   8   12.03    1.12
  -3   5   8   10.44    1.09
  -3   5   7    0.04    0.47
  -3   5   7   -0.47    0.47
   3  -5  -6   65.61    2.60
  -3   5   6   70.98    2.83
  -3   5   6   74.75    2.77
  -3   5   5   39.45    3.66
   3  -5  -5   31.38    3.68
   3  -5  -5   34.87    1.95
  -3   5   5   37.08    1.99
  -3   5   4   47.47    3.88
   3  -5  -4   45.04    3.99
  -3   5   4   48.52    2.19
   3  -5  -4   47.07    2.24
  -3   5   3   14.90    1.20
   3  -5  -3   13.59    2.07
   3  -5  -3   11.38    1.13
   3  -5  -2  274.45    5.17
  -3   5   2  258.63    4.62
  -3   5   2  276.58    8.77
   3  -5  -1    5.74    0.78
  -3   5   1    6.89    1.56
   3  -5  -1    7.04    1.24
   3  -5   0  134.01    5.68
   3  -5   0  140.27    3.60
  -3   5   0  144.27    6.34
  -3   5  -1    0.22    0.77
   3  -5   1    2.10    0.50
   3  -5   1    1.92    0.47
   3  -5   1    0.63    0.81
   3  -5   2   -0.10    0.33
   3  -5   2    0.77    0.40
   3  -5   2   -0.33    0.80
  -3   5  -2   -0.22    0.71
  -3   5  -3    0.34    0.96
   3  -5   3    1.42    0.60
   3  -5   3   -0.88    0.95
   3  -5   3    0.88    0.38
  -3   5  -3    1.70    0.88
   3  -5   3    1.14    0.44
  -3   5  -3    0.19    0.45
   3  -5   4    2.35    0.63
   3  -5   4    1.83    0.56
  -3   5  -4    1.17    0.49
  -3   5  -4    1.53    0.50
   3  -5   5    1.10    0.54
   3  -5   5    0.88    0.51
   3  -5   6    3.37    0.72
   3  -5   6    3.95    0.73
   3  -5   6    4.11    0.78
   3  -5   7    0.79    0.40
   3  -5   7   -0.03    0.36
   3  -5   7    0.29    0.39
  -3   5  -7    0.66    0.32
   3  -5   8    0.65    0.28
   3  -5   8    0.69    0.37
   3  -5   8    0.26    0.35
  -3   5  -8    1.02    0.31
   3  -5   9    9.61    0.78
   3  -5   9    9.09    0.75
  -3   4  12    5.37    0.52
  -3   4  12    5.49    0.54
  -3   4  12    5.24    0.51
  -3   4  11    2.22    0.40
  -3   4  11    2.00    0.48
  -3   4  11    1.63    0.45
  -3   4  11    2.18    0.44
  -3   4  11    2.24    0.49
  -3   4  10   27.54    1.53
  -3   4  10   27.96    1.65
  -3   4  10   26.63    1.54
  -3   4  10   26.10    1.56
  -3   4   9    5.01    0.84
  -3   4   9    6.80    0.91
  -3   4   9    6.00    0.86
  -3   4   9    6.02    0.87
  -3   4   8   91.62    3.14
  -3   4   8   87.91    3.15
  -3   4   8   88.47    3.13
  -3   4   7   -0.17    0.58
   3  -4  -7   -1.10    0.96
  -3   4   7    0.36    0.40
   3  -4  -6   41.97    4.49
  -3   4   6   46.68    2.23
   3  -4  -6   43.99    3.43
  -3   4   6   43.10    2.10
  -3   4   5   25.52    2.81
   3  -4  -5   19.01    1.34
  -3   4   5   25.71    1.59
   3  -4  -5   19.23    3.07
   3  -4  -5   23.25    2.35
  -3   4   5   23.34    1.47
  -3   4   4   18.18    2.30
   3  -4  -4   15.18    2.40
  -3   4   4   18.13    1.27
   3  -4  -4   20.14    2.06
  -3   4   4   17.38    1.24
  -3   4   3    4.69    1.13
   3  -4  -3    2.99    1.26
   3  -4  -3    3.67    0.83
   3  -4  -2   -0.06    1.01
  -3   4   2    1.01    0.67
   3  -4  -2    0.63    0.57
   3  -4  -2   -0.45    0.43
   3  -4  -1  176.35    5.15
   3  -4  -1  163.37    5.51
  -3   4   1  162.73    5.99
   3  -4   0   80.10    3.47
   3  -4   0   78.51    4.02
  -3   4   0   78.24    4.18
  -3   4  -1   35.57    2.86
   3  -4   1   31.15    2.34
   3  -4   1   32.38    2.74
  -3   4  -2    0.28    0.74
   3  -4   2    1.87    0.85
   3  -4   3   14.25    1.10
   3  -4   3   15.91    1.16
  -3   4  -3   14.77    1.12
  -3   4  -3   13.59    1.89
  -3   4  -3   14.79    2.06
   3  -4   3   17.66    2.19
   3  -4   4   40.29    3.44
   3  -4   4   40.62    2.09
   3  -4   4   42.19    1.95
  -3   4  -4   40.58    1.85
  -3   4  -4   45.79    3.49
  -3   4  -4   47.15    3.77
   3  -4   5   43.86    2.17
   3  -4   5   44.00    2.08
   3  -4   5   48.74    3.84
  -3   4  -5   49.16    4.00
  -3   4  -5   52.08    3.94
   3  -4   6   28.68    1.74
   3  -4   6   27.02    1.70
   3  -4   7    0.61    0.39
   3  -4   7    0.58    0.37
   3  -4   7   -0.29    0.52
   3  -4   8    4.07    0.72
  -3   4  -8    3.31    0.64
   3  -4   8    3.65    0.73
   3  -4   9   -0.02    0.32
  -3   4  -9    0.03    0.27
   3  -4   9    0.33    0.38
   3  -4  10    2.81    0.45
   3  -4  10    3.24    0.51
  -3   3  12    7.29    0.69
  -3   3  12    6.12    0.57
  -3   3  12    6.34    0.64
  -3   3  11    7.49    0.82
  -3   3  11    6.78    0.68
  -3   3  11    6.88    0.81
  -3   3  11    7.52    0.83
  -3   3  10    6.35    0.79
  -3   3  10    6.25    0.89
  -3   3  10    5.36    0.84
  -3   3  10    7.05    0.92
  -3   3  10    8.28    0.90
  -3   3   9   17.38    1.37
  -3   3   9   16.75    1.34
  -3   3   9   18.10    1.46
  -3   3   9   17.77    1.46
  -3   3   8  154.28    4.12
  -3   3   8  158.38    4.08
  -3   3   8  159.29    4.18
  -3   3   8  156.39    4.10
   3  -3  -7  109.52    7.33
  -3   3   7  107.48    3.29
  -3   3   7  114.28    3.42
   3  -3  -7  113.80    5.91
  -3   3   7  113.64    3.43
   3  -3  -6   34.61    4.04
  -3   3   6   39.00    1.94
   3  -3  -6   37.07    3.18
  -3   3   6   34.51    1.80
   3  -3  -5    1.98    0.96
   3  -3  -5    1.03    0.72
  -3   3   5    2.94    1.10
  -3   3   4  159.48    5.88
   3  -3  -4  157.17    6.92
   3  -3  -4  156.65    5.49
  -3   3   3   14.17    1.78
   3  -3  -3   13.73    1.56
   3  -3  -3   15.42    1.41
   3  -3  -3   14.38    2.11
  -3   3   2    1.11    0.68
   3  -3  -2    2.21    0.98
   3  -3  -2    2.36    0.71
   3  -3  -1  440.83    8.91
   3  -3  -1  431.54    7.65
  -3   3   1  447.77    8.79
   3  -3   0  189.99    5.02
   3  -3   0  179.65    4.94
   3  -3   0  170.22    5.44
  -3   3   0  183.85    5.65
  -3   3  -1    1.86    0.80
   3  -3   1    1.70    0.81
   3  -3   1    1.43    0.50
  -3   3  -2    1.76    0.85
   3  -3   2    2.63    0.73
   3  -3   2    1.81    0.77
  -3   3  -3   63.21    3.53
   3  -3   3   64.04    3.54
   3  -3   3   60.34    3.76
  -3   3  -3   65.61    3.79
  -3   3  -4   -0.37    0.94
  -3   3  -4   -0.35    0.69
   3  -3   4   -0.06    0.62
  -3   3  -5    0.77    0.46
   3  -3   5    0.55    0.40
  -3   3  -5    1.15    0.91
   3  -3   5    0.69    0.37
   3  -3   5   -1.08    1.10
  -3   3  -6    2.42    1.13
  -3   3  -6    3.73    1.11
   3  -3   6    4.42    1.24
   3  -3   6    2.03    0.50
   3  -3   6    2.88    0.61
  -3   3  -7   -0.30    0.46
   3  -3   7   -0.07    0.38
   3  -3   7   -0.24    0.39
   3  -3   7   -0.21    0.46
   3  -3   8   22.13    1.56
   3  -3   8   23.57    1.66
  -3   3  -8   21.79    1.48
   3  -3   9    1.01    0.44
   3  -3   9    1.56    0.57
   3  -3  10   10.30    0.93
   3  -3  10   12.61    1.06
  -3   3 -10    9.75    0.80
   3  -3  11    1.10    0.31
  -3   2  12    3.48    0.45
  -3   2  12    4.37    0.56
  -3   2  12    4.67    0.58
  -3   2  11    7.30    0.86
  -3   2  11    6.66    0.79
  -3   2  11    8.36    0.90
  -3   2  10   38.14    2.07
  -3   2  10   36.02    1.98
  -3   2  10   32.89    1.74
  -3   2  10   37.60    2.01
  -3   2   9    4.36    0.73
  -3   2   9    3.92    0.81
  -3   2   9    4.64    0.81
  -3   2   9    2.84    0.66
  -3   2   9    3.64    0.64
  -3   2   8   41.01    2.07
  -3   2   8   41.60    2.17
  -3   2   8   41.30    2.00
   3  -2  -8   41.91    3.87
  -3   2   8   40.63    2.09
  -3   2   7    1.23    0.58
   3  -2  -7    1.35    0.89
   3  -2  -7    1.84    1.28
  -3   2   7    2.00    0.53
  -3   2   7    0.73    0.36
   3  -2  -7    3.47    1.21
  -3   2   7    2.19    0.55
   3  -2  -6   -0.32    0.98
  -3   2   6    0.93    0.43
  -3   2   6    0.17    0.39
   3  -2  -6    0.64    0.63
  -3   2   6    0.91    0.44
   3  -2  -6    0.36    0.45
   3  -2  -5   -0.73    0.73
   3  -2  -5   -0.27    1.11
  -3   2   4  215.92    6.28
   3  -2  -4  213.48    7.62
   3  -2  -4  217.57    6.34
  -3   2   3    0.12    0.50
   3  -2  -3    0.68    0.78
   3  -2  -2   68.53    3.52
   3  -2  -2   75.53    3.24
  -3   2   2   72.92    3.25
   3  -2  -1   11.08    1.25
  -3   2   1   12.07    1.38
   3  -2   0 1161.22   11.59
   3  -2   0 1129.34   11.80
  -3   2   0 1146.03   12.40
   3  -2   1  299.75    4.93
   3  -2   1  295.06    6.26
  -3   2  -1  291.44    6.42
  -3   2  -2  240.02    6.15
   3  -2   2  229.62    5.86
  -3   2  -3  395.54    7.77
   3  -2   3  399.46    8.47
   3  -2   3  409.57    8.88
  -3   2  -3  405.55    8.58
  -3   2  -4    6.07    1.22
  -3   2  -4    7.89    1.26
   3  -2   4    6.66    1.40
   3  -2   4    5.79    1.28
  -3   2  -5   12.82    1.87
   3  -2   5   14.22    1.85
  -3   2  -5   17.47    1.97
   3  -2   6   67.05    4.07
  -3   2  -6   75.97    4.64
   3  -2   6   65.62    2.41
  -3   2  -6   70.16    4.23
  -3   2  -7    0.79    0.77
  -3   2  -7    0.58    0.58
  -3   2  -7    1.89    0.52
   3  -2   7    2.10    0.62
   3  -2   7    2.20    0.65
   3  -2   8   27.98    1.74
   3  -2   8   27.70    1.82
  -3   2  -8   27.47    1.67
   3  -2   9   54.03    2.38
   3  -2   9   52.21    2.44
  -3   2  -9   54.14    2.26
  -3   2 -10    1.15    0.35
   3  -2  10    0.59    0.40
   3  -2  10    0.99    0.52
   3  -2  11   11.18    0.94
  -3   2 -11    9.63    0.72
   3  -2  12   10.15    0.66
  -3   1  12   39.03    1.58
  -3   1  12   37.24    1.47
  -3   1  12   36.16    1.32
  -3   1  11   28.54    1.50
  -3   1  11   31.09    1.71
  -3   1  11   31.93    1.64
  -3   1  10    1.02    0.42
  -3   1  10    0.74    0.41
  -3   1  10    0.80    0.56
  -3   1  10    0.84    0.45
  -3   1   9    0.32    0.35
  -3   1   9   -0.20    0.40
  -3   1   9   -0.23    0.50
  -3   1   9    0.09    0.44
   3  -1  -8   27.36    3.85
  -3   1   8   22.75    1.55
  -3   1   8   24.72    1.70
   3  -1  -8   26.54    3.12
  -3   1   8   25.22    1.68
  -3   1   8   23.81    1.64
   3  -1  -7   68.20    5.35
  -3   1   7   67.59    2.57
  -3   1   7   70.93    2.70
   3  -1  -7   64.13    4.52
  -3   1   7   73.15    2.61
  -3   1   6   19.49    1.31
   3  -1  -6   14.69    2.44
   3  -1  -6   18.47    2.23
   3  -1  -6   15.17    1.68
  -3   1   6   20.17    1.29
   3  -1  -5  187.49    7.36
  -3   1   5  187.68    4.88
   3  -1  -5  183.73    6.30
   3  -1  -5  180.28    5.15
   3  -1  -4  108.19    5.03
  -3   1   4  100.44    3.52
   3  -1  -4  100.85    4.26
   3  -1  -4  101.12    3.43
   3  -1  -3  457.20    9.28
  -3   1   3  432.31    7.51
   3  -1  -3  446.81    8.17
   3  -1  -2  159.60    4.96
   3  -1  -2  151.87    4.44
  -3   1   2  154.34    4.17
   3  -1  -1   71.62    3.04
  -3   1   1   66.06    2.62
   3  -1  -1   66.30    2.77
   3  -1   0  367.70    6.04
   3  -1   0  373.53    6.47
  -3   1   0  370.62    6.08
   3  -1   1 1502.10   10.77
   3  -1   1 1469.75   11.37
  -3   1  -1 1495.49   12.64
   3  -1   1 1485.18   13.35
  -3   1  -2  392.49    6.93
   3  -1   2  385.86    6.65
   3  -1   2  396.31    7.35
  -3   1  -2  374.68    6.03
   3  -1   3   28.48    2.05
   3  -1   3   27.09    2.19
  -3   1  -3   24.95    1.94
  -3   1  -3   24.97    1.76
   3  -1   4   34.13    2.44
   3  -1   4   35.30    2.71
   3  -1   4   30.31    2.41
  -3   1  -4   33.12    2.23
  -3   1  -4   34.16    2.50
  -3   1  -5    2.29    0.77
   3  -1   5    1.26    0.78
   3  -1   5    1.76    0.88
  -3   1  -6  215.54    6.89
  -3   1  -6  223.66    4.22
   3  -1   6  223.23    6.81
   3  -1   7  114.49    3.27
   3  -1   7  111.96    3.40
  -3   1  -7  123.97    5.70
  -3   1  -7  121.45    3.30
   3  -1   8  202.73    4.56
   3  -1   8  192.93    4.61
  -3   1  -8  202.24    4.44
  -3   1  -9    7.11    0.89
   3  -1   9    6.84    0.94
   3  -1   9    7.29    0.96
   3  -1  10    1.31    0.58
   3  -1  10    1.41    0.51
  -3   1 -10    1.44    0.48
  -3   1 -11    0.21    0.25
   3  -1  11    0.32    0.37
   3  -1  12    1.74    0.37
  -3   0  12    0.69    0.23
  -3   0  12    1.40    0.36
  -3   0  12    0.66    0.27
  -3   0  11    0.15    0.43
  -3   0  11    1.06    0.38
  -3   0  11    0.60    0.31
  -3   0  10    7.09    0.80
  -3   0  10    5.40    0.82
  -3   0  10    6.29    0.84
  -3   0  10    7.26    1.04
  -3   0   9   11.75    1.23
  -3   0   9   11.55    1.12
  -3   0   9   10.39    1.12
  -3   0   9   10.14    1.10
   3   0  -8   14.82    2.80
  -3   0   8   17.25    1.44
  -3   0   8   20.02    1.46
  -3   0   8   18.97    1.47
   3   0  -8   18.20    2.60
  -3   0   8   18.19    1.39
  -3   0   7    0.66    0.37
  -3   0   7    0.23    0.36
   3   0  -7    0.22    0.71
  -3   0   7    0.70    0.41
  -3   0   7    0.65    0.35
   3   0  -7    0.03    1.23
   3   0  -6    2.22    1.09
  -3   0   6    1.99    0.49
  -3   0   6    3.20    0.63
  -3   0   6    2.56    0.53
   3   0  -6    1.71    0.78
   3   0  -5  123.00    5.67
   3   0  -5  110.99    4.91
   3   0  -5  111.15    3.81
  -3   0   5  125.58    4.27
   3   0  -4  224.14    6.99
  -3   0   4  214.60    5.44
   3   0  -4  223.78    6.25
   3   0  -4  224.95    4.62
   3   0  -3  152.73    5.27
   3   0  -3  145.25    4.60
   3   0  -3  151.27    3.15
  -3   0   3  144.36    4.28
  -3   0   2  959.98    9.06
   3   0  -2  974.32   11.75
   3   0  -1  472.61    7.10
   3   0  -1  459.30    3.66
  -3   0   1  475.53    5.85
   3   0   0  919.38    9.45
   3   0   0  903.48    7.28
   3   0   0  886.06    9.46
  -3   0   0  878.56    7.84
  -3   0   0  901.31    4.99
   3   0   1  185.36    3.99
   3   0   1  194.09    4.64
  -3   0  -1  187.56    3.82
  -3   0  -1  185.00    2.95
   3   0   2  126.33    4.04
   3   0   2  135.75    3.83
  -3   0  -2  128.02    3.51
  -3   0  -2  131.47    3.03
   3   0   3  386.56    7.21
   3   0   3  371.98    7.70
  -3   0  -3  370.30    5.97
   3   0   4  389.96    8.05
   3   0   4  387.00    8.58
   3   0   4  398.52    6.94
  -3   0  -4  382.24    6.91
   3   0   5   39.37    2.83
   3   0   5   33.49    2.42
  -3   0  -5   36.05    2.40
   3   0   6  198.60    6.85
  -3   0  -6  199.58    6.26
   3   0   6  199.73    5.91
   3   0   7    3.87    0.63
   3   0   7    3.38    1.10
   3   0   7    3.38    0.65
  -3   0  -7    4.14    1.11
  -3   0  -7    2.80    0.58
   3   0   8  229.17    4.81
   3   0   8  227.15    4.84
  -3   0  -8  243.97    8.23
  -3   0  -8  229.82    4.72
   3   0   9  212.11    4.79
   3   0   9  203.28    4.68
  -3   0  -9  207.33    4.56
   3   0  10   14.70    1.29
  -3   0 -10   13.48    1.18
   3   0  11   12.01    1.03
  -3   0 -11   10.65    0.94
   3   0  12    0.35    0.25
  -3   0 -12    0.47    0.25
  -3  -1  12   -0.02    0.21
  -3  -1  11   11.71    1.02
  -3  -1  11   11.06    0.87
  -3  -1  11    9.82    0.82
  -3  -1  10   24.79    1.42
  -3  -1  10   24.72    1.52
  -3  -1  10   25.71    1.51
  -3  -1  10   28.85    1.77
  -3  -1   9    1.17    0.53
  -3  -1   9    2.96    0.74
  -3  -1   9    1.70    0.59
  -3  -1   9    2.84    0.68
  -3  -1   8   65.28    2.66
  -3  -1   8   66.61    2.78
  -3  -1   8   60.39    2.52
   3   1  -8   56.89    4.60
  -3  -1   8   65.20    2.51
   3   1  -7   10.83    2.24
  -3  -1   7    8.78    1.03
  -3  -1   7    9.76    1.08
  -3  -1   7    9.80    1.02
   3   1  -7   10.77    1.98
  -3  -1   7    9.56    0.99
   3   1  -6   22.61    2.81
  -3  -1   6   22.92    1.45
  -3  -1   6   26.32    1.58
  -3  -1   6   23.89    1.48
   3   1  -6   18.27    2.28
  -3  -1   6   23.08    1.35
   3   1  -5   22.33    2.44
  -3  -1   5   24.92    2.13
   3   1  -5   21.59    2.17
  -3  -1   4   -0.31    0.62
   3   1  -4   -0.33    0.63
   3   1  -4    0.78    0.73
   3   1  -3   83.25    3.82
  -3  -1   3   82.89    3.44
   3   1  -3   83.04    3.42
   3   1  -2    6.86    1.13
  -3  -1   2    7.86    1.10
   3   1  -2    7.25    0.97
  -3  -1   1   45.26    1.35
  -3  -1   1   42.87    2.29
   3   1  -1   42.57    2.07
   3   1  -1   45.63    1.51
   3   1   0   16.75    1.31
   3   1   0   18.41    1.14
  -3  -1   0   18.15    0.81
   3   1   1    5.31    0.78
   3   1   1    6.41    0.91
  -3  -1  -1    5.97    0.36
  -3  -1  -1    6.23    0.57
   3   1   2  475.74    7.56
  -3  -1  -2  473.23    5.07
   3   1   2  470.87    7.20
  -3  -1  -2  475.03    5.75
   3   1   3  371.95    7.45
  -3  -1  -3  374.83    5.57
   3   1   3  374.41    7.15
   3   1   4  115.05    4.63
   3   1   4  111.30    4.15
  -3  -1  -4  113.72    3.59
   3   1   4  112.96    4.33
   3   1   5  136.98    5.17
  -3  -1  -5  139.01    4.53
   3   1   5  132.99    4.76
   3   1   6   25.68    2.47
  -3  -1  -6   26.50    2.21
   3   1   7   71.17    2.49
   3   1   7   71.24    2.44
  -3  -1  -7   72.82    4.06
  -3  -1  -7   78.12    2.60
   3   1   7   74.96    4.47
  -3  -1  -8   14.60    1.97
   3   1   8   13.22    1.19
   3   1   8   14.17    2.19
   3   1   8   14.63    1.24
  -3  -1  -8   14.75    1.26
   3   1   9    0.83    0.40
  -3  -1  -9    2.09    0.59
   3   1  10   30.04    1.72
  -3  -1 -10   27.16    1.65
  -3  -1 -11    1.48    0.49
   3   1  11    1.97    0.48
   3   1  12    2.37    0.40
  -3  -1 -12    2.59    0.44
  -3  -2  11    0.72    0.27
  -3  -2  11    1.04    0.35
  -3  -2  11    0.53    0.25
  -3  -2  10   -0.01    0.27
  -3  -2  10   -0.27    0.29
  -3  -2   9   13.29    1.19
  -3  -2   9   15.22    1.29
  -3  -2   9   14.31    1.34
  -3  -2   9   12.97    1.08
  -3  -2   8   15.01    1.31
  -3  -2   8   15.63    1.36
  -3  -2   8   19.30    1.33
  -3  -2   8   18.17    1.50
  -3  -2   7   68.65    2.68
  -3  -2   7   68.39    2.68
  -3  -2   7   73.36    2.86
  -3  -2   7   64.29    2.32
  -3  -2   7   68.40    2.40
  -3  -2   6   95.27    4.63
   3   2  -6   84.29    5.17
  -3  -2   6   81.31    2.64
  -3  -2   6   85.23    2.96
  -3  -2   6   88.36    2.93
   3   2  -6   79.39    4.52
  -3  -2   6   86.91    2.93
  -3  -2   6   80.70    2.55
   3   2  -5    0.15    0.54
   3   2  -5    0.40    0.75
   3   2  -4    2.26    0.79
   3   2  -4    3.06    1.05
  -3  -2   4    2.25    0.80
   3   2  -3    7.28    1.25
  -3  -2   3    8.21    1.22
   3   2  -3    7.22    1.02
   3   2  -2    0.94    0.34
  -3  -2   2    1.08    0.68
   3   2  -2    0.84    0.46
   3   2  -2    2.09    0.83
   3   2  -1    0.23    0.29
  -3  -2   1    0.73    0.68
   3   2  -1    0.61    0.36
   3   2   0   87.08    2.80
   3   2   0   84.92    2.83
   3   2   1   -0.12    0.40
  -3  -2  -1    0.50    0.46
   3   2   1    0.60    0.42
  -3  -2  -2  194.61    3.02
  -3  -2  -2  185.82    4.44
  -3  -2  -2  189.77    3.25
   3   2   2  183.76    4.73
   3   2   2  191.88    4.81
   3   2   3   17.07    1.62
   3   2   3   16.43    1.88
  -3  -2  -3   20.54    1.32
  -3  -2  -3   19.53    1.41
   3   2   3   20.18    1.77
  -3  -2  -4  848.76    8.57
  -3  -2  -4  880.86   10.00
   3   2   4  862.53   12.22
   3   2   5   31.93    2.61
   3   2   5   30.08    2.57
  -3  -2  -5   32.37    2.22
   3   2   6   39.60    3.12
  -3  -2  -6   38.68    2.67
   3   2   6   39.00    2.99
   3   2   7   28.54    2.91
  -3  -2  -7   30.67    2.64
  -3  -2  -7   26.21    1.55
  -3  -2  -8    9.60    1.69
   3   2   8   10.10    1.87
  -3  -2  -8    8.69    0.99
   3   2   9   37.96    1.86
  -3  -2  -9   37.09    2.00
   3   2   9   38.73    2.02
   3   2  10    0.88    0.40
   3   2  10    0.87    0.32
  -3  -2 -10    1.42    0.58
   3   2  11   23.12    1.29
  -3  -2 -11   25.61    1.49
  -3  -2 -12   10.66    0.83
  -3  -3  11    2.28    0.37
  -3  -3  10    0.12    0.21
  -3  -3  10   -0.13    0.33
  -3  -3   9    1.95    0.50
  -3  -3   9    1.34    0.43
  -3  -3   9    2.13    0.57
  -3  -3   8    1.96    0.51
  -3  -3   8    2.03    0.61
  -3  -3   8    0.96    0.60
  -3  -3   8    1.53    0.54
  -3  -3   7   19.36    1.38
  -3  -3   7   17.70    1.43
  -3  -3   7   20.84    1.51
  -3  -3   7   20.33    1.64
  -3  -3   7   19.83    1.37
  -3  -3   6    5.18    0.82
  -3  -3   6    5.63    0.79
  -3  -3   6    5.65    0.83
  -3  -3   6    6.40    0.93
  -3  -3   6    5.99    1.38
  -3  -3   6    5.40    0.85
   3   3  -5  145.98    6.35
  -3  -3   5  134.46    5.90
  -3  -3   5  149.18    3.73
  -3  -3   5  144.91    3.79
  -3  -3   5  143.07    3.61
  -3  -3   5  149.16    3.80
  -3  -3   5  138.79    3.45
  -3  -3   4   16.58    1.95
   3   3  -4   15.36    1.97
   3   3  -3   10.90    1.59
  -3  -3   3   15.39    1.92
  -3  -3   3   13.37    1.68
  -3  -3   2    2.33    0.78
   3   3  -2    2.92    0.68
   3   3  -1  422.47    5.84
   3   3  -1  431.87    7.26
  -3  -3   1  433.56    8.50
  -3  -3   0  884.58   11.52
   3   3   0  891.06    8.36
  -3  -3  -1   36.36    2.25
   3   3   1   39.31    1.91
   3   3   1   36.99    2.27
   3   3   2   50.24    2.42
   3   3   2   54.65    2.88
   3   3   2   46.60    3.12
  -3  -3  -2   51.56    2.54
   3   3   3    3.11    0.89
  -3  -3  -3    3.30    0.65
   3   3   3    4.82    1.14
  -3  -3  -3    2.72    0.60
  -3  -3  -4  177.93    4.76
   3   3   4  174.92    5.75
   3   3   4  175.16    6.46
   3   3   5   11.41    1.77
   3   3   5   12.20    1.77
  -3  -3  -5   14.97    1.61
   3   3   6   42.61    3.47
  -3  -3  -6   42.06    2.90
  -3  -3  -6   39.75    1.81
   3   3   6   37.73    3.20
  -3  -3  -7   57.66    3.73
  -3  -3  -7   58.26    2.34
   3   3   7   55.33    3.97
   3   3   7   55.88    4.09
   3   3   8    0.63    0.68
  -3  -3  -8   -0.42    0.34
  -3  -3  -8    0.19    0.43
  -3  -3  -9   53.77    2.40
   3   3   9   55.47    2.55
   3   3  10   85.56    2.97
  -3  -3 -10   87.06    2.94
   3   3  11    1.64    0.44
  -3  -3 -11    1.55    0.49
  -3  -3 -12   24.72    1.25
  -3  -4  10   10.79    0.81
  -3  -4   9    0.51    0.34
  -3  -4   9    0.65    0.29
  -3  -4   9    0.51    0.41
  -3  -4   8    1.56    0.44
  -3  -4   8    2.08    0.55
  -3  -4   8    0.82    0.40
  -3  -4   8    1.51    0.67
  -3  -4   7    2.23    0.61
  -3  -4   7    1.29    0.49
  -3  -4   7    0.84    0.53
  -3  -4   7    1.27    0.47
  -3  -4   7    1.77    0.61
  -3  -4   6   64.45    2.76
  -3  -4   6   64.05    2.63
  -3  -4   6   63.05    2.67
  -3  -4   6   68.45    2.68
  -3  -4   6   64.86    2.59
  -3  -4   5   21.78    1.58
  -3  -4   5   18.33    1.48
  -3  -4   5   20.73    1.52
  -3  -4   5   20.23    1.46
  -3  -4   5   16.71    2.37
  -3  -4   5   19.64    1.45
   3   4  -4  209.33    7.29
  -3  -4   4  200.39    7.57
  -3  -4   4  207.01    4.58
  -3  -4   4  195.49    4.43
  -3  -4   4  211.69    4.43
  -3  -4   4  199.66    7.34
  -3  -4   4  200.11    4.45
  -3  -4   4  203.57    4.29
  -3  -4   3    1.32    0.45
  -3  -4   3    2.07    0.48
  -3  -4   3    2.76    0.51
  -3  -4   3    1.90    0.53
  -3  -4   3    2.14    0.54
  -3  -4   3    1.14    0.70
   3   4  -3    1.55    0.80
  -3  -4   3    1.11    0.80
   3   4  -2    1.38    0.58
  -3  -4   2    1.44    0.63
   3   4  -2   -0.01    0.44
  -3  -4   1    0.10    0.67
   3   4  -1   -0.46    0.66
  -3  -4   1    1.05    0.61
   3   4  -1   -0.08    0.48
   3   4   0   83.40    4.31
  -3  -4   0   90.54    4.18
   3   4   0   84.92    3.86
   3   4   1    1.27    0.74
  -3  -4  -1    0.82    0.59
   3   4   1    0.14    0.64
   3   4   2   34.69    2.99
  -3  -4  -2   38.18    2.44
   3   4   2   38.29    2.73
  -3  -4  -3  102.95    3.76
   3   4   3  116.98    4.82
   3   4   3  109.89    5.44
   3   4   4   16.35    2.20
   3   4   4   15.85    1.96
  -3  -4  -5   10.37    1.40
   3   4   5   11.52    1.82
   3   4   5    7.91    1.73
  -3  -4  -6   17.15    1.23
  -3  -4  -6   17.19    1.96
  -3  -4  -6   18.54    1.30
   3   4   6   17.57    2.31
   3   4   6   17.25    2.51
   3   4   7   40.34    3.70
  -3  -4  -7   39.72    1.93
  -3  -4  -7   38.02    1.81
  -3  -4  -7   43.39    3.29
  -3  -4  -7   40.42    2.01
   3   4   7   42.20    3.66
  -3  -4  -8    9.50    0.99
   3   4   8   10.78    1.29
  -3  -4  -8    9.26    1.00
  -3  -4  -8   10.59    1.77
   3   4   9   -0.26    0.55
  -3  -4  -9    0.20    0.31
  -3  -4  -9    0.69    0.49
   3   4  10   26.65    1.73
  -3  -4 -10   27.87    1.71
   3   4  11    0.15    0.31
  -3  -4 -11    0.05    0.37
   3   4  12    1.60    0.35
  -3  -4 -12    1.32    0.33
  -3  -5   9    1.01    0.32
  -3  -5   9    0.66    0.22
  -3  -5   8    1.04    0.35
  -3  -5   8    1.16    0.42
  -3  -5   8    1.04    0.49
  -3  -5   7   11.65    1.09
  -3  -5   7   10.77    1.16
  -3  -5   7    7.97    0.89
  -3  -5   7   11.95    1.09
  -3  -5   6   10.89    1.14
  -3  -5   6   10.49    1.12
  -3  -5   6   10.39    1.19
  -3  -5   6   10.74    1.13
  -3  -5   5  125.26    3.79
  -3  -5   5  133.42    3.74
  -3  -5   5  128.57    3.86
  -3  -5   5  126.31    3.66
  -3  -5   5  129.43    3.83
  -3  -5   4  137.52    3.59
  -3  -5   4  130.58    3.68
  -3  -5   4  137.53    3.88
  -3  -5   4  136.81    3.90
  -3  -5   4  134.06    6.71
  -3  -5   4  141.39    6.75
  -3  -5   4  134.58    3.92
  -3  -5   4  132.01    3.68
  -3  -5   3   12.68    1.18
  -3  -5   3   12.10    2.02
  -3  -5   3   14.85    1.31
  -3  -5   3   13.70    1.21
  -3  -5   3   12.70    1.23
  -3  -5   3   12.14    1.20
  -3  -5   3   14.81    2.20
  -3  -5   3   12.51    1.12
  -3  -5   2    1.60    0.57
  -3  -5   2    0.84    0.51
  -3  -5   2    1.39    0.51
   3   5  -2    0.84    0.94
  -3  -5   2    1.59    0.49
  -3  -5   2    1.24    0.91
  -3  -5   2    0.96    0.45
  -3  -5   2    0.85    0.41
  -3  -5   2    0.92    0.58
  -3  -5   1    3.43    0.68
  -3  -5   1    3.70    0.65
   3   5  -1    3.68    1.09
  -3  -5   1    3.84    0.68
  -3  -5   1    3.06    1.02
  -3  -5   1    3.76    1.12
   3   5  -1    2.23    0.97
  -3  -5   1    3.31    0.61
  -3  -5   1    2.60    0.50
  -3  -5   1    3.16    0.66
  -3  -5   0    0.48    0.75
   3   5   0    0.23    0.86
  -3  -5   0    0.27    0.40
   3   5   0    2.21    0.99
   3   5   1    3.21    1.00
  -3  -5  -1    1.35    0.76
   3   5   1    3.86    1.15
  -3  -5  -2   21.17    2.14
   3   5   2   24.87    2.48
   3   5   2   25.01    2.86
   3   5   3    2.36    0.90
  -3  -5  -3    2.73    0.53
  -3  -5  -3    3.00    0.58
   3   5   3    3.15    1.39
  -3  -5  -4  114.86    3.06
  -3  -5  -4  120.60    3.25
  -3  -5  -4  113.69    3.24
   3   5   4  122.54    5.73
  -3  -5  -4  118.17    3.11
   3   5   4  111.16    6.23
  -3  -5  -5   29.46    1.69
   3   5   5   28.54    2.90
  -3  -5  -5   29.84    1.66
   3   5   5   26.53    3.11
  -3  -5  -6   26.90    1.68
  -3  -5  -6   26.89    1.65
   3   5   6   24.69    2.87
   3   5   6   27.05    3.25
   3   5   7    1.29    0.71
  -3  -5  -7    1.80    0.56
  -3  -5  -7    1.91    0.61
   3   5   8   86.78    3.34
  -3  -5  -8   81.01    2.80
  -3  -5  -8   82.56    3.02
   3   5   9    0.94    0.54
  -3  -5  -9    0.92    0.42
  -3  -5  -9    0.47    0.49
   3   5  10    4.89    0.80
  -3  -5 -10    3.73    0.69
   3   5  11    0.39    0.25
   3   5  11    0.78    0.33
  -3  -5 -11    0.25    0.32
   3   5  12    3.31    0.43
  -3  -5 -12    3.99    0.48
  -3  -6   8    5.46    0.51
  -3  -6   8    5.89    0.58
  -3  -6   7    1.16    0.44
  -3  -6   7    0.01    0.26
  -3  -6   6    2.35    0.60
  -3  -6   6    2.04    0.51
  -3  -6   6    2.85    0.63
  -3  -6   5    3.10    0.76
  -3  -6   5    2.70    0.64
  -3  -6   5    2.56    0.77
  -3  -6   4   84.52    3.01
  -3  -6   4   81.87    2.87
  -3  -6   4   81.54    3.07
  -3  -6   4   83.77    2.99
  -3  -6   3    0.84    0.52
  -3  -6   3    0.86    0.54
  -3  -6   3   -0.25    0.50
  -3  -6   3    1.19    0.73
  -3  -6   2   10.13    1.12
  -3  -6   2   11.45    1.27
  -3  -6   2   10.28    1.11
   3   6  -2    8.15    1.71
  -3  -6   2   13.51    2.35
  -3  -6   2    9.96    1.05
  -3  -6   1    5.30    0.92
  -3  -6   1    5.26    0.91
  -3  -6   1    3.92    0.64
  -3  -6   1    6.01    0.84
   3   6  -1    4.61    1.44
  -3  -6   1    5.21    1.57
  -3  -6   1    6.04    0.77
  -3  -6   0   18.84    1.43
  -3  -6   0   20.59    1.52
  -3  -6   0   20.34    2.49
  -3  -6   0   19.73    1.42
  -3  -6   0   19.86    1.29
   3   6   0   23.78    2.67
  -3  -6   0   20.85    1.35
  -3  -6  -1   27.45    1.72
   3   6   1   26.31    2.96
  -3  -6  -1   23.38    2.55
  -3  -6  -1   28.87    1.66
  -3  -6  -1   25.73    1.48
  -3  -6  -1   25.22    1.47
   3   6   1   26.50    2.87
  -3  -6  -2   43.15    2.12
  -3  -6  -2   43.06    1.98
  -3  -6  -2   41.62    1.91
   3   6   2   43.75    3.58
   3   6   2   45.69    3.98
  -3  -6  -3   36.37    1.92
   3   6   3   35.45    3.77
  -3  -6  -3   38.68    1.93
   3   6   3   35.63    3.32
  -3  -6  -3   33.25    1.69
  -3  -6  -4  158.35    3.83
  -3  -6  -4  166.30    4.10
   3   6   4  178.45    7.45
  -3  -6  -4  162.05    3.89
   3   6   4  163.20    8.02
   3   6   4  164.28    4.06
  -3  -6  -5  118.38    3.50
   3   6   5  114.86    3.58
   3   6   5  127.82    6.43
  -3  -6  -5  112.58    3.34
   3   6   5  112.85    6.80
   3   6   6    6.96    1.00
  -3  -6  -6    7.28    0.96
  -3  -6  -6    7.20    0.91
   3   6   7   31.45    2.00
  -3  -6  -7   32.12    1.86
  -3  -6  -7   32.36    1.91
  -3  -6  -8    8.27    0.96
   3   6   8    7.92    1.08
  -3  -6  -8    7.34    0.96
   3   6   9    2.27    0.63
  -3  -6  -9    1.56    0.44
  -3  -6  -9    1.81    0.50
   3   6  10    0.68    0.46
  -3  -6 -10    0.74    0.30
  -3  -6 -10    0.83    0.40
   3   6  11    0.85    0.27
  -3  -6 -11    1.54    0.37
   3   6  11    1.26    0.39
  -3  -7   7    2.24    0.38
  -3  -7   6    0.26    0.29
  -3  -7   6    0.21    0.29
  -3  -7   5    8.43    0.88
  -3  -7   5    8.61    0.91
  -3  -7   5    6.89    0.70
  -3  -7   4   25.22    1.59
  -3  -7   4   26.62    1.62
  -3  -7   4   22.38    1.49
  -3  -7   3    5.31    0.88
  -3  -7   3    6.06    0.85
  -3  -7   3    6.58    0.94
  -3  -7   2   11.12    1.19
  -3  -7   2   12.44    1.20
  -3  -7   2    9.48    0.94
  -3  -7   2   10.69    1.09
  -3  -7   1    9.67    1.16
  -3  -7   1    9.72    1.11
  -3  -7   1    9.22    0.92
  -3  -7   1   10.77    1.06
  -3  -7   0   13.33    1.32
  -3  -7   0   16.59    1.40
  -3  -7   0   15.55    1.19
  -3  -7   0   15.63    1.19
  -3  -7  -1   62.05    2.69
  -3  -7  -1   62.29    2.35
  -3  -7  -1   66.10    2.47
  -3  -7  -2   16.35    1.40
  -3  -7  -2   19.74    1.39
  -3  -7  -2   19.34    1.40
  -3  -7  -3   11.09    1.15
  -3  -7  -3   12.71    1.19
  -3  -7  -3   10.90    1.08
  -3  -7  -3   10.73    1.02
  -3  -7  -4  142.74    3.74
  -3  -7  -4  138.97    3.87
  -3  -7  -4  142.09    3.70
   3   7   5    2.27    0.55
  -3  -7  -5    3.12    0.75
  -3  -7  -5    1.49    0.58
   3   7   6   20.53    1.54
  -3  -7  -6   24.18    1.63
  -3  -7  -6   21.05    1.49
  -3  -7  -7   11.20    1.15
  -3  -7  -7    9.45    1.05
   3   7   8    0.44    0.43
  -3  -7  -8    0.59    0.40
  -3  -7  -8    0.31    0.38
   3   7   9    1.67    0.57
  -3  -7  -9    0.87    0.33
  -3  -7  -9    1.93    0.49
  -3  -7 -10    4.98    0.51
   3   7  10    5.50    0.67
  -3  -7 -10    6.36    0.69
   3   7  11   -0.17    0.21
  -3  -7 -11   -0.11    0.21
  -3  -8   6    0.73    0.21
  -3  -8   5    1.41    0.36
  -3  -8   4    0.05    0.27
  -3  -8   4   -0.42    0.33
  -3  -8   3    0.39    0.38
  -3  -8   3    0.55    0.39
  -3  -8   2    4.24    0.66
  -3  -8   2    4.66    0.81
  -3  -8   2    3.00    0.49
  -3  -8   1    0.40    0.29
  -3  -8   1    0.06    0.29
  -3  -8   1    0.83    0.60
  -3  -8   0   63.87    2.68
  -3  -8   0   64.36    2.34
  -3  -8  -1   14.78    1.37
  -3  -8  -1   12.95    1.11
  -3  -8  -2    0.81    0.50
  -3  -8  -2    0.44    0.35
  -3  -8  -2    1.00    0.40
  -3  -8  -3    0.56    0.42
  -3  -8  -3    1.12    0.46
  -3  -8  -3    0.66    0.42
  -3  -8  -4    6.34    0.82
  -3  -8  -4    4.48    0.76
  -3  -8  -4    6.04    0.83
  -3  -8  -5    0.73    0.47
  -3  -8  -5    0.48    0.39
   3   8   6    2.52    0.50
  -3  -8  -6    2.75    0.68
  -3  -8  -6    1.81    0.51
  -3  -8  -6    2.52    0.52
   3   8   7    6.79    0.75
  -3  -8  -7    6.23    0.79
  -3  -8  -7    6.03    0.75
   3   8   8    5.38    0.67
  -3  -8  -8    5.03    0.63
  -3  -8  -8    4.10    0.59
   3   8   9    1.58    0.37
  -3  -8  -9    1.33    0.30
  -3  -8  -9    1.46    0.35
  -3  -8 -10    2.80    0.36
  -3  -9   3    1.76    0.31
  -3  -9   2    0.03    0.27
  -3  -9   2    0.06    0.20
  -3  -9   1    3.22    0.58
  -3  -9   1    4.69    0.52
  -3  -9   0    1.23    0.52
  -3  -9   0    1.96    0.40
  -3  -9  -1    0.52    0.31
  -3  -9  -1   -0.04    0.39
  -3  -9  -2   -0.10    0.35
  -3  -9  -2   -0.04    0.25
  -3  -9  -3   -0.06    0.31
  -3  -9  -3    0.13    0.26
  -3  -9  -3    0.65    0.30
  -3  -9  -4    0.10    0.31
  -3  -9  -4    0.05    0.28
  -3  -9  -4    0.01    0.29
  -3  -9  -5    0.33    0.33
  -3  -9  -5    0.57    0.36
  -3  -9  -6    6.74    0.72
  -3  -9  -6    6.68    0.69
  -3  -9  -7    6.11    0.62
  -3  -9  -7    6.38    0.62
  -3  -9  -8    1.21    0.29
  -3  -9  -8    0.18    0.17
  -3 -10  -1    0.35    0.22
  -3 -10  -2    2.54    0.37
  -3 -10  -2    2.60    0.34
  -3 -10  -3   -0.05    0.21
  -3 -10  -3    0.06    0.16
  -3 -10  -4    3.07    0.38
   4  -9  -5    2.78    0.37
   4  -9  -4   16.54    0.94
  -4   9   4   15.11    0.78
   4  -9  -3    0.44    0.25
  -4   9   3    1.04    0.30
  -4   9   2   -0.33    0.25
  -4   9   1    3.58    0.51
  -4   9   0    0.19    0.22
  -4   9  -1    0.17    0.18
  -4   8   8    0.15    0.17
  -4   8   7    1.37    0.37
  -4   8   7    0.35    0.24
  -4   8   6    1.46    0.37
   4  -8  -6    1.78    0.40
   4  -8  -5    0.04    0.28
  -4   8   5    0.72    0.29
   4  -8  -4    0.21    0.35
  -4   8   4    0.33    0.31
   4  -8  -3   -0.44    0.39
  -4   8   3    0.31    0.34
   4  -8  -2    4.22    0.70
  -4   8   2    4.32    0.70
   4  -8  -1   10.77    1.01
  -4   8   1   12.05    1.08
   4  -8   0    5.10    0.62
   4  -8   0    5.31    0.70
  -4   8   0    7.28    0.87
   4  -8   1   36.59    1.62
  -4   8  -1   35.96    1.70
   4  -8   2    0.59    0.29
  -4   8  -2    1.05    0.38
   4  -8   3    6.87    0.69
  -4   8  -3    6.63    0.61
   4  -8   4    0.57    0.27
  -4   7   9   27.55    1.18
  -4   7   9   27.75    1.22
  -4   7   8    2.36    0.49
  -4   7   8    1.76    0.46
  -4   7   7    3.01    0.57
   4  -7  -7    4.24    0.54
   4  -7  -6    7.83    0.86
  -4   7   6    6.82    0.86
  -4   7   5    0.67    0.41
   4  -7  -5    0.22    0.40
  -4   7   5    0.46    0.37
   4  -7  -4    1.15    0.55
  -4   7   4    1.17    0.48
  -4   7   4    1.12    0.40
   4  -7  -3    0.23    0.47
  -4   7   3    0.46    0.46
   4  -7  -2    3.16    0.68
  -4   7   2    2.88    0.67
   4  -7  -1    0.94    0.51
   4  -7  -1    0.20    0.47
  -4   7   1   -0.50    0.56
   4  -7   0    5.54    0.84
   4  -7   0    5.11    0.88
  -4   7   0    5.62    0.87
   4  -7   1   48.28    2.23
   4  -7   1   43.82    2.12
  -4   7  -1   44.56    2.17
   4  -7   2   13.10    1.19
   4  -7   2   13.19    1.02
  -4   7  -2   14.02    1.21
   4  -7   3    2.49    0.60
  -4   7  -3    1.58    0.49
   4  -7   3    1.19    0.36
   4  -7   4   -0.41    0.37
   4  -7   4    0.21    0.29
  -4   7  -4    0.22    0.31
   4  -7   5    3.65    0.58
   4  -7   5    4.01    0.48
   4  -7   5    4.43    0.53
   4  -7   6    0.19    0.20
   4  -7   6    0.40    0.20
  -4   7  -6    0.00    0.19
  -4   6  10   -0.06    0.19
  -4   6  10   -0.04    0.24
  -4   6   9    0.70    0.37
  -4   6   9    0.57    0.35
  -4   6   8   14.65    1.21
  -4   6   8   16.28    1.25
  -4   6   7   12.25    1.20
  -4   6   6    6.01    0.92
   4  -6  -6    3.89    0.70
   4  -6  -5   45.95    2.29
  -4   6   5   45.48    2.24
  -4   6   4    1.33    0.56
   4  -6  -4    0.26    0.46
  -4   6   4    0.57    0.34
   4  -6  -3   12.56    1.25
  -4   6   3   13.20    1.20
   4  -6  -2    2.48    0.72
   4  -6  -1   -0.29    0.50
   4  -6   0   14.78    1.36
  -4   6   0   17.10    1.41
   4  -6   1   39.28    2.09
  -4   6  -1   40.36    2.13
   4  -6   2   32.35    2.01
   4  -6   2   34.65    1.90
   4  -6   2   36.15    1.76
  -4   6  -2   35.83    1.97
   4  -6   3   30.91    1.94
   4  -6   3   28.89    1.60
  -4   6  -3   28.52    1.73
   4  -6   4    1.14    0.58
   4  -6   4    1.30    0.49
  -4   6  -4    2.08    0.53
   4  -6   5   39.13    1.94
   4  -6   5   35.86    1.69
  -4   6  -5   36.58    1.63
   4  -6   6    3.67    0.54
   4  -6   6    2.69    0.52
   4  -6   6    3.73    0.61
  -4   6  -7    2.96    0.45
   4  -6   7    3.59    0.47
   4  -6   7    3.16    0.45
   4  -6   7    3.85    0.53
  -4   5  11    1.37    0.31
  -4   5  10    2.67    0.42
  -4   5  10    1.53    0.37
  -4   5  10    2.22    0.50
  -4   5  10    3.35    0.52
  -4   5   9   44.59    1.77
  -4   5   9   46.89    2.02
  -4   5   9   46.47    2.06
  -4   5   8   10.35    1.18
  -4   5   8    8.86    1.07
  -4   5   7   23.74    1.71
  -4   5   6    5.85    0.94
   4  -5  -6    5.62    0.79
   4  -5  -5   38.99    2.08
  -4   5   5   41.44    2.21
  -4   5   4   28.21    3.23
  -4   5   4   25.46    1.69
   4  -5  -4   24.55    1.68
  -4   5   4   26.82    1.52
   4  -5  -3   44.88    2.28
  -4   5   3   47.25    2.22
  -4   5   2    1.47    0.81
  -4   5   2    2.02    0.57
   4  -5  -2    1.92    0.51
  -4   5   1    0.26    1.01
  -4   5   1    0.73    0.43
   4  -5  -1    0.15    0.38
   4  -5  -1   -0.83    0.81
  -4   5   0   13.79    2.16
   4  -5   0   14.93    1.31
  -4   5   0   15.10    1.29
   4  -5   0   15.06    2.10
   4  -5   1    3.68    1.14
   4  -5   1    4.03    0.73
  -4   5  -1    4.73    1.35
  -4   5  -1    4.06    0.74
   4  -5   2   37.53    3.54
  -4   5  -2   38.84    3.71
   4  -5   2   32.96    1.87
  -4   5  -2   38.64    2.05
   4  -5   3   10.69    1.20
   4  -5   3   10.61    1.01
  -4   5  -3   11.94    1.17
   4  -5   4   39.00    2.17
   4  -5   4   37.32    1.86
  -4   5  -4   37.13    1.95
   4  -5   5    1.02    0.53
   4  -5   5    0.69    0.35
  -4   5  -5    0.57    0.38
   4  -5   6    0.00    0.38
   4  -5   6    0.42    0.35
   4  -5   7    0.57    0.32
   4  -5   7    0.72    0.35
   4  -5   7    0.50    0.38
  -4   5  -7    0.39    0.31
   4  -5   8   14.23    0.84
   4  -5   8   13.43    0.91
  -4   5  -8   14.87    0.97
   4  -5   9    1.81    0.32
  -4   4  11    2.29    0.35
  -4   4  11    2.17    0.43
  -4   4  11    2.56    0.40
  -4   4  11    1.93    0.34
  -4   4  10    0.55    0.33
  -4   4  10    0.88    0.44
  -4   4  10    0.99    0.39
  -4   4  10    0.74    0.33
  -4   4  10    0.23    0.33
  -4   4   9   10.69    1.07
  -4   4   9    8.63    0.91
  -4   4   9    9.78    1.01
  -4   4   9   10.10    1.08
  -4   4   8    7.45    1.03
  -4   4   8    7.92    0.92
  -4   4   8    7.93    1.00
  -4   4   8    7.24    0.94
  -4   4   7   29.46    1.67
  -4   4   7   29.25    1.87
  -4   4   7   30.98    1.89
  -4   4   6    0.65    0.48
   4  -4  -6    1.21    0.80
  -4   4   6    1.44    0.60
  -4   4   5   13.20    2.19
   4  -4  -5    8.43    2.04
   4  -4  -5    8.86    0.98
  -4   4   5    9.97    1.13
   4  -4  -5    9.42    1.76
  -4   4   5    9.91    1.04
  -4   4   4    2.55    0.84
   4  -4  -4    0.13    1.07
  -4   4   4    1.72    0.54
   4  -4  -4    1.27    0.44
   4  -4  -4    3.85    1.08
  -4   4   3   71.82    4.54
   4  -4  -3   63.13    4.65
   4  -4  -3   67.62    2.61
  -4   4   3   71.37    2.63
   4  -4  -3   68.29    3.95
   4  -4  -2   19.23    1.38
  -4   4   2   21.42    1.39
   4  -4  -2   22.40    2.23
   4  -4  -2   20.71    2.15
  -4   4   2   18.64    2.28
   4  -4  -1   55.20    2.30
   4  -4  -1   58.99    3.74
   4  -4  -1   58.41    3.50
  -4   4   1   52.50    3.80
   4  -4   0   83.23    2.81
   4  -4   0   89.88    4.34
  -4   4   0   81.77    2.66
   4  -4   0   84.51    4.63
  -4   4   0   88.62    4.87
   4  -4   1   17.30    2.00
   4  -4   1   18.54    1.36
   4  -4   1   16.42    2.15
  -4   4  -1   19.33    1.34
  -4   4  -1   20.57    2.44
  -4   4  -2    0.90    0.82
   4  -4   2    1.32    0.43
   4  -4   2    2.33    0.90
   4  -4   2    0.53    0.62
  -4   4  -2    1.17    0.48
  -4   4  -3    0.07    0.73
  -4   4  -3    0.16    0.56
   4  -4   3    0.21    1.01
  -4   4  -3   -0.30    0.42
  -4   4  -4    8.94    1.86
   4  -4   4    6.84    1.62
  -4   4  -4    6.17    1.32
   4  -4   4    5.79    0.80
  -4   4  -4    4.56    0.75
   4  -4   5    7.97    1.00
   4  -4   5    7.97    0.88
  -4   4  -5    7.27    0.87
   4  -4   6   33.43    1.91
   4  -4   6   35.48    1.85
   4  -4   7   31.16    1.67
   4  -4   7   31.46    1.71
   4  -4   7   31.14    1.91
  -4   4  -7   31.35    1.79
   4  -4   8    3.31    0.58
   4  -4   8    5.12    0.80
  -4   4  -8    3.85    0.62
   4  -4   9    7.50    0.72
   4  -4   9    8.43    0.82
  -4   4  -9    7.56    0.72
   4  -4  10    6.16    0.55
  -4   3  11    4.18    0.52
  -4   3  11    3.40    0.54
  -4   3  11    4.91    0.60
  -4   3  11    3.67    0.54
  -4   3  10    0.01    0.33
  -4   3  10    0.07    0.37
  -4   3  10    0.35    0.35
  -4   3  10    0.06    0.26
  -4   3  10    0.66    0.44
  -4   3   9    3.63    0.75
  -4   3   9    4.79    0.75
  -4   3   9    3.62    0.71
  -4   3   9    4.48    0.74
  -4   3   9    4.99    0.82
  -4   3   8    9.91    1.12
  -4   3   8   10.82    1.10
  -4   3   8    9.69    1.06
  -4   3   8   11.30    1.19
  -4   3   7    0.81    0.49
  -4   3   7    0.86    0.46
  -4   3   7    0.24    0.41
  -4   3   7   -0.14    0.45
   4  -3  -6    2.03    1.25
  -4   3   6    1.12    0.43
  -4   3   6    0.96    0.37
  -4   3   6    1.74    0.58
   4  -3  -6    2.70    1.25
  -4   3   6    0.54    0.39
  -4   3   5   18.95    2.38
   4  -3  -5   15.10    2.71
  -4   3   5   19.70    1.45
   4  -3  -5   17.09    2.18
  -4   3   5   18.20    1.35
  -4   3   4    0.89    0.78
   4  -3  -4    0.96    1.32
  -4   3   4   -0.21    0.40
   4  -3  -4    0.39    0.54
  -4   3   4    0.86    0.35
  -4   3   3   30.73    2.74
   4  -3  -3   34.16    3.41
   4  -3  -3   25.44    2.37
   4  -3  -2   59.76    4.01
   4  -3  -2   59.67    3.45
  -4   3   2   59.51    3.64
   4  -3  -1  252.27    7.48
   4  -3  -1  264.66    7.17
  -4   3   1  266.82    7.53
  -4   3   0    6.39    1.24
   4  -3   0    6.54    1.15
   4  -3   1  615.79   11.18
   4  -3   1  590.46   11.93
  -4   3  -1  630.55   11.90
   4  -3   2  137.70    5.59
   4  -3   2  147.41    6.18
  -4   3  -2  143.30    5.85
  -4   3  -3  238.30    7.93
   4  -3   3  223.83    7.53
  -4   3  -3  224.13    4.32
   4  -3   3  230.05    8.06
  -4   3  -3  220.50    6.93
  -4   3  -4    7.34    1.62
  -4   3  -4    5.53    1.19
   4  -3   4    7.63    1.56
  -4   3  -4    6.18    0.80
  -4   3  -5   10.81    1.92
  -4   3  -5   11.29    1.78
   4  -3   5   10.09    0.96
  -4   3  -5   10.11    0.98
   4  -3   5    9.72    1.74
   4  -3   6   74.89    2.77
   4  -3   6   79.49    2.73
   4  -3   7    6.55    0.83
   4  -3   7    7.12    0.87
   4  -3   7    5.53    0.87
  -4   3  -7    7.21    0.96
   4  -3   8    0.17    0.34
   4  -3   8    0.07    0.48
  -4   3  -8    0.32    0.38
   4  -3   9   -0.20    0.28
  -4   3  -9   -0.05    0.33
   4  -3   9    0.00    0.42
  -4   3 -10    0.91    0.28
   4  -3  10    1.46    0.36
   4  -3  10    1.58    0.44
   4  -3  11    2.53    0.34
  -4   2  12    0.66    0.24
  -4   2  12    0.56    0.22
  -4   2  11    0.02    0.21
  -4   2  11    0.10    0.30
  -4   2  11   -0.09    0.28
  -4   2  11    0.10    0.26
  -4   2  10    1.96    0.50
  -4   2  10    2.66    0.64
  -4   2  10    0.92    0.44
  -4   2  10    2.84    0.61
  -4   2   9   42.67    2.13
  -4   2   9   45.36    2.30
  -4   2   9   46.02    2.22
  -4   2   9   41.99    1.91
  -4   2   9   44.23    2.16
  -4   2   8    0.86    0.45
  -4   2   8    1.29    0.52
  -4   2   8    0.79    0.40
  -4   2   8    0.33    0.46
  -4   2   8    0.30    0.45
   4  -2  -7   27.76    3.99
  -4   2   7   32.58    1.92
  -4   2   7   33.15    1.84
  -4   2   7   33.09    1.85
   4  -2  -7   32.09    3.36
  -4   2   7   34.18    1.91
  -4   2   6    2.62    0.56
  -4   2   6    0.80    0.48
  -4   2   6    0.67    0.31
  -4   2   6    0.86    0.43
   4  -2  -6    0.27    0.81
  -4   2   6    0.44    0.42
   4  -2  -6    3.05    1.64
   4  -2  -5  137.25    7.19
  -4   2   5  129.05    3.14
  -4   2   5  134.38    3.51
   4  -2  -5  122.61    5.72
  -4   2   5  139.52    3.50
  -4   2   4   19.14    2.09
   4  -2  -4   22.13    2.29
   4  -2  -4   22.90    2.85
   4  -2  -3    0.03    0.88
  -4   2   3    0.84    0.60
   4  -2  -2   31.72    2.73
   4  -2  -2   33.47    2.48
  -4   2   2   27.18    2.27
   4  -2  -1  247.73    6.93
   4  -2  -1  245.68    6.60
  -4   2   1  248.52    6.53
  -4   2   0    5.64    1.08
   4  -2   0    5.82    1.00
   4  -2   0    6.81    1.18
   4  -2   1  776.83   11.97
  -4   2  -1  769.16   11.74
   4  -2   2  206.44    6.50
  -4   2  -2  214.72    5.69
  -4   2  -2  203.30    6.28
  -4   2  -3    4.84    1.09
  -4   2  -3    3.99    0.90
   4  -2   3    3.71    1.13
   4  -2   4   23.94    2.63
  -4   2  -4   21.12    2.26
   4  -2   4   25.72    2.73
  -4   2  -4   24.20    2.26
  -4   2  -5    5.52    1.33
   4  -2   5    6.23    0.78
   4  -2   5    6.45    1.46
  -4   2  -5    7.81    0.84
   4  -2   6   26.57    1.57
   4  -2   6   24.77    1.52
  -4   2  -6   28.54    2.81
   4  -2   6   23.68    2.72
  -4   2  -6   29.82    3.12
   4  -2   7    3.57    0.67
   4  -2   7    3.56    0.70
  -4   2  -7    3.76    0.71
   4  -2   8    1.55    0.54
  -4   2  -8    2.21    0.62
   4  -2   8    2.37    0.68
   4  -2   9    4.02    0.66
  -4   2  -9    5.48    0.81
   4  -2   9    4.72    0.82
  -4   2 -10    0.17    0.29
   4  -2  10    0.42    0.42
   4  -2  11    1.15    0.31
  -4   2 -11    0.84    0.26
  -4   1  12    1.59    0.31
  -4   1  12    1.56    0.28
  -4   1  11    8.29    0.79
  -4   1  11    8.68    0.82
  -4   1  11    7.08    0.72
  -4   1  11    7.51    0.69
  -4   1  10   57.06    2.22
  -4   1  10   60.14    2.40
  -4   1  10   58.30    2.38
  -4   1  10   61.44    2.32
  -4   1   9    0.17    0.39
  -4   1   9    0.13    0.47
  -4   1   9   -0.44    0.58
  -4   1   9   -0.23    0.40
  -4   1   8   29.89    1.86
  -4   1   8   31.33    1.89
  -4   1   8   28.27    1.76
  -4   1   8   30.23    1.89
   4  -1  -7    6.63    2.18
  -4   1   7    8.21    1.01
  -4   1   7    7.90    1.00
  -4   1   7    7.85    0.88
  -4   1   7    7.97    0.98
   4  -1  -7    5.46    1.44
  -4   1   7    6.09    0.85
   4  -1  -6   20.07    2.96
  -4   1   6   22.49    1.35
  -4   1   6   19.94    1.43
  -4   1   6   21.81    1.44
  -4   1   6   22.13    1.41
   4  -1  -6   23.93    2.78
  -4   1   6   21.30    1.42
   4  -1  -5   14.40    2.34
  -4   1   5   17.62    1.24
  -4   1   5   18.69    1.84
   4  -1  -5   16.16    2.16
  -4   1   5   17.65    1.21
   4  -1  -4  237.49    8.27
  -4   1   4  236.73    6.43
   4  -1  -4  216.48    6.95
  -4   1   3  742.19   10.88
   4  -1  -3  753.07   13.58
   4  -1  -3  765.69   12.14
   4  -1  -2  634.56   11.30
   4  -1  -2  619.88   10.39
  -4   1   2  615.02    9.39
   4  -1  -1   26.03    2.26
   4  -1  -1   27.80    2.15
  -4   1   1   22.76    1.79
   4  -1   0   46.55    2.67
   4  -1   0   49.36    2.86
  -4   1   0   45.67    2.49
   4  -1   1  743.54    9.62
   4  -1   1  715.05   11.06
  -4   1  -1  742.41    8.15
   4  -1   2  115.87    4.05
   4  -1   2  117.63    4.72
  -4   1  -2  116.35    3.57
  -4   1  -2  115.44    4.26
  -4   1  -3  314.80    7.50
   4  -1   3  333.28    7.58
   4  -1   3  327.58    8.40
  -4   1  -3  319.73    6.62
   4  -1   4   40.14    2.95
   4  -1   4   43.06    3.35
  -4   1  -4   45.14    2.75
  -4   1  -4   47.53    3.13
  -4   1  -5   13.25    1.86
   4  -1   5   10.33    1.66
  -4   1  -5   14.66    1.72
  -4   1  -6   14.11    2.06
   4  -1   6   14.32    1.12
  -4   1  -6   12.71    1.03
   4  -1   6   11.77    1.87
  -4   1  -6   16.22    2.00
  -4   1  -6   13.53    1.16
  -4   1  -7    6.76    1.47
  -4   1  -7    8.48    1.72
   4  -1   7    7.76    0.87
   4  -1   7    8.07    1.03
  -4   1  -7    8.02    0.94
   4  -1   8   37.26    1.96
   4  -1   8   38.55    2.10
  -4   1  -8   39.58    2.07
   4  -1   9   19.79    1.43
   4  -1   9   19.06    1.45
  -4   1  -9   20.26    1.46
   4  -1  10    0.64    0.45
  -4   1 -10    0.50    0.44
   4  -1  11    0.90    0.35
  -4   1 -11    0.25    0.23
  -4   0  12    7.46    0.59
  -4   0  11   14.55    0.88
  -4   0  11   14.75    1.00
  -4   0  11   16.53    1.11
  -4   0  11   16.89    1.00
  -4   0  10    0.13    0.29
  -4   0  10   -0.15    0.38
  -4   0  10    0.15    0.43
  -4   0  10    0.33    0.36
  -4   0   9   21.41    1.51
  -4   0   9   24.71    1.67
  -4   0   9   24.24    1.68
  -4   0   9   23.80    1.53
  -4   0   8    0.43    0.51
  -4   0   8    0.75    0.46
  -4   0   8    0.55    0.42
  -4   0   8    0.52    0.35
   4   0  -7   32.59    3.97
  -4   0   7   29.69    1.81
  -4   0   7   30.80    1.87
  -4   0   7   30.18    1.82
   4   0  -7   30.64    3.32
  -4   0   7   28.79    1.68
   4   0  -6   26.30    3.26
  -4   0   6   24.16    1.44
  -4   0   6   27.30    1.67
  -4   0   6   26.09    1.66
  -4   0   6   26.71    1.62
   4   0  -6   23.72    2.71
  -4   0   6   24.65    1.48
   4   0  -5   53.08    4.27
  -4   0   5   54.13    2.18
  -4   0   5   50.44    2.11
  -4   0   5   53.09    3.24
   4   0  -5   45.67    3.47
   4   0  -4  128.40    5.93
  -4   0   4  123.06    4.77
   4   0  -4  121.38    5.15
   4   0  -3  230.35    7.38
  -4   0   3  219.12    6.11
   4   0  -3  216.03    6.37
  -4   0   2  110.13    3.43
   4   0  -2   97.76    4.34
   4   0  -2   98.68    4.03
  -4   0   1   -0.06    0.36
   4   0  -1    0.13    0.69
   4   0  -1    0.47    0.48
   4   0   0  106.65    3.93
   4   0   0  109.57    2.90
   4   0   0  108.03    4.02
  -4   0   0  111.75    3.28
   4   0   1  378.85    6.99
   4   0   1  371.07    6.29
   4   0   1  359.07    7.54
  -4   0  -1  373.07    6.20
  -4   0  -2    2.23    0.59
  -4   0  -2    0.98    0.40
   4   0   2    1.29    0.52
   4   0   2    0.02    0.71
   4   0   2    0.77    0.56
   4   0   3  197.06    5.77
   4   0   3  191.19    6.30
  -4   0  -3  209.56    4.70
  -4   0  -3  196.81    5.32
  -4   0  -4    1.46    0.79
  -4   0  -4    1.29    0.53
   4   0   4    1.12    0.69
   4   0   4    1.24    0.75
  -4   0  -5   12.63    1.67
   4   0   5   14.33    1.95
  -4   0  -5   13.32    1.59
  -4   0  -6    3.21    1.15
  -4   0  -6    1.53    0.62
   4   0   6    1.45    0.84
   4   0   6    1.31    0.37
   4   0   6    0.68    0.94
  -4   0  -6    1.39    0.44
  -4   0  -6    1.84    0.52
   4   0   7  105.48    3.11
   4   0   7  106.84    3.23
  -4   0  -7  113.61    5.30
   4   0   7  113.80    6.00
  -4   0  -7  113.88    3.35
  -4   0  -7  118.68    5.81
   4   0   8  149.90    3.88
   4   0   8  154.03    3.96
  -4   0  -8  158.41    4.07
   4   0   9    0.74    0.43
  -4   0  -9    0.89    0.53
   4   0  10    0.66    0.45
  -4   0 -10    0.00    0.37
   4   0  11    2.83    0.49
  -4   0 -11    3.81    0.60
  -4   0 -12    4.21    0.45
  -4  -1  11    0.25    0.23
  -4  -1  11    0.00    0.16
  -4  -1  10    6.39    0.73
  -4  -1  10    5.24    0.73
  -4  -1  10    5.69    0.77
  -4  -1  10    7.07    0.72
  -4  -1   9    4.41    0.79
  -4  -1   9    4.65    0.79
  -4  -1   9    4.29    0.82
  -4  -1   9    2.99    0.55
  -4  -1   8   19.86    1.50
  -4  -1   8   19.17    1.51
  -4  -1   8   20.48    1.58
  -4  -1   8   22.12    1.45
  -4  -1   7   27.55    1.57
   4   1  -7   25.45    3.75
  -4  -1   7   26.77    1.74
  -4  -1   7   26.67    1.75
  -4  -1   7   27.47    1.79
   4   1  -7   20.42    2.61
  -4  -1   7   26.00    1.54
   4   1  -6   85.14    5.76
  -4  -1   6   84.33    2.74
  -4  -1   6   85.55    3.01
  -4  -1   6   88.50    3.04
  -4  -1   6   86.47    2.97
   4   1  -6   83.22    4.98
  -4  -1   6   81.99    2.59
  -4  -1   5    1.89    0.46
  -4  -1   5    1.26    0.39
  -4  -1   5    1.95    0.53
  -4  -1   5    2.47    0.58
  -4  -1   5    1.97    0.80
   4   1  -5    1.03    0.75
   4   1  -5    2.08    1.18
   4   1  -4    5.41    1.35
  -4  -1   4    5.16    1.13
   4   1  -4    4.06    0.88
   4   1  -3   25.02    2.49
  -4  -1   3   25.50    2.19
   4   1  -3   29.12    2.38
   4   1  -2  284.02    7.53
  -4  -1   2  282.97    7.01
   4   1  -2  261.98    6.44
   4   1  -1   31.90    2.42
  -4  -1   1   34.36    2.40
   4   1  -1   30.79    2.10
   4   1   0  102.80    3.03
   4   1   0   95.39    3.68
  -4  -1  -1    4.61    0.57
   4   1   1    3.15    0.73
   4   1   2  359.94    7.72
   4   1   2  364.07    7.21
  -4  -1  -2  381.48    5.80
   4   1   3   27.39    2.37
  -4  -1  -3   30.38    1.89
  -4  -1  -4    2.22    0.73
  -4  -1  -4    0.38    0.32
   4   1   4    2.18    0.96
   4   1   4    1.97    0.80
   4   1   4    1.82    0.63
   4   1   5   44.80    3.32
   4   1   5   47.59    3.22
  -4  -1  -5   46.89    2.71
  -4  -1  -6    4.89    1.07
   4   1   6    5.74    1.52
  -4  -1  -6    5.60    0.72
  -4  -1  -6    5.23    0.69
  -4  -1  -7    1.27    0.64
  -4  -1  -7    0.53    0.39
   4   1   8   22.64    1.46
  -4  -1  -8   25.26    2.65
  -4  -1  -8   22.28    1.55
   4   1   9   15.94    1.23
  -4  -1  -9   16.27    1.38
   4   1  10    1.46    0.41
  -4  -1 -10    0.95    0.53
   4   1  11    4.85    0.57
  -4  -1 -11    4.52    0.67
  -4  -1 -12    0.17    0.24
  -4  -2  11    2.60    0.34
  -4  -2  11    2.88    0.44
  -4  -2  10    0.52    0.33
  -4  -2  10    0.04    0.27
  -4  -2  10   -0.18    0.44
  -4  -2   9   32.81    1.75
  -4  -2   9   32.33    1.76
  -4  -2   9   34.06    1.91
  -4  -2   8   34.28    1.95
  -4  -2   8   38.77    2.07
  -4  -2   8   37.54    2.11
  -4  -2   7   78.51    2.74
  -4  -2   7   81.12    3.03
  -4  -2   7   77.90    2.95
  -4  -2   7   80.40    3.06
  -4  -2   6   10.54    1.14
  -4  -2   6    9.85    1.05
  -4  -2   6   10.69    1.13
  -4  -2   6    8.50    1.02
   4   2  -6    8.56    2.09
  -4  -2   6   11.52    1.08
  -4  -2   5    1.87    0.52
  -4  -2   5    1.60    0.51
  -4  -2   5    1.71    0.52
  -4  -2   5    1.41    0.39
  -4  -2   5    0.50    0.43
  -4  -2   5    2.52    0.97
   4   2  -5    0.86    0.68
   4   2  -5   -0.34    1.23
   4   2  -4   38.33    3.39
  -4  -2   4   42.05    1.88
  -4  -2   4   44.15    1.99
  -4  -2   4   43.74    1.93
  -4  -2   4   37.46    2.96
   4   2  -4   40.97    2.92
  -4  -2   4   41.92    1.80
  -4  -2   3  148.20    5.61
   4   2  -3  142.27    4.93
   4   2  -3  153.65    6.12
   4   2  -2   74.94    4.02
  -4  -2   2   73.96    3.80
   4   2  -2   76.34    3.37
  -4  -2   1   27.63    2.29
   4   2  -1   25.23    1.87
  -4  -2   0  281.29    6.85
   4   2   0  280.21    6.18
   4   2   0  282.68    5.56
   4   2   1    0.78    0.57
  -4  -2  -1    0.37    0.55
   4   2   1   -0.50    0.55
   4   2   2  421.53    8.31
  -4  -2  -2  442.03    8.09
   4   2   2  424.74    8.08
   4   2   3  141.18    5.26
  -4  -2  -3  150.52    4.61
   4   2   3  157.69    5.35
   4   2   4  104.16    4.96
   4   2   4  104.04    4.83
  -4  -2  -4  105.68    3.75
   4   2   4  102.64    4.71
   4   2   5   51.83    3.69
   4   2   5   45.89    3.37
  -4  -2  -6    0.50    0.49
   4   2   6    0.36    1.01
  -4  -2  -6    0.27    0.34
  -4  -2  -6    1.36    0.46
  -4  -2  -7    0.90    0.79
   4   2   7   -0.02    0.77
  -4  -2  -7    1.01    0.48
  -4  -2  -7   -0.01    0.41
  -4  -2  -8    0.30    0.45
  -4  -2  -9    1.77    0.54
   4   2  10    8.28    0.86
  -4  -2 -10    8.77    1.01
  -4  -2 -11    1.64    0.46
  -4  -2 -12   12.74    0.85
  -4  -3  10   12.79    0.78
  -4  -3  10   12.10    0.83
  -4  -3  10   14.28    0.99
  -4  -3   9   15.47    1.14
  -4  -3   9   17.31    1.31
  -4  -3   9   13.60    1.07
  -4  -3   8   -0.17    0.42
  -4  -3   8    0.22    0.42
  -4  -3   8   -0.52    0.61
  -4  -3   7   40.65    2.04
  -4  -3   7   39.26    2.12
  -4  -3   7   40.00    2.21
  -4  -3   7   38.02    2.07
  -4  -3   7   38.89    1.91
  -4  -3   6   44.51    2.29
  -4  -3   6   45.26    2.28
  -4  -3   6   46.98    2.29
  -4  -3   6   42.24    2.12
  -4  -3   6   44.41    2.08
   4   3  -5   55.09    4.44
  -4  -3   5   55.81    2.39
  -4  -3   5   59.42    4.14
  -4  -3   5   54.99    2.46
  -4  -3   5   55.66    2.44
  -4  -3   5   52.79    2.27
  -4  -3   5   54.48    2.45
   4   3  -4  132.21    6.24
  -4  -3   4  140.32    3.66
  -4  -3   4  135.63    3.67
  -4  -3   4  129.95    5.96
  -4  -3   4  135.95    3.58
  -4  -3   4  140.95    3.73
  -4  -3   4  136.20    3.49
   4   3  -3   -0.18    0.88
  -4  -3   3   -0.05    0.35
  -4  -3   3    0.06    0.36
  -4  -3   3   -0.02    0.35
  -4  -3   3    0.69    0.38
  -4  -3   3   -0.75    0.52
  -4  -3   3    0.84    0.82
   4   3  -2  101.42    5.01
  -4  -3   2  100.94    4.79
  -4  -3   1  130.08    5.20
   4   3  -1  121.13    4.05
   4   3   0   10.46    1.19
  -4  -3   0   10.56    1.43
   4   3   0   11.89    1.39
  -4  -3  -1  247.90    6.60
   4   3   1  249.55    5.87
   4   3   1  245.45    6.22
  -4  -3  -2   19.01    1.80
   4   3   2   15.86    1.58
   4   3   2   21.30    1.98
   4   3   2   19.05    2.26
   4   3   3    9.42    1.76
  -4  -3  -3   11.24    1.35
   4   3   3    8.85    1.43
   4   3   3    9.40    1.41
   4   3   4  101.63    5.38
   4   3   4  105.98    4.93
  -4  -3  -5   67.42    2.37
  -4  -3  -5   69.05    2.30
   4   3   5   72.53    4.43
   4   3   5   70.78    4.69
  -4  -3  -6   -0.03    0.34
  -4  -3  -6   -0.33    0.37
   4   3   6    0.93    0.89
  -4  -3  -7   -0.04    0.37
  -4  -3  -7   -0.12    0.45
  -4  -3  -8   18.37    1.42
   4   3   9   67.21    2.80
  -4  -3  -9   64.69    2.30
   4   3  10   16.05    1.30
  -4  -3 -10   15.66    1.32
   4   3  11   13.20    0.96
  -4  -3 -11   12.37    1.02
  -4  -3 -12   -0.22    0.20
  -4  -4  10    0.05    0.19
  -4  -4   9    3.27    0.50
  -4  -4   9    2.22    0.42
  -4  -4   9    3.76    0.62
  -4  -4   8    6.82    0.81
  -4  -4   8    7.04    0.90
  -4  -4   8    6.28    0.81
  -4  -4   7    3.09    0.63
  -4  -4   7    3.82    0.76
  -4  -4   7    4.21    0.78
  -4  -4   7    3.28    0.71
  -4  -4   7    2.57    0.72
  -4  -4   6    0.07    0.43
  -4  -4   6    0.46    0.52
  -4  -4   6    0.04    0.52
  -4  -4   6    1.45    0.61
  -4  -4   6   -0.17    0.57
  -4  -4   5    6.23    0.90
  -4  -4   5    4.22    0.79
  -4  -4   5    4.78    0.83
  -4  -4   5    4.44    0.82
  -4  -4   5    5.67    0.90
  -4  -4   5    6.88    1.70
   4   4  -4   20.07    2.61
  -4  -4   4   23.90    1.63
  -4  -4   4   21.79    2.64
  -4  -4   4   24.93    1.69
  -4  -4   4   25.24    1.65
  -4  -4   4   22.22    1.61
  -4  -4   4   23.19    1.59
  -4  -4   3   67.74    2.42
   4   4  -3   70.64    4.59
  -4  -4   3   69.38    2.65
  -4  -4   3   61.65    4.29
  -4  -4   3   67.84    2.54
  -4  -4   3   66.27    2.61
  -4  -4   3   68.49    2.67
  -4  -4   3   67.82    2.51
  -4  -4   2  130.52    3.35
   4   4  -2  120.43    5.86
   4   4  -2  129.18    5.74
  -4  -4   2  129.37    3.33
  -4  -4   2  126.44    3.42
  -4  -4   2  128.76    3.45
  -4  -4   2  127.07    5.82
  -4  -4   2  129.79    3.47
  -4  -4   2  131.91    3.36
  -4  -4   1   23.48    2.51
   4   4  -1   20.39    1.98
   4   4  -1   22.16    2.50
  -4  -4   0   25.71    2.48
   4   4   0   24.81    2.20
   4   4   0   23.88    2.59
   4   4   1    0.19    0.68
  -4  -4  -1   -0.04    0.73
   4   4   1   -0.29    0.76
   4   4   2    1.40    0.94
   4   4   2    2.43    1.00
  -4  -4  -2    2.73    0.82
  -4  -4  -3   31.11    2.33
  -4  -4  -3   31.48    1.66
   4   4   3   25.12    2.47
   4   4   3   28.57    3.12
  -4  -4  -4   53.20    2.12
   4   4   4   51.06    4.24
  -4  -4  -4   52.41    2.19
   4   4   4   50.43    3.69
  -4  -4  -5   30.11    1.60
  -4  -4  -5   31.47    1.76
   4   4   5   29.70    3.33
  -4  -4  -5   32.63    1.66
   4   4   5   33.65    3.14
   4   4   6    0.16    0.87
  -4  -4  -6    0.18    0.40
  -4  -4  -6    0.09    0.35
  -4  -4  -7   -0.06    0.44
  -4  -4  -7   -0.30    0.38
  -4  -4  -8    4.44    0.74
  -4  -4  -8    3.75    0.64
  -4  -4  -8    4.49    0.78
   4   4   9    0.67    0.52
  -4  -4  -9    0.68    0.40
  -4  -4  -9    0.62    0.49
   4   4  10   11.36    1.15
  -4  -4 -10   13.27    1.16
   4   4  11    0.15    0.33
  -4  -4 -11   -0.02    0.33
  -4  -4 -12    0.02    0.19
  -4  -5   9   -0.12    0.15
  -4  -5   8    0.14    0.26
  -4  -5   8    0.44    0.38
  -4  -5   7    0.37    0.33
  -4  -5   7    0.23    0.41
  -4  -5   7    0.11    0.37
  -4  -5   7    0.59    0.49
  -4  -5   6   40.53    2.07
  -4  -5   6   41.54    2.08
  -4  -5   6   39.40    2.11
  -4  -5   6   40.52    2.20
  -4  -5   6   42.33    2.04
  -4  -5   5  154.50    4.22
  -4  -5   5  157.54    4.11
  -4  -5   5  159.88    4.29
  -4  -5   5  161.07    4.34
  -4  -5   5  158.79    4.07
  -4  -5   4    7.29    0.87
  -4  -5   4    7.56    1.08
  -4  -5   4    8.24    1.06
  -4  -5   4    9.17    1.16
  -4  -5   4    7.96    0.98
  -4  -5   4    8.89    1.02
  -4  -5   3    0.23    0.39
  -4  -5   3    0.59    0.59
  -4  -5   3   -0.03    0.43
  -4  -5   3   -1.04    0.58
  -4  -5   3    0.49    0.49
  -4  -5   3    0.01    0.48
  -4  -5   3    0.21    0.77
   4   5  -3    0.02    1.11
  -4  -5   2   14.75    1.27
   4   5  -2   10.57    1.79
  -4  -5   2   14.96    1.35
  -4  -5   2   12.18    1.15
  -4  -5   2   12.99    1.24
  -4  -5   2   13.77    1.29
  -4  -5   2   14.73    2.22
  -4  -5   2   14.40    1.22
  -4  -5   1   25.69    1.67
  -4  -5   1   25.55    1.64
  -4  -5   1   26.73    2.88
  -4  -5   1   23.70    1.56
  -4  -5   1   24.82    1.55
   4   5  -1   26.50    2.83
  -4  -5   1   24.77    1.51
   4   5   0    3.21    1.27
  -4  -5   0    1.92    0.54
  -4  -5   0    1.52    0.46
  -4  -5   0    1.29    0.52
  -4  -5   0    1.34    0.43
  -4  -5   0    1.90    0.55
   4   5   0    2.41    0.88
  -4  -5   0    1.83    1.03
  -4  -5  -1    5.35    0.80
  -4  -5  -1    4.87    0.74
  -4  -5  -1    4.07    0.65
   4   5   1    3.11    1.10
  -4  -5  -1    3.92    1.22
  -4  -5  -1    2.64    0.51
   4   5   1    4.26    1.25
  -4  -5  -2   31.29    1.77
   4   5   2   28.62    3.32
  -4  -5  -2   29.73    1.52
  -4  -5  -2   30.86    2.69
  -4  -5  -2   28.70    1.58
  -4  -5  -2   27.19    1.65
   4   5   2   33.77    3.07
  -4  -5  -3  117.39    3.35
  -4  -5  -3  116.95    3.26
  -4  -5  -3  117.62    3.42
   4   5   3  122.98    5.85
   4   5   3  115.30    6.63
  -4  -5  -4  339.38    5.61
  -4  -5  -4  346.16    5.77
  -4  -5  -4  340.80    5.92
   4   5   4  353.73   10.23
  -4  -5  -4  330.98    5.19
  -4  -5  -5  135.21    3.49
  -4  -5  -5  133.61    3.68
  -4  -5  -5  130.96    3.72
  -4  -5  -5  135.12    3.51
   4   5   5  144.31    6.74
   4   5   5  136.90    7.48
  -4  -5  -6    3.35    0.71
  -4  -5  -6    4.57    0.85
  -4  -5  -6    4.44    0.75
  -4  -5  -7    4.70    0.82
  -4  -5  -7    4.13    0.74
   4   5   8   32.73    2.07
  -4  -5  -8   28.22    1.70
  -4  -5  -8   31.64    1.84
   4   5   9    1.82    0.66
  -4  -5  -9    1.87    0.47
  -4  -5  -9    2.52    0.67
   4   5  10   25.47    1.58
  -4  -5 -10   22.56    1.18
  -4  -5 -10   27.28    1.54
   4   5  11    1.86    0.43
  -4  -5 -11    1.20    0.37
  -4  -5 -12    1.74    0.29
  -4  -6   8    1.53    0.29
  -4  -6   7   24.16    1.25
  -4  -6   7   24.84    1.24
  -4  -6   6    6.72    0.81
  -4  -6   6    6.48    0.84
  -4  -6   5   10.57    1.09
  -4  -6   5   10.21    1.11
  -4  -6   4   34.94    1.82
  -4  -6   4   40.18    2.21
  -4  -6   4   39.45    2.08
  -4  -6   4   34.78    2.05
  -4  -6   4   41.64    2.09
  -4  -6   3    2.48    0.61
  -4  -6   3    2.74    0.60
  -4  -6   3    4.17    0.87
  -4  -6   3    4.45    0.90
  -4  -6   3    3.81    0.78
  -4  -6   2    1.46    0.52
  -4  -6   2    1.45    0.53
  -4  -6   2    1.98    0.71
  -4  -6   2    2.55    0.70
  -4  -6   1    9.82    1.14
  -4  -6   1    9.20    1.13
  -4  -6   1    7.28    0.90
  -4  -6   1    7.57    0.95
  -4  -6   1    5.27    1.37
  -4  -6   0   78.28    2.98
  -4  -6   0   76.64    2.83
  -4  -6   0   82.57    5.11
  -4  -6   0   76.83    2.76
   4   6   0   75.68    4.79
  -4  -6   0   80.93    2.65
  -4  -6  -1   48.90    2.37
  -4  -6  -1   45.77    3.71
  -4  -6  -1   45.63    2.14
  -4  -6  -1   44.41    2.07
  -4  -6  -1   46.99    1.99
   4   6   1   53.57    4.09
   4   6   1   38.82    3.87
  -4  -6  -2    6.99    0.99
   4   6   2    4.51    1.27
  -4  -6  -2    4.07    0.66
   4   6   2    2.69    1.22
  -4  -6  -3   82.79    2.99
  -4  -6  -3   82.49    2.85
   4   6   3   91.33    5.45
   4   6   3   86.23    6.00
  -4  -6  -4   72.73    2.72
  -4  -6  -4   73.38    2.76
  -4  -6  -5  184.09    4.16
  -4  -6  -5  192.42    4.54
  -4  -6  -5  189.83    4.23
   4   6   6   18.79    1.57
  -4  -6  -6   16.74    1.40
  -4  -6  -6   18.38    1.39
   4   6   7    0.43    0.46
  -4  -6  -7    0.41    0.47
  -4  -6  -7   -0.26    0.37
   4   6   8   18.13    1.54
  -4  -6  -8   19.94    1.40
  -4  -6  -8   17.99    1.36
   4   6   9   12.68    1.20
  -4  -6  -9   10.92    0.95
  -4  -6  -9   11.48    1.03
   4   6  10    1.03    0.42
  -4  -6 -10    0.17    0.22
  -4  -6 -10    1.13    0.40
   4   6  11    0.54    0.26
  -4  -6 -11    1.40    0.31
  -4  -7   6   16.53    0.97
  -4  -7   6   16.64    0.98
  -4  -7   5   -0.14    0.36
  -4  -7   5    0.37    0.42
  -4  -7   4    2.93    0.60
  -4  -7   4    2.70    0.61
  -4  -7   4    3.72    0.59
  -4  -7   3   -0.30    0.54
  -4  -7   3    0.39    0.41
  -4  -7   3    0.14    0.38
  -4  -7   2    0.77    0.48
  -4  -7   2    0.84    0.52
  -4  -7   2    1.09    0.59
  -4  -7   1   24.01    1.68
  -4  -7   1   25.63    1.53
  -4  -7   1   26.95    1.72
  -4  -7   0   31.81    1.97
  -4  -7   0   34.86    1.71
  -4  -7   0   32.52    1.87
  -4  -7  -1   62.39    2.71
  -4  -7  -2   10.40    1.14
  -4  -7  -2    8.66    0.94
  -4  -7  -3   -0.60    0.54
  -4  -7  -3    0.03    0.35
  -4  -7  -3    0.48    0.36
  -4  -7  -4   11.69    1.17
  -4  -7  -4   11.07    1.10
  -4  -7  -4   11.55    1.04
  -4  -7  -5   10.34    1.00
   4   7   5   11.19    1.10
  -4  -7  -5   10.05    1.10
  -4  -7  -5   10.16    0.99
   4   7   6   16.36    1.32
  -4  -7  -6   17.13    1.36
  -4  -7  -6   17.04    1.27
   4   7   7   15.65    1.28
  -4  -7  -7   17.97    1.35
  -4  -7  -7   17.57    1.26
   4   7   8    0.60    0.45
  -4  -7  -8    0.25    0.35
  -4  -7  -8    0.67    0.37
   4   7   9    2.62    0.56
  -4  -7  -9    2.09    0.45
  -4  -7  -9    1.70    0.41
   4   7  10    3.71    0.50
  -4  -7 -10    3.06    0.38
  -4  -7 -10    3.15    0.43
  -4  -8   4   12.75    0.87
  -4  -8   4   10.38    0.73
  -4  -8   3    0.47    0.34
  -4  -8   3    0.24    0.26
  -4  -8   2    0.46    0.43
  -4  -8   2    0.67    0.33
  -4  -8   1    2.80    0.70
  -4  -8   1    1.41    0.37
  -4  -8   0    0.82    0.58
  -4  -8  -1   -0.14    0.52
  -4  -8  -2    1.16    0.56
  -4  -8  -2    1.49    0.42
  -4  -8  -3    1.43    0.56
  -4  -8  -3    0.81    0.38
  -4  -8  -3    0.62    0.30
  -4  -8  -4   15.45    1.19
  -4  -8  -4   14.91    1.17
  -4  -8  -4   15.61    1.11
  -4  -8  -5    2.32    0.49
  -4  -8  -5    1.74    0.52
  -4  -8  -5    3.36    0.56
  -4  -8  -6    0.70    0.40
  -4  -8  -6    1.02    0.37
   4   8   7    1.55    0.39
  -4  -8  -7    1.36    0.43
  -4  -8  -7    1.02    0.32
  -4  -8  -7    1.23    0.32
  -4  -8  -8    6.37    0.66
   4   8   8    5.24    0.58
  -4  -8  -8    6.37    0.62
  -4  -8  -8    6.16    0.60
   4   8   9   16.22    0.86
  -4  -8  -9   18.59    0.90
  -4  -8  -9   16.44    0.80
  -4  -9   2   -0.11    0.24
  -4  -9   1   -0.19    0.29
  -4  -9   0    0.07    0.33
  -4  -9  -1   -0.02    0.33
  -4  -9  -2   18.90    1.22
  -4  -9  -3    5.72    0.68
  -4  -9  -3    6.44    0.62
  -4  -9  -4    9.01    0.75
  -4  -9  -4   10.78    0.84
  -4  -9  -4    9.96    0.72
  -4  -9  -5    8.46    0.73
  -4  -9  -5    8.45    0.65
  -4  -9  -6    1.11    0.29
  -4  -9  -6    1.20    0.29
  -4  -9  -7    2.71    0.39
  -5   8   6    0.27    0.18
  -5   8   5   -0.03    0.20
  -5   8   4    5.39    0.51
  -5   8   3    2.42    0.43
  -5   8   2    0.15    0.27
  -5   8   1    6.60    0.72
   5  -8   0    7.56    0.64
  -5   8   0    8.41    0.78
   5  -8   1    0.76    0.27
  -5   8  -1    0.88    0.33
   5  -8   2    2.00    0.35
  -5   8  -2    2.88    0.44
   5  -8   3    9.22    0.64
  -5   7   8    1.50    0.32
  -5   7   8    1.02    0.28
  -5   7   7    7.61    0.72
  -5   7   7    7.38    0.71
  -5   7   6    0.91    0.37
  -5   7   6    0.94    0.35
   5  -7  -5   18.67    1.25
  -5   7   5   19.24    1.22
  -5   7   4    1.27    0.43
   5  -7  -4    0.53    0.36
  -5   7   4    0.91    0.31
   5  -7  -3   13.37    1.18
  -5   7   3   15.01    1.11
   5  -7  -2   15.12    1.30
  -5   7   2   14.57    1.16
   5  -7  -1   46.41    1.97
   5  -7  -1   49.47    2.26
  -5   7   1   46.60    2.07
   5  -7   0   17.07    1.29
  -5   7   0   20.51    1.44
   5  -7   1   33.74    1.77
  -5   7  -1   36.64    1.82
   5  -7   2    0.14    0.40
  -5   7  -2   -0.37    0.44
   5  -7   3   15.75    1.13
  -5   7  -3   16.97    1.11
   5  -7   4    0.44    0.29
  -5   7  -4    0.00    0.21
   5  -7   5    4.21    0.48
   5  -7   5    4.22    0.46
  -5   7  -5    4.42    0.49
  -5   6   9   39.03    1.41
  -5   6   9   35.29    1.29
  -5   6   9   37.74    1.41
  -5   6   8   13.90    1.01
  -5   6   8   11.14    0.86
  -5   6   8   12.11    0.97
  -5   6   7   -0.32    0.34
  -5   6   7    0.32    0.40
  -5   6   6   15.85    1.08
   5  -6  -6   13.34    1.04
  -5   6   6   15.29    1.28
  -5   6   5    0.13    0.39
   5  -6  -5    1.20    0.46
   5  -6  -4   27.80    1.79
  -5   6   4   27.84    1.72
  -5   6   4   26.35    1.45
  -5   6   3    7.89    0.96
   5  -6  -3    9.04    1.08
  -5   6   3    8.03    0.88
   5  -6  -2   50.64    2.45
  -5   6   2   50.11    2.19
  -5   6   2   50.18    2.22
   5  -6  -1   10.88    1.20
  -5   6   1   10.92    1.15
   5  -6   0   50.52    2.43
  -5   6   0   48.78    2.31
   5  -6   1    0.61    0.53
  -5   6  -1    0.45    0.54
   5  -6   2   12.54    1.29
  -5   6  -2   13.65    1.25
   5  -6   3   21.41    1.57
  -5   6  -3   22.46    1.48
   5  -6   4   -0.19    0.46
  -5   6  -4   -0.17    0.35
   5  -6   5    9.69    0.90
  -5   6  -5    9.12    0.76
   5  -6   6    0.12    0.23
   5  -6   6   -0.22    0.24
  -5   6  -6   -0.17    0.29
   5  -6   7    1.50    0.30
  -5   6  -7    1.63    0.29
  -5   5  10    1.30    0.28
  -5   5  10    0.88    0.27
  -5   5  10    1.12    0.28
  -5   5   9   14.50    1.02
  -5   5   9   12.92    0.96
  -5   5   9   12.44    0.95
  -5   5   8   13.22    1.15
  -5   5   8   11.95    1.04
  -5   5   8   12.94    1.14
  -5   5   7   15.21    1.30
  -5   5   7   18.44    1.46
  -5   5   6    3.53    0.64
  -5   5   6    5.62    0.95
   5  -5  -5   13.08    1.22
  -5   5   5   15.66    1.42
   5  -5  -4   15.33    1.37
  -5   5   4   16.07    1.41
  -5   5   3    8.51    1.06
   5  -5  -3    7.58    1.05
  -5   5   3    7.91    0.92
  -5   5   2    2.41    0.66
   5  -5  -2    2.11    0.62
  -5   5   2    2.92    0.66
   5  -5  -1   35.83    2.11
  -5   5   1   34.42    1.88
  -5   5   1   35.89    1.94
   5  -5   0   30.95    1.95
  -5   5   0   27.78    1.75
  -5   5  -1   -0.17    0.48
  -5   5  -2   13.43    1.27
   5  -5   3   -0.01    0.52
  -5   5  -3    0.54    0.42
   5  -5   4   45.15    2.34
  -5   5  -4   47.35    2.17
   5  -5   5   38.93    2.00
  -5   5  -5   41.85    1.89
   5  -5   6   11.42    1.00
  -5   5  -6   14.71    1.18
   5  -5   7    0.93    0.33
   5  -5   7    1.60    0.48
  -5   5  -7    0.71    0.32
  -5   5  -8    1.91    0.35
   5  -5   8    2.40    0.40
  -5   4  10   -0.10    0.23
  -5   4  10   -0.25    0.29
  -5   4  10    0.23    0.22
  -5   4   9   34.35    1.70
  -5   4   9   33.25    1.66
  -5   4   9   31.69    1.58
  -5   4   8   52.38    2.33
  -5   4   8   52.01    2.24
  -5   4   8   51.81    2.27
  -5   4   7    1.46    0.59
  -5   4   7    1.33    0.62
  -5   4   6    0.41    0.35
  -5   4   6   -0.34    0.44
  -5   4   6   -0.81    0.53
  -5   4   5   -0.21    0.50
   5  -4  -4   19.71    1.49
  -5   4   4   23.70    1.71
   5  -4  -4   20.73    2.50
  -5   4   3    1.52    0.95
  -5   4   3    0.37    0.54
   5  -4  -3    0.28    0.33
   5  -4  -3    0.51    0.66
  -5   4   3    0.59    0.39
  -5   4   2    4.79    1.35
  -5   4   2    5.41    0.86
   5  -4  -2    4.07    0.75
   5  -4  -2    4.14    1.14
  -5   4   2    4.86    0.74
  -5   4   1   12.80    2.05
   5  -4  -1   14.13    1.30
  -5   4   1   13.54    1.23
   5  -4  -1   11.96    1.91
   5  -4  -1   12.79    2.00
  -5   4   1   12.62    1.14
  -5   4   0    3.55    1.08
  -5   4   0    4.27    0.73
   5  -4   0    4.26    0.80
   5  -4   0    2.75    1.13
   5  -4   0    4.49    1.22
  -5   4   0    2.60    0.61
   5  -4   1   69.73    4.50
  -5   4  -1   70.56    2.71
   5  -4   1   70.07    4.77
  -5   4  -1   70.11    4.79
  -5   4  -2    0.59    0.86
  -5   4  -2    2.29    0.86
   5  -4   2    2.78    1.27
  -5   4  -2    3.17    0.73
  -5   4  -3    8.39    1.02
  -5   4  -4   37.11    1.98
   5  -4   5   26.44    1.80
  -5   4  -5   27.07    1.65
   5  -4   6    0.74    0.38
  -5   4  -6    0.17    0.36
   5  -4   7    0.69    0.34
   5  -4   7    0.44    0.48
  -5   4  -7   -0.08    0.40
   5  -4   8    5.45    0.69
  -5   4  -8    4.66    0.61
   5  -4   9    0.16    0.25
  -5   4  -9    0.09    0.20
  -5   3  11   -0.16    0.19
  -5   3  10    0.68    0.31
  -5   3  10    0.66    0.31
  -5   3  10    0.47    0.23
  -5   3   9    7.14    0.86
  -5   3   9    6.96    0.73
  -5   3   9    6.59    0.84
  -5   3   9    6.66    0.77
  -5   3   9    7.49    0.88
  -5   3   8    7.96    1.02
  -5   3   8    8.04    1.01
  -5   3   8    6.51    0.91
  -5   3   8    7.98    1.00
  -5   3   7    0.32    0.33
  -5   3   7   -0.06    0.44
  -5   3   7    0.49    0.50
  -5   3   7    0.15    0.44
  -5   3   6    2.64    0.57
  -5   3   6    2.11    0.58
  -5   3   6    1.51    0.62
  -5   3   6    2.19    0.66
   5  -3  -5    3.30    2.04
  -5   3   5    3.78    0.67
  -5   3   5    5.33    0.83
  -5   3   5    4.14    0.82
   5  -3  -5    4.20    1.29
  -5   3   5    4.46    0.76
  -5   3   4   28.75    2.95
   5  -3  -4   32.83    3.89
  -5   3   4   29.73    1.86
   5  -3  -4   27.63    2.85
  -5   3   3    7.68    1.61
   5  -3  -3    6.35    1.72
  -5   3   3    7.59    0.99
   5  -3  -3    6.25    0.83
   5  -3  -3    5.09    1.16
  -5   3   2    4.69    1.31
  -5   3   2    6.26    0.86
   5  -3  -2    4.77    0.76
   5  -3  -2    5.42    1.31
  -5   3   2    5.58    0.72
   5  -3  -1   36.00    1.92
  -5   3   1   38.24    1.95
   5  -3  -1   38.66    3.18
  -5   3   1   37.43    1.78
  -5   3   1   38.12    3.21
   5  -3   0  231.75    4.86
  -5   3   0  236.82    4.72
   5  -3   0  226.77    7.71
  -5   3   0  236.55    4.55
  -5   3   0  236.11    7.89
   5  -3   1  269.24    8.54
  -5   3  -1  269.26    4.96
   5  -3   1  271.07    9.15
  -5   3  -1  279.25    5.07
  -5   3  -1  286.52    8.83
   5  -3   2   34.63    3.27
  -5   3  -2   37.18    1.92
   5  -3   2   36.16    3.48
  -5   3  -2   37.30    3.31
   5  -3   3   32.09    3.25
  -5   3  -3   34.75    1.90
   5  -3   3   41.58    3.87
  -5   3  -3   35.95    2.92
  -5   3  -3   37.83    3.45
   5  -3   4  119.89    6.44
  -5   3  -4  118.49    3.51
   5  -3   4  141.12    7.00
  -5   3  -4  131.34    5.82
  -5   3  -4  138.56    6.68
  -5   3  -5    0.19    0.38
   5  -3   6  115.74    3.47
  -5   3  -6  125.51    3.38
   5  -3   7   16.79    1.39
  -5   3  -7   17.54    1.37
   5  -3   8    1.16    0.35
   5  -3   8    2.63    0.61
  -5   3  -8    1.71    0.52
  -5   3  -9    1.90    0.44
   5  -3   9    1.69    0.46
   5  -3  10   16.52    0.89
  -5   3 -10   16.89    0.87
  -5   2  11    1.75    0.31
  -5   2  11    1.89    0.35
  -5   2  11    1.33    0.30
  -5   2  10   -0.31    0.31
  -5   2  10    0.32    0.29
  -5   2  10    0.40    0.29
  -5   2  10    0.01    0.28
  -5   2   9    4.55    0.78
  -5   2   9    5.60    0.83
  -5   2   9    5.87    0.76
  -5   2   9    3.67    0.63
  -5   2   8    8.93    1.11
  -5   2   8   10.89    1.14
  -5   2   8   10.89    1.05
  -5   2   8   10.45    1.06
  -5   2   8    9.31    1.06
  -5   2   7   57.49    2.21
  -5   2   7   59.97    2.63
  -5   2   7   56.19    2.52
  -5   2   7   55.91    2.30
  -5   2   7   54.61    2.40
  -5   2   7   55.62    2.43
  -5   2   6    3.34    0.60
  -5   2   6    5.22    0.90
  -5   2   6    3.94    0.74
  -5   2   6    3.39    0.70
   5  -2  -6    5.97    1.62
  -5   2   6    3.41    0.68
   5  -2  -5   27.85    3.71
  -5   2   5   24.85    1.54
  -5   2   5   24.75    1.65
  -5   2   5   22.64    1.60
   5  -2  -5   23.48    2.76
  -5   2   5   21.79    1.50
  -5   2   4    2.05    1.04
   5  -2  -4   -0.34    1.30
  -5   2   4    3.49    0.66
  -5   2   4    1.26    0.50
  -5   2   4    0.57    0.41
  -5   2   4    1.51    0.92
   5  -2  -4    0.28    0.64
  -5   2   4    0.50    0.37
  -5   2   3  165.49    6.16
   5  -2  -3  152.33    7.34
  -5   2   3  157.24    3.66
  -5   2   3  167.62    4.03
   5  -2  -3  165.32    6.53
   5  -2  -2   45.43    3.64
  -5   2   2   48.45    2.14
   5  -2  -2   48.13    3.48
  -5   2   2   44.17    3.15
   5  -2  -1   26.81    2.68
   5  -2  -1   21.17    2.26
  -5   2   1   19.53    2.06
   5  -2   0   66.04    3.98
  -5   2   0   58.78    3.55
   5  -2   1  248.88    7.86
  -5   2  -1  247.18    4.48
  -5   2  -1  233.70    7.27
   5  -2   2   38.78    3.27
  -5   2  -2   42.40    1.92
  -5   2  -2   41.52    3.16
   5  -2   3   59.47    4.27
  -5   2  -3   59.76    2.35
  -5   2  -3   58.89    3.88
   5  -2   4   53.20    4.24
  -5   2  -4   52.19    2.24
   5  -2   4   53.35    4.30
  -5   2  -4   52.24    3.85
  -5   2  -5   38.92    1.98
   5  -2   5   41.56    3.75
  -5   2  -5   41.58    3.58
  -5   2  -6  113.58    3.25
  -5   2  -6  119.25    3.51
   5  -2   7   54.14    2.45
  -5   2  -7   58.44    2.49
   5  -2   8   29.96    1.57
   5  -2   8   32.49    1.85
  -5   2  -8   35.93    1.94
   5  -2   9    7.64    0.90
  -5   2  -9    9.08    0.93
   5  -2  10    5.26    0.61
  -5   2 -10    5.04    0.60
  -5   1  11   -0.02    0.17
  -5   1  11    0.07    0.21
  -5   1  11    0.02    0.21
  -5   1  11   -0.23    0.18
  -5   1  10    0.01    0.29
  -5   1  10    0.33    0.36
  -5   1  10    0.37    0.31
  -5   1  10   -0.04    0.25
  -5   1   9   40.49    2.00
  -5   1   9   42.23    2.05
  -5   1   9   38.87    1.88
  -5   1   9   40.12    1.87
  -5   1   8    2.24    0.61
  -5   1   8    3.68    0.79
  -5   1   8    3.08    0.65
  -5   1   8    2.88    0.62
  -5   1   7    6.28    0.79
  -5   1   7    5.28    0.86
  -5   1   7    7.33    0.97
  -5   1   7    5.65    0.88
  -5   1   7    6.13    0.82
  -5   1   7    6.23    0.86
  -5   1   6    2.97    0.60
  -5   1   6    4.15    0.78
  -5   1   6    3.38    0.71
  -5   1   6    3.23    0.62
  -5   1   6    3.15    0.65
   5  -1  -6    1.88    0.73
  -5   1   6    3.51    0.65
   5  -1  -5    0.95    1.24
  -5   1   5    2.15    0.57
  -5   1   5    1.24    0.48
  -5   1   5    2.98    0.69
  -5   1   5    1.97    0.56
   5  -1  -5    3.20    1.29
  -5   1   5    1.61    0.48
   5  -1  -4   22.18    3.06
  -5   1   4   22.57    1.43
  -5   1   4   25.09    1.55
  -5   1   4   23.43    1.44
  -5   1   4   21.80    2.29
  -5   1   4   23.91    1.53
   5  -1  -4   20.15    2.35
  -5   1   4   23.34    1.42
  -5   1   3   15.98    1.72
   5  -1  -3   16.90    2.52
  -5   1   3   17.66    1.23
  -5   1   3   18.21    1.31
   5  -1  -3   16.53    2.11
  -5   1   2  250.19    6.54
   5  -1  -2  238.84    8.03
   5  -1  -2  233.24    7.33
  -5   1   1    7.03    1.19
   5  -1  -1    9.85    1.69
   5  -1  -1    8.08    1.38
   5  -1   0   35.50    2.73
   5  -1   0   39.47    2.96
  -5   1   0   34.39    2.43
   5  -1   1   48.93    3.36
  -5   1  -1   46.61    2.89
   5  -1   2   16.33    2.14
  -5   1  -2   13.58    1.70
  -5   1  -3    2.07    0.86
   5  -1   3    3.15    0.88
  -5   1  -3    3.49    0.63
   5  -1   4   51.14    4.06
  -5   1  -4   56.92    2.26
  -5   1  -4   52.44    3.58
  -5   1  -5  314.43    5.40
   5  -1   5  307.45    9.79
  -5   1  -5  331.14    5.46
  -5   1  -5  316.31    9.24
  -5   1  -6  220.00    4.52
   5  -1   6  208.46    8.12
  -5   1  -6  220.14    4.67
  -5   1  -6  224.50    8.16
   5  -1   7    6.07    0.88
  -5   1  -7    5.13    0.70
  -5   1  -7    4.48    0.80
   5  -1   8   55.23    2.19
   5  -1   8   53.80    2.36
  -5   1  -8   58.39    2.47
   5  -1   9    0.66    0.42
  -5   1  -9    0.63    0.50
   5  -1  10   35.31    1.55
  -5   1 -10   36.65    1.65
   5  -1  11    0.56    0.23
  -5   1 -11    0.24    0.19
  -5   0  11    9.80    0.68
  -5   0  11    8.54    0.64
  -5   0  10    2.11    0.46
  -5   0  10    1.54    0.43
  -5   0  10    2.61    0.52
  -5   0  10    1.84    0.36
  -5   0   9    6.64    0.84
  -5   0   9    7.01    0.88
  -5   0   9    5.14    0.75
  -5   0   9    5.72    0.70
  -5   0   8   34.24    1.95
  -5   0   8   34.45    1.97
  -5   0   8   33.13    1.87
  -5   0   8   33.97    1.76
  -5   0   7    0.60    0.40
  -5   0   7    0.02    0.50
  -5   0   7   -0.02    0.42
  -5   0   7    0.70    0.47
  -5   0   7    0.30    0.36
  -5   0   6   13.39    1.15
  -5   0   6   12.39    1.22
  -5   0   6   13.25    1.25
  -5   0   6   12.86    1.16
   5   0  -6   10.05    1.82
  -5   0   6   13.10    1.13
   5   0  -5   10.12    2.27
  -5   0   5    5.94    0.82
  -5   0   5    7.09    0.94
  -5   0   5    6.14    0.83
  -5   0   5    6.87    0.81
  -5   0   5    7.73    0.89
  -5   0   5    7.37    1.36
   5   0  -5    7.75    1.48
  -5   0   5    6.30    0.78
   5   0  -4   85.28    5.49
  -5   0   4   86.26    2.76
  -5   0   4   90.48    2.88
  -5   0   4   83.82    2.72
  -5   0   4   81.71    4.41
  -5   0   4   85.86    2.74
   5   0  -4   81.84    4.70
  -5   0   4   86.90    2.58
   5   0  -3    9.61    1.87
  -5   0   3   11.33    0.99
  -5   0   3   10.44    1.61
   5   0  -3    9.36    1.52
   5   0  -2  109.61    5.39
  -5   0   2  108.42    4.86
   5   0  -2  102.76    4.76
   5   0  -1  300.33    8.22
   5   0  -1  285.02    7.71
   5   0   0    0.49    0.70
   5   0   0    0.12    0.55
   5   0   1  100.12    4.32
   5   0   1   88.93    4.40
   5   0   2   54.64    3.01
   5   0   2   50.12    2.95
   5   0   2   52.53    3.52
  -5   0  -2   52.07    2.78
   5   0   3   43.72    2.99
   5   0   3   42.50    3.34
  -5   0  -3   43.16    2.76
   5   0   4   20.22    2.30
   5   0   4   16.24    2.36
  -5   0  -4   18.68    1.29
  -5   0  -4   18.22    1.18
  -5   0  -4   16.54    1.84
  -5   0  -5    6.82    1.45
   5   0   5    6.27    1.71
   5   0   5    4.29    1.19
  -5   0  -5    4.96    0.74
  -5   0  -5    5.23    0.71
   5   0   6   62.60    4.45
  -5   0  -6   63.38    2.44
   5   0   6   60.29    4.18
  -5   0  -6   62.01    2.42
  -5   0  -6   66.76    4.26
  -5   0  -7  102.56    3.01
   5   0   7  104.63    3.16
  -5   0  -7  103.00    3.25
   5   0   8   31.09    1.73
  -5   0  -8   34.12    1.94
   5   0   9    0.10    0.32
  -5   0  -9    0.39    0.47
   5   0  10   10.48    0.86
  -5   0 -10    8.59    0.89
  -5   0 -11    0.93    0.29
  -5  -1  11    1.76    0.33
  -5  -1  10    0.15    0.23
  -5  -1  10    0.97    0.37
  -5  -1  10    0.33    0.29
  -5  -1   9   -0.14    0.34
  -5  -1   9    0.14    0.41
  -5  -1   9    0.49    0.46
  -5  -1   8    0.71    0.53
  -5  -1   8    0.19    0.43
  -5  -1   8    0.67    0.42
  -5  -1   7  127.91    3.48
  -5  -1   7  138.05    3.97
  -5  -1   7  133.31    3.85
  -5  -1   7  129.19    3.75
  -5  -1   6    1.11    0.49
  -5  -1   6    0.48    0.47
  -5  -1   6    1.10    0.58
  -5  -1   6   -0.39    0.46
   5   1  -6    1.93    1.14
   5   1  -5   19.40    2.87
  -5  -1   5   17.80    1.34
  -5  -1   5   18.14    1.42
  -5  -1   5   18.15    1.39
  -5  -1   5   17.34    2.16
  -5  -1   5   18.12    1.34
   5   1  -5   16.89    2.27
   5   1  -4    2.88    1.48
  -5  -1   4    1.27    0.44
  -5  -1   4    1.73    0.50
  -5  -1   4    1.56    0.47
  -5  -1   4    1.18    0.45
  -5  -1   4    2.15    0.87
   5   1  -4    0.55    0.53
   5   1  -3   15.77    2.35
  -5  -1   3   18.43    1.26
  -5  -1   3   16.96    1.22
  -5  -1   3   16.88    2.06
   5   1  -3   17.74    2.11
   5   1  -2   14.47    2.17
   5   1  -2   13.49    1.72
  -5  -1   2   12.48    1.75
   5   1  -1   10.85    1.77
   5   1  -1   14.55    1.72
  -5  -1   1   12.65    1.67
   5   1   0   28.69    2.54
  -5  -1   0   32.12    2.60
   5   1   0   29.42    2.44
   5   1   1   50.79    3.26
   5   1   1   53.15    2.72
   5   1   1   48.67    3.18
   5   1   2    1.31    0.80
   5   1   2    1.29    0.69
   5   1   3   19.84    2.07
   5   1   3   20.12    2.29
   5   1   4   57.20    3.76
   5   1   4   53.00    3.97
  -5  -1  -4   61.57    2.28
   5   1   4   56.09    3.80
   5   1   5   62.76    4.20
  -5  -1  -5   66.39    2.45
  -5  -1  -5   63.54    2.29
   5   1   6    0.97    1.06
  -5  -1  -6    2.46    0.58
  -5  -1  -6    0.34    0.41
  -5  -1  -7  142.64    3.59
  -5  -1  -7  146.50    3.82
  -5  -1  -8   45.35    2.18
  -5  -1  -9    6.03    0.86
  -5  -1 -10   -0.21    0.38
  -5  -1 -11    0.14    0.27
  -5  -2  10    1.53    0.32
  -5  -2  10    1.39    0.33
  -5  -2  10    1.26    0.37
  -5  -2   9    1.46    0.43
  -5  -2   9    2.29    0.50
  -5  -2   9    2.90    0.58
  -5  -2   8    0.58    0.38
  -5  -2   8    0.26    0.48
  -5  -2   8    0.58    0.47
  -5  -2   8    0.84    0.47
  -5  -2   7    3.91    0.73
  -5  -2   7    5.55    0.90
  -5  -2   7    4.02    0.80
  -5  -2   7    2.60    0.67
  -5  -2   6  170.98    4.19
  -5  -2   6  182.37    4.55
  -5  -2   6  178.59    4.41
  -5  -2   6  173.87    4.40
   5   2  -5  164.49    8.12
  -5  -2   5  151.64    3.91
  -5  -2   5  155.55    4.10
  -5  -2   5  154.51    4.02
  -5  -2   5  146.13    6.49
  -5  -2   5  141.59    3.86
   5   2  -4   14.26    2.31
  -5  -2   4   15.48    1.27
  -5  -2   4   17.54    1.39
  -5  -2   4   14.42    1.21
  -5  -2   4   13.84    1.19
   5   2  -4   17.26    2.12
  -5  -2   4   13.78    1.95
   5   2  -3   -0.73    1.06
  -5  -2   3   -0.12    0.36
  -5  -2   3    0.87    0.43
  -5  -2   3    1.01    0.40
  -5  -2   3    0.70    0.41
  -5  -2   3    0.55    0.63
   5   2  -3   -0.41    0.58
   5   2  -2    1.25    0.87
  -5  -2   2    2.33    0.54
  -5  -2   2    2.04    0.90
   5   2  -2    2.15    0.76
  -5  -2   1  448.52   10.19
   5   2  -1  448.04    9.28
   5   2   0   46.16    3.38
  -5  -2   0   43.68    3.11
   5   2   0   41.58    2.83
  -5  -2  -1  123.77    5.06
   5   2   1  111.31    4.79
   5   2   1  123.40    4.45
   5   2   2  100.39    4.80
  -5  -2  -2  106.68    4.62
   5   2   2  103.81    4.48
   5   2   3   17.22    2.17
  -5  -2  -3   22.19    2.07
  -5  -2  -3   18.87    1.27
   5   2   3   17.10    1.97
   5   2   4   30.88    2.82
   5   2   4   33.99    3.19
  -5  -2  -4   33.05    1.71
   5   2   4   32.18    3.09
   5   2   5    0.26    0.78
  -5  -2  -5    0.46    0.41
  -5  -2  -5    0.86    0.40
   5   2   5    2.02    0.86
   5   2   6   28.28    3.09
  -5  -2  -6   28.65    1.68
  -5  -2  -6   31.44    1.71
  -5  -2  -7   43.28    2.05
  -5  -2  -7   46.02    2.16
  -5  -2  -8    0.95    0.39
  -5  -2  -8    1.41    0.55
  -5  -2  -9   16.99    1.37
   5   2  10   24.57    1.37
  -5  -2 -10   25.42    1.49
  -5  -2 -11   11.62    0.89
  -5  -2 -12   11.18    0.68
  -5  -3  10    1.53    0.27
  -5  -3  10    1.63    0.33
  -5  -3   9    3.53    0.52
  -5  -3   9    3.71    0.55
  -5  -3   9    4.72    0.65
  -5  -3   8    9.71    0.98
  -5  -3   8    9.53    0.97
  -5  -3   8    8.71    0.97
  -5  -3   8    8.01    0.79
  -5  -3   7    5.80    0.83
  -5  -3   7    6.21    0.92
  -5  -3   7    7.07    0.96
  -5  -3   7    6.56    0.94
  -5  -3   6   77.95    2.89
  -5  -3   6   79.25    3.04
  -5  -3   6   78.10    2.95
  -5  -3   6   80.09    3.04
  -5  -3   5   59.08    2.56
  -5  -3   5   61.52    2.66
  -5  -3   5   60.07    2.54
  -5  -3   5   58.34    2.60
  -5  -3   5   59.25    2.41
   5   3  -4   26.46    3.22
  -5  -3   4   27.03    1.73
  -5  -3   4   26.21    1.75
  -5  -3   4   25.77    1.66
  -5  -3   4   25.94    2.85
  -5  -3   4   24.12    1.66
  -5  -3   4   24.15    1.62
   5   3  -3  168.98    7.61
  -5  -3   3  161.89    4.02
  -5  -3   3  170.06    3.96
  -5  -3   3  166.28    4.08
  -5  -3   3  161.71    3.87
  -5  -3   3  155.55    6.78
  -5  -3   3  156.86    3.90
  -5  -3   2    9.40    0.93
   5   3  -2   10.84    1.97
  -5  -3   2    9.88    1.00
  -5  -3   2    8.68    0.91
  -5  -3   2   10.08    0.93
  -5  -3   2    8.83    0.90
  -5  -3   2   11.10    1.84
  -5  -3   2   10.62    1.03
   5   3  -1    5.29    1.49
  -5  -3   1    5.67    0.75
  -5  -3   1    5.00    0.71
  -5  -3   1    4.70    0.73
  -5  -3   1    3.88    1.14
  -5  -3   0   98.46    2.92
  -5  -3   0  102.63    4.96
  -5  -3  -1    3.79    0.64
   5   3   1    1.93    0.71
  -5  -3  -1    2.70    0.94
  -5  -3  -2  166.05    5.95
   5   3   2  163.16    5.92
  -5  -3  -2  174.82    3.81
   5   3   2  162.49    5.88
  -5  -3  -3   16.01    1.84
   5   3   3   13.45    1.82
   5   3   3   13.59    1.80
  -5  -3  -3   14.85    1.18
   5   3   3   12.19    2.00
   5   3   4    4.63    1.41
  -5  -3  -4    3.19    0.65
   5   3   4    3.44    1.22
  -5  -3  -5    1.77    0.53
  -5  -3  -5    2.27    0.50
   5   3   5    0.84    1.08
  -5  -3  -6    0.82    0.46
  -5  -3  -6    0.90    0.50
  -5  -3  -6    0.23    0.34
  -5  -3  -7   54.99    2.35
  -5  -3  -7   55.22    2.35
  -5  -3  -8   25.86    1.54
  -5  -3  -8   27.47    1.69
  -5  -3  -9    5.57    0.72
  -5  -3  -9    7.75    0.96
   5   3  10    0.03    0.35
  -5  -3 -10    0.97    0.48
   5   3  11   -0.32    0.23
  -5  -3 -11   -0.04    0.27
  -5  -3 -12    4.93    0.48
  -5  -4   9    0.89    0.26
  -5  -4   9    0.56    0.23
  -5  -4   9    0.62    0.28
  -5  -4   8   -0.03    0.29
  -5  -4   8   -0.23    0.34
  -5  -4   8    0.39    0.41
  -5  -4   7   38.33    1.84
  -5  -4   7   40.82    1.99
  -5  -4   7   40.40    1.93
  -5  -4   7   39.01    1.98
  -5  -4   6   70.93    2.72
  -5  -4   6   75.92    2.83
  -5  -4   6   72.41    2.85
  -5  -4   6   74.98    2.89
  -5  -4   5   53.31    2.50
  -5  -4   5   57.68    2.53
  -5  -4   5   57.87    2.61
  -5  -4   5   56.16    2.57
  -5  -4   5   55.13    2.38
  -5  -4   4    2.40    0.61
  -5  -4   4    2.31    0.68
  -5  -4   4    2.26    0.66
  -5  -4   4    3.87    0.75
  -5  -4   4    3.06    0.69
  -5  -4   3   51.29    2.18
   5   4  -3   41.38    3.90
  -5  -4   3   46.50    2.28
  -5  -4   3   48.37    2.22
  -5  -4   3   50.54    2.38
  -5  -4   3   52.51    4.20
  -5  -4   3   48.13    2.31
  -5  -4   3   49.28    2.25
   5   4  -2    2.62    1.16
  -5  -4   2    3.79    0.75
  -5  -4   2    2.99    0.62
  -5  -4   2    3.52    0.68
  -5  -4   2    3.28    0.70
  -5  -4   2    3.09    0.62
  -5  -4   2    2.76    0.66
  -5  -4   2    3.44    1.24
   5   4  -1   20.49    2.82
  -5  -4   1   19.66    1.44
  -5  -4   1   18.90    1.37
  -5  -4   1   19.86    1.33
  -5  -4   1   19.28    1.38
  -5  -4   1   22.23    2.65
  -5  -4   1   20.80    1.43
  -5  -4   1   19.72    1.35
  -5  -4   0   60.54    2.47
  -5  -4   0   59.37    2.31
  -5  -4   0   61.98    2.22
  -5  -4   0   61.82    2.30
  -5  -4   0   65.10    4.29
  -5  -4   0   57.05    2.21
   5   4   0   62.86    4.60
  -5  -4  -1   11.70    1.11
  -5  -4  -1   10.97    0.97
   5   4   1   10.98    1.66
  -5  -4  -1   13.98    1.98
  -5  -4  -1   10.83    1.03
   5   4   1    8.53    1.75
  -5  -4  -2   43.55    2.09
  -5  -4  -2   46.72    3.39
  -5  -4  -2   40.19    1.98
   5   4   2   37.80    3.08
   5   4   2   44.05    4.05
   5   4   3    1.11    0.87
  -5  -4  -3    2.36    0.58
   5   4   3    1.97    0.74
  -5  -4  -3    2.81    0.63
  -5  -4  -4   75.19    2.74
  -5  -4  -4   76.91    2.84
   5   4   4   76.80    4.82
   5   4   4   80.11    5.67
  -5  -4  -5   64.75    2.53
  -5  -4  -5   61.61    2.61
  -5  -4  -5   63.28    2.32
   5   4   5   69.88    4.80
   5   4   5   64.01    5.09
  -5  -4  -6    0.54    0.35
  -5  -4  -6    0.25    0.44
  -5  -4  -6    0.10    0.35
  -5  -4  -7   -0.05    0.40
  -5  -4  -7    0.00    0.35
  -5  -4  -8  105.12    3.17
  -5  -4  -8  101.24    3.04
  -5  -4  -8  106.07    3.25
   5   4   9    1.10    0.51
  -5  -4  -9    1.26    0.44
  -5  -4  -9    1.47    0.48
   5   4  10    0.35    0.34
  -5  -4 -10   -0.25    0.34
   5   4  11    0.09    0.20
  -5  -4 -11    0.22    0.25
  -5  -5   8    1.17    0.34
  -5  -5   7    2.66    0.56
  -5  -5   7    3.31    0.59
  -5  -5   7    2.87    0.58
  -5  -5   6    9.09    0.99
  -5  -5   6    9.24    0.98
  -5  -5   6    8.86    1.00
  -5  -5   6    9.43    1.02
  -5  -5   5   44.35    2.24
  -5  -5   5   45.62    2.20
  -5  -5   5   44.76    2.28
  -5  -5   5   45.84    2.27
  -5  -5   5   48.69    2.19
  -5  -5   4   86.08    3.19
  -5  -5   4   82.62    2.96
  -5  -5   4   86.21    3.13
  -5  -5   4   80.35    3.04
  -5  -5   4   92.13    3.06
  -5  -5   3   18.98    1.39
  -5  -5   3   19.36    1.56
  -5  -5   3   17.95    1.42
  -5  -5   3   18.34    1.50
  -5  -5   3   17.07    1.44
  -5  -5   3   17.56    1.40
  -5  -5   2    0.81    0.50
  -5  -5   2   -0.31    0.49
  -5  -5   2    0.49    0.50
  -5  -5   2    0.73    0.51
  -5  -5   2    0.39    0.41
  -5  -5   1    5.93    0.85
  -5  -5   1    4.90    0.81
  -5  -5   1    4.21    0.81
  -5  -5   1    3.86    0.75
  -5  -5   1    5.82    0.83
  -5  -5   1    4.08    1.14
   5   5  -1    5.99    1.61
  -5  -5   0    2.50    0.58
  -5  -5   0    1.28    0.55
  -5  -5   0    3.79    0.73
  -5  -5   0    1.65    0.53
  -5  -5   0    2.03    0.57
  -5  -5   0    5.98    1.57
   5   5   0   -1.46    1.33
  -5  -5  -1   28.64    1.80
  -5  -5  -1   27.67    1.62
  -5  -5  -1   28.85    1.59
  -5  -5  -1   27.93    2.89
  -5  -5  -1   25.65    1.45
  -5  -5  -1   27.39    1.66
   5   5   1   32.10    3.61
  -5  -5  -2   38.68    2.06
  -5  -5  -2   36.09    3.08
  -5  -5  -2   33.55    1.74
  -5  -5  -2   34.28    1.93
   5   5   2   30.12    2.99
   5   5   2   33.13    3.80
  -5  -5  -3   62.76    2.59
  -5  -5  -3   66.63    2.70
   5   5   3   72.16    4.69
   5   5   3   67.79    5.42
  -5  -5  -4    0.83    0.51
  -5  -5  -4    0.27    0.49
   5   5   4   -0.13    0.77
  -5  -5  -5    3.98    0.72
  -5  -5  -5    3.37    0.74
  -5  -5  -6    6.77    0.81
  -5  -5  -6    6.49    0.91
  -5  -5  -6    6.46    0.93
  -5  -5  -6    7.17    0.86
  -5  -5  -7    6.81    0.92
  -5  -5  -7    7.23    0.89
   5   5   8    0.09    0.62
  -5  -5  -8    1.46    0.50
  -5  -5  -8    0.31    0.37
   5   5   9    5.37    0.86
  -5  -5  -9    4.28    0.64
  -5  -5  -9    4.61    0.66
   5   5  10    0.14    0.38
  -5  -5 -10    0.20    0.21
  -5  -5 -10   -0.17    0.26
   5   5  11    2.03    0.38
  -5  -5 -11    1.51    0.33
  -5  -6   7    0.62    0.23
  -5  -6   6    0.62    0.37
  -5  -6   5   50.67    2.07
  -5  -6   5   53.65    2.08
  -5  -6   4   40.92    1.76
  -5  -6   4   41.49    2.15
  -5  -6   4   39.04    1.93
  -5  -6   4   39.58    1.94
  -5  -6   3    5.17    0.81
  -5  -6   3    6.76    0.89
  -5  -6   3    6.39    1.02
  -5  -6   3    6.67    0.93
  -5  -6   2    8.36    1.01
  -5  -6   2    7.46    0.93
  -5  -6   2    8.62    1.09
  -5  -6   2    7.16    0.92
  -5  -6   1   14.36    1.31
  -5  -6   1   13.12    1.29
  -5  -6   1   13.49    1.22
  -5  -6   1   13.72    1.15
  -5  -6   0   16.26    1.42
  -5  -6   0   15.80    1.35
  -5  -6   0   16.33    1.30
  -5  -6   0   18.52    1.30
  -5  -6  -1   38.38    2.13
  -5  -6  -1   34.84    1.84
  -5  -6  -1   38.31    1.90
  -5  -6  -2   40.82    2.17
  -5  -6  -2   36.72    1.84
  -5  -6  -3  179.73    4.43
  -5  -6  -3  175.46    4.14
  -5  -6  -4  228.24    4.87
  -5  -6  -4  226.56    4.80
  -5  -6  -5    0.34    0.38
  -5  -6  -5    0.67    0.47
  -5  -6  -6    5.39    0.74
  -5  -6  -6    6.00    0.93
  -5  -6  -6    4.83    0.67
   5   6   7    2.87    0.71
  -5  -6  -7    2.62    0.65
  -5  -6  -7    1.73    0.45
   5   6   8    7.97    1.00
  -5  -6  -8    6.52    0.80
  -5  -6  -8    7.09    0.78
   5   6   9    0.26    0.42
  -5  -6  -9    0.46    0.32
  -5  -6  -9    0.79    0.35
   5   6  10    8.93    0.77
  -5  -6 -10    7.16    0.56
  -5  -6 -10    7.06    0.62
  -5  -7   6    2.97    0.38
  -5  -7   5    1.08    0.36
  -5  -7   4    0.87    0.43
  -5  -7   3   12.35    1.01
  -5  -7   3   11.42    1.05
  -5  -7   3   12.53    1.03
  -5  -7   2    8.10    0.91
  -5  -7   2    9.63    1.01
  -5  -7   2    8.99    0.88
  -5  -7   1    1.38    0.55
  -5  -7   1    1.70    0.54
  -5  -7   0   51.62    2.40
  -5  -7  -1   23.70    1.68
  -5  -7  -2   45.07    2.24
  -5  -7  -2   43.66    1.89
  -5  -7  -3    3.33    0.72
  -5  -7  -3    3.44    0.64
  -5  -7  -4    4.84    0.75
  -5  -7  -4    3.96    0.71
  -5  -7  -5    0.01    0.31
   5   7   5    0.21    0.39
  -5  -7  -5   -0.32    0.46
   5   7   6    0.33    0.38
  -5  -7  -6    0.72    0.48
   5   7   7   -0.92    0.44
  -5  -7  -7   -0.10    0.40
  -5  -7  -7    0.22    0.25
   5   7   8    4.07    0.62
  -5  -7  -8    4.10    0.58
  -5  -7  -8    2.68    0.44
   5   7   9    6.51    0.66
  -5  -7  -9    7.68    0.64
  -5  -7  -9    5.65    0.52
  -5  -8   3   14.38    0.85
  -5  -8   2    3.09    0.50
  -5  -8   1    9.42    0.88
  -5  -8   0    1.78    0.55
  -5  -8  -1   10.26    1.03
  -5  -8  -2    4.00    0.72
  -5  -8  -3    1.19    0.51
  -5  -8  -3    2.53    0.47
  -5  -8  -4    0.77    0.35
  -5  -8  -4    0.70    0.32
  -5  -8  -5    2.17    0.45
  -5  -8  -5    2.31    0.47
  -5  -8  -6    0.85    0.38
   5   8   7    0.13    0.22
  -5  -8  -7    0.04    0.23
  -5  -8  -8    0.13    0.20
  -5  -9   1    1.33    0.29
  -5  -9   0    4.02    0.50
  -5  -9  -1    4.38    0.55
  -5  -9  -2    0.69    0.30
  -5  -9  -3    8.77    0.72
  -5  -9  -4   -0.16    0.22
  -5  -9  -4    0.09    0.17
  -5  -9  -5   33.90    1.19
  -5  -9  -6    7.32    0.54
  -6   8   1    2.67    0.34
  -6   8   0    1.62    0.29
  -6   7   6    2.93    0.39
  -6   7   5    0.33    0.19
  -6   7   5    0.59    0.24
  -6   7   4    8.38    0.74
  -6   7   4    5.45    0.55
  -6   7   3    1.58    0.32
  -6   7   2    0.62    0.28
   6  -7  -1    2.07    0.41
  -6   7   1    1.65    0.44
   6  -7   0    0.45    0.29
  -6   7   0    0.22    0.31
   6  -7   1    0.80    0.28
  -6   7  -1    1.69    0.43
   6  -7   2    1.65    0.37
  -6   7  -2    1.91    0.39
   6  -7   3    5.72    0.57
  -6   7  -3    6.83    0.59
  -6   6   8   17.52    0.87
  -6   6   8   17.56    0.89
  -6   6   7    0.71    0.31
  -6   6   7    0.69    0.32
  -6   6   6    0.11    0.26
  -6   6   6    0.28    0.31
  -6   6   6    0.18    0.32
  -6   6   5   47.23    1.80
  -6   6   5   45.84    1.85
  -6   6   5   47.52    1.98
  -6   6   4    3.54    0.54
  -6   6   4    2.81    0.59
  -6   6   3   43.15    1.93
  -6   6   3   43.67    1.79
  -6   6   2    6.85    0.79
  -6   6   2    8.08    0.84
  -6   6   1   24.37    1.51
   6  -6   0   10.60    1.08
  -6   6   0   11.45    1.08
   6  -6   1   10.48    1.12
  -6   6  -1   11.03    1.03
   6  -6   2   10.66    1.09
  -6   6  -2    8.59    0.94
   6  -6   3    8.10    0.91
  -6   6  -3    6.76    0.77
   6  -6   4    0.15    0.35
  -6   6  -4    0.08    0.25
   6  -6   5    2.20    0.41
   6  -6   5    2.33    0.44
  -6   6  -5    1.27    0.29
  -6   6  -5    2.32    0.40
  -6   5   9    0.77    0.24
  -6   5   8    3.83    0.55
  -6   5   8    4.45    0.50
  -6   5   8    3.19    0.49
  -6   5   7    1.89    0.45
  -6   5   7    1.91    0.40
  -6   5   7    2.02    0.50
  -6   5   6   15.58    1.07
  -6   5   6   15.80    1.20
  -6   5   6   13.02    1.17
  -6   5   5   19.30    1.31
  -6   5   5   19.13    1.33
  -6   5   5   19.09    1.45
  -6   5   4    2.51    0.56
  -6   5   4    1.92    0.65
  -6   5   3    0.88    0.40
  -6   5   3    2.09    0.67
  -6   5   3    1.34    0.48
  -6   5   2   15.92    1.34
  -6   5   2   17.03    1.30
  -6   5   1    2.40    0.57
  -6   5   1    3.06    0.63
  -6   5   0   90.58    3.08
  -6   5  -1    1.87    0.65
  -6   5  -2    0.01    0.51
   6  -5   3   11.37    1.22
  -6   5  -3   12.12    1.14
   6  -5   4    1.63    0.55
  -6   5  -4    2.22    0.56
   6  -5   5    5.03    0.69
  -6   5  -5    4.79    0.66
  -6   5  -5    5.89    0.72
   6  -5   6    3.94    0.50
  -6   5  -6    4.99    0.61
   6  -5   7    4.41    0.49
  -6   5  -7    4.09    0.47
  -6   4   9    1.28    0.33
  -6   4   9    0.71    0.24
  -6   4   9    1.12    0.33
  -6   4   8   27.67    1.48
  -6   4   8   26.87    1.37
  -6   4   8   26.43    1.44
  -6   4   7    0.26    0.27
  -6   4   7   -0.70    0.48
  -6   4   7   -0.10    0.33
  -6   4   7    0.28    0.44
  -6   4   6    1.53    0.45
  -6   4   6    2.00    0.60
  -6   4   6    1.29    0.43
  -6   4   6    1.53    0.62
  -6   4   5   13.88    1.19
  -6   4   5   16.14    1.32
  -6   4   5   13.64    1.34
  -6   4   4   74.31    2.74
  -6   4   4   73.39    2.99
  -6   4   3   59.67    2.38
  -6   4   3   57.73    2.64
  -6   4   3   57.62    2.21
  -6   4   2    0.67    0.56
  -6   4   2    0.54    0.37
  -6   4   1    0.64    0.53
  -6   4   1    0.28    0.46
  -6   4   0   28.84    1.80
  -6   4   0   30.35    1.82
  -6   4  -1   65.12    2.67
  -6   4  -2    5.45    0.90
  -6   4  -3    2.04    0.67
  -6   4  -4    5.05    0.85
   6  -4   5    7.92    0.96
  -6   4  -5    9.26    0.96
   6  -4   6    0.23    0.32
  -6   4  -6    0.67    0.36
  -6   4  -6    0.23    0.33
   6  -4   7    0.49    0.33
  -6   4  -7    0.35    0.26
   6  -4   8    6.07    0.61
  -6   4  -8    5.05    0.52
  -6   3  10    0.90    0.27
  -6   3  10    0.86    0.24
  -6   3   9   27.44    1.38
  -6   3   9   25.15    1.29
  -6   3   8    1.92    0.50
  -6   3   8    2.18    0.55
  -6   3   8    2.55    0.52
  -6   3   7   10.77    0.92
  -6   3   7   11.39    1.15
  -6   3   7    9.50    0.98
  -6   3   7    9.29    1.02
  -6   3   6    1.84    0.56
  -6   3   6    2.42    0.66
  -6   3   6    1.53    0.50
  -6   3   6    1.71    0.66
  -6   3   5   15.96    1.29
  -6   3   5   16.74    1.39
  -6   3   5   16.41    1.27
  -6   3   5   16.45    1.47
  -6   3   4   -0.23    0.44
  -6   3   4   -0.10    0.42
  -6   3   4   -0.33    0.53
  -6   3   3    2.11    0.53
  -6   3   3    2.03    0.69
  -6   3   2   47.81    3.86
  -6   3   2   52.41    2.49
   6  -3  -2   58.04    4.33
  -6   3   2   52.68    2.18
  -6   3   1    0.14    0.67
  -6   3   1    1.14    0.57
   6  -3  -1    0.50    0.70
  -6   3   1    0.12    0.40
   6  -3   0  173.72    7.48
  -6   3   0  158.32    4.25
   6  -3   0  159.25    7.48
  -6   3   0  163.63    4.03
  -6   3   0  157.69    6.85
   6  -3   1  121.80    6.41
  -6   3  -1  114.56    3.47
  -6   3  -1  115.59    6.02
   6  -3   2   45.74    4.13
  -6   3  -2   49.68    2.32
  -6   3  -3    9.57    1.13
  -6   3  -4   12.50    1.24
  -6   3  -5   13.00    1.18
  -6   3  -5   11.10    1.08
   6  -3   6    4.79    0.69
  -6   3  -6    4.89    0.71
  -6   3  -6    3.96    0.68
   6  -3   7    6.54    0.83
  -6   3  -7   10.21    0.96
   6  -3   8    4.06    0.58
  -6   3  -8    4.61    0.62
   6  -3   9    0.88    0.28
  -6   3  -9    0.97    0.27
  -6   2  10    3.85    0.47
  -6   2  10    4.18    0.48
  -6   2   9    2.65    0.52
  -6   2   9    2.24    0.51
  -6   2   8    0.15    0.39
  -6   2   8    1.32    0.44
  -6   2   8    0.73    0.36
  -6   2   7    2.16    0.54
  -6   2   7    1.73    0.56
  -6   2   7    0.97    0.45
  -6   2   7    0.19    0.39
  -6   2   6   22.68    1.50
  -6   2   6   24.20    1.65
  -6   2   6   25.54    1.65
  -6   2   6   23.35    1.65
  -6   2   5    7.72    0.98
  -6   2   5    8.11    1.02
  -6   2   5   10.26    1.03
  -6   2   5    8.30    1.08
  -6   2   4  274.09    5.29
  -6   2   4  272.13    5.29
  -6   2   4  271.18    5.63
   6  -2  -3   38.35    4.18
  -6   2   3   43.74    2.13
  -6   2   3   45.45    2.08
  -6   2   3   45.55    2.34
   6  -2  -3   49.30    4.00
  -6   2   2   23.95    1.71
   6  -2  -2   23.74    2.74
  -6   2   2   23.17    1.38
  -6   2   1    1.07    0.46
   6  -2  -1    0.59    0.90
  -6   2   1    1.90    0.56
  -6   2   0    2.83    1.05
  -6   2   0    6.51    0.99
   6  -2   0    4.21    1.27
  -6   2   0    5.65    0.80
   6  -2   1  118.21    6.21
  -6   2  -1  117.37    3.43
  -6   2  -1  106.84    5.26
  -6   2  -2    5.48    1.39
   6  -2   2    3.36    1.19
  -6   2  -2    3.56    0.75
   6  -2   3   46.20    4.15
  -6   2  -3   46.82    2.29
   6  -2   3   47.77    4.39
  -6   2  -3   40.03    3.43
  -6   2  -4   29.92    1.83
  -6   2  -5   10.15    1.10
  -6   2  -5   10.09    1.05
   6  -2   6    0.74    0.44
  -6   2  -6    0.41    0.52
  -6   2  -6    0.36    0.39
   6  -2   7    4.08    0.68
  -6   2  -7    4.24    0.63
   6  -2   8   13.85    1.07
  -6   2  -8   14.62    1.12
   6  -2   9    9.92    0.78
  -6   2  -9   12.02    0.91
  -6   2 -10    0.11    0.16
  -6   1  10   -0.03    0.21
  -6   1  10    0.36    0.23
  -6   1   9    0.03    0.31
  -6   1   9   -0.27    0.36
  -6   1   8   13.46    1.21
  -6   1   8   10.55    1.02
  -6   1   8   11.06    0.94
  -6   1   7   43.33    1.95
  -6   1   7   45.17    2.25
  -6   1   7   43.93    2.12
  -6   1   7   40.57    1.92
  -6   1   7   44.15    1.98
  -6   1   6    3.98    0.71
  -6   1   6    4.33    0.81
  -6   1   6    5.60    0.86
  -6   1   6    3.26    0.68
  -6   1   6    3.19    0.65
  -6   1   5   14.87    1.27
  -6   1   5   16.13    1.39
  -6   1   5   15.29    1.26
  -6   1   5   17.07    1.40
   6  -1  -4  108.20    6.95
  -6   1   4  114.57    3.40
  -6   1   4  112.52    3.40
  -6   1   4  110.52    3.17
  -6   1   4  107.27    5.51
  -6   1   4  113.60    3.58
   6  -1  -4  116.85    6.19
   6  -1  -3  176.61    8.33
  -6   1   3  180.14    4.21
  -6   1   3  182.57    4.13
  -6   1   3  183.70    7.17
  -6   1   3  182.22    4.47
   6  -1  -3  176.26    7.43
   6  -1  -2   90.42    5.66
  -6   1   2   99.28    3.08
  -6   1   2   93.41    3.21
   6  -1  -2   94.59    5.36
   6  -1  -1   19.00    2.48
  -6   1   1   18.93    1.35
  -6   1   1   19.33    1.48
   6  -1  -1   18.81    2.42
  -6   1   1   16.59    1.20
  -6   1   0    7.36    0.84
  -6   1   0    5.90    0.85
   6  -1   0    5.05    1.21
  -6   1   0    6.72    0.86
   6  -1   1  130.87    6.31
  -6   1  -1  120.46    3.35
   6  -1   2   12.00    2.04
  -6   1  -2   10.29    1.02
   6  -1   3    1.92    0.99
  -6   1  -3    3.98    0.77
  -6   1  -3    4.26    0.64
  -6   1  -4   26.06    1.71
  -6   1  -4   23.00    1.44
  -6   1  -5    3.73    0.74
  -6   1  -5    3.46    0.71
  -6   1  -6   49.51    2.24
  -6   1  -6   47.42    2.18
   6  -1   7    7.54    0.90
  -6   1  -7    7.03    0.82
  -6   1  -7    6.88    0.90
   6  -1   8   23.76    1.40
  -6   1  -8   24.26    1.50
   6  -1   9    2.35    0.44
  -6   1  -9    3.52    0.57
  -6   1 -10    0.32    0.26
  -6   0  10    4.90    0.51
  -6   0  10    5.41    0.53
  -6   0   9    3.91    0.61
  -6   0   9    2.33    0.48
  -6   0   9    3.14    0.50
  -6   0   8    3.70    0.54
  -6   0   8    4.40    0.76
  -6   0   8    3.57    0.68
  -6   0   8    4.49    0.65
  -6   0   8    4.29    0.58
  -6   0   7    0.05    0.37
  -6   0   7    0.41    0.48
  -6   0   7   -0.47    0.46
  -6   0   7    0.01    0.36
  -6   0   7    0.00    0.26
  -6   0   6   -0.25    0.38
  -6   0   6   -0.73    0.56
  -6   0   6   -0.75    0.47
  -6   0   6    0.23    0.31
  -6   0   5    7.87    0.95
  -6   0   5    7.28    0.97
  -6   0   5    7.52    0.92
  -6   0   5    7.64    0.92
   6   0  -4   12.34    2.57
  -6   0   4   11.71    1.13
  -6   0   4   12.92    1.22
  -6   0   4   14.07    1.16
  -6   0   4   12.56    1.18
  -6   0   4   12.08    1.90
   6   0  -4   11.88    1.96
   6   0  -3  166.24    8.06
  -6   0   3  167.01    4.04
  -6   0   3  160.69    3.90
  -6   0   3  159.58    6.75
  -6   0   3  165.38    4.14
   6   0  -3  155.44    6.82
   6   0  -2  198.77    8.26
  -6   0   2  190.89    4.21
  -6   0   2  184.16    3.93
  -6   0   2  190.29    7.32
  -6   0   2  186.91    4.41
   6   0  -2  181.15    7.20
   6   0  -1   36.13    3.48
  -6   0   1   37.96    1.83
  -6   0   1   42.15    2.09
  -6   0   1   40.55    3.37
   6   0  -1   37.91    3.29
  -6   0   1   35.35    1.67
   6   0   0   14.35    2.10
  -6   0   0   11.56    1.02
   6   0   0   12.26    1.95
  -6   0   0   12.67    1.05
  -6   0  -1    5.39    0.72
   6   0   1    5.38    1.39
  -6   0  -1    5.92    0.78
   6   0   2   35.74    3.40
  -6   0  -2   39.33    1.94
   6   0   3    2.52    1.13
  -6   0  -3    2.40    0.58
   6   0   4    2.05    1.19
  -6   0  -4    4.05    0.78
  -6   0  -4    3.24    0.57
  -6   0  -5   76.28    2.82
  -6   0  -5   70.82    2.54
  -6   0  -6   56.39    2.40
  -6   0  -6   58.23    2.37
  -6   0  -7   24.89    1.55
  -6   0  -7   23.23    1.54
  -6   0  -8    1.38    0.40
  -6   0  -8    0.75    0.46
  -6   0  -9    0.51    0.41
  -6   0 -10    2.90    0.49
  -6   0 -11    2.65    0.36
  -6  -1  10    0.67    0.24
  -6  -1  10    0.04    0.18
  -6  -1   9    9.65    0.85
  -6  -1   9    9.38    0.82
  -6  -1   9    8.88    0.78
  -6  -1   8    8.50    0.79
  -6  -1   8    8.68    0.94
  -6  -1   8    7.92    0.87
  -6  -1   8    8.51    0.88
  -6  -1   7    0.88    0.42
  -6  -1   7    0.80    0.49
  -6  -1   7    1.61    0.58
  -6  -1   7    1.31    0.43
  -6  -1   6    0.53    0.46
  -6  -1   6    2.00    0.67
  -6  -1   6    1.58    0.58
  -6  -1   6    1.28    0.46
  -6  -1   5    0.38    0.44
  -6  -1   5    0.12    0.44
  -6  -1   5   -0.05    0.39
  -6  -1   4    7.59    0.94
  -6  -1   4    8.98    1.05
  -6  -1   4    7.57    0.91
  -6  -1   4    9.52    1.74
   6   1  -4   11.97    1.97
   6   1  -3   21.61    3.03
  -6  -1   3   18.33    1.38
  -6  -1   3   17.40    1.32
  -6  -1   3   18.62    1.30
  -6  -1   3   15.41    2.16
   6   1  -3   17.78    2.33
   6   1  -2   67.46    4.96
  -6  -1   2   73.51    2.65
  -6  -1   2   71.27    2.48
  -6  -1   2   74.23    4.60
   6   1  -2   69.82    4.40
   6   1  -1   25.73    2.89
  -6  -1   1   25.82    1.53
  -6  -1   1   24.52    2.70
   6   1  -1   26.79    2.80
   6   1   0   57.77    4.16
  -6  -1   0   56.45    2.16
  -6  -1   0   58.09    3.95
   6   1   0   56.45    3.88
  -6  -1   0   58.40    2.17
   6   1   1   11.93    1.98
  -6  -1  -1   10.25    0.91
  -6  -1  -1    8.62    1.60
   6   1   1    7.91    1.49
  -6  -1  -1   10.94    1.00
   6   1   2   74.60    4.34
   6   1   2   74.69    4.78
  -6  -1  -2   78.38    4.52
  -6  -1  -2   78.07    2.68
  -6  -1  -3    3.46    1.05
   6   1   3    3.81    1.51
  -6  -1  -3    3.21    0.73
   6   1   4    1.45    1.07
   6   1   4    1.78    0.96
  -6  -1  -4    2.57    0.64
   6   1   4    3.54    1.23
   6   1   5    6.89    1.69
  -6  -1  -5    5.92    0.87
  -6  -1  -5    4.71    0.70
  -6  -1  -6    6.53    0.89
  -6  -1  -6    6.37    0.85
  -6  -1  -7   22.19    1.49
  -6  -1  -7   22.35    1.50
  -6  -1  -8   11.07    0.98
  -6  -1  -8   14.47    1.22
  -6  -1  -9   -0.28    0.35
  -6  -1 -10    3.22    0.53
  -6  -1 -11    3.41    0.42
  -6  -2   9   13.18    0.90
  -6  -2   9   12.61    0.87
  -6  -2   9   13.75    0.89
  -6  -2   8    2.18    0.48
  -6  -2   8    1.72    0.45
  -6  -2   8    1.85    0.46
  -6  -2   8    2.50    0.54
  -6  -2   7    7.79    0.87
  -6  -2   7    9.17    0.99
  -6  -2   7    8.67    0.98
  -6  -2   7    8.54    0.93
  -6  -2   6   47.03    2.22
  -6  -2   6   50.40    2.37
  -6  -2   6   47.35    2.21
  -6  -2   6   44.90    2.12
  -6  -2   5   23.13    1.61
  -6  -2   5   24.72    1.72
  -6  -2   5   23.65    1.59
  -6  -2   5   22.23    1.53
  -6  -2   4  130.25    3.74
  -6  -2   4  124.94    3.70
  -6  -2   4  120.49    3.46
  -6  -2   4  120.43    3.38
   6   2  -3   15.40    2.61
  -6  -2   3   15.30    1.34
  -6  -2   3   14.07    1.24
  -6  -2   3   14.53    1.18
  -6  -2   3   13.23    2.14
   6   2  -2   55.10    4.59
  -6  -2   2   49.20    2.07
  -6  -2   2   53.35    2.32
  -6  -2   2   48.28    2.11
  -6  -2   2   52.58    3.98
   6   2  -2   50.93    3.66
   6   2  -1    0.97    0.98
  -6  -2   1    1.94    0.52
  -6  -2   1    2.67    0.60
  -6  -2   1    1.25    0.75
   6   2  -1    1.18    0.63
   6   2   0   24.55    2.80
  -6  -2   0   24.00    1.45
  -6  -2   0   23.41    2.50
   6   2   0   24.69    2.51
  -6  -2   0   26.50    1.48
   6   2   1    1.19    0.90
  -6  -2  -1   -0.51    0.42
  -6  -2  -1   -0.86    0.81
   6   2   1    0.55    0.66
  -6  -2  -1    0.30    0.36
   6   2   2  145.22    6.52
  -6  -2  -2  141.85    6.03
   6   2   2  142.18    6.43
  -6  -2  -2  152.04    3.77
  -6  -2  -3    7.05    1.46
   6   2   3    6.00    1.57
  -6  -2  -3    5.79    0.84
   6   2   4   58.92    4.17
   6   2   4   67.27    4.78
  -6  -2  -4   62.41    2.56
   6   2   4   68.15    4.90
   6   2   5    1.46    1.32
  -6  -2  -5    0.63    0.43
  -6  -2  -5    0.31    0.35
  -6  -2  -6    1.76    0.63
  -6  -2  -6    2.03    0.54
  -6  -2  -7   16.97    1.32
  -6  -2  -7   17.25    1.31
  -6  -2  -8    0.05    0.33
  -6  -2  -8    0.45    0.42
  -6  -2  -9   12.42    1.04
  -6  -2 -10    2.78    0.49
  -6  -2 -11    0.50    0.24
  -6  -3   9    0.49    0.21
  -6  -3   9    0.16    0.17
  -6  -3   9    0.23    0.22
  -6  -3   8    2.36    0.41
  -6  -3   8    2.72    0.48
  -6  -3   8    2.87    0.50
  -6  -3   8    2.44    0.49
  -6  -3   7    0.32    0.32
  -6  -3   7   -0.33    0.48
  -6  -3   7   -0.49    0.38
  -6  -3   7    0.14    0.34
  -6  -3   6   14.99    1.24
  -6  -3   6   17.62    1.42
  -6  -3   6   15.95    1.30
  -6  -3   6   15.21    1.28
  -6  -3   5   12.53    1.22
  -6  -3   5   14.27    1.32
  -6  -3   5   11.86    1.14
  -6  -3   5   12.65    1.19
  -6  -3   4   48.28    2.35
  -6  -3   4   45.23    2.27
  -6  -3   4   46.17    2.18
  -6  -3   4   47.33    2.22
  -6  -3   3   40.54    2.11
  -6  -3   3   38.74    1.94
  -6  -3   3   38.31    2.05
  -6  -3   3   37.91    1.93
   6   3  -2   61.36    5.02
  -6  -3   2   60.52    2.39
  -6  -3   2   56.95    2.46
  -6  -3   2   59.25    2.29
  -6  -3   2   59.97    2.46
  -6  -3   2   65.51    4.59
   6   3  -1   29.78    3.39
  -6  -3   1   27.03    1.63
  -6  -3   1   29.40    1.73
  -6  -3   1   28.45    1.62
  -6  -3   1   30.39    3.11
   6   3   0    3.45    1.62
  -6  -3   0    2.03    0.58
  -6  -3   0    2.96    0.64
  -6  -3   0    3.13    1.12
  -6  -3   0    2.02    0.52
   6   3   1   42.24    3.94
  -6  -3  -1   40.32    2.04
  -6  -3  -1   39.55    1.81
  -6  -3  -1   39.16    3.35
  -6  -3  -1   37.72    1.90
  -6  -3  -2   -0.25    0.39
  -6  -3  -2    0.75    0.92
  -6  -3  -2    0.32    0.36
   6   3   2   -1.31    1.30
  -6  -3  -3    0.35    0.41
  -6  -3  -3    0.65    0.83
  -6  -3  -3    0.24    0.49
   6   3   3    0.59    1.07
  -6  -3  -4    0.91    0.44
   6   3   4    0.24    0.84
  -6  -3  -4    0.55    0.47
   6   3   4    1.59    0.78
  -6  -3  -5   13.27    1.22
  -6  -3  -5   14.22    1.32
  -6  -3  -6   42.61    2.09
  -6  -3  -6   39.78    2.09
  -6  -3  -6   41.62    1.92
  -6  -3  -7   33.33    1.73
  -6  -3  -7   31.69    1.79
  -6  -3  -8   19.05    1.30
  -6  -3  -8   19.93    1.35
  -6  -3  -9    2.95    0.54
  -6  -3  -9    1.76    0.46
   6   3  10    0.30    0.30
  -6  -3 -10    0.46    0.29
  -6  -3 -11    2.89    0.39
  -6  -4   8    0.43    0.23
  -6  -4   8    0.17    0.21
  -6  -4   7   -0.10    0.30
  -6  -4   7    0.17    0.34
  -6  -4   7   -0.62    0.43
  -6  -4   7    0.04    0.33
  -6  -4   6    0.88    0.50
  -6  -4   6    0.70    0.49
  -6  -4   6    0.36    0.41
  -6  -4   6    0.05    0.37
  -6  -4   5    0.26    0.48
  -6  -4   5    0.75    0.51
  -6  -4   5    0.97    0.50
  -6  -4   5    0.35    0.48
  -6  -4   4   25.00    1.74
  -6  -4   4   26.64    1.64
  -6  -4   4   27.52    1.76
  -6  -4   4   27.18    1.71
  -6  -4   3    8.08    0.89
  -6  -4   3    9.46    1.13
  -6  -4   3    8.39    0.97
  -6  -4   3    8.39    1.04
  -6  -4   3    7.84    0.95
  -6  -4   2    4.82    0.77
  -6  -4   2    2.67    0.66
  -6  -4   2    3.49    0.67
  -6  -4   2    4.17    0.72
  -6  -4   1    2.00    0.61
  -6  -4   1    1.09    0.52
  -6  -4   1    1.83    0.56
  -6  -4   1    1.26    0.44
  -6  -4   0    3.94    0.78
  -6  -4   0    3.95    0.70
  -6  -4   0    4.50    1.23
  -6  -4   0    4.23    0.68
   6   4   0    7.00    1.86
  -6  -4  -1   16.75    1.41
  -6  -4  -1   15.59    1.20
  -6  -4  -1   18.36    2.38
  -6  -4  -1   17.70    1.36
   6   4   1   15.55    2.44
  -6  -4  -2    4.36    0.79
  -6  -4  -2    7.19    1.61
  -6  -4  -2    4.22    0.78
   6   4   2    5.37    1.64
  -6  -4  -3   74.90    2.88
  -6  -4  -3   70.91    2.78
   6   4   3   80.76    5.92
  -6  -4  -4   63.40    2.64
  -6  -4  -4   68.38    2.75
  -6  -4  -5    0.43    0.44
  -6  -4  -5   -1.51    0.67
  -6  -4  -6    6.07    0.83
  -6  -4  -6    5.65    0.85
  -6  -4  -6    6.50    0.77
  -6  -4  -7    5.38    0.71
  -6  -4  -7    5.73    0.89
  -6  -4  -7    4.07    0.68
  -6  -4  -8   14.83    1.18
  -6  -4  -8   15.71    1.19
  -6  -4  -8   16.15    1.15
   6   4   9    1.01    0.47
  -6  -4  -9    1.79    0.43
  -6  -4  -9    1.28    0.40
   6   4  10    3.36    0.52
  -6  -4 -10    2.36    0.37
  -6  -4 -10    2.82    0.43
  -6  -5   7   35.52    1.35
  -6  -5   6   29.13    1.46
  -6  -5   6   28.16    1.40
  -6  -5   6   27.87    1.46
  -6  -5   5    7.30    0.90
  -6  -5   5    6.63    0.86
  -6  -5   5    6.67    0.82
  -6  -5   4    0.90    0.58
  -6  -5   4    1.65    0.63
  -6  -5   4    1.50    0.51
  -6  -5   3   31.45    1.67
  -6  -5   3   31.66    1.92
  -6  -5   3   32.72    1.78
  -6  -5   3   33.73    1.92
  -6  -5   2    0.54    0.40
  -6  -5   2    0.52    0.50
  -6  -5   2    0.07    0.42
  -6  -5   2    0.03    0.35
  -6  -5   1   16.89    1.39
  -6  -5   1   16.61    1.39
  -6  -5   1   16.27    1.25
  -6  -5   1   14.22    1.24
  -6  -5   0   67.09    2.74
  -6  -5   0   62.87    2.54
  -6  -5   0   66.04    2.38
  -6  -5  -1   27.64    1.79
  -6  -5  -1   27.71    1.62
  -6  -5  -1   27.10    1.64
  -6  -5  -2    4.92    0.85
  -6  -5  -2    7.37    0.89
  -6  -5  -2    5.31    0.86
  -6  -5  -3   29.23    1.85
  -6  -5  -3   28.89    1.83
  -6  -5  -4  196.48    4.59
  -6  -5  -4  203.79    4.79
  -6  -5  -5    8.68    0.98
  -6  -5  -5    7.49    1.02
  -6  -5  -6   62.26    2.35
  -6  -5  -6   64.05    2.55
  -6  -5  -6   63.35    2.59
  -6  -5  -7    4.57    0.77
  -6  -5  -7    4.54    0.62
   6   5   8   11.54    1.15
  -6  -5  -8    9.92    0.95
  -6  -5  -8   10.94    0.88
   6   5   9    0.02    0.34
  -6  -5  -9   -0.13    0.31
  -6  -5  -9   -0.23    0.23
   6   5  10    0.79    0.29
  -6  -5 -10    0.87    0.25
  -6  -6   6    7.27    0.60
  -6  -6   5    3.36    0.50
  -6  -6   4   13.88    1.13
  -6  -6   4   15.06    1.11
  -6  -6   3    4.04    0.60
  -6  -6   3    3.79    0.73
  -6  -6   3    4.13    0.69
  -6  -6   2    0.58    0.38
  -6  -6   2    0.31    0.58
  -6  -6   2    0.06    0.36
  -6  -6   1    9.69    1.07
  -6  -6   1   13.49    1.23
  -6  -6   1   11.71    1.06
  -6  -6   0    6.19    0.90
  -6  -6   0    6.68    0.87
  -6  -6   0    7.16    0.84
  -6  -6  -1    0.35    0.52
  -6  -6  -1   -0.16    0.37
  -6  -6  -2    3.36    0.73
  -6  -6  -2    2.69    0.53
  -6  -6  -3   18.91    1.48
  -6  -6  -3   17.67    1.29
  -6  -6  -4   10.43    1.09
  -6  -6  -4    7.52    0.91
  -6  -6  -5    0.05    0.37
  -6  -6  -5    0.49    0.48
  -6  -6  -6    1.54    0.45
  -6  -6  -6    1.98    0.56
   6   6   7    2.91    0.61
  -6  -6  -7    3.49    0.63
   6   6   8   -0.38    0.42
  -6  -6  -8    0.42    0.31
   6   6   9    0.16    0.27
  -6  -6  -9   -0.38    0.26
  -6  -7   4    0.92    0.32
  -6  -7   3    0.44    0.25
  -6  -7   3    0.31    0.34
  -6  -7   2    7.38    0.76
  -6  -7   2    7.68    0.80
  -6  -7   1   26.12    1.49
  -6  -7   0    1.92    0.54
  -6  -7  -1    0.12    0.44
  -6  -7  -2    2.11    0.63
  -6  -7  -3   -0.43    0.43
  -6  -7  -3   -0.04    0.26
  -6  -7  -4    7.19    0.84
  -6  -7  -4    7.83    0.79
  -6  -7  -5   17.07    1.13
   6   7   5   16.58    1.10
  -6  -7  -5   18.62    1.21
  -6  -7  -6    0.86    0.33
   6   7   6   -0.19    0.35
  -6  -7  -6    0.21    0.31
   6   7   7    0.60    0.27
  -6  -7  -7    0.74    0.32
   6   7   8    2.45    0.40
  -6  -7  -8    2.40    0.39
  -6  -8   2    9.14    0.63
  -6  -8   1    2.43    0.41
  -6  -8   0    0.57    0.31
  -6  -8  -1   -0.54    0.36
  -6  -8  -2    0.61    0.39
  -6  -8  -3   -0.22    0.35
  -6  -8  -4    0.50    0.33
  -6  -8  -4    0.24    0.22
  -6  -8  -5    2.18    0.38
  -6  -8  -5    2.12    0.38
  -6  -8  -6    2.08    0.36
  -6  -8  -7    3.07    0.37
  -7   7   3    0.97    0.25
  -7   7   2    3.12    0.40
  -7   7   1   30.13    1.14
  -7   7   0   10.19    0.64
  -7   7   0   13.35    0.73
  -7   6   5    0.19    0.18
  -7   6   4    0.29    0.24
  -7   6   3    5.70    0.65
  -7   6   2    3.54    0.58
   7  -6  -2    2.83    0.46
  -7   6   2    2.78    0.45
   7  -6  -1    6.80    0.73
  -7   6   1    7.47    0.70
   7  -6   0    1.01    0.39
  -7   6   0    1.36    0.41
   7  -6   1    4.44    0.62
  -7   6  -1    4.87    0.62
  -7   6  -2    1.14    0.30
   7  -6   2    0.93    0.37
  -7   6  -2    0.98    0.35
  -7   6  -2    0.51    0.18
   7  -6   3    1.22    0.33
  -7   6  -3    1.31    0.36
  -7   6  -3    0.96    0.24
   7  -6   4    1.15    0.27
   7  -6   4    1.60    0.29
  -7   5   7    0.38    0.21
  -7   5   7    0.34    0.22
  -7   5   6    6.37    0.58
  -7   5   6    6.33    0.60
  -7   5   6    6.15    0.70
  -7   5   5   13.48    0.95
  -7   5   5   12.62    0.87
  -7   5   5   12.29    1.00
  -7   5   4    0.20    0.34
  -7   5   4   -0.09    0.42
  -7   5   3    2.87    0.60
  -7   5   3    2.06    0.52
  -7   5   2   -0.11    0.30
  -7   5   1    1.83    0.42
  -7   5   0    1.03    0.40
  -7   5  -1   13.49    1.10
  -7   5  -2    1.39    0.47
   7  -5   3    1.59    0.53
  -7   5  -3    2.61    0.55
  -7   5  -3    2.85    0.46
   7  -5   4    1.94    0.43
  -7   5  -4    2.05    0.44
  -7   5  -4    1.87    0.38
   7  -5   5    7.18    0.63
  -7   5  -5    7.57    0.60
   7  -5   5    7.61    0.69
  -7   5  -5    7.60    0.61
  -7   4   8    0.58    0.26
  -7   4   7    2.59    0.37
  -7   4   7    2.32    0.45
  -7   4   7    2.61    0.50
  -7   4   6    2.62    0.45
  -7   4   6    2.98    0.55
  -7   4   6    2.83    0.56
  -7   4   5   12.30    1.04
  -7   4   5   11.92    0.97
  -7   4   5   12.35    1.16
  -7   4   4   21.38    1.44
  -7   4   4   20.80    1.26
  -7   4   4   21.34    1.54
  -7   4   3    3.22    0.72
  -7   4   3    2.52    0.61
  -7   4   2    0.67    0.50
  -7   4   2    0.48    0.46
  -7   4   2    0.25    0.31
  -7   4   1   -0.32    0.38
  -7   4   0   -0.43    0.49
  -7   4  -1  104.49    3.22
  -7   4  -2    0.51    0.51
  -7   4  -3   14.64    1.23
  -7   4  -3   15.63    1.08
   7  -4   4    6.83    0.89
  -7   4  -4    6.12    0.79
  -7   4  -4    6.28    0.71
   7  -4   5    7.64    0.79
  -7   4  -5    8.99    0.82
  -7   4  -5    8.30    0.78
   7  -4   6   12.10    0.79
  -7   4  -6   11.97    0.78
   7  -4   6   12.50    0.89
  -7   4  -6   13.19    0.85
   7  -4   7    1.32    0.28
  -7   4  -7    1.62    0.28
  -7   3   8    7.86    0.69
  -7   3   8    6.20    0.53
  -7   3   7    4.27    0.54
  -7   3   7    3.35    0.56
  -7   3   7    3.38    0.57
  -7   3   6   11.06    0.95
  -7   3   6    9.08    0.90
  -7   3   6   10.35    1.04
  -7   3   5    6.26    0.83
  -7   3   5    4.37    0.67
  -7   3   5    6.28    0.93
  -7   3   4    6.66    0.93
  -7   3   4    6.11    0.78
  -7   3   4    5.77    0.99
  -7   3   3    0.18    0.50
  -7   3   3   -0.12    0.54
  -7   3   2    6.15    0.91
  -7   3   2    3.92    0.78
  -7   3   2    5.01    0.71
  -7   3   1    4.38    0.81
  -7   3   1    3.13    0.64
  -7   3   0   24.73    1.60
  -7   3  -1    8.53    1.04
  -7   3  -2   16.50    1.40
  -7   3  -3   16.90    1.41
  -7   3  -3   14.67    1.09
  -7   3  -4    1.28    0.52
  -7   3  -4    1.51    0.43
   7  -3   5    1.09    0.51
  -7   3  -5    1.65    0.52
  -7   3  -5    1.12    0.43
   7  -3   6    0.01    0.24
   7  -3   6   -0.23    0.28
  -7   3  -6    0.53    0.34
  -7   3  -6   -0.59    0.36
   7  -3   7    5.05    0.58
  -7   3  -7    4.37    0.48
  -7   3  -7    4.08    0.52
  -7   3  -8    4.74    0.46
  -7   2   9   26.77    1.10
  -7   2   8    0.86    0.36
  -7   2   8    0.01    0.21
  -7   2   7    1.09    0.35
  -7   2   7    1.05    0.40
  -7   2   7    0.49    0.30
  -7   2   7    1.56    0.42
  -7   2   6    0.62    0.45
  -7   2   6    0.00    0.35
  -7   2   6    0.53    0.35
  -7   2   6   -0.16    0.39
  -7   2   5   12.51    1.15
  -7   2   5   14.26    1.23
  -7   2   5   12.24    1.23
  -7   2   4   26.83    1.74
  -7   2   4   26.20    1.61
  -7   2   4   28.81    1.88
  -7   2   3    2.21    0.65
  -7   2   3    1.73    0.70
  -7   2   2   66.51    2.67
  -7   2   2   68.33    2.92
  -7   2   1    1.66    0.58
  -7   2   1    2.46    0.59
  -7   2   0    0.85    0.51
  -7   2   0    0.41    0.37
  -7   2  -1    5.51    0.79
  -7   2  -1    6.53    0.93
  -7   2  -2    5.67    0.76
  -7   2  -2    5.17    0.86
  -7   2  -3    1.96    0.64
  -7   2  -4    3.59    0.80
  -7   2  -4    4.21    0.63
  -7   2  -5   59.41    2.43
  -7   2  -5   54.98    2.15
   7  -2   6    6.74    0.73
  -7   2  -6    7.06    0.82
  -7   2  -6    6.41    0.74
   7  -2   7    5.49    0.65
  -7   2  -7    5.38    0.62
  -7   2  -7    4.42    0.61
   7  -2   8    4.96    0.51
  -7   2  -8    5.03    0.55
  -7   1   9    0.72    0.24
  -7   1   9    0.10    0.15
  -7   1   8   -0.07    0.30
  -7   1   8   -0.07    0.21
  -7   1   7    0.41    0.33
  -7   1   7   -0.25    0.41
  -7   1   7   -0.25    0.30
  -7   1   6   15.04    1.16
  -7   1   6   14.11    1.21
  -7   1   6   15.16    1.12
  -7   1   6   13.88    1.13
  -7   1   5   21.13    1.49
  -7   1   5   20.96    1.50
  -7   1   5   21.17    1.51
  -7   1   4  156.33    4.03
  -7   1   4  145.56    3.80
  -7   1   4  143.00    4.05
  -7   1   3    2.35    0.60
  -7   1   3    1.81    0.47
  -7   1   3    1.76    0.62
  -7   1   2   -0.12    0.43
  -7   1   1    5.04    0.83
  -7   1   1    4.66    0.68
  -7   1   0    9.56    1.02
  -7   1   0    7.58    0.90
  -7   1  -1    0.33    0.32
  -7   1  -1   -0.47    0.45
  -7   1  -2   11.19    1.16
  -7   1  -3    0.01    0.48
  -7   1  -4    9.25    1.12
  -7   1  -5   79.28    2.88
  -7   1  -5   76.21    2.52
  -7   1  -6   38.73    1.91
  -7   1  -6   39.37    1.82
  -7   1  -7    1.16    0.43
  -7   1  -7    0.76    0.37
  -7   1  -8    1.86    0.39
  -7   1  -9    0.56    0.25
  -7   0   9    6.12    0.55
  -7   0   9    5.32    0.47
  -7   0   8    1.11    0.28
  -7   0   8    0.74    0.29
  -7   0   8    0.31    0.24
  -7   0   7   44.76    1.80
  -7   0   7   43.78    1.94
  -7   0   7   44.00    1.81
  -7   0   6    1.22    0.45
  -7   0   6    1.44    0.53
  -7   0   6    1.55    0.43
  -7   0   5    4.37    0.77
  -7   0   5    4.43    0.80
  -7   0   5    4.81    0.66
  -7   0   4    6.77    0.95
  -7   0   4    5.84    0.83
  -7   0   3  135.41    3.81
  -7   0   3  133.13    3.54
  -7   0   2   81.04    2.90
  -7   0   1   -0.42    0.39
  -7   0   1    0.15    0.31
  -7   0   0    3.98    0.71
  -7   0   0    3.69    1.38
  -7   0   0    3.41    0.62
  -7   0  -1    0.74    0.40
  -7   0  -1    0.58    1.06
   7   0   1   -0.65    0.84
  -7   0  -1   -0.03    0.43
  -7   0  -2    0.21    0.46
  -7   0  -3   -0.54    0.55
  -7   0  -4    0.61    0.52
  -7   0  -5    7.88    1.01
  -7   0  -5    5.81    0.76
  -7   0  -6   -0.29    0.46
  -7   0  -6   -0.72    0.42
  -7   0  -7   14.80    1.14
  -7   0  -7   15.09    1.11
  -7   0  -8    4.90    0.59
  -7   0  -8    4.57    0.61
  -7   0  -9    0.46    0.24
  -7  -1   9   11.95    0.71
  -7  -1   8   -0.08    0.19
  -7  -1   8   -0.19    0.33
  -7  -1   8    0.05    0.23
  -7  -1   7   -0.14    0.34
  -7  -1   7   -0.42    0.41
  -7  -1   7    0.20    0.33
  -7  -1   6   68.67    2.47
  -7  -1   6   74.23    2.66
  -7  -1   6   70.94    2.41
  -7  -1   5    1.87    0.64
  -7  -1   5    1.23    0.58
  -7  -1   5    1.10    0.37
  -7  -1   4   18.70    1.45
  -7  -1   4   17.89    1.43
  -7  -1   4   17.03    1.21
  -7  -1   3   53.11    2.40
  -7  -1   3   54.91    2.30
  -7  -1   2    4.71    0.80
  -7  -1   1  131.94    3.66
   7   1  -1  133.08    6.70
   7   1   0    9.32    2.23
  -7  -1   0   13.10    1.14
  -7  -1   0   13.91    2.32
   7   1   0   13.03    2.13
  -7  -1   0   14.24    1.16
  -7  -1  -1    3.66    0.61
  -7  -1  -1    4.60    1.42
   7   1   1    3.83    1.28
  -7  -1  -1    4.28    0.72
   7   1   2   49.72    4.43
  -7  -1  -2   56.00    4.24
  -7  -1  -2   56.51    2.43
  -7  -1  -3    1.93    0.60
  -7  -1  -4    7.77    1.05
  -7  -1  -5    4.68    0.87
  -7  -1  -6    2.81    0.66
  -7  -1  -6    2.17    0.51
  -7  -1  -7    2.63    0.58
  -7  -1  -7    3.36    0.56
  -7  -1  -8   -0.47    0.35
  -7  -1  -8   -0.58    0.30
  -7  -1  -9    0.35    0.24
  -7  -2   8   19.95    1.00
  -7  -2   8   20.30    1.07
  -7  -2   7    0.47    0.28
  -7  -2   7    0.12    0.30
  -7  -2   7   -0.14    0.30
  -7  -2   6    1.05    0.43
  -7  -2   6    1.49    0.48
  -7  -2   6    1.47    0.46
  -7  -2   5   27.16    1.67
  -7  -2   5   27.90    1.54
  -7  -2   5   24.83    1.60
  -7  -2   4   64.40    2.62
  -7  -2   4   65.10    2.38
  -7  -2   4   60.28    2.50
  -7  -2   3  207.03    4.69
  -7  -2   3  191.96    4.36
  -7  -2   2    0.60    0.37
  -7  -2   2    0.75    0.53
  -7  -2   2    0.30    0.32
  -7  -2   1   34.64    1.87
  -7  -2   1   33.54    1.86
  -7  -2   0   -0.03    0.41
  -7  -2   0   -0.31    0.37
  -7  -2   0    0.59    0.40
  -7  -2  -1    7.96    0.88
  -7  -2  -1    6.96    0.90
  -7  -2  -2   52.55    2.33
  -7  -2  -3    0.23    0.51
  -7  -2  -4    3.03    0.75
  -7  -2  -5    2.39    0.68
  -7  -2  -6    3.75    0.74
  -7  -2  -7    1.53    0.43
  -7  -2  -7    2.02    0.57
  -7  -2  -7    1.91    0.43
  -7  -2  -8    5.37    0.65
  -7  -2  -8    4.89    0.59
   7   2   9   -0.56    0.29
  -7  -2  -9   -0.09    0.19
  -7  -2  -9    0.09    0.23
  -7  -3   8    0.41    0.19
  -7  -3   7    7.13    0.66
  -7  -3   7    7.97    0.70
  -7  -3   7    7.14    0.70
  -7  -3   6   10.11    0.94
  -7  -3   6   10.43    0.88
  -7  -3   6    9.90    0.95
  -7  -3   6    9.25    0.80
  -7  -3   5    1.88    0.55
  -7  -3   5    1.67    0.52
  -7  -3   5    1.16    0.38
  -7  -3   5    2.48    0.52
  -7  -3   4    8.74    1.08
  -7  -3   4    7.45    0.81
  -7  -3   4    8.75    0.96
  -7  -3   3    9.09    1.04
  -7  -3   3    7.85    0.85
  -7  -3   3   10.03    1.06
  -7  -3   2   11.40    1.06
  -7  -3   2   12.38    1.22
  -7  -3   2   10.95    1.05
  -7  -3   1   50.44    2.24
  -7  -3   1   50.69    2.28
  -7  -3   0   19.98    1.51
  -7  -3   0   20.90    1.44
  -7  -3   0   20.90    1.38
  -7  -3  -1    7.33    0.86
  -7  -3  -1    5.91    0.90
  -7  -3  -1    5.31    0.75
  -7  -3  -2    0.99    0.51
  -7  -3  -2    1.15    0.53
  -7  -3  -3   23.05    1.68
  -7  -3  -3   22.82    1.61
  -7  -3  -4    2.45    0.68
  -7  -3  -4    2.44    0.68
  -7  -3  -5   59.34    2.51
  -7  -3  -5   56.80    2.51
  -7  -3  -6   -0.04    0.40
  -7  -3  -6    1.02    0.56
  -7  -3  -7    2.36    0.48
  -7  -3  -7    2.04    0.56
  -7  -3  -8    6.00    0.71
  -7  -3  -8    5.26    0.59
   7   3   9    1.12    0.36
  -7  -3  -9    1.42    0.32
  -7  -3  -9    1.11    0.29
  -7  -4   7   10.90    0.68
  -7  -4   7   10.57    0.72
  -7  -4   6    2.50    0.49
  -7  -4   6    2.89    0.51
  -7  -4   6    2.60    0.45
  -7  -4   5    1.77    0.51
  -7  -4   5    1.83    0.48
  -7  -4   5    1.42    0.43
  -7  -4   4    1.63    0.57
  -7  -4   4    2.16    0.57
  -7  -4   4    1.65    0.42
  -7  -4   3    6.10    0.90
  -7  -4   3    7.12    0.87
  -7  -4   3    6.30    0.73
  -7  -4   2   51.09    2.15
  -7  -4   2   55.16    2.41
  -7  -4   2   53.90    2.23
  -7  -4   1   23.63    1.55
  -7  -4   1   23.78    1.59
  -7  -4   0    9.33    1.06
  -7  -4   0    9.77    1.00
  -7  -4   0    9.84    0.94
  -7  -4  -1   29.28    1.84
  -7  -4  -1   29.24    1.61
  -7  -4  -1   28.72    1.68
  -7  -4  -2    2.48    0.67
  -7  -4  -2    3.04    0.62
  -7  -4  -3    0.20    0.46
  -7  -4  -3   -0.13    0.49
  -7  -4  -4   21.80    1.59
  -7  -4  -4   19.95    1.53
  -7  -4  -5    7.63    0.95
  -7  -4  -5    9.14    1.06
  -7  -4  -6   -0.02    0.34
  -7  -4  -6   -0.33    0.51
  -7  -4  -7   -0.17    0.27
  -7  -4  -7   -0.10    0.38
  -7  -4  -8   11.86    0.94
   7   4   9    6.27    0.66
  -7  -4  -9    5.78    0.56
  -7  -5   6    1.31    0.28
  -7  -5   5    6.50    0.70
  -7  -5   5    4.95    0.55
  -7  -5   4    0.51    0.44
  -7  -5   4    0.56    0.38
  -7  -5   4    0.60    0.33
  -7  -5   3    4.41    0.73
  -7  -5   3    4.47    0.68
  -7  -5   3    3.99    0.60
  -7  -5   2   11.32    1.00
  -7  -5   2   10.13    1.04
  -7  -5   2   11.91    0.95
  -7  -5   1    6.18    0.81
  -7  -5   1    5.68    0.80
  -7  -5   0   79.71    2.81
  -7  -5   0   69.83    2.53
  -7  -5  -1   45.31    2.20
  -7  -5  -2    0.61    0.55
  -7  -5  -2   -0.30    0.37
  -7  -5  -2    0.19    0.40
  -7  -5  -3  115.43    3.49
  -7  -5  -3  106.81    3.05
  -7  -5  -3  113.19    3.37
  -7  -5  -4    5.86    0.84
  -7  -5  -4    5.76    0.79
  -7  -5  -4    3.36    0.72
  -7  -5  -5   25.07    1.52
  -7  -5  -5   26.07    1.55
  -7  -5  -5   26.68    1.66
  -7  -5  -6    0.99    0.46
  -7  -5  -6    0.99    0.46
  -7  -5  -6    0.42    0.41
  -7  -5  -7    7.18    0.65
  -7  -5  -7    8.54    0.82
   7   5   8   -0.06    0.34
  -7  -5  -8   -0.12    0.25
   7   5   9    0.01    0.20
  -7  -5  -9    0.19    0.16
  -7  -6   4   -0.16    0.21
  -7  -6   3    0.82    0.42
  -7  -6   3   -0.73    0.29
  -7  -6   2    0.13    0.28
  -7  -6   2    0.78    0.41
  -7  -6   2    1.16    0.32
  -7  -6   1    1.17    0.41
  -7  -6   1    2.06    0.50
  -7  -6   0   22.28    1.42
  -7  -6   0   21.18    1.27
  -7  -6  -1   35.52    1.83
  -7  -6  -2   24.79    1.57
  -7  -6  -3    0.92    0.52
  -7  -6  -3    1.34    0.37
  -7  -6  -4    9.64    0.95
  -7  -6  -4    8.50    0.82
  -7  -6  -5    6.34    0.74
  -7  -6  -5    7.17    0.75
  -7  -6  -6    0.38    0.28
   7   6   6   -0.08    0.28
  -7  -6  -6   -0.24    0.30
   7   6   7    1.34    0.38
  -7  -6  -7    1.78    0.41
   7   6   8    5.54    0.56
  -7  -6  -8    6.24    0.55
  -7  -7   2    9.78    0.63
  -7  -7   1   -0.06    0.21
  -7  -7   0    4.88    0.60
  -7  -7  -1    3.65    0.60
  -7  -7  -2    9.79    0.89
  -7  -7  -3    3.28    0.54
  -7  -7  -4    1.19    0.37
  -7  -7  -4    1.75    0.33
  -7  -7  -5    0.27    0.24
  -7  -7  -5    0.76    0.29
  -7  -7  -6    1.39    0.31
  -7  -7  -7    1.76    0.29
  -7  -8  -1    0.34    0.19
  -7  -8  -2    0.61    0.27
  -7  -8  -3   -0.30    0.21
  -8   5   4    9.25    0.66
  -8   5   3    4.16    0.52
  -8   5   2   -0.11    0.26
  -8   5   1    0.04    0.22
  -8   5   1    0.30    0.22
  -8   5   0    9.67    0.73
  -8   5   0    8.21    0.68
  -8   5  -1    1.08    0.28
   8  -5   1    1.18    0.39
  -8   5  -1    1.10    0.32
   8  -5   2    2.54    0.46
  -8   5  -2    2.78    0.44
   8  -5   3    4.79    0.51
  -8   5  -3    5.45    0.50
  -8   4   5    4.45    0.51
  -8   4   4    1.25    0.41
  -8   4   3   10.21    0.88
  -8   4   2    0.28    0.34
  -8   4   1   16.20    1.13
  -8   4   1   15.08    1.00
  -8   4   0   17.35    1.13
  -8   4   0   16.78    1.11
  -8   4  -1   -0.32    0.29
  -8   4  -1   -0.09    0.31
  -8   4  -2   19.00    1.19
   8  -4   3    1.33    0.46
  -8   4  -3    2.21    0.47
   8  -4   4    0.30    0.29
  -8   4  -4    0.13    0.23
  -8   4  -5    1.46    0.28
  -8   3   6    2.43    0.38
  -8   3   6    2.13    0.35
  -8   3   5    0.91    0.32
  -8   3   4   45.90    1.87
  -8   3   3    0.30    0.41
  -8   3   2    9.31    0.95
  -8   3   1    3.30    0.66
  -8   3   1    2.97    0.52
  -8   3   0    8.53    0.88
  -8   3   0    8.28    0.85
  -8   3  -1   22.52    1.30
  -8   3  -1   20.86    1.37
  -8   3  -2    2.24    0.54
  -8   3  -3    3.59    0.63
  -8   3  -4    3.32    0.55
   8  -3   5    0.76    0.29
   8  -3   5    0.84    0.28
  -8   3  -5    0.91    0.32
  -8   3  -6    1.16    0.26
  -8   2   7    3.49    0.41
  -8   2   6   12.49    0.89
  -8   2   6   11.75    0.81
  -8   2   5   21.25    1.27
  -8   2   5   18.95    1.07
  -8   2   4    5.23    0.72
  -8   2   3    2.43    0.60
  -8   2   2    3.23    0.69
  -8   2   1    2.35    0.59
  -8   2   1    2.08    0.49
  -8   2   0   10.52    1.01
  -8   2   0   13.11    1.10
  -8   2  -1   10.51    0.96
  -8   2  -1   10.75    1.03
  -8   2  -2    5.20    0.75
  -8   2  -3    0.93    0.48
  -8   2  -4    1.31    0.53
  -8   2  -5    7.35    0.79
  -8   2  -6    8.27    0.73
  -8   2  -6    5.95    0.52
  -8   1   7    0.19    0.20
  -8   1   7    0.38    0.21
  -8   1   6    1.13    0.37
  -8   1   6    0.64    0.33
  -8   1   5    9.11    0.87
  -8   1   5    9.56    0.84
  -8   1   4    0.47    0.40
  -8   1   3    9.37    1.02
  -8   1   2    9.69    1.06
  -8   1   1    9.02    1.00
  -8   1   1    5.94    0.74
  -8   1   0    0.77    0.48
  -8   1   0    0.36    0.32
  -8   1  -1    1.20    0.36
  -8   1  -1    0.60    0.38
  -8   1  -2    1.80    0.62
  -8   1  -3    0.57    0.46
  -8   1  -4   16.20    1.28
  -8   1  -5   17.03    1.23
  -8   1  -6   10.69    0.91
  -8   1  -7    5.36    0.55
  -8   1  -7    4.24    0.43
  -8   0   7   -0.13    0.19
  -8   0   7   -0.08    0.20
  -8   0   6    6.99    0.70
  -8   0   6    8.02    0.74
  -8   0   5   18.88    1.26
  -8   0   5   17.04    1.12
  -8   0   4    8.44    0.97
  -8   0   4    8.06    0.81
  -8   0   3    1.07    0.50
  -8   0   2    0.78    0.49
  -8   0   1   21.45    1.39
  -8   0   1   20.59    1.43
  -8   0   0    6.12    0.82
  -8   0   0    6.42    0.79
  -8   0  -1   30.75    1.62
  -8   0  -1   30.65    1.73
  -8   0  -2    4.07    0.78
  -8   0  -3    0.80    0.49
  -8   0  -4    2.15    0.62
  -8   0  -5   33.93    1.78
  -8   0  -6    3.90    0.64
  -8   0  -7   12.67    0.90
  -8  -1   7    4.93    0.48
  -8  -1   7    5.26    0.53
  -8  -1   6    2.62    0.46
  -8  -1   6    2.81    0.48
  -8  -1   5   41.98    1.83
  -8  -1   5   38.86    1.68
  -8  -1   4    6.77    0.87
  -8  -1   4    7.39    0.78
  -8  -1   3   15.54    1.27
  -8  -1   2    2.39    0.65
  -8  -1   1   -0.12    0.33
  -8  -1   1    0.25    0.37
  -8  -1   0   14.40    1.21
  -8  -1   0   15.05    1.21
  -8  -1   0   14.15    1.12
  -8  -1  -1    8.19    0.88
  -8  -1  -1   10.20    1.04
  -8  -1  -2   47.20    2.17
  -8  -1  -3    0.43    0.49
  -8  -1  -4    6.64    0.92
  -8  -1  -5    0.22    0.49
  -8  -1  -6    0.30    0.36
  -8  -1  -7    2.25    0.46
  -8  -1  -7    1.98    0.45
  -8  -1  -8    0.27    0.25
  -8  -2   6    3.54    0.52
  -8  -2   6    2.01    0.40
  -8  -2   5    0.07    0.34
  -8  -2   5    0.77    0.34
  -8  -2   4   22.46    1.44
  -8  -2   4   19.65    1.20
  -8  -2   3    4.14    0.71
  -8  -2   2    1.15    0.53
  -8  -2   1    8.74    0.94
  -8  -2   1    9.89    1.02
  -8  -2   0   23.18    1.54
  -8  -2   0   24.01    1.50
  -8  -2   0   22.94    1.38
  -8  -2  -1    0.38    0.42
  -8  -2  -1    0.55    0.34
  -8  -2  -1    0.56    0.37
  -8  -2  -2    5.24    0.86
  -8  -2  -2    5.33    0.80
  -8  -2  -3    7.19    0.96
  -8  -2  -3    7.02    0.92
  -8  -2  -4   -0.17    0.48
  -8  -2  -4   -0.05    0.44
  -8  -2  -5    9.24    1.01
  -8  -2  -5   11.49    1.13
  -8  -2  -6   18.95    1.28
  -8  -2  -6   18.84    1.29
  -8  -2  -7    0.51    0.30
  -8  -2  -7    0.72    0.38
  -8  -2  -8    5.76    0.54
  -8  -3   6    5.13    0.53
  -8  -3   6    3.84    0.44
  -8  -3   5    5.89    0.67
  -8  -3   5    5.77    0.62
  -8  -3   4    9.29    0.89
  -8  -3   4    9.30    0.79
  -8  -3   3   -0.28    0.50
  -8  -3   2    1.78    0.51
  -8  -3   1    6.15    0.77
  -8  -3   1    6.96    0.86
  -8  -3   0    1.98    0.55
  -8  -3   0    3.61    0.61
  -8  -3  -1    3.71    0.67
  -8  -3  -1    3.51    0.59
  -8  -3  -2    0.91    0.58
  -8  -3  -2    0.44    0.41
  -8  -3  -3   22.78    1.58
  -8  -3  -3   21.84    1.46
  -8  -3  -4    0.40    0.47
  -8  -3  -4    1.03    0.54
  -8  -3  -5    9.18    0.95
  -8  -3  -5    9.89    0.98
  -8  -3  -6   12.67    1.01
  -8  -3  -6   11.74    1.03
  -8  -3  -7    0.17    0.24
  -8  -3  -7    0.23    0.28
  -8  -3  -8    1.88    0.35
  -8  -4   5   -0.03    0.21
  -8  -4   4    2.57    0.50
  -8  -4   4    2.32    0.42
  -8  -4   3    2.44    0.52
  -8  -4   3    2.21    0.41
  -8  -4   2    1.36    0.35
  -8  -4   2    0.33    0.39
  -8  -4   1   -0.03    0.28
  -8  -4   1    0.66    0.37
  -8  -4   0   -0.53    0.37
  -8  -4   0    0.84    0.42
  -8  -4  -1   21.43    1.44
  -8  -4  -1   20.75    1.27
  -8  -4  -2    0.68    0.49
  -8  -4  -2    1.29    0.46
  -8  -4  -3   28.31    1.67
  -8  -4  -3   26.84    1.56
  -8  -4  -4   24.03    1.49
  -8  -4  -4   24.79    1.49
  -8  -4  -5   17.32    1.21
  -8  -4  -5   18.98    1.30
  -8  -4  -6    1.54    0.39
  -8  -4  -6    1.88    0.46
  -8  -4  -6    1.23    0.45
  -8  -4  -7   16.03    0.86
  -8  -4  -7   17.83    1.03
   8   4   8   -0.02    0.23
  -8  -4  -8    0.69    0.26
  -8  -5   4    2.64    0.40
  -8  -5   3   -0.30    0.24
  -8  -5   2    1.08    0.39
  -8  -5   1    1.36    0.37
  -8  -5   1    1.71    0.45
  -8  -5   0   -0.29    0.36
  -8  -5   0    0.00    0.26
  -8  -5  -1   29.90    1.57
  -8  -5  -2   17.18    1.22
  -8  -5  -3   10.19    0.95
  -8  -5  -3    8.78    0.76
  -8  -5  -4    0.91    0.38
  -8  -5  -4    0.90    0.33
  -8  -5  -5    1.84    0.42
  -8  -5  -5    1.79    0.40
  -8  -5  -6    5.26    0.55
  -8  -5  -6    5.29    0.59
   8   5   7    0.30    0.24
  -8  -5  -7    0.20    0.22
  -8  -6   1    1.66    0.31
  -8  -6   0    0.35    0.22
  -8  -6  -1   11.76    0.87
  -8  -6  -2    2.46    0.45
  -8  -6  -3    4.16    0.57
  -8  -6  -4   15.96    0.99
  -8  -6  -4   13.85    0.79
  -8  -6  -5    0.30    0.20
  -8  -6  -5    0.15    0.18
  -8  -6  -6    6.79    0.53
  -8  -7  -1    0.36    0.18
  -8  -7  -2    5.15    0.49
  -8  -7  -3    5.85    0.52
  -9   4   2    0.00    0.17
   9  -4   1    0.65    0.25
  -9   3   4    3.16    0.38
  -9   3   3    1.40    0.33
  -9   3   2    1.51    0.33
  -9   3   1    4.02    0.50
  -9   3   0    1.35    0.31
  -9   3   0    1.30    0.30
  -9   3  -1    1.77    0.34
  -9   3  -2    2.73    0.42
   9  -3   3    0.00    0.21
  -9   3  -3   -0.30    0.22
  -9   2   5    5.74    0.50
  -9   2   4   16.51    0.93
  -9   2   3    0.39    0.26
  -9   2   2    0.60    0.35
  -9   2   1    5.66    0.65
  -9   2   0    4.59    0.56
  -9   2   0    4.36    0.53
  -9   2  -1    0.32    0.25
  -9   2  -2    1.63    0.41
  -9   2  -3    0.47    0.27
   9  -2   4    6.19    0.56
  -9   2  -4    8.44    0.71
  -9   2  -5   29.74    1.09
  -9   1   5   18.72    0.93
  -9   1   4   16.41    0.99
  -9   1   3   23.24    1.26
  -9   1   2    6.94    0.73
  -9   1   1   -0.09    0.29
  -9   1   0    5.92    0.63
  -9   1   0    5.66    0.63
  -9   1   0    4.78    0.56
  -9   1  -1    0.16    0.27
  -9   1  -2    0.82    0.35
  -9   1  -3   14.96    1.03
  -9   1  -4    5.15    0.59
  -9   1  -5    1.36    0.35
  -9   0   5   10.42    0.72
  -9   0   4    6.03    0.64
  -9   0   3   13.76    1.00
  -9   0   2   -0.40    0.36
  -9   0   1   17.50    1.13
  -9   0   0    1.20    0.38
  -9   0   0    0.83    0.32
  -9   0   0    1.16    0.32
  -9   0  -1    0.03    0.32
  -9   0  -1    0.28    0.27
  -9   0  -2    9.96    0.89
  -9   0  -3    1.40    0.41
  -9   0  -4    0.95    0.39
  -9   0  -5    6.18    0.67
  -9   0  -5    6.44    0.65
  -9   0  -6    8.32    0.64
  -9   0  -6    8.10    0.63
  -9  -1   5    0.57    0.23
  -9  -1   4   39.91    1.54
  -9  -1   3    5.46    0.66
  -9  -1   2    7.41    0.76
  -9  -1   1    1.44    0.43
  -9  -1   0   -0.01    0.29
  -9  -1   0   -0.38    0.34
  -9  -1  -1    3.63    0.61
  -9  -1  -1    3.51    0.54
  -9  -1  -2    2.82    0.57
  -9  -1  -2    2.94    0.54
  -9  -1  -3    3.94    0.63
  -9  -1  -3    5.10    0.67
  -9  -1  -4    4.33    0.65
  -9  -1  -4    5.25    0.67
  -9  -1  -5    1.47    0.39
  -9  -1  -5    2.04    0.44
  -9  -1  -6    1.79    0.34
  -9  -1  -6    1.88    0.37
  -9  -2   5    1.98    0.32
  -9  -2   4    8.99    0.72
  -9  -2   3    4.36    0.56
  -9  -2   2    0.27    0.29
  -9  -2   1    1.04    0.32
  -9  -2   1    0.73    0.28
  -9  -2   0   11.13    0.91
  -9  -2   0   11.57    0.86
  -9  -2  -1    2.24    0.49
  -9  -2  -1    2.84    0.46
  -9  -2  -2   10.99    0.97
  -9  -2  -2    8.58    0.80
  -9  -2  -3    1.33    0.47
  -9  -2  -3    1.73    0.47
  -9  -2  -4    3.45    0.58
  -9  -2  -4    4.05    0.58
  -9  -2  -5    1.19    0.36
  -9  -2  -5    0.92    0.35
  -9  -2  -6    3.32    0.43
  -9  -2  -6    4.57    0.52
  -9  -3   4    0.72    0.25
  -9  -3   3   -0.34    0.28
  -9  -3   2   14.06    0.92
  -9  -3   1    0.90    0.29
  -9  -3   1    0.80    0.33
  -9  -3   0    0.75    0.32
  -9  -3  -1    2.70    0.52
  -9  -3  -1    2.18    0.40
  -9  -3  -2    0.04    0.30
  -9  -3  -2   -0.06    0.23
  -9  -3  -3    0.90    0.36
  -9  -3  -3    0.63    0.30
  -9  -3  -4   15.26    1.05
  -9  -3  -4   13.90    0.97
  -9  -3  -5    4.92    0.58
  -9  -3  -5    4.08    0.52
  -9  -3  -6    0.10    0.20
  -9  -3  -6    0.25    0.20
  -9  -3  -6    0.05    0.20
  -9  -4   2    2.86    0.41
  -9  -4   1    0.74    0.28
  -9  -4   0   15.28    0.91
  -9  -4  -1    2.16    0.42
  -9  -4  -2   -0.40    0.29
  -9  -4  -3    7.03    0.69
  -9  -4  -3    5.73    0.53
  -9  -4  -4    5.50    0.59
  -9  -4  -4    5.54    0.54
  -9  -4  -5    6.47    0.58
  -9  -4  -5    6.46    0.55
  -9  -5  -1   25.08    1.08
  -9  -5  -2    7.44    0.62
  -9  -5  -3    6.94    0.60
  -9  -5  -4    5.30    0.49
   0   0   0    0.00    0.00


TITL y2-082 in P-1
REM P-1 (#2 in standard setting)
CELL 1.54184   8.194904   8.585223  10.917660  79.5288  87.1309  85.9150
ZERR   14.00   0.000478   0.000467   0.000646   0.0047   0.0048   0.0046
LATT  1
SFAC C H N O
UNIT 14.00 14.00 14.00 14.00
TREF
HKLF 4
END
_computing_structure_solution     'SHELXT 2014/5 (Sheldrick, 2014)'
;
_shelx_hkl_checksum              93486
_olex2_submission_original_sample_id 082
_olex2_submission_special_instructions 'No special instructions were received'
_oxdiff_exptl_absorpt_empirical_details
;
Empirical correction (ABSPACK) includes:
- Absorption correction using spherical harmonics
- Frame scaling
;
_oxdiff_exptl_absorpt_empirical_full_max 1.545
_oxdiff_exptl_absorpt_empirical_full_min 0.879
loop_
_space_group_symop_operation_xyz
'x, y, z'
'-x, -y, -z'
loop_
_atom_site_label
_atom_site_type_symbol
_atom_site_fract_x
_atom_site_fract_y
_atom_site_fract_z
_atom_site_U_iso_or_equiv
_atom_site_adp_type
_atom_site_occupancy
_atom_site_site_symmetry_order
_atom_site_calc_flag
_atom_site_refinement_flags_posn
O001 O 0.46301(13) 0.03621(13) 0.79480(10) 0.0591(3) Uani 1 1 d .
O002 O 0.54037(13) 0.12785(14) 0.59679(11) 0.0655(3) Uani 1 1 d .
O003 O 0.06224(15) 0.00180(14) 0.81644(11) 0.0692(3) Uani 1 1 d .
N004 N 0.15609(14) 0.24391(13) 0.81432(10) 0.0446(3) Uani 1 1 d .
C005 C 0.22799(15) 0.37611(15) 0.53370(12) 0.0413(3) Uani 1 1 d .
C006 C 0.28768(15) 0.43751(14) 0.64024(12) 0.0410(3) Uani 1 1 d .
C007 C 0.25481(17) 0.09279(15) 0.65006(13) 0.0447(3) Uani 1 1 d .
H007 H 0.2374 -0.0108 0.6290 0.054 Uiso 1 1 calc R
C008 C 0.24622(16) 0.37544(15) 0.76448(12) 0.0417(3) Uani 1 1 d .
C009 C 0.43637(18) 0.09111(15) 0.67476(13) 0.0463(3) Uani 1 1 d .
C00A C 0.20566(16) 0.21528(16) 0.53798(12) 0.0427(3) Uani 1 1 d .
C00B C 0.14765(17) 0.10564(16) 0.76604(13) 0.0473(3) Uani 1 1 d .
C00C C 0.18574(18) 0.48357(18) 0.42524(13) 0.0505(3) Uani 1 1 d .
H00C H 0.2010 0.5909 0.4202 0.061 Uiso 1 1 calc R
C00D C 0.37697(18) 0.57270(16) 0.62181(15) 0.0519(3) Uani 1 1 d .
H00D H 0.4119 0.6156 0.5412 0.062 Uiso 1 1 calc R
C00E C 0.14058(18) 0.1660(2) 0.43689(14) 0.0535(4) Uani 1 1 d .
H00E H 0.1258 0.0589 0.4402 0.064 Uiso 1 1 calc R
C00F C 0.27429(19) 0.45425(18) 0.86274(14) 0.0540(4) Uani 1 1 d .
C00G C 0.12200(19) 0.4323(2) 0.32595(14) 0.0581(4) Uani 1 1 d .
H00G H 0.0953 0.5051 0.2547 0.070 Uiso 1 1 calc R
C00H C 0.1248(2) 0.2463(2) 0.94186(13) 0.0573(4) Uani 1 1 d .
H00H H 0.0652 0.1733 0.9964 0.069 Uiso 1 1 calc R
C00I C 0.0977(2) 0.2743(2) 0.33180(14) 0.0605(4) Uani 1 1 d .
H00I H 0.0526 0.2405 0.2654 0.073 Uiso 1 1 calc R
C00J C 0.1938(2) 0.3692(2) 0.97242(14) 0.0641(4) Uani 1 1 d .
H00J H 0.1904 0.3957 1.0514 0.077 Uiso 1 1 calc R
C00K C 0.4157(2) 0.64566(19) 0.71894(18) 0.0646(4) Uani 1 1 d .
H00K H 0.4791 0.7333 0.7026 0.078 Uiso 1 1 calc R
C00L C 0.3615(2) 0.5903(2) 0.83934(17) 0.0687(5) Uani 1 1 d .
H00L H 0.3829 0.6427 0.9037 0.082 Uiso 1 1 calc R
C00M C 0.6307(2) 0.0330(3) 0.8337(2) 0.0776(5) Uani 1 1 d .
H00A H 0.7059 0.0169 0.7650 0.093 Uiso 1 1 calc R
H00B H 0.6498 -0.0550 0.9020 0.093 Uiso 1 1 calc R
C00N C 0.6617(3) 0.1819(3) 0.8736(3) 0.1015(8) Uani 1 1 d .
H00F H 0.6629 0.2660 0.8024 0.152 Uiso 1 1 calc GR
H00M H 0.7656 0.1709 0.9122 0.152 Uiso 1 1 calc GR
H00N H 0.5768 0.2063 0.9322 0.152 Uiso 1 1 calc GR
loop_
_atom_site_aniso_label
_atom_site_aniso_U_11
_atom_site_aniso_U_22
_atom_site_aniso_U_33
_atom_site_aniso_U_23
_atom_site_aniso_U_13
_atom_site_aniso_U_12
O001 0.0550(6) 0.0625(6) 0.0574(6) -0.0047(5) -0.0102(5) 0.0039(5)
O002 0.0506(6) 0.0689(7) 0.0705(7) 0.0006(6) 0.0065(5) 0.0005(5)
O003 0.0743(8) 0.0649(7) 0.0673(7) -0.0026(6) 0.0128(6) -0.0305(6)
N004 0.0440(6) 0.0481(6) 0.0397(6) -0.0031(4) 0.0018(4) -0.0035(5)
C005 0.0370(6) 0.0449(7) 0.0405(6) -0.0057(5) 0.0046(5) -0.0012(5)
C006 0.0402(6) 0.0370(6) 0.0449(7) -0.0074(5) 0.0027(5) 0.0006(5)
C007 0.0499(7) 0.0370(6) 0.0477(7) -0.0070(5) -0.0004(6) -0.0088(5)
C008 0.0395(6) 0.0402(6) 0.0448(7) -0.0084(5) -0.0007(5) 0.0016(5)
C009 0.0505(8) 0.0328(6) 0.0548(8) -0.0069(5) -0.0011(6) 0.0004(5)
C00A 0.0398(7) 0.0472(7) 0.0415(7) -0.0087(5) 0.0019(5) -0.0064(5)
C00B 0.0466(7) 0.0465(7) 0.0468(7) -0.0001(6) -0.0030(6) -0.0093(6)
C00C 0.0502(8) 0.0514(8) 0.0453(7) -0.0014(6) 0.0055(6) 0.0050(6)
C00D 0.0541(8) 0.0399(7) 0.0612(9) -0.0102(6) 0.0090(6) -0.0047(6)
C00E 0.0508(8) 0.0641(9) 0.0493(8) -0.0170(7) 0.0019(6) -0.0139(7)
C00F 0.0591(9) 0.0544(8) 0.0508(8) -0.0182(6) -0.0026(6) 0.0032(7)
C00G 0.0514(8) 0.0775(11) 0.0402(7) -0.0020(7) -0.0003(6) 0.0091(7)
C00H 0.0597(9) 0.0674(10) 0.0400(7) -0.0013(6) 0.0061(6) 0.0022(7)
C00I 0.0525(9) 0.0877(12) 0.0435(8) -0.0159(7) -0.0037(6) -0.0078(8)
C00J 0.0793(11) 0.0723(10) 0.0415(8) -0.0160(7) 0.0001(7) 0.0048(8)
C00K 0.0702(10) 0.0462(8) 0.0824(12) -0.0231(8) 0.0046(8) -0.0124(7)
C00L 0.0826(12) 0.0595(10) 0.0728(11) -0.0339(8) -0.0048(9) -0.0069(8)
C00M 0.0583(10) 0.0938(14) 0.0792(12) -0.0161(10) -0.0212(9) 0.0197(9)
C00N 0.0650(13) 0.128(2) 0.126(2) -0.0556(17) -0.0222(12) -0.0069(12)
loop_
_atom_type_symbol
_atom_type_description
_atom_type_scat_dispersion_real
_atom_type_scat_dispersion_imag
_atom_type_scat_source
C C 0.0181 0.0091 'International Tables Vol C Tables 4.2.6.8 and 6.1.1.4'
H H 0.0000 0.0000 'International Tables Vol C Tables 4.2.6.8 and 6.1.1.4'
N N 0.0311 0.0180 'International Tables Vol C Tables 4.2.6.8 and 6.1.1.4'
O O 0.0492 0.0322 'International Tables Vol C Tables 4.2.6.8 and 6.1.1.4'
loop_
_geom_angle_atom_site_label_1
_geom_angle_atom_site_label_2
_geom_angle_atom_site_label_3
_geom_angle
C009 O001 C00M 116.82(13)
C008 N004 C00H 107.72(12)
C00B N004 C008 127.21(11)
C00B N004 C00H 121.40(12)
C00A C005 C006 122.64(12)
C00A C005 C00C 118.24(13)
C00C C005 C006 119.07(12)
C008 C006 C005 123.12(12)
C00D C006 C005 121.17(12)
C00D C006 C008 115.42(13)
C009 C007 H007 106.3
C00A C007 H007 106.3
C00A C007 C009 112.29(11)
C00A C007 C00B 113.12(11)
C00B C007 H007 106.3
C00B C007 C009 112.04(11)
N004 C008 C00F 107.43(12)
C006 C008 N004 129.74(12)
C006 C008 C00F 122.37(13)
O001 C009 C007 110.42(12)
O002 C009 O001 124.85(14)
O002 C009 C007 124.67(14)
C005 C00A C007 120.83(12)
C00E C00A C005 119.89(13)
C00E C00A C007 119.27(12)
O003 C00B N004 120.92(14)
O003 C00B C007 123.01(14)
N004 C00B C007 116.05(11)
C005 C00C H00C 119.5
C00G C00C C005 120.99(14)
C00G C00C H00C 119.5
C006 C00D H00D 118.7
C00K C00D C006 122.58(14)
C00K C00D H00D 118.7
C00A C00E H00E 119.6
C00I C00E C00A 120.82(15)
C00I C00E H00E 119.6
C008 C00F C00J 106.62(14)
C00L C00F C008 119.65(14)
C00L C00F C00J 133.69(15)
C00C C00G H00G 119.8
C00I C00G C00C 120.38(14)
C00I C00G H00G 119.8
N004 C00H H00H 125.2
C00J C00H N004 109.52(14)
C00J C00H H00H 125.2
C00E C00I H00I 120.2
C00G C00I C00E 119.65(14)
C00G C00I H00I 120.2
C00F C00J H00J 125.7
C00H C00J C00F 108.67(14)
C00H C00J H00J 125.7
C00D C00K H00K 119.5
C00L C00K C00D 120.91(15)
C00L C00K H00K 119.5
C00F C00L H00L 120.7
C00K C00L C00F 118.59(15)
C00K C00L H00L 120.7
O001 C00M H00A 109.5
O001 C00M H00B 109.5
O001 C00M C00N 110.71(16)
H00A C00M H00B 108.1
C00N C00M H00A 109.5
C00N C00M H00B 109.5
C00M C00N H00F 109.5
C00M C00N H00M 109.5
C00M C00N H00N 109.5
H00F C00N H00M 109.5
H00F C00N H00N 109.5
H00M C00N H00N 109.5
loop_
_geom_bond_atom_site_label_1
_geom_bond_atom_site_label_2
_geom_bond_distance
O001 C009 1.3330(18)
O001 C00M 1.455(2)
O002 C009 1.1910(18)
O003 C00B 1.2080(17)
N004 C008 1.4043(17)
N004 C00B 1.3909(18)
N004 C00H 1.4067(18)
C005 C006 1.4788(19)
C005 C00A 1.3977(19)
C005 C00C 1.4041(19)
C006 C008 1.3986(19)
C006 C00D 1.3944(19)
C007 H007 0.9800
C007 C009 1.524(2)
C007 C00A 1.5122(19)
C007 C00B 1.5206(19)
C008 C00F 1.404(2)
C00A C00E 1.3937(19)
C00C H00C 0.9300
C00C C00G 1.380(2)
C00D H00D 0.9300
C00D C00K 1.386(2)
C00E H00E 0.9300
C00E C00I 1.382(2)
C00F C00J 1.440(2)
C00F C00L 1.390(2)
C00G H00G 0.9300
C00G C00I 1.375(2)
C00H H00H 0.9300
C00H C00J 1.333(2)
C00I H00I 0.9300
C00J H00J 0.9300
C00K H00K 0.9300
C00K C00L 1.377(3)
C00L H00L 0.9300
C00M H00A 0.9700
C00M H00B 0.9700
C00M C00N 1.466(3)
C00N H00F 0.9600
C00N H00M 0.9600
C00N H00N 0.9600
