#------------------------------------------------------------------------------
#$Date: 2019-11-04 13:16:49 +0200 (Mon, 04 Nov 2019) $
#$Revision: 222854 $
#$URL: file:///home/coder/svn-repositories/cod/cif/4/03/43/4034310.cif $
#------------------------------------------------------------------------------
#
# This file is available in the Crystallography Open Database (COD),
# http://www.crystallography.net/
#
# All data on this site have been placed in the public domain by the
# contributors.
#
data_4034310
loop_
_publ_author_name
'Takashima, Katsuki'
'Hayakawa, Daichi'
'Gouda, Hiroaki'
'Toyooka, Naoki'
_publ_section_title
;
 Formal Syntheses of (-)-Lepadiformines A, C, and (-)-Fasicularin.
;
_journal_issue                   9
_journal_name_full               'The Journal of organic chemistry'
_journal_page_first              5222
_journal_page_last               5229
_journal_paper_doi               10.1021/acs.joc.9b00071
_journal_volume                  84
_journal_year                    2019
_chemical_absolute_configuration 'CHOOSE rm ad rmad syn or unk'
_chemical_formula_moiety         'C11 H13 N O3'
_chemical_formula_sum            'C11 H13 N O3'
_chemical_formula_weight         207.23
_space_group_crystal_system      monoclinic
_space_group_IT_number           4
_space_group_name_Hall           'P 2yb'
_space_group_name_H-M_alt        'P 1 21 1'
_atom_sites_solution_hydrogens   geom
_atom_sites_solution_primary     direct
_atom_sites_solution_secondary   difmap
_cell_angle_alpha                90.0000
_cell_angle_beta                 95.496(7)
_cell_angle_gamma                90.0000
_cell_formula_units_Z            2
_cell_length_a                   7.35354(15)
_cell_length_b                   5.87211(11)
_cell_length_c                   11.1184(2)
_cell_measurement_reflns_used    5383
_cell_measurement_temperature    173
_cell_measurement_theta_max      68.19
_cell_measurement_theta_min      4.00
_cell_volume                     477.894(17)
_computing_cell_refinement       'RAPID AUTO'
_computing_data_collection       'RAPID AUTO (Rigaku, ????)'
_computing_data_reduction        'RAPID AUTO'
_computing_molecular_graphics    'CrystalStructure 4.3'
_computing_publication_material  'CrystalStructure 4.3 (Rigaku, 2018)'
_computing_structure_refinement  'SHELXL Version 2018/3 (Sheldrick, 2008)'
_computing_structure_solution    'SHELXT Version 2018/2 (Sheldrick, 2014)'
_diffrn_ambient_temperature      173
_diffrn_detector_area_resol_mean 10.000
_diffrn_measured_fraction_theta_full 0.993
_diffrn_measured_fraction_theta_max 0.993
_diffrn_measurement_device_type  'Rigaku R-AXIS RAPID'
_diffrn_measurement_method       \w
_diffrn_radiation_type           'Cu K\a'
_diffrn_radiation_wavelength     1.54187
_diffrn_reflns_av_R_equivalents  0.0331
_diffrn_reflns_av_unetI/netI     0.0398
_diffrn_reflns_Laue_measured_fraction_full 0.993
_diffrn_reflns_Laue_measured_fraction_max 0.993
_diffrn_reflns_limit_h_max       8
_diffrn_reflns_limit_h_min       -8
_diffrn_reflns_limit_k_max       7
_diffrn_reflns_limit_k_min       -7
_diffrn_reflns_limit_l_max       13
_diffrn_reflns_limit_l_min       -13
_diffrn_reflns_number            5415
_diffrn_reflns_point_group_measured_fraction_full 0.974
_diffrn_reflns_point_group_measured_fraction_max 0.973
_diffrn_reflns_theta_full        67.687
_diffrn_reflns_theta_max         68.193
_diffrn_reflns_theta_min         3.994
_diffrn_standards_number         0
_exptl_absorpt_coefficient_mu    0.874
_exptl_absorpt_correction_T_max  0.966
_exptl_absorpt_correction_T_min  0.745
_exptl_absorpt_correction_type   multi-scan
_exptl_absorpt_process_details   'ABSCOR (Rigaku, 1995)'
_exptl_crystal_colour            colorless
_exptl_crystal_density_diffrn    1.440
_exptl_crystal_density_method    'not measured'
_exptl_crystal_description       block
_exptl_crystal_F_000             220.00
_exptl_crystal_size_max          0.240
_exptl_crystal_size_mid          0.040
_exptl_crystal_size_min          0.040
_refine_diff_density_max         0.13
_refine_diff_density_min         -0.21
_refine_ls_abs_structure_details
;
 Flack x determined using 634 quotients [(I+)-(I-)]/[(I+)+(I-)]
 (Parsons, Flack and Wagner, Acta Cryst. B69 (2013) 249-259).
;
_refine_ls_abs_structure_Flack   0.16(14)
_refine_ls_extinction_method     none
_refine_ls_goodness_of_fit_ref   1.087
_refine_ls_hydrogen_treatment    constr
_refine_ls_number_parameters     136
_refine_ls_number_reflns         1695
_refine_ls_number_restraints     1
_refine_ls_R_factor_all          0.0386
_refine_ls_R_factor_gt           0.0346
_refine_ls_shift/su_max          0.000
_refine_ls_structure_factor_coef Fsqd
_refine_ls_weighting_details
'w = 1/[\s^2^(Fo^2^)+(0.0310P)^2^+0.1025P] where P=(Fo^2^+2Fc^2^)/3'
_refine_ls_weighting_scheme      calc
_refine_ls_wR_factor_gt          0.0815
_refine_ls_wR_factor_ref         0.0837
_reflns_Friedel_coverage         0.773
_reflns_Friedel_fraction_full    0.950
_reflns_Friedel_fraction_max     0.949
_reflns_number_gt                1567
_reflns_number_total             1695
_reflns_threshold_expression     F^2^>2.0\s(F^2^)
_cod_data_source_file            jo9b00071_si_002.cif
_cod_data_source_block           takashima_0827
_cod_original_cell_volume        477.895(17)
_cod_database_code               4034310
_shelx_res_file
;
TITL takashima_0827
    shelxl.res
    created by SHELXL-2018/3 at 10:16:45 on 28-Aug-2018
CELL  1.54187 7.35354 5.87211 11.11841 90.00000 95.49570 90.00000
ZERR  2 0.00015 0.00011 0.00022 0.00000 0.00670 0.00000
LATT -1
SYMM    -X, .50+Y,    -Z
SFAC C H O N
UNIT 22 26 6 2
L.S. 10
FMAP 2
PLAN 21
WPDB -2
HTAB
BOND $H
CONF
LIST 4
TEMP -100.0
ACTA
SIZE 0.240 0.040 0.040
WGHT    0.031000    0.102500
FVAR       2.11697
O1    3    0.679653    0.406335    0.752479    11.00000    0.02790    0.04149 =
         0.03942   -0.00400    0.00418    0.00375
O2    3    0.745284    0.755803    0.824334    11.00000    0.03648    0.05162 =
         0.04377   -0.00568    0.00239   -0.01367
O3    3    0.439787    0.862347    0.955713    11.00000    0.04814    0.02729 =
         0.03452   -0.00449    0.00041    0.00037
N1    4    0.442796    0.622841    0.794700    11.00000    0.02752    0.02668 =
         0.02715   -0.00165    0.00348   -0.00152
C1    1    0.366347    0.708442    0.897526    11.00000    0.03410    0.02491 =
         0.02618    0.00095   -0.00031    0.00619
C2    1    0.192533    0.599560    0.929172    11.00000    0.03154    0.04141 =
         0.02841   -0.00030    0.00554    0.00653
AFIX  23
H2A   2    0.088497    0.696376    0.897627    11.00000   -1.20000
H2B   2    0.193775    0.595304    1.018260    11.00000   -1.20000
AFIX   0
C3    1    0.160504    0.358491    0.880332    11.00000    0.03328    0.04095 =
         0.03002    0.00338    0.00675   -0.00324
AFIX  23
H3A   2    0.253178    0.253686    0.919997    11.00000   -1.20000
H3B   2    0.038072    0.304364    0.897366    11.00000   -1.20000
AFIX   0
C4    1    0.174117    0.361969    0.745736    11.00000    0.02792    0.02913 =
         0.02916    0.00107    0.00207   -0.00070
AFIX  13
H4    2    0.086079    0.480109    0.711230    11.00000   -1.20000
AFIX   0
C5    1    0.124516    0.140051    0.678334    11.00000    0.03932    0.03440 =
         0.03807   -0.00194    0.00116   -0.00698
AFIX  23
H5A   2    0.199781    0.014052    0.715425    11.00000   -1.20000
H5B   2   -0.005501    0.103316    0.685112    11.00000   -1.20000
AFIX   0
C6    1    0.156651    0.162267    0.547157    11.00000    0.03542    0.03470 =
         0.03513   -0.00744   -0.00618    0.00022
AFIX  43
H6    2    0.106831    0.049509    0.492248    11.00000   -1.20000
AFIX   0
C7    1    0.250901    0.331177    0.504594    11.00000    0.03575    0.03671 =
         0.02741   -0.00254    0.00174    0.00769
AFIX  43
H7    2    0.259068    0.338136    0.419916    11.00000   -1.20000
AFIX   0
C8    1    0.345898    0.512897    0.582732    11.00000    0.03275    0.03302 =
         0.02839    0.00156    0.00384   -0.00030
AFIX  23
H8A   2    0.275410    0.656553    0.573967    11.00000   -1.20000
H8B   2    0.468955    0.541272    0.556755    11.00000   -1.20000
AFIX   0
C9    1    0.362782    0.436074    0.715679    11.00000    0.02930    0.02425 =
         0.02595   -0.00076    0.00297    0.00012
C10   1    0.517099    0.262376    0.737656    11.00000    0.03269    0.03004 =
         0.03441   -0.00212    0.00103    0.00134
AFIX  23
H10A  2    0.503962    0.171523    0.811330    11.00000   -1.20000
H10B  2    0.520769    0.158326    0.667869    11.00000   -1.20000
AFIX   0
C11   1    0.634362    0.611367    0.795139    11.00000    0.03074    0.03762 =
         0.02831    0.00181    0.00529   -0.00304
HKLF 4




REM  takashima_0827
REM wR2 = 0.0837, GooF = S = 1.087, Restrained GooF = 1.086 for all data
REM R1 = 0.0346 for 1567 Fo > 4sig(Fo) and 0.0386 for all 1695 data
REM 136 parameters refined using 1 restraints

END

WGHT      0.0310      0.1025

REM Instructions for potential hydrogen bonds
EQIV $1 x-1, y, z
HTAB C2 O2_$1
EQIV $2 x, y-1, z
HTAB C10 O3_$2

REM Highest difference peak  0.132,  deepest hole -0.207,  1-sigma level  0.035
Q1    1   0.1520  0.2550  0.7202  11.00000  0.05    0.13
Q2    1   0.7667  0.6281  0.7627  11.00000  0.05    0.12
Q3    1   0.9134  0.8437  0.7573  11.00000  0.05    0.12
Q4    1   0.2988  0.4179  0.5356  11.00000  0.05    0.12
Q5    1   0.6463  0.5043  0.7189  11.00000  0.05    0.12
Q6    1   0.1108  0.2868  0.5097  11.00000  0.05    0.12
Q7    1   0.8221  0.5759  0.8441  11.00000  0.05    0.12
Q8    1   0.2765  0.7353  0.5964  11.00000  0.05    0.12
Q9    1   0.8419  0.4927  0.7150  11.00000  0.05    0.11
Q10   1  -0.0570  0.0100  0.7401  11.00000  0.05    0.11
Q11   1   0.2984  0.1825  0.5414  11.00000  0.05    0.11
Q12   1   0.6681  0.9227  0.8100  11.00000  0.05    0.11
Q13   1   0.3425  0.5118  0.6615  11.00000  0.05    0.11
Q14   1   0.2643  0.4074  0.7258  11.00000  0.05    0.11
Q15   1   0.1582  0.3690  0.8062  11.00000  0.05    0.11
Q16   1   0.7588  0.2629  0.6186  11.00000  0.05    0.10
Q17   1   0.6515  0.2396  0.6825  11.00000  0.05    0.10
Q18   1   0.4192  0.3312  0.7404  11.00000  0.05    0.10
Q19   1   0.7293  1.0496  0.7660  11.00000  0.05    0.10
Q20   1   0.3880  0.6958  0.5638  11.00000  0.05    0.10
Q21   1  -0.1646  0.2930  0.8608  11.00000  0.05    0.10
;
_shelx_res_checksum              51950
_shelx_hkl_file
;
   0   0   1  861.54   22.79
   0   0   1  834.00   26.20
   0   0   1  853.04   27.07
   0   0   1  870.26   25.45
   0   0   1  836.44   25.41
   0   0  -1  859.45   22.68
   0   0  -1  855.12   26.20
   0   0  -1  818.54   28.33
   0   0  -1  853.87   25.15
   0   0  -1  847.12   25.58
   0   0   2 3842.52  208.96
   0   0   2 3799.50  227.36
   0   0   2 3837.09  230.68
   0   0   2 4107.27  236.53
   0   0   2 3701.70  218.76
   0   0  -2 3991.65  236.24
   0   0  -2 3810.07  230.64
   0   0  -2 3942.50  229.11
   0   0  -2 3828.07  224.92
   0   0   3 2308.04   99.06
   0   0   3 2196.94  113.28
   0   0   3 2185.30  112.53
   0   0   3 2234.48  106.45
   0   0   3 2141.14  106.81
   0   0  -3 2126.89  109.23
   0   0  -3 2087.51  110.77
   0   0  -3 2145.41  106.17
   0   0  -3 2187.73  107.90
   0   0   4 3600.50  197.78
   0   0   4 3561.77  223.69
   0   0   4 3629.84  228.16
   0   0   4 3808.24  225.94
   0   0   4 3485.05  213.18
   0   0  -4 3564.03  220.61
   0   0  -4 3499.20  222.46
   0   0  -4 3742.21  228.66
   0   0  -4 3618.87  221.66
   0   0   5  327.44    8.69
   0   0   5  388.50   22.61
   0   0   5  374.55   15.92
   0   0   5  389.63   14.93
   0   0  -5  356.48   21.05
   0   0  -5  384.97   17.21
   0   0  -5  373.69   15.46
   0   0  -5  383.12   13.94
   0   0  -5  377.82   14.42
   0   0   6 1278.48   62.94
   0   0   6 1236.31   58.98
   0   0   6 1321.01   60.81
   0   0  -6 1240.13   59.93
   0   0  -6 1219.56   60.59
   0   0  -6 1226.24   57.13
   0   0  -6 1182.66   56.73
   0   0  -6 1292.52   58.97
   0   0   7   67.67    7.16
   0   0   7   66.12    5.48
   0   0   7   69.00    4.97
   0   0  -7   66.54    6.69
   0   0  -7   64.18    6.47
   0   0  -7   58.49    4.52
   0   0  -7   62.74    4.02
   0   0  -7   59.07    4.29
   0   0   8  102.56   12.58
   0   0   8   89.82    6.31
   0   0  -8   92.43    8.20
   0   0  -8   73.43    5.50
   0   0  -8   77.53    5.04
   0   0   9   19.48   11.09
   0   0   9   16.42    5.73
   0   0  -9   16.25    5.82
   0   0  10   25.57   10.52
   0   0 -10   15.00    6.49
   0   0  11   -6.03   12.26
   0   0 -11    4.69    7.24
   0   0  12    6.53    5.39
   0   0 -12    0.71    4.33
   0   1   0    0.25    1.65
   0   1   0   -0.08    1.12
   0   1   0   -1.20    2.10
   0   1   0   -0.35    2.14
   0   1   0    0.40    2.00
   0  -1   0    0.09    2.20
   0  -1   0   -0.24    1.86
   0  -1   0   -1.38    1.17
   0  -1   0    1.13    2.04
   0   1   1 9560.40  849.16
   0   1  -1 9667.00  848.50
   0   1   1 9376.77  829.37
   0   1   1 9563.09  856.26
   0   1  -1 9924.65  905.59
   0   1  -1 9398.95  849.22
   0   1   1 9299.70  812.24
   0   1   1 9747.81  870.29
   0   1  -1 9761.93  871.77
   0   1  -1 9097.73  791.75
   0  -1  -1 9729.80  862.00
   0  -1   1 8988.80  790.73
   0  -1  -1 9647.73  849.20
   0  -1  -1 9492.74  853.33
   0  -1   1 9824.50  887.18
   0  -1   1 9576.70  864.20
   0  -1  -1 9705.20  856.56
   0  -1  -1 9999.00  892.73
   0  -1   1 9842.25  877.56
   0   1   2 7451.91  591.12
   0   1   2 7414.79  567.31
   0   1   2 6915.07  570.02
   0   1   2 7177.74  580.80
   0   1  -2 7292.70  597.39
   0   1  -2 7790.03  583.29
   0   1  -2 7387.75  600.22
   0   1   2 7436.14  597.08
   0   1  -2 7228.33  590.27
   0   1  -2 7169.09  534.05
   0  -1   2 7057.73  561.63
   0  -1  -2 7332.42  585.34
   0  -1   2 7459.21  605.24
   0  -1   2 7672.38  610.36
   0  -1   2 7182.45  600.88
   0  -1  -2 7292.79  565.02
   0  -1  -2 6890.04  554.48
   0  -1  -2 7298.20  593.15
   0   1   3 3888.14  229.52
   0   1   3 4023.09  245.36
   0   1   3 3705.05  229.47
   0   1   3 3590.65  223.42
   0   1  -3 3832.04  238.73
   0   1  -3 3719.12  225.08
   0   1  -3 3628.79  228.28
   0  -1   3 3908.54  244.33
   0  -1   3 3967.51  239.29
   0  -1  -3 3634.38  228.43
   0  -1  -3 3819.46  233.88
   0  -1  -3 3775.12  215.02
   0  -1   3 3639.42  221.17
   0  -1  -3 3738.26  216.88
   0  -1  -3 3502.36  215.63
   0  -1   3 3937.95  242.48
   0   1   4 1501.44   63.12
   0   1   4 1418.68   65.07
   0   1   4 1363.60   63.76
   0   1   4 1366.19   63.58
   0   1  -4 1303.04   62.41
   0   1  -4 1522.13   66.94
   0   1  -4 1393.91   66.04
   0  -1   4 1404.79   66.75
   0  -1   4 1490.03   66.68
   0  -1  -4 1396.53   66.98
   0  -1  -4 1452.07   65.82
   0  -1  -4 1369.28   56.72
   0  -1   4 1424.04   63.19
   0  -1  -4 1342.78   55.90
   0  -1  -4 1367.61   61.53
   0  -1   4 1438.99   71.53
   0   1   5 1349.59   56.18
   0   1   5 1432.93   65.49
   0   1   5 1312.81   62.21
   0   1   5 1305.65   61.15
   0   1  -5 1170.98   64.38
   0   1  -5 1358.15   65.23
   0   1  -5 1294.35   68.23
   0  -1   5 1280.19   61.83
   0  -1   5 1378.95   63.73
   0  -1  -5 1337.00   65.51
   0  -1  -5 1304.49   60.39
   0  -1  -5 1186.62   55.89
   0  -1   5 1324.74   59.30
   0  -1  -5 1146.67   49.69
   0  -1  -5 1222.65   56.13
   0  -1   5 1374.09   62.39
   0   1   6 2735.56  151.88
   0   1   6 2963.75  177.13
   0   1   6 2783.53  170.34
   0   1   6 2798.83  175.26
   0   1  -6 2538.11  158.21
   0   1  -6 2828.86  167.35
   0   1  -6 2845.27  171.99
   0  -1   6 2809.99  171.11
   0  -1   6 2996.56  177.43
   0  -1  -6 2720.52  170.79
   0  -1  -6 2762.59  165.26
   0  -1  -6 2389.19  141.84
   0  -1   6 2777.82  164.22
   0  -1  -6 2314.73  136.39
   0  -1  -6 2826.59  167.34
   0  -1   6 2996.10  173.58
   0   1  -7 2083.66  115.31
   0   1   7 1983.94  114.39
   0   1   7 2009.66  113.98
   0   1  -7 1976.41  116.68
   0   1   7 1970.45  116.25
   0   1  -7 1903.99  105.40
   0   1  -7 1939.85  110.61
   0  -1  -7 1920.62  107.71
   0  -1   7 2104.19  119.57
   0  -1   7 1811.41  102.76
   0  -1   7 1964.68  112.23
   0  -1  -7 1878.19  104.10
   0  -1  -7 1880.44  112.24
   0   1  -8   21.88    5.39
   0   1   8   17.47    4.20
   0   1  -8   22.27    4.61
   0  -1  -8   19.13    4.74
   0  -1   8   17.39    3.43
   0  -1   8   25.25    6.66
   0  -1  -8   19.70    5.52
   0   1   9  802.45   61.39
   0   1  -9  853.83   47.59
   0   1  -9  735.59   40.88
   0  -1   9  826.46   50.33
   0  -1  -9  845.99   48.52
   0   1  10    0.48    9.02
   0   1 -10    5.03    3.85
   0   1  10    3.46    3.65
   0   1 -10    7.31    5.17
   0  -1  10   11.69    5.84
   0  -1 -10    6.23    5.61
   0   1  11   67.58   13.29
   0   1 -11   37.66    7.61
   0  -1 -11   60.24   12.55
   0  -1  11   72.93    9.16
   0   1  12   20.11    5.43
   0   1 -12    7.92    4.27
   0  -1 -12    7.17    5.11
   0  -1  12   25.03    5.42
   0   1  13   21.06    3.99
   0  -1  13   25.08    4.34
   0  -1 -13    6.76    4.13
   0   2   0 1343.38   59.01
   0   2   0 1373.71   62.32
   0   2   0 1369.28   51.74
   0   2   0 1362.14   59.15
   0   2   0 1370.15   60.52
   0   2   0 1358.38   59.03
   0  -2   0 1420.77   60.67
   0  -2   0 1434.24   63.80
   0  -2   0 1460.50   58.28
   0  -2   0 1377.78   60.23
   0   2   1  921.94   38.37
   0   2   1  920.28   39.11
   0   2  -1  956.46   32.32
   0   2   1  893.64   31.24
   0   2  -1  907.28   42.45
   0   2  -1  947.46   36.15
   0   2   1  935.68   34.82
   0   2   1  858.58   35.09
   0   2   1  888.98   36.76
   0   2  -1  925.38   36.10
   0   2  -1  896.01   42.69
   0   2  -1  941.99   39.40
   0  -2   1  922.72   37.73
   0  -2   1  983.48   41.51
   0  -2   1  914.92   34.75
   0  -2  -1  879.34   36.99
   0  -2  -1  916.65   37.42
   0  -2  -1  922.42   33.81
   0  -2  -1  936.62   32.41
   0  -2   1  905.84   36.25
   0   2   2    5.41    3.79
   0   2   2   12.54    3.59
   0   2   2    5.09    3.24
   0   2   2    6.50    1.86
   0   2  -2    8.10    3.38
   0   2  -2    6.31    2.00
   0   2   2   11.85    2.67
   0   2  -2    6.20    3.75
   0   2  -2    9.24    2.78
   0   2   2    7.88    3.37
   0   2  -2    8.18    1.77
   0  -2   2    8.46    3.81
   0  -2   2    8.00    3.19
   0  -2  -2    9.40    3.47
   0  -2   2    6.56    3.59
   0  -2  -2    8.15    3.52
   0  -2  -2    7.20    1.51
   0  -2  -2    5.78    1.89
   0  -2   2    7.60    2.86
   0   2   3 1355.91   69.83
   0   2   3 1308.14   59.70
   0   2   3 1248.99   58.37
   0   2   3 1326.28   60.08
   0   2  -3 1278.93   48.89
   0   2  -3 1307.40   59.63
   0   2  -3 1363.16   63.93
   0   2  -3 1313.53   62.58
   0   2  -3 1257.71   47.38
   0  -2   3 1366.42   63.70
   0  -2  -3 1305.72   55.71
   0  -2   3 1328.93   61.30
   0  -2   3 1322.22   57.50
   0  -2   3 1293.35   54.98
   0  -2  -3 1208.11   48.91
   0  -2  -3 1286.12   58.40
   0  -2  -3 1339.05   62.11
   0   2   4 1293.85   60.27
   0   2  -4 1257.92   69.92
   0   2   4 1200.30   55.39
   0   2   4 1256.32   64.06
   0   2   4 1275.42   59.77
   0   2  -4 1237.80   58.26
   0   2  -4 1286.20   57.14
   0  -2   4 1299.48   62.18
   0  -2   4 1294.96   61.23
   0  -2  -4 1283.44   61.87
   0  -2   4 1281.97   62.76
   0  -2   4 1287.14   57.10
   0  -2  -4 1241.23   57.41
   0  -2  -4 1269.74   56.40
   0   2   5  757.55   30.66
   0   2  -5  673.83   32.40
   0   2   5  668.94   29.51
   0   2   5  667.24   30.41
   0   2   5  698.69   31.21
   0   2  -5  683.30   30.57
   0   2  -5  724.39   29.80
   0  -2   5  671.71   28.11
   0  -2   5  683.27   31.24
   0  -2  -5  700.63   33.19
   0  -2   5  713.73   34.16
   0  -2   5  694.66   29.36
   0  -2  -5  658.41   28.91
   0  -2  -5  670.94   31.51
   0   2   6  550.98   22.63
   0   2  -6  533.39   26.60
   0   2   6  522.91   24.70
   0   2   6  534.55   25.17
   0   2   6  548.85   25.77
   0   2  -6  515.42   24.74
   0   2  -6  553.71   23.53
   0  -2   6  522.48   22.47
   0  -2   6  553.30   26.44
   0  -2  -6  544.93   27.54
   0  -2   6  593.40   29.15
   0  -2   6  551.18   24.56
   0  -2  -6  497.79   22.63
   0  -2  -6  516.88   23.24
   0   2   7  317.72   13.96
   0   2  -7  350.55   18.23
   0   2   7  391.03   24.46
   0   2  -7  352.53   19.13
   0  -2  -7  339.99   16.80
   0  -2   7  311.16   14.88
   0  -2   7  387.52   18.72
   0  -2  -7  350.35   19.98
   0   2  -8 1624.95   95.89
   0   2   8 1550.47   90.96
   0   2  -8 1445.82   88.64
   0  -2  -8 1493.05   93.63
   0  -2  -8 1485.98   87.08
   0  -2   8 1651.31   95.73
   0   2   9  527.78   50.06
   0   2  -9  655.43   35.84
   0   2   9  510.83   30.58
   0   2  -9  536.94   33.05
   0  -2   9  633.64   34.52
   0  -2  -9  625.84   38.55
   0   2  10  231.80   23.37
   0   2 -10  209.79   21.27
   0   2 -10  261.92   17.41
   0  -2  10  276.08   17.99
   0  -2 -10  242.72   19.62
   0   2  11   79.33   12.93
   0   2 -11   51.59    7.84
   0   2 -11   86.62    7.61
   0  -2  11  102.93    9.47
   0  -2 -11   78.94   10.12
   0   2  12   21.93    4.97
   0  -2  12   29.34    5.35
   0  -2 -12   17.32    5.24
   0   3   0   -2.16    4.41
   0   3   0   -2.45    2.82
   0   3   0    0.07    0.92
   0   3   0    2.24    2.71
   0   3   0   -0.40    3.06
   0   3   0    0.06    2.39
   0  -3   0    2.80    2.29
   0  -3   0    1.67    3.28
   0  -3   0    0.82    1.46
   0  -3   0   -1.20    3.11
   0   3   1  638.29   32.46
   0   3   1  620.56   27.95
   0   3   1  642.57   27.04
   0   3   1  623.34   26.96
   0   3  -1  625.21   26.97
   0   3  -1  659.51   26.49
   0   3   1  621.93   23.51
   0   3  -1  639.06   29.40
   0   3  -1  628.75   25.43
   0   3  -1  616.93   25.98
   0  -3   1  610.92   26.22
   0  -3   1  591.18   19.79
   0  -3  -1  647.66   28.35
   0  -3  -1  612.41   23.49
   0  -3   1  731.52   31.11
   0  -3   1  662.32   32.50
   0  -3  -1  662.16   29.27
   0   3   2 1742.19   94.94
   0   3   2 1611.40   83.97
   0   3   2 1700.83   85.97
   0   3  -2 1762.46   87.18
   0   3  -2 1671.52   78.53
   0   3   2 1589.66   74.03
   0   3   2 1716.73   85.36
   0   3  -2 1696.59   82.80
   0   3  -2 1610.86   77.52
   0   3  -2 1712.96   88.17
   0  -3   2 1696.01   82.61
   0  -3   2 1504.51   68.36
   0  -3  -2 1637.40   84.13
   0  -3   2 1836.40   93.02
   0  -3  -2 1483.90   73.35
   0  -3   2 1810.34   91.28
   0  -3  -2 1677.09   85.07
   0   3   3  972.49   51.26
   0   3   3  936.57   43.99
   0   3  -3  960.19   42.65
   0   3  -3  987.68   46.85
   0   3  -3  996.26   42.82
   0   3   3 1005.00   50.65
   0   3   3  988.91   44.67
   0   3  -3  857.62   35.56
   0   3  -3  831.02   34.82
   0  -3   3  984.34   42.38
   0  -3  -3  940.81   44.21
   0  -3  -3  971.00   44.69
   0  -3   3  842.71   34.72
   0  -3   3  947.85   43.61
   0  -3   3  942.45   56.23
   0   3   4   47.56    9.78
   0   3  -4   51.68    4.42
   0   3   4   50.59    5.72
   0   3  -4   45.11    5.30
   0   3   4   52.85    8.46
   0   3  -4   59.01    6.75
   0  -3   4   50.29    5.36
   0  -3  -4   53.79    9.69
   0  -3   4   53.32    9.58
   0  -3  -4   49.90    6.05
   0  -3   4   57.59    4.71
   0  -3   4   42.45    3.29
   0   3   5  283.79   15.11
   0   3   5  255.41   14.12
   0   3  -5  244.48   17.36
   0   3  -5  258.81   15.86
   0   3  -5  259.30   11.36
   0  -3  -5  245.03   14.56
   0  -3   5  241.52   11.51
   0   3   6  786.60   38.05
   0   3   6  705.95   36.60
   0   3  -6  741.63   37.54
   0   3  -6  745.24   40.56
   0  -3   6  662.68   31.99
   0  -3  -6  718.52   39.17
   0   3   7  895.53   44.35
   0   3   7  941.60   51.27
   0   3  -7  805.55   44.34
   0   3  -7  918.28   50.67
   0  -3   7  694.95   38.12
   0  -3  -7  877.87   49.87
   0   3  -8  313.01   20.41
   0   3   8  299.00   18.34
   0   3  -8  278.88   21.51
   0  -3   8  190.91   18.34
   0  -3  -8  286.90   20.06
   0   3  -9   66.35    8.59
   0   3   9   51.79    7.06
   0   3  -9   44.93    6.80
   0  -3   9   42.42    6.20
   0  -3  -9   44.12    8.76
   0   3 -10   21.10    6.28
   0   3  10    6.42    7.12
   0   3 -10    7.35    4.37
   0  -3  10   11.40    4.06
   0  -3 -10   21.58    9.98
   0   3  11   20.57    3.69
   0   3 -11   11.38    3.64
   0  -3  11   10.49    3.68
   0  -3 -11   32.51    9.06
   0  -3 -12   21.96    4.17
   0   4   0 1698.78   89.13
   0   4   0 1452.71   75.63
   0   4   0 1549.28   79.71
   0  -4   0 1568.66   89.94
   0  -4   0 1419.36   79.32
   0   4   1  184.83   12.26
   0   4   1  181.37   10.46
   0   4  -1  180.89    9.86
   0   4  -1  193.30    9.76
   0   4  -1  185.48   10.38
   0   4  -1  182.10    9.98
   0  -4   1  185.22   11.02
   0  -4   1  201.54   22.75
   0  -4  -1  178.35   11.61
   0   4   2  259.55   16.17
   0   4  -2  274.02   13.83
   0   4   2  251.74   12.95
   0   4  -2  211.93   12.63
   0   4  -2  209.56   10.44
   0   4  -2  253.08   12.34
   0  -4   2  253.42   12.78
   0  -4  -2  247.15   13.72
   0   4   3   52.91    8.79
   0   4  -3   63.03    5.60
   0   4   3   63.78    6.84
   0   4  -3   57.82    7.24
   0  -4   3   59.91    5.87
   0  -4  -3   53.47    7.40
   0   4   4  401.73   23.73
   0   4   4  393.39   26.89
   0   4  -4  371.82   21.51
   0   4  -4  409.17   20.97
   0   4  -4  378.97   18.13
   0  -4  -4  390.83   22.23
   0   4   5   71.49   13.63
   0   4   5   73.48    8.16
   0   4  -5   66.10    8.94
   0   4  -5   73.89    7.47
   0   4  -5   63.56    5.76
   0  -4  -5   66.87    8.71
   0   4   6   48.30    7.15
   0   4   6   50.99    7.28
   0   4  -6   47.70    8.49
   0   4  -6   42.19    6.61
   0   4  -6   35.35    4.82
   0  -4  -6   47.40    8.16
   0   4   7  502.91   32.51
   0   4   7  475.66   27.62
   0   4  -7  453.48   28.24
   0   4  -7  443.77   25.47
   0  -4  -7  443.38   29.33
   0   4   8    6.92    4.10
   0   4   8    9.86    5.69
   0   4  -8    8.60    6.30
   0   4  -8    9.84    4.62
   0  -4  -8   12.93    6.58
   0   4   9  134.74   14.05
   0   4  -9  131.83   11.56
   0   4  -9   84.23    8.53
   0  -4  -9  106.45   11.44
   0   4  10    4.91    5.85
   0   4 -10   11.15    5.06
   0  -4  10    5.10    2.61
   0  -4 -10   16.24    6.98
   0   5   0   -3.23    3.89
   0   5   0   -2.83    4.21
   0  -5   0   -2.02    7.44
   0   5   1  186.17   12.23
   0   5  -1  138.91    9.42
   0   5   1  177.83   11.71
   0   5  -1  186.93   11.77
   0  -5  -1  175.21   12.52
   0  -5   1  170.69   12.32
   0   5   2   51.11    7.47
   0   5  -2   52.05    6.58
   0   5   2   56.99    7.57
   0   5  -2   45.01    6.17
   0  -5   2   54.34   10.76
   0  -5  -2   50.01    7.83
   0   5   3  520.56   28.86
   0   5  -3  527.53   26.38
   0   5   3  499.73   27.85
   0   5  -3  517.29   28.12
   0  -5   3  506.69   27.67
   0  -5  -3  497.99   28.56
   0   5   4  175.10   13.81
   0   5  -4  167.89   10.17
   0   5   4  186.87   13.49
   0   5  -4  196.62   14.28
   0  -5   4  182.16   12.59
   0  -5  -4  168.48   14.51
   0   5   5  203.87   14.42
   0   5  -5  169.29   10.37
   0   5   5  203.06   14.79
   0   5  -5  226.66   16.46
   0  -5   5  210.92   13.38
   0  -5  -5  199.85   15.86
   0   5   6  217.53   14.25
   0   5   6  218.10   15.33
   0   5  -6  213.43   15.51
   0  -5   6  218.64   13.58
   0  -5  -6  203.08   22.55
   0   5   7   10.67    4.81
   0   5   7    7.47    5.15
   0   5  -7    4.31    5.76
   0  -5   7    5.97    4.01
   0  -5  -7    1.64    5.92
   0   5   8   96.76    7.92
   0   5   8   82.95    7.81
   0   5  -8  101.10   13.52
   0  -5   8   81.12    6.46
   0  -5  -8   89.70    9.38
   0   5   9    1.64    2.89
   0   5  -9    4.39    3.77
   0  -5   9   -0.82    1.30
   0  -5  -9    2.22    3.52
   0   6   0    3.12    3.32
   0   6   0    0.47    4.66
   0  -6   0    3.25    4.90
   0   6   1  147.10   11.11
   0   6   1  164.02   11.61
   0   6  -1  187.79   16.48
   0  -6   1  158.48   11.47
   0  -6  -1  165.95   12.48
   0   6   2  508.48   28.59
   0   6   2  521.94   28.40
   0   6  -2  508.25   26.14
   0  -6   2  533.75   28.24
   0  -6  -2  522.80   29.55
   0   6   3    9.44    4.75
   0   6   3    6.28    5.20
   0   6  -3    9.30    3.68
   0  -6   3    4.36    4.75
   0  -6  -3    7.40    5.63
   0   6   4   47.38    6.62
   0   6  -4   42.22    4.60
   0   6   4   51.45    7.18
   0   6  -4   36.26    5.37
   0  -6   4   49.92    6.35
   0  -6  -4   47.46    7.72
   0   6   5   30.18    5.47
   0   6  -5   18.00    2.81
   0   6   5   24.25    8.88
   0   6  -5   26.86    4.81
   0  -6   5   29.70    4.79
   0  -6  -5   28.61    9.99
   0   6   6  109.23    8.13
   0   6   6   95.91    8.31
   0   6  -6   97.60    7.68
   0  -6   6   92.15    8.46
   0  -6  -6   98.71    9.17
   0   6   7   15.34    3.31
   0   6   7    8.94    3.43
   0   6  -7   13.46    3.53
   0  -6  -7   10.52    4.12
   0   7   0    1.31    4.21
   0  -7   0    1.92    2.89
   0   7   1   16.72    3.21
   0   7  -1   13.19    3.02
   0  -7   1   14.97    3.93
   0  -7  -1   19.94    3.92
  -1   0  13  240.60   17.70
  -1   0  12   41.14    6.45
  -1   0  12   12.13    5.61
   1   0 -11   10.03    4.28
  -1   0  11   21.86    6.58
  -1   0  11    9.97    6.66
   1   0 -10   46.99    7.23
  -1   0  10   85.19    9.90
  -1   0  10   76.52    7.68
   1   0  -9  165.63   11.30
   1   0  -9  160.94   10.42
  -1   0   9  211.28   18.90
  -1   0   9  195.82   12.40
   1   0  -8  106.70    8.14
   1   0  -8  113.76    8.85
  -1   0   8  131.70   12.46
  -1   0   8  128.75    8.71
   1   0  -7  296.91   14.48
   1   0  -7  299.49   18.31
   1   0  -7  314.93   13.83
   1   0  -7  311.77   14.28
  -1   0   7  325.74   26.09
  -1   0   7  306.84   16.29
  -1   0   7  291.53   12.83
  -1   0   7  341.20   15.71
   1   0  -6 3279.58  217.50
   1   0  -6 3393.26  227.05
   1   0  -6 3376.12  218.50
   1   0  -6 3430.42  231.08
  -1   0   6 3581.82  233.28
  -1   0   6 3518.23  229.98
  -1   0   6 3520.57  226.55
  -1   0   6 3528.26  229.30
   1   0  -5 4465.52  322.72
   1   0  -5 5094.05  376.85
   1   0  -5 5168.96  384.07
   1   0  -5 5167.33  379.06
   1   0  -5 5053.40  374.03
  -1   0   5 4710.78  332.86
  -1   0   5 5316.55  388.62
  -1   0   5 5101.24  377.07
  -1   0   5 5175.84  378.49
  -1   0   5 5142.69  378.05
   1   0  -4 9090.45  806.77
   1   0  -4 8566.89  800.83
   1   0  -4 8848.18  818.28
   1   0  -4 8718.23  810.07
   1   0  -4 9025.50  836.98
  -1   0   4 8838.92  790.80
  -1   0   4 9161.75  842.30
  -1   0   4 8866.30  819.54
  -1   0   4 8675.86  803.70
  -1   0   4 8793.39  814.68
   1   0  -3 5569.89  381.85
   1   0  -3 5154.68  368.48
   1   0  -3 5474.85  391.12
   1   0  -3 5312.12  383.60
   1   0  -3 5485.38  396.38
  -1   0   3 5375.12  373.57
  -1   0   3 5562.90  397.76
  -1   0   3 5261.25  376.56
  -1   0   3 5567.17  399.92
  -1   0   3 5362.79  387.46
   1   0  -2 3066.65  162.43
   1   0  -2 2979.47  156.01
   1   0  -2 3210.20  174.15
   1   0  -2 3101.74  172.06
   1   0  -2 2979.66  166.55
  -1   0   2 3115.99  167.11
  -1   0   2 3198.35  174.57
  -1   0   2 3137.48  169.79
  -1   0   2 3156.97  161.80
  -1   0   2 2955.51  163.75
   1   0  -1 5488.71  371.54
   1   0  -1 5566.80  380.77
   1   0  -1 5133.63  322.84
   1   0  -1 5505.20  375.71
   1   0  -1 5567.98  374.91
  -1   0   1 5402.04  367.53
  -1   0   1 5344.84  360.30
  -1   0   1 5574.64  346.79
  -1   0   1 5641.00  382.14
  -1   0   1 5489.53  367.83
   1   0   0 6794.51  504.02
   1   0   0 6665.82  497.84
   1   0   0 6730.66  477.78
   1   0   0 6851.07  500.68
   1   0   0 6584.68  469.21
  -1   0   0 6715.43  499.21
  -1   0   0 6640.30  490.28
  -1   0   0 6856.17  488.50
  -1   0   0 6913.74  507.38
  -1   0   0 6887.30  486.50
   1   0   1   67.16    3.16
   1   0   1   65.06    4.17
   1   0   1   70.25    3.83
   1   0   1   68.33    3.05
  -1   0  -1   67.07    3.72
  -1   0  -1   61.94    6.89
  -1   0  -1   73.42    4.09
  -1   0  -1   64.94    3.17
   1   0   2  472.43   15.09
   1   0   2  466.22   18.68
   1   0   2  468.37   24.71
   1   0   2  482.12   14.09
   1   0   2  482.61   15.11
  -1   0  -2  493.80   15.61
  -1   0  -2  465.51   23.84
  -1   0  -2  463.25   19.10
  -1   0  -2  477.32   15.53
  -1   0  -2  486.70   14.59
   1   0   3 6894.55  529.01
   1   0   3 6970.38  566.37
   1   0   3 7055.24  575.51
   1   0   3 7239.72  557.67
   1   0   3 6898.41  534.92
  -1   0  -3 6902.97  537.83
  -1   0  -3 7052.46  569.66
  -1   0  -3 6370.47  525.73
  -1   0  -3 6865.70  537.99
  -1   0  -3 6738.84  519.47
   1   0   4  239.80    6.38
   1   0   4  229.79    7.58
   1   0   4  238.68   11.69
   1   0   4  236.16   16.84
   1   0   4  237.60    7.66
   1   0   4  221.90    7.46
  -1   0  -4  241.43   11.32
  -1   0  -4  228.23   11.97
  -1   0  -4  234.73    8.35
  -1   0  -4  219.07    7.02
   1   0   5   19.48    1.57
   1   0   5   23.76    4.60
   1   0   5   22.66    4.72
   1   0   5   20.64    2.04
   1   0   5   18.97    3.42
  -1   0  -5   22.09    4.72
  -1   0  -5   22.91    8.07
  -1   0  -5   21.13    2.48
  -1   0  -5   16.96    1.93
   1   0   6  224.35   11.98
   1   0   6  221.49   11.75
   1   0   6  189.27    7.61
  -1   0  -6  205.21   11.42
  -1   0  -6  213.96   12.07
  -1   0  -6  193.49    7.69
  -1   0  -6  182.67    8.23
   1   0   7    0.45    1.78
  -1   0  -7    5.05    6.62
  -1   0  -7    2.32    4.04
  -1   0  -7    0.54    1.53
  -1   0  -8    2.15    4.57
  -1   0  -8    0.29    4.48
   1   0   9    3.56    9.84
  -1   0  -9   10.98    5.76
   1   0  10    1.25   11.98
  -1   0 -10    5.78    5.57
   1   0  11   30.52   11.41
  -1   0 -11   18.85   10.14
   1   0  12   42.15    7.22
  -1   0 -12   31.13    7.29
   1   0  13   86.75    6.33
  -1   0 -13   40.62    5.96
  -1   1  13   51.12    8.33
  -1  -1  13   58.68    6.04
  -1   1  12    7.36    4.53
  -1   1  12    1.57    4.99
   1  -1 -12    2.11    2.76
  -1  -1  12   11.13    4.95
   1   1 -11  121.95   10.54
  -1   1  11  175.28   14.00
  -1   1  11  148.86   15.12
  -1  -1  11  173.78   13.11
   1   1 -10  280.95   17.20
  -1   1  10  323.82   26.89
  -1   1  10  289.92   18.38
  -1  -1  10  322.48   20.32
  -1  -1  10  241.24   16.76
  -1   1   9  171.57   12.02
   1   1  -9  106.79   10.05
   1   1  -9  153.20   11.35
  -1   1   9  162.31   17.23
  -1  -1   9  172.75   13.48
   1  -1  -9  139.92   11.04
  -1  -1   9  155.85   10.55
  -1   1   8  294.44   16.48
   1   1  -8  247.40   17.76
   1   1  -8  285.69   23.15
  -1   1   8  299.83   33.47
  -1  -1   8  304.78   17.25
   1  -1  -8  262.74   16.11
  -1  -1   8  288.84   15.39
  -1   1   7  661.67   29.99
   1   1  -7  604.79   28.79
  -1   1   7  650.27   30.65
   1   1  -7  650.94   33.31
   1   1  -7  691.24   36.15
  -1   1   7  688.02   39.61
   1   1  -7  688.48   31.06
  -1   1   7  693.21   37.02
  -1  -1   7  659.36   33.41
   1  -1  -7  637.85   29.39
   1  -1  -7  643.00   31.91
  -1  -1   7  627.35   28.67
   1  -1  -7  547.62   36.40
  -1  -1   7  679.63   31.38
   1   1  -6 2077.46  113.15
   1   1  -6 1964.24  108.74
   1   1  -6 2007.20  109.70
   1   1  -6 2041.66  126.96
  -1   1   6 2165.54  121.70
  -1   1   6 2240.11  122.36
  -1   1   6 2102.78  115.65
  -1   1   6 2029.22  110.61
  -1   1   6 1965.21  102.15
   1  -1  -6 1865.46  106.50
   1  -1  -6 2022.44  114.71
   1  -1  -6 1921.97  104.41
  -1  -1   6 2238.79  122.06
   1  -1  -6 1961.88  107.90
  -1  -1   6 2107.50  114.44
  -1  -1   6 2046.87  114.54
  -1  -1   6 1981.61  108.30
  -1   1   5  323.65   13.47
  -1   1   5  304.49   11.05
   1   1  -5  298.84   12.39
   1   1  -5  323.61   14.01
   1   1  -5  301.22   16.86
  -1   1   5  320.30   15.07
  -1   1   5  312.76   13.08
   1  -1  -5  316.47   14.12
   1  -1  -5  287.65   13.39
   1  -1  -5  314.11   14.33
   1  -1  -5  300.72   12.15
  -1  -1   5  322.36   14.63
   1  -1  -5  282.71   23.20
  -1  -1   5  324.07   12.48
  -1  -1   5  321.70   15.19
  -1  -1   5  288.21   13.11
   1   1  -4  181.85   11.08
  -1   1   4  190.34    8.22
  -1   1   4  190.08    7.82
   1   1  -4  189.57    7.98
  -1   1   4  190.72    9.97
  -1   1   4  195.45    8.20
   1   1  -4  198.98    9.65
   1  -1  -4  187.68    9.12
   1  -1  -4  191.58    8.93
   1  -1  -4  172.69    8.96
  -1  -1   4  185.64    9.93
   1  -1  -4  190.46    7.30
  -1  -1   4  201.86    9.44
   1  -1  -4  197.64    7.92
  -1  -1   4  188.28    7.93
  -1  -1   4  202.66    9.46
   1  -1  -4  189.87    8.05
  -1  -1   4  174.00    8.93
   1   1  -3  762.03   30.54
   1   1  -3  763.70   24.26
   1   1  -3  714.29   30.79
   1   1  -3  821.87   29.60
  -1   1   3  741.37   32.16
  -1   1   3  765.39   31.08
  -1   1   3  769.48   29.27
  -1   1   3  745.62   27.48
  -1   1   3  723.95   27.06
   1  -1  -3  733.83   27.34
  -1  -1   3  734.35   29.99
   1  -1  -3  737.25   28.61
   1  -1  -3  780.30   29.82
  -1  -1   3  740.11   23.37
  -1  -1   3  752.88   28.03
  -1  -1   3  753.30   30.03
   1  -1  -3  702.12   28.68
  -1  -1   3  752.31   29.77
  -1  -1   3  725.61   29.43
   1   1  -2 3187.49  184.68
   1   1  -2 3303.38  187.02
   1   1  -2 3103.20  178.68
  -1   1   2 3181.84  176.35
   1   1  -2 3242.28  176.13
  -1   1   2 3171.05  179.90
  -1   1   2 3317.20  176.31
  -1   1   2 3271.30  185.03
   1   1  -2 3203.09  185.23
  -1   1   2 3324.55  189.21
  -1   1   2 3157.29  174.57
   1  -1  -2 3111.26  174.18
  -1  -1   2 3143.60  177.92
   1  -1  -2 2999.20  172.67
  -1  -1   2 3146.43  182.10
  -1  -1   2 3302.67  187.70
  -1  -1   2 3215.24  191.15
   1  -1  -2 3184.24  188.80
   1  -1  -2 3216.27  179.92
  -1  -1   2 3294.74  189.33
  -1   1   1 1953.33   77.60
   1   1  -1 1972.77   91.66
   1   1  -1 1966.46   92.92
  -1   1   1 2009.02   94.13
   1   1  -1 1967.31   90.94
  -1   1   1 1948.07   93.37
  -1   1   1 2067.68   93.60
   1   1  -1 1975.03   93.04
  -1   1   1 1942.60   77.61
  -1  -1   1 1969.46   91.39
   1  -1  -1 1956.77   88.25
  -1  -1   1 1880.98   99.06
   1  -1  -1 1907.51   88.67
  -1  -1   1 1944.78   90.26
  -1  -1   1 1957.65   94.52
   1  -1  -1 1923.57  101.45
   1  -1  -1 2008.84   96.97
  -1  -1   1 1966.05   92.85
  -1   1   0 4522.35  279.78
   1   1   0 4737.50  307.73
   1   1   0 4729.81  306.19
  -1   1   0 4606.12  294.20
   1   1   0 4550.27  278.39
  -1   1   0 4687.52  306.99
   1   1   0 4873.96  309.46
  -1   1   0 4538.16  289.40
  -1   1   0 4609.34  285.41
   1  -1   0 4566.28  302.48
  -1  -1   0 4556.77  296.02
   1  -1   0 4537.23  294.82
  -1  -1   0 4404.75  275.78
  -1  -1   0 4512.76  274.52
  -1  -1   0 4461.51  291.42
   1  -1   0 4658.75  305.15
  -1  -1   0 4642.73  295.31
  -1  -1   0 4570.70  285.92
  -1   1  -1 6753.90  515.90
   1   1   1 7206.11  564.59
   1   1   1 6582.05  519.35
  -1   1  -1 6675.51  492.95
   1   1   1 6475.37  501.12
  -1   1  -1 7054.74  549.22
  -1   1  -1 6813.11  539.00
   1   1   1 6991.17  488.24
   1   1   1 6967.23  488.78
   1   1   1 7025.16  534.29
  -1   1  -1 6770.79  501.29
  -1   1  -1 6985.52  516.94
   1  -1   1 6803.79  511.85
  -1  -1  -1 6901.97  543.09
  -1  -1  -1 6754.47  523.48
   1  -1   1 7085.70  553.82
   1  -1   1 6820.96  538.96
  -1  -1  -1 7056.97  554.72
   1  -1   1 6656.09  498.82
  -1   1  -2 1913.87   78.43
   1   1   2 1705.41   92.37
  -1   1  -2 1814.05   87.54
   1   1   2 1801.16   91.50
   1   1   2 1766.33   82.57
  -1   1  -2 1727.07   80.97
  -1   1  -2 1810.83   75.28
  -1   1  -2 1783.58   94.96
   1  -1   2 1702.35   73.40
   1  -1   2 1760.27   72.36
  -1  -1  -2 1783.95   85.53
   1  -1   2 1835.14   75.17
  -1  -1  -2 1815.56   85.56
  -1  -1  -2 1831.18   87.96
   1  -1   2 1823.97   87.69
   1  -1   2 1763.38   83.76
   1   1   3 7661.61  614.93
  -1   1  -3 7193.45  594.76
   1   1   3 7613.31  644.53
  -1   1  -3 6962.96  592.21
   1   1   3 6877.84  576.89
   1   1   3 7741.42  634.10
  -1   1  -3 7531.70  603.92
  -1   1  -3 7313.47  560.36
  -1   1  -3 7186.71  616.49
   1  -1   3 7673.24  649.45
   1  -1   3 7499.80  598.81
   1  -1   3 7189.32  548.09
  -1  -1  -3 7294.30  611.32
   1  -1   3 7376.85  607.55
  -1  -1  -3 7248.06  614.17
  -1  -1  -3 7703.17  631.69
   1  -1   3 7791.74  647.03
   1   1   4 2537.43  124.07
   1   1   4 2269.34  125.68
   1   1   4 2237.50  121.54
  -1   1  -4 2448.74  128.08
  -1   1  -4 2277.82  122.44
   1   1   4 2460.44  126.88
  -1   1  -4 2331.12  128.91
  -1   1  -4 2354.08  119.46
   1  -1   4 2442.49  127.76
  -1  -1  -4 2401.70  129.38
   1  -1   4 2324.10  130.18
  -1  -1  -4 2326.58  129.89
  -1  -1  -4 2067.03   93.21
   1  -1   4 2277.41  112.90
  -1  -1  -4 2309.59  118.31
  -1  -1  -4 2040.87   93.59
   1   1   5  119.22    4.61
   1   1   5  110.13    8.19
   1   1   5  116.55    7.51
  -1   1  -5  102.54    4.16
  -1   1  -5  116.11    6.94
   1   1   5  115.71    5.79
  -1   1  -5  113.45    6.89
  -1   1  -5  103.05   11.85
  -1  -1  -5  116.28   11.73
  -1  -1  -5  113.59    8.72
   1  -1   5  121.65    6.36
   1  -1   5  106.76    4.34
  -1  -1  -5  109.91    4.90
   1  -1   5  124.42    8.60
   1   1   6  611.07   22.28
   1   1   6  630.70   30.67
   1   1   6  663.72   30.10
  -1   1  -6  615.32   28.71
  -1   1  -6  652.59   32.17
   1   1   6  656.90   27.01
  -1   1  -6  644.04   30.85
  -1  -1  -6  689.54   31.36
   1  -1   6  704.96   28.20
  -1  -1  -6  672.52   32.84
   1  -1   6  677.97   31.95
   1  -1   6  553.82   22.16
  -1  -1  -6  625.36   24.94
  -1   1  -7  129.97    8.23
  -1   1  -7  137.21   10.10
   1  -1   7  130.05    6.77
  -1  -1  -7  130.27    9.50
  -1  -1  -7  134.86   10.76
  -1   1  -8   93.67    7.17
  -1   1  -8  107.69    9.26
   1  -1   8  102.74    9.81
  -1  -1  -8   94.39    8.65
  -1  -1  -8   90.43    9.61
  -1   1  -9  409.90   32.71
   1  -1   9  436.51   37.83
  -1  -1  -9  417.47   26.12
  -1  -1  -9  430.39   24.85
   1   1  10  280.82   34.65
  -1   1 -10  259.37   18.71
  -1  -1 -10  241.98   18.12
   1  -1  10  252.68   21.26
   1   1  11  117.37   16.72
  -1   1 -11   99.08   11.04
  -1  -1 -11   77.34   10.51
   1  -1  11   98.19   10.18
   1   1  12   48.64   14.31
  -1   1 -12   36.91    6.67
  -1  -1 -12   34.33    6.21
   1  -1  12   40.64    9.15
   1   2 -12   38.56    4.50
  -1   2  12   21.90    4.07
  -1   2  12   28.75    4.59
   1   2 -11  138.71   11.29
  -1   2  11  115.91   10.57
  -1  -2  11  142.15   11.26
   1   2 -10  275.90   24.51
  -1   2  10  167.84   23.99
  -1   2  10  281.93   18.15
  -1  -2  10  263.47   16.80
  -1   2   9   97.03   12.60
   1   2  -9  135.62   12.11
  -1   2   9  129.40   10.89
  -1  -2   9  123.47   10.37
   1  -2  -9  105.79   10.49
  -1  -2   9  108.97    8.75
  -1   2   8  183.27   16.70
   1   2  -8  129.94    9.18
   1   2  -8  164.79   12.47
  -1   2   8  141.06   22.37
  -1  -2   8  180.78   11.57
   1  -2  -8  168.32   12.55
  -1  -2   8  172.36   10.76
   1   2  -7  305.18   17.37
   1   2  -7  267.86   13.82
  -1   2   7  262.61   20.04
  -1   2   7  276.35   12.72
  -1   2   7  332.04   17.15
  -1  -2   7  335.05   22.02
   1  -2  -7  317.98   22.62
  -1  -2   7  317.13   15.64
  -1   2   6   58.88    4.65
   1   2  -6   59.97    4.89
   1   2  -6   61.34    7.11
  -1   2   6   52.25    4.47
   1   2  -6   68.69    5.73
  -1   2   6   57.61    6.69
  -1   2   6   47.94    7.10
  -1   2   6   60.00    5.01
   1  -2  -6   51.97    5.77
   1  -2  -6   62.50    6.50
  -1  -2   6   62.06    4.89
  -1  -2   6   69.79    7.47
  -1  -2   6   65.79    9.05
  -1  -2   6   63.24    5.59
  -1   2   5  877.24   38.02
   1   2  -5  874.18   38.91
   1   2  -5  853.05   36.96
   1   2  -5  852.44   41.67
  -1   2   5  760.85   33.31
  -1   2   5  911.44   38.98
  -1   2   5  893.19   41.19
   1  -2  -5  809.87   37.18
   1  -2  -5  972.43   43.42
   1  -2  -5  711.01   31.24
   1  -2  -5  794.53   32.99
  -1  -2   5  897.74   39.02
  -1  -2   5  905.12   41.79
  -1  -2   5  891.74   39.50
  -1  -2   5  826.49   37.07
  -1   2   4  721.16   28.69
   1   2  -4  711.48   24.96
   1   2  -4  802.11   34.06
   1   2  -4  774.25   31.59
   1   2  -4  803.08   37.59
  -1   2   4  818.53   41.66
  -1   2   4  788.95   32.19
  -1   2   4  760.54   29.71
  -1   2   4  852.71   35.17
   1  -2  -4  846.40   41.36
   1  -2  -4  780.72   48.05
   1  -2  -4  780.74   33.60
  -1  -2   4  865.09   35.05
  -1  -2   4  836.81   38.82
  -1  -2   4  811.43   34.39
   1  -2  -4  749.93   30.42
  -1  -2   4  808.74   34.47
   1   2  -3  989.81   38.44
  -1   2   3  966.56   39.39
   1   2  -3 1053.89   40.02
   1   2  -3 1064.91   47.40
   1   2  -3 1062.06   47.72
   1   2  -3 1028.20   47.61
  -1   2   3 1116.95   49.13
  -1   2   3 1099.43   48.00
  -1   2   3 1026.27   42.76
   1  -2  -3 1088.58   52.61
   1  -2  -3 1040.44   47.13
   1  -2  -3 1036.23   51.83
   1  -2  -3 1048.95   45.81
  -1  -2   3 1067.58   48.62
  -1  -2   3 1144.93   51.52
  -1  -2   3 1098.10   47.13
  -1  -2   3 1057.06   46.70
   1   2  -2 1960.85   90.29
   1   2  -2 1839.23   92.81
   1   2  -2 2015.68   94.75
   1   2  -2 2020.98   96.55
   1   2  -2 1935.45   96.48
   1   2  -2 1905.02   96.30
  -1   2   2 1922.00   95.17
  -1   2   2 1783.72   77.44
  -1   2   2 1957.64   97.79
  -1   2   2 1983.52   96.72
   1  -2  -2 1806.42   90.14
   1  -2  -2 1970.72   96.69
   1  -2  -2 1812.10   90.32
   1  -2  -2 1935.03   94.34
  -1  -2   2 1913.37   94.53
  -1  -2   2 2082.73  100.18
  -1  -2   2 2052.33  100.17
  -1  -2   2 1972.27   97.64
   1   2  -1  146.73    6.29
  -1   2   1  148.79    6.99
   1   2  -1  158.07    7.22
   1   2  -1  155.50    6.57
  -1   2   1  140.58    6.84
   1   2  -1  150.62    7.02
  -1   2   1  149.80    8.04
   1   2  -1  145.27    8.02
  -1   2   1  145.90    7.50
   1  -2  -1  150.15    6.89
  -1  -2   1  150.75    6.40
  -1  -2   1  151.58    7.11
  -1  -2   1  158.43    7.39
  -1  -2   1  156.61    7.00
   1  -2  -1  160.55   11.37
  -1  -2   1  149.68    7.84
   1  -2  -1  146.18    7.54
   1   2   0  158.13    7.14
   1   2   0  176.64    6.25
   1   2   0  179.51    8.91
   1   2   0  169.97    9.64
  -1   2   0  164.50    8.90
  -1   2   0  161.72    9.24
  -1   2   0  163.21    6.83
   1   2   0  173.86    8.49
  -1   2   0  157.48   10.57
  -1   2   0  161.69    8.27
  -1  -2   0  170.10    7.83
   1  -2   0  162.63    6.63
  -1  -2   0  163.26    7.18
  -1  -2   0  167.85    6.14
   1  -2   0  165.25    8.62
   1  -2   0  164.24    8.78
  -1  -2   0  165.02   10.46
  -1  -2   0  171.17    8.26
   1   2   1 1161.73   47.71
  -1   2  -1 1110.44   51.03
   1   2   1 1111.66   56.30
  -1   2  -1 1066.12   47.41
   1   2   1 1150.15   48.34
  -1   2  -1 1172.59   47.23
   1   2   1 1180.61   43.38
  -1   2  -1 1202.17   47.32
   1   2   1 1167.14   53.94
  -1   2  -1 1208.95   47.93
   1  -2   1 1191.61   45.72
   1  -2   1 1099.64   35.73
  -1  -2  -1 1130.40   53.97
  -1  -2  -1 1204.44   54.85
  -1  -2  -1 1172.97   49.31
  -1  -2  -1 1187.34   41.28
   1  -2   1 1184.88   52.97
   1  -2   1 1137.58   51.08
   1  -2   1 1110.90   35.81
   1   2   2  335.99   12.70
   1   2   2  347.96   16.67
  -1   2  -2  324.57   15.65
   1   2   2  328.95   13.23
   1   2   2  338.68   12.98
  -1   2  -2  338.14   14.76
  -1   2  -2  323.84   10.37
  -1   2  -2  341.15   11.22
   1  -2   2  310.66    8.94
   1  -2   2  326.85    9.56
   1  -2   2  336.69   15.25
   1  -2   2  332.11   15.33
  -1  -2  -2  325.35   14.10
   1  -2   2  333.03   11.10
   1  -2   2  306.35    9.07
  -1  -2  -2  339.48   13.43
   1   2   3 3281.89  188.82
   1   2   3 3343.83  192.97
   1   2   3 2981.03  187.34
   1   2   3 3137.41  194.64
  -1   2  -3 3267.04  199.78
  -1   2  -3 3179.41  179.37
   1   2   3 3178.27  185.24
  -1   2  -3 2864.93  162.87
  -1   2  -3 2717.78  160.68
  -1   2  -3 2995.13  182.27
   1  -2   3 2997.39  170.32
   1  -2   3 3119.44  175.60
  -1  -2  -3 3275.46  197.03
  -1  -2  -3 3181.38  189.34
   1  -2   3 3189.66  194.58
   1  -2   3 3322.27  199.53
   1   2   4  226.41   14.22
  -1   2  -4  204.08   11.40
   1   2   4  208.05   10.29
   1   2   4  241.81   11.72
   1   2   4  206.24    9.51
  -1   2  -4  215.93   12.13
   1   2   4  216.72    9.49
  -1   2  -4  200.95    7.10
   1  -2   4  210.49   12.25
   1  -2   4  220.49   11.51
  -1  -2  -4  219.49   11.95
  -1  -2  -4  213.55   10.15
   1  -2   4  200.51    7.30
   1  -2   4  206.23    8.10
   1   2   5  483.18   20.06
  -1   2  -5  468.72   26.83
   1   2   5  426.54   20.08
   1   2   5  450.68   20.87
   1   2   5  446.89   22.63
  -1   2  -5  463.62   22.25
   1   2   5  429.07   18.08
  -1   2  -5  426.82   15.98
   1  -2   5  447.79   22.62
   1  -2   5  466.60   21.47
  -1  -2  -5  475.68   29.65
  -1  -2  -5  485.09   21.13
   1  -2   5  396.39   14.97
   1  -2   5  424.73   17.70
   1   2   6   24.22    3.85
  -1   2  -6   21.62    8.70
   1   2   6   23.72    4.91
   1   2   6   27.59    3.68
   1   2   6   26.67    5.97
  -1   2  -6   24.42    5.39
  -1  -2  -6   25.60    4.93
   1  -2   6   23.40    3.72
   1  -2   6   32.41    8.54
  -1  -2  -6   22.39    6.13
  -1   2  -7  152.85   11.30
   1   2   7  140.20   11.74
  -1   2  -7  147.58   15.24
  -1  -2  -7  135.59   12.27
  -1  -2  -7  139.49   10.00
   1  -2   7  139.40    9.14
  -1   2  -8  924.00   57.38
  -1   2  -8  862.81   49.29
   1  -2   8  827.79   48.50
  -1  -2  -8  959.09   58.96
  -1  -2  -8  897.43   53.91
  -1   2  -9  621.01   33.66
  -1   2  -9  589.08   34.25
   1  -2   9  543.95   33.95
  -1  -2  -9  650.87   36.13
  -1  -2  -9  599.98   37.65
   1   2  10  283.58   36.92
  -1   2 -10  287.64   20.40
  -1   2 -10  272.31   16.50
   1  -2  10  242.86   18.31
  -1  -2 -10  294.03   20.60
   1   2  11  159.88   18.27
  -1   2 -11  131.04   12.72
  -1  -2 -11  155.45   12.89
   1  -2  11  118.50   11.04
   1   2  12    4.68    4.15
  -1   2 -12    4.25    3.33
  -1  -2 -12    2.14    3.95
   1  -2  12    3.21    3.03
   1   3 -12   60.02    4.81
  -1   3  12   28.91    3.74
   1   3 -11   20.92    5.76
  -1   3  11   12.88    7.29
   1  -3 -11    8.47    6.41
  -1  -3  11   14.28    4.55
   1   3 -10  279.00   18.30
  -1   3  10  288.07   23.67
   1  -3 -10  204.45   22.23
  -1  -3  10  236.97   16.85
   1   3  -9   98.83   10.34
  -1   3   9   82.78    8.82
   1  -3  -9   74.81    9.72
  -1  -3   9   76.73    8.37
  -1  -3   9   65.65    7.04
   1   3  -8 1249.14   83.01
  -1   3   8 1287.67   74.64
   1  -3  -8 1226.55   76.56
  -1  -3   8 1145.77   67.00
  -1  -3   8 1112.89   65.52
  -1   3   7  411.79   21.39
   1   3  -7  429.18   26.13
  -1   3   7  434.79   25.12
  -1  -3   7  397.31   21.32
   1  -3  -7  437.23   26.12
  -1  -3   7  419.47   26.51
  -1   3   6  190.57   17.88
   1   3  -6  167.58    9.61
   1   3  -6  189.81   13.96
  -1   3   6  204.61   15.35
  -1  -3   6  174.60   10.44
   1  -3  -6  216.25   13.27
  -1  -3   6  191.59   15.47
   1   3  -5  202.96   13.04
   1   3  -5  197.50    9.80
  -1   3   5  203.55   12.56
  -1   3   5  207.10   11.41
   1  -3  -5  212.01   12.10
  -1  -3   5  215.35   10.76
  -1  -3   5  187.75    9.97
  -1  -3   5  220.56   11.68
  -1   3   4  315.57   15.80
  -1   3   4  314.06   16.39
   1   3  -4  307.92   13.28
   1   3  -4  316.34   16.52
   1   3  -4  325.57   15.08
  -1   3   4  328.47   15.65
  -1   3   4  307.45   15.50
   1  -3  -4  308.20   15.01
  -1  -3   4  313.79   14.05
  -1  -3   4  320.11   21.44
   1  -3  -4  318.87   15.53
  -1  -3   4  323.82   15.07
  -1  -3   4  302.74   13.49
   1   3  -3   14.70    7.02
   1   3  -3   10.53    1.84
   1   3  -3   15.71    3.94
  -1   3   3   10.10    2.16
   1   3  -3   10.57    3.00
  -1   3   3    9.52    4.66
   1   3  -3   13.28    4.15
  -1   3   3   11.63    3.80
  -1   3   3   11.13    7.31
  -1   3   3   11.74    4.03
   1  -3  -3    9.11    2.13
   1  -3  -3    9.56    3.93
  -1  -3   3    9.13    4.29
   1  -3  -3    5.75    3.82
  -1  -3   3   15.04    6.38
  -1  -3   3   10.21    3.77
  -1  -3   3   13.63    3.04
   1   3  -2   38.15   11.26
   1   3  -2   32.65    3.17
  -1   3   2   31.73    3.46
  -1   3   2   33.38    6.69
   1   3  -2   37.94    4.41
   1   3  -2   33.26    4.93
  -1   3   2   41.28    5.73
  -1   3   2   32.81    6.53
  -1   3   2   31.12    4.50
  -1  -3   2   38.21    4.85
  -1  -3   2   36.45    4.10
  -1  -3   2   39.53    6.57
   1  -3  -2   35.26    4.92
   1  -3  -2   31.86    4.80
  -1  -3   2   38.21    3.81
  -1  -3   2   37.56    4.66
   1   3  -1   73.41   13.00
   1   3  -1   80.40    5.29
   1   3  -1   78.68    3.85
  -1   3   1   77.04    6.51
  -1   3   1   73.42    5.31
  -1   3   1   80.84    5.32
   1   3  -1   78.05    5.00
   1   3  -1   78.43    6.46
  -1   3   1   77.17    8.41
  -1   3   1   70.75    7.57
   1  -3  -1   79.79    6.42
  -1  -3   1   73.12    4.30
  -1  -3   1   82.58    5.73
  -1  -3   1   70.77   10.21
   1  -3  -1   73.12    6.54
   1  -3  -1   74.27    4.87
  -1  -3   1   76.19    5.40
   1   3   0  249.84   19.74
   1   3   0  263.53   11.99
   1   3   0  240.43    8.60
   1   3   0  277.73   12.97
  -1   3   0  276.44   11.74
  -1   3   0  259.10   12.35
   1   3   0  240.01    8.89
   1   3   0  269.74   12.09
  -1   3   0  259.35   15.03
  -1   3   0  257.81   10.75
  -1   3   0  257.49   13.61
   1  -3   0  277.54   14.02
   1  -3   0  245.65   11.74
  -1  -3   0  248.79   10.82
  -1  -3   0  248.94   10.77
   1  -3   0  266.25   11.74
  -1  -3   0  241.25    9.54
  -1  -3   0  232.85   11.39
   1   3   1 1392.58   76.46
   1   3   1 1418.15   70.04
   1   3   1 1271.17   57.17
  -1   3  -1 1512.30   70.89
  -1   3  -1 1406.44   70.78
   1   3   1 1277.14   53.99
   1   3   1 1449.01   66.82
   1   3   1 1405.73   67.60
  -1   3  -1 1392.30   63.89
  -1   3  -1 1395.12   62.88
  -1   3  -1 1417.62   69.61
  -1   3  -1 1459.54   66.03
   1  -3   1 1389.61   66.86
   1  -3   1 1426.63   70.64
  -1  -3  -1 1215.04   52.94
  -1  -3  -1 1322.44   63.08
  -1  -3  -1 1394.09   71.66
  -1  -3  -1 1368.33   65.19
   1   3   2   60.13   14.26
   1   3   2   63.24    6.73
   1   3   2   61.77    5.13
  -1   3  -2   63.43    5.67
  -1   3  -2   63.54    3.97
   1   3   2   62.52    5.29
  -1   3  -2   54.03    3.42
  -1   3  -2   51.69    3.99
  -1   3  -2   59.76    9.85
  -1   3  -2   61.88    8.98
  -1  -3  -2   52.10    3.73
  -1  -3  -2   58.30    8.21
  -1  -3  -2   56.35    5.49
   1  -3   2   66.70    6.55
   1  -3   2   64.61    6.44
   1   3   3 1663.18  100.79
   1   3   3 1315.61   72.50
   1   3   3 1407.26   74.74
  -1   3  -3 1593.16   80.91
  -1   3  -3 1557.74   73.29
   1   3   3 1650.68   80.77
  -1   3  -3 1589.08   84.04
  -1   3  -3 1574.71   74.69
   1  -3   3 1629.02   92.89
  -1  -3  -3 1518.47   78.50
   1  -3   3 1689.20   87.83
  -1  -3  -3 1450.76   71.95
  -1  -3  -3 1606.60   81.97
   1   3   4  149.54   18.17
   1   3   4  134.84    7.34
   1   3   4  153.19    8.71
  -1   3  -4  153.38   13.46
  -1   3  -4  151.47    7.89
   1   3   4  161.67    8.88
  -1   3  -4  155.57   10.89
  -1  -3  -4  160.56   10.25
   1  -3   4  169.51   15.86
  -1  -3  -4  154.29    9.86
   1  -3   4  170.13   11.40
  -1  -3  -4  138.67    7.48
   1   3   5 1119.80   61.84
   1   3   5  918.69   49.68
   1   3   5 1084.23   53.08
  -1   3  -5  991.22   50.20
  -1   3  -5  995.85   52.57
  -1   3  -5  885.63   40.31
  -1  -3  -5 1031.01   53.89
  -1  -3  -5  912.31   45.08
   1   3   6  166.38   18.09
   1   3   6  176.24   10.56
  -1   3  -6  140.82   10.76
  -1   3  -6  142.68   11.86
  -1  -3  -6  132.14    8.97
  -1  -3  -6  157.07   12.54
   1   3   7   49.93    5.77
   1   3   7   46.98    6.29
  -1   3  -7   43.88    7.06
  -1   3  -7   57.28    7.94
  -1  -3  -7   34.98    5.26
  -1  -3  -7   54.15   13.32
   1   3   8   41.47    5.99
  -1   3  -8   41.13    7.19
  -1   3  -8   49.00    8.80
  -1  -3  -8   38.51    5.53
  -1  -3  -8   50.06    8.97
  -1   3  -9  197.74   15.17
  -1   3  -9  180.29   20.30
  -1  -3  -9  172.53   15.77
   1   3  10   15.93   11.74
  -1   3 -10   51.23    7.03
  -1   3 -10   33.49    6.84
  -1  -3 -10   43.90    7.80
   1   3  11    5.44    4.69
  -1   3 -11   19.66    3.78
  -1   3 -11   15.68    4.44
  -1  -3 -11   16.77    5.14
   1   4 -11  135.99    8.00
  -1   4  11   95.29    7.19
  -1   4  10    6.25    5.98
   1   4 -10    6.25    7.88
   1  -4 -10    4.33    6.49
  -1   4   9   47.31    7.14
   1   4  -9   54.56    8.53
   1  -4  -9   41.59   11.89
  -1   4   8   59.07    7.17
   1   4  -8   65.11    9.28
  -1   4   8   67.67    8.59
   1  -4  -8   70.98    9.75
  -1  -4   8   51.37    6.21
  -1   4   7   66.40    7.76
   1   4  -7   67.25    9.63
  -1   4   7   63.32    9.16
  -1  -4   7   48.56    5.42
   1  -4  -7   69.06    9.67
  -1  -4   7   56.79    6.80
  -1   4   6  201.22   13.56
   1   4  -6  209.24   15.83
  -1   4   6  201.08   14.71
  -1  -4   6  196.25   11.15
   1  -4  -6  214.13   15.23
  -1  -4   6  206.61   12.97
  -1   4   5  436.28   23.53
   1   4  -5  463.41   26.77
  -1   4   5  414.84   24.40
  -1  -4   5  391.11   19.46
   1  -4  -5  443.74   24.48
  -1  -4   5  422.65   22.57
  -1   4   4  247.43   15.25
   1   4  -4  263.71   16.10
  -1   4   4  248.60   15.07
  -1  -4   4  245.85   12.35
   1  -4  -4  238.66   14.77
  -1  -4   4  242.74   13.42
  -1   4   3    5.39    4.12
   1   4  -3    7.92    6.39
   1   4  -3    7.61    3.94
  -1   4   3    1.83    4.85
  -1  -4   3    2.37    5.44
   1  -4  -3    5.34    4.38
   1   4  -2  248.91   19.72
   1   4  -2  273.69   14.47
  -1   4   2  270.96   14.16
   1   4  -2  263.25   13.17
   1   4  -2  279.47   14.24
  -1   4   2  286.49   15.30
  -1  -4   2  288.07   13.76
   1  -4  -2  278.42   14.95
   1   4  -1  775.83   51.95
   1   4  -1  734.80   33.66
   1   4  -1  831.45   37.92
  -1   4   1  838.61   40.00
  -1   4   1  755.37   35.86
  -1   4   1  828.47   38.25
   1  -4  -1  701.67   35.39
   1  -4  -1  818.79   39.71
  -1  -4   1  827.87   38.36
  -1  -4   1  716.28   36.84
   1   4   0   22.77   12.61
  -1   4   0   15.57    3.84
  -1   4   0   11.10    5.72
   1   4   0    8.74    4.39
  -1   4   0   14.38    3.88
  -1  -4   0    7.92    4.53
   1  -4   0   23.31    4.78
   1  -4   0   11.70    4.28
   1   4   1   15.62   14.01
  -1   4  -1   17.36    4.77
   1   4   1   16.68    4.47
  -1   4  -1   16.86    5.12
  -1   4  -1   12.60    5.53
  -1   4  -1   18.47    3.54
   1  -4   1   13.33    7.44
  -1  -4  -1   15.93    4.39
   1   4   2  143.69   25.47
  -1   4  -2  146.43   10.14
   1   4   2  142.97    9.48
  -1   4  -2  162.05   11.24
   1  -4   2  145.08    9.62
  -1  -4  -2  137.29    9.73
   1   4   3   94.96   23.40
   1   4   3   83.79    7.33
  -1   4  -3   92.21    8.61
  -1   4  -3   90.52    8.22
  -1   4  -3   77.06    5.26
  -1  -4  -3   80.82   11.88
   1   4   4   26.88   17.91
   1   4   4   30.16    5.48
  -1   4  -4   34.76    7.01
  -1   4  -4   27.73    5.81
  -1   4  -4   21.98    3.22
  -1  -4  -4   23.28    6.44
   1   4   5  429.31   25.47
   1   4   5  394.74   22.02
  -1   4  -5  411.75   24.78
  -1   4  -5  378.92   21.59
  -1  -4  -5  398.37   24.13
   1   4   6  122.88   12.59
   1   4   6  122.92   10.71
  -1   4  -6  115.70   12.49
  -1   4  -6  107.95   10.01
  -1  -4  -6  113.04   12.67
   1   4   7  765.90   39.45
   1   4   7  670.65   40.02
  -1   4  -7  695.77   40.89
  -1   4  -7  593.52   34.29
  -1  -4  -7  656.15   41.10
   1   4   8  105.76   11.47
   1   4   8  102.19    9.98
  -1   4  -8  131.83   12.18
  -1   4  -8  132.10   11.17
  -1  -4  -8  122.01   12.89
   1   4   9   29.19    4.95
  -1   4  -9   57.68   11.32
  -1   4  -9   42.89    6.68
  -1  -4  -9   50.47    8.28
  -1   4 -10  103.08    9.02
  -1  -4 -10   83.14    8.45
  -1   5   9  112.68    8.01
   1   5  -9  132.69    9.07
   1  -5  -9  102.89    9.02
  -1   5   8  120.90    9.61
   1   5  -8  117.88    9.89
  -1   5   8  115.84    9.82
   1  -5  -8  122.01   11.51
   1   5  -7   15.75    3.98
   1   5  -7   29.91    7.22
  -1   5   7   24.58    6.46
  -1   5   7   23.96    6.32
   1  -5  -7   24.02    6.46
  -1   5   6   36.09    7.58
   1   5  -6   42.28    7.90
   1   5  -6   32.23    5.22
  -1   5   6   41.46    6.93
  -1  -5   6   28.99    4.76
   1  -5  -6   43.76    7.45
  -1   5   5   18.01    5.94
   1   5  -5   12.30    5.86
   1   5  -5   10.76    4.62
  -1   5   5   10.17    5.79
  -1  -5   5   11.29    4.13
   1  -5  -5    9.40    9.58
  -1   5   4  115.45   15.62
   1   5  -4  116.88   10.31
   1   5  -4  125.59    9.58
  -1   5   4  125.48   11.20
  -1  -5   4  117.23   12.37
   1  -5  -4  118.15   11.47
  -1   5   3  544.18   29.46
   1   5  -3  482.15   27.51
   1   5  -3  516.26   26.20
  -1   5   3  542.76   29.43
  -1  -5   3  558.25   28.19
   1  -5  -3  543.89   29.89
  -1   5   2   56.29    7.41
   1   5  -2   59.95    6.97
  -1   5   2   59.65    7.76
  -1  -5   2   56.04    6.90
   1  -5  -2   60.82    8.19
   1   5  -1   75.75    8.13
  -1   5   1   83.78    8.17
   1   5  -1   86.86    8.30
  -1   5   1   88.49    8.36
  -1  -5   1   84.12    8.32
   1  -5  -1   80.26    8.96
   1   5   0  199.24   14.74
  -1   5   0  195.43   11.53
   1   5   0  201.32   12.92
  -1   5   0  178.58   11.61
  -1   5   0  158.28   10.70
  -1  -5   0  197.34   12.88
   1  -5   0  199.91   13.93
   1   5   1 1117.27   64.50
  -1   5  -1 1041.39   54.59
   1   5   1 1033.79   56.13
  -1   5  -1  979.86   55.20
   1  -5   1 1108.34   59.75
  -1  -5  -1 1124.38   61.77
   1   5   2    8.48    7.61
  -1   5  -2    8.31    3.73
   1   5   2   10.08    5.49
  -1   5  -2   16.30    5.04
   1  -5   2   10.88    5.68
  -1  -5  -2   13.43    5.40
   1   5   3  115.11   13.79
  -1   5  -3   93.32    9.27
   1   5   3  111.13   10.15
  -1   5  -3  115.42   10.97
   1  -5   3  104.14    9.92
  -1  -5  -3  105.46   10.72
   1   5   4   67.80   12.63
   1   5   4   72.79    8.66
  -1   5  -4   86.85   10.27
   1  -5   4   68.59   12.51
  -1  -5  -4   82.59    9.57
   1   5   5  473.04   26.12
   1   5   5  418.40   29.93
  -1   5  -5  443.90   26.54
   1  -5   5  414.63   23.16
  -1  -5  -5  423.49   26.78
   1   5   6   69.31    8.07
   1   5   6   69.89    8.78
  -1   5  -6   70.80    9.24
   1  -5   6   67.97    7.33
  -1  -5  -6   69.59    9.87
   1   5   7   67.13    7.39
   1   5   7   58.17    7.77
  -1   5  -7   58.77    8.57
   1  -5   7   62.31    7.43
  -1  -5  -7   59.81    9.34
   1   5   8   68.45    8.47
   1   5   8   60.67    6.61
  -1   5  -8   78.12    8.36
   1  -5   8   84.00    9.94
  -1  -5  -8   61.12   12.43
  -1   5  -9   46.32    5.56
  -1  -5  -9   44.57    5.89
   1  -5   9   45.67    4.23
  -1   6   7   34.58    4.52
  -1   6   7   35.79    4.37
   1  -6  -7   29.46    4.70
   1   6  -6    2.39    2.10
   1   6  -6    1.95    2.49
  -1   6   6   -1.59    5.87
  -1   6   6   -3.53    6.03
   1  -6  -6    1.40    4.00
  -1   6   5   86.65    8.47
   1   6  -5   80.59    8.90
  -1   6   5   79.02    7.98
   1  -6  -5   82.94    8.28
  -1   6   4  339.71   20.02
   1   6  -4  352.68   22.04
  -1   6   4  312.15   18.99
  -1  -6   4  287.57   15.30
   1  -6  -4  359.09   20.62
  -1   6   3  140.27   11.52
   1   6  -3  156.43   15.00
  -1   6   3  150.95   10.97
  -1  -6   3  139.14    9.14
   1  -6  -3  152.52   12.39
  -1   6   2  562.24   32.67
   1   6  -2  553.61   28.23
  -1   6   2  587.34   31.91
  -1  -6   2  547.56   32.89
   1  -6  -2  572.07   31.24
  -1   6   1  190.69   14.11
   1   6  -1  234.80   13.83
  -1   6   1  235.36   14.85
  -1  -6   1  235.03   14.04
   1  -6  -1  229.52   15.15
   1   6   0   51.33    6.20
   1   6   0   65.83   11.20
  -1   6   0   61.60    9.86
   1  -6   0   59.96    8.16
  -1  -6   0   69.58    7.67
   1   6   1   55.93    6.98
   1   6   1   61.48    7.77
  -1   6  -1   50.91    5.85
   1  -6   1   59.52    7.62
  -1  -6  -1   69.40    8.07
   1   6   2  180.89   12.88
   1   6   2  181.08   12.40
  -1   6  -2  136.70    9.05
   1  -6   2  168.48   17.06
  -1  -6  -2  193.39   13.43
   1   6   3   12.24    5.33
   1   6   3   10.45    5.45
  -1   6  -3   10.84    4.47
   1  -6   3   14.64    5.27
  -1  -6  -3    9.17    5.24
   1   6   4   31.02    9.28
   1   6   4   29.56    6.20
  -1   6  -4   30.52    8.74
   1  -6   4   31.19    5.82
  -1  -6  -4   32.71    6.42
   1   6   5   31.95    5.36
   1   6   5   31.93    5.50
  -1   6  -5   34.87    5.86
   1  -6   5   29.14    5.13
  -1  -6  -5   30.44    6.16
   1   6   6   12.42    4.00
   1   6   6   12.33    3.86
  -1   6  -6   13.32    6.98
   1  -6   6   12.82    4.12
  -1  -6  -6   12.87    4.64
   1   7  -1    9.21    2.82
   1  -7  -1    7.36    3.61
   1   7   0   14.02    3.41
   1  -7   0   18.14    3.83
  -1  -7   0   14.55    2.85
   1   7   1   33.46    6.22
   1  -7   1   30.51    6.68
  -1  -7  -1   29.29    3.71
  -2   0  13   29.89    4.12
  -2   0  13   10.49    2.71
  -2   0  12   83.43    8.23
  -2   0  12   57.67    7.55
  -2   0  11   67.24    8.30
  -2   0  11   60.82   12.02
   2   0 -10    3.43    6.98
  -2   0  10   10.34    5.21
  -2   0  10    0.81    5.24
   2   0  -9   39.89    7.64
  -2   0   9   53.42    7.75
  -2   0   9   45.51    6.89
   2   0  -8  152.86   16.74
  -2   0   8  159.89   11.47
  -2   0   8  158.10   11.00
   2   0  -7    7.37    2.43
   2   0  -7   20.88    8.24
   2   0  -7   15.63    4.10
  -2   0   7   15.34    4.58
  -2   0   7   10.57    2.09
  -2   0   7   12.63    7.19
   2   0  -6  145.77    8.53
   2   0  -6  182.58   11.41
   2   0  -6  184.29    9.59
   2   0  -6  193.25   10.54
  -2   0   6  188.45   10.26
  -2   0   6  184.66   10.23
  -2   0   6  187.01   10.52
   2   0  -5   38.34    2.67
   2   0  -5   37.96    2.63
   2   0  -5   43.94    8.28
   2   0  -5   39.14    5.06
   2   0  -5   41.55    5.29
  -2   0   5   37.34    2.87
  -2   0   5   41.55    4.88
  -2   0   5   41.61    4.58
  -2   0   5   40.04    3.16
  -2   0   5   43.65    5.17
   2   0  -4   20.30    2.34
   2   0  -4   19.54    1.86
   2   0  -4   20.42    4.01
   2   0  -4   20.88    4.37
   2   0  -4   22.57    4.21
  -2   0   4   18.41    2.88
  -2   0   4   22.93    3.93
  -2   0   4   19.44    3.78
  -2   0   4   18.44    1.47
  -2   0   4   22.94    4.26
   2   0  -3 6337.48  503.74
   2   0  -3 5913.28  443.14
   2   0  -3 6473.26  506.62
   2   0  -3 6408.40  524.68
   2   0  -3 6252.06  496.30
  -2   0   3 6584.72  529.01
  -2   0   3 6306.05  494.00
  -2   0   3 6689.75  518.81
  -2   0   3 6243.64  458.40
  -2   0   3 6299.17  509.29
   2   0  -2  163.94    8.04
   2   0  -2  160.59    7.54
   2   0  -2  169.97    9.36
   2   0  -2  163.04   10.98
  -2   0   2  164.76    8.47
  -2   0   2  155.61    7.50
  -2   0   2  167.44    8.82
  -2   0   2  159.40    7.30
   2   0  -1  669.29   27.10
   2   0  -1  672.91   24.62
   2   0  -1  677.86   26.91
   2   0  -1  679.05   23.48
  -2   0   1  680.13   27.71
  -2   0   1  650.42   30.55
  -2   0   1  677.37   26.37
  -2   0   1  670.17   26.16
   2   0   0 3255.27  191.96
   2   0   0 3377.05  193.00
   2   0   0 3160.18  167.55
   2   0   0 3379.12  197.48
   2   0   0 3281.73  174.19
  -2   0   0 3421.02  201.89
  -2   0   0 3312.61  192.96
  -2   0   0 3349.36  177.31
  -2   0   0 3447.80  198.35
  -2   0   0 3335.42  179.78
   2   0   1 3913.70  242.70
   2   0   1 3992.09  247.51
   2   0   1 3715.47  224.78
   2   0   1 3961.42  240.81
   2   0   1 3950.50  207.86
   2   0   1 3923.47  207.60
  -2   0  -1 4145.88  259.08
  -2   0  -1 3880.02  244.18
  -2   0  -1 4070.34  247.45
  -2   0  -1 4078.63  248.92
   2   0   2   60.84    3.59
   2   0   2   60.15    5.26
   2   0   2   62.57    4.09
   2   0   2   58.80    3.15
  -2   0  -2   61.84    4.37
  -2   0  -2   55.96    5.22
  -2   0  -2   54.12    4.65
  -2   0  -2   56.61    3.53
   2   0   3   63.75    3.81
   2   0   3   58.28    5.83
   2   0   3   59.55    5.46
   2   0   3   62.20    2.66
  -2   0  -3   65.32    6.03
  -2   0  -3   59.29    5.27
  -2   0  -3   51.92    5.32
  -2   0  -3   67.50    3.45
   2   0   4    6.98    1.72
   2   0   4    3.90    3.90
   2   0   4    1.96    3.65
   2   0   4    4.62    1.27
   2   0   4    4.02    1.17
  -2   0  -4    4.42    2.62
  -2   0  -4    3.03    3.58
  -2   0  -4    3.68    3.66
  -2   0  -4    2.40    1.73
   2   0   5  192.59   11.16
   2   0   5  203.58   10.83
   2   0   5  179.17    5.96
  -2   0  -5  203.56   14.93
  -2   0  -5  187.60   10.69
  -2   0  -5  176.86    6.56
   2   0   6  128.24    9.72
   2   0   6  143.74   13.77
  -2   0  -6  127.06    9.64
  -2   0  -6  129.75    9.73
  -2   0  -7   30.32    6.77
  -2   0  -7   24.99    6.09
  -2   0  -8  595.43   35.09
  -2   0  -8  652.29   36.68
  -2   0  -9  346.83   29.27
  -2   0  -9  352.10   22.69
   2   0  10    7.30   11.08
  -2   0 -10    7.20    6.22
   2   0  11  142.89   17.93
  -2   0 -11  133.48   12.95
   2   0  12  337.67   31.26
  -2   0 -12  327.03   26.44
  -2   1  13    1.98    3.89
  -2   1  13    3.06    3.52
  -2  -1  13    4.34    3.69
   2   1 -12   18.32    3.82
  -2   1  12   16.53    5.20
  -2   1  12   15.97    4.88
  -2  -1  12   28.28    5.70
  -2  -1  12   15.00    4.43
   2   1 -11  100.85    9.59
  -2   1  11  103.88   10.08
  -2   1  11  117.38   10.77
  -2  -1  11  136.34   16.75
  -2  -1  11  110.92    9.97
   2   1 -10  388.10   24.18
  -2   1  10  389.28   29.83
  -2   1  10  386.45   23.32
  -2  -1  10  408.06   24.19
  -2  -1  10  433.17   25.54
   2   1  -9   68.31   10.70
  -2   1   9   62.96    8.06
  -2   1   9   58.90    8.21
  -2  -1   9   69.85    8.74
  -2  -1   9   63.78    7.45
  -2   1   8  361.38   19.31
   2   1  -8  345.10   21.63
  -2   1   8  367.18   20.37
  -2  -1   8  369.34   20.61
   2  -1  -8  283.06   26.60
  -2  -1   8  347.07   18.90
   2   1  -7  124.06   13.86
  -2   1   7  131.33    7.75
  -2   1   7  124.14   13.51
  -2   1   7  123.13    8.68
  -2   1   7   94.67    7.09
   2  -1  -7   97.23    6.46
   2  -1  -7  111.01   12.74
  -2  -1   7  128.10   12.90
   2  -1  -7  119.57    7.35
  -2  -1   7  128.78    8.74
   2   1  -6  454.52   22.37
  -2   1   6  484.78   20.29
   2   1  -6  494.04   23.04
   2   1  -6  476.15   36.21
  -2   1   6  478.23   22.18
  -2   1   6  484.33   22.81
  -2   1   6  456.89   18.86
  -2   1   6  451.88   19.28
   2  -1  -6  459.55   21.23
   2  -1  -6  455.34   52.85
  -2  -1   6  481.97   28.52
   2  -1  -6  464.93   21.70
  -2  -1   6  509.15   23.35
   2  -1  -6  428.32   18.87
   2  -1  -6  464.83   20.97
  -2  -1   6  495.48   22.13
  -2   1   5 1692.42   81.45
  -2   1   5 1787.27   90.09
   2   1  -5 1627.90   79.31
  -2   1   5 1824.92   94.19
   2   1  -5 1769.14   95.40
  -2   1   5 1792.37   93.09
   2   1  -5 1809.75   94.04
  -2   1   5 1898.64   94.62
   2   1  -5 1887.21   97.63
   2  -1  -5 1774.74  108.80
  -2  -1   5 1474.89   73.97
   2  -1  -5 1666.66   84.37
  -2  -1   5 1817.87   93.60
   2  -1  -5 1815.06   90.21
  -2  -1   5 1863.97   94.37
   2  -1  -5 1776.47   92.51
  -2  -1   5 1624.87   78.72
   2  -1  -5 1709.66   88.06
  -2  -1   5 1679.73   87.73
  -2   1   4   94.94    3.82
   2   1  -4   90.93    3.50
  -2   1   4   99.22    6.25
   2   1  -4   89.12    3.34
   2   1  -4  106.79   11.62
  -2   1   4   99.57    6.03
   2   1  -4   89.43    7.04
  -2   1   4  100.02    5.03
   2   1  -4  100.77    7.19
  -2   1   4   97.66    4.81
  -2   1   4   97.83    6.93
   2  -1  -4   88.85    7.95
  -2  -1   4   93.22    4.10
   2  -1  -4   97.03    4.53
  -2  -1   4   97.62    7.01
   2  -1  -4   88.62    6.03
  -2  -1   4   99.78    7.23
   2  -1  -4   81.70    5.92
  -2  -1   4   89.60    3.28
  -2  -1   4   93.51    6.69
  -2   1   3  227.42    8.06
   2   1  -3  233.28    8.55
   2   1  -3  238.83   11.13
  -2   1   3  234.78   10.59
   2   1  -3  225.57   10.77
  -2   1   3  233.47   10.40
  -2   1   3  235.48    7.99
   2   1  -3  256.77   15.40
  -2   1   3  232.25   10.63
   2  -1  -3  221.16    9.52
   2  -1  -3  229.71    9.64
  -2  -1   3  226.17   11.64
   2  -1  -3  221.95    9.35
  -2  -1   3  221.53    6.16
  -2  -1   3  226.82    8.76
   2  -1  -3  219.91   10.70
  -2  -1   3  227.76   10.46
  -2   1   2  238.50    7.67
   2   1  -2  247.20   10.05
   2   1  -2  238.97   11.16
  -2   1   2  246.10   11.58
   2   1  -2  242.22   13.91
  -2   1   2  240.93   11.50
  -2   1   2  254.30   10.17
   2   1  -2  256.96   10.78
  -2   1   2  255.58    7.73
  -2  -1   2  253.29   10.37
   2  -1  -2  256.81    9.87
  -2  -1   2  260.54   16.76
   2  -1  -2  245.25   10.79
  -2  -1   2  247.32    6.28
  -2  -1   2  256.29    6.16
   2  -1  -2  230.51   16.52
   2  -1  -2  243.03    9.41
  -2  -1   2  234.98   10.19
   2   1  -1 1447.63   61.79
   2   1  -1 1496.68   68.48
  -2   1   1 1436.84   59.06
   2   1  -1 1447.31   66.53
  -2   1   1 1486.86   76.50
  -2   1   1 1434.01   76.34
  -2   1   1 1499.31   63.12
   2   1  -1 1494.30   71.13
   2  -1  -1 1459.98   60.39
   2  -1  -1 1522.68   60.80
   2  -1  -1 1503.81   74.92
  -2  -1   1 1375.48   65.44
   2  -1  -1 1514.58   57.23
  -2  -1   1 1500.22   56.64
  -2  -1   1 1511.05   57.47
  -2  -1   1 1512.88   77.27
   2  -1  -1 1478.70   70.00
  -2  -1   1 1462.71   63.79
  -2   1   0 6301.57  482.46
   2   1   0 6248.61  481.65
  -2   1   0 5915.29  428.55
   2   1   0 6281.36  498.82
   2   1   0 6253.56  447.35
  -2   1   0 6377.68  480.04
   2   1   0 6121.49  446.55
   2   1   0 6234.18  462.63
  -2   1   0 5964.81  427.65
  -2   1   0 6001.02  463.12
   2  -1   0 6149.84  465.19
   2  -1   0 6067.22  434.54
  -2  -1   0 5870.50  454.78
   2  -1   0 6094.97  436.48
  -2  -1   0 6099.13  442.88
   2  -1   0 6248.65  467.39
  -2  -1   0 6128.66  471.11
   2  -1   0 6047.44  468.82
  -2  -1   0 6458.93  484.29
   2   1   1 6067.32  443.03
   2   1   1 6189.41  487.21
   2   1   1 6051.96  466.50
   2   1   1 6015.87  426.12
   2   1   1 6018.76  444.56
  -2   1  -1 6038.80  463.96
   2   1   1 5917.42  416.30
   2   1   1 6290.69  455.22
  -2   1  -1 5839.64  400.45
  -2   1  -1 6046.65  458.29
  -2   1  -1 5879.15  427.42
  -2   1  -1 6031.19  414.84
  -2   1  -1 6189.79  463.74
   2  -1   1 6170.13  463.30
   2  -1   1 5712.57  427.51
   2  -1   1 5978.36  435.16
  -2  -1  -1 5997.50  458.37
  -2  -1  -1 6167.37  460.92
  -2  -1  -1 5968.07  461.55
   2  -1   1 6376.81  489.45
   2   1   2   42.77    5.50
   2   1   2   45.44    4.42
   2   1   2   42.06    3.87
  -2   1  -2   47.84    4.74
  -2   1  -2   44.33    4.82
   2   1   2   47.40    2.55
  -2   1  -2   47.57    3.46
  -2   1  -2   41.32    4.97
   2  -1   2   40.85    2.49
   2  -1   2   49.12    4.79
  -2  -1  -2   39.51    8.63
   2  -1   2   46.14    7.06
  -2  -1  -2   46.45    4.49
   2  -1   2   45.60    4.86
  -2  -1  -2   43.34    4.98
   2   1   3   18.26    5.07
  -2   1  -3   23.83    4.30
   2   1   3   18.23    3.54
   2   1   3   22.13    1.99
  -2   1  -3   23.29    4.82
  -2   1  -3   25.50    4.04
  -2   1  -3   20.18    2.07
   2  -1   3   25.66    4.75
  -2  -1  -3   22.83    4.63
   2  -1   3   25.17    3.76
  -2  -1  -3   17.84    4.16
   2  -1   3   21.10    2.54
  -2  -1  -3   24.23    5.69
   2   1   4 1285.52   64.15
  -2   1  -4 1288.27   62.54
   2   1   4 1215.97   57.49
   2   1   4 1279.81   53.55
  -2   1  -4 1311.83   59.94
  -2   1  -4 1310.17   60.72
  -2   1  -4 1131.82   48.70
   2  -1   4 1322.46   65.03
  -2  -1  -4 1283.47   62.16
   2  -1   4 1364.40   60.98
  -2  -1  -4 1259.27   62.45
   2  -1   4 1252.59   56.92
  -2  -1  -4 1339.89   67.64
   2   1   5  432.82   16.56
   2   1   5  435.55   27.95
   2   1   5  432.65   19.37
   2   1   5  385.59   14.08
  -2   1  -5  446.89   21.13
  -2   1  -5  413.80   19.56
  -2   1  -5  436.36   18.33
   2  -1   5  470.85   28.69
  -2  -1  -5  444.36   21.03
   2  -1   5  453.57   17.92
  -2  -1  -5  460.19   27.28
   2   1   6  140.14    9.65
  -2   1  -6  128.53    7.35
  -2   1  -6  138.05   10.12
  -2   1  -6  139.14   10.49
  -2  -1  -6  143.09   10.27
  -2  -1  -6  138.60   10.18
   2  -1   6  146.97    7.04
  -2   1  -7  557.77   28.91
  -2   1  -7  564.66   32.84
  -2   1  -7  565.16   30.57
  -2  -1  -7  602.38   31.77
  -2  -1  -7  566.32   38.93
  -2   1  -8  349.45   21.72
  -2  -1  -8  337.44   21.86
  -2  -1  -8  340.00   23.80
  -2   1  -9  495.41   30.87
   2  -1   9  522.84   33.24
  -2  -1  -9  468.83   30.29
  -2  -1  -9  469.98   32.30
  -2   1 -10  138.22   13.31
  -2  -1 -10  128.76   12.82
   2  -1  10  133.28   15.57
   2   1  11  113.50   23.60
  -2   1 -11   95.40   10.16
  -2  -1 -11   93.70   10.95
   2  -1  11  106.39   17.79
   2   1  12   17.09    7.82
  -2   1 -12   10.41    6.75
  -2  -1 -12    7.55    4.79
   2  -1  12   10.57    4.52
   2   2 -12   78.57    7.55
  -2   2  12   72.66    7.69
  -2  -2  12   90.56    8.13
   2   2 -11   12.12    8.42
  -2   2  11    2.20    2.90
  -2   2  11    8.07    4.63
  -2  -2  11   11.89    5.22
  -2  -2  11    7.81    4.10
   2   2 -10  210.32   15.63
  -2   2  10  206.84   15.21
  -2  -2  10  219.40   15.08
  -2  -2  10  224.64   19.84
   2   2  -9  250.96   17.98
  -2   2   9  249.95   22.93
  -2  -2   9  270.24   17.26
  -2  -2   9  280.74   18.00
   2   2  -8  194.73   15.51
  -2   2   8  211.58   14.08
  -2  -2   8  216.22   19.94
  -2  -2   8  210.78   13.25
  -2   2   7 1425.98   84.26
   2   2  -7 1491.64   87.79
  -2   2   7 1520.46   85.34
  -2  -2   7 1521.64   89.25
   2  -2  -7 1358.36   78.72
  -2  -2   7 1480.51   81.05
  -2   2   6  219.78   10.77
  -2   2   6  156.32   11.00
  -2   2   6  204.72   12.15
   2   2  -6  202.76   13.50
  -2   2   6  156.43    7.83
   2  -2  -6  193.51   35.81
   2  -2  -6  176.44   10.83
  -2  -2   6  198.98   16.09
   2  -2  -6  190.83    9.87
   2  -2  -6  152.38    8.64
  -2  -2   6  196.65   10.90
   2   2  -5   86.28    7.05
   2   2  -5   85.36   12.85
   2   2  -5   69.31    3.56
   2   2  -5   88.49    7.12
  -2   2   5   93.46    9.41
  -2   2   5   85.21    7.16
   2  -2  -5   85.29    5.62
   2  -2  -5   84.68   22.83
   2  -2  -5   74.40    7.19
  -2  -2   5   79.95    6.88
   2  -2  -5   70.74    6.18
  -2  -2   5   74.18    3.95
  -2  -2   5   89.24    6.61
  -2  -2   5   89.18    6.75
   2   2  -4  544.84   23.96
   2   2  -4  488.80   17.57
  -2   2   4  541.46   22.25
   2   2  -4  520.53   25.15
  -2   2   4  532.49   22.90
   2   2  -4  528.82   23.71
  -2   2   4  537.93   23.63
   2  -2  -4  533.02   22.76
   2  -2  -4  545.24   22.83
   2  -2  -4  533.16   30.35
  -2  -2   4  558.28   23.64
  -2  -2   4  523.89   23.28
   2  -2  -4  540.98   24.53
  -2  -2   4  513.68   18.78
  -2  -2   4  545.25   23.90
   2   2  -3 2878.23  172.07
   2   2  -3 2883.59  169.04
   2   2  -3 2938.30  178.73
  -2   2   3 2983.59  178.89
  -2   2   3 3043.32  182.40
   2   2  -3 3213.06  191.65
  -2   2   3 3119.41  187.64
   2  -2  -3 2830.36  176.95
   2  -2  -3 3048.78  194.46
  -2  -2   3 2942.61  171.57
   2  -2  -3 2695.48  162.32
  -2  -2   3 2924.11  164.08
  -2  -2   3 3109.41  187.26
   2  -2  -3 3095.76  180.00
  -2  -2   3 3156.33  187.24
   2   2  -2  626.87   25.85
   2   2  -2  691.39   27.09
   2   2  -2  656.40   26.92
  -2   2   2  692.77   29.39
  -2   2   2  630.35   27.61
   2   2  -2  662.99   27.85
  -2   2   2  665.30   26.74
   2  -2  -2  648.39   26.49
   2  -2  -2  629.99   25.14
   2  -2  -2  631.96   27.05
  -2  -2   2  657.87   28.46
  -2  -2   2  642.82   24.02
  -2  -2   2  661.43   23.00
   2  -2  -2  691.87   26.47
  -2  -2   2  649.28   27.27
  -2  -2   2  653.12   27.39
  -2   2   1  345.18   12.23
   2   2  -1  344.12   14.32
   2   2  -1  326.15   13.70
  -2   2   1  339.99   12.61
   2   2  -1  341.05   15.16
  -2   2   1  329.95   14.53
   2   2  -1  342.03   14.53
  -2   2   1  364.66   16.17
   2  -2  -1  335.66   13.53
  -2  -2   1  347.20   15.12
  -2  -2   1  340.41   16.51
  -2  -2   1  345.02   11.30
  -2  -2   1  341.24   11.36
   2  -2  -1  354.40   13.22
  -2  -2   1  334.94   14.04
   2  -2  -1  363.97   21.29
  -2   2   0  455.62   17.81
   2   2   0  480.54   20.79
   2   2   0  461.55   18.73
   2   2   0  466.79   15.00
  -2   2   0  473.82   21.01
  -2   2   0  472.44   19.37
  -2   2   0  475.93   15.82
  -2   2   0  477.79   16.14
   2  -2   0  479.77   21.83
  -2  -2   0  450.04   15.72
   2  -2   0  463.54   17.29
  -2  -2   0  460.92   23.36
  -2  -2   0  468.68   20.56
  -2  -2   0  471.63   16.33
  -2  -2   0  476.11   18.23
   2   2   1  948.55   32.44
   2   2   1 1072.38   49.21
   2   2   1 1029.95   45.92
  -2   2  -1 1061.58   50.06
  -2   2  -1 1020.94   38.17
  -2   2  -1 1048.19   38.99
   2   2   1 1106.57   45.16
  -2   2  -1 1048.64   44.85
  -2   2  -1 1014.28   43.90
  -2  -2  -1 1083.60   54.98
   2  -2   1 1037.88   41.81
  -2  -2  -1 1075.01   48.35
  -2  -2  -1 1064.76   43.75
   2  -2   1 1064.32   47.22
   2  -2   1 1053.26   49.22
  -2  -2  -1 1067.93   44.51
  -2   2  -2 4752.82  311.36
   2   2   2 4764.65  341.40
   2   2   2 4563.36  327.33
  -2   2  -2 4887.99  352.72
   2   2   2 4693.73  328.36
   2   2   2 4966.63  340.15
  -2   2  -2 4616.64  323.66
  -2   2  -2 4556.81  298.18
  -2   2  -2 4645.04  328.92
   2  -2   2 4580.78  312.71
   2  -2   2 4812.15  345.48
  -2  -2  -2 4818.90  342.67
  -2  -2  -2 4700.69  347.60
   2  -2   2 4163.33  276.90
  -2  -2  -2 5067.48  376.16
   2  -2   2 4971.49  354.28
   2   2   3 1021.26   41.64
  -2   2  -3  865.03   30.73
   2   2   3  988.71   50.30
   2   2   3 1038.00   44.95
  -2   2  -3 1016.90   45.31
  -2   2  -3  990.24   46.24
   2   2   3  998.94   40.57
  -2   2  -3  876.75   31.29
  -2  -2  -3 1002.01   45.72
   2  -2   3 1027.02   47.72
   2  -2   3 1007.72   46.09
   2  -2   3  820.54   33.32
  -2  -2  -3  974.53   43.97
   2   2   4 1288.85   62.19
   2   2   4 1235.09   55.37
   2   2   4 1149.15   58.02
   2   2   4 1207.92   57.91
  -2   2  -4 1213.02   59.92
  -2   2  -4 1219.99   67.78
   2  -2   4 1040.97   47.22
  -2  -2  -4 1213.16   59.59
  -2  -2  -4 1269.52   63.06
   2  -2   4 1286.53   65.31
   2  -2   4 1299.03   62.73
   2   2   5   23.95    3.66
   2   2   5   23.81    3.06
   2   2   5   23.07    4.97
   2   2   5   28.02    4.62
  -2   2  -5   24.19    5.17
  -2   2  -5   27.53    5.28
   2  -2   5   19.14    2.73
  -2  -2  -5   20.24    7.49
  -2  -2  -5   24.53    5.52
   2  -2   5   25.11    6.08
   2  -2   5   26.62    4.70
   2   2   6  992.99   47.13
  -2   2  -6 1053.75   52.09
   2   2   6  798.02   40.74
  -2   2  -6  993.47   50.52
  -2  -2  -6  995.88   53.75
  -2  -2  -6 1038.17   52.04
   2  -2   6  730.13   40.97
  -2   2  -7  923.20   51.55
  -2   2  -7 1016.17   53.51
  -2  -2  -7  973.84   53.47
  -2  -2  -7  910.57   54.55
  -2   2  -8  608.82   35.38
  -2   2  -8  627.78   33.88
  -2  -2  -8  607.67   36.21
  -2  -2  -8  621.57   38.41
  -2   2  -9   38.14    5.70
  -2   2  -9   35.18    7.80
   2  -2   9   24.86    8.38
  -2  -2  -9   37.54    8.24
  -2  -2  -9   40.52    8.03
  -2   2 -10   34.44   10.25
  -2  -2 -10   34.81    7.37
   2  -2  10   16.43    5.02
   2   2  11    4.17   11.75
  -2   2 -11    9.69    4.36
  -2  -2 -11    6.44    5.14
   2  -2  11    2.75    2.95
   2   2  12    4.26    4.93
  -2   2 -12    0.36    2.85
  -2  -2 -12    2.77    3.30
   2   3 -11   81.99    8.26
  -2   3  11   69.87    7.15
  -2  -3  11   76.97   11.49
   2   3 -10   78.17   10.13
  -2   3  10   72.36    8.51
  -2  -3  10   77.76    9.02
  -2  -3  10   68.24    7.36
   2   3  -9  320.57   22.07
  -2   3   9  313.28   19.90
  -2  -3   9  362.66   21.80
  -2  -3   9  318.57   19.97
  -2   3   8   28.27    5.51
   2   3  -8   36.20    7.91
  -2   3   8   37.78    7.21
  -2  -3   8   44.44    7.11
   2  -3  -8   25.70    6.16
  -2  -3   8   39.72    6.66
  -2   3   7   35.80    5.99
   2   3  -7   37.68   11.97
  -2   3   7   33.12    7.09
  -2  -3   7   42.33    6.75
   2  -3  -7   35.06    5.88
  -2  -3   7   30.03    6.10
  -2   3   6  287.21   16.25
   2   3  -6  233.82   15.88
  -2   3   6  249.69   16.14
  -2  -3   6  275.90   15.82
   2  -3  -6  261.58   14.64
  -2  -3   6  251.05   14.63
  -2   3   5    1.93    2.34
   2   3  -5    2.63    4.30
  -2   3   5    1.01    6.61
  -2   3   5    3.72    3.76
   2  -3  -5    1.21    2.43
   2  -3  -5    4.73    3.70
  -2  -3   5    5.75    4.03
  -2  -3   5    3.71    4.11
  -2   3   4  495.63   23.69
   2   3  -4  496.35   24.10
  -2   3   4  441.46   19.66
   2   3  -4  522.10   23.76
  -2   3   4  496.19   23.39
   2  -3  -4  516.52   23.10
   2  -3  -4  443.07   20.77
  -2  -3   4  491.13   27.58
  -2  -3   4  443.32   17.35
  -2  -3   4  468.81   19.22
  -2  -3   4  491.28   22.90
   2   3  -3  541.20   23.78
   2   3  -3  504.85   52.40
   2   3  -3  555.08   25.19
  -2   3   3  570.40   26.50
   2   3  -3  586.36   27.25
  -2   3   3  587.80   25.54
  -2   3   3  595.31   26.44
  -2   3   3  573.73   25.07
   2  -3  -3  558.03   48.10
   2  -3  -3  589.24   25.51
  -2  -3   3  576.08   25.51
   2  -3  -3  568.86   25.64
  -2  -3   3  541.30   21.61
  -2  -3   3  559.40   25.61
  -2  -3   3  542.42   23.06
   2   3  -2  345.34   21.21
   2   3  -2  363.44   18.89
   2   3  -2  367.17   18.19
   2   3  -2  341.78   17.75
  -2   3   2  371.90   18.47
   2   3  -2  394.78   18.30
  -2   3   2  372.93   17.74
  -2   3   2  393.43   16.75
  -2   3   2  387.15   17.44
   2  -3  -2  351.91   26.71
   2  -3  -2  365.55   16.46
  -2  -3   2  373.15   16.67
  -2  -3   2  362.19   13.62
  -2  -3   2  364.74   14.17
   2  -3  -2  399.33   17.03
  -2  -3   2  382.56   21.49
   2   3  -1 1700.50   88.76
   2   3  -1 1902.61  105.88
   2   3  -1 1945.44  104.49
   2   3  -1 2107.16  110.61
  -2   3   1 1929.89  106.46
  -2   3   1 1833.35   98.86
  -2   3   1 1876.51   97.40
  -2   3   1 1873.49   97.96
   2  -3  -1 1839.96  102.49
  -2  -3   1 1822.30   93.69
   2  -3  -1 1994.61  102.95
   2  -3  -1 1898.56  104.86
  -2  -3   1 1943.34  101.02
  -2  -3   1 1953.47  103.69
  -2  -3   1 1955.50  102.93
   2   3   0  252.92   12.60
   2   3   0  239.20   14.03
   2   3   0  248.77   11.58
   2   3   0  301.33   14.34
  -2   3   0  246.26    9.45
  -2   3   0  249.84   11.62
  -2   3   0  229.79    9.29
  -2   3   0  237.27   12.64
   2  -3   0  243.52   11.98
   2  -3   0  246.92   12.25
   2  -3   0  247.49   11.39
  -2  -3   0  231.25    9.99
  -2  -3   0  242.15   12.48
  -2  -3   0  258.22   11.72
   2   3   1 1294.84   63.52
  -2   3  -1 1317.82   67.52
   2   3   1 1287.91   65.38
   2   3   1 1279.08   64.15
  -2   3  -1 1258.10   60.85
   2   3   1 1299.85   60.42
  -2   3  -1 1243.41   55.69
  -2   3  -1 1189.91   53.55
  -2   3  -1 1318.61   63.36
  -2  -3  -1 1296.67   65.34
   2  -3   1 1278.08   64.60
   2  -3   1 1212.77   56.10
  -2  -3  -1 1323.70   63.60
  -2  -3  -1 1293.28   61.73
   2   3   2  117.56    6.64
   2   3   2  114.79   14.39
   2   3   2  113.84    8.67
   2   3   2  103.47    6.01
  -2   3  -2  112.77    7.50
  -2   3  -2   94.81    4.13
  -2   3  -2   91.76    5.37
  -2   3  -2  112.62    9.08
  -2   3  -2  102.52    4.28
   2  -3   2   88.27    4.35
  -2  -3  -2  101.15    6.05
   2  -3   2  109.25    8.46
  -2  -3  -2   97.43    6.60
  -2  -3  -2  106.53    7.14
   2   3   3  649.78   39.27
   2   3   3  628.18   29.15
  -2   3  -3  614.02   29.24
  -2   3  -3  629.64   32.52
   2   3   3  650.99   28.26
   2  -3   3  670.30   32.89
  -2  -3  -3  672.81   31.92
  -2  -3  -3  629.88   29.08
  -2  -3  -3  640.90   29.45
   2  -3   3  692.57   33.42
   2   3   4  550.38   55.29
   2   3   4  599.23   26.51
  -2   3  -4  560.85   33.96
  -2   3  -4  569.19   30.15
  -2  -3  -4  556.52   27.02
  -2  -3  -4  574.81   29.72
   2   3   5  465.92   37.27
   2   3   5  414.13   19.91
  -2   3  -5  403.33   22.41
  -2   3  -5  424.79   23.56
  -2  -3  -5  425.33   21.82
  -2  -3  -5  395.19   22.97
   2   3   6  184.66   16.27
   2   3   6  144.04    8.96
  -2   3  -6  161.39   12.21
  -2   3  -6  164.50   12.58
  -2  -3  -6  147.94   10.84
  -2  -3  -6  148.09   18.10
   2   3   7    9.18    8.86
   2   3   7    8.24    3.47
  -2   3  -7   16.69    5.93
  -2   3  -7   18.17    6.57
  -2  -3  -7   15.98    8.12
  -2  -3  -7   18.39    6.76
  -2   3  -8  215.28   15.44
  -2   3  -8  248.38   16.86
  -2  -3  -8  194.94   15.65
  -2  -3  -8  218.12   17.82
  -2   3  -9  106.76   14.16
  -2   3  -9  123.04   10.14
  -2  -3  -9   83.59    9.97
  -2  -3  -9  107.51   16.58
   2   3  10   85.42   20.16
  -2   3 -10  120.96    9.05
  -2   3 -10  130.22   10.50
  -2  -3 -10  127.94   11.78
  -2   3 -11  112.05   11.36
  -2  -3 -11  125.92    9.62
   2   4 -10   -1.00    2.31
   2   4 -10   -0.24    4.17
  -2   4  10    1.83    3.71
  -2  -4  10   -0.12    2.05
   2  -4 -10   -0.80    2.05
   2   4  -9  100.93   14.33
  -2   4   9   78.60    8.54
  -2  -4   9   49.17    6.29
  -2  -4   9   67.99    7.03
  -2   4   8   72.15    8.33
   2   4  -8   84.95   10.41
  -2   4   8   81.74    9.51
  -2  -4   8   62.61    7.07
   2  -4  -8   65.78    8.43
  -2  -4   8   82.58    8.40
  -2   4   7  289.68   18.41
   2   4  -7  261.37   18.07
  -2   4   7  257.40   17.32
  -2  -4   7  213.52   14.44
   2  -4  -7  253.28   17.67
  -2  -4   7  276.18   17.42
  -2   4   6  662.28   36.35
   2   4  -6  727.95   41.58
  -2   4   6  621.87   36.21
  -2  -4   6  541.96   34.83
   2  -4  -6  682.69   37.92
  -2  -4   6  579.09   31.87
  -2   4   5  243.98   20.82
   2   4  -5  264.05   16.78
  -2   4   5  240.24   15.47
  -2  -4   5  214.22   12.66
   2  -4  -5  259.35   16.03
  -2  -4   5  236.30   14.83
  -2   4   4   72.91    8.26
   2   4  -4   68.54    7.74
  -2   4   4   68.43    7.63
  -2  -4   4   67.21    5.92
   2  -4  -4   77.96    7.73
  -2  -4   4   73.94    7.34
  -2   4   3   78.13    6.31
   2   4  -3   98.51    7.59
  -2   4   3  101.46    8.93
  -2   4   3  111.11    8.56
  -2  -4   3   95.97    6.81
   2  -4  -3  111.63    8.43
  -2  -4   3  104.33    6.18
   2   4  -2  405.55   52.20
  -2   4   2  423.04   20.93
   2   4  -2  432.74   21.20
  -2   4   2  411.57   21.05
  -2   4   2  423.79   21.18
  -2  -4   2  415.56   22.05
   2  -4  -2  433.91   26.33
  -2  -4   2  420.67   18.43
   2   4  -1  144.16   40.32
  -2   4   1  127.82    9.08
   2   4  -1  129.63    9.28
  -2   4   1  136.43    9.41
  -2   4   1  130.78    7.82
  -2  -4   1  124.97    7.20
   2  -4  -1  135.28    9.88
  -2  -4   1  121.32    7.28
   2   4   0  -13.69   22.84
   2   4   0   -0.21    2.31
  -2   4   0    2.44    3.91
   2   4   0    1.71    3.46
  -2   4   0   -2.94    5.09
  -2   4   0    0.51    2.51
  -2  -4   0   -0.70    2.39
   2  -4   0    0.97    3.79
  -2  -4   0   -1.05    2.85
   2   4   1 1087.34  129.94
  -2   4  -1 1147.89   60.14
   2   4   1 1113.07   53.71
  -2   4  -1  961.91   50.56
  -2   4  -1  935.70   45.71
  -2  -4  -1  896.57   47.40
   2  -4   1 1092.06   53.43
  -2  -4  -1 1089.86   54.71
   2   4   2   33.39   33.09
  -2   4  -2   29.17    6.17
   2   4   2   31.88    7.35
   2  -4   2   27.81    5.40
  -2  -4  -2   28.53    5.17
  -2  -4  -2   16.61    3.61
   2   4   3   36.52   33.78
   2   4   3   24.47    5.14
  -2   4  -3   29.69    6.76
  -2   4  -3   28.20    6.02
  -2  -4  -3   22.27    5.73
   2   4   4  323.31   96.54
   2   4   4  337.76   18.16
  -2   4  -4  323.63   21.64
  -2   4  -4  322.54   18.93
  -2  -4  -4  325.48   20.97
   2   4   5  403.48   46.43
   2   4   5  381.63   21.11
  -2   4  -5  391.47   25.40
  -2   4  -5  391.61   22.44
  -2  -4  -5  412.34   26.23
   2   4   6  189.09   36.22
   2   4   6  137.89   10.27
  -2   4  -6  146.47   13.15
  -2   4  -6  130.28   11.22
  -2  -4  -6  122.47   12.42
   2   4   7  170.43   13.19
   2   4   7  129.17   10.46
  -2   4  -7  179.19   13.76
  -2   4  -7  155.51   12.29
  -2  -4  -7  155.83   14.27
   2   4   8  382.33   22.81
  -2   4  -8  536.00   28.51
  -2   4  -8  474.00   26.26
  -2  -4  -8  463.15   29.35
  -2   4  -9   24.21    9.34
  -2   4  -9   18.87    5.07
  -2  -4  -9   19.50    8.87
  -2   4 -10  199.45   10.62
  -2  -4 -10  175.91   16.26
   2   5  -9    5.98    3.30
   2   5  -9   -0.76    1.41
  -2   5   9    1.72    4.84
   2   5  -8   32.96    4.30
   2   5  -8   41.27    6.59
  -2   5   8   31.02    5.33
  -2   5   8   29.24    5.59
   2  -5  -8   21.49    5.15
   2   5  -7    9.50    6.60
   2   5  -7   -3.92    8.25
  -2   5   7    9.31    4.81
  -2   5   7   10.14    4.95
   2  -5  -7    3.29    4.98
   2   5  -6  164.49   11.55
   2   5  -6  147.84   12.00
  -2   5   6  159.75   12.92
  -2   5   6  163.71   13.04
   2  -5  -6  157.97   12.96
   2   5  -5  208.84   18.18
   2   5  -5  200.82   14.16
  -2   5   5  215.95   15.21
  -2   5   5  249.76   16.39
   2  -5  -5  260.37   22.15
   2   5  -4  157.40   10.97
   2   5  -4  125.27   10.32
  -2   5   4  164.02   12.65
  -2   5   4  167.26   13.31
   2  -5  -4  195.27   14.07
  -2   5   3   67.61    8.62
   2   5  -3   59.92    7.60
  -2   5   3   66.54    7.97
   2  -5  -3   65.09    7.60
  -2   5   2  154.31   12.07
   2   5  -2  137.90   10.53
  -2   5   2  139.42   10.18
  -2  -5   2  124.78    8.42
   2  -5  -2  143.59   10.70
   2   5  -1  153.20   25.67
  -2   5   1  156.57   10.48
   2   5  -1  169.47   11.86
  -2   5   1  167.44   12.28
  -2   5   1  136.09   10.19
  -2  -5   1  150.68    9.77
   2  -5  -1  166.83   11.84
   2   5   0  817.10   78.14
  -2   5   0  673.29   41.31
   2   5   0  841.35   42.25
  -2   5   0  669.51   41.45
  -2   5   0  773.42   42.74
  -2  -5   0  781.21   40.89
   2  -5   0  843.53   43.37
   2   5   1  423.24   61.63
   2   5   1  401.08   21.89
  -2   5  -1  419.33   24.27
   2  -5   1  407.28   29.31
  -2  -5  -1  399.10   22.53
   2   5   2   52.66   30.95
   2   5   2   67.94    7.41
  -2   5  -2   59.39    8.82
   2  -5   2   61.97    8.08
  -2  -5  -2   58.99    7.96
   2   5   3   60.62   32.99
   2   5   3   54.97    7.13
  -2   5  -3   62.86    9.31
   2  -5   3   54.72    7.80
  -2  -5  -3   55.76    8.25
   2   5   4   25.07    9.91
   2   5   4   36.06    6.96
  -2   5  -4   35.61    7.52
   2  -5   4   34.58    6.68
  -2  -5  -4   30.41    7.35
   2   5   5   90.39   12.56
   2   5   5   92.13   12.69
  -2   5  -5   84.46    9.87
   2  -5   5   80.68    8.78
  -2  -5  -5   84.57   10.62
   2   5   6  195.10   12.21
   2   5   6  149.98   15.52
  -2   5  -6  185.35   13.68
   2  -5   6  166.43   12.04
  -2  -5  -6  158.43   13.45
   2   5   7   74.59    7.13
   2   5   7   48.15    8.26
  -2   5  -7   74.55    8.16
   2  -5   7   68.59    6.75
  -2  -5  -7   52.61    7.94
   2   5   8    9.79    2.54
  -2   5  -8    9.15    4.51
  -2  -5  -8    4.62    4.33
   2  -5   8   12.09    5.76
  -2   6   6  152.63   10.00
   2   6  -6  155.48    8.24
  -2   6   6  131.33    8.61
   2  -6  -6  142.68   10.06
  -2   6   5   77.19    7.74
   2   6  -5   63.79    5.74
  -2   6   5   68.76   11.22
   2  -6  -5   86.82    7.98
  -2   6   4   36.32    6.52
   2   6  -4   35.53    5.30
  -2   6   4   33.47    6.05
   2  -6  -4   40.11    6.03
  -2   6   3  258.88   17.08
   2   6  -3  298.71   15.69
  -2   6   3  259.11   21.35
   2  -6  -3  313.33   17.38
  -2   6   2  118.32   10.53
   2   6  -2  126.80    9.35
  -2   6   2   98.96    8.51
   2  -6  -2  127.55   10.11
  -2   6   1   56.71    7.31
   2   6  -1   84.15    7.83
  -2   6   1   54.06    6.16
  -2  -6   1   63.38    6.10
   2  -6  -1   90.36    8.36
   2   6   0    4.48    3.81
  -2   6   0    2.01    3.33
   2   6   0    9.16    4.62
  -2   6   0    4.41    2.90
  -2  -6   0    6.91    3.72
   2  -6   0    7.14    5.08
   2   6   1  115.62    9.29
   2   6   1  123.63    9.42
  -2   6  -1   82.16    7.78
   2  -6   1  122.68    9.56
  -2  -6  -1  105.13    8.97
   2   6   2   94.82    8.51
   2   6   2  108.81    8.74
  -2   6  -2   91.62    8.32
   2  -6   2  109.05    9.44
  -2  -6  -2   97.81    8.79
   2   6   3   63.68    7.35
   2   6   3   60.01    6.76
  -2   6  -3   56.48    7.30
   2  -6   3   67.60    7.61
  -2  -6  -3   51.35    7.41
   2   6   4   31.61    5.83
   2   6   4   39.42    5.98
  -2   6  -4   35.41    6.36
   2  -6   4   34.07    5.99
  -2  -6  -4   29.49    5.98
   2   6   5    5.48    3.93
   2   6   5    6.02    5.97
  -2   6  -5    4.70    3.92
   2  -6   5    2.83    3.89
  -2  -6  -5    8.28    4.24
   2   6   6   69.78    5.23
   2   6   6   57.86    6.02
  -2   6  -6   61.51    5.67
   2  -6   6   69.76    5.27
  -2  -6  -6   52.34    5.73
   3   0 -12    2.61    2.18
  -3   0  12    1.10    4.65
  -3   0  12    2.96    3.70
   3   0 -11   19.78    5.53
  -3   0  11   36.22    6.76
  -3   0  11   35.91    6.38
   3   0 -10   82.92   11.49
  -3   0  10  107.34   10.33
  -3   0  10   96.95    9.90
   3   0  -9   34.73   13.98
  -3   0   9   33.88    6.71
  -3   0   9   32.78    6.68
   3   0  -8   15.99   15.96
  -3   0   8   30.77    6.34
  -3   0   8   31.92    6.50
   3   0  -7  125.20   23.84
  -3   0   7  127.30    9.20
  -3   0   7  123.78    9.54
   3   0  -6  185.04   13.39
   3   0  -6  203.48   12.30
   3   0  -6  198.48   11.38
  -3   0   6  156.29    7.69
  -3   0   6  200.71   11.12
  -3   0   6  206.41   10.62
  -3   0   6  178.72   10.73
   3   0  -5  303.69   12.18
   3   0  -5  319.98   15.53
   3   0  -5  314.80   16.89
   3   0  -5  330.06   15.26
  -3   0   5  318.09   13.45
  -3   0   5  317.09   18.91
  -3   0   5  337.34   15.26
  -3   0   5  316.09   19.20
   3   0  -4    3.64    2.38
   3   0  -4    6.85    3.31
   3   0  -4    3.22    4.27
   3   0  -4    4.85    3.18
  -3   0   4    3.05    4.73
  -3   0   4    4.90    3.28
  -3   0   4    1.44    3.55
  -3   0   4    6.93    5.02
   3   0  -3   87.86    5.38
   3   0  -3  102.48    5.84
   3   0  -3   95.58    7.74
   3   0  -3   97.04    5.94
  -3   0   3  100.67    9.85
  -3   0   3   99.28    6.65
  -3   0   3   92.81    5.74
   3   0  -2 1540.94   75.51
   3   0  -2 1663.20   76.11
   3   0  -2 1591.03   72.94
  -3   0   2 1549.59   76.89
  -3   0   2 1573.68   75.41
  -3   0   2 1569.13   76.33
  -3   0   2 1533.49   70.11
   3   0  -1 4558.26  316.99
   3   0  -1 4588.84  308.82
   3   0  -1 4464.90  309.25
   3   0  -1 4515.09  297.65
  -3   0   1 4675.56  325.51
  -3   0   1 4677.39  319.98
  -3   0   1 4386.91  302.07
  -3   0   1 4552.61  298.37
   3   0   0  701.91   29.99
   3   0   0  668.14   26.17
   3   0   0  673.26   21.47
   3   0   0  698.31   26.50
   3   0   0  661.27   21.84
  -3   0   0  686.37   36.97
  -3   0   0  692.76   28.45
  -3   0   0  636.08   19.87
  -3   0   0  685.88   27.26
  -3   0   0  655.38   20.38
   3   0   1 1346.88   62.47
   3   0   1 1359.24   61.38
   3   0   1 1360.06   55.32
   3   0   1 1316.71   57.92
  -3   0  -1 1323.38   62.57
  -3   0  -1 1300.33   60.15
  -3   0  -1 1320.15   55.79
  -3   0  -1 1359.41   60.58
   3   0   2   11.91    2.61
   3   0   2   11.43    3.38
   3   0   2    7.74    2.03
   3   0   2   12.45    2.17
  -3   0  -2   12.46    3.63
  -3   0  -2   12.15    3.56
  -3   0  -2   10.26    2.61
  -3   0  -2    9.25    3.60
   3   0   3    1.29    2.00
   3   0   3   -1.75    3.14
   3   0   3   -0.73    2.41
   3   0   3    0.85    2.24
  -3   0  -3    2.01    2.58
  -3   0  -3    5.76    3.27
  -3   0  -3    2.00    2.63
  -3   0  -3    2.50    1.72
   3   0   4   51.31    3.62
   3   0   4   53.08    5.69
   3   0   4   58.73    5.15
   3   0   4   45.70    2.37
  -3   0  -4   49.07    3.80
  -3   0  -4   48.15    5.36
  -3   0  -4   52.11    5.28
  -3   0  -4   42.79    3.92
   3   0   5  194.96   11.88
   3   0   5  195.29   14.18
  -3   0  -5  190.75   11.01
  -3   0  -5  183.16   11.35
  -3   0  -6   -1.18    4.33
  -3   0  -6   -0.80    3.95
  -3   0  -7  332.32   22.73
  -3   0  -7  337.13   20.04
  -3   0  -8  112.09   14.59
  -3   0  -8  105.17   10.81
  -3   0  -9   32.18   12.87
  -3   0  -9   38.29    7.87
   3   0  10  342.76   33.91
  -3   0 -10  402.39   25.28
   3   0  11    9.10    7.07
  -3   0 -11    6.92    5.02
   3   0  12   40.82    5.12
  -3   0 -12   45.53    5.67
   3   1 -12   88.00    7.69
  -3   1  12   98.12    8.04
  -3   1  12   69.88    6.96
  -3  -1  12  119.99    9.33
  -3  -1  12  105.81   12.32
   3   1 -11   40.62    7.82
  -3   1  11   59.73    7.27
  -3   1  11   36.99    6.10
  -3  -1  11   60.07    7.97
  -3  -1  11   51.96    6.96
  -3   1  10  115.45   10.07
   3   1 -10  146.55   20.21
  -3   1  10  140.68   12.24
  -3  -1  10  143.09   11.80
   3  -1 -10   71.72   17.56
  -3  -1  10  130.98   11.18
  -3   1   9   51.57    6.65
   3   1  -9   56.59   10.95
  -3   1   9   60.35    8.50
  -3  -1   9   58.68    8.92
   3  -1  -9   57.88   23.34
  -3  -1   9   63.06    8.05
  -3   1   8  148.47   10.13
   3   1  -8  165.07   22.21
  -3   1   8  173.68   12.55
  -3  -1   8  165.95   12.54
   3  -1  -8  158.36   23.70
  -3  -1   8  161.76   17.19
  -3   1   7  413.64   20.33
   3   1  -7  450.47   48.01
  -3   1   7  439.48   23.55
  -3  -1   7  428.81   23.10
   3  -1  -7  444.99   33.05
  -3  -1   7  426.12   22.47
  -3   1   6  229.86   11.18
  -3   1   6  252.76   13.25
   3   1  -6  250.27   18.13
  -3   1   6  250.15   13.35
  -3   1   6  237.99   11.96
   3  -1  -6  255.19   14.41
  -3  -1   6  252.00   14.06
   3  -1  -6  220.13   16.07
   3  -1  -6  259.98   14.12
  -3  -1   6  237.87   13.31
   3   1  -5  435.80   28.47
  -3   1   5  444.00   17.47
   3   1  -5  440.58   21.66
  -3   1   5  419.47   19.11
   3   1  -5  450.18   20.92
  -3   1   5  447.90   19.86
  -3   1   5  408.02   16.87
   3  -1  -5  425.32   24.19
  -3  -1   5  371.41   15.49
   3  -1  -5  409.32   18.55
  -3  -1   5  442.11   21.13
   3  -1  -5  440.19   19.07
  -3  -1   5  465.55   21.48
   3  -1  -5  409.17   19.89
  -3  -1   5  423.69   19.84
  -3   1   4  120.26    5.32
   3   1  -4  118.63    7.22
   3   1  -4  121.02    7.94
  -3   1   4  125.32    7.06
  -3   1   4  111.65    5.46
   3   1  -4  114.40    7.73
  -3   1   4  111.77    7.46
  -3   1   4  124.71    8.11
  -3  -1   4  113.36    8.05
   3  -1  -4  107.69    6.48
   3  -1  -4  115.91    6.61
  -3  -1   4  126.03    8.84
  -3  -1   4  110.46    5.85
   3  -1  -4  109.39    8.14
  -3  -1   4  111.99    7.23
   3   1  -3  812.73   35.22
   3   1  -3  827.46   34.49
   3   1  -3  764.99   37.84
  -3   1   3  797.37   36.32
  -3   1   3  789.87   30.90
   3   1  -3  831.86   35.30
  -3   1   3  807.44   36.57
  -3   1   3  808.99   37.23
  -3   1   3  796.65   30.01
   3  -1  -3  779.46   36.54
   3  -1  -3  798.77   34.57
   3  -1  -3  810.08   32.75
  -3  -1   3  822.65   37.50
   3  -1  -3  744.51   25.67
  -3  -1   3  764.36   33.33
  -3  -1   3  761.13   32.51
   3   1  -2 3537.54  218.44
   3   1  -2 3308.22  215.58
   3   1  -2 3471.01  212.89
  -3   1   2 3341.59  208.68
  -3   1   2 3287.72  194.26
   3   1  -2 3607.46  219.94
  -3   1   2 3439.07  218.85
  -3   1   2 3444.33  218.36
   3  -1  -2 3473.32  222.73
  -3  -1   2 3301.37  208.32
   3  -1  -2 3411.76  213.35
   3  -1  -2 3261.90  196.44
  -3  -1   2 3368.83  213.25
   3  -1  -2 3265.15  181.42
  -3  -1   2 3435.81  209.46
  -3   1   1 2665.19  154.61
   3   1  -1 2604.03  151.03
  -3   1   1 2760.24  159.61
   3   1  -1 2643.02  149.91
   3   1  -1 2669.26  150.10
  -3   1   1 2531.21  134.35
  -3   1   1 2594.19  137.04
   3   1  -1 2727.13  146.97
   3  -1  -1 2702.97  138.28
   3  -1  -1 2659.58  156.00
   3  -1  -1 2593.28  147.16
  -3  -1   1 2670.32  153.27
  -3  -1   1 2667.49  154.03
   3  -1  -1 2554.22  134.75
   3  -1  -1 2707.93  135.52
   3  -1  -1 2684.73  139.98
  -3  -1   1 2717.51  146.34
   3   1   0 1987.87   94.93
   3   1   0 2117.75  111.93
  -3   1   0 2049.39   97.38
   3   1   0 2077.35  107.95
  -3   1   0 2053.90   96.63
  -3   1   0 1836.49   85.50
  -3   1   0 2164.98  113.33
  -3   1   0 2118.86  110.74
   3   1   0 2211.61  104.08
   3  -1   0 2036.67  104.42
  -3  -1   0 2225.71  116.53
  -3  -1   0 2159.85  113.83
   3  -1   0 2048.06   94.61
  -3  -1   0 1825.17   87.71
   3  -1   0 2179.78  103.56
  -3  -1   0 1822.63   87.98
   3  -1   0 2098.48  111.28
   3  -1   0 1793.48   85.54
  -3  -1   0 2154.19  101.52
   3   1   1  974.06   34.85
   3   1   1  943.23   42.79
   3   1   1  994.91   44.96
   3   1   1  877.92   33.26
   3   1   1  959.37   35.37
  -3   1  -1  967.13   42.64
   3   1   1  860.46   30.97
   3   1   1  975.02   34.54
  -3   1  -1  931.27   38.58
  -3   1  -1  991.71   43.05
  -3   1  -1  979.63   38.64
   3  -1   1  941.26   39.93
   3  -1   1  940.54   36.11
  -3  -1  -1  953.82   44.10
   3  -1   1  908.92   37.25
  -3  -1  -1  889.56   37.94
  -3  -1  -1  993.55   44.78
   3  -1   1  994.35   43.76
  -3   1  -2   66.87    5.58
   3   1   2   62.78    5.58
   3   1   2   64.15    6.75
   3   1   2   62.19    3.07
   3   1   2   61.03    3.68
   3   1   2   61.95    2.92
  -3   1  -2   62.76    3.71
  -3   1  -2   66.91    4.69
  -3   1  -2   73.80    4.87
   3  -1   2   66.51    3.49
   3  -1   2   67.05    4.99
  -3  -1  -2   67.93    6.57
   3  -1   2   61.95    3.40
  -3  -1  -2   56.48    6.08
  -3  -1  -2   63.22    6.67
   3  -1   2   69.96    4.17
  -3   1  -3  910.47   39.37
   3   1   3  978.28   41.67
   3   1   3  929.25   45.24
  -3   1  -3  938.69   46.07
   3   1   3  911.21   39.19
  -3   1  -3  902.16   41.36
  -3   1  -3  994.62   44.63
   3  -1   3  939.35   42.65
   3  -1   3  941.77   40.26
  -3  -1  -3  961.65   51.19
  -3  -1  -3  949.29   50.16
  -3  -1  -3  927.15   42.26
   3  -1   3  860.46   35.38
   3  -1   3  895.56   37.99
   3   1   4  224.94   13.07
  -3   1  -4  211.79   10.05
   3   1   4  198.99    9.69
  -3   1  -4  196.32    9.92
  -3   1  -4  234.13   15.93
   3  -1   4  206.12    9.31
  -3  -1  -4  225.56   16.91
   3  -1   4  240.57   16.19
  -3  -1  -4  211.41   11.54
   3  -1   4  215.42    9.43
  -3  -1  -4  223.29   18.69
   3   1   5  162.89    6.87
  -3   1  -5  166.83    9.65
   3   1   5  170.29    9.59
  -3   1  -5  175.37   10.52
  -3   1  -5  169.44    8.59
  -3  -1  -5  177.53   11.30
   3  -1   5  173.91    9.00
  -3  -1  -5  176.03   11.44
   3  -1   5  190.82   11.32
   3  -1   5  178.21    8.16
  -3   1  -6  736.84   35.55
  -3   1  -6  825.05   43.79
  -3   1  -6  828.37   49.75
  -3  -1  -6  855.49   43.54
  -3  -1  -6  860.77   45.32
   3  -1   6  714.77   33.66
  -3   1  -7   36.17    8.53
  -3   1  -7   42.58    7.69
  -3  -1  -7   48.53    8.59
  -3  -1  -7   43.30    7.21
  -3   1  -8   46.76   11.43
  -3   1  -8   66.45    9.12
  -3  -1  -8   56.04   12.72
  -3  -1  -8   57.40    8.78
  -3   1  -9  237.68   17.44
   3  -1   9  194.44   17.75
  -3  -1  -9  223.73   17.37
  -3  -1  -9  242.21   25.04
  -3   1 -10    1.54    4.76
   3  -1  10   -4.68    5.37
  -3  -1 -10    6.22    5.08
  -3  -1 -10    3.72   10.81
   3   1  11   27.48   14.26
  -3   1 -11   20.97    5.59
  -3  -1 -11   21.12    8.93
   3  -1  11   10.95    8.63
   3   2 -12   24.92    5.10
  -3   2  12   17.97    4.32
  -3  -2  12   24.99    4.96
  -3  -2  12   15.96    3.94
   3   2 -11   34.76    6.76
  -3   2  11   38.57    6.57
  -3  -2  11   45.67    7.34
  -3  -2  11   34.58    6.43
   3   2 -10   37.91    8.05
  -3   2  10   37.59    7.49
  -3  -2  10   45.85    8.41
  -3  -2  10   41.36    9.98
   3   2  -9   97.50   11.18
  -3   2   9  100.44   10.55
  -3  -2   9  118.89   16.43
  -3  -2   9   99.24    9.85
   3   2  -8  535.13   35.51
  -3   2   8  507.66   29.76
  -3  -2   8  548.98   38.88
  -3  -2   8  551.11   30.02
  -3   2   7  460.03   24.39
   3   2  -7  523.62   30.92
  -3   2   7  497.61   26.60
  -3  -2   7  534.89   34.40
   3  -2  -7  417.00   27.87
  -3  -2   7  516.47   26.95
  -3   2   6   73.32    7.21
   3   2  -6   80.22   11.26
  -3   2   6   80.06    7.73
  -3  -2   6   79.88    8.62
   3  -2  -6   70.93    6.15
  -3  -2   6   69.21    7.67
   3   2  -5  331.07   19.83
  -3   2   5  325.48   16.78
  -3   2   5  376.07   19.01
  -3   2   5  359.16   18.05
   3  -2  -5  340.15   17.56
  -3  -2   5  343.23   18.56
  -3  -2   5  326.25   16.70
  -3   2   4  105.47   10.19
   3   2  -4  100.79    5.22
   3   2  -4  114.41    8.03
   3   2  -4  112.37    8.76
  -3   2   4  115.25    8.61
  -3   2   4  114.95    8.02
   3  -2  -4  106.49    8.01
   3  -2  -4  118.30    7.93
  -3  -2   4   93.73    6.04
   3  -2  -4  108.10    6.45
  -3  -2   4  124.10    8.88
  -3  -2   4  107.46    9.06
   3  -2  -4  105.55    5.03
  -3  -2   4  116.24    7.79
   3   2  -3  235.54   12.34
   3   2  -3  225.71    9.67
   3   2  -3  222.89   14.95
  -3   2   3  236.35   12.96
  -3   2   3  231.88   12.14
   3   2  -3  233.09   11.35
  -3   2   3  232.16   10.74
   3  -2  -3  228.13   12.34
   3  -2  -3  222.78   11.31
  -3  -2   3  234.30   10.48
   3  -2  -3  216.31    8.05
   3  -2  -3  216.76    9.48
  -3  -2   3  233.35   12.93
  -3  -2   3  230.55   14.65
   3   2  -2  267.35   13.14
   3   2  -2  277.61   12.17
   3   2  -2  255.16   13.84
  -3   2   2  273.58   14.00
  -3   2   2  297.22   14.46
   3   2  -2  269.52   12.19
  -3   2   2  257.91   10.82
   3  -2  -2  264.88   14.16
   3  -2  -2  259.69   12.33
  -3  -2   2  261.77   12.72
   3  -2  -2  269.99    9.63
   3  -2  -2  262.45   10.15
  -3  -2   2  269.68   19.02
  -3  -2   2  250.04   11.41
  -3   2   1  482.94   28.53
   3   2  -1  475.55   20.61
  -3   2   1  493.55   22.11
   3   2  -1  448.33   16.90
  -3   2   1  451.99   15.79
   3   2  -1  513.26   23.59
  -3   2   1  451.83   18.65
   3  -2  -1  476.55   16.97
   3  -2  -1  469.26   22.28
  -3  -2   1  459.02   30.68
   3  -2  -1  451.08   19.25
  -3  -2   1  432.33   14.19
  -3  -2   1  481.94   19.04
  -3  -2   1  466.16   21.70
  -3   2   0 1078.04   44.44
   3   2   0 1077.60   50.33
   3   2   0 1016.39   46.71
  -3   2   0  946.77   37.09
   3   2   0 1103.04   46.03
  -3   2   0 1067.11   48.38
  -3   2   0 1089.27   51.59
  -3   2   0  885.07   38.47
  -3  -2   0  910.01   38.79
  -3  -2   0  910.76   37.14
   3  -2   0  993.12   43.52
  -3  -2   0 1036.67   55.44
  -3  -2   0 1067.20   50.53
   3  -2   0 1119.18   52.97
  -3  -2   0 1049.56   43.77
  -3   2  -1 1148.03   51.17
   3   2   1 1197.49   58.57
   3   2   1 1148.51   55.25
   3   2   1 1214.08   50.95
  -3   2  -1 1217.11   56.37
  -3   2  -1 1174.78   57.61
   3  -2   1 1193.01   58.92
   3  -2   1 1190.38   52.82
  -3  -2  -1 1206.97   59.06
  -3  -2  -1 1075.28   48.36
   3  -2   1 1112.96   49.65
  -3  -2  -1 1052.21   45.49
  -3  -2  -1 1188.45   65.75
  -3   2  -2 1587.47   78.07
   3   2   2 1539.56   80.73
   3   2   2 1474.89   70.44
   3   2   2 1499.73   69.13
  -3   2  -2 1463.60   73.60
  -3   2  -2 1513.03   78.94
   3  -2   2 1527.30   79.61
   3  -2   2 1643.42   81.79
  -3  -2  -2 1553.63   81.13
  -3  -2  -2 1562.54  116.48
   3  -2   2 1411.88   67.38
  -3  -2  -2 1476.86   74.92
   3   2   3  279.64   14.82
   3   2   3  266.33   13.71
   3   2   3  241.67    9.06
  -3   2  -3  281.33   13.34
  -3   2  -3  283.72   14.67
   3  -2   3  297.11   14.77
  -3  -2  -3  280.94   14.80
  -3  -2  -3  279.66   26.39
   3  -2   3  274.99   14.18
  -3  -2  -3  261.93   12.89
   3   2   4 1406.28   67.88
   3   2   4 1312.75   66.79
  -3   2  -4 1384.43   73.35
  -3   2  -4 1294.08   67.74
   3  -2   4 1374.37   70.96
  -3  -2  -4 1266.09   70.11
  -3  -2  -4 1292.72   70.04
   3  -2   4 1397.01   74.78
   3   2   5  368.44   20.56
  -3   2  -5  349.93   18.48
  -3   2  -5  373.76   19.27
  -3  -2  -5  338.77   19.38
  -3  -2  -5  349.07   20.46
   3   2   6  314.53   20.68
  -3   2  -6  330.15   19.18
  -3   2  -6  342.81   18.31
  -3  -2  -6  344.45   20.20
  -3  -2  -6  326.07   20.65
  -3   2  -7   18.78    6.00
  -3   2  -7   16.43    4.72
  -3  -2  -7   22.37    7.41
  -3  -2  -7   13.58    6.75
  -3   2  -8   23.78    6.67
  -3  -2  -8   21.29    6.47
  -3  -2  -8   19.66    9.89
  -3   2  -9    0.90    8.33
  -3  -2  -9    4.36    5.19
  -3  -2  -9   -8.30   14.55
  -3   2 -10   66.01    7.95
  -3  -2 -10   55.61    8.44
  -3  -2 -10   59.22   14.75
   3   2  11   -5.96   10.04
  -3   2 -11    0.60    3.63
  -3  -2 -11    3.54    3.82
   3   3 -11   96.85    8.59
  -3   3  11   80.11    7.71
  -3  -3  11  111.93    8.73
  -3  -3  11   95.97   10.40
   3   3 -10   67.48    8.86
  -3   3  10   63.62    8.39
  -3  -3  10   81.46    9.21
  -3  -3  10   64.92    7.05
   3   3  -9  101.05   11.54
  -3   3   9  103.88   10.47
  -3  -3   9  130.09   11.68
  -3  -3   9  102.59    9.47
   3   3  -8   61.36   14.34
  -3   3   8   66.67    8.11
  -3  -3   8   70.52   14.19
  -3  -3   8   61.06    8.06
   3   3  -7  264.86   18.88
  -3   3   7  276.77   17.78
  -3   3   7  281.99   18.26
  -3  -3   7  302.26   25.45
  -3  -3   7  275.99   17.49
  -3   3   6    5.57    5.51
   3   3  -6    9.01    5.29
  -3   3   6    8.90    4.98
  -3  -3   6    3.50    5.57
   3  -3  -6    4.59    3.36
  -3  -3   6   10.01    4.87
  -3   3   5  181.46   12.09
   3   3  -5  174.73   12.11
  -3   3   5  172.04   16.92
  -3   3   5  167.41   10.10
  -3  -3   5  196.47   12.93
   3  -3  -5  153.98    9.01
  -3  -3   5  165.49   16.13
  -3   3   4  192.45   11.77
   3   3  -4  178.86   15.26
  -3   3   4  198.41   12.59
  -3   3   4  185.67   10.84
  -3  -3   4  199.03   12.71
   3  -3  -4  180.85    9.24
  -3  -3   4  191.74   11.98
   3   3  -3  254.77   24.50
   3   3  -3  285.16   14.98
  -3   3   3  264.33   16.93
   3   3  -3  260.09   13.20
  -3   3   3  280.40   16.16
  -3   3   3  281.43   12.95
  -3   3   3  298.38   15.57
  -3  -3   3  292.62   15.95
  -3  -3   3  286.83   14.49
   3  -3  -3  282.16   12.39
   3   3  -2  245.17   11.82
   3   3  -2  277.93   13.03
  -3   3   2  213.49   10.68
  -3   3   2  242.36   13.98
  -3   3   2  233.05   13.44
  -3   3   2  216.73    9.99
  -3  -3   2  266.31   18.80
   3  -3  -2  260.19   11.21
  -3  -3   2  260.29   15.97
  -3  -3   2  237.12   12.20
  -3   3   1  533.35   22.51
   3   3  -1  648.48   29.67
   3   3  -1  654.17   29.15
  -3   3   1  600.93   29.97
  -3   3   1  520.52   23.52
  -3   3   1  597.37   33.93
  -3  -3   1  658.97   37.61
  -3  -3   1  640.26   30.95
   3  -3  -1  637.47   26.81
   3  -3  -1  604.98   29.91
   3  -3  -1  571.55   26.93
  -3  -3   1  627.92   27.99
  -3   3   0 1070.80   54.22
   3   3   0 1057.16   53.64
   3   3   0 1125.88   51.65
  -3   3   0 1026.01   53.85
   3  -3   0 1076.79   49.30
   3  -3   0  965.79   46.15
  -3  -3   0 1125.31   56.30
  -3  -3   0  924.98   44.03
   3  -3   0 1044.04   54.82
   3   3   1  501.83   26.42
   3   3   1  525.37   21.83
   3   3   1  499.24   22.92
  -3   3  -1  552.00   23.95
  -3   3  -1  473.30   22.85
  -3   3  -1  490.98   25.82
   3  -3   1  446.71   19.56
  -3  -3  -1  522.18   25.20
  -3  -3  -1  426.42   19.90
   3   3   2  497.49   25.11
   3   3   2  509.37   21.13
  -3   3  -2  475.92   25.55
  -3   3  -2  529.42   24.04
  -3  -3  -2  508.52   25.29
  -3  -3  -2  447.35   21.61
  -3  -3  -2  415.16   19.20
   3   3   3  229.45   13.08
   3   3   3  219.46   10.18
  -3   3  -3  223.05   12.32
  -3   3  -3  234.85   14.90
  -3  -3  -3  242.08   14.03
  -3  -3  -3  214.13   12.84
   3   3   4  446.46   31.82
   3   3   4  371.16   17.53
  -3   3  -4  412.89   21.21
  -3   3  -4  451.93   24.63
  -3  -3  -4  454.58   23.58
  -3  -3  -4  413.71   22.34
   3   3   5  703.23   70.99
  -3   3  -5  590.85   37.95
  -3   3  -5  629.80   34.48
  -3  -3  -5  632.69   41.99
  -3  -3  -5  569.14   34.21
   3   3   6   46.18   15.05
  -3   3  -6   51.27    7.78
  -3   3  -6   55.82    8.52
  -3  -3  -6   50.49    7.96
  -3  -3  -6   46.71    8.44
   3   3   7  237.85   20.27
  -3   3  -7  273.47   23.82
  -3   3  -7  303.27   19.15
  -3  -3  -7  299.17   21.59
  -3  -3  -7  274.68   20.80
  -3   3  -8  170.37   13.07
  -3   3  -8  181.17   12.79
  -3  -3  -8  159.30   18.90
  -3  -3  -8  168.62   14.94
  -3   3  -9   88.02    8.89
  -3   3  -9   75.66    7.07
  -3  -3  -9   63.81   13.53
  -3  -3  -9   81.02    9.28
   3   3  10  105.94   20.80
  -3   3 -10  132.04    9.12
  -3  -3 -10  110.98    9.42
   3   4 -10   56.77    6.50
   3   4 -10   53.83    5.15
  -3   4  10   51.03    6.06
  -3  -4  10   42.29    6.52
   3   4  -9   99.90    9.76
  -3   4   9   93.74    8.83
  -3  -4   9   90.75    8.10
  -3  -4   9   93.33    7.73
   3   4  -8  182.78   14.22
  -3   4   8  153.65   13.14
  -3   4   8  170.91   12.78
  -3  -4   8  184.86   12.45
  -3  -4   8  183.99   12.50
   3   4  -7   78.37    9.66
  -3   4   7   62.79    9.11
  -3   4   7   51.01    7.92
  -3  -4   7   52.84    7.39
  -3  -4   7   62.38    7.78
  -3   4   6   20.70    6.52
   3   4  -6   28.89    6.54
  -3   4   6   24.44    6.56
  -3  -4   6   21.29    5.74
   3  -4  -6   17.37    4.80
  -3  -4   6   18.05    5.90
  -3   4   5  252.68   23.61
   3   4  -5  209.56   14.58
  -3   4   5  240.15   16.06
  -3  -4   5  238.49   14.59
   3  -4  -5  217.46   13.23
  -3  -4   5  229.73   14.93
  -3   4   4    5.26    4.58
   3   4  -4    3.57    6.15
  -3   4   4   11.09    6.06
  -3   4   4    8.02    3.68
  -3  -4   4   13.43    4.68
   3  -4  -4    6.97    3.98
  -3  -4   4    9.10    5.02
  -3   4   3   55.00    6.14
  -3   4   3   68.43    8.38
  -3   4   3   58.05    6.56
   3  -4  -3   63.66    9.14
  -3  -4   3   66.73    7.00
   3   4  -2  166.46   50.55
  -3   4   2  153.24   10.09
   3   4  -2  190.48   11.60
  -3   4   2  180.77   12.89
  -3   4   2  181.25   16.65
  -3  -4   2  188.48   11.35
   3  -4  -2  199.69   11.33
   3   4  -1   34.92   40.24
  -3   4   1   47.88    7.31
   3   4  -1   49.26    9.30
  -3   4   1   45.43    7.49
   3  -4  -1   54.31    6.52
   3   4   0  621.75  113.71
  -3   4   0  565.11   32.56
   3   4   0  643.98   31.28
  -3   4   0  597.78   33.65
  -3  -4   0  584.82   30.02
   3  -4   0  666.57   32.54
   3   4   1  371.73   77.14
  -3   4  -1  391.22   22.89
   3   4   1  427.07   20.22
  -3   4  -1  277.04   18.28
  -3  -4  -1  383.75   19.55
  -3  -4  -1  306.46   16.95
   3  -4   1  437.47   25.83
   3   4   2  446.56   74.68
  -3   4  -2  413.85   24.65
   3   4   2  437.29   20.86
   3  -4   2  440.31   21.30
  -3  -4  -2  329.28   19.79
  -3  -4  -2  388.41   20.34
   3   4   3   30.63   35.42
   3   4   3   16.39    6.31
  -3   4  -3   14.08    6.60
  -3  -4  -3    7.14    6.98
  -3  -4  -3   12.61    4.25
   3   4   4  586.10  100.29
   3   4   4  490.23   29.66
  -3   4  -4  567.85   29.92
  -3   4  -4  575.96   32.99
  -3  -4  -4  474.71   26.70
  -3  -4  -4  494.76   29.51
   3   4   5  230.79   34.72
   3   4   5  156.41   13.63
  -3   4  -5  210.67   13.89
  -3   4  -5  200.93   15.34
  -3  -4  -5  165.67   12.92
  -3  -4  -5  198.33   15.18
   3   4   6  397.14   45.16
  -3   4  -6  354.23   22.41
  -3   4  -6  359.91   21.03
  -3  -4  -6  319.27   22.83
   3   4   7    4.00    4.87
  -3   4  -7    4.74    5.03
  -3   4  -7    6.03    5.11
  -3  -4  -7    4.28    4.07
  -3  -4  -7   -1.08    5.34
  -3   4  -8   79.61    8.45
  -3   4  -8   78.46    8.10
  -3  -4  -8   66.48    8.84
   3   4   9    5.82    5.75
  -3   4  -9   19.56    4.23
  -3   4  -9   27.52    4.67
  -3  -4  -9   26.98    8.18
   3   5  -8   41.65    5.35
   3   5  -8   41.33    4.38
  -3   5   8   40.37    5.60
  -3   5   8   36.83    4.92
   3   5  -7   19.98    5.15
   3   5  -7   32.96    7.43
  -3   5   7   26.54    5.78
  -3   5   7   29.90    5.54
   3   5  -6  194.70   11.53
   3   5  -6  125.23   10.63
  -3   5   6  179.62   13.23
  -3   5   6  202.86   13.94
   3  -5  -6  146.80   11.41
  -3   5   5   12.93    5.75
   3   5  -5    8.00    4.73
  -3   5   5    1.05    4.54
   3  -5  -5    4.96    4.38
  -3   5   4  185.87   14.57
   3   5  -4  191.45   12.34
  -3   5   4  147.64   12.16
   3  -5  -4  192.28   12.88
  -3   5   3  484.29   29.86
   3   5  -3  501.63   26.59
   3  -5  -3  537.87   28.37
   3   5  -2   52.05   15.36
  -3   5   2   89.35    9.72
   3   5  -2   81.94    7.90
  -3   5   2   51.40    8.80
  -3   5   2   69.40    7.21
   3  -5  -2   90.33    8.35
   3   5  -1   95.75   24.34
  -3   5   1   81.18    9.82
   3   5  -1  103.01    8.88
  -3   5   1   95.36   12.69
   3  -5  -1  107.19    9.62
   3   5   0   19.09   19.83
  -3   5   0    1.32    6.88
   3   5   0   10.44    4.77
  -3   5   0    9.90    5.72
   3  -5   0   13.80    5.55
   3   5   1  142.82   39.75
  -3   5  -1  169.63   14.09
   3   5   1  161.36   11.79
   3  -5   1  161.39   12.66
   3   5   2   91.22   38.17
  -3   5  -2  106.97   10.83
   3   5   2  109.72   13.05
   3  -5   2   97.35    9.30
   3   5   3  171.05   43.77
   3   5   3  160.57   10.93
  -3   5  -3  158.00   13.17
   3  -5   3  168.10   11.50
  -3  -5  -3  113.20   10.62
   3   5   4  124.64   37.78
   3   5   4  114.05    8.90
  -3   5  -4  125.95   11.96
   3  -5   4  129.16    9.92
  -3  -5  -4   88.25    9.68
   3   5   5   10.10    6.74
   3   5   5    3.15    3.28
  -3   5  -5   -3.89    8.68
   3  -5   5    0.52    7.15
  -3  -5  -5    4.00    4.41
   3   5   6   99.65   11.25
  -3   5  -6   86.88    8.96
  -3  -5  -6   67.96    8.10
   3  -5   6   90.65    7.77
   3   5   7   36.66    4.45
  -3   5  -7   34.93    5.60
  -3  -5  -7   21.65    5.00
   3  -5   7   31.29    7.84
  -3   6   5   18.34    4.74
   3   6  -5   19.73    3.82
  -3   6   5   12.06    2.79
   3  -6  -5   16.25    3.19
  -3   6   4  120.17    9.84
   3   6  -4  139.32    8.72
   3  -6  -4  137.21    8.86
  -3   6   3   62.66    8.63
   3   6  -3   75.85    7.18
   3  -6  -3   84.97    7.51
  -3   6   2   49.89    7.08
   3   6  -2   62.47    6.50
   3  -6  -2   68.69   11.01
   3   6  -1    2.84    2.46
  -3   6   1    1.03    3.44
   3   6  -1    6.90    3.83
   3  -6  -1   -0.78    4.40
   3   6   0   36.55    6.73
  -3   6   0   27.61    4.63
   3   6   0   50.76    8.41
   3  -6   0   50.46    6.36
   3   6   1   13.00    6.73
  -3   6  -1   12.42    4.25
   3   6   1   15.14    4.49
   3  -6   1   17.56    4.45
   3   6   2   67.19    9.18
  -3   6  -2   77.17    7.92
   3   6   2   87.72    7.66
   3  -6   2   69.37    6.84
   3   6   3  119.64   15.21
  -3   6  -3  127.89    9.95
   3   6   3  129.43    8.67
   3  -6   3  118.32    8.67
   3   6   4    1.02    3.43
   3   6   4    0.28    2.43
  -3   6  -4    0.02    3.32
   3  -6   4   -2.02    3.36
  -3  -6  -4   -3.24    2.54
  -4   0  12   42.51    5.28
  -4   0  12   50.11    5.51
   4   0 -11    2.65    8.10
  -4   0  11    2.96    4.74
  -4   0  11    4.22    4.66
   4   0 -10   38.32   22.23
  -4   0  10   51.78    7.47
  -4   0  10   42.56    7.58
   4   0  -9  131.30   25.53
  -4   0   9  132.54   11.37
  -4   0   9  122.01   11.05
   4   0  -8   44.83   19.45
  -4   0   8   48.14   11.16
  -4   0   8   44.79    7.18
   4   0  -7   53.94   12.73
  -4   0   7   68.12   11.03
  -4   0   7   58.26    7.25
   4   0  -6 1337.03   77.58
  -4   0   6 1095.59   61.60
  -4   0   6 1424.50   75.83
  -4   0   6 1367.84   81.07
   4   0  -5 1709.70   95.59
   4   0  -5 1800.54  102.30
   4   0  -5 1829.51  109.87
  -4   0   5 1764.53  106.52
  -4   0   5 1916.58  107.46
  -4   0   5 1968.83  106.73
  -4   0   5 1871.39  105.57
   4   0  -4  112.25    6.75
   4   0  -4  108.44    7.37
   4   0  -4  114.40   13.39
   4   0  -4  107.99    6.66
  -4   0   4  119.08    8.09
  -4   0   4  111.13   10.74
  -4   0   4  118.58    8.10
  -4   0   4  108.63    9.16
   4   0  -3  555.32   24.86
   4   0  -3  618.65   25.06
   4   0  -3  610.29   26.11
   4   0  -3  567.22   23.78
  -4   0   3  586.43   27.46
  -4   0   3  598.75   26.36
  -4   0   3  559.47   23.28
   4   0  -2 1536.52   79.69
   4   0  -2 1696.35   81.44
   4   0  -2 1455.03   72.26
  -4   0   2 1666.61   94.60
  -4   0   2 1631.25   81.76
  -4   0   2 1650.99   83.58
  -4   0   2 1488.54   71.12
   4   0  -1 2284.63  128.28
   4   0  -1 2272.71  120.30
  -4   0   1 2248.43  126.75
  -4   0   1 2284.19  124.51
  -4   0   1 2236.05  129.38
  -4   0   1 1869.52   98.45
   4   0   0  408.42   19.18
   4   0   0  389.05   16.06
   4   0   0  407.82   16.53
  -4   0   0  404.80   19.38
  -4   0   0  407.96   17.79
  -4   0   0  393.29   16.30
   4   0   1 1565.33   80.00
   4   0   1 1573.83   77.88
   4   0   1 1478.40   73.88
  -4   0  -1 1596.60   82.17
  -4   0  -1 1601.67   80.62
  -4   0  -1 1487.46   74.12
   4   0   2  425.44   17.99
   4   0   2  451.89   19.28
   4   0   2  375.72   15.22
  -4   0  -2  463.65   20.35
  -4   0  -2  449.04   19.57
  -4   0  -2  363.42   16.73
  -4   0  -2  385.40   15.48
   4   0   3   61.05    4.20
   4   0   3   65.77    5.61
   4   0   3   48.80    3.66
  -4   0  -3   69.68    5.49
  -4   0  -3   62.12    5.69
  -4   0  -3   51.45    4.37
   4   0   4   88.73    5.32
   4   0   4   83.21    5.80
  -4   0  -4   82.92    6.19
  -4   0  -4  101.87    7.58
  -4   0  -4   83.68    6.53
  -4   0  -5  347.68   18.93
  -4   0  -5  313.11   17.42
  -4   0  -6   10.33    5.62
  -4   0  -6    2.73    4.44
  -4   0  -7  154.07   22.47
  -4   0  -7  151.63   12.58
  -4   0  -8  157.78   19.86
  -4   0  -8  174.71   20.01
  -4   0  -9  739.12   63.63
  -4   0  -9  873.58   52.77
   4   0  10   26.29   11.17
  -4   0 -10   27.03    8.97
   4   0  11   -1.28    5.10
  -4   0 -11    4.60    3.32
   4   1 -12   59.39    5.98
  -4   1  12   63.89    6.15
  -4  -1  12   63.79    6.10
  -4  -1  12   55.62    5.79
   4   1 -11   49.40    7.98
  -4   1  11   46.64    6.86
  -4  -1  11   51.16   10.90
  -4  -1  11   47.93    6.91
  -4   1  10   17.82    5.94
   4   1 -10   18.99    8.42
  -4   1  10   13.36    4.32
   4  -1 -10    2.77   10.78
  -4  -1  10   24.79    6.36
  -4  -1  10   23.49    6.02
  -4   1   9   74.25    8.52
   4   1  -9   60.60   26.21
  -4   1   9   47.97    6.61
   4  -1  -9   68.72   23.35
  -4  -1   9   87.83    9.36
  -4  -1   9   76.65    8.49
   4   1  -8  851.49   70.63
  -4   1   8  835.42   48.34
   4  -1  -8  849.50   76.19
  -4  -1   8  904.70   51.17
  -4  -1   8  861.88   48.65
  -4   1   7 1154.51   66.02
   4   1  -7 1349.79   93.03
  -4   1   7 1308.08   81.80
  -4  -1   7 1388.51   78.17
   4  -1  -7 1330.29  104.01
  -4  -1   7 1306.20   73.89
  -4   1   6  260.63   14.50
   4   1  -6  240.89   20.39
  -4   1   6  218.49   13.46
  -4   1   6  217.23   11.75
  -4  -1   6  256.44   15.65
   4  -1  -6  245.23   15.54
  -4  -1   6  235.85   13.73
   4   1  -5  358.66   16.07
  -4   1   5  431.77   21.31
   4   1  -5  413.75   21.32
  -4   1   5  366.82   16.52
  -4   1   5  416.74   20.27
  -4   1   5  375.88   16.09
  -4  -1   5  357.48   20.36
   4  -1  -5  406.37   19.50
  -4  -1   5  420.90   21.79
  -4  -1   5  421.23   20.45
  -4   1   4  182.08    9.86
   4   1  -4  185.61    9.04
   4   1  -4  203.23   11.27
   4   1  -4  204.30   13.87
  -4   1   4  171.76    8.19
  -4   1   4  194.79    9.96
  -4   1   4  204.38   11.62
  -4   1   4  204.84   12.54
  -4  -1   4  202.75   12.19
   4  -1  -4  202.99   13.05
   4  -1  -4  201.46   10.27
   4  -1  -4  186.30    9.10
  -4  -1   4  198.52   10.50
  -4  -1   4  202.23   10.35
  -4   1   3  387.80   15.22
   4   1  -3  431.42   19.23
   4   1  -3  432.02   23.91
   4   1  -3  420.89   18.58
   4   1  -3  431.56   18.44
  -4   1   3  434.24   21.09
  -4   1   3  391.39   16.67
  -4   1   3  387.67   17.52
  -4   1   3  443.62   27.10
   4  -1  -3  396.54   15.88
   4  -1  -3  429.05   22.50
  -4  -1   3  426.46   20.42
   4  -1  -3  417.46   19.39
  -4  -1   3  427.92   19.96
  -4  -1   3  432.17   20.99
  -4   1   2  661.23   26.50
   4   1  -2  729.78   33.65
  -4   1   2  738.06   35.39
   4   1  -2  768.78   39.14
   4   1  -2  707.23   30.43
  -4   1   2  714.94   33.92
   4   1  -2  714.94   29.97
   4  -1  -2  752.25   36.25
  -4  -1   2  731.72   33.93
   4  -1  -2  716.46   26.43
   4  -1  -2  740.41   33.90
  -4  -1   2  725.24   34.31
  -4  -1   2  707.76   29.06
  -4   1   1 1137.71   50.46
   4   1  -1 1238.11   61.88
  -4   1   1 1266.10   63.13
   4   1  -1 1553.94   76.67
   4   1  -1 1209.67   54.72
  -4   1   1 1249.57   61.06
   4   1  -1 1159.59   51.68
   4  -1  -1 1255.11   63.68
  -4  -1   1 1295.96   71.30
   4  -1  -1 1179.97   49.93
   4  -1  -1 1234.09   59.75
  -4  -1   1 1244.64   62.11
  -4  -1   1 1154.83   50.38
  -4   1   0  282.29   12.34
   4   1   0  323.23   16.05
  -4   1   0  323.26   15.28
   4   1   0  308.47   14.51
   4   1   0  262.86    9.66
  -4   1   0  322.73   19.35
   4   1   0  272.20    9.56
   4  -1   0  317.77   15.19
  -4  -1   0  327.36   16.43
   4  -1   0  281.04    9.77
   4  -1   0  308.77   14.00
  -4  -1   0  314.35   15.76
  -4  -1   0  271.05    9.12
  -4   1  -1  687.98   27.89
   4   1   1  812.71   38.14
  -4   1  -1  720.16   29.52
   4   1   1  815.72   36.86
  -4   1  -1  852.54   38.19
  -4   1  -1  832.06   37.71
   4  -1   1  709.12   28.52
   4  -1   1  843.79   37.98
  -4  -1  -1  809.60   37.92
  -4  -1  -1  868.60   39.96
   4  -1   1  774.99   34.10
   4  -1   1  693.55   29.39
  -4   1  -2  916.93   41.00
   4   1   2  993.86   47.26
   4   1   2 1019.50   49.40
  -4   1  -2 1011.25   51.98
  -4   1  -2  859.32   38.90
  -4   1  -2  999.68   46.59
   4  -1   2  898.77   39.49
   4  -1   2  980.97   45.21
  -4  -1  -2 1001.75   48.40
  -4  -1  -2  965.80   47.95
   4  -1   2  941.59   42.12
   4  -1   2  923.18   42.21
  -4   1  -3   73.02    4.84
   4   1   3   90.84    5.93
   4   1   3   97.95   12.06
  -4   1  -3   78.77    5.58
   4   1   3   64.67    4.49
  -4   1  -3   81.75    5.42
  -4   1  -3   83.53    6.02
   4  -1   3   74.88    6.19
   4  -1   3   90.65    5.10
  -4  -1  -3   94.21    7.66
  -4  -1  -3   89.93   17.17
   4  -1   3   84.57    5.07
   4  -1   3   70.51    4.34
   4   1   4  169.62    9.49
  -4   1  -4  202.75   10.40
  -4   1  -4  193.27   13.54
  -4   1  -4  221.86   12.02
  -4  -1  -4  208.72   19.06
  -4  -1  -4  211.50   17.56
   4  -1   4  208.93   11.31
  -4   1  -5   21.53    4.54
  -4   1  -5   29.80    5.42
  -4  -1  -5   29.25    6.00
  -4  -1  -5   25.22    6.94
  -4  -1  -5   19.41   11.66
  -4   1  -6   54.22    8.06
  -4   1  -6   79.02    8.43
  -4  -1  -6   79.44    9.05
  -4  -1  -6   60.70    7.51
  -4   1  -7   16.29    7.32
  -4   1  -7   25.00    6.50
  -4  -1  -7   31.39    8.28
  -4  -1  -7   14.96    6.02
  -4   1  -8   35.84    9.85
  -4   1  -8   55.48    8.47
  -4  -1  -8   68.00   13.80
  -4  -1  -8   48.19    8.27
  -4   1  -9  145.28   11.66
  -4  -1  -9  131.43   12.95
  -4  -1  -9  156.55   22.64
  -4   1 -10   13.94    4.65
  -4  -1 -10   18.33    5.64
   4  -1  10    5.19    4.06
   4   1  11   29.40   16.22
  -4   1 -11   38.05    4.74
  -4  -1 -11   36.36    6.73
   4   2 -11   85.00    8.54
  -4   2  11   83.87    7.53
  -4  -2  11   92.15    8.60
  -4  -2  11   81.56    7.60
   4   2 -10  186.70   14.66
  -4   2  10  182.39   13.77
  -4  -2  10  209.65   15.41
  -4  -2  10  203.50   13.67
   4   2  -9  867.81   66.42
  -4   2   9  801.39   47.84
  -4  -2   9  896.98   61.42
  -4  -2   9  880.66   56.33
  -4   2   8    9.30    4.63
   4   2  -8   18.69    9.17
  -4   2   8   22.34    5.82
  -4  -2   8   23.17   11.08
   4  -2  -8   29.59   15.23
  -4  -2   8   25.23    6.32
   4   2  -7  785.73   68.47
  -4   2   7  794.36   44.79
   4  -2  -7  719.68   48.66
  -4  -2   7  809.94   55.66
  -4  -2   7  784.22   42.90
  -4   2   6   62.58    7.48
   4   2  -6   67.65   10.83
  -4   2   6   58.29    7.06
  -4  -2   6   71.81    8.94
   4  -2  -6   59.75    6.96
  -4  -2   6   58.01    7.42
   4   2  -5  132.97   12.21
  -4   2   5  121.90    9.80
  -4   2   5  111.39    8.61
  -4   2   5  129.43    9.95
  -4  -2   5  127.09   10.88
  -4  -2   5  123.54    8.84
   4   2  -4  256.10   12.12
   4   2  -4  277.46   20.28
  -4   2   4  277.82   15.89
  -4   2   4  269.25   15.51
  -4   2   4  242.57   12.71
  -4  -2   4  244.92   12.85
  -4  -2   4  275.08   16.56
  -4  -2   4  282.40   14.48
   4   2  -3  172.67    9.59
   4   2  -3  162.35    9.45
   4   2  -3  191.23   10.29
  -4   2   3  180.94   12.23
  -4   2   3  171.58   11.21
  -4  -2   3  179.85   12.21
  -4  -2   3  167.26   10.60
  -4  -2   3  175.97    9.53
   4   2  -2  774.34   36.28
   4   2  -2  624.23   29.07
   4   2  -2  743.28   32.58
  -4   2   2  752.60   37.54
  -4   2   2  750.88   37.04
  -4  -2   2  717.60   36.43
  -4  -2   2  758.37   37.67
  -4  -2   2  744.63   32.40
  -4   2   1  126.81    9.04
   4   2  -1  125.63    8.78
   4   2  -1  131.28    9.26
  -4   2   1  127.79    9.62
   4   2  -1  121.46    6.11
   4  -2  -1  117.90    7.76
  -4  -2   1  117.62    9.88
  -4  -2   1  127.13   10.10
   4  -2  -1  128.11   10.48
  -4  -2   1  119.07    7.95
  -4   2   0  892.08   43.83
   4   2   0  873.11   50.07
   4   2   0  883.40   42.30
   4   2   0  802.21   34.05
   4   2   0  826.53   35.35
  -4   2   0  891.02   43.83
   4  -2   0  922.54   46.23
   4  -2   0  803.70   32.69
  -4  -2   0  836.72   62.19
  -4  -2   0  877.77   43.87
   4  -2   0  809.82   37.64
  -4   2  -1  486.04   19.97
  -4   2  -1  528.09   26.12
  -4   2  -1  508.43   24.65
  -4  -2  -1  512.38   38.66
  -4  -2  -1  502.00   26.05
   4  -2   1  486.04   21.77
   4  -2   1  548.57   27.37
  -4   2  -2  120.44    8.93
  -4   2  -2  105.41    7.19
  -4   2  -2  111.79    6.34
  -4  -2  -2  129.78    9.55
  -4  -2  -2  131.88   18.97
   4  -2   2   99.97    5.89
  -4   2  -3  254.89   12.96
  -4   2  -3  277.64   20.33
  -4  -2  -3  260.44   33.93
  -4  -2  -3  267.49   20.97
  -4   2  -4  473.75   24.85
  -4   2  -4  467.77   23.60
  -4  -2  -4  488.17   26.59
   4   2   5  148.67    8.55
  -4   2  -5  138.66   10.21
  -4   2  -5  150.08   10.62
  -4  -2  -5  148.61   12.37
   4   2   6  118.22    8.66
  -4   2  -6  145.59   11.29
  -4   2  -6  133.68    9.61
  -4  -2  -6  155.74   12.93
  -4  -2  -6  106.12   10.29
  -4   2  -7    7.37    5.32
  -4  -2  -7   -0.02    7.67
  -4  -2  -7    7.37    7.42
  -4   2  -8  318.71   20.44
  -4  -2  -8  233.91   19.15
  -4  -2  -8  316.67   29.94
  -4   2  -9  238.68   15.70
  -4  -2  -9  221.73   16.55
  -4  -2  -9  281.03   42.93
  -4   2 -10    5.27    5.50
  -4  -2 -10   -0.45    3.84
  -4  -2 -10    9.02    8.39
   4   3 -11    3.97    4.03
  -4   3  11    7.95    3.11
  -4  -3  11    6.10    3.35
  -4  -3  11    7.30    2.87
   4   3 -10   94.89    9.27
  -4   3  10   83.13    8.04
  -4  -3  10  109.72    8.83
  -4  -3  10  105.28    8.07
   4   3  -9  105.61   10.86
  -4   3   9   91.52    9.58
  -4  -3   9  116.29   15.01
  -4  -3   9  106.46    9.78
   4   3  -8  264.02   19.09
  -4   3   8  262.06   18.79
  -4  -3   8  292.64   19.13
  -4  -3   8  282.20   17.94
  -4   3   7   65.00    8.73
   4   3  -7   76.97    9.84
  -4   3   7   63.04    8.16
  -4  -3   7   70.34    9.26
   4  -3  -7   40.23   11.16
  -4  -3   7   70.50    8.11
  -4   3   6  555.83   32.74
   4   3  -6  492.23   29.89
  -4   3   6  437.30   27.35
  -4  -3   6  561.16   38.93
   4  -3  -6  446.53   26.65
  -4  -3   6  500.96   27.74
   4   3  -5   87.01   13.18
  -4   3   5  105.91   10.49
  -4   3   5   85.48   10.87
  -4   3   5  100.59    9.32
  -4  -3   5  102.80   10.30
  -4  -3   5   96.17    8.69
   4   3  -4  577.68   32.23
  -4   3   4  716.51   47.53
  -4   3   4  721.16   37.73
  -4  -3   4  697.31   37.54
  -4  -3   4  659.47   33.49
   4   3  -3   33.79    6.93
  -4   3   3   52.73   11.91
  -4   3   3   48.30    6.74
  -4  -3   3   58.35    7.76
  -4  -3   3   50.15    7.83
  -4  -3   3   55.92    9.29
  -4   3   2  463.50   25.69
  -4   3   2  450.25   24.85
  -4  -3   2  475.79   26.09
  -4  -3   2  480.46   31.27
  -4  -3   2  458.56   22.34
  -4   3   1   13.61    4.96
   4   3  -1   10.66    3.58
  -4   3   1   11.23    5.72
  -4  -3   1   16.69   10.20
   4  -3  -1   15.98    4.42
  -4   3   0   71.86    8.95
   4   3   0   74.51    7.49
  -4   3   0   70.19    7.47
  -4  -3   0   74.60   16.41
  -4  -3   0   84.44   12.33
   4  -3   0   71.58    5.22
  -4   3  -1  377.28   22.06
   4   3   1  365.22   18.50
  -4   3  -1  325.04   19.13
  -4  -3  -1  378.79   38.80
  -4  -3  -1  379.96   20.87
   4  -3   1  370.00   16.73
   4   3   2 1669.17   98.91
  -4   3  -2 1603.66   97.03
  -4   3  -2 1655.45   91.67
  -4  -3  -2 1678.73   97.84
   4   3   3    9.88    6.13
  -4   3  -3   10.86    9.00
  -4   3  -3    9.39    4.23
  -4  -3  -3   10.93    5.21
   4   3   4  260.88   30.23
  -4   3  -4  239.74   16.26
  -4   3  -4  253.83   14.53
  -4  -3  -4  257.73   16.14
   4   3   5  222.30   24.71
  -4   3  -5  222.08   15.78
  -4   3  -5  216.67   14.00
  -4  -3  -5  197.74   20.78
   4   3   6  198.64   29.04
  -4   3  -6  220.08   14.98
  -4   3  -6  217.53   19.41
  -4  -3  -6  214.63   15.94
  -4  -3  -6  123.81   16.91
   4   3   7  387.24   30.49
  -4   3  -7  576.70   30.80
  -4   3  -7  543.23   29.30
  -4  -3  -7  543.95   34.92
  -4  -3  -7  348.19   27.27
  -4   3  -8  233.50   13.87
  -4   3  -8  173.51   12.37
  -4  -3  -8  227.66   22.41
  -4  -3  -8  168.74   13.68
  -4   3  -9    2.01    5.95
  -4  -3  -9    6.41    5.68
  -4  -3  -9    2.37    7.24
   4   4  -9   45.74    6.96
  -4   4   9   38.68    8.91
  -4  -4   9   44.48    5.71
   4   4  -8    3.54    5.22
  -4   4   8    0.51    4.44
  -4   4   8    5.94    4.42
  -4  -4   8    8.08    4.74
  -4  -4   8    7.03    4.55
   4   4  -7   42.97   11.44
  -4   4   7   49.96    8.54
  -4   4   7   38.42    6.74
  -4  -4   7   63.78    7.88
  -4  -4   7   52.23    7.12
   4   4  -6    9.57    4.82
  -4   4   6   11.35    5.91
  -4   4   6    2.81    4.39
  -4  -4   6   15.17    5.85
  -4  -4   6   10.58    5.08
   4   4  -5  343.80   22.46
  -4   4   5  356.47   26.68
  -4   4   4  184.05   21.27
  -4   4   4  176.54   12.92
  -4  -4   4  210.89   14.61
   4   4  -3   20.79   28.77
   4   4  -3   32.04    5.78
  -4   4   3   24.92   11.56
  -4   4   3   27.37    6.45
  -4  -4   3   37.89    6.95
   4   4  -2  784.84  137.89
  -4   4   2  805.86   48.17
   4   4  -2  935.27   47.37
  -4   4   2  865.77   49.74
  -4  -4   2  909.55   49.34
   4  -4  -2  766.75   38.72
   4   4  -1  433.02  111.13
  -4   4   1  424.55   26.71
   4   4  -1  475.72   23.27
  -4   4   1  438.32   33.86
   4  -4  -1  422.38   21.18
   4   4   0  511.32  114.18
  -4   4   0  428.09   28.15
   4   4   0  521.27   29.52
  -4   4   0  528.05   31.51
   4  -4   0  529.20   30.33
   4   4   1  872.90  153.59
   4   4   1  856.17   43.40
  -4   4  -1  916.68   63.99
   4  -4   1  911.45   46.85
  -4  -4  -1  910.23   50.31
   4   4   2  149.05   61.10
   4   4   2  128.08    8.21
  -4   4  -2  147.80   13.31
   4  -4   2  151.05   10.06
  -4  -4  -2  141.16   11.34
   4   4   3   55.12   40.95
  -4   4  -3   47.16    8.37
  -4  -4  -3   38.17    6.87
   4  -4   3   38.27    6.33
   4   4   4    8.35   42.09
  -4   4  -4   25.54    7.23
  -4  -4  -4   26.68    6.12
   4  -4   4   25.70    5.96
   4   4   5  561.31   97.42
  -4   4  -5  507.98   29.66
  -4  -4  -5  474.21   29.23
   4   4   6  107.64   24.92
  -4   4  -6  115.97   11.09
  -4   4  -6  116.22    9.86
  -4  -4  -6   81.85   10.68
   4   4   7    1.27    3.66
  -4   4  -7    0.71    4.56
  -4  -4  -7    1.95    3.08
  -4  -4  -7    2.87    5.85
  -4   4  -8    8.85    3.24
   4  -4   8    6.75    3.45
  -4  -4  -8    3.39    2.77
  -4  -4  -8    7.21    4.65
   4   5  -7    7.06    3.24
  -4   5   7    0.91    3.78
  -4   5   7    3.23    2.53
  -4   5   6  134.85    9.64
  -4   5   6   79.40    6.75
  -4  -5   6   80.16    5.97
   4   5  -5   59.79    6.36
  -4   5   5   58.05    8.06
  -4  -5   5   37.40    4.73
   4   5  -4   19.95    5.16
  -4   5   4   19.99    6.35
  -4  -5   4   13.93    3.96
  -4   5   3  238.71   16.22
   4   5  -3  257.83   13.70
  -4   5   3  182.55   17.40
  -4  -5   3  205.31   12.11
   4  -5  -3  211.19   12.76
   4   5  -2  100.09   20.65
  -4   5   2  129.72   12.18
   4   5  -2  155.36   15.37
  -4   5   2  129.90   10.28
   4  -5  -2  131.81    9.06
   4   5  -1   12.79   38.34
  -4   5   1   14.82    5.55
   4   5  -1   19.80    5.44
  -4   5   1   17.49    6.00
   4  -5  -1   19.63    4.51
   4   5   0  276.17  106.22
  -4   5   0  313.37   20.81
   4   5   0  324.43   22.12
   4  -5   0  308.07   17.18
   4   5   1   36.86   64.18
  -4   5  -1   58.22    8.73
   4   5   1   58.42    6.26
   4  -5   1   72.06    7.18
   4   5   2   33.66   87.22
  -4   5  -2   54.64    8.02
   4   5   2   39.43    5.34
   4  -5   2   50.69    6.71
   4   5   3   83.05   36.17
  -4   5  -3   82.48    9.77
   4  -5   3   85.87    8.21
   4   5   4   41.02   27.96
  -4   5  -4   49.55    8.03
   4  -5   4   47.46    6.59
   4   5   5  144.43   12.52
  -4   5  -5  138.81   10.93
   4  -5   5  148.20   10.27
   4   5   6   97.33    8.89
  -4   5  -6   86.16    7.51
   4  -5   6   79.53    6.33
   4   6  -4  149.37   10.01
  -4   6   4  100.39    7.89
   4   6  -3    7.28    3.24
  -4   6   3    5.13    3.78
  -4   6   2    6.01    3.54
   4   6  -2   14.79    3.51
   4  -6  -2   12.28    2.60
   4   6  -1    6.73    3.81
  -4   6   1    4.26    3.84
   4   6  -1   14.75    5.93
  -4   6   1    9.49    3.95
   4  -6  -1   12.21    2.94
   4   6   0   23.30    4.90
  -4   6   0   21.01    3.94
   4   6   0   35.06    4.41
   4  -6   0   31.13    3.85
   4   6   1   17.29    6.19
  -4   6  -1   21.99    7.16
   4   6   1   30.00    3.79
   4  -6   1   29.91    4.09
   4   6   2   15.63    5.13
  -4   6  -2   17.89    4.22
   4  -6   2   11.79    3.31
   4   6   3   35.47    8.43
  -4   6  -3   34.99    4.29
   4  -6   3   38.04    4.00
   5   0 -11    9.87    8.29
  -5   0  11    6.72    3.08
  -5   0  11    7.43    3.92
   5   0 -10   -1.73   14.46
  -5   0  10    1.34    3.79
  -5   0  10    2.54    4.30
   5   0  -9    2.91   14.80
  -5   0   9   14.46    5.27
  -5   0   9   21.43    5.43
   5   0  -8    9.50   16.99
  -5   0   8    5.44    4.73
  -5   0   8    6.20    5.06
   5   0  -7  267.65   26.58
  -5   0   7  263.12   16.43
  -5   0   7  264.38   21.24
   5   0  -6 1461.16   92.44
  -5   0   6 1443.03   82.23
  -5   0   6 1328.32   79.35
   5   0  -5  147.05   11.25
  -5   0   5  157.07   10.95
  -5   0   5  150.77   13.85
  -5   0   5  143.52   12.13
   5   0  -4   33.99    5.44
  -5   0   4   34.87    6.08
  -5   0   4   39.07    5.13
  -5   0   4   23.47    3.75
   5   0  -3  153.57    9.26
  -5   0   3  147.40   11.05
  -5   0   3  167.45   13.21
   5   0  -2   29.60    3.99
   5   0  -2   32.02    4.51
  -5   0   2   32.47    6.13
  -5   0   2   30.50    4.69
   5   0  -1 1364.05   69.49
  -5   0   1 1382.59   84.66
  -5   0   1 1388.49   72.88
  -5   0   1 1359.95   72.94
  -5   0   0   23.81    5.74
  -5   0   0   22.01    4.40
  -5   0   0   25.36    3.89
  -5   0  -1   -0.01    4.01
  -5   0  -1    1.52    3.23
  -5   0  -1    0.92    3.58
  -5   0  -2  565.87   29.32
  -5   0  -2  525.32   26.16
  -5   0  -3  270.30   17.06
  -5   0  -3  289.70   15.58
  -5   0  -4   35.71   12.76
  -5   0  -4   57.12    9.64
  -5   0  -5   20.19    5.73
  -5   0  -6  704.14   37.65
  -5   0  -6  348.24   30.07
  -5   0  -7    6.26    6.92
  -5   0  -7   -1.54    3.68
  -5   0  -8  131.40   16.58
  -5   0  -8   90.79    9.22
  -5   0  -9    1.34    3.32
  -5   0 -10   34.47    4.13
   5   1 -11   15.59    4.75
  -5   1  11   17.11    4.20
   5  -1 -11    9.45    4.12
  -5  -1  11   16.98    4.96
  -5  -1  11   16.67    4.17
   5   1 -10   34.58    9.29
  -5   1  10   30.54    5.78
   5  -1 -10   29.43   13.88
  -5  -1  10   38.82    7.14
  -5  -1  10   34.27    6.09
   5   1  -9   32.75   22.20
  -5   1   9   29.16    6.31
   5  -1  -9   26.64   22.76
  -5  -1   9   25.46    7.55
  -5  -1   9   28.32    6.18
   5   1  -8  107.69   22.06
  -5   1   8   95.02    9.84
   5  -1  -8   92.10   25.44
  -5  -1   8  126.60   11.34
  -5  -1   8  101.28    9.56
   5   1  -7  167.18   24.11
  -5   1   7  140.02   16.12
   5  -1  -7  164.75   25.15
  -5  -1   7  184.79   14.54
  -5  -1   7  181.35   13.06
  -5   1   6  159.32   12.37
   5   1  -6  179.53   18.97
  -5   1   6  150.87   10.89
  -5  -1   6  195.09   14.33
   5  -1  -6  184.99   14.56
  -5  -1   6  180.65   11.82
  -5   1   5  161.81   12.58
   5   1  -5  157.21   11.64
   5  -1  -5  154.98   11.11
  -5  -1   5  135.86   10.02
  -5  -1   5  168.50   18.02
  -5  -1   5  148.71    9.71
  -5   1   4  608.96   33.40
   5   1  -4  629.05   33.03
   5  -1  -4  630.86   31.67
  -5  -1   4  630.74   33.54
  -5  -1   4  606.71   31.85
  -5  -1   4  565.38   28.53
   5   1  -3  216.76   16.24
  -5   1   3  219.56   14.24
  -5   1   3  225.85   14.25
  -5  -1   3  215.07   13.59
  -5  -1   3  230.23   14.44
  -5  -1   3  182.17   11.89
   5   1  -2   41.18    4.58
  -5   1   2   52.15    7.18
  -5   1   2   46.99    6.10
  -5  -1   2   48.98    6.55
  -5  -1   2   51.79    6.97
   5   1  -1  163.67    8.51
  -5   1   1  208.62   13.58
  -5   1   1  223.35   12.90
  -5  -1   1  213.08   13.03
  -5  -1   1  231.74   13.96
  -5   1   0  175.38   11.77
  -5   1   0  184.12   15.46
  -5  -1   0  182.64   12.85
  -5   1  -1  403.32   21.34
  -5   1  -1  374.78   19.30
  -5  -1  -1  385.63   20.33
  -5  -1  -1  378.95   23.36
  -5   1  -2  407.36   21.00
  -5   1  -2  369.53   19.15
  -5  -1  -2  401.14   21.28
  -5  -1  -2  396.84   23.37
  -5   1  -3  430.80   25.11
  -5   1  -3  461.91   23.32
  -5  -1  -3  548.68   27.60
  -5  -1  -3  557.61   44.02
  -5  -1  -4   41.36   26.37
  -5  -1  -4   38.46    6.71
  -5  -1  -5  103.23   20.82
  -5  -1  -5  123.24   11.22
  -5   1  -6  153.55   12.34
  -5  -1  -6  258.59   16.25
  -5   1  -7  189.90   13.18
  -5  -1  -7  125.98   15.13
  -5   1  -8    6.04    3.81
  -5  -1  -8    0.88    3.71
  -5  -1  -8    3.45    9.17
  -5   1  -9  178.98   12.60
  -5  -1  -9  132.94   11.82
  -5  -1  -9  234.75   23.27
   5   1  10   40.34    9.93
  -5   1 -10   33.22    3.98
   5   2 -11   47.92    5.45
  -5   2  11   42.36    4.35
  -5  -2  11   59.11    5.43
  -5  -2  11   48.69    4.84
   5   2 -10    4.88    4.86
  -5   2  10    8.80    4.35
   5  -2 -10    4.49    5.72
  -5  -2  10    6.93    5.10
  -5  -2  10    6.79    6.49
   5   2  -9  136.09   19.37
  -5   2   9  106.66    9.98
   5  -2  -9   84.81   24.39
  -5  -2   9  146.58   11.52
  -5  -2   9  124.01   10.25
  -5   2   8    3.86    4.16
   5   2  -8   15.13    7.56
  -5   2   8   10.09    4.96
  -5  -2   8   18.56   10.03
   5  -2  -8    9.01   16.53
  -5  -2   8   12.91    4.88
  -5   2   7   -0.38    4.41
   5   2  -7   -2.70   12.12
  -5   2   7    1.92    3.78
  -5  -2   7    1.13    8.66
   5  -2  -7   -2.55    8.11
  -5  -2   7    3.77    4.69
  -5   2   6   88.05   14.29
   5   2  -6   82.24   13.48
   5  -2  -6   70.99   14.73
  -5  -2   6   83.10   10.38
  -5  -2   6   81.75    8.47
  -5   2   5  223.93   15.63
   5   2  -5  197.86   16.89
   5  -2  -5  223.84   14.03
  -5  -2   5  225.19   16.23
  -5  -2   5  215.75   12.93
   5   2  -4  393.19   28.91
  -5   2   4  454.85   26.23
  -5   2   4  461.02   26.97
  -5  -2   4  456.26   26.64
  -5  -2   4  374.83   32.33
  -5  -2   4  442.38   22.25
  -5   2   3  216.98   15.31
  -5   2   3  217.17   14.31
  -5  -2   3  239.84   16.15
  -5  -2   3  215.03   15.36
  -5  -2   3  195.10   10.80
  -5   2   2  549.40   30.43
  -5   2   2  551.92   29.48
  -5  -2   2  586.91   31.61
  -5  -2   2  527.15   29.89
  -5  -2   2  474.91   25.13
  -5   2   1  167.19   16.57
  -5   2   1  158.05   11.78
  -5  -2   1  160.12   13.17
  -5  -2   1  159.77   13.80
  -5   2   0   50.03    6.94
  -5   2   0   50.67    7.11
  -5  -2   0   50.05    7.90
  -5  -2   0   40.99   16.79
  -5   2  -1  334.59   20.20
  -5   2  -1  385.36   22.46
  -5  -2  -1  365.51   22.04
  -5  -2  -1  368.70   40.15
  -5   2  -2   96.58    8.58
  -5   2  -2  130.00   10.35
  -5  -2  -2  119.55   10.82
  -5  -2  -2  126.38   24.47
  -5   2  -3  730.85   40.77
  -5  -2  -3  737.19   41.95
  -5  -2  -3  776.34   89.72
  -5   2  -4   83.52    8.15
  -5  -2  -4   95.63   10.08
   5   2   5   28.99    4.41
  -5   2  -5   17.89    4.75
  -5   2  -5   16.07    4.29
  -5  -2  -5   38.62   11.54
   5   2   6    4.75    4.24
  -5   2  -6    8.36    6.12
  -5  -2  -6   14.39    6.30
  -5   2  -7  184.82   13.15
  -5  -2  -7  276.76   20.56
  -5   2  -8   57.33    6.78
  -5  -2  -8   85.77   15.76
  -5   2  -9   15.54    3.63
  -5  -2  -9    9.44    2.66
  -5  -2  -9   22.50   10.35
   5   3 -10  158.27   14.14
  -5  -3  10  198.24   10.71
  -5  -3  10  159.63    9.15
  -5   3   9    3.77    2.26
   5   3  -9    9.65    4.63
  -5   3   9    5.29    5.74
  -5  -3   9   18.17    7.61
   5  -3  -9    6.32    7.99
  -5  -3   9   15.40    6.44
   5   3  -8  361.78   25.20
  -5  -3   8  421.97   24.11
  -5  -3   8  396.10   21.72
  -5   3   7   21.74    6.51
   5   3  -7   15.28    6.39
  -5   3   7   16.77    6.86
  -5  -3   7   25.13    7.02
   5  -3  -7   11.06   10.76
  -5  -3   7   23.32    5.54
  -5   3   6  313.68   21.46
   5   3  -6  252.51   19.72
   5  -3  -6  311.89   20.35
  -5  -3   6  348.21   28.47
  -5  -3   6  346.78   19.79
  -5   3   5   51.43    8.09
   5   3  -5   24.30    9.48
   5  -3  -5   46.12    7.67
  -5  -3   5   45.78    8.79
  -5  -3   5   45.98    6.92
  -5   3   4   76.97    9.51
  -5   3   4   75.24    9.01
  -5  -3   4   73.76   10.09
  -5  -3   4   46.79    8.46
  -5  -3   4   72.88    7.40
  -5   3   3  169.74   13.58
  -5   3   3  164.35   13.12
  -5  -3   3  174.16   14.19
  -5  -3   3  143.66   16.22
  -5  -3   3  147.96   10.00
   5   3  -2   11.25    3.57
  -5   3   2   16.46    5.96
  -5   3   2   11.17    6.09
  -5  -3   2   10.58    6.78
  -5  -3   2   16.53   10.86
   5   3  -1  312.18   18.60
  -5   3   1  389.57   23.69
  -5   3   1  391.25   24.01
  -5  -3   1  390.25   39.59
  -5   3   0  719.42   49.84
  -5   3   0  726.89   42.96
  -5  -3   0  775.34   44.21
  -5  -3   0  759.38   72.99
  -5   3  -1 1243.26   74.43
  -5  -3  -1 1213.71   71.67
  -5  -3  -1 1237.10  116.53
   5   3   2  172.32   19.83
  -5   3  -2  163.77   13.61
  -5  -3  -2  178.82   20.23
   5   3   3  161.20   15.99
  -5   3  -3  174.18   13.87
  -5  -3  -3  160.48   13.78
   5   3   4   33.13   23.54
  -5   3  -4   41.71    7.54
  -5   3  -4   32.39    5.12
  -5  -3  -4   51.44    7.74
   5   3   5   88.66   19.95
  -5   3  -5   89.90    9.03
  -5   3  -5   71.26    7.36
  -5  -3  -5   93.67   10.45
   5   3   6   45.50   17.16
  -5   3  -6   49.60    6.31
  -5   3  -6   37.75    5.86
  -5  -3  -6   55.37   15.10
  -5   3  -7   29.53    4.22
  -5   3  -7   42.06    5.60
  -5  -3  -7   59.96    9.49
  -5   3  -8   29.54    4.39
  -5  -3  -8   37.68   10.45
   5   4  -8   14.97    3.99
   5   4  -8   26.04    4.22
  -5   4   8   13.23    4.52
  -5  -4   8   32.89    5.34
   5   4  -7  108.77    8.24
  -5   4   7  111.27   15.35
   5   4  -6  461.36   25.08
  -5   4   6  453.92   29.33
  -5  -4   6  603.75   38.70
  -5   4   5   13.16    6.26
   5   4  -5   15.62    5.40
   5  -4  -5   10.52    5.58
  -5  -4   5   20.15    6.47
   5   4  -4  247.63   15.20
  -5   4   4  227.03   17.64
  -5   4   4  239.00   17.21
  -5  -4   4  270.75   18.27
   5   4  -3   -6.54   25.91
   5   4  -3    3.80    3.86
  -5   4   3    3.12    5.32
  -5   4   3   -1.90    5.17
  -5  -4   3   -1.36    5.79
   5   4  -2  101.69   65.61
   5   4  -2   92.88    7.81
  -5   4   2   97.71   10.16
  -5   4   2   99.47    9.98
  -5  -4   2  120.87   11.42
   5   4  -1   39.59   62.67
   5   4  -1   44.31    7.38
  -5   4   1   40.76    7.67
  -5   4   1   49.11    8.26
  -5  -4   1   54.86    8.66
   5   4   0  122.54   77.23
  -5   4   0   68.23   12.84
  -5   4   0  106.73   11.09
  -5  -4   0  114.87   11.42
   5   4   1  345.75  117.19
  -5   4  -1  356.01   31.97
  -5  -4  -1  400.06   30.56
   5   4   2   66.38   56.87
  -5   4  -2   60.65    9.14
  -5  -4  -2   58.36    8.41
   5   4   3   77.75   93.49
  -5   4  -3   58.49    8.82
  -5  -4  -3   58.30    8.37
   5   4   4   81.90   48.43
  -5   4  -4   54.02    8.00
  -5  -4  -4   56.55    8.15
   5  -4   4   38.27    7.92
   5   4   5   62.26   57.59
  -5   4  -5   71.17    8.42
  -5  -4  -5   66.39    8.39
   5  -4   5   44.55    5.63
   5   4   6  136.57   20.89
  -5   4  -6  148.84   10.07
  -5  -4  -6  119.78   12.42
   5  -4   6   96.09    7.90
  -5   4  -7    6.96    2.54
  -5  -4  -7   10.36    5.89
   5   5  -6   14.46    3.10
  -5   5   6    7.67    4.35
   5   5  -5   91.17    6.29
  -5   5   5   86.04    8.27
  -5  -5   5   89.16    7.89
  -5   5   4   17.14    5.13
   5   5  -4   21.06    6.53
   5  -5  -4    8.43    4.26
  -5  -5   4   13.60    3.55
   5   5  -3    8.35    3.90
  -5   5   3    3.29    4.43
  -5   5   3    5.27    4.31
  -5  -5   3    7.13    3.57
   5   5  -2   52.26   15.10
   5   5  -2   77.60    6.16
  -5   5   2   54.25    8.00
  -5   5   2   72.59   12.04
  -5  -5   2   67.13    6.53
   5   5  -1    8.03   40.63
   5   5  -1   30.29    4.26
  -5   5   1   19.41    5.37
  -5   5   1   36.69    6.66
   5   5   0  256.61   89.00
   5   5   0  198.23   11.52
  -5   5   0  288.87   21.40
  -5  -5   0  221.22   14.00
   5   5   1   99.79   61.08
  -5   5  -1   84.62    8.59
  -5  -5  -1   63.06    6.26
   5   5   2   52.41   25.83
  -5   5  -2   56.34    6.90
  -5  -5  -2   39.08    6.78
   5  -5   2   33.28    3.89
   5   5   3   71.81   25.94
  -5   5  -3   54.21    6.93
   5   5   4   62.02   21.36
  -5   5  -4   47.32    5.96
   6   0 -10    6.22    5.38
  -6   0  10    4.92    2.01
  -6   0  10    3.65    5.26
   6   0  -9   40.83   16.42
  -6   0   9   33.84    4.58
  -6   0   9   35.06    5.61
   6   0  -8   -1.89   16.54
  -6   0   8    8.51    5.75
  -6   0   8    4.47    3.89
   6   0  -7 1097.33   93.96
  -6   0   7  986.33   61.07
   6   0  -6  265.03   22.87
  -6   0   6  195.94   16.44
  -6   0   6  272.41   15.57
   6   0  -5  250.41   24.69
  -6   0   5  257.09   18.29
  -6   0   5  253.85   15.35
   6   0  -4   37.31    6.83
  -6   0   4   39.56    7.60
  -6   0   4   34.87    5.54
   6   0  -3   56.41    7.22
  -6   0   3   63.61    8.54
  -6   0   3   52.27    6.32
   6   0  -2  210.36   12.48
  -6   0   2  224.54   16.31
  -6   0   2  218.57   16.49
   6   0  -1   65.20    5.85
  -6   0   1   78.27    9.73
  -6   0   1   73.05    6.61
  -6   0   0  408.37   24.76
  -6   0   0  353.32   19.01
  -6   0  -1    0.13    5.03
  -6   0  -1    2.72    3.46
  -6   0  -2  172.00   15.35
  -6   0  -2  151.46   14.25
  -6   0  -3   45.19    8.08
  -6   0  -3   44.10    5.82
  -6   0  -4   97.86   17.02
  -6   0  -4  150.29   10.61
  -6   0  -5    6.67    4.70
  -6   0  -6 1070.88   77.57
  -6   0  -7    8.78    6.33
  -6   0  -8  111.27   11.65
   6   1 -10   23.97    9.35
  -6   1  10   14.50    3.54
   6  -1 -10   17.78   13.92
  -6  -1  10   30.55    4.41
  -6  -1  10   19.07    4.11
   6   1  -9   38.59    8.54
  -6   1   9   23.30    4.58
   6  -1  -9   43.87   27.50
  -6  -1   9   39.37    9.42
  -6  -1   9   27.02    5.42
   6   1  -8   70.66   17.59
  -6   1   8   44.57    5.95
   6  -1  -8   70.82   26.33
  -6  -1   8   82.60    8.21
  -6  -1   8   63.63    7.07
  -6   1   7   17.87    5.51
   6   1  -7   36.31   12.86
   6  -1  -7   36.49   16.48
  -6  -1   7   39.61    6.85
  -6  -1   7   22.65    5.00
  -6   1   6  102.29   10.97
   6   1  -6  124.83   18.23
   6  -1  -6  123.23   12.57
  -6  -1   6  140.58   16.62
  -6   1   5  428.25   27.33
   6   1  -5  403.78   30.40
   6  -1  -5  411.01   25.73
  -6  -1   5  351.26   31.38
  -6  -1   5  460.60   26.37
  -6   1   4  120.41   12.21
   6   1  -4  109.83   10.40
   6  -1  -4  128.77   10.55
  -6  -1   4  127.97   11.91
  -6  -1   4  145.85   12.00
  -6   1   3  342.59   22.83
   6  -1  -3  329.75   19.16
  -6  -1   3  341.37   22.04
  -6  -1   3  362.74   22.04
  -6   1   2   90.69   10.31
  -6   1   2   80.30    9.89
  -6  -1   2   91.37    9.70
  -6  -1   2   86.78   10.56
  -6   1   1  966.05   57.38
  -6   1   1  963.94   55.70
  -6  -1   1  994.77   60.42
  -6  -1   1 1015.77   74.28
  -6   1   0  198.06   14.59
  -6   1   0  181.65   17.61
  -6  -1   0  207.61   18.29
  -6   1  -1  804.20   45.65
  -6   1  -1  668.48   38.04
  -6  -1  -1  853.60   46.32
  -6  -1  -1  789.66   49.33
  -6   1  -2  297.53   19.74
  -6  -1  -2  329.59   43.40
  -6  -1  -2  335.31   20.53
  -6  -1  -3  248.16   34.93
  -6  -1  -3  274.42   17.96
  -6  -1  -4  454.39   62.00
  -6  -1  -4  520.41   31.00
  -6  -1  -5  449.45   28.74
  -6  -1  -6   59.41   10.33
  -6  -1  -7  248.58   25.38
  -6  -1  -8   42.16   12.15
   6   2  -9   75.18    8.22
   6  -2  -9   68.77   22.67
  -6  -2   9   97.98    8.23
  -6  -2   9   84.01    7.18
   6   2  -8  327.62   24.51
   6  -2  -8  357.72   81.88
  -6  -2   8  431.57   23.19
  -6  -2   8  336.96   20.79
  -6   2   7   20.01    6.02
   6   2  -7   23.78    8.08
   6  -2  -7   18.54   19.35
  -6  -2   7   33.61    7.14
  -6  -2   7   26.49    5.19
  -6   2   6  104.13   11.42
   6   2  -6   89.17   17.91
   6  -2  -6  109.37   14.08
  -6  -2   6  127.05   11.27
  -6  -2   6   79.28    7.83
  -6   2   5   15.03    6.20
   6   2  -5   16.27    5.92
   6  -2  -5    9.22    5.52
  -6  -2   5    4.35    6.14
  -6  -2   5   17.85    6.52
  -6  -2   5    9.63    3.70
  -6   2   4  236.52   17.34
   6  -2  -4  242.76   15.43
  -6  -2   4  204.79   22.90
  -6  -2   4  248.90   17.91
  -6   2   3  493.75   31.18
  -6   2   3  506.53   31.61
  -6  -2   3  512.41   30.50
  -6  -2   3  485.80   45.25
  -6   2   2  384.22   25.42
  -6   2   2  385.93   25.51
  -6  -2   2  410.03   24.93
  -6  -2   2  382.32   40.78
  -6   2   1  147.24   13.26
  -6   2   1  148.79   12.57
  -6  -2   1  226.55   16.21
  -6  -2   1  148.66   29.60
  -6   2   0  133.53   12.75
  -6   2   0  131.50   11.86
  -6  -2   0  182.27   14.35
  -6  -2   0  137.68   29.89
  -6   2  -1  391.91   33.60
  -6   2  -1  476.32   33.54
  -6  -2  -1  511.70   28.89
  -6  -2  -1  487.59   55.92
  -6   2  -2 1011.44   60.08
  -6  -2  -2 1075.28   61.81
  -6  -2  -2 1040.54  121.32
  -6   2  -3  340.46   21.75
  -6  -2  -3  440.93   32.28
  -6  -2  -3  502.51   73.76
   6   2   4   73.84    8.19
  -6  -2  -4   77.72    9.30
   6   2   5   42.82   11.03
  -6  -2  -5   88.47    9.65
  -6  -2  -6   91.01   12.53
  -6  -2  -7   71.28   19.70
  -6  -2  -8   32.24   16.90
  -6   3   8    4.91    3.21
   6   3  -8    7.42    3.87
   6  -3  -8    9.94   11.43
  -6  -3   8   16.38    7.66
  -6  -3   8   14.03    3.59
  -6   3   7   83.53    9.97
   6   3  -7   57.06   10.99
   6  -3  -7  109.59   26.67
  -6  -3   7  112.65    7.96
  -6   3   6   11.90    5.73
   6   3  -6   10.41    3.95
   6  -3  -6   16.99   10.70
  -6  -3   6   12.60   10.11
  -6  -3   6   16.65    4.12
  -6   3   5  220.15   16.96
   6  -3  -5  209.15   14.99
  -6  -3   5  244.82   16.96
  -6  -3   5  195.66   11.91
  -6   3   4  198.64   16.37
  -6  -3   4  216.96   16.76
  -6   3   3  103.66   11.92
  -6   3   3  105.66   11.94
  -6  -3   3  132.17   12.19
  -6  -3   3  101.15   17.95
  -6   3   2  410.84   26.02
  -6   3   2  415.36   35.14
  -6  -3   2  438.55   27.51
  -6  -3   2  431.24   47.20
  -6   3   1  109.98   11.83
  -6   3   1  118.55   11.20
  -6  -3   1  119.68   29.15
  -6   3   0   89.32   10.18
  -6   3   0  107.31   10.79
  -6  -3   0  124.59   11.66
  -6  -3   0  108.81   36.53
   6   3   1   -3.28   14.02
  -6   3  -1    2.21    3.89
  -6   3  -1    0.42    4.98
  -6  -3  -1    2.33    5.47
   6   3   2   64.33   18.13
  -6   3  -2   64.16    9.03
  -6  -3  -2   66.15    9.42
   6   3   3  149.82   18.23
  -6   3  -3  145.85   11.80
  -6  -3  -3  146.86   12.73
   6   3   4  147.59   35.38
  -6   3  -4  105.93    8.99
  -6  -3  -4  120.80   11.24
   6   3   5   82.82   29.35
  -6  -3  -5   76.26    9.49
   6   3   6    4.06    5.71
  -6  -3  -6    6.40    6.45
  -6  -3  -7   40.19   10.14
   6   4  -7   27.55    3.40
  -6   4   7   22.84    4.09
  -6  -4   7   41.45    4.46
  -6   4   6   16.96    5.09
   6   4  -6   14.90    3.38
   6  -4  -6   18.61    8.74
  -6  -4   6   22.83    7.35
  -6   4   5   25.25    5.77
   6   4  -5   14.64    3.55
   6  -4  -5   19.81   14.72
  -6  -4   5   26.77    5.37
  -6   4   4   46.43    7.77
   6  -4  -4   45.93    8.25
  -6  -4   4   53.17    7.10
   6   4  -3   32.50   34.04
  -6   4   3   25.27    6.61
  -6   4   3   29.53    6.86
  -6  -4   3   29.86    6.59
   6   4  -2    2.08   47.41
  -6   4   2   23.54    6.59
  -6   4   2   23.06    7.08
   6   4  -1  357.66  128.89
  -6   4   1  288.00   26.91
  -6   4   1  372.21   22.32
  -6  -4   1  370.29   22.07
   6   4   0   37.16   62.69
  -6   4   0   26.38    5.85
  -6   4   0   55.12    7.64
   6   4   1   83.95   66.06
  -6   4  -1   58.94    7.87
  -6  -4  -1   55.14    7.56
   6   4   2  121.83   69.99
  -6   4  -2  101.63    9.73
  -6  -4  -2  110.92    9.35
   6   4   3   92.04   53.55
  -6   4  -3   62.65    7.04
  -6  -4  -3   63.32   10.61
   6   4   4  101.80   45.20
  -6   4  -4   90.48    8.24
  -6  -4  -4   86.73    7.97
   6   4   5   11.30   11.12
  -6   4  -5    7.23    2.89
  -6  -4  -5    7.27    4.80
  -6   5   3    5.55    3.39
   6  -5  -3   14.71    4.37
  -6  -5   3   14.48    2.76
  -6   5   2   17.26    4.26
  -6  -5   2   39.67    3.84
   6   5  -1   43.79   15.35
  -6   5   1   50.45    6.24
  -6  -5   1   61.48    6.94
   6   5   0    8.55   16.03
  -6   5   0   13.44    7.16
  -6  -5   0   18.53    3.38
   6   5   1   33.02   16.39
  -6   5  -1   28.13    4.59
  -6  -5  -1   22.85    3.38
   7   0  -9  123.73   10.45
   7   0  -8   -0.19    8.97
   7   0  -7  101.41   17.11
  -7   0   7   18.20    4.84
   7   0  -6    5.79   11.37
  -7   0   6    5.43    4.51
   7   0  -5   16.31    8.09
  -7   0   5   15.74    6.23
   7   0  -4  112.06   11.65
  -7   0   4   98.04   11.08
   7   0  -3  177.09   18.03
  -7   0   3  234.23   17.21
   7   0  -2   21.79    5.09
  -7   0   2   40.47    7.90
  -7   0   1   17.42    7.24
  -7   0   0   -1.31   10.67
  -7   0  -1   32.09   10.23
  -7   0  -2  261.67   20.95
  -7   0  -3   47.75   15.61
   7   1  -8   91.70   10.50
   7  -1  -8  109.89   25.95
  -7  -1   8  126.48    7.67
   7   1  -7   46.44   14.06
   7  -1  -7   48.97   22.26
  -7  -1   7   59.50    6.41
  -7   1   6  113.50   13.16
   7   1  -6  157.35   18.93
   7  -1  -6  176.08   23.22
  -7  -1   6  195.50   12.05
  -7   1   5   68.16    9.65
   7   1  -5   44.16   10.34
   7  -1  -5   74.13   17.52
  -7  -1   5   48.14    9.24
  -7  -1   5   85.69    8.17
  -7   1   4  208.40   16.96
   7  -1  -4  195.55   15.20
  -7  -1   4  207.33   19.44
  -7  -1   4  241.38   15.04
  -7   1   3  195.83   15.73
   7  -1  -3  203.82   20.16
  -7  -1   3  178.27   18.02
  -7  -1   3  207.24   13.81
  -7   1   2   88.89   10.85
   7  -1  -2   77.55    8.59
  -7  -1   2   80.53   13.62
  -7  -1   2  101.14    9.21
  -7   1   1   19.01    6.92
   7  -1  -1   17.65    4.77
  -7  -1   1   16.95    9.79
  -7  -1   1   35.55    6.46
  -7   1   0  244.76   18.68
  -7  -1   0  268.54   22.75
  -7  -1   0  266.98   17.09
  -7   1  -1  124.68   13.04
  -7  -1  -1  125.27   31.71
  -7  -1  -1  147.53   11.31
  -7   1  -2   31.09    7.99
  -7  -1  -2   60.35   22.55
  -7  -1  -2   46.70    6.75
  -7   1  -3   20.83   14.24
  -7  -1  -3   66.47   31.30
  -7  -1  -3   61.90    7.36
   7   1   4   35.84    5.18
  -7  -1  -4   64.19    7.19
  -7  -1  -5   72.63    9.43
  -7  -1  -6    3.91    5.94
   7   2  -8   38.05    5.25
   7  -2  -8   58.75   17.23
  -7  -2   8   70.39    5.44
  -7   2   7    5.32    4.04
   7   2  -7    6.38    3.84
   7  -2  -7   28.44   15.00
  -7  -2   7   15.73    4.46
  -7   2   6   -4.18    4.68
   7   2  -6    1.01    3.57
   7  -2  -6  -11.48   12.74
  -7  -2   6   -0.81    4.25
  -7   2   5  107.78   15.54
   7  -2  -5  127.65   13.64
  -7  -2   5   48.19   14.63
  -7  -2   5  128.63   10.45
  -7   2   4  150.58   19.22
   7  -2  -4  151.37   18.04
  -7  -2   4  115.17   39.32
  -7  -2   4  180.51   17.83
  -7   2   3   82.98   15.09
   7  -2  -3   75.58    8.23
  -7  -2   3   87.56   23.69
  -7  -2   3   84.13    9.43
  -7   2   2   54.72    8.46
   7  -2  -2   47.45    6.80
  -7  -2   2   59.67   21.80
  -7  -2   2   55.69    8.29
  -7   2   1  286.91   20.70
  -7   2   1  314.86   22.54
  -7  -2   1  343.66   20.99
  -7  -2   1  313.83   46.03
  -7   2   0   41.92    7.69
  -7   2   0   40.84    7.44
  -7  -2   0   59.48   35.97
  -7   2  -1   64.09    8.94
  -7   2  -1   72.37    8.37
  -7  -2  -1  104.44    9.56
  -7  -2  -1   94.63   44.22
  -7   2  -2   39.26    5.63
  -7  -2  -2   65.76   11.11
  -7  -2  -2   48.53   37.07
   7   2   3   16.27    7.92
  -7  -2  -3   13.47    5.47
   7   2   4   10.46   16.48
  -7  -2  -4   25.37    5.95
  -7  -2  -5   37.23    7.65
  -7  -2  -6   45.27    9.68
  -7   3   6   40.38    6.19
   7  -3  -6   58.85   18.53
  -7  -3   6   62.80    6.41
  -7   3   5    3.36    4.46
   7  -3  -5    1.15    7.80
  -7  -3   5    4.41    4.63
   7   3  -4   32.86   29.75
  -7   3   4   77.06    8.72
   7  -3  -4   78.18    8.01
  -7  -3   4   95.24    8.96
   7   3  -3   -4.63   31.00
  -7   3   3   15.57    6.16
   7  -3  -3   16.24    5.47
  -7  -3   3   24.46    6.19
   7   3  -2  205.33   65.00
  -7   3   2  184.80   14.95
  -7  -3   2  247.87   15.70
   7   3  -1   46.78   31.00
  -7   3   1   24.88    6.29
  -7   3   1   25.69    6.83
   7   3   0   33.55   27.25
  -7   3   0   17.81    5.48
  -7   3   0   24.49    6.41
  -7  -3   0   32.51    6.74
   7   3   1   40.83   26.83
  -7   3  -1   55.09    8.17
  -7  -3  -1   64.04    7.71
   7   3   2   54.56   63.15
  -7   3  -2   60.28    7.73
  -7  -3  -2   84.19    8.14
   7   3   3   43.53   30.27
  -7   3  -3   30.16    4.76
  -7  -3  -3   64.64    9.89
   7   3   4    9.83   18.89
  -7  -3  -4   -0.39    3.76
  -7   4   4   29.00    7.53
   7  -4  -4   27.82    9.56
  -7  -4   4   48.33    4.93
  -7   4   3   -0.91    5.65
   7  -4  -3    7.36    4.15
  -7  -4   3    7.33    3.91
   7   4  -2   26.41   66.46
  -7   4   2   42.09    6.01
   7  -4  -2   56.25    6.34
   7   4  -1   48.94   52.51
  -7   4   1   38.99    6.15
   7   4   0  164.48  126.68
  -7   4   0  180.36   11.84
  -7  -4   0  191.71   15.98
   7   4   1  162.27   62.12
  -7   4  -1  120.10    9.13
  -7  -4  -1  148.47    8.97
   7   4   2   16.90   36.35
  -7   4  -2   19.12    4.63
  -7  -4  -2   26.81    4.40
   8   0  -6  181.53   18.03
  -8   0   6   98.51   19.77
   8   0  -5   63.90   12.66
  -8   0   5   82.73   11.32
   8   0  -4    5.09    5.40
  -8   0   4   10.40    6.70
   8   0  -3   -1.45    3.43
  -8   0   3   -0.23    6.84
  -8   0   2   24.30    9.40
  -8   0   1  197.26   19.50
  -8   0   0    9.57   22.68
  -8   0  -1   24.50   20.46
  -8   0  -2  -26.85   35.23
  -8   0  -3   40.89   16.45
  -8   1   6    5.22    4.80
   8   1  -6    4.80    2.81
   8  -1  -6   20.89   10.38
  -8   1   5   14.25    4.41
   8   1  -5    4.59    2.65
   8  -1  -5   15.55   14.12
  -8  -1   5   12.63   11.00
  -8  -1   5   11.67    2.54
  -8   1   4   88.47    9.23
   8  -1  -4   71.02   11.78
  -8  -1   4   68.09   25.31
  -8  -1   4   88.84    6.04
  -8   1   3    2.73    4.98
   8  -1  -3    5.60    4.80
  -8  -1   3    0.70   15.22
  -8  -1   3    1.81    2.88
  -8   1   2   98.63    9.94
  -8  -1   2   86.04   29.11
  -8  -1   2   88.50    7.00
  -8   1   1    6.99    8.88
   8  -1  -1    0.95    2.42
  -8  -1   1    5.71   17.26
  -8   1   0  152.47   16.65
  -8  -1   0  152.11   34.75
  -8  -1   0  136.63    9.32
  -8   1  -1   96.58   12.33
  -8  -1  -1  138.31   45.70
  -8  -1  -1   99.11    7.56
  -8   1  -2   18.45   11.01
  -8  -1  -2    5.80   30.02
  -8  -1  -2   24.64    3.82
  -8  -1  -3   30.88    4.36
  -8   2   5   35.22    5.77
   8  -2  -5   42.91   12.99
  -8  -2   5   55.68    4.90
  -8   2   4   19.74    5.65
   8  -2  -4   17.41   10.15
  -8  -2   4   30.44    4.69
  -8   2   3   47.56    7.36
   8  -2  -3   45.36    7.33
  -8  -2   3   56.79   32.05
  -8  -2   3   64.51    6.53
  -8   2   2   19.72    5.67
   8  -2  -2   19.56    5.12
  -8  -2   2   14.86   28.82
  -8  -2   2   33.52    5.50
  -8   2   1   32.64    6.24
  -8  -2   1   53.89   36.18
  -8  -2   1   63.37    6.78
  -8   2   0   71.19   14.06
  -8  -2   0  114.29   46.24
  -8  -2   0  115.27   12.55
   8   2   1   54.05   19.73
  -8  -2  -1   48.52    6.16
   8   2   2  114.87   18.38
  -8  -2  -2  157.15   10.41
   8   2   3   43.90   19.22
  -8  -2  -3   51.47    9.20
   8  -3  -2   55.73    7.03
  -8  -3   2   90.44    6.22
   8   3  -1   20.58   38.34
  -8   3   1   15.41    3.89
   8  -3  -1   28.19    6.54
   0   0   0    0.00    0.00

_computing_structure_solution     'SHELXT 2018/2 (Sheldrick, 2018)'
;
_shelx_hkl_checksum              6912
loop_
_space_group_symop_id
_space_group_symop_operation_xyz
1 +X,+Y,+Z
2 -X,1/2+Y,-Z
loop_
_atom_site_label
_atom_site_type_symbol
_atom_site_fract_x
_atom_site_fract_y
_atom_site_fract_z
_atom_site_U_iso_or_equiv
_atom_site_adp_type
_atom_site_occupancy
_atom_site_site_symmetry_order
_atom_site_calc_flag
_atom_site_refinement_flags_posn
_atom_site_refinement_flags_adp
O1 O 0.6797(3) 0.4063(4) 0.75248(17) 0.0362(5) Uani 1 1 d . .
O2 O 0.7453(3) 0.7558(4) 0.82433(19) 0.0441(6) Uani 1 1 d . .
O3 O 0.4398(3) 0.8623(3) 0.95571(16) 0.0369(5) Uani 1 1 d . .
N1 N 0.4428(3) 0.6228(4) 0.7947(2) 0.0271(5) Uani 1 1 d . .
C1 C 0.3663(4) 0.7084(5) 0.8975(2) 0.0286(6) Uani 1 1 d . .
C2 C 0.1925(4) 0.5996(5) 0.9292(3) 0.0336(7) Uani 1 1 d . .
H2A H 0.088497 0.696376 0.897627 0.040 Uiso 1 1 calc R U
H2B H 0.193775 0.595304 1.018260 0.040 Uiso 1 1 calc R U
C3 C 0.1605(4) 0.3585(5) 0.8803(2) 0.0345(7) Uani 1 1 d . .
H3A H 0.253178 0.253686 0.919997 0.041 Uiso 1 1 calc R U
H3B H 0.038072 0.304364 0.897366 0.041 Uiso 1 1 calc R U
C4 C 0.1741(4) 0.3620(5) 0.7457(2) 0.0288(6) Uani 1 1 d . .
H4 H 0.086079 0.480109 0.711230 0.035 Uiso 1 1 calc R U
C5 C 0.1245(4) 0.1401(5) 0.6783(3) 0.0374(7) Uani 1 1 d . .
H5A H 0.199781 0.014052 0.715425 0.045 Uiso 1 1 calc R U
H5B H -0.005501 0.103316 0.685112 0.045 Uiso 1 1 calc R U
C6 C 0.1567(4) 0.1623(5) 0.5472(3) 0.0357(7) Uani 1 1 d . .
H6 H 0.106831 0.049509 0.492248 0.043 Uiso 1 1 calc R U
C7 C 0.2509(4) 0.3312(5) 0.5046(2) 0.0334(7) Uani 1 1 d . .
H7 H 0.259068 0.338136 0.419916 0.040 Uiso 1 1 calc R U
C8 C 0.3459(4) 0.5129(5) 0.5827(2) 0.0313(7) Uani 1 1 d . .
H8A H 0.275410 0.656553 0.573967 0.038 Uiso 1 1 calc R U
H8B H 0.468955 0.541272 0.556755 0.038 Uiso 1 1 calc R U
C9 C 0.3628(4) 0.4361(4) 0.7157(2) 0.0265(6) Uani 1 1 d . .
C10 C 0.5171(4) 0.2624(5) 0.7377(3) 0.0325(7) Uani 1 1 d . .
H10A H 0.503962 0.171523 0.811330 0.039 Uiso 1 1 calc R U
H10B H 0.520769 0.158326 0.667869 0.039 Uiso 1 1 calc R U
C11 C 0.6344(4) 0.6114(5) 0.7951(2) 0.0321(7) Uani 1 1 d . .
loop_
_atom_site_aniso_label
_atom_site_aniso_U_11
_atom_site_aniso_U_22
_atom_site_aniso_U_33
_atom_site_aniso_U_23
_atom_site_aniso_U_13
_atom_site_aniso_U_12
O1 0.0279(11) 0.0415(12) 0.0394(11) -0.0040(9) 0.0042(8) 0.0038(9)
O2 0.0365(13) 0.0516(14) 0.0438(13) -0.0057(10) 0.0024(10) -0.0137(11)
O3 0.0481(13) 0.0273(10) 0.0345(11) -0.0045(9) 0.0004(9) 0.0004(10)
N1 0.0275(13) 0.0267(11) 0.0272(11) -0.0017(9) 0.0035(9) -0.0015(10)
C1 0.0341(17) 0.0249(13) 0.0262(14) 0.0009(11) -0.0003(12) 0.0062(12)
C2 0.0315(16) 0.0414(16) 0.0284(14) -0.0003(13) 0.0055(13) 0.0065(14)
C3 0.0333(16) 0.0409(16) 0.0300(15) 0.0034(14) 0.0067(12) -0.0032(15)
C4 0.0279(15) 0.0291(13) 0.0292(14) 0.0011(12) 0.0021(11) -0.0007(13)
C5 0.0393(18) 0.0344(16) 0.0381(16) -0.0019(14) 0.0012(14) -0.0070(15)
C6 0.0354(17) 0.0347(16) 0.0351(16) -0.0074(13) -0.0062(13) 0.0002(13)
C7 0.0357(16) 0.0367(16) 0.0274(14) -0.0025(13) 0.0017(11) 0.0077(13)
C8 0.0328(17) 0.0330(15) 0.0284(15) 0.0016(12) 0.0038(12) -0.0003(13)
C9 0.0293(15) 0.0243(13) 0.0260(14) -0.0008(11) 0.0030(11) 0.0001(11)
C10 0.0327(17) 0.0300(14) 0.0344(16) -0.0021(12) 0.0010(12) 0.0013(12)
C11 0.0307(16) 0.0376(15) 0.0283(14) 0.0018(13) 0.0053(12) -0.0030(14)
loop_
_atom_type_symbol
_atom_type_description
_atom_type_scat_dispersion_real
_atom_type_scat_dispersion_imag
_atom_type_scat_source
C C 0.0181 0.0091
;
International Tables for Crystallography
(Vol. C, Tables 4.2.6.8 and 6.1.1.4)
;
H H 0.0000 0.0000
;
International Tables for Crystallography
(Vol. C, Table 6.1.1.4)
;
O O 0.0492 0.0322
;
International Tables for Crystallography
(Vol. C, Tables 4.2.6.8 and 6.1.1.4)
;
N N 0.0311 0.0180
;
International Tables for Crystallography
(Vol. C, Tables 4.2.6.8 and 6.1.1.4)
;
loop_
_geom_angle_atom_site_label_1
_geom_angle_atom_site_label_2
_geom_angle_atom_site_label_3
_geom_angle
C11 O1 C10 109.2(2)
C11 N1 C1 119.3(2)
C11 N1 C9 107.7(2)
C1 N1 C9 125.0(2)
O3 C1 N1 120.5(3)
O3 C1 C2 122.7(2)
N1 C1 C2 116.8(2)
C1 C2 C3 114.7(2)
C1 C2 H2A 108.6
C3 C2 H2A 108.6
C1 C2 H2B 108.6
C3 C2 H2B 108.6
H2A C2 H2B 107.6
C4 C3 C2 108.5(2)
C4 C3 H3A 110.0
C2 C3 H3A 110.0
C4 C3 H3B 110.0
C2 C3 H3B 110.0
H3A C3 H3B 108.4
C3 C4 C9 111.7(2)
C3 C4 C5 116.0(2)
C9 C4 C5 108.4(2)
C3 C4 H4 106.7
C9 C4 H4 106.7
C5 C4 H4 106.7
C6 C5 C4 110.4(2)
C6 C5 H5A 109.6
C4 C5 H5A 109.6
C6 C5 H5B 109.6
C4 C5 H5B 109.6
H5A C5 H5B 108.1
C7 C6 C5 123.2(3)
C7 C6 H6 118.4
C5 C6 H6 118.4
C6 C7 C8 123.7(3)
C6 C7 H7 118.1
C8 C7 H7 118.1
C7 C8 C9 109.7(2)
C7 C8 H8A 109.7
C9 C8 H8A 109.7
C7 C8 H8B 109.7
C9 C8 H8B 109.7
H8A C8 H8B 108.2
N1 C9 C4 113.4(2)
N1 C9 C10 98.7(2)
C4 C9 C10 116.9(2)
N1 C9 C8 110.0(2)
C4 C9 C8 107.7(2)
C10 C9 C8 109.9(2)
O1 C10 C9 102.6(2)
O1 C10 H10A 111.2
C9 C10 H10A 111.2
O1 C10 H10B 111.2
C9 C10 H10B 111.2
H10A C10 H10B 109.2
O2 C11 O1 122.8(3)
O2 C11 N1 128.3(3)
O1 C11 N1 108.8(2)
loop_
_geom_bond_atom_site_label_1
_geom_bond_atom_site_label_2
_geom_bond_distance
O1 C11 1.347(4)
O1 C10 1.460(3)
O2 C11 1.200(3)
O3 C1 1.208(3)
N1 C11 1.410(3)
N1 C1 1.414(3)
N1 C9 1.491(3)
C1 C2 1.501(4)
C2 C3 1.526(4)
C2 H2A 0.9900
C2 H2B 0.9900
C3 C4 1.510(3)
C3 H3A 0.9900
C3 H3B 0.9900
C4 C9 1.521(3)
C4 C5 1.530(4)
C4 H4 1.0000
C5 C6 1.505(4)
C5 H5A 0.9900
C5 H5B 0.9900
C6 C7 1.323(4)
C6 H6 0.9500
C7 C8 1.505(4)
C7 H7 0.9500
C8 C9 1.539(3)
C8 H8A 0.9900
C8 H8B 0.9900
C9 C10 1.528(4)
C10 H10A 0.9900
C10 H10B 0.9900
loop_
_geom_torsion_atom_site_label_1
_geom_torsion_atom_site_label_2
_geom_torsion_atom_site_label_3
_geom_torsion_atom_site_label_4
_geom_torsion
C11 N1 C1 O3 35.9(4)
C9 N1 C1 O3 -179.2(2)
C11 N1 C1 C2 -144.2(3)
C9 N1 C1 C2 0.7(4)
O3 C1 C2 C3 -157.1(3)
N1 C1 C2 C3 23.0(4)
C1 C2 C3 C4 -53.7(3)
C2 C3 C4 C9 61.7(3)
C2 C3 C4 C5 -173.4(2)
C3 C4 C5 C6 -176.0(2)
C9 C4 C5 C6 -49.4(3)
C4 C5 C6 C7 13.5(4)
C5 C6 C7 C8 3.6(5)
C6 C7 C8 C9 15.9(4)
C11 N1 C9 C4 155.7(2)
C1 N1 C9 C4 7.5(3)
C11 N1 C9 C10 31.2(3)
C1 N1 C9 C10 -117.0(3)
C11 N1 C9 C8 -83.7(3)
C1 N1 C9 C8 128.1(3)
C3 C4 C9 N1 -39.1(3)
C5 C4 C9 N1 -168.1(2)
C3 C4 C9 C10 74.9(3)
C5 C4 C9 C10 -54.2(3)
C3 C4 C9 C8 -161.0(2)
C5 C4 C9 C8 69.9(3)
C7 C8 C9 N1 -175.4(2)
C7 C8 C9 C4 -51.3(3)
C7 C8 C9 C10 77.0(3)
C11 O1 C10 C9 27.5(3)
N1 C9 C10 O1 -34.1(2)
C4 C9 C10 O1 -156.1(2)
C8 C9 C10 O1 80.9(2)
C10 O1 C11 O2 174.0(3)
C10 O1 C11 N1 -7.7(3)
C1 N1 C11 O2 -47.7(4)
C9 N1 C11 O2 162.0(3)
C1 N1 C11 O1 134.2(2)
C9 N1 C11 O1 -16.2(3)
