#------------------------------------------------------------------------------
#$Date: 2019-11-04 13:51:53 +0200 (Mon, 04 Nov 2019) $
#$Revision: 222933 $
#$URL: file:///home/coder/svn-repositories/cod/cif/4/03/43/4034399.cif $
#------------------------------------------------------------------------------
#
# This file is available in the Crystallography Open Database (COD),
# http://www.crystallography.net/
#
# All data on this site have been placed in the public domain by the
# contributors.
#
data_4034399
loop_
_publ_author_name
'Klepp, Julian'
'Sadgrove, Nicholas J.'
'Legendre, Sarah V. A.-M.'
'Sumby, Christopher J.'
'Greatrex, Ben W.'
_publ_section_title
;
 Biomimetic Synthesis of Mitchellenes B-H from the Abundant Biological
 Precursor 14-Hydroxy-6,12-muuroloadien-15-oic Acid.
;
_journal_issue                   15
_journal_name_full               'The Journal of organic chemistry'
_journal_page_first              9637
_journal_page_last               9647
_journal_paper_doi               10.1021/acs.joc.9b00961
_journal_volume                  84
_journal_year                    2019
_chemical_absolute_configuration ad
_chemical_formula_moiety         'C15 H22 O2'
_chemical_formula_sum            'C15 H22 O2'
_chemical_formula_weight         234.32
_space_group_crystal_system      monoclinic
_space_group_IT_number           4
_space_group_name_Hall           'P 2yb'
_space_group_name_H-M_alt        'P 1 21 1'
_atom_sites_solution_hydrogens   geom
_atom_sites_solution_primary     direct
_audit_creation_date             2019-01-08
_audit_creation_method
;
Olex2 1.2
(compiled 2016.02.19 svn.r3266 for OlexSys, GUI svn.r5155)
;
_cell_angle_alpha                90
_cell_angle_beta                 100.178(7)
_cell_angle_gamma                90
_cell_formula_units_Z            2
_cell_length_a                   10.4256(8)
_cell_length_b                   5.0334(3)
_cell_length_c                   12.3473(8)
_cell_measurement_reflns_used    4468
_cell_measurement_temperature    150.00(14)
_cell_measurement_theta_max      27.5420
_cell_measurement_theta_min      3.5640
_cell_volume                     637.74(8)
_computing_cell_refinement       'CrysAlisPro 1.171.38.46 (Rigaku OD, 2015)'
_computing_data_collection       'CrysAlisPro 1.171.38.46 (Rigaku OD, 2015)'
_computing_data_reduction        'CrysAlisPro 1.171.38.46 (Rigaku OD, 2015)'
_computing_molecular_graphics    'Olex2 (Dolomanov et al., 2009)'
_computing_publication_material  'Olex2 (Dolomanov et al., 2009)'
_computing_structure_refinement  'ShelXL (Sheldrick, 2015)'
_computing_structure_solution    'ShelXS (Sheldrick, 2008)'
_diffrn_ambient_environment      N~2~
_diffrn_ambient_temperature      150.00(14)
_diffrn_detector                 'CCD plate'
_diffrn_detector_area_resol_mean 16.1695
_diffrn_detector_type            Eos
_diffrn_measured_fraction_theta_full 0.993
_diffrn_measured_fraction_theta_max 0.938
_diffrn_measurement_details
;
List of Runs (angles in degrees, time in seconds):

  # Type    Start    End  Width  t~exp~   \w     \q     \k     \f   Frames
--------------------------------------------------------------------------
  1  \w    -13.00  87.00   1.00   25.00    --   16.75  77.00-120.00  100
  2  \w    -13.00  87.00   1.00   25.00    --   16.75  77.00  60.00  100
  3  \w    -13.00  87.00   1.00   25.00    --   16.75  77.00-150.00  100
  4  \w    -47.00  53.00   1.00   25.00    --  -17.30  77.00 -30.00  100
  5  \w    -47.00  53.00   1.00   25.00    --  -17.30  77.00-120.00  100
  6  \w    -47.00  53.00   1.00   25.00    --  -17.30  77.00  60.00  100
  7  \w     -5.00  86.00   1.00   25.00    --   16.75  57.00   0.00   91
  8  \w    -56.00  43.00   1.00   25.00    --   16.75 -37.00 120.00   99
  9  \w    -25.00  25.00   1.00   25.00    --  -17.30 -99.00  90.00   50
 10  \w    -38.00  52.00   1.00   25.00    --  -17.30  57.00 -60.00   90
 11  \w    -25.00  25.00   1.00   25.00    --  -17.30 -99.00 -60.00   50
 12  \w    -25.00  59.00   1.00   25.00    --   16.75 -99.00  30.00   84
 13  \w    -25.00  59.00   1.00   25.00    --   16.75 -99.00-150.00   84
 14  \w     35.00  93.00   1.00   25.00    --   16.75 178.00-150.00   58
 15  \w    -56.00  90.00   1.00   25.00    --   16.75   0.00-180.00  146
 16  \w    -38.00  52.00   1.00   25.00    --  -17.30  57.00 -30.00   90
 17  \w    -56.00 -13.00   1.00   25.00    --   16.75   0.00-120.00   43
 18  \w    -56.00  90.00   1.00   25.00    --   16.75   0.00-150.00  146
;
_diffrn_measurement_device       'four-circle diffractometer'
_diffrn_measurement_device_type  'Xcalibur, Eos'
_diffrn_measurement_method       '\w scans'
_diffrn_orient_matrix_type
'CrysAlisPro convention (1999,Acta A55,543-557)'
_diffrn_orient_matrix_UB_11      -0.0586738000
_diffrn_orient_matrix_UB_12      -0.0059235000
_diffrn_orient_matrix_UB_13      0.0214833000
_diffrn_orient_matrix_UB_21      -0.0100928000
_diffrn_orient_matrix_UB_22      -0.1324266000
_diffrn_orient_matrix_UB_23      -0.0192467000
_diffrn_orient_matrix_UB_31      0.0351811000
_diffrn_orient_matrix_UB_32      -0.0479075000
_diffrn_orient_matrix_UB_33      0.0507127000
_diffrn_radiation_monochromator  graphite
_diffrn_radiation_probe          x-ray
_diffrn_radiation_type           MoK\a
_diffrn_radiation_wavelength     0.71073
_diffrn_reflns_av_R_equivalents  0.0567
_diffrn_reflns_av_unetI/netI     0.0440
_diffrn_reflns_Laue_measured_fraction_full 0.993
_diffrn_reflns_Laue_measured_fraction_max 0.938
_diffrn_reflns_limit_h_max       13
_diffrn_reflns_limit_h_min       -13
_diffrn_reflns_limit_k_max       6
_diffrn_reflns_limit_k_min       -6
_diffrn_reflns_limit_l_max       16
_diffrn_reflns_limit_l_min       -15
_diffrn_reflns_number            20319
_diffrn_reflns_point_group_measured_fraction_full 0.989
_diffrn_reflns_point_group_measured_fraction_max 0.911
_diffrn_reflns_theta_full        27.000
_diffrn_reflns_theta_max         28.437
_diffrn_reflns_theta_min         3.353
_diffrn_source                   'fine-focus sealed X-ray tube'
_diffrn_source_type              'Enhance (Mo) X-ray Source'
_exptl_absorpt_coefficient_mu    0.079
_exptl_absorpt_correction_T_max  1.00000
_exptl_absorpt_correction_T_min  0.90449
_exptl_absorpt_correction_type   multi-scan
_exptl_absorpt_process_details
;
CrysAlisPro 1.171.38.46 (Rigaku Oxford Diffraction, 2015)
Empirical absorption correction using spherical harmonics,
 implemented in SCALE3 ABSPACK scaling algorithm.
;
_exptl_crystal_colour            colourless
_exptl_crystal_density_diffrn    1.220
_exptl_crystal_description       needle
_exptl_crystal_F_000             256
_exptl_crystal_size_max          0.5
_exptl_crystal_size_mid          0.08
_exptl_crystal_size_min          0.02
_refine_diff_density_max         0.253
_refine_diff_density_min         -0.184
_refine_diff_density_rms         0.043
_refine_ls_abs_structure_details
;
 Flack x determined using 989 quotients [(I+)-(I-)]/[(I+)+(I-)]
 (Parsons, Flack and Wagner, Acta Cryst. B69 (2013) 249-259).
;
_refine_ls_abs_structure_Flack   -1.1(7)
_refine_ls_extinction_method     none
_refine_ls_goodness_of_fit_ref   1.049
_refine_ls_hydrogen_treatment    constr
_refine_ls_matrix_type           full
_refine_ls_number_parameters     157
_refine_ls_number_reflns         2936
_refine_ls_number_restraints     1
_refine_ls_restrained_S_all      1.049
_refine_ls_R_factor_all          0.0537
_refine_ls_R_factor_gt           0.0421
_refine_ls_shift/su_max          0.000
_refine_ls_shift/su_mean         0.000
_refine_ls_structure_factor_coef Fsqd
_refine_ls_weighting_details
'w=1/[\s^2^(Fo^2^)+(0.0362P)^2^+0.1166P] where P=(Fo^2^+2Fc^2^)/3'
_refine_ls_weighting_scheme      calc
_refine_ls_wR_factor_gt          0.0821
_refine_ls_wR_factor_ref         0.0871
_reflns_Friedel_coverage         0.750
_reflns_Friedel_fraction_full    0.985
_reflns_Friedel_fraction_max     0.877
_reflns_number_gt                2546
_reflns_number_total             2936
_reflns_threshold_expression     'I > 2\s(I)'
_iucr_refine_instructions_details
;
TITL NJS-Ald in P21 #4
REM reset to P21 #4
REM NJS-Ald in P21 #4
REM 77 parameters refined using 0 restraints
REM Highest difference peak 4.760, deepest hole -1.342, 1-sigma level 0.385
REM 157 parameters refined using 1 restraints
REM Highest difference peak 0.253, deepest hole -0.184, 1-sigma level 0.043
CELL 0.71073 10.425572 5.033359 12.347271 90 100.178 90
ZERR 2 0.000825 0.00033 0.000812 0 0.0069 0
LATT -1
SYMM -X,0.5+Y,-Z
SFAC C H O
UNIT 30 44 4
 
L.S. 20
PLAN  5
SIZE 0.5 0.08 0.02
TEMP -123(2)
GRID
BOND $H
CONF
MORE -1
fmap 2
acta 54
MERG 2
REM <olex2.extras>
REM <HklSrc "%.\\NJS-Ald.hkl">
REM </olex2.extras>
 
WGHT    0.036200    0.116600
FVAR       9.53409
C1    1   -0.610459   -0.498877   -0.350463    11.00000    0.02147    0.01863 =
         0.02163   -0.00405    0.00590   -0.00046
AFIX  13
H1    2   -0.623480   -0.693845   -0.363601    11.00000   -1.20000
AFIX   0
C2    1   -0.715184   -0.358397   -0.433680    11.00000    0.02433    0.02669 =
         0.01583   -0.00162    0.00479   -0.00051
AFIX  23
H2A   2   -0.701059   -0.164064   -0.427675    11.00000   -1.20000
H2B   2   -0.706052   -0.412821   -0.508992    11.00000   -1.20000
AFIX   0
C3    1   -0.853790   -0.421844   -0.415876    11.00000    0.02086    0.02903 =
         0.01687    0.00040    0.00157   -0.00031
AFIX  23
H3A   2   -0.917805   -0.319275   -0.468441    11.00000   -1.20000
H3B   2   -0.872159   -0.613358   -0.428653    11.00000   -1.20000
AFIX   0
C4    1   -0.865467   -0.349461   -0.299189    11.00000    0.01521    0.01748 =
         0.01597   -0.00054    0.00087   -0.00227
AFIX  13
H4    2   -0.845717   -0.155763   -0.288819    11.00000   -1.20000
AFIX   0
C5    1   -0.765336   -0.503299   -0.217118    11.00000    0.01805    0.01174 =
         0.01632   -0.00002    0.00278   -0.00139
AFIX  13
H5    2   -0.781758   -0.696558   -0.232470    11.00000   -1.20000
AFIX   0
C6    1   -0.803690   -0.444982   -0.103994    11.00000    0.01563    0.01539 =
         0.01593    0.00191    0.00218   -0.00245
AFIX  13
H6    2   -0.800804   -0.613937   -0.061021    11.00000   -1.20000
AFIX   0
C7    1   -0.715317   -0.245044   -0.039044    11.00000    0.01450    0.01636 =
         0.01692    0.00000   -0.00129    0.00327
C8    1   -0.619510   -0.118179   -0.077298    11.00000    0.01427    0.01451 =
         0.02082   -0.00200   -0.00124   -0.00058
AFIX  43
H8    2   -0.571930    0.013561   -0.031832    11.00000   -1.20000
AFIX   0
C9    1   -0.582797   -0.170697   -0.186804    11.00000    0.01473    0.01455 =
         0.02093    0.00066    0.00216   -0.00199
AFIX  23
H9A   2   -0.487167   -0.153721   -0.180572    11.00000   -1.20000
H9B   2   -0.624281   -0.036067   -0.240197    11.00000   -1.20000
AFIX   0
C10   1   -0.625080   -0.448433   -0.229517    11.00000    0.01621    0.01277 =
         0.01897    0.00106    0.00267    0.00065
AFIX  13
H10   2   -0.568505   -0.579946   -0.182678    11.00000   -1.20000
AFIX   0
C11   1   -0.473571   -0.435037   -0.370979    11.00000    0.02384    0.03564 =
         0.02519   -0.00352    0.00855    0.00143
AFIX 137
H11A  2   -0.466577   -0.484385   -0.446493    11.00000   -1.50000
H11B  2   -0.409417   -0.535399   -0.319181    11.00000   -1.50000
H11C  2   -0.456869   -0.244358   -0.360430    11.00000   -1.50000
AFIX   0
C12   1   -0.990502   -0.406765   -0.254845    11.00000    0.01740    0.01969 =
         0.01740    0.00048    0.00139   -0.00444
AFIX  13
H12   2   -1.008329   -0.601724   -0.262355    11.00000   -1.20000
AFIX   0
C13   1   -1.111852   -0.259947   -0.310891    11.00000    0.01636    0.03851 =
         0.02067    0.00028    0.00038   -0.00121
AFIX 137
H13A  2   -1.182626   -0.288558   -0.269452    11.00000   -1.50000
H13B  2   -1.138105   -0.327221   -0.386022    11.00000   -1.50000
H13C  2   -1.092965   -0.069521   -0.313289    11.00000   -1.50000
AFIX   0
O14   3   -0.947721   -0.064358   -0.111828    11.00000    0.01735    0.02408 =
         0.02662   -0.00684    0.00121    0.00467
AFIX 147
H14   2   -1.024548   -0.011645   -0.113814    11.00000   -1.20000
AFIX   0
C14   1   -0.948006   -0.344492   -0.131997    11.00000    0.01668    0.02009 =
         0.01831    0.00133    0.00343   -0.00327
AFIX  13
H14A  2   -1.004300   -0.439577   -0.086842    11.00000   -1.20000
AFIX   0
O15   3   -0.799795   -0.308160    0.126103    11.00000    0.02452    0.04061 =
         0.02134   -0.00039    0.00582   -0.00451
C15   1   -0.732464   -0.185217    0.073385    11.00000    0.01657    0.02699 =
         0.02179   -0.00421    0.00102   -0.00172
AFIX  43
H15   2   -0.686550   -0.036297    0.108135    11.00000   -1.20000
AFIX   0
HKLF 4
 
REM  NJS-Ald in P21 #4
REM R1 =  0.0421 for    2546 Fo > 4sig(Fo)  and  0.0537 for all    2936 data
REM    157 parameters refined using      1 restraints
 
END  
     
WGHT      0.0361      0.1165 

REM Highest difference peak  0.253,  deepest hole -0.184,  1-sigma level  0.043
Q1    1  -0.9420 -0.3790 -0.2966  11.00000  0.05    0.25
Q2    1  -0.6421 -0.2571 -0.0374  11.00000  0.05    0.25
Q3    1  -0.7036 -0.1263 -0.0781  11.00000  0.05    0.20
Q4    1  -0.7838 -0.3763 -0.4244  11.00000  0.05    0.19
Q5    1  -0.8702 -0.3714 -0.3593  11.00000  0.05    0.19

  REM The information below was added by Olex2.
  REM
  REM R1 = 0.0421 for 2546 Fo > 4sig(Fo) and 0.0537 for all 20353 data
  REM n/a parameters refined using n/a restraints
  REM Highest difference peak 0.25, deepest hole -0.18
  REM Mean Shift 0, Max Shift 0.000.
  
  REM +++ Tabular Listing of Refinement Information +++
  REM R1_all = 0.0537
  REM R1_gt = 0.0421
  REM wR_ref = 0.0871
  REM GOOF = 1.049
  REM Shift_max = 0.000
  REM Shift_mean = 0
  REM Reflections_all = 20353
  REM Reflections_gt = 2546
  REM Parameters = n/a
  REM Hole = -0.18
  REM Peak = 0.25
  REM Flack = -1.1(7)
  
  
;
_cod_data_source_file            jo9b00961_si_002.cif
_cod_data_source_block           10
_cod_original_cell_volume        637.73(8)
_cod_database_code               4034399
_shelxl_version_number           2014/6
_chemical_oxdiff_formula         C17H13O2
_shelx_space_group_comment
;
The symmetry employed for this shelxl refinement is uniquely defined
by the following loop, which should always be used as a source of
symmetry information in preference to the above space-group names.
They are only intended as comments.
;
_shelx_estimated_absorpt_t_max   0.998
_shelx_estimated_absorpt_t_min   0.962
_reflns_odcompleteness_completeness 99.69
_reflns_odcompleteness_iscentric 1
_reflns_odcompleteness_theta     25.30
_olex2_refinement_description
;
1. Fixed Uiso
 At 1.2 times of:
  All C(H) groups, All C(H,H) groups, All O(H) groups
 At 1.5 times of:
  All C(H,H,H) groups
2.a Ternary CH refined with riding coordinates:
 C1(H1), C4(H4), C5(H5), C6(H6), C10(H10), C12(H12), C14(H14A)
2.b Secondary CH2 refined with riding coordinates:
 C2(H2A,H2B), C3(H3A,H3B), C9(H9A,H9B)
2.c Aromatic/amide H refined with riding coordinates:
 C8(H8), C15(H15)
2.d Idealised Me refined as rotating group:
 C11(H11A,H11B,H11C), C13(H13A,H13B,H13C)
2.e Idealised tetrahedral OH refined as rotating group:
 O14(H14)
;
_olex2_submission_special_instructions 'No special instructions were received'
_oxdiff_exptl_absorpt_empirical_details
;
Empirical correction (ABSPACK) includes:
- Absorption correction using spherical harmonics
- Frame scaling
;
_oxdiff_exptl_absorpt_empirical_full_max 1.117
_oxdiff_exptl_absorpt_empirical_full_min 0.921
loop_
_space_group_symop_operation_xyz
'x, y, z'
'-x, y+1/2, -z'
loop_
_atom_site_label
_atom_site_type_symbol
_atom_site_fract_x
_atom_site_fract_y
_atom_site_fract_z
_atom_site_U_iso_or_equiv
_atom_site_adp_type
_atom_site_occupancy
_atom_site_site_symmetry_order
_atom_site_calc_flag
_atom_site_refinement_flags_posn
C1 C -0.6105(2) -0.4989(4) -0.35046(17) 0.0203(5) Uani 1 1 d .
H1 H -0.6235 -0.6938 -0.3636 0.024 Uiso 1 1 calc R
C2 C -0.7152(2) -0.3584(5) -0.43368(17) 0.0221(5) Uani 1 1 d .
H2A H -0.7011 -0.1641 -0.4277 0.027 Uiso 1 1 calc R
H2B H -0.7061 -0.4128 -0.5090 0.027 Uiso 1 1 calc R
C3 C -0.8538(2) -0.4218(5) -0.41588(17) 0.0225(5) Uani 1 1 d .
H3A H -0.9178 -0.3193 -0.4684 0.027 Uiso 1 1 calc R
H3B H -0.8722 -0.6134 -0.4287 0.027 Uiso 1 1 calc R
C4 C -0.86547(19) -0.3495(4) -0.29919(16) 0.0165(4) Uani 1 1 d .
H4 H -0.8457 -0.1558 -0.2888 0.020 Uiso 1 1 calc R
C5 C -0.7653(2) -0.5033(4) -0.21712(16) 0.0154(4) Uani 1 1 d .
H5 H -0.7818 -0.6966 -0.2325 0.018 Uiso 1 1 calc R
C6 C -0.80369(19) -0.4450(4) -0.10399(16) 0.0157(4) Uani 1 1 d .
H6 H -0.8008 -0.6139 -0.0610 0.019 Uiso 1 1 calc R
C7 C -0.71532(19) -0.2450(4) -0.03904(16) 0.0164(4) Uani 1 1 d .
C8 C -0.6195(2) -0.1182(4) -0.07730(17) 0.0171(5) Uani 1 1 d .
H8 H -0.5719 0.0136 -0.0318 0.020 Uiso 1 1 calc R
C9 C -0.5828(2) -0.1707(4) -0.18680(17) 0.0169(5) Uani 1 1 d .
H9A H -0.4872 -0.1537 -0.1806 0.020 Uiso 1 1 calc R
H9B H -0.6243 -0.0361 -0.2402 0.020 Uiso 1 1 calc R
C10 C -0.6251(2) -0.4484(4) -0.22952(17) 0.0160(4) Uani 1 1 d .
H10 H -0.5685 -0.5799 -0.1827 0.019 Uiso 1 1 calc R
C11 C -0.4736(2) -0.4350(5) -0.37098(19) 0.0277(6) Uani 1 1 d .
H11A H -0.4666 -0.4844 -0.4465 0.042 Uiso 1 1 calc GR
H11B H -0.4094 -0.5354 -0.3192 0.042 Uiso 1 1 calc GR
H11C H -0.4569 -0.2444 -0.3604 0.042 Uiso 1 1 calc GR
C12 C -0.9905(2) -0.4068(4) -0.25484(17) 0.0184(5) Uani 1 1 d .
H12 H -1.0083 -0.6017 -0.2624 0.022 Uiso 1 1 calc R
C13 C -1.1119(2) -0.2599(5) -0.31089(18) 0.0255(5) Uani 1 1 d .
H13A H -1.1826 -0.2886 -0.2695 0.038 Uiso 1 1 calc GR
H13B H -1.1381 -0.3272 -0.3860 0.038 Uiso 1 1 calc GR
H13C H -1.0930 -0.0695 -0.3133 0.038 Uiso 1 1 calc GR
O14 O -0.94772(15) -0.0644(3) -0.11183(13) 0.0230(4) Uani 1 1 d .
H14 H -1.0245 -0.0116 -0.1138 0.028 Uiso 1 1 calc GR
C14 C -0.9480(2) -0.3445(5) -0.13200(17) 0.0183(5) Uani 1 1 d .
H14A H -1.0043 -0.4396 -0.0868 0.022 Uiso 1 1 calc R
O15 O -0.79979(15) -0.3082(4) 0.12610(12) 0.0286(4) Uani 1 1 d .
C15 C -0.7325(2) -0.1852(5) 0.07339(18) 0.0221(5) Uani 1 1 d .
H15 H -0.6865 -0.0363 0.1081 0.026 Uiso 1 1 calc R
loop_
_atom_site_aniso_label
_atom_site_aniso_U_11
_atom_site_aniso_U_22
_atom_site_aniso_U_33
_atom_site_aniso_U_23
_atom_site_aniso_U_13
_atom_site_aniso_U_12
C1 0.0215(12) 0.0186(11) 0.0216(11) -0.0041(9) 0.0059(9) -0.0005(9)
C2 0.0243(12) 0.0267(12) 0.0158(10) -0.0016(10) 0.0048(9) -0.0005(10)
C3 0.0209(12) 0.0290(13) 0.0169(10) 0.0004(10) 0.0016(9) -0.0003(10)
C4 0.0152(11) 0.0175(11) 0.0160(10) -0.0005(9) 0.0009(8) -0.0023(9)
C5 0.0181(11) 0.0117(10) 0.0163(10) 0.0000(8) 0.0028(8) -0.0014(8)
C6 0.0156(11) 0.0154(10) 0.0159(10) 0.0019(8) 0.0022(8) -0.0025(8)
C7 0.0145(10) 0.0164(11) 0.0169(10) 0.0000(9) -0.0013(8) 0.0033(9)
C8 0.0143(11) 0.0145(11) 0.0208(11) -0.0020(8) -0.0012(9) -0.0006(8)
C9 0.0147(11) 0.0146(10) 0.0209(11) 0.0007(9) 0.0022(9) -0.0020(8)
C10 0.0162(11) 0.0128(10) 0.0190(10) 0.0011(9) 0.0027(8) 0.0006(8)
C11 0.0238(13) 0.0356(14) 0.0252(12) -0.0035(11) 0.0085(10) 0.0014(11)
C12 0.0174(11) 0.0197(12) 0.0174(10) 0.0005(9) 0.0014(8) -0.0044(9)
C13 0.0164(11) 0.0385(15) 0.0207(11) 0.0003(10) 0.0004(9) -0.0012(10)
O14 0.0174(8) 0.0241(8) 0.0266(9) -0.0068(7) 0.0012(7) 0.0047(7)
C14 0.0167(11) 0.0201(11) 0.0183(10) 0.0013(9) 0.0034(8) -0.0033(9)
O15 0.0245(9) 0.0406(11) 0.0213(8) -0.0004(8) 0.0058(7) -0.0045(7)
C15 0.0166(11) 0.0270(13) 0.0218(11) -0.0042(10) 0.0010(9) -0.0017(9)
loop_
_atom_type_symbol
_atom_type_description
_atom_type_scat_dispersion_real
_atom_type_scat_dispersion_imag
_atom_type_scat_source
C C 0.0033 0.0016 'International Tables Vol C Tables 4.2.6.8 and 6.1.1.4'
H H 0.0000 0.0000 'International Tables Vol C Tables 4.2.6.8 and 6.1.1.4'
O O 0.0106 0.0060 'International Tables Vol C Tables 4.2.6.8 and 6.1.1.4'
loop_
_geom_angle_atom_site_label_1
_geom_angle_atom_site_label_2
_geom_angle_atom_site_label_3
_geom_angle
C2 C1 H1 106.5
C2 C1 C10 113.00(18)
C10 C1 H1 106.5
C11 C1 H1 106.5
C11 C1 C2 111.56(19)
C11 C1 C10 112.31(18)
C1 C2 H2A 109.1
C1 C2 H2B 109.1
H2A C2 H2B 107.8
C3 C2 C1 112.67(18)
C3 C2 H2A 109.1
C3 C2 H2B 109.1
C2 C3 H3A 109.9
C2 C3 H3B 109.9
H3A C3 H3B 108.3
C4 C3 C2 108.85(17)
C4 C3 H3A 109.9
C4 C3 H3B 109.9
C3 C4 H4 107.9
C3 C4 C5 110.41(17)
C3 C4 C12 120.90(17)
C5 C4 H4 107.9
C12 C4 H4 107.9
C12 C4 C5 101.10(16)
C4 C5 H5 107.0
C4 C5 C6 104.29(16)
C6 C5 H5 107.0
C10 C5 C4 113.36(16)
C10 C5 H5 107.0
C10 C5 C6 117.54(17)
C5 C6 H6 109.2
C5 C6 C14 104.67(16)
C7 C6 C5 112.22(17)
C7 C6 H6 109.2
C7 C6 C14 112.15(17)
C14 C6 H6 109.2
C8 C7 C6 123.90(18)
C8 C7 C15 117.41(19)
C15 C7 C6 118.68(18)
C7 C8 H8 117.9
C7 C8 C9 124.16(19)
C9 C8 H8 117.9
C8 C9 H9A 109.3
C8 C9 H9B 109.3
C8 C9 C10 111.68(17)
H9A C9 H9B 107.9
C10 C9 H9A 109.3
C10 C9 H9B 109.3
C1 C10 H10 107.5
C5 C10 C1 109.10(17)
C5 C10 C9 110.75(17)
C5 C10 H10 107.5
C9 C10 C1 114.23(17)
C9 C10 H10 107.5
C1 C11 H11A 109.5
C1 C11 H11B 109.5
C1 C11 H11C 109.5
H11A C11 H11B 109.5
H11A C11 H11C 109.5
H11B C11 H11C 109.5
C4 C12 H12 108.0
C4 C12 C14 101.53(16)
C13 C12 C4 116.02(17)
C13 C12 H12 108.0
C13 C12 C14 114.94(18)
C14 C12 H12 108.0
C12 C13 H13A 109.5
C12 C13 H13B 109.5
C12 C13 H13C 109.5
H13A C13 H13B 109.5
H13A C13 H13C 109.5
H13B C13 H13C 109.5
C14 O14 H14 109.5
C6 C14 H14A 111.0
C12 C14 C6 104.49(16)
C12 C14 H14A 111.0
O14 C14 C6 107.89(17)
O14 C14 C12 111.36(17)
O14 C14 H14A 111.0
C7 C15 H15 117.1
O15 C15 C7 125.9(2)
O15 C15 H15 117.1
loop_
_geom_bond_atom_site_label_1
_geom_bond_atom_site_label_2
_geom_bond_distance
C1 H1 1.0000
C1 C2 1.533(3)
C1 C10 1.549(3)
C1 C11 1.527(3)
C2 H2A 0.9900
C2 H2B 0.9900
C2 C3 1.533(3)
C3 H3A 0.9900
C3 H3B 0.9900
C3 C4 1.512(3)
C4 H4 1.0000
C4 C5 1.530(3)
C4 C12 1.528(3)
C5 H5 1.0000
C5 C6 1.547(3)
C5 C10 1.522(3)
C6 H6 1.0000
C6 C7 1.498(3)
C6 C14 1.567(3)
C7 C8 1.340(3)
C7 C15 1.462(3)
C8 H8 0.9500
C8 C9 1.492(3)
C9 H9A 0.9900
C9 H9B 0.9900
C9 C10 1.531(3)
C10 H10 1.0000
C11 H11A 0.9800
C11 H11B 0.9800
C11 H11C 0.9800
C12 H12 1.0000
C12 C13 1.522(3)
C12 C14 1.536(3)
C13 H13A 0.9800
C13 H13B 0.9800
C13 H13C 0.9800
O14 H14 0.8400
O14 C14 1.432(3)
C14 H14A 1.0000
O15 C15 1.209(3)
C15 H15 0.9500
loop_
_geom_torsion_atom_site_label_1
_geom_torsion_atom_site_label_2
_geom_torsion_atom_site_label_3
_geom_torsion_atom_site_label_4
_geom_torsion
C1 C2 C3 C4 56.3(2)
C2 C1 C10 C5 49.9(2)
C2 C1 C10 C9 -74.6(2)
C2 C3 C4 C5 -58.6(2)
C2 C3 C4 C12 -176.1(2)
C3 C4 C5 C6 -171.02(17)
C3 C4 C5 C10 59.9(2)
C3 C4 C12 C13 -63.7(3)
C3 C4 C12 C14 170.92(19)
C4 C5 C6 C7 -103.16(19)
C4 C5 C6 C14 18.7(2)
C4 C5 C10 C1 -53.7(2)
C4 C5 C10 C9 72.8(2)
C4 C12 C14 C6 -37.1(2)
C4 C12 C14 O14 79.1(2)
C5 C4 C12 C13 174.15(18)
C5 C4 C12 C14 48.8(2)
C5 C6 C7 C8 4.1(3)
C5 C6 C7 C15 -175.06(18)
C5 C6 C14 C12 11.3(2)
C5 C6 C14 O14 -107.26(18)
C6 C5 C10 C1 -175.62(17)
C6 C5 C10 C9 -49.1(2)
C6 C7 C8 C9 -3.9(3)
C6 C7 C15 O15 11.1(3)
C7 C6 C14 C12 133.25(18)
C7 C6 C14 O14 14.7(2)
C7 C8 C9 C10 -22.9(3)
C8 C7 C15 O15 -168.2(2)
C8 C9 C10 C1 170.49(17)
C8 C9 C10 C5 46.8(2)
C10 C1 C2 C3 -53.0(3)
C10 C5 C6 C7 23.3(2)
C10 C5 C6 C14 145.18(18)
C11 C1 C2 C3 179.28(19)
C11 C1 C10 C5 177.22(18)
C11 C1 C10 C9 52.7(2)
C12 C4 C5 C6 -41.9(2)
C12 C4 C5 C10 -170.91(16)
C13 C12 C14 C6 -163.15(18)
C13 C12 C14 O14 -46.9(2)
C14 C6 C7 C8 -113.3(2)
C14 C6 C7 C15 67.4(2)
C15 C7 C8 C9 175.35(19)
loop_
_refln_index_h
_refln_index_k
_refln_index_l
_refln_F_squared_meas
_refln_F_squared_sigma
_refln_scale_group_code
0 -6 0 653.164 535.65 14
0 -6 0 -201.23 532.638 6
0 -6 -1 128.942 427.627 6
0 -6 -1 177.653 388.443 14
0 -6 1 599.161 510.605 14
0 -6 1 548.299 496.164 6
0 -6 2 1414.09 652.661 6
0 -6 -2 1171.08 545.408 14
0 -6 -2 2053.36 692.852 6
0 -6 2 1016.88 412.014 14
0 -6 2 1568.02 575.594 8
0 -6 3 1095.67 592.671 6
0 -6 -3 2343.75 800.597 6
0 -6 -3 1485.6 603.013 14
0 -6 3 2215.42 741.095 14
0 -6 4 279.319 442.223 14
0 -6 -4 610.18 551.135 14
0 -6 5 408.421 513.357 14
0 -6 -5 57.458 471.397 14
0 -5 0 61.1439 351.532 14
0 -5 0 629.598 470.572 6
0 -5 1 837.299 515.389 6
0 -5 -1 1396.42 544.238 14
0 -5 1 35.6629 404.042 14
0 -5 -1 472.796 405.814 6
0 -5 -2 203.303 367.426 6
0 -5 2 342.737 402.483 6
0 -5 -2 732.14 484.074 14
0 -5 2 1060.93 473.03 14
0 -5 -3 1169.45 483.995 6
0 -5 -3 1666.62 560.611 14
0 -5 3 1341.18 508.661 14
0 -5 3 963.511 437.009 6
0 -5 -4 6365.74 963.062 6
0 -5 4 5988.93 909.74 14
0 -5 4 6615.54 760.257 8
0 -5 4 5022.97 823.048 6
0 -5 5 508.185 488.161 6
0 -5 5 564.892 428.909 12
0 -5 -5 -38.709 414.701 6
0 -5 5 476.477 476.255 14
0 -5 6 2397.95 625.927 14
0 -5 -6 1978.6 668.424 6
0 -5 6 1876.93 566.411 12
0 -5 6 2914.25 714.37 6
0 -5 7 4576.74 817.363 12
0 -5 -7 4105.5 790.042 7
0 -5 -7 2791.13 747.438 6
0 -5 7 2485.12 679.645 6
0 -5 7 3345.36 737.364 14
0 -5 -8 8956.18 1129.67 7
0 -5 8 6159.88 975.74 12
0 -5 8 7808.41 1118.28 14
0 -5 8 7713.13 1108.36 6
0 -5 -9 2803.51 853.67 1
0 -5 -9 3027.11 761.032 7
0 -5 9 3316.32 836.83 12
0 -5 -10 501.754 514.925 7
0 -4 0 2660.86 537.462 6
0 -4 0 2646.34 538.976 14
0 -4 0 3736.16 374.285 16
0 -4 -1 922.465 371.437 6
0 -4 -1 733.325 415.738 14
0 -4 1 1798.08 489.425 6
0 -4 -1 1123.1 149.158 4
0 -4 1 1986.59 495.649 14
0 -4 1 1313.8 192.635 16
0 -4 1 1396.49 259.253 7
0 -4 2 991.763 374.846 12
0 -4 2 1399.18 246.747 7
0 -4 -2 296.183 385.792 6
0 -4 2 1086.08 444.358 14
0 -4 2 1194.2 469.178 6
0 -4 3 3847.39 599.967 12
0 -4 3 2394.94 522.091 14
0 -4 3 3378.1 612.205 6
0 -4 -3 2708.3 669.065 6
0 -4 4 3484.75 612.122 12
0 -4 4 3408.14 616.878 14
0 -4 -4 2185.62 561.695 1
0 -4 4 4277.31 700.946 6
0 -4 4 3462.36 477.673 8
0 -4 -4 3653.71 655.203 6
0 -4 5 12288 1096.09 14
0 -4 5 12206.1 1140.46 6
0 -4 5 13602 1158.05 12
0 -4 5 13980.2 911.388 8
0 -4 6 8239.53 655.188 8
0 -4 6 10125.7 1002.91 12
0 -4 6 7305.49 936.94 6
0 -4 6 9281.22 1009.9 14
0 -4 7 15956.3 1331.68 14
0 -4 7 14916.6 1305.04 12
0 -4 7 15049.7 1323.74 6
0 -4 -8 1072.82 576.338 1
0 -4 8 798.57 422.05 6
0 -4 8 1313.31 524.537 12
0 -4 -8 1473.59 531.319 7
0 -4 9 2627.25 664.168 6
0 -4 9 2970.94 724.434 12
0 -4 -9 3321 745.197 1
0 -4 -9 3787.58 765.963 7
0 -4 -10 903.873 495.974 7
0 -4 10 11.279 478.983 12
0 -4 -10 415.125 472.897 1
0 -4 10 216.442 374.355 6
0 -4 11 3825.94 804.953 6
0 -4 11 3472.98 806.063 12
0 -4 -11 3178.84 772.681 7
0 -4 -11 4131.48 880.788 1
0 -4 -12 5467.71 1083.17 1
0 -3 0 -495.636 302.912 14
0 -3 0 -64.9658 131.143 16
0 -3 0 -286.543 304.886 6
0 -3 -1 45930 1996.17 6
0 -3 1 48623.6 1437.64 16
0 -3 -1 51374.2 1717.72 16
0 -3 -1 49579.6 1446.31 4
0 -3 1 47586 1561.16 7
0 -3 1 47572.4 1803.76 12
0 -3 1 44731.4 1966.74 6
0 -3 1 46406.1 1931.62 14
0 -3 2 10260.2 782.352 12
0 -3 -2 10592.2 425.317 13
0 -3 2 10622.4 835.735 14
0 -3 2 11588.1 569.535 7
0 -3 -2 11346 886.728 6
0 -3 -2 11406.9 615.732 4
0 -3 2 10305 852.023 6
0 -3 -3 14702 1189.29 1
0 -3 3 16580.2 1144.92 6
0 -3 -3 18553.6 945.083 4
0 -3 3 17062.5 1068.32 12
0 -3 3 19242.9 781.756 7
0 -3 3 16434.2 1107.73 14
0 -3 -3 19514.1 773.808 13
0 -3 -4 2737.83 662.756 1
0 -3 4 4916.09 623.104 12
0 -3 4 5395.57 398.032 7
0 -3 -4 5888.27 446.289 13
0 -3 4 4224.01 617.142 6
0 -3 4 4367.63 602.19 14
0 -3 5 4685.05 647.237 14
0 -3 5 3921.2 385.401 7
0 -3 5 3712.9 611.099 6
0 -3 -5 2781.93 579.005 1
0 -3 5 4355.01 623.538 12
0 -3 5 4627.8 417.078 8
0 -3 5 4303.37 328.335 4
0 -3 -5 3936.21 438.318 13
0 -3 6 17786.9 1278.41 6
0 -3 6 18897.1 982.682 7
0 -3 6 18761.9 1295.35 14
0 -3 6 19216.9 1327.37 12
0 -3 6 21348.5 863.35 8
0 -3 -6 14406.8 1293.6 1
0 -3 6 20929.6 922.243 4
0 -3 7 40487.6 1228.38 8
0 -3 7 39089.5 2060.91 12
0 -3 7 42718.6 1616.94 4
0 -3 7 38853.9 2032.27 6
0 -3 -7 40834.9 2069.67 1
0 -3 8 12014.4 1125.1 6
0 -3 -8 12621.3 1189.54 7
0 -3 -8 11324.9 1178.95 1
0 -3 8 13557.2 907.841 4
0 -3 8 13361.6 1193.19 12
0 -3 -9 -568.152 406.424 7
0 -3 9 549.104 404.633 6
0 -3 9 389.294 292.42 4
0 -3 9 -135.783 426.324 12
0 -3 10 584.764 416.992 6
0 -3 10 242.169 286.589 4
0 -3 -10 -46.779 353.746 1
0 -3 -10 181.16 460.007 7
0 -3 10 -512.602 477.151 12
0 -3 -11 238.531 414.586 7
0 -3 11 -8.85161 424.479 12
0 -3 11 678.647 369.032 4
0 -3 11 -147.268 463.466 6
0 -3 -11 863.531 509.64 1
0 -3 -12 2611.59 694.407 1
0 -3 12 3276.03 773.046 12
0 -3 12 1577.06 639.72 6
0 -3 -12 1759.79 635.327 7
0 -3 13 920.241 632.507 6
0 -2 0 49128.6 1590.76 12
0 -2 0 48624.7 1797.05 2
0 -2 0 56393.2 1815.18 9
0 -2 0 46432.5 1789.81 6
0 -2 0 53081.2 1794.73 15
0 -2 0 53081.1 1808.74 18
0 -2 0 49150.1 1299.33 4
0 -2 0 52372.8 1501.2 16
0 -2 0 50908.4 1758.55 14
0 -2 -1 57891.4 1597.46 4
0 -2 -1 59103.5 1773.83 16
0 -2 1 60069 1981.64 9
0 -2 1 59787 2003.85 2
0 -2 1 53886.1 1813.07 12
0 -2 1 53199.9 1600.57 7
0 -2 1 52452.9 1879.5 14
0 -2 1 58792 1915.15 18
0 -2 1 55624.4 1491.72 16
0 -2 -1 58593.7 1887.65 9
0 -2 -1 46727.9 1985.39 1
0 -2 -1 58057.7 1970.67 15
0 -2 1 57513.5 1900.1 15
0 -2 -1 54436.3 1843.77 10
0 -2 -1 52675 1934.72 6
0 -2 1 53521.2 1946.24 6
0 -2 -1 62638.8 2057.43 2
0 -2 -1 61293.4 2004.95 18
0 -2 -2 16984.5 632.143 13
0 -2 2 15749.7 619.427 7
0 -2 2 15847.9 803.823 15
0 -2 -2 15798 725.806 4
0 -2 -2 12253.1 905.735 1
0 -2 -2 15822.6 812.937 16
0 -2 2 15248.7 902.443 6
0 -2 2 13943.3 857.213 14
0 -2 -2 15453.6 862.362 10
0 -2 2 15635 851.966 12
0 -2 -3 2654.14 339.034 4
0 -2 -3 2044.64 349.778 16
0 -2 3 2557.68 260.539 7
0 -2 3 1895.42 203.555 4
0 -2 3 2542.18 439.05 6
0 -2 3 2257.88 416.576 14
0 -2 3 2063.94 397.836 12
0 -2 -3 1913.46 404.19 1
0 -2 -3 1772.44 260.694 13
0 -2 3 1827.87 287.933 15
0 -2 4 900.554 334.938 6
0 -2 4 1361.09 262.786 15
0 -2 -4 1561.28 288.807 13
0 -2 -4 1277.3 435.56 1
0 -2 4 1303.66 358.649 12
0 -2 4 1459.88 212.768 8
0 -2 4 1425.13 256.721 4
0 -2 4 1115.28 238.007 7
0 -2 4 1235.37 328.2 14
0 -2 -4 1891.52 351.917 4
0 -2 -5 4391.69 509.067 13
0 -2 5 3619.93 430.449 4
0 -2 5 4610.45 581.24 14
0 -2 5 4611.06 578.001 6
0 -2 5 4229.45 410.851 7
0 -2 5 4401.21 276.746 8
0 -2 -5 4306.82 575.776 1
0 -2 5 4820.12 610.3 12
0 -2 5 4868.64 297.05 16
0 -2 6 11494 764.434 7
0 -2 -6 10023.5 829.766 1
0 -2 -6 11919.8 747.871 3
0 -2 6 11483.9 908.572 6
0 -2 6 12089.1 953.672 12
0 -2 6 11765.6 761.152 4
0 -2 6 13189.9 606.632 16
0 -2 -7 39260.7 1518.03 3
0 -2 7 39520.1 1889.28 6
0 -2 7 42684.5 1442.59 16
0 -2 7 38507.8 1670.71 4
0 -2 7 41044.7 1930.41 12
0 -2 8 22718.6 1374.67 4
0 -2 -8 27039.1 1497.55 1
0 -2 -8 24873.6 1525.23 7
0 -2 8 27015.3 1169.03 16
0 -2 -8 26980.8 1173.48 3
0 -2 8 25262.2 1540.99 6
0 -2 8 25269 1569.72 12
0 -2 9 14759 1065.81 4
0 -2 -9 12761.8 1179.17 7
0 -2 -9 14203 1083.5 1
0 -2 9 13852 1160.25 6
0 -2 9 14094.7 875.203 16
0 -2 9 13490.8 1190.64 12
0 -2 -9 14196.5 807.205 3
0 -2 10 657.075 377.111 6
0 -2 -10 1163.26 467.648 7
0 -2 10 625.912 276.426 16
0 -2 10 1120.8 503.255 4
0 -2 10 1054.18 537.262 12
0 -2 -10 757.572 403.318 1
0 -2 11 7343.66 976.37 12
0 -2 11 7172.85 965.441 6
0 -2 -11 6363.98 961.009 7
0 -2 11 7175.57 903.268 4
0 -2 -11 7507.85 845.338 1
0 -2 11 7735.86 733.279 16
0 -2 12 3789.69 706.318 4
0 -2 12 2186.92 612.851 12
0 -2 -12 3080.6 600.654 1
0 -2 -12 2176.52 679.181 7
0 -2 13 38.7884 526.73 4
0 -2 13 629.228 488.992 12
0 -2 -13 358.111 529.461 7
0 -2 14 430.635 465.911 12
0 -2 14 589.757 600.895 4
0 -2 15 1203.05 647.718 4
0 -1 0 127.027 197.218 6
0 -1 0 172.313 195.78 1
0 -1 0 -49.3295 140.54 12
0 -1 0 -1.44467 153.724 18
0 -1 0 346.339 136.82 10
0 -1 0 30.9056 170.231 9
0 -1 0 115.401 196.084 2
0 -1 0 46.3882 157.682 15
0 -1 0 115.955 107.58 16
0 -1 -1 416535 9843.81 15
0 -1 -1 415722 9675.12 4
0 -1 -1 411452 9756.93 16
0 -1 -1 418496 9852.04 18
0 -1 1 405485 9803.84 14
0 -1 1 421783 9861.99 9
0 -1 1 393646 9589.99 7
0 -1 -1 432387 9866.19 2
0 -1 1 414302 9756.46 18
0 -1 1 413563 9750.35 15
0 -1 -1 414522 9889.39 1
0 -1 1 390640 9823.04 6
0 -1 1 435545 9874.55 2
0 -1 -1 405265 9807.66 10
0 -1 1 399555 9782.44 12
0 -1 -2 133453 3545.57 10
0 -1 2 129758 3520.12 6
0 -1 -2 133324 3523.74 17
0 -1 -2 136106 3460.79 4
0 -1 -2 134852 3422.62 3
0 -1 2 147900 3606.32 2
0 -1 -2 140268 3579 2
0 -1 -2 137470 3534.95 18
0 -1 2 140443 3560.32 9
0 -1 -2 126492 3401.51 13
0 -1 2 132330 3334.83 15
0 -1 -2 117928 3514.12 1
0 -1 2 130806 3509.86 12
0 -1 -2 134800 3522.34 16
0 -1 -2 135406 3523.97 15
0 -1 2 126373 3508.52 14
0 -1 2 135605 3312.12 7
0 -1 2 127914 3286.71 4
0 -1 3 2825.84 361.034 6
0 -1 3 3175.06 321.773 4
0 -1 3 2381.19 401.12 14
0 -1 -3 3038.05 368.153 16
0 -1 3 2502.25 387.306 12
0 -1 -3 3548.86 385.747 4
0 -1 3 2665.65 308.497 7
0 -1 -3 2665.32 293.812 3
0 -1 -3 3128.69 361.727 18
0 -1 -3 2888.76 362.698 1
0 -1 -3 3322.86 409.902 10
0 -1 -3 2825.48 349.924 17
0 -1 3 3187.22 373.732 9
0 -1 3 3410.15 244.151 16
0 -1 -3 3592.89 376.053 15
0 -1 -3 2717.12 338.375 13
0 -1 -4 7766.95 539.957 17
0 -1 -4 7416.34 532.104 18
0 -1 -4 8186.56 615.06 4
0 -1 -4 8070.22 554.367 15
0 -1 -4 8192.97 586.159 5
0 -1 4 7656.36 590.906 6
0 -1 -4 8808.77 596.602 13
0 -1 -4 8424.47 624.122 16
0 -1 -4 6295.56 575.998 11
0 -1 4 8282.54 444.651 16
0 -1 -4 6713.7 418.527 3
0 -1 4 6967.94 526.881 4
0 -1 -4 8353.58 632.639 10
0 -1 4 7862.73 376.151 10
0 -1 -4 6708.7 540.614 1
0 -1 4 7237.85 615.911 12
0 -1 4 8656.53 520.981 7
0 -1 4 8666.02 588.683 9
0 -1 -5 20629.3 959.811 18
0 -1 5 17127.4 949.202 7
0 -1 5 19005.5 1028.23 6
0 -1 5 19858.4 763.522 10
0 -1 -5 19820.3 940.784 17
0 -1 -5 20066.4 971.747 5
0 -1 -5 17957.3 1053.02 13
0 -1 -5 18783.9 1041.76 11
0 -1 -5 19618 779.662 3
0 -1 -5 19573.8 942.976 15
0 -1 5 20114.7 861.525 16
0 -1 5 19747.3 941.668 4
0 -1 -5 18461.4 955.179 1
0 -1 5 17157.1 1047.13 12
0 -1 -6 10608.8 728.528 1
0 -1 6 10607.5 806.702 6
0 -1 -6 10627 564.431 3
0 -1 6 11572.3 837.665 12
0 -1 -6 10200.1 809.619 11
0 -1 -6 10827.6 698.842 17
0 -1 6 10632 666.132 16
0 -1 -6 11613.7 719.844 15
0 -1 -6 11594.4 754.659 5
0 -1 6 11369.6 596.498 10
0 -1 -6 10854.2 712.603 18
0 -1 6 10263.4 766.433 4
0 -1 -6 11096.2 869.578 7
0 -1 -7 8714.22 717.682 1
0 -1 7 8812.01 794.216 6
0 -1 -7 6672.09 790.4 7
0 -1 7 9713.18 605.998 10
0 -1 7 9649.66 824.55 12
0 -1 -7 10089.7 546.069 3
0 -1 -7 8940.33 790.915 11
0 -1 7 11173.9 738.69 16
0 -1 7 7516.8 756.742 4
0 -1 -8 5551.01 682.194 11
0 -1 8 6314.14 717.039 6
0 -1 8 3741.39 617.693 4
0 -1 8 5315.7 493.557 10
0 -1 8 5223.48 570.276 16
0 -1 8 5145.13 661.287 12
0 -1 -8 5673.3 417.017 3
0 -1 -8 5609.2 703.528 7
0 -1 -8 6557.56 623.525 1
0 -1 9 4808.07 581.686 16
0 -1 9 4493.81 490.484 10
0 -1 9 5111.22 695.518 12
0 -1 -9 4107.48 643.134 11
0 -1 9 5148.64 688.084 4
0 -1 -9 4388.5 534.552 1
0 -1 -9 5363.99 399.027 3
0 -1 -9 3273.5 675.749 7
0 -1 10 3534.77 552.75 16
0 -1 -10 3178.83 600.513 11
0 -1 -10 3347.28 518.27 1
0 -1 10 2819.74 566.557 4
0 -1 10 3355.98 499.646 10
0 -1 10 2697.58 556.738 12
0 -1 -10 3125.31 607.75 7
0 -1 11 3481.74 585.495 16
0 -1 11 2498.7 581.843 4
0 -1 -11 2102.07 383.648 9
0 -1 11 2500.32 610.071 12
0 -1 -11 2513.42 656.3 7
0 -1 11 3702.37 518.645 10
0 -1 -11 3396.74 656.06 11
0 -1 -11 3346.26 567.535 1
0 -1 12 1614.2 452.186 16
0 -1 12 985.513 352.565 10
0 -1 -12 985.923 424.348 1
0 -1 12 1015.08 578.903 4
0 -1 -12 1253.16 483.874 11
0 -1 -12 849.06 511.95 7
0 -1 12 1184.12 545.876 12
0 -1 -13 746.577 488.855 11
0 -1 13 1715.89 664.038 4
0 -1 -13 927.655 540.041 7
0 -1 13 1729.05 555.482 16
0 -1 13 873.579 455.395 12
0 -1 14 1435.65 642.576 4
0 -1 -14 1637.59 593.45 11
0 -1 14 1506.75 539.634 16
0 -1 -14 2420.44 707.47 7
0 -1 14 1538.48 545.63 12
0 -1 15 2834.58 904.938 4
0 -1 15 3419.39 791.611 12
0 0 -2 42461.4 1120.14 18
0 0 2 42211.1 1244.2 16
0 0 -2 41575.3 1112.45 17
0 0 -2 42061.1 1116.71 15
0 0 3 2299.34 211.444 15
0 0 -3 2172.41 201.279 18
0 0 -3 1971.52 188.811 3
0 0 3 2049.52 291.882 12
0 0 3 2446.62 206.184 18
0 0 -3 1508.69 330.185 13
0 0 -3 1434.68 308.393 6
0 0 -3 2078.32 192.783 15
0 0 3 2130.32 317.317 4
0 0 3 1559.14 237.975 1
0 0 -3 1854.23 230.689 12
0 0 3 2724.98 306.459 11
0 0 3 2291 223.466 5
0 0 -3 2331.45 267.143 10
0 0 -3 2537.44 230.092 5
0 0 -3 2070.87 315.719 4
0 0 3 2243.94 282.265 10
0 0 3 2357.1 311.371 16
0 0 -3 2039.54 215.997 1
0 0 -3 2048.99 333.664 7
0 0 -3 1789.78 264.137 16
0 0 -3 2085.82 195.829 17
0 0 -3 2475.24 328.726 11
0 0 -4 98701.7 2594.23 5
0 0 4 95989.1 2494.07 15
0 0 -4 97936 2715.95 12
0 0 4 88760.5 2799.54 4
0 0 -4 94441.8 2485 3
0 0 -4 98835.4 2700.8 10
0 0 4 96654.7 2680.31 10
0 0 4 97105.9 2600.75 1
0 0 -4 94756.7 2496.91 18
0 0 4 95374.7 2498.16 18
0 0 -4 92189.8 2765.68 7
0 0 -4 96962.2 2758.53 16
0 0 4 93840.4 2757.49 16
0 0 -4 94565.8 2839.43 4
0 0 -4 91116.1 2583.77 1
0 0 4 96199.7 2708.03 12
0 0 -4 96428.6 2492.01 17
0 0 -4 94736 2497.94 15
0 0 4 96603.7 2571.83 5
0 0 -4 105391 2881.79 13
0 0 -4 90781.8 2777.29 11
0 0 -4 98800.9 2795.65 6
0 0 -5 40385.4 1337.16 5
0 0 -5 41318.8 1564.67 4
0 0 5 38656.5 1456.98 12
0 0 -5 39379.9 1534.03 7
0 0 -5 38254 1494.77 16
0 0 -5 41036.3 1472.13 12
0 0 -5 35510 1501 11
0 0 -5 44679.1 1643.1 13
0 0 5 38370.8 1317.88 5
0 0 5 38865.6 1427.59 10
0 0 -5 37961.2 1232.04 17
0 0 5 37097.8 1497.01 16
0 0 5 40653.8 1356.05 1
0 0 5 40147.7 1244.33 15
0 0 -5 38514 1236.05 15
0 0 5 39843.9 1250.82 18
0 0 -5 39177.1 1444.63 10
0 0 -5 36975.5 1220.43 3
0 0 5 40213.6 1551.63 4
0 0 -5 38732.3 1336.49 1
0 0 -5 41652.9 1545.13 6
0 0 -5 37918.4 1240.35 18
0 0 -6 55783.6 2165.19 11
0 0 -6 61670.3 2063.34 10
0 0 6 59218.1 1904.25 5
0 0 -6 57386 1778.53 3
0 0 -6 58878 2144.48 7
0 0 6 57948.3 2061.09 12
0 0 6 62229.1 1805.99 15
0 0 6 61974.5 1810.9 18
0 0 -6 60909.7 1809.15 15
0 0 -6 59056.4 1801.33 18
0 0 -6 60604.8 1921.45 1
0 0 6 58843.6 2139.32 16
0 0 -6 63233.8 1929.14 5
0 0 6 60641.7 2053.01 10
0 0 -6 61284.5 1799.77 17
0 0 6 57272.3 2177.08 4
0 0 7 718.377 240.697 5
0 0 -7 256.233 277.57 11
0 0 7 185.414 289.758 16
0 0 -7 226.315 157.549 3
0 0 -7 441.395 174.02 5
0 0 -7 181.145 147.714 15
0 0 7 155.867 274.498 10
0 0 -7 479.211 343.59 7
0 0 -7 244.83 155.349 17
0 0 -7 643.729 246.175 1
0 0 -7 876.138 266.514 9
0 0 -7 457.44 182.009 18
0 0 7 291.567 153.872 18
0 0 7 242.686 140.094 15
0 0 7 397.631 290.239 12
0 0 7 360.289 374.772 4
0 0 -8 664.493 381.777 7
0 0 -8 641.139 249.941 9
0 0 -8 320.74 160.655 18
0 0 -8 419.429 326.864 11
0 0 8 772.339 260.768 5
0 0 8 585.138 193.048 18
0 0 -8 628.864 194.915 3
0 0 8 1045.72 358.644 12
0 0 -8 120.206 163.937 5
0 0 -8 397.535 178.726 15
0 0 8 462.018 317.823 16
0 0 8 75.0441 317.534 4
0 0 -8 652.251 250.823 1
0 0 8 574.916 175.652 15
0 0 8 444.124 275.875 10
0 0 -8 485.652 204.189 17
0 0 -9 19524.9 1044.62 1
0 0 9 19643.3 909.34 18
0 0 9 18871.4 1146.48 10
0 0 9 18468.6 1222.09 16
0 0 9 18031 1276.98 4
0 0 -9 18560 1270.52 11
0 0 -9 18374.5 885.282 15
0 0 -9 17496.5 882.901 18
0 0 -9 18962.2 888.88 3
0 0 9 18875 890.75 15
0 0 9 18607.4 1162.22 12
0 0 -9 14172.4 1194.58 7
0 0 -9 17156 867.166 17
0 0 9 18727.6 1010.53 5
0 0 -9 18078.5 1028.74 9
0 0 -10 1570.77 277.353 3
0 0 10 734.161 361.558 4
0 0 -10 778.664 249.722 1
0 0 10 1281.73 412.248 10
0 0 -10 1092.52 426.508 7
0 0 10 1874.63 364.968 5
0 0 10 1719.79 278.597 15
0 0 -10 634.388 420.541 11
0 0 10 1420.28 401.831 12
0 0 10 1486.54 268.394 18
0 0 -10 1481.25 363.616 9
0 0 10 1497.85 471.734 16
0 0 11 2537.67 570.93 12
0 0 -11 2041.69 517.322 7
0 0 -11 2907.91 403.565 1
0 0 -11 2076.04 566.568 11
0 0 11 2296.05 329.878 18
0 0 11 1902.85 573.681 4
0 0 11 1554.39 509.347 16
0 0 -11 2639.52 439.4 9
0 0 11 3089.88 573.368 10
0 0 11 2025.7 319.858 15
0 0 11 3056.7 478.629 5
0 0 -12 3167.26 625.904 11
0 0 12 2740.83 608.193 12
0 0 -12 3015.94 511.115 9
0 0 12 2687.37 614.771 16
0 0 12 2075.96 641.717 4
0 0 -12 3237.82 673.959 7
0 0 12 2704.82 562.697 10
0 0 12 3298.31 492.002 5
0 0 -13 2494.15 691.854 11
0 0 13 2563.29 673.319 16
0 0 -13 2968.59 711.79 7
0 0 13 1572.35 657.268 4
0 0 13 3293.52 668.303 10
0 0 13 1877.85 565.679 12
0 0 -14 1252.8 602.951 11
0 0 14 1427.7 568.951 16
0 0 -14 845.54 442.426 7
0 0 14 1394.44 511.482 10
0 0 14 1382.61 547.733 12
0 0 14 940.277 640.756 4
0 0 15 1593.66 539.815 16
0 0 -15 2692.41 703.892 7
0 0 15 2200.11 649.671 12
0 1 0 136.73 111.989 16
0 1 0 414.589 201.868 18
0 1 0 -289.907 189.049 15
0 1 0 -0.96356 175.454 2
0 1 0 63.7116 141.237 6
0 1 0 4.49148 124.119 12
0 1 0 -58.5996 151.574 10
0 1 0 -28.5765 151.463 1
0 1 -1 415181 9679.45 2
0 1 -1 420890 9654.25 14
0 1 -1 418417 9678.23 6
0 1 1 393830 9488.69 4
0 1 -1 406041 9567.91 18
0 1 -1 377237 9408.04 7
0 1 1 417055 9651.17 3
0 1 1 402735 9664.53 15
0 1 1 390387 9619.69 10
0 1 -1 419660 9617.63 12
0 1 1 392246 9570.83 16
0 1 1 404276 9663.36 17
0 1 1 432947 9736.03 1
0 1 -1 409165 9566.83 15
0 1 -1 409762 9411.75 13
0 1 1 396817 9664.64 18
0 1 -1 400349 9670.42 9
0 1 1 401952 9676.31 2
0 1 -1 395545 9388.06 10
0 1 2 126912 3498.21 16
0 1 -2 130183 3287.71 7
0 1 -2 130186 3524.83 9
0 1 2 127975 3494.17 15
0 1 -2 132529 3328.44 15
0 1 -2 132287 3334.48 18
0 1 -2 133567 3280.61 4
0 1 -2 139252 3545.83 12
0 1 -2 137409 3528.66 14
0 1 2 125211 3520.32 10
0 1 -2 134330 3546.74 2
0 1 -2 136931 3543.65 6
0 1 2 134619 3417.46 3
0 1 -2 135021 3394.22 13
0 1 2 127387 3444.22 4
0 1 2 134169 3552.71 5
0 1 2 143613 3589.71 1
0 1 2 130073 3504.85 18
0 1 2 129284 3498.76 17
0 1 3 3124.26 359.446 15
0 1 3 3112.24 400.951 4
0 1 -3 3427.42 383.25 14
0 1 3 3004.66 284.24 3
0 1 3 3409.18 235.749 12
0 1 -3 3416.7 255.998 15
0 1 3 3238.2 360.571 11
0 1 -3 2143.09 158.869 16
0 1 -3 3545.66 383.42 13
0 1 -3 3151.6 187.464 10
0 1 -3 2246.99 356.702 12
0 1 3 3373.9 362.351 17
0 1 -3 3914.56 329.885 4
0 1 3 2388.17 394.373 10
0 1 -3 3096.75 402.256 2
0 1 -3 2938.59 277.614 7
0 1 -3 2892.31 284.833 9
0 1 3 2471.43 358.221 1
0 1 3 3240.17 366.571 5
0 1 3 3033.72 362.281 18
0 1 -3 2893.02 365.083 6
0 1 3 2730.47 415.622 16
0 1 -4 6332.8 504.944 9
0 1 4 7621.36 424.114 12
0 1 -4 8273.48 595.087 14
0 1 -4 7992.28 387.524 10
0 1 -4 8567.54 612.523 6
0 1 4 8438.92 452.718 3
0 1 4 7445.56 591.557 4
0 1 -4 7471.58 495.945 5
0 1 -4 8450.93 605.646 12
0 1 4 6195.61 568.683 1
0 1 -4 8485.99 541.851 4
0 1 -4 7569.98 499.751 7
0 1 -4 6850.15 413.079 16
0 1 -4 7408.87 376.898 15
0 1 4 7609.57 539.01 15
0 1 4 5724.96 536.689 5
0 1 4 7470.58 580.469 11
0 1 4 7044.49 537.164 18
0 1 4 7178.42 542.113 17
0 1 4 7811.7 654.178 10
0 1 4 7555.14 638.418 16
0 1 -4 8237.04 392.059 18
0 1 -4 8149.79 598.696 13
0 1 -4 8602.18 633.155 2
0 1 5 18913.5 940.554 18
0 1 -5 19740.5 770.572 10
0 1 5 19563.7 952.63 5
0 1 -5 20145.8 880.98 16
0 1 5 20223.6 1085.11 4
0 1 -5 19605.2 704.06 15
0 1 -5 19855.2 710.896 18
0 1 -5 18361.4 1037.89 2
0 1 -5 19325.6 875.936 5
0 1 5 18352.4 929.321 15
0 1 -5 18128 958.34 9
0 1 5 19120.5 831.597 12
0 1 5 18376.9 1087.05 16
0 1 5 18492.1 1047.23 10
0 1 -5 20906.5 959.685 4
0 1 5 19565.6 982.097 1
0 1 -5 19897.8 704.52 15
0 1 5 18927.6 931.135 17
0 1 -5 20110.7 940.979 7
0 1 5 20690.6 783.028 3
0 1 -5 21681.6 1062.99 13
0 1 6 10625.4 834.346 16
0 1 -6 11321.2 500.392 15
0 1 6 10294.3 719.22 5
0 1 -6 10516.2 488.95 18
0 1 6 11564.2 722.112 15
0 1 6 11043.9 848.169 4
0 1 -6 10471.9 571.24 10
0 1 6 13015.9 777.992 1
0 1 6 10202.2 686.177 18
0 1 -6 12079.3 696.769 16
0 1 -6 11514.5 654.012 5
0 1 -6 10606 492.155 15
0 1 6 10781.5 692.328 17
0 1 -6 10462.4 763.273 9
0 1 6 10391.9 637.337 12
0 1 -6 10475.9 740.2 7
0 1 6 11974.3 572.302 3
0 1 6 10120.4 804.955 10
0 1 -7 9537.83 651.672 1
0 1 7 7556.06 817.431 4
0 1 -7 8758.41 733.539 7
0 1 7 9750.55 721.727 5
0 1 7 9294.94 822.026 10
0 1 -7 9735.92 477.578 18
0 1 -7 9538.04 747.188 9
0 1 7 9919.62 525.874 3
0 1 7 9292.76 684.982 15
0 1 7 9747.62 664.416 12
0 1 7 9631.65 667.971 17
0 1 7 9707.77 702.043 18
0 1 -7 9834.58 635.056 5
0 1 7 7266.09 775.818 16
0 1 -7 8922.21 581.453 10
0 1 -7 9022.06 464.059 15
0 1 8 6009.89 561.803 15
0 1 -8 6105.44 565.131 1
0 1 -8 5022.21 591.795 9
0 1 8 6643.46 586.235 12
0 1 8 5620.27 718.285 4
0 1 -8 5430.65 356.035 17
0 1 -8 4750.1 583.986 7
0 1 -8 5177.59 667.769 11
0 1 8 4878.29 680.363 16
0 1 -8 5397.49 358.191 15
0 1 -8 5782.34 505.762 5
0 1 8 5221.56 684.153 10
0 1 8 5384.97 573.814 5
0 1 8 6111.87 575.409 18
0 1 -8 5977.12 523.673 10
0 1 -8 5388.72 362.833 18
0 1 -9 5185.43 516.971 1
0 1 -9 4380.56 332.679 15
0 1 -9 3897.82 330.889 18
0 1 -9 5315.57 668.475 7
0 1 -9 4612.09 341.758 17
0 1 9 5136.06 562.66 12
0 1 9 4187.06 628.851 10
0 1 9 5407.25 586.149 5
0 1 9 4286.16 485.772 15
0 1 9 2531.82 637.195 4
0 1 -9 3938.37 656.084 11
0 1 9 5384.92 729.003 16
0 1 9 5056.59 540.177 18
0 1 -9 4799.59 603.041 9
0 1 10 3552.41 538.145 5
0 1 10 2854.2 601.463 4
0 1 10 3596.18 479.01 15
0 1 10 2604.08 606.408 16
0 1 10 2969.27 434.365 18
0 1 -10 3647.46 471.105 1
0 1 -10 2094.83 416.636 3
0 1 -10 2727.02 511.666 9
0 1 10 3984.46 542.563 12
0 1 10 3518.93 623.646 10
0 1 -10 2633.23 573.457 11
0 1 -10 3857.95 634.525 7
0 1 11 2611.07 585.778 10
0 1 11 3028.81 423.761 15
0 1 11 3305.77 674.454 16
0 1 11 2907.94 689.554 4
0 1 -11 3321.7 485.159 1
0 1 -11 2119.49 532.193 7
0 1 -11 3128.09 675.37 11
0 1 11 2906.31 433.501 18
0 1 11 2710.82 468.531 5
0 1 -11 2150.22 403.608 3
0 1 11 2685.32 492.715 12
0 1 -11 2530.18 496.649 9
0 1 12 681.291 370.696 5
0 1 12 474.963 551.442 4
0 1 -12 1181.4 422.533 9
0 1 12 863.457 315.939 18
0 1 12 1391.21 353.565 15
0 1 12 1180.93 562.932 16
0 1 12 896.762 413.926 12
0 1 12 1379.16 518.033 10
0 1 -12 1510.61 540.323 7
0 1 -12 324.474 326.879 11
0 1 13 1937.45 607.506 10
0 1 13 1652.42 488.244 12
0 1 -13 2071.96 617.903 11
0 1 13 1197.04 638.574 4
0 1 13 2307.07 728.174 16
0 1 -13 877.616 498.498 7
0 1 -13 1064.81 431.136 9
0 1 14 761.333 496.387 16
0 1 -14 1780.61 642.011 7
0 1 -14 1591.4 683.911 11
0 1 14 1492.15 512.42 10
0 1 -14 2246.23 706.888 2
0 1 14 1702.92 654.889 4
0 1 -15 2160.18 644.779 7
0 1 15 3762.74 811.369 10
0 1 15 3963.72 884.503 16
0 1 16 4533.68 922.064 10
0 2 0 51062.4 1928.31 1
0 2 0 51805.5 1614.46 12
0 2 0 50746.4 1776.75 17
0 2 0 48620.9 1771.78 15
0 2 0 51083.5 1622.34 10
0 2 0 49440.5 1485.23 16
0 2 0 50544 1779.49 18
0 2 0 47762.3 1811.39 2
0 2 -1 54139.8 1876.14 18
0 2 1 56054.5 1588.54 4
0 2 1 62127.5 2035.76 3
0 2 1 55188.9 1956.27 2
0 2 -1 54866 1945.08 9
0 2 -1 57686.3 1990.46 6
0 2 -1 59162.4 1835.7 12
0 2 -1 53414.8 1955.51 2
0 2 -1 55143.3 1652.65 10
0 2 1 58480.3 2122.48 1
0 2 -1 64176 2088.87 1
0 2 1 52158.5 1734.23 16
0 2 1 53999 1961.2 18
0 2 1 57828.5 1657.65 12
0 2 -1 54923.7 1873.94 15
0 2 1 53517.2 1834.12 10
0 2 1 54525.9 1950.38 15
0 2 1 54215.3 1950.76 17
0 2 -2 14356.9 783.257 18
0 2 -2 15482.1 918.367 2
0 2 2 16549.2 950.82 18
0 2 2 16521.8 621.397 12
0 2 -2 15418.7 797.651 15
0 2 2 17890.2 931.725 3
0 2 2 14627.2 801.386 16
0 2 -2 16804.7 866.954 12
0 2 -2 14898.3 922.246 9
0 2 2 16036.5 726.566 4
0 2 -2 16239.5 901.762 14
0 2 -2 15236.6 583.977 10
0 2 -2 12439.6 941.978 1
0 2 2 13888.2 886.539 17
0 2 2 15722.9 916.406 2
0 2 2 15025.5 875.638 10
0 2 -2 14840.4 603.754 13
0 2 2 15102.5 912.74 15
0 2 3 2151.58 393.488 17
0 2 -3 1806.15 150.799 10
0 2 3 2129.51 463.239 5
0 2 3 2233.52 383.647 16
0 2 -3 2016.56 410.591 2
0 2 -3 2217.43 452.74 9
0 2 -3 1605.7 229.122 7
0 2 3 1737.5 377.862 15
0 2 -3 2089.34 315.858 18
0 2 3 1791.4 309.612 4
0 2 3 2596.07 400.567 3
0 2 3 2255.49 440.676 10
0 2 -3 2277.85 320.708 15
0 2 3 2503.97 442.963 2
0 2 3 1916.5 382.136 18
0 2 -3 2494.14 296.923 13
0 2 -3 2426.4 226.356 4
0 2 -4 1088.33 228.693 18
0 2 -4 1401.5 232.057 4
0 2 4 1452.12 356.24 4
0 2 -4 1343.25 389.68 2
0 2 -4 1423.51 262.01 13
0 2 4 1006.05 351.401 17
0 2 -4 1280.96 375.986 9
0 2 4 1393.63 326.577 18
0 2 4 1301.71 405.83 16
0 2 4 1003.42 338.728 5
0 2 4 1207.07 393.547 10
0 2 -4 1603.91 260.02 15
0 2 4 1703.66 311.067 3
0 2 4 1584.37 359.178 15
0 2 4 1461.46 162.114 12
0 2 -4 1342.98 236.9 7
0 2 5 4145.13 557.913 10
0 2 5 4474.09 546.571 15
0 2 5 3911.24 526.434 4
0 2 5 4092.58 575.385 5
0 2 5 4539.61 554.176 17
0 2 -5 4510.96 590.487 2
0 2 5 5458.96 495.924 3
0 2 -5 4903.91 403.825 18
0 2 -5 4462.48 418.408 4
0 2 -5 4173.34 548.1 9
0 2 -5 4844.37 403.949 15
0 2 -5 4977.25 422.19 7
0 2 5 4900.68 320.888 12
0 2 5 4768.04 612.229 16
0 2 5 4473.01 565.866 18
0 2 -6 12521.9 785.804 4
0 2 6 9419.39 886.592 5
0 2 -6 12575.3 649.778 18
0 2 6 13093.9 607.632 12
0 2 6 12803.8 752.023 3
0 2 -6 12402.5 653.099 18
0 2 6 11534.7 883.142 17
0 2 6 11505.6 940.237 16
0 2 -6 11842 456.819 10
0 2 -6 12214.3 956.593 2
0 2 -6 13265.5 785.948 7
0 2 6 11427.7 950.504 10
0 2 -6 11844.8 882.459 9
0 2 6 11193.3 868.992 15
0 2 -6 12409.5 645.81 15
0 2 6 12576.6 930.582 4
0 2 6 12113.4 906.267 18
0 2 7 40301.5 1836.68 18
0 2 -7 39189.5 1631.07 7
0 2 -7 41798.6 1391.5 15
0 2 7 39867.3 1985.53 16
0 2 -7 38386.8 1850.51 9
0 2 7 38585.2 1900.46 4
0 2 7 40907.4 1986.57 10
0 2 7 38908.4 1790.83 17
0 2 -7 38700.9 1959.25 2
0 2 7 43875.1 1574.23 3
0 2 -7 41726.3 1399.15 18
0 2 -7 43017.5 1487.15 16
0 2 -7 42245.8 1406.16 18
0 2 7 37933.9 1817.24 5
0 2 -7 42971.6 1255.42 10
0 2 7 41990.9 1445.12 12
0 2 7 39679.1 1812.88 15
0 2 8 25979.8 1434.31 15
0 2 8 25443.1 1480.28 5
0 2 -8 26518.1 1327.18 7
0 2 -8 25677.4 987.477 15
0 2 8 26487.4 1454.7 18
0 2 8 23753.7 1554.41 4
0 2 -8 27643.1 1009.76 15
0 2 -8 27516.5 1021.59 18
0 2 -8 27505.8 1200.68 16
0 2 -8 26384.3 1514.75 9
0 2 8 28371.6 1187.1 3
0 2 8 28036.1 1162.51 12
0 2 8 25617.2 1405.31 17
0 2 -8 25981.9 1596.63 2
0 2 8 25577.7 1577.49 10
0 2 8 26181.8 1616.16 16
0 2 -8 26184.5 1002.68 18
0 2 9 15096.4 1090.64 5
0 2 9 13832.2 1067.84 18
0 2 9 14807.7 845.354 12
0 2 -9 13829 1195.57 2
0 2 -9 14093 1010.28 7
0 2 9 13391.1 1040.38 15
0 2 -9 13411.5 1099.94 9
0 2 9 13954.1 1197.68 4
0 2 9 13752.8 1231.87 16
0 2 9 14190.9 1046.43 17
0 2 9 11762.5 1126.11 10
0 2 10 679.022 453.76 16
0 2 -10 989.95 314.278 1
0 2 -10 1392.49 496.997 9
0 2 10 822.22 295.702 12
0 2 10 875.102 480.935 10
0 2 -10 825.45 345.109 7
0 2 10 388.18 416.095 4
0 2 10 711.311 327.424 15
0 2 10 689.906 281.576 18
0 2 -10 1004.48 399.583 2
0 2 10 635.871 368.094 5
0 2 11 5634.78 919.491 16
0 2 11 9475.92 1142.71 4
0 2 -11 7713.3 858.812 7
0 2 -11 7312.17 1028.81 2
0 2 11 8669.05 876.148 18
0 2 11 8710.77 895.452 5
0 2 11 6804.51 971.487 10
0 2 -11 5904.86 878.788 11
0 2 11 7047.68 794.738 15
0 2 -11 8910.59 975.509 9
0 2 12 3339.19 579.613 18
0 2 12 3207.82 790.907 16
0 2 -12 3443.52 724.849 11
0 2 -12 3454.57 635.933 7
0 2 12 3030.84 561.046 15
0 2 -12 2559.72 726.613 2
0 2 12 3325.81 768.344 10
0 2 12 1982.97 656.076 4
0 2 12 3152.66 601.505 5
0 2 -12 4134.08 757.225 9
0 2 13 122.606 478.619 10
0 2 13 789.431 596.128 4
0 2 -13 1117.68 591.222 11
0 2 -13 2158.65 569.052 9
0 2 13 2168.95 772.601 16
0 2 -13 816.687 673.326 2
0 2 -13 502.287 437.905 7
0 2 14 1168.74 625.759 10
0 2 14 808.909 586.635 16
0 2 -14 570.679 618.761 2
0 3 0 -237.538 251.36 18
0 3 0 85.8898 188.35 12
0 3 0 49.6981 152.806 16
0 3 0 89.0481 216.439 10
0 3 0 428.061 305.641 2
0 3 0 -385.654 311.993 17
0 3 0 -399.139 326.507 15
0 3 1 47428.9 2011.57 15
0 3 1 46716.1 2010.61 18
0 3 1 45533.2 1670.93 16
0 3 -1 48638.5 1943.38 17
0 3 -1 45877 2019.46 2
0 3 1 46232.7 1982.14 17
0 3 1 46642.2 2026.54 2
0 3 -1 47145.2 1927.81 15
0 3 -1 48079.7 1956.67 18
0 3 -1 47272.9 1659.73 10
0 3 1 51468.3 1656.32 12
0 3 1 47782 1841.68 10
0 3 2 10371.4 601.385 4
0 3 2 9689.16 853.203 15
0 3 -2 10997.5 598.605 10
0 3 -2 10888.5 805.061 15
0 3 2 10970.4 820.568 10
0 3 2 10863.7 890.648 17
0 3 2 10621.1 884.835 2
0 3 -2 11078.9 821.07 18
0 3 -2 11128.3 817.3 17
0 3 2 12461.3 612.065 12
0 3 -2 9285.73 407.083 13
0 3 2 9932.52 870.885 18
0 3 2 10671.1 742.644 16
0 3 -2 10399.1 880.329 2
0 3 3 19386.1 747.83 12
0 3 -3 17513.3 1202.74 9
0 3 3 17081.3 1033.1 16
0 3 3 16998.1 1165.03 18
0 3 -3 17736.6 736.886 13
0 3 3 16190 1133.34 15
0 3 -3 17496.4 706.41 10
0 3 3 16889.4 1153.79 17
0 3 3 17259 1122.23 10
0 3 -3 18819.9 1064.22 18
0 3 -3 16216.1 1149.95 2
0 3 3 16719.6 896.6 4
0 3 3 16646.7 1207.27 2
0 3 -3 18067.7 1043.08 15
0 3 4 4788.52 597.097 16
0 3 -4 4400.09 248.403 10
0 3 -4 4729.91 522.842 15
0 3 4 4708.49 633.921 10
0 3 4 4896.67 521.442 4
0 3 4 4460.16 608.901 15
0 3 4 4201.95 622.303 18
0 3 4 4909.73 315.425 12
0 3 4 5232.48 726.66 5
0 3 4 4948.27 674.279 17
0 3 -4 5338.49 685.498 2
0 3 -4 5001.25 677.808 9
0 3 -4 4944.86 438.305 13
0 3 -4 5082.21 532.819 18
0 3 -5 4162.73 463.305 13
0 3 5 3258.2 566.932 10
0 3 5 3837.49 615.815 16
0 3 -5 2405.15 267.139 4
0 3 5 3557.89 631.461 5
0 3 5 4069.58 620.416 17
0 3 5 4096.81 252.324 12
0 3 -5 4027.89 464.478 18
0 3 -5 4125.73 643.193 2
0 3 5 3319.96 254.8 12
0 3 5 4038.42 541.229 4
0 3 5 3839.18 611.66 15
0 3 -5 4280.4 409.015 7
0 3 5 3293.83 596.136 18
0 3 -5 4095.97 479.85 15
0 3 -5 4783.22 706.669 9
0 3 -6 19835.7 947.862 7
0 3 -6 18914.7 1335.41 9
0 3 6 19320.5 1353.51 5
0 3 6 18881.2 1198.82 4
0 3 6 18155.1 1300.79 18
0 3 -6 20780.3 1052.22 18
0 3 6 18391.6 1291.09 16
0 3 6 18095.6 658.81 12
0 3 6 18868 1302.04 15
0 3 6 19080.1 1378.35 10
0 3 -6 19947.8 1026.44 15
0 3 6 19325.7 1313.63 17
0 3 -6 18155.2 1326.1 2
0 3 -7 40564.4 1596.02 7
0 3 7 39703.3 2065.33 16
0 3 7 38219.4 2008.61 5
0 3 -7 41386.9 1591.7 15
0 3 -7 39792.6 2075.88 9
0 3 7 40702.8 2065.32 18
0 3 -7 42823.7 1613.87 18
0 3 -7 39599.4 2085.42 2
0 3 7 42200.3 2043.71 17
0 3 7 38332.3 2087.86 10
0 3 7 40233.7 2031.45 15
0 3 7 38542 1203.83 12
0 3 7 40046.4 1986.96 4
0 3 -8 14557.2 1255.23 2
0 3 8 13695.5 1268.01 10
0 3 8 14123.9 1160.86 4
0 3 8 11668.3 987.598 17
0 3 8 17870.5 1276.8 15
0 3 8 12736.8 1157.79 5
0 3 8 13620 1164.07 18
0 3 8 12485.6 1179.11 16
0 3 -8 14101.4 914.803 7
0 3 -8 13891.4 1213.32 9
0 3 -9 342.577 361.451 2
0 3 9 338.972 409.905 16
0 3 9 157.811 368.361 4
0 3 -9 963.151 454.076 9
0 3 9 868.464 427.524 17
0 3 9 626.899 406.29 18
0 3 9 -130.824 393.258 15
0 3 9 -50.6919 369.043 5
0 3 9 763.708 518.45 10
0 3 10 305.05 399.307 18
0 3 10 -59.2476 391.142 17
0 3 10 111.813 422.601 16
0 3 10 631.851 366.526 5
0 3 10 -167.614 336.351 15
0 3 -10 -40.445 356.241 9
0 3 -10 -461.261 465.931 2
0 3 10 121.071 431.522 10
0 3 10 409.414 481.439 4
0 3 -11 130.451 531.654 2
0 3 -11 117.804 406.658 9
0 3 11 485.158 386.823 5
0 3 11 622.43 494.113 4
0 3 11 684 571.275 16
0 3 11 1279.89 463.111 15
0 3 11 728.282 471.266 10
0 3 11 551.64 355.359 18
0 3 12 2069.34 696.958 10
0 3 12 1148.47 640.815 4
0 3 12 1746.31 600.238 5
0 3 12 1325.68 610.687 16
0 3 -12 2002.75 550.782 9
0 3 12 1706.57 542.481 18
0 3 -12 2487.19 732.522 2
0 3 12 2132.74 574.131 15
0 3 13 558.031 353.618 18
0 3 13 905.105 642.982 4
0 3 13 -9.47894 426.311 5
0 3 13 -634.346 604.145 10
0 3 -13 -162.563 411.888 9
0 3 13 341.654 420.53 15
0 3 -13 392.673 561.632 2
0 3 -14 -970.507 534.564 9
0 4 0 3785.03 501.584 10
0 4 0 2607.06 542.321 17
0 4 0 2690.54 566.488 18
0 4 0 3080.27 608.277 2
0 4 0 3105.35 572.478 15
0 4 1 888.185 359.108 10
0 4 1 1329.16 438.942 18
0 4 -1 620.054 254.606 10
0 4 -1 1466.16 420.308 17
0 4 1 1001.4 431.205 17
0 4 1 1420.09 444.764 2
0 4 1 1250.25 308.06 16
0 4 -1 1096.45 407.67 15
0 4 -1 1179.68 390.552 18
0 4 -1 817.776 451.707 2
0 4 1 1503.93 458.663 15
0 4 2 649.51 393.006 18
0 4 -2 991.035 263.216 10
0 4 2 771.128 306.818 16
0 4 -2 874.479 356.349 15
0 4 -2 1166.8 406.034 17
0 4 -2 474.339 316.887 18
0 4 2 1086.28 455.29 2
0 4 2 962.914 411.469 17
0 4 2 1384.36 493.186 15
0 4 2 1407.04 264.726 12
0 4 2 1378.3 428.878 10
0 4 -2 1160.88 459.688 2
0 4 3 3742.65 671.243 17
0 4 -3 3924.29 580.712 15
0 4 -3 4631.16 401.469 10
0 4 3 3537.51 646.805 18
0 4 3 3930.7 686.148 15
0 4 3 3854.35 547.233 16
0 4 3 4844.52 839.101 5
0 4 -3 3245.87 652.813 2
0 4 3 4099.98 650.019 10
0 4 3 3365.49 623.829 2
0 4 -3 3421.37 558.104 17
0 4 -3 3592.7 570.497 18
0 4 4 3616.86 653.646 15
0 4 4 4027.62 678.333 10
0 4 -4 4551.59 744.156 2
0 4 4 4265.93 766.616 2
0 4 -4 4359.42 622.562 15
0 4 4 3766.21 482.171 4
0 4 4 3592.5 589.726 16
0 4 4 4794.98 786.878 5
0 4 -4 4367.52 599.23 17
0 4 4 3668.71 694.143 18
0 4 4 4384.69 738.278 17
0 4 -4 3964.74 590.912 18
0 4 5 13307 1213.57 18
0 4 5 11619.9 1102.28 10
0 4 5 10965 1118.12 15
0 4 -5 12440.6 1183.79 2
0 4 5 10918.8 1098.63 17
0 4 -5 13236.9 1000.65 15
0 4 5 13021.5 1093.06 16
0 4 5 12186.6 927.738 4
0 4 5 11534.2 1174.51 5
0 4 -5 11823.2 959.16 18
0 4 -5 11835.8 943.675 17
0 4 -6 8356.11 1059.09 2
0 4 6 8280.37 1000.21 5
0 4 -6 9550.98 826.03 17
0 4 -6 9752.21 835.896 18
0 4 6 9166.52 1007 17
0 4 -6 8386.69 1033.36 9
0 4 6 8826.65 1051.51 10
0 4 6 7596.34 923.466 16
0 4 6 7442.04 797.495 4
0 4 6 8532.22 994.283 15
0 4 -6 9044.48 809.846 15
0 4 6 8019.31 999.047 18
0 4 7 15737.4 1398.29 18
0 4 7 15181.9 1192.44 4
0 4 -7 14841.2 1373.38 9
0 4 7 15580.3 1396.75 10
0 4 7 15566.5 1368.31 15
0 4 7 14401.5 1328.43 17
0 4 7 14764 1303.22 16
0 4 -7 15580.1 1382.86 2
0 4 7 13736.1 1290.51 5
0 4 8 257.541 414.051 15
0 4 8 873.309 573.12 10
0 4 -8 1645.63 596.184 2
0 4 8 1210.96 500.902 5
0 4 8 1377.24 524.456 18
0 4 8 2450.13 732.034 17
0 4 8 1146.6 526.927 16
0 4 -8 1558.69 560.927 9
0 4 8 1652.29 527.319 4
0 4 9 3654.96 684.387 4
0 4 9 2445.92 643.833 18
0 4 -9 3301.97 733.586 9
0 4 9 3047.9 719.837 15
0 4 9 3638.22 771.623 10
0 4 9 3987.68 822.583 16
0 4 -9 3681.2 786.047 2
0 4 9 4207.31 784.131 17
0 4 9 3648.84 777.793 5
0 4 -10 426.021 461.176 2
0 4 10 -61.9164 434.095 4
0 4 10 787.22 514.983 15
0 4 -10 463.711 530.263 9
0 4 10 424.805 368.355 18
0 4 10 465.183 512.493 10
0 4 10 793.851 521.309 5
0 4 10 732.079 557.532 16
0 4 10 877.598 518.3 17
0 4 11 4036.09 826.037 5
0 4 11 4029.19 806.212 17
0 4 11 2914.02 736.211 4
0 4 11 3124.81 864.845 16
0 4 -11 3215.61 785.728 2
0 4 -11 3388.6 805.985 9
0 4 11 4087.72 903.185 10
0 4 11 3804.6 798.185 18
0 4 11 3131.92 723.421 15
0 4 12 6192.38 1017.42 5
0 4 12 6392.3 1002.47 18
0 4 12 4544.56 945.816 4
0 4 12 5105.96 916.795 15
0 4 13 322.29 469.133 5
0 5 0 -638.289 426.576 17
0 5 0 -520.526 344.592 10
0 5 0 353.621 373.336 15
0 5 0 -277.426 388.808 2
0 5 0 483.474 425.189 18
0 5 1 947.326 503.09 17
0 5 1 640.343 384.154 10
0 5 -1 1824.54 563.289 18
0 5 1 1303.76 469.002 15
0 5 1 1757.56 632.457 2
0 5 -1 1047.98 492.327 15
0 5 -1 907.355 476.19 2
0 5 -1 641.78 374.151 17
0 5 1 1133.66 506.351 18
0 5 2 155.827 394.89 17
0 5 -2 684.381 379.283 17
0 5 2 527.15 380.343 10
0 5 -2 227.026 418.924 2
0 5 2 563.299 424.319 18
0 5 -2 819.96 484.662 15
0 5 2 541.671 489.192 15
0 5 2 961.844 451.658 2
0 5 -2 826.187 427.84 18
0 5 -3 1612.99 523.52 15
0 5 -3 2068.07 568.149 17
0 5 -3 1426.34 646.315 2
0 5 3 1663.89 575.531 15
0 5 3 1300.33 605.298 5
0 5 3 1358.09 567.038 2
0 5 3 1398.3 539.17 18
0 5 3 1277.4 534.432 10
0 5 -3 884.156 449.099 18
0 5 3 1224.54 505.321 17
0 5 4 5581.37 988.5 2
0 5 4 5496.04 886.34 15
0 5 4 5917.16 947.453 18
0 5 4 5283.25 876.247 17
0 5 -4 6683.58 872.192 18
0 5 -4 6848.99 838.922 15
0 5 -4 6138.69 830.974 17
0 5 4 5831.02 809.634 16
0 5 -4 4739.68 922.725 2
0 5 4 7393.42 955.772 10
0 5 4 6143.1 971.477 5
0 5 5 1445.24 585.358 5
0 5 -5 934.021 432.212 15
0 5 5 872.498 548.866 15
0 5 5 1301.37 558.806 17
0 5 5 1444.75 542.889 16
0 5 5 1133.2 607.34 10
0 5 -5 1095.58 453.585 18
0 5 -5 597.881 504.175 2
0 5 5 978.665 564.781 18
0 5 -5 649.256 396.672 17
0 5 -6 1717.01 590.821 2
0 5 6 2736.32 710.157 17
0 5 6 3014.72 740.885 10
0 5 6 1597.64 567.126 15
0 5 6 2992.93 801.766 5
0 5 6 1467.67 584.415 18
0 5 6 2424.58 622.059 16
0 5 7 4638.83 913.621 5
0 5 7 4868.65 951.37 10
0 5 7 5218.68 882.692 18
0 5 7 3978.87 788.013 16
0 5 7 4348.3 846.775 15
0 5 7 5151.1 886.983 17
0 5 -7 4226.59 898.142 2
0 5 8 7417.65 1106.35 18
0 5 8 6870.92 1016.72 16
0 5 8 8019.49 1175.53 10
0 5 8 8133.25 1121.96 17
0 5 -8 5732.09 1088.63 2
0 5 8 6525.82 1047.14 5
0 5 8 8067.56 1129.17 15
0 5 9 1318 565.804 16
0 5 9 1669.24 734.538 5
0 6 0 181.805 380.947 18
0 6 0 108.186 389.319 17
0 6 0 526.32 404.07 15
0 6 0 625.59 581.825 2
0 6 -1 617.722 478.378 15
0 6 1 2064.46 740.922 5
0 6 -1 39.2421 392.729 18
0 6 1 -114.53 467.998 17
0 6 -1 710.759 564.534 17
0 6 -1 -357.908 582.554 2
0 6 1 1060.98 540.951 18
0 6 1 782.234 524.913 15
0 6 1 -398.35 551.293 2
0 6 -2 1093.49 660.151 2
0 6 2 2607.58 860.296 5
0 6 -2 1814.97 653.098 17
0 6 -2 1569.62 552.143 15
0 6 -2 1699.14 610.96 18
0 6 2 1224.87 663.911 2
0 6 2 1181.18 533.941 15
0 6 2 1650.55 710.456 18
0 6 2 874.045 463.929 17
0 6 -3 1763.79 708.178 2
0 6 3 1910.54 722.646 2
0 6 -3 785.973 445.115 15
0 6 -3 1608.42 659.818 18
0 6 -3 1344.77 583.005 17
0 6 -4 1004.4 544.658 17
0 6 4 221.087 429.859 10
0 6 -4 671.551 522.191 18
0 6 5 136.752 480.366 10
0 6 6 2977.9 765.835 10
-1 -6 6 111.947 454.38 14
-1 -6 5 912.677 531.561 14
-1 -6 4 1953.35 647.429 14
1 -6 -4 1628.23 634.882 14
1 -6 -3 4090.13 799.026 14
1 -6 -3 3906.44 795.41 6
-1 -6 3 4110.72 774.673 14
-1 -6 2 4534.81 930.376 6
1 -6 -2 3769.01 828.622 14
-1 -6 2 3066.5 704.554 14
1 -6 -2 3032 772.601 6
1 -6 -1 656.759 426.535 14
1 -6 -1 1961.01 640.624 8
-1 -6 1 1548.01 617.019 14
1 -6 -1 319.614 495.021 6
-1 -6 1 -280.907 499.76 6
1 -6 0 2978.86 708.871 14
-1 -6 0 2951.53 706.055 14
1 -6 0 3718.76 761.847 8
-1 -6 0 3948.08 881.156 6
1 -6 0 3895.14 857.679 6
-1 -6 -1 1191.13 547.457 14
-1 -6 -1 1999.81 695.764 6
1 -6 1 1753.41 574.241 6
1 -6 1 1116.01 576.947 14
1 -6 1 1811.71 604.7 8
-1 -6 -2 2555.52 609.195 14
1 -6 2 3353.95 698.228 8
1 -6 2 2807.76 712.794 6
-1 -6 -2 3806.3 837.322 6
1 -6 2 2625.73 727.478 14
1 -6 3 3832.34 828.107 6
-1 -6 -3 4559.43 822.433 14
1 -6 3 3043.23 819.272 14
1 -6 4 2060.31 668.524 6
-1 -6 -4 1294.91 559.564 14
1 -6 4 2360.79 746.17 14
-1 -6 -5 2618.52 722.172 14
1 -5 -10 509.617 525.057 7
-1 -5 9 584.937 541.959 12
1 -5 -9 789.705 482.73 7
1 -5 -8 5504.96 852.336 7
-1 -5 8 4190.09 802.358 12
-1 -5 8 4034.91 841.505 6
1 -5 -7 693.71 454.163 7
-1 -5 7 799.421 462.598 12
1 -5 -7 -313.953 497.505 6
-1 -5 7 401.246 501.752 6
-1 -5 7 627.265 486.009 14
1 -5 -6 2605.6 579.862 7
-1 -5 6 2406.65 618.338 14
-1 -5 6 1337.55 570.386 12
-1 -5 6 2373.11 659.112 6
1 -5 -6 2896.15 762.628 6
1 -5 -5 1692.06 455.657 7
-1 -5 5 643.979 384.191 12
-1 -5 5 1065.45 526.22 14
-1 -5 5 1319.73 515.787 6
1 -5 -5 1133.68 560.131 6
1 -5 -4 1808.15 411.959 7
1 -5 -4 1219.94 521.538 6
-1 -5 4 1337.36 543.519 12
-1 -5 4 2018.88 547.245 14
-1 -5 4 1123.31 483.552 6
1 -5 -3 966.081 440.195 6
-1 -5 3 1019 500.118 6
-1 -5 3 1126.65 412.158 14
-1 -5 3 453.894 334.286 12
1 -5 -3 1614.07 533.675 14
-1 -5 2 3317.69 729.238 6
1 -5 -2 2905.87 630.624 14
-1 -5 2 3797.76 698.714 14
1 -5 -2 3604.81 740.121 6
-1 -5 1 1789.88 509.855 14
-1 -5 1 1902.86 620.298 6
1 -5 -1 984.99 464.005 6
1 -5 -1 1254.24 545.316 14
-1 -5 0 393.039 383.777 6
-1 -5 0 824.623 446.823 14
1 -5 0 982.959 439.897 6
-1 -5 -1 2685.41 589.929 14
1 -5 1 3144.02 673.235 14
1 -5 1 3256.13 646.829 6
1 -5 1 3493.72 668.602 8
-1 -5 -1 2567.32 610.776 6
-1 -5 -2 2970.56 633.244 6
1 -5 2 3208.79 687.247 6
1 -5 2 3832.95 741.614 14
-1 -5 -2 2324.18 556.707 14
1 -5 2 4106.72 678.036 8
1 -5 3 1239.03 430.77 8
-1 -5 -3 1820.8 601.489 6
1 -5 3 1131.77 540.991 6
1 -5 3 1831.95 548.639 14
-1 -5 -3 2118.56 586.123 14
1 -5 4 531.3 459.57 6
-1 -5 -4 222.586 461.988 6
1 -5 4 433.458 401.349 14
-1 -5 -4 358.026 539.231 1
1 -5 4 560.188 323.961 8
-1 -5 -5 1064.71 544.963 6
-1 -5 -5 388.062 561.596 1
1 -5 5 319.373 423.704 14
1 -5 5 258.208 467.193 6
1 -5 6 457.88 495.925 6
-1 -5 -6 -378.354 534.887 1
1 -5 6 -185.348 428.172 14
-1 -5 -7 3007.31 826.037 1
-1 -5 -7 3313.1 765.701 6
1 -5 7 3932.51 829.787 14
1 -5 7 3711.08 812.485 6
1 -5 7 3406.44 785.72 12
-1 -5 -8 6122.54 1093.62 1
1 -5 8 4992.84 949.462 14
1 -5 8 5099.76 987.983 12
1 -5 8 5951.8 976.741 6
1 -5 9 9006.7 1203.5 6
-1 -5 -9 7178.16 1086.97 7
-1 -4 11 1152.26 599.13 12
1 -4 -11 495.374 450.734 1
-1 -4 11 1536.83 661.849 6
1 -4 -11 1322 634.841 7
-1 -4 10 5480.04 907.357 12
1 -4 -10 5766.37 932.008 7
1 -4 -10 4051.73 859.332 1
-1 -4 10 4146.57 865.451 6
-1 -4 9 7393.08 1063.91 12
1 -4 -9 5475.4 1052.74 1
-1 -4 9 8292.5 1065.84 6
1 -4 -9 7852.25 1012.52 7
-1 -4 8 1264.82 507.121 6
-1 -4 8 291.759 417.27 12
1 -4 -8 1593.64 544.64 7
1 -4 -8 744.364 506.124 1
1 -4 -7 3814.44 647.856 7
1 -4 -7 1734.21 610.798 1
-1 -4 7 3354.56 656.641 14
-1 -4 7 2347.08 585.384 12
-1 -4 7 2948.7 684.777 6
-1 -4 6 11735.5 779.675 8
1 -4 -6 12116.3 1051.05 7
-1 -4 6 10008.4 1049.96 6
-1 -4 6 11327.1 1087.58 12
-1 -4 6 11256.1 1062.7 14
1 -4 -5 1430.93 414.307 7
-1 -4 5 1791.04 537.195 6
-1 -4 5 989.48 392.767 12
-1 -4 5 1333.09 453.271 14
-1 -4 4 11617.8 1107.46 6
-1 -4 4 11214.3 1035.75 14
-1 -4 4 12355.9 1021.78 12
1 -4 -4 13235.1 1132.36 6
-1 -4 3 2218.12 448.605 12
1 -4 -3 2640.5 591.78 6
1 -4 -3 1521.16 158.017 13
-1 -4 3 1375.06 469.071 6
-1 -4 3 1033.52 403.05 14
-1 -4 2 179.541 365.163 6
1 -4 -2 825.299 385.345 14
1 -4 -2 123.797 319.762 6
-1 -4 2 312.348 321.927 12
-1 -4 2 83.8327 294.027 14
1 -4 -1 9661.74 661.142 16
-1 -4 1 8716.43 840.57 14
1 -4 -1 8731.87 887.459 6
1 -4 -1 8527.77 896.597 14
-1 -4 1 7731.19 759.213 12
-1 -4 1 10103.1 592.853 16
-1 -4 1 7954.75 912.088 6
-1 -4 0 14934.8 837.569 16
-1 -4 0 14647.8 1206.75 6
-1 -4 0 14504.8 1071.57 14
1 -4 0 13439 1112.41 14
1 -4 0 14872.5 1148.19 6
-1 -4 0 15099.1 529.743 4
1 -4 1 417.246 393.883 6
-1 -4 -1 -160.454 324.901 6
1 -4 1 14.9012 330.031 14
-1 -4 -1 -324.898 355.688 14
1 -4 1 144.716 106.736 7
-1 -4 -2 3587.28 686.874 1
1 -4 2 7026.29 804.342 14
1 -4 2 4719 689.747 6
1 -4 2 6148.41 709.568 8
-1 -4 -2 6386.75 805.888 6
1 -4 3 5165.32 615.966 8
1 -4 3 4368.92 679.008 14
-1 -4 -3 6720.28 823.743 6
1 -4 3 6080.33 787.22 6
-1 -4 -4 372.104 416.317 6
1 -4 4 550.341 371.323 6
1 -4 4 437.536 254.316 8
1 -4 4 840.736 387.87 12
-1 -4 -4 -515.6 524.733 1
1 -4 4 1218.88 442.504 14
1 -4 5 -53.1633 396.733 14
1 -4 5 -66.412 181.416 8
-1 -4 -5 234.072 437.896 1
1 -4 5 -42.7406 352.895 12
1 -4 5 -34.4076 313.274 6
1 -4 6 12848.9 1186.58 14
1 -4 6 10807.1 1073.64 6
-1 -4 -6 12114 1253.56 1
1 -4 6 10173.7 1082.16 12
1 -4 7 1073.68 501.133 6
-1 -4 -7 1176.79 574.388 1
1 -4 7 855.277 559.342 14
1 -4 7 540.517 382.133 12
1 -4 8 7952.31 1026.94 6
1 -4 8 7115.67 1086.98 12
1 -4 9 4436.29 840.511 6
-1 -4 -9 4515.83 888.653 1
1 -4 9 4410.91 846.764 12
-1 -4 -10 3189.28 765.513 1
-1 -4 -10 5929.94 987.486 7
1 -4 10 3359.23 759.929 6
1 -4 10 5501.22 921.601 12
1 -4 11 2048.63 629.377 6
-1 -4 -11 1388.88 673.489 1
-1 -4 -11 916.021 491.108 7
-1 -4 -12 8193.95 1171.42 1
-1 -3 13 5464.6 1003.89 6
1 -3 -13 3632.01 877.722 7
-1 -3 12 9188.44 1192.67 12
-1 -3 12 10228 1266.85 6
1 -3 -12 9193.13 1192.51 7
1 -3 -11 387.715 422.238 1
-1 -3 11 42.8233 395.995 6
-1 -3 11 733.166 531.449 12
1 -3 -11 1110.86 560.738 7
-1 -3 11 733.537 417.183 4
-1 -3 10 8670.53 1095.35 6
1 -3 -10 7736.21 1022.63 7
-1 -3 10 10495.9 1142.42 12
1 -3 -10 8788.82 1027.41 1
-1 -3 10 9393.24 878.835 4
-1 -3 9 6022.04 870.3 6
1 -3 -9 3090.56 728.187 1
-1 -3 9 5146.32 849.724 12
-1 -3 9 5568.18 621.523 4
1 -3 -9 5495.81 875.52 7
-1 -3 8 616.257 298.927 4
1 -3 -8 -159.095 361 7
1 -3 -8 1018.12 491.835 1
-1 -3 8 1061.09 484.211 6
-1 -3 8 901.428 420.033 12
-1 -3 7 27685.3 913.738 16
-1 -3 7 29369 1711.22 12
1 -3 -7 31172.1 1752.75 1
-1 -3 7 27831.4 1693.51 6
1 -3 -7 28851.6 1709.1 7
-1 -3 7 33858.2 1359.21 4
-1 -3 7 30122.4 952.592 8
-1 -3 6 22440.2 1412.79 14
-1 -3 6 25067.1 975.18 8
-1 -3 6 23259.7 1457.79 12
1 -3 -6 22146.6 1399.61 7
-1 -3 6 23851.3 1509.36 6
-1 -3 6 26508.3 1078.53 4
-1 -3 5 13232.9 643.343 4
-1 -3 5 11391.2 945.175 14
1 -3 -5 13563 838.356 13
-1 -3 5 12715.3 1034.01 6
-1 -3 5 14214.8 804.016 7
-1 -3 5 13115.5 1000.94 12
-1 -3 4 2633.28 488.563 12
-1 -3 4 2433.43 227.465 4
-1 -3 4 2361.45 478.468 14
1 -3 -4 723.153 399.191 1
-1 -3 4 2852.06 336.591 7
-1 -3 4 1512.12 460.751 6
1 -3 -4 2540.4 338.46 13
-1 -3 3 542.349 211.267 7
-1 -3 3 962.383 345.978 14
-1 -3 3 464.933 358.932 6
1 -3 -3 460.963 192.635 4
-1 -3 3 388.384 78.9207 4
-1 -3 3 317.312 68.4317 16
-1 -3 3 106.563 277.532 12
-1 -3 2 5906.32 580.027 12
-1 -3 2 5785.05 350.884 16
-1 -3 2 6503.22 493.051 7
-1 -3 2 5245.39 653.416 6
-1 -3 2 5461.25 591.617 14
1 -3 -2 5697.18 664.53 6
1 -3 -2 6281.34 539.928 16
1 -3 -2 6796.02 442.165 4
-1 -3 1 11636.6 922.401 6
1 -3 -1 13674.4 725.442 16
-1 -3 1 13911.2 754.435 7
-1 -3 1 13204.7 629.854 16
1 -3 -1 11729.2 540.67 4
1 -3 -1 11391.3 404.31 13
1 -3 -1 11829.8 897.785 6
-1 -3 1 13492.6 795.948 12
-1 -3 1 13500.9 881.2 14
-1 -3 0 16399 980.992 14
-1 -3 0 15994.7 805.279 16
1 -3 0 15843.5 1028.52 6
-1 -3 0 16381.4 634.905 4
-1 -3 0 16477.4 871.776 10
1 -3 0 14526.3 1021.22 14
-1 -3 0 13850.2 1036.32 6
-1 -3 0 13076 1069.82 1
-1 -3 0 15617.4 810.205 12
1 -3 0 16684.1 736.522 16
1 -3 1 57948.9 1598.64 7
-1 -3 -1 62366.4 1775.53 4
1 -3 1 56222.3 2211.36 6
1 -3 1 55132.6 2212 14
-1 -3 -1 56853.4 2287.35 6
-1 -3 -1 62576.9 2006.31 16
1 -3 1 56383.7 1528.24 13
1 -3 2 20713.3 1234.4 6
1 -3 2 21849 695.708 7
-1 -3 -2 20673.6 707.85 13
-1 -3 -2 18906.6 1312.53 1
-1 -3 -2 18990.4 1225.54 6
1 -3 2 22125.8 1187.67 12
1 -3 2 19630 1225.68 14
1 -3 2 22322.3 1136.25 8
-1 -3 -2 23233.2 1000.48 4
-1 -3 -3 5081.43 492.847 4
1 -3 3 4480.39 611.151 6
1 -3 3 4263.53 247.424 7
1 -3 3 4039.94 466.77 8
-1 -3 -3 4700.77 350.691 13
1 -3 3 4988.92 601.315 12
1 -3 3 4062.98 570.921 14
-1 -3 -3 4261.62 670.398 1
-1 -3 -4 3915.54 380.492 13
1 -3 4 3229.47 572.396 14
-1 -3 -4 3400.64 652.374 1
1 -3 4 3860.36 572.586 6
1 -3 4 3868.54 568.316 12
1 -3 4 3291.03 401.576 8
1 -3 5 2203.71 504.807 14
1 -3 5 2264.55 316.251 8
1 -3 5 2227.23 525.866 12
1 -3 5 2008.34 459.847 6
-1 -3 -5 1635.63 504.698 1
1 -3 5 1669.05 312.94 15
1 -3 6 652.198 395.426 14
1 -3 6 669.139 363.049 12
1 -3 6 1194.49 403.416 6
1 -3 6 1093.63 259.22 15
-1 -3 -6 823.193 343.416 1
1 -3 6 1240.86 225.871 8
1 -3 7 23553.3 1534.64 6
1 -3 7 25920 949.842 8
1 -3 7 24010.9 1599.94 12
-1 -3 -7 25245.8 1624.31 1
1 -3 8 2849.06 593.639 12
1 -3 8 2554.39 548.318 6
1 -3 8 3634.84 507.562 4
-1 -3 -8 1721.61 641.478 1
1 -3 9 1109.5 533.417 12
1 -3 9 1173.06 468.802 6
-1 -3 -9 816.795 480.503 1
1 -3 9 705.892 351.937 4
1 -3 10 604.756 375.185 4
1 -3 10 -348.776 450.844 12
-1 -3 -10 -183.005 485.555 7
-1 -3 -10 163.288 418.077 1
1 -3 10 1149.41 500.9 6
-1 -3 -11 250.51 405.172 1
1 -3 11 902.481 503.248 12
-1 -3 -11 144.328 429.292 7
1 -3 11 763.561 497.728 6
1 -3 12 2693.03 721.137 12
-1 -3 -12 1290.68 672.777 7
-1 -3 -12 2830.72 685.255 1
1 -3 12 1389.08 664.095 6
1 -3 13 140.915 461.509 6
-1 -2 15 2054.19 706.873 4
1 -2 -14 1994.72 728.115 7
-1 -2 14 1953.92 690.116 4
-1 -2 14 2603.3 739.526 12
-1 -2 13 933.16 527.037 4
1 -2 -13 1381.08 615.223 7
-1 -2 13 2385.01 712.583 12
-1 -2 12 3377.99 687.82 4
-1 -2 12 4256.68 835.637 12
-1 -2 12 3265.33 706.716 6
1 -2 -12 3666.24 788.397 7
1 -2 -11 670.146 513.563 7
-1 -2 11 632.834 307.69 16
-1 -2 11 1133.33 500.105 4
-1 -2 11 578.3 474.107 6
-1 -2 11 326.707 393.213 12
1 -2 -11 697.225 396.989 1
1 -2 -10 1733.35 460.806 1
-1 -2 10 1279.34 506.329 6
-1 -2 10 1163.53 350.29 16
-1 -2 10 1504.62 531.414 12
1 -2 -10 464.488 380.593 7
-1 -2 10 1011.62 376.338 4
-1 -2 9 791.367 442.923 12
-1 -2 9 691.471 371.048 4
1 -2 -9 403.885 439.467 7
1 -2 -9 314.26 310.812 1
-1 -2 9 69.5666 350.531 6
-1 -2 9 261.807 235.1 16
-1 -2 8 14090.1 1113.41 12
-1 -2 8 15494.1 996.847 4
-1 -2 8 15250.5 841.703 16
1 -2 -8 12228.3 1124.22 7
-1 -2 8 15749.3 1180.29 6
1 -2 -7 17734.1 1194.16 1
-1 -2 7 21323.8 1346.38 12
-1 -2 7 21903 1346.86 6
1 -2 -7 19686.8 1342.15 7
-1 -2 7 23791.5 1000.01 16
-1 -2 7 24119.1 1182.95 4
-1 -2 6 2368.18 456.629 12
1 -2 -6 1689.78 484.851 1
1 -2 -6 2891.24 520.348 7
-1 -2 6 2223.12 385.756 4
-1 -2 6 2085.36 489.001 6
-1 -2 6 2946.99 302.407 16
1 -2 -5 16878.5 1054.64 1
-1 -2 5 16335.2 833.659 4
-1 -2 5 14273.8 1023.56 12
-1 -2 5 15157.6 618.583 8
-1 -2 5 17987.6 694.474 16
-1 -2 5 19655.5 935.683 7
1 -2 -5 16966.8 1042.62 7
-1 -2 5 15834.4 1033.18 6
-1 -2 4 697.522 219.862 7
-1 -2 4 774.298 323.597 14
-1 -2 4 749.996 196.605 4
1 -2 -4 124.072 281.186 1
-1 -2 4 703.503 234.148 15
1 -2 -4 936.012 273.046 4
-1 -2 4 83.1312 297.868 6
-1 -2 4 497.994 327.573 12
-1 -2 4 641.995 143.869 16
1 -2 -3 20243.1 1204.04 1
-1 -2 3 24622.2 1243.96 6
-1 -2 3 26425.7 1128.76 15
-1 -2 3 22522.8 1154.97 12
1 -2 -3 26682.9 1191.59 16
1 -2 -3 27985.9 1094.23 4
-1 -2 3 25637.3 1022.91 7
-1 -2 3 24594.7 1163.15 14
-1 -2 3 25025.4 890.452 4
1 -2 -3 26452.9 1027.64 9
1 -2 -2 2150.37 302.375 9
-1 -2 2 2255.9 345.171 12
-1 -2 2 1965.67 277.279 7
1 -2 -2 2223.36 389.106 2
-1 -2 2 1409.37 374.144 6
-1 -2 2 2374.23 363.683 14
1 -2 -2 2049.57 303.49 16
-1 -2 2 2379.76 201.648 4
-1 -2 2 2324.7 365.134 15
1 -2 -2 2496.15 271.228 4
-1 -2 2 1926.3 181.317 16
1 -2 -1 13452.7 797.832 15
-1 -2 1 13253.8 840.381 6
-1 -2 1 11735.2 787.922 1
1 -2 -1 14067.5 674.839 16
-1 -2 1 14318.5 617.427 10
-1 -2 1 12658.5 677.267 12
1 -2 -1 14981 760.87 9
1 -2 -1 15067.1 839.018 18
-1 -2 1 11555.4 678.273 7
1 -2 -1 13038.1 805.31 6
-1 -2 1 13101.6 747.537 14
-1 -2 1 14695.5 818.804 15
1 -2 -1 14413.8 563.678 4
1 -2 -1 14356.1 842.732 2
-1 -2 1 13430.5 583.501 16
-1 -2 1 13395.8 816.128 9
1 -2 0 39804.5 1229.13 16
1 -2 0 39369.4 1548.27 14
1 -2 0 41217.4 1493.65 18
-1 -2 0 41655.2 1555.41 18
-1 -2 0 42112.8 1557 15
-1 -2 0 40691.8 1566.51 2
-1 -2 0 36039.5 1519.81 6
-1 -2 0 36735.7 1249.82 12
-1 -2 0 40381.8 1364.82 10
-1 -2 0 31155.5 1528.02 1
-1 -2 0 40112.8 1185.39 4
-1 -2 0 36883.8 1420.74 14
1 -2 0 42053.2 1548.14 2
1 -2 0 41626.5 1496.33 15
-1 -2 0 40516.3 1315.22 16
1 -2 0 38012.6 1482.46 6
1 -2 0 37948.9 1099.12 13
1 -2 0 41285.3 1507.66 9
1 -2 1 120716 3496.33 6
1 -2 1 142586 3614.27 2
1 -2 1 112734 2938.65 7
1 -2 1 137913 3633.48 9
-1 -2 -1 119424 3577.3 6
-1 -2 -1 129589 3241.85 4
-1 -2 -1 123574 2999.52 13
1 -2 1 131068 3450.08 15
1 -2 1 119375 3546.54 14
1 -2 1 123735 3097.34 13
1 -2 1 133676 3465.53 18
-1 -2 -1 126915 3454.59 10
-1 -2 -1 130469 3405.56 16
1 -2 1 124381 3469.71 12
-1 -2 -1 120899 3076.86 12
-1 -2 -1 121208 3584.22 3
1 -2 2 57115 2118.59 12
1 -2 2 61040.7 1827.41 13
-1 -2 -2 57101.6 2186.04 1
-1 -2 -2 64660 2079.82 16
1 -2 2 56570.6 2080.68 6
1 -2 2 57774.7 2129.03 14
1 -2 2 58242.3 1960.94 8
1 -2 2 64027.1 1974.26 15
-1 -2 -2 64571.4 1973.38 4
-1 -2 -2 64959.1 1779.95 13
-1 -2 -2 63778.8 2110.84 10
1 -2 2 65232.1 1981.14 18
-1 -2 -2 56120 2117.28 3
1 -2 2 74455.3 2241.49 2
1 -2 3 8992.67 601.605 13
1 -2 3 9873.69 559.935 8
1 -2 3 8699.69 545.604 18
-1 -2 -3 10118.1 829.681 1
-1 -2 -3 8109.21 663.825 3
1 -2 3 8612.4 671.313 6
1 -2 3 9084.79 739.636 14
1 -2 3 8703.18 545.235 15
-1 -2 -3 9918.58 566.603 13
1 -2 3 8633.43 703.438 12
-1 -2 -3 9821.41 648.089 4
1 -2 4 736.406 327.015 6
1 -2 4 211.613 173.505 4
1 -2 4 141.126 332.705 12
1 -2 4 -346.147 341.493 14
-1 -2 -4 84.0899 221.468 3
-1 -2 -4 310.137 314.546 1
-1 -2 -4 216.847 193.053 13
1 -2 4 302.562 251.246 13
1 -2 4 94.6003 135.144 15
1 -2 4 294.412 152.337 8
1 -2 5 3282.9 291.027 15
1 -2 5 2608.61 373.608 4
-1 -2 -5 4160.01 551.018 1
1 -2 5 3903.91 297.528 8
1 -2 5 2536.03 422.308 6
-1 -2 -5 2826.47 414.649 3
1 -2 5 2304.55 476.707 12
1 -2 5 3304.67 519.963 14
1 -2 6 12591.9 960.732 6
-1 -2 -6 11155.9 925.797 1
1 -2 6 14016.3 827.375 4
1 -2 6 13216 1024.16 12
1 -2 6 12914.4 532.27 8
-1 -2 -6 13449.8 824.622 3
1 -2 7 8510.54 873.242 12
1 -2 7 9256.2 582.077 16
1 -2 7 8542.18 831.251 6
1 -2 7 9779.7 745.879 4
-1 -2 -7 9617.11 845.028 1
-1 -2 -7 8092.89 660.896 3
1 -2 8 15197 841.799 16
1 -2 8 13914.3 1146.95 12
-1 -2 -8 14410.4 1105.86 1
-1 -2 -8 14178 878.639 3
1 -2 8 14903.4 1061.01 4
1 -2 8 14791.4 1142.85 6
1 -2 9 10555.7 1046.98 6
1 -2 9 9722.4 1010.68 12
-1 -2 -9 10030.1 752.695 3
1 -2 9 9671.89 860.495 4
-1 -2 -9 11647.2 1003.25 1
1 -2 9 9964.55 729.571 16
1 -2 10 7462.62 883.37 4
1 -2 10 9333.14 1027.81 12
-1 -2 -10 6405.38 939.101 7
1 -2 10 8489.83 963.289 6
-1 -2 -10 8464.02 904.553 1
1 -2 10 8898.25 735.55 16
1 -2 11 3501.02 692.961 6
1 -2 11 2006.8 602.188 12
-1 -2 -11 1726.26 459.318 1
1 -2 11 1039.63 503.046 4
-1 -2 -11 1897.24 555.621 7
1 -2 11 2545.14 478.074 16
-1 -2 -12 835.788 495.434 7
1 -2 12 629.199 447.136 4
-1 -2 -12 1333.93 453.409 1
1 -2 12 1589.16 603.718 12
1 -2 13 3977.9 770.377 4
-1 -2 -13 3449.74 844.049 7
1 -2 13 2553.32 727.836 12
1 -2 14 2761.55 734.439 4
1 -2 14 2157.5 680.282 12
1 -2 15 5274.8 1013.04 4
-1 -1 15 1561.74 581.22 16
-1 -1 15 1883.46 711.291 4
-1 -1 15 2158.79 709.223 12
-1 -1 14 781.277 461.549 16
1 -1 -14 1263.83 559.324 11
-1 -1 14 46.161 447.075 12
1 -1 -14 1180.08 604.552 7
-1 -1 14 1223.46 654.639 4
-1 -1 13 1302.53 661.091 4
-1 -1 13 1160.38 555.552 12
1 -1 -13 869.78 508.002 7
1 -1 -13 1656.45 608.282 11
-1 -1 13 1042.75 456.934 16
-1 -1 12 5850.14 665.169 10
-1 -1 12 4558.54 813.999 4
-1 -1 12 4974.04 833.353 12
1 -1 -12 5240.64 826.772 11
-1 -1 12 5521.08 801.801 16
1 -1 -12 5295.79 858.097 7
-1 -1 11 9591.08 774.533 10
-1 -1 11 8507.07 901.718 16
1 -1 -11 8136.05 1003.63 7
-1 -1 11 8444.86 980.011 4
-1 -1 11 8270.75 965.756 12
1 -1 -11 9358.89 811.592 1
1 -1 -11 8173.22 945.654 11
-1 -1 10 2151.54 309.836 18
1 -1 -10 1841.2 564.137 7
-1 -1 10 1843.67 505.57 12
-1 -1 10 1789.58 474.564 16
1 -1 -10 2122.24 510.144 11
1 -1 -10 1852.16 288.362 9
-1 -1 10 2096.58 540.054 4
-1 -1 10 2241.89 377.483 10
1 -1 -10 2372.07 468.701 1
1 -1 -9 1830.11 502.166 7
1 -1 -9 2889.19 431.978 1
-1 -1 9 1839.6 405.328 16
-1 -1 9 1658.68 450.014 12
1 -1 -9 1814.96 449.598 11
1 -1 -9 2296.94 309.003 9
-1 -1 9 2260.24 518.02 6
1 -1 -9 1421.21 152.748 3
-1 -1 9 1195.07 432.081 4
-1 -1 9 2360.37 310.924 18
-1 -1 9 1798.43 328.414 10
-1 -1 8 16994.6 825.55 18
-1 -1 8 16871.1 1127.23 4
-1 -1 8 17155.1 1162.26 12
-1 -1 8 18210.5 1040.6 16
-1 -1 8 17237.3 861.074 10
1 -1 -8 14596.2 578.787 3
-1 -1 8 14928.1 1108.98 6
1 -1 -8 19600.3 1005.39 1
1 -1 -8 16142.7 1099.95 11
1 -1 -8 15924.4 1146.3 7
1 -1 -7 2349.58 514.129 7
-1 -1 7 3016.11 417.977 16
-1 -1 7 1729.02 420.076 4
-1 -1 7 2535.41 294.554 18
1 -1 -7 2476.35 432.702 11
-1 -1 7 1926.78 434.475 6
1 -1 -7 1818.15 193.22 3
-1 -1 7 2881.66 328.883 10
1 -1 -7 3698.97 423.172 1
-1 -1 7 2886.15 515.672 12
1 -1 -6 87453.7 2973.48 7
1 -1 -6 93502.1 2752.42 1
-1 -1 6 86719.5 2865.28 4
-1 -1 6 89526.2 2576.78 18
-1 -1 6 92672.2 2506.42 10
-1 -1 6 96585.5 2841.57 9
-1 -1 6 90217.9 2726.44 16
-1 -1 6 87584.3 2956.67 12
1 -1 -6 87584.1 2912.92 11
-1 -1 6 86030.4 2959.73 6
1 -1 -5 53166.9 2236.13 7
-1 -1 5 68852.4 2155.78 9
1 -1 -5 61379.7 2172.29 11
1 -1 -5 61318.3 2070.48 1
-1 -1 5 74432.7 2223.15 7
1 -1 -5 66459.1 2151.73 15
1 -1 -5 66812.4 2133.58 17
-1 -1 5 63909 2106.8 4
-1 -1 5 66594.3 1801.43 10
-1 -1 5 63116.2 2233.95 12
-1 -1 5 64623.3 2009.94 16
1 -1 -5 68092.9 2165.57 18
-1 -1 5 61863.9 2219.84 6
1 -1 -4 1207.23 301.827 4
-1 -1 4 1541.21 298.722 9
1 -1 -4 1221.54 328.508 7
-1 -1 4 1375.17 251.171 16
1 -1 -4 1299.5 304.309 11
-1 -1 4 1278.15 351.26 12
1 -1 -4 1144.37 261.376 1
-1 -1 4 1649.92 356.483 6
1 -1 -4 1777.46 325.659 10
1 -1 -4 1956.73 300.121 15
1 -1 -4 1499.88 301.145 17
-1 -1 4 1329.2 296.23 7
1 -1 -4 1912.98 368.212 16
-1 -1 4 1356.2 287.382 4
1 -1 -4 1310.09 279.433 18
-1 -1 4 1455.73 153.405 10
-1 -1 3 49680.4 1782.11 12
1 -1 -3 58299.5 1792.4 4
-1 -1 3 56835.4 1583.23 16
-1 -1 3 55634.6 1459.19 8
-1 -1 3 54303.5 1665.27 4
1 -1 -3 55950.4 1797.74 18
1 -1 -3 54026.9 1753.35 1
-1 -1 3 57680 1729.75 7
1 -1 -3 56265.5 1828.61 16
-1 -1 3 60740.7 1822.9 9
-1 -1 3 52047.2 1803.89 6
1 -1 -3 55795.5 1797.28 15
1 -1 -3 55799.6 1785.46 17
1 -1 -3 53822.9 1799.24 7
-1 -1 3 60548.5 1893.93 2
1 -1 -2 15848.3 741.843 15
-1 -1 2 16894.5 683.733 7
-1 -1 2 17530 770.393 9
1 -1 -2 15416.8 687.56 4
-1 -1 2 14156.1 614.822 4
1 -1 -2 17006.6 756.066 17
1 -1 -2 16828.3 717.137 7
1 -1 -2 18990.9 763.969 2
-1 -1 2 16320.6 683.739 14
1 -1 -2 15485.5 562.068 9
1 -1 -2 15607.8 735.121 18
-1 -1 2 15700.3 759.409 6
-1 -1 2 16308.6 750.367 12
-1 -1 2 16759.6 790.385 2
1 -1 -2 15080.4 725.632 16
1 -1 -2 13993.3 739.18 1
-1 -1 2 16549.2 697.266 15
-1 -1 1 135185 3739.67 6
-1 -1 1 145585 3655.99 7
-1 -1 1 143698 3511.21 10
1 -1 -1 149333 3752.54 15
1 -1 -1 145436 3593.05 7
-1 -1 1 142690 3613.41 14
1 -1 -1 142293 3607.82 9
-1 -1 1 145775 3702.65 1
1 -1 -1 149240 3756.45 18
1 -1 -1 142839 3661.24 16
-1 -1 1 140372 3660.19 12
-1 -1 1 150160 3734.26 15
1 -1 -1 146158 3592.5 4
1 -1 -1 146463 3745.96 17
-1 -1 1 136222 3761.27 3
-1 -1 1 151942 3800.11 2
1 -1 -1 152047 3724.66 2
1 -1 0 397566 9501.22 8
-1 -1 0 392605 9292.68 12
-1 -1 0 399499 9403.91 10
-1 -1 0 405320 9529.93 15
1 -1 0 410764 9461.85 15
1 -1 0 391374 9451.74 2
1 -1 0 393182 9296.29 13
1 -1 0 398405 9440.45 6
1 -1 0 408139 9467.57 18
-1 -1 0 392834 9543.84 3
-1 -1 0 392502 9394.32 16
1 -1 0 388827 9522.64 14
1 -1 0 404826 9460.13 17
-1 -1 0 367576 9519.99 1
1 -1 0 388864 9468.62 9
-1 -1 0 417856 9551.47 2
-1 -1 0 390018 9511.21 6
1 -1 1 33977.3 1109.12 6
1 -1 1 32889.3 1175.49 12
-1 -1 -1 24144.4 1187.37 1
-1 -1 -1 32826.5 1159.03 3
-1 -1 -1 34931.7 1156.21 10
-1 -1 -1 36464.6 1190.44 2
-1 -1 -1 35289.5 1010.11 13
-1 -1 -1 36690.1 1193.03 18
-1 -1 -1 34813.1 1138.11 16
1 -1 1 36787.3 1051.4 15
1 -1 1 32184.8 1036.09 13
1 -1 1 33476 1089.21 8
-1 -1 -1 35267.8 1100.01 4
1 -1 1 35685.8 1049.46 18
1 -1 1 35521.2 1186.08 9
-1 -1 -1 36006.5 1178.72 15
1 -1 1 32467.2 1177.2 14
-1 -1 -1 32099.1 1221.54 5
1 -1 1 34367 1044.16 17
-1 -1 -2 98371.6 2812.1 5
1 -1 2 99503.1 2487.71 15
1 -1 2 104542 2809.07 9
-1 -1 -2 99252.4 2786.65 10
1 -1 2 98611.9 2490.05 18
1 -1 2 98630.5 2559.13 8
-1 -1 -2 102216 2658.46 13
1 -1 2 94287.2 2671.59 13
-1 -1 -2 107447 2803.66 2
-1 -1 -2 100890 2748.5 15
1 -1 2 93416 2779.36 12
1 -1 2 96811.2 2703.9 6
-1 -1 -2 92662.2 2797.5 1
-1 -1 -2 96061 2738.4 4
1 -1 2 94578.3 2792.97 14
-1 -1 -2 99397.1 2784.06 16
-1 -1 -2 95598.7 2707.51 3
1 -1 2 98581.4 2774.89 2
-1 -1 -2 101104 2754.48 18
1 -1 3 6429.55 555.578 12
-1 -1 -3 7183.22 533.039 4
1 -1 3 5659.24 524.534 14
-1 -1 -3 7123.99 500.272 13
-1 -1 -3 7191.65 541.531 10
-1 -1 -3 6661.89 515.817 5
-1 -1 -3 6598.46 468.841 15
-1 -1 -3 6136.37 538.757 16
-1 -1 -3 7400.55 562.985 2
-1 -1 -3 6520.86 468.571 3
1 -1 3 5837.27 275.571 15
-1 -1 -3 6509.76 476.686 18
-1 -1 -3 6575.51 292.757 12
-1 -1 -3 6031.04 509.413 1
1 -1 3 6160.71 427.174 4
1 -1 3 6109.64 512.573 13
1 -1 3 6847.98 501.593 6
1 -1 3 6488.57 349.222 8
1 -1 4 49781.5 1769.62 6
-1 -1 -4 54620.3 1823.17 13
1 -1 4 42795.5 1702.13 4
-1 -1 -4 51346.1 1849.2 10
1 -1 4 51189.4 1564.65 16
-1 -1 -4 51879.1 1856.81 16
-1 -1 -4 53158.9 1810.73 5
-1 -1 -4 47127 1804.6 11
-1 -1 -4 52157.2 1807.08 1
-1 -1 -4 51215.7 1455.92 12
1 -1 4 51088.3 1417.32 8
1 -1 4 46029 1809.38 13
-1 -1 -4 50731.2 1707.24 18
-1 -1 -4 50978 1660.98 3
1 -1 4 50572.7 1837.82 12
-1 -1 -4 57660.2 1885.8 4
-1 -1 -4 53363 1707.34 15
-1 -1 -5 10781.7 622.707 3
-1 -1 -5 11905.6 745.8 5
1 -1 5 10254.9 740.119 6
-1 -1 -5 10116.9 645.021 15
-1 -1 -5 10701.3 732.165 1
-1 -1 -5 11572.1 565.232 12
1 -1 5 9389.92 791.617 13
-1 -1 -5 10962.5 787.128 11
-1 -1 -5 10638.9 658.259 18
1 -1 5 11136.2 783.843 12
1 -1 5 9927.75 450.585 8
1 -1 5 10297.1 627.708 16
1 -1 5 10484.6 709.878 4
1 -1 5 11418 601.866 10
-1 -1 -6 2770.87 365.551 15
-1 -1 -6 3153.14 468.07 11
-1 -1 -6 3506.78 353.461 12
1 -1 6 3357.5 464.11 6
1 -1 6 3776.06 407.44 16
-1 -1 -6 3694.72 451.479 1
1 -1 6 2761.62 483.75 12
1 -1 6 3914.42 393.961 10
-1 -1 -6 2094.49 285.634 3
1 -1 6 2144.55 461.631 4
-1 -1 -6 2911.95 375.867 18
1 -1 7 4547.61 633.875 4
-1 -1 -7 5528.23 439.482 3
1 -1 7 5997.11 572.898 16
1 -1 7 5999.21 545.106 5
-1 -1 -7 6222.47 623.489 1
1 -1 7 5950.04 515.211 10
1 -1 7 5945.71 644.657 6
-1 -1 -7 5124.08 636.027 11
1 -1 7 5390.01 631.952 12
-1 -1 -7 6273.36 492.816 12
1 -1 8 8165.14 682.833 5
1 -1 8 6876.16 729.17 4
1 -1 8 6314.13 749.799 12
-1 -1 -8 6849.68 531.926 3
-1 -1 -8 7724.13 806.71 11
1 -1 8 7565.85 703.389 16
1 -1 8 8264.42 642.439 10
-1 -1 -8 7815.43 707.598 1
1 -1 9 27236.5 1586.02 12
1 -1 9 29370.5 1460.95 16
-1 -1 -9 28212 1223.44 3
1 -1 9 22759.1 1558.88 4
-1 -1 -9 25635.5 1597.53 11
1 -1 9 29000 1359.61 10
-1 -1 -9 28459.8 1492.34 1
-1 -1 -9 27150.2 1630.55 7
-1 -1 -10 4055.55 426.542 3
-1 -1 -10 4542.07 741.052 7
-1 -1 -10 3820.18 683.66 11
1 -1 10 4839.21 704.94 12
1 -1 10 3916.33 701.138 4
-1 -1 -10 3644.59 565.153 1
1 -1 10 5436.63 668.661 16
1 -1 10 5364.67 596.572 10
-1 -1 -11 2390.06 516.563 1
1 -1 11 3412.29 652.258 12
1 -1 11 3402.69 534.28 10
1 -1 11 3337.65 692.93 4
-1 -1 -11 3157.76 636.008 11
1 -1 11 3352.83 611.207 16
-1 -1 -11 2453.51 680.653 7
-1 -1 -12 -33.5775 304.867 1
1 -1 12 742.737 438.602 16
1 -1 12 -241.163 281.487 10
1 -1 12 1291.57 561.61 4
-1 -1 -12 435.436 382.88 11
-1 -1 -12 -222.134 512.711 7
1 -1 12 -74.9004 428.369 12
-1 -1 -13 6297.04 957.126 11
-1 -1 -13 5347.5 890.117 7
1 -1 13 3436.35 922.398 4
1 -1 13 5615.08 890.379 12
1 -1 13 6134.11 878.294 16
1 -1 14 3268.49 770.014 4
1 -1 14 4390.98 774.593 16
-1 -1 -14 2724.13 690.48 7
-1 -1 -14 5202.32 935.611 11
1 -1 14 4392.25 809.453 12
1 -1 15 1402.74 615.328 12
1 -1 15 1459.2 691.988 4
-1 0 16 9724.69 1291.88 16
-1 0 16 9959.66 1245.19 12
1 0 -15 314.184 479.77 11
1 0 -15 906.399 621.963 7
-1 0 15 769.688 489.877 12
-1 0 15 1061.63 562.289 16
-1 0 15 -368.397 591.74 4
-1 0 14 5541.81 907.84 12
-1 0 14 4741.71 917.825 16
1 0 -14 4083.09 836.146 7
-1 0 14 5653.71 945.548 4
1 0 -14 3968.14 817.035 11
-1 0 14 3751.28 696.85 10
1 0 -13 347.054 468.092 7
-1 0 13 275.23 406.738 12
1 0 -13 684.012 458.173 11
-1 0 13 306.507 341.679 10
-1 0 13 12.0148 406.363 16
-1 0 13 248.911 527.919 4
1 0 -12 6432.88 885.186 7
1 0 -12 6626.84 903.568 11
-1 0 12 7158.57 817.175 10
-1 0 12 4352.17 871.44 4
-1 0 12 6194.23 870.464 16
-1 0 12 7269.44 928.849 12
1 0 -11 7081.88 902.951 7
-1 0 11 7947.56 816.407 10
-1 0 11 8390.92 645.663 5
-1 0 11 7871.41 903.121 16
-1 0 11 9065.6 1026.6 4
1 0 -11 8254.85 707.115 9
1 0 -11 8089.93 935.756 11
1 0 -11 7066.78 650.064 1
-1 0 11 8693.24 925.885 12
-1 0 11 9017.14 698.377 18
1 0 -10 330.934 201.679 8
-1 0 10 323.886 170.18 5
-1 0 10 367.056 204.359 18
-1 0 10 -75.7342 301.116 12
1 0 -10 21.3563 212.184 9
-1 0 10 83.2367 317.715 10
1 0 -10 -25.5609 107.948 3
-1 0 10 141.439 370.879 4
1 0 -10 -424.008 384.555 7
1 0 -10 -82.4812 176.391 1
-1 0 10 26.0329 170.06 15
-1 0 10 84.4806 330.461 16
1 0 -10 64.935 316.97 11
-1 0 9 14578 841.037 15
-1 0 9 13928.5 1032.22 12
1 0 -9 13302.2 1080.23 11
-1 0 9 14812 1092.73 16
-1 0 9 15986.8 881.032 18
1 0 -9 14559.3 755.518 8
-1 0 9 15370 804.846 5
-1 0 9 14096.2 990.154 10
1 0 -9 13883.4 841.917 9
1 0 -9 15295 807.907 5
1 0 -9 15642.7 829.552 1
1 0 -9 15162.9 663.027 3
1 0 -9 14931.3 1129.64 7
-1 0 9 14888.9 1142.46 4
1 0 -8 16292.7 1110.53 7
-1 0 8 16505.5 860.98 15
1 0 -8 15037.1 758.602 8
1 0 -8 17450.7 819.212 5
1 0 -8 14776.7 833.081 9
-1 0 8 16261.8 1142.03 4
-1 0 8 16843.3 1058.95 12
1 0 -8 14842.7 825.633 17
1 0 -8 15846.2 655.551 3
-1 0 8 17124.3 1113.24 16
1 0 -8 15625 859.445 18
-1 0 8 16064.4 785.88 5
1 0 -8 16102.3 853.908 15
-1 0 8 15950.8 991.062 10
-1 0 8 17407.4 879.917 18
1 0 -8 15764.9 1091.4 11
1 0 -8 17769.2 829.994 1
-1 0 7 75685.8 2654.01 16
-1 0 7 77439.4 2369.61 18
1 0 -7 74705.2 2308.42 9
-1 0 7 79304 2235.95 5
-1 0 7 71448.5 2702.2 4
-1 0 7 77641.4 2617.96 12
1 0 -7 75974.7 2331.92 17
1 0 -7 73790 2660.39 11
1 0 -7 74904.8 2062.03 3
-1 0 7 74786.6 2502.45 10
1 0 -7 83051.9 2262.76 5
-1 0 7 76092.1 2356.26 15
1 0 -7 76091.2 2347.74 15
1 0 -7 76317.6 2352.53 18
1 0 -7 70198.4 2663 7
1 0 -7 78055.2 2256.98 1
-1 0 6 67744.9 2303.65 16
1 0 -6 65592.4 1987.3 9
1 0 -6 69107.7 2179.66 10
-1 0 6 66197.3 2059.08 18
-1 0 6 66261.5 2050.38 15
1 0 -6 61642.4 1769.03 3
1 0 -6 72306.6 1942.64 5
1 0 -6 62368.5 2275 11
-1 0 6 66865.6 2173.58 10
1 0 -6 66217 2050.1 15
1 0 -6 69421.3 1934.86 1
1 0 -6 66794.2 2036.49 17
-1 0 6 66217.5 2247.01 12
-1 0 6 66154.8 1905.36 5
-1 0 6 66401.2 2337.03 4
1 0 -6 65806.7 2328.41 7
1 0 -6 67666.5 2063.42 18
-1 0 5 384653 9111.32 7
-1 0 5 359645 8570.64 1
1 0 -5 357247 8731.6 15
1 0 -5 373295 8929.46 12
-1 0 5 356167 8832.17 10
1 0 -5 369282 8563.15 5
-1 0 5 355549 8919.61 12
-1 0 5 355989 8542.82 5
-1 0 5 356852 9021.14 4
-1 0 5 357927 8961.98 16
-1 0 5 352985 8737.98 18
-1 0 5 355131 8727.71 15
1 0 -5 348301 8963.94 11
1 0 -5 357881 8737.59 18
1 0 -5 328352 8424.63 3
1 0 -5 344823 9014.61 7
1 0 -5 382341 8575.09 1
1 0 -5 351637 8628.05 9
1 0 -5 372421 8984.62 16
1 0 -5 384120 9061.7 4
1 0 -5 364786 9037.4 6
1 0 -5 373155 8850.91 10
-1 0 4 10371.3 414.476 5
1 0 -4 9987.58 539.724 18
1 0 -4 10294.5 625.153 16
1 0 -4 10366.1 649.506 6
1 0 -4 9045.7 603.493 11
-1 0 4 11409.8 682.861 7
-1 0 4 10301.7 665.528 4
1 0 -4 9241.42 642.669 7
-1 0 4 10350.8 636.579 16
1 0 -4 9620.97 570.422 10
-1 0 4 9408.48 416.232 1
-1 0 4 10170.9 535.629 15
1 0 -4 9804.17 463.667 9
-1 0 4 10165.2 536.091 18
1 0 -4 9876.12 536.288 15
1 0 -4 10256.2 421.022 5
-1 0 4 10659.6 578.92 10
1 0 -4 9093.4 468.375 8
1 0 -4 10022.8 647.429 4
-1 0 4 9963.92 614.069 12
1 0 -4 12379.7 668.601 12
1 0 -4 10445.6 420.019 1
1 0 -3 30393.7 936.691 8
1 0 -3 29741.1 1057.07 11
1 0 -3 32156.7 1092.65 12
-1 0 3 30939.8 1016.21 15
1 0 -3 31263 1016.88 15
1 0 -3 30025.8 1083.23 6
-1 0 3 30017.3 1104.63 4
1 0 -3 32311.2 1101.76 16
-1 0 3 29219.9 899.23 9
1 0 -3 31355.1 1023.83 18
-1 0 3 29633.6 1073.38 12
1 0 -3 30299.8 897.516 9
-1 0 3 31332.9 1086.17 16
1 0 -3 29104.7 1118.3 4
-1 0 3 30467.7 1028.66 10
-1 0 3 28060.1 1149.33 7
-1 0 3 31579 1025.16 18
1 0 -3 32622.2 1130.9 7
-1 0 2 2842.85 273.498 7
-1 0 2 2930.39 246.761 15
1 0 -2 3079.9 248.114 6
-1 0 2 3083.21 297.045 4
-1 0 2 2849.03 218.839 8
1 0 -2 3232.11 224.791 8
1 0 -2 2734.25 237.038 18
-1 0 2 2653.58 276.811 16
-1 0 2 3066.84 260.626 6
-1 0 2 2839.36 276.873 12
-1 0 2 3068.34 247.451 18
1 0 -2 2595.36 279.262 4
1 0 -2 2882.93 237.055 11
1 0 -2 3237.53 253.011 15
1 0 -2 2944.73 262.722 16
-1 0 -2 13207.1 584.642 10
-1 0 -2 14037.2 535.096 8
-1 0 -2 11939.5 554.397 12
1 0 2 11745.3 532.842 8
-1 0 -2 12709.7 624.414 13
-1 0 -2 13855 590.724 11
-1 0 -2 13215 589.799 16
-1 0 -2 13100.9 555.885 3
1 0 2 13281.9 622.181 13
-1 0 -2 13029.3 424.935 15
1 0 2 13718.2 559.07 12
1 0 2 13808.7 594.027 11
1 0 2 12671.8 616.687 4
1 0 2 13381 587.861 5
1 0 2 13149.1 589.088 10
1 0 2 13708.8 586.539 16
-1 0 -2 12853.8 604.005 4
1 0 2 14332.9 608.418 1
-1 0 -2 12425.9 573.906 5
1 0 2 14815.2 576.248 3
-1 0 -2 11368.1 568.526 1
-1 0 -3 771.739 228.871 10
1 0 3 561.583 116.287 15
1 0 3 486.85 110.353 18
1 0 3 469.526 202.827 1
-1 0 -3 491.076 114.617 15
-1 0 -3 205.474 191.375 6
-1 0 -3 259.076 204.436 16
-1 0 -3 816.457 236.145 12
-1 0 -3 384.603 255.074 11
1 0 3 692.054 227.811 12
-1 0 -3 420.256 156.093 3
-1 0 -3 547.21 182.818 1
1 0 3 389.632 180.616 11
-1 0 -3 530.343 150.409 5
1 0 3 388.979 240.291 10
1 0 3 314.943 288.64 13
1 0 3 579.008 227.028 5
1 0 3 700.883 128.023 17
1 0 3 304.256 242.921 4
-1 0 -3 398.38 153.221 8
-1 0 -3 459.457 251.56 13
1 0 3 834.002 255.666 16
-1 0 -3 484.793 111.075 18
-1 0 -3 601.448 236.466 4
-1 0 -4 37639.7 1306.67 12
-1 0 -4 35347.5 1035.02 18
1 0 4 34890.5 1305.81 10
-1 0 -4 36880.3 1294.81 5
-1 0 -4 33056.8 1168.65 8
1 0 4 34372.1 1274.94 5
1 0 4 27949.2 1428.84 13
1 0 4 35662.6 1377.81 4
-1 0 -4 37248.3 1349.17 6
-1 0 -4 37227.3 1419.58 13
1 0 4 36255 1034.15 18
1 0 4 34330.2 1321.32 16
1 0 4 34291.6 1287.56 12
-1 0 -4 33721.9 1202.95 3
1 0 4 36221.9 1024.27 17
-1 0 -4 37746.7 1407.24 4
1 0 4 38624 1413.39 11
-1 0 -4 35715.7 1340.01 16
-1 0 -4 33341.7 1368.02 11
-1 0 -4 33838.1 1264.54 1
-1 0 -4 34747.5 1032.37 15
-1 0 -4 35576.8 1310.01 10
1 0 4 34754.8 1026.28 15
-1 0 -5 10235.6 759.969 11
1 0 5 11030.4 814.456 4
-1 0 -5 10733.2 654.21 1
-1 0 -5 11526.1 642.535 3
1 0 5 12220.4 848.707 13
1 0 5 11672.5 722.991 12
1 0 5 11886.4 729.935 10
1 0 5 11964.2 704.08 5
1 0 5 12622.6 517.521 18
-1 0 -5 12526.6 726.418 12
-1 0 -5 13481.4 730.959 5
-1 0 -5 12171.5 511.451 15
-1 0 -5 12386.2 754.753 16
-1 0 -5 12543.6 740.838 10
1 0 5 10075.8 749.554 16
-1 0 -5 12021.1 513.105 18
1 0 5 12178.9 508.037 15
-1 0 -5 13017.3 628.44 8
-1 0 -5 11940.7 781.372 6
-1 0 -6 -93.1507 173.044 1
1 0 6 -50.9272 110.447 15
-1 0 -6 460.928 182.6 8
-1 0 -6 -55.0781 274.122 11
1 0 6 192.229 264.572 12
-1 0 -6 -141.417 169.22 3
1 0 6 37.4297 108.315 18
1 0 6 -170.464 258.156 10
1 0 6 282.902 335.487 4
1 0 6 71.3863 226.07 5
1 0 6 233.545 290.586 16
-1 0 -6 333.739 241.303 5
-1 0 -6 125.407 112.123 18
-1 0 -6 173.146 113.972 15
-1 0 -7 75899.8 2280.86 8
1 0 7 77688.2 2124.61 15
-1 0 -7 74415.3 2346.69 3
-1 0 -7 74490.9 2725.19 11
1 0 7 73839.5 2558.83 12
-1 0 -7 73062.8 2655.32 7
-1 0 -7 75535.2 2128.7 18
1 0 7 75371.1 2658.79 16
1 0 7 75969.1 2497.04 5
1 0 7 71830.1 2539.84 10
1 0 7 76623 2125.5 18
-1 0 -7 75081 2119.48 15
-1 0 -7 73694 2492.29 1
1 0 7 64067.1 2694.06 4
-1 0 -8 3663.39 330.648 15
1 0 8 3482.42 309.088 18
1 0 8 4268.01 485.001 5
-1 0 -8 3526.2 559.902 11
-1 0 -8 3468.68 405.727 3
1 0 8 3279.08 524.111 12
-1 0 -8 3413.1 320.016 18
1 0 8 3775.7 534.245 10
-1 0 -8 3658.01 364.398 8
1 0 8 3473.42 542.494 16
-1 0 -8 4261.23 502.38 1
1 0 8 2966.57 585.181 4
1 0 8 4293.01 338.053 15
-1 0 -8 3196.8 543.3 7
1 0 9 5.62893 110.392 15
1 0 9 385.896 262.292 12
1 0 9 132.96 131.223 18
-1 0 -9 531.242 259.334 3
-1 0 -9 277.781 379.128 11
1 0 9 6.23918 230.239 5
-1 0 -9 654.717 280.153 1
-1 0 -9 691.068 396.26 7
1 0 9 273.892 336.345 10
-1 0 -9 -125.309 138.751 18
-1 0 -9 431.323 296.631 9
1 0 9 640.154 452.965 4
-1 0 -9 61.9663 139.339 15
-1 0 -9 150.034 151.343 8
1 0 9 421.04 362.716 16
1 0 10 23842.5 1425.45 10
1 0 10 23427.2 1314.86 5
-1 0 -10 20549.9 1476.47 11
1 0 10 22933.5 1414.62 12
1 0 10 25118.9 988.272 15
-1 0 -10 22776.9 1281.84 1
-1 0 -10 21109.7 1443 7
1 0 10 22248.3 1471.09 16
1 0 10 22742.9 961.049 18
-1 0 -10 23701.3 1188.96 3
1 0 10 21678.6 1541.68 4
-1 0 -10 21044.8 1269.84 9
1 0 11 6655.56 701.954 5
1 0 11 6241.02 786.087 12
-1 0 -11 5324.88 834.766 11
1 0 11 4132.25 865.106 4
-1 0 -11 7342.95 756.644 9
1 0 11 6694.8 784.236 10
-1 0 -11 6521.11 851.012 7
-1 0 -11 6313.13 660.694 1
1 0 11 7078.08 876.628 16
1 0 12 1828.57 541.812 10
1 0 12 1015.88 480.249 16
-1 0 -12 1774.98 555.333 7
-1 0 -12 849.309 365.829 9
1 0 12 1021.6 347.194 5
-1 0 -12 212.645 256.06 1
1 0 12 473.024 389.128 12
1 0 12 1257.48 583.751 4
-1 0 -12 939.109 470.242 11
-1 0 -13 1279.25 472.868 11
-1 0 -13 1515.68 480.111 7
1 0 13 532.009 412.934 16
1 0 13 1141.95 507.648 10
1 0 13 1392.04 432.834 12
1 0 13 737.792 569.185 4
1 0 14 1330.1 673.815 4
-1 0 -14 1194.92 514.1 11
1 0 14 1784.41 565.416 12
1 0 14 1528.15 535.764 10
1 0 14 979.031 546.945 16
-1 0 -14 992.042 488.954 7
1 0 15 3714.62 757.998 12
-1 0 -15 3331.28 804.469 7
1 0 15 3306.67 813.758 16
-1 1 16 18.7572 485.224 10
1 1 -15 1160.17 559.731 7
-1 1 15 1343.96 587.931 10
-1 1 15 1555.64 578.39 16
-1 1 14 576.185 437.052 12
1 1 -14 1125.98 570.627 11
-1 1 14 792.412 492.643 10
-1 1 14 1367.77 702.274 16
1 1 -14 466.733 615.573 2
1 1 -14 740.545 541.31 7
-1 1 14 330.644 522.107 4
-1 1 13 929.177 535.78 10
1 1 -13 601.121 492.135 11
-1 1 13 960.17 441.052 12
1 1 -13 1561.37 697.446 2
-1 1 13 380.191 438.459 4
-1 1 13 669.431 476.455 16
1 1 -13 1316.91 516.638 7
-1 1 12 5109.68 603.395 18
-1 1 12 6001.76 752.6 12
1 1 -12 4916.38 661.905 9
-1 1 12 5251.4 815.994 10
1 1 -12 4099.08 775.626 11
-1 1 12 4717.84 598.902 15
-1 1 12 3562.92 878.691 4
-1 1 12 4481.56 794.346 16
1 1 -12 5449.74 800.782 7
-1 1 12 5257.52 609.626 5
-1 1 11 8612.62 736.26 5
-1 1 11 8925.95 850.169 12
1 1 -11 9357.82 967.805 7
-1 1 11 5973.89 1045.51 4
1 1 -11 8923.96 1018.22 11
-1 1 11 8979.2 791.296 18
-1 1 11 7827.05 968.016 16
-1 1 11 8255.1 928.88 10
-1 1 11 9359.71 801.437 15
1 1 -11 9170.45 854.308 9
-1 1 10 2192.23 514.957 10
-1 1 10 1976.02 387.166 5
-1 1 10 1597.44 386.918 12
1 1 -10 2033.12 543.241 7
-1 1 10 2089.58 383.695 18
1 1 -10 2309.31 347.644 1
-1 1 10 1102.65 452.055 4
-1 1 10 1728.08 377.423 15
1 1 -10 2007.07 536.764 11
1 1 -10 1708.58 402.544 9
-1 1 10 2568.88 599.703 16
1 1 -9 1282.25 379.622 7
1 1 -9 1832.02 289.652 15
1 1 -9 1783.04 375.169 9
-1 1 9 1710.42 500.935 16
1 1 -9 2039.4 304.842 5
1 1 -9 1864.36 288.492 18
-1 1 9 1566.53 300.257 5
-1 1 9 1040.83 406.833 10
-1 1 9 2553.33 443.965 12
1 1 -9 1678.3 472.932 11
-1 1 9 2020.2 389.344 15
1 1 -9 1846.77 302.516 1
-1 1 9 1203.41 443.023 4
-1 1 9 2211.89 406.248 18
-1 1 8 16966.8 950.682 5
-1 1 8 16246.5 988.253 12
1 1 -8 18120.9 840.729 15
-1 1 8 16046.1 1119.74 10
1 1 -8 17636.2 840.489 1
1 1 -8 16356.4 817.611 18
1 1 -8 16048.9 994.25 9
1 1 -8 16927.1 1166.71 11
-1 1 8 16399.6 1207.95 16
-1 1 8 17643 1017.49 15
1 1 -8 17973.9 825.34 5
-1 1 8 15946.9 1175.93 4
1 1 -8 16576.1 1085.62 7
-1 1 8 17594.1 1021.11 18
1 1 -7 2701.76 304.078 1
-1 1 7 3187.57 385.206 1
-1 1 7 2509.04 404.502 18
-1 1 7 3243.82 432.752 12
-1 1 7 2564.64 503.16 16
1 1 -7 2641.58 307.448 18
1 1 -7 2418.51 398.027 9
-1 1 7 2103.28 428.686 10
1 1 -7 2766.13 289.635 5
-1 1 7 2502.3 363.776 5
-1 1 7 2783.42 566.275 4
-1 1 7 2054.04 344.345 15
1 1 -7 2541.49 293.796 15
1 1 -7 2313.07 432.386 7
1 1 -6 92899.3 2552.81 15
-1 1 6 84675 2698.87 5
-1 1 6 88790.6 2784.03 15
1 1 -6 94053.2 2724.7 16
1 1 -6 93016.2 2563.75 18
-1 1 6 87917.6 2671.58 12
-1 1 6 85905.7 2971.27 4
1 1 -6 89978.4 3001.81 2
-1 1 6 87351.5 2933.3 10
1 1 -6 93577.4 2495.6 5
1 1 -6 84651.2 2757.05 9
1 1 -6 88013.9 2825.55 7
-1 1 6 89594.4 3002.62 16
-1 1 6 96173.7 2732.88 1
-1 1 6 87445.8 2791.61 18
-1 1 6 85097.5 2283.83 3
-1 1 5 66263 1738.82 3
-1 1 5 61714.9 2040.07 5
1 1 -5 66371.8 2023.27 16
1 1 -5 65611.1 2294.87 2
-1 1 5 65433.2 2009.49 12
-1 1 5 64039.7 2246.35 10
1 1 -5 66292.7 1874.79 5
1 1 -5 66412.6 1955.94 18
-1 1 5 63796.4 2272.6 16
1 1 -5 69593.7 2173.36 4
-1 1 5 72273.1 2103.41 1
1 1 -5 59319.7 2093.5 9
1 1 -5 63011.7 2122.93 7
-1 1 5 63033.9 2238.28 4
-1 1 5 61691.4 2128.22 18
-1 1 5 63296.3 2125.11 15
1 1 -5 63724.9 1930.03 15
1 1 -4 1524.41 233.032 18
1 1 -4 1513.96 321.35 14
-1 1 4 1492.33 357.078 4
-1 1 4 1500.84 271.751 11
-1 1 4 1443.96 320.546 17
1 1 -4 1102.06 330.519 12
1 1 -4 1510.39 353.384 2
-1 1 4 1521.47 175.308 3
1 1 -4 1767.81 341.587 6
-1 1 4 1420.17 287.61 5
-1 1 4 1019.64 305.046 1
-1 1 4 1675.62 371.537 10
-1 1 4 1688.45 327.66 18
-1 1 4 1482.17 272.662 12
1 1 -4 1763.33 259.781 15
-1 1 4 1202.11 324.471 16
1 1 -4 1961.22 317.638 7
1 1 -4 1028.33 202.797 4
1 1 -4 1803 326.41 9
-1 1 4 1400.15 312.416 15
1 1 -3 60242.9 1851.02 6
1 1 -3 58269.2 1804.98 12
-1 1 3 53524 1762.72 4
-1 1 3 53072.1 1808.96 16
1 1 -3 58400.5 1757.86 14
1 1 -3 53281.1 1636.65 15
-1 1 3 58425.7 1561.25 3
1 1 -3 52517.8 1747.83 9
1 1 -3 55922 1665.71 18
-1 1 3 56541.7 1760.85 11
-1 1 3 51547.2 1801.23 10
1 1 -3 53713.3 1647.51 4
-1 1 3 50967.3 1741.51 1
-1 1 3 52171.8 1752.99 17
1 1 -3 54884.6 1830.91 2
-1 1 3 53725.1 1767.87 15
1 1 -3 52954.7 1689.95 7
-1 1 3 54888.8 1780.01 18
1 1 -2 15488.1 677.967 14
-1 1 2 15706.1 748.559 1
1 1 -2 16332.1 718.795 12
1 1 -2 15647 759.492 2
-1 1 2 14737.7 674.733 4
1 1 -2 15667 730.177 3
-1 1 2 15126 756.17 10
-1 1 2 15201.7 740.959 15
1 1 -2 16544.7 653.944 1
1 1 -2 15441.5 673.798 15
1 1 -2 16077.4 745.866 6
1 1 -2 13164.6 652.602 7
-1 1 2 15519.6 740.657 18
-1 1 2 15868 745.942 17
-1 1 2 15051.9 733.047 16
1 1 -1 145066 3766.44 2
1 1 -1 141195 3503.86 10
1 1 -1 152641 3782.38 6
-1 1 1 141005 3653.08 16
-1 1 1 140598 3694.29 2
-1 1 1 164100 3865.29 1
1 1 -1 150168 3803.43 3
1 1 -1 149791 3663.38 12
-1 1 1 141275 3728.43 17
-1 1 1 140570 3736.8 15
1 1 -1 147337 3626.39 14
1 1 -1 150752 3717.92 1
-1 1 1 142101 3612.36 9
-1 1 1 141221 3577.4 4
-1 1 1 141454 3740.9 18
1 1 -1 140346 3711.71 15
-1 1 0 393858 9331.84 6
1 1 0 411824 9413.4 6
1 1 0 374191 9116.93 13
-1 1 0 389155 9185.31 16
-1 1 0 383570 9326.74 15
1 1 0 402799 9446.88 3
1 1 0 395321 9173.13 12
-1 1 0 391248 9319.82 17
1 1 0 387567 9275.56 10
1 1 0 405357 9424.29 1
1 1 0 390699 9402.47 18
1 1 0 400615 9415.42 2
1 1 0 381636 9399.41 5
-1 1 0 387848 9330.01 18
-1 1 0 390270 9339.59 2
-1 1 0 392930 9347.19 9
1 1 0 391994 9398.95 15
-1 1 -1 34185.2 1132.83 2
1 1 1 34866.8 1190.49 2
1 1 1 30583.7 1129.32 16
1 1 1 35584.8 1202.97 3
-1 1 -1 36197.8 1209.74 14
1 1 1 32654.4 1149.91 10
-1 1 -1 34076.4 1192.51 9
-1 1 -1 34611.5 1047.61 15
-1 1 -1 34497.9 1044.05 17
-1 1 -1 32846.9 1040.05 18
1 1 1 35286.4 1027.48 13
-1 1 -1 35907.4 1206.06 12
1 1 1 33231.6 1200.05 5
-1 1 -1 32255.9 1039.31 13
1 1 1 33354.4 1176.96 18
1 1 1 29284.7 1235.35 1
-1 1 -1 35402.9 1141.52 6
1 1 1 33638.6 1174.32 15
1 1 2 95456.4 2701.47 18
1 1 2 93388 2679.59 4
1 1 2 95518.5 2696.36 15
-1 1 -2 97001.4 2445.27 18
-1 1 -2 94916 2680.02 6
-1 1 -2 91516.1 2746.11 9
-1 1 -2 96190.3 2539.6 8
-1 1 -2 101533 2771.98 12
1 1 2 100245 2706.12 3
-1 1 -2 90572.5 2701.12 2
1 1 2 98401.7 2617.52 13
-1 1 -2 96102.4 2439.99 15
-1 1 -2 101396 2528.85 4
-1 1 -2 100906 2781.7 14
-1 1 -2 100439 2417.29 16
1 1 2 92941.7 2731.96 16
1 1 2 95315.1 2750.8 10
-1 1 -2 92678.7 2409.8 7
1 1 2 98025.5 2764.1 11
1 1 2 94412.2 2749.85 5
-1 1 -2 99861.4 2637.62 13
-1 1 -2 95672 2438.36 17
1 1 2 102300 2792.53 1
1 1 3 6638.37 492.275 18
-1 1 -3 6123.78 277.19 17
-1 1 -3 7458.67 506.449 13
1 1 3 4988.4 536.805 1
1 1 3 7289.88 488.779 3
1 1 3 5647.31 516.608 16
1 1 3 5887.01 296.546 12
1 1 3 6879.07 542.053 11
1 1 3 6284.15 562.616 10
1 1 3 5282.23 512.538 4
-1 1 -3 5966.77 328.25 8
1 1 3 6562.61 483.741 15
-1 1 -3 6435.57 473.858 5
-1 1 -3 5923.47 270.66 15
-1 1 -3 7365.93 546.467 12
-1 1 -3 5479.56 495.35 9
-1 1 -3 6713.48 363.782 16
-1 1 -3 7594.76 522.666 2
1 1 3 5222.1 507.106 13
-1 1 -3 5761.59 271.669 18
-1 1 -3 7532.05 523.325 6
-1 1 -3 6378.83 374.428 10
-1 1 -3 5424.26 389.23 7
1 1 3 6254.2 487.532 17
-1 1 -3 7492.99 556.707 14
-1 1 -3 4790.47 448.253 4
1 1 3 5642.69 494.472 5
-1 1 -4 48675.7 1798.35 2
-1 1 -4 50723.1 1567.23 16
1 1 4 50085.1 1791.19 5
-1 1 -4 51153.4 1740.16 5
1 1 4 47553.8 1819.91 10
1 1 4 47766.1 1847.54 16
1 1 4 48312.2 1674.12 17
1 1 4 55298.7 1678.48 3
-1 1 -4 51361.5 1728.16 4
-1 1 -4 57000.3 1836.64 13
1 1 4 52949.3 1471.03 12
1 1 4 48156.4 1687.27 15
-1 1 -4 54108.4 1847.96 12
-1 1 -4 46593.1 1781.18 9
-1 1 -4 56884.8 1885.44 14
-1 1 -4 49168.3 1605.62 7
-1 1 -4 51276.8 1419.44 8
-1 1 -4 50948.6 1794.32 6
1 1 4 46646.2 1674.66 18
1 1 4 51782.1 1823 13
1 1 4 52401.3 1853.7 11
1 1 4 46789.5 1828.69 1
1 1 4 42395.3 1814.52 4
-1 1 -4 53048 1564.25 10
-1 1 -5 11928.6 787.753 2
-1 1 -5 10189.1 732.241 9
-1 1 -5 10707.1 458.874 8
1 1 5 10082.8 647.458 18
1 1 5 12058.4 649.345 3
1 1 5 9849.81 710.608 5
1 1 5 11918.4 832.252 4
-1 1 -5 12131.8 688.823 7
1 1 5 10772.1 681.688 17
1 1 5 9826.26 793.92 16
-1 1 -5 12506.8 723.554 4
-1 1 -5 11325.7 712.712 5
1 1 5 10580.8 681.713 15
-1 1 -5 11386.6 614.772 16
1 1 5 11463.6 577.75 12
-1 1 -5 11606.2 617.387 10
1 1 5 10032.7 793.023 10
1 1 5 13565.6 802.187 1
-1 1 -6 4001.59 475.96 7
-1 1 -6 3144.33 479.246 9
1 1 6 3177.02 573.079 4
1 1 6 3437.56 416.252 18
-1 1 -6 2245.97 259.222 16
1 1 6 2230.69 451.506 16
-1 1 -6 3021.68 230.631 8
-1 1 -6 3482.61 418.884 5
1 1 6 3441.51 425.422 15
1 1 6 2740.81 488.034 10
-1 1 -6 4503 411.487 10
1 1 6 3169.28 386.161 17
1 1 6 3568.72 375.761 12
1 1 6 3547.96 454.304 5
1 1 6 4329.19 407.367 3
-1 1 -7 5564.53 617.774 7
1 1 7 6373.41 525.497 17
1 1 7 5462.65 495.104 15
1 1 7 6341.41 508.405 3
-1 1 -7 5824.19 575.502 1
1 1 7 5615.87 695.965 16
1 1 7 5516.57 687.456 4
-1 1 -7 5536.75 660.982 11
-1 1 -7 5434.21 606.164 9
1 1 7 4849.42 553.65 5
1 1 7 5614.07 665.749 10
1 1 7 5169.96 490.419 12
1 1 7 5316.28 505.811 18
-1 1 -7 5504.45 478.117 10
-1 1 -7 5523.85 314.634 8
1 1 8 7657.13 609.519 17
1 1 8 7925.81 837.612 4
1 1 8 8334.71 661.502 12
1 1 8 6592.8 794.535 16
-1 1 -8 7239.83 709.501 7
-1 1 -8 6987.57 792.873 11
1 1 8 8835.13 603.12 3
1 1 8 7755.03 618.228 18
1 1 8 7265.01 777.448 10
-1 1 -8 7118.62 370.041 8
1 1 8 7640.34 610.135 15
1 1 8 7955.59 723.375 5
-1 1 -8 8400.62 697.951 1
-1 1 -8 7604.39 761.935 9
-1 1 -9 24411.6 1438.67 9
-1 1 -9 26692.2 1510.08 7
1 1 9 26785.1 1455.94 5
-1 1 -9 27110 1388.21 3
1 1 9 28090.5 1299.14 15
1 1 9 28260.4 1629.7 10
1 1 9 27394.5 1663.39 4
-1 1 -9 25643.9 1615.83 11
1 1 9 28459.7 1695.71 16
1 1 9 29192.4 1329.48 18
-1 1 -9 27674.2 1396.02 1
1 1 9 28547.6 1370.88 12
1 1 10 4584.89 616.441 5
1 1 10 4947.17 529.529 18
-1 1 -10 4890.47 584.495 1
-1 1 -10 4220.36 737.257 11
-1 1 -10 4237.69 619.618 9
1 1 10 4418.49 716.165 4
-1 1 -10 4871.94 683.926 7
-1 1 -10 4197.84 584.4 3
1 1 10 5016.9 529.168 15
1 1 10 3353.37 674.272 16
1 1 10 5225.92 752.754 10
1 1 10 5196.16 609.086 12
-1 1 -11 2111.3 575.566 11
1 1 11 2736.03 620.366 10
1 1 11 3412.88 716.433 16
-1 1 -11 3821.86 643.706 9
-1 1 -11 3599.4 571.135 1
1 1 11 3102.6 452.838 15
1 1 11 3359.12 557.571 5
1 1 11 3378.47 457.608 18
-1 1 -11 3044.87 509.156 3
1 1 11 2415.12 468.386 12
-1 1 -11 3557.91 626.512 7
1 1 11 2931.19 686.606 4
1 1 12 -821.512 526.833 16
1 1 12 -145.654 417.183 10
-1 1 -12 0.34477 368.707 7
1 1 12 673.34 357.199 5
-1 1 -12 731.734 410.589 9
1 1 12 -193.44 472.019 4
1 1 12 -327.132 322.214 12
-1 1 -12 41.7598 426.632 11
-1 1 -13 4583.7 744.525 7
1 1 13 5695.54 768.504 5
1 1 13 6434.68 926.194 10
-1 1 -13 6997.67 1019.33 11
1 1 13 3142.73 815.699 4
1 1 13 5567.72 962.423 16
-1 1 -13 5166.5 779.493 9
-1 1 -14 3436.56 895.326 2
1 1 14 3649.34 852.654 16
1 1 14 4108.92 822.436 10
-1 1 -14 3163.22 724.783 7
1 1 14 2370.89 704.485 4
-1 1 -14 4993.07 931.809 11
-1 1 -15 1535 587.436 7
1 1 15 2924.54 774.992 10
-1 2 14 3389.49 862.992 4
1 2 -14 2185.08 652.246 7
-1 2 14 2325.49 709.211 10
1 2 -14 2570.23 703.917 2
-1 2 14 2824.8 759.768 16
1 2 -14 2543.9 675.066 11
-1 2 13 2761.66 682.383 16
-1 2 13 2343.39 575.16 18
1 2 -13 1976.75 538.78 7
1 2 -13 2778.5 761.707 11
-1 2 13 1258.64 543.143 10
-1 2 13 2273.44 539.116 15
1 2 -13 3099.04 805.68 2
1 2 -13 2526.28 582.106 9
-1 2 13 2528 780.059 4
-1 2 12 3783.23 626.859 15
-1 2 12 3297.69 766.079 16
-1 2 12 3800.03 797.631 4
1 2 -12 3213.5 742.792 11
-1 2 12 3427.9 759.145 10
1 2 -12 4025.35 818.022 2
-1 2 12 3571.52 593.268 5
-1 2 12 4130.1 648.146 18
1 2 -12 4071.7 673.083 7
1 2 -12 3734.51 695.963 9
-1 2 11 550.265 329.737 5
-1 2 11 1074.86 538.095 16
1 2 -11 549.64 384.258 11
-1 2 11 1185.09 353.096 12
1 2 -11 1347.13 437.664 9
-1 2 11 1463.95 453.537 18
-1 2 11 131.015 458.273 10
-1 2 11 981.326 555.999 4
1 2 -11 317.898 431.608 2
-1 2 11 548.944 300.099 15
1 2 -11 776.653 392.905 7
-1 2 10 1525.53 428.054 15
1 2 -10 516.785 339.714 9
-1 2 10 780.58 359.945 18
1 2 -10 1673.73 360.948 1
1 2 -10 1238.18 403.719 7
-1 2 10 1414.11 428.029 5
-1 2 10 1609.69 544.958 10
-1 2 10 607.015 473.993 16
-1 2 10 1351.35 553.083 4
-1 2 10 1159.36 325.3 12
1 2 -10 1290.3 506.82 2
1 2 -9 358.778 184.155 15
-1 2 9 423.182 479.644 10
-1 2 9 -55.4239 393.651 16
-1 2 9 857.706 500.079 4
-1 2 9 -197.218 256.907 5
1 2 -9 80.371 371.579 2
-1 2 9 271.618 318.718 18
1 2 -9 679.905 346.282 7
-1 2 9 349.713 231.36 12
1 2 -9 934.485 405.6 9
-1 2 9 502.45 351.357 15
-1 2 8 14133.1 1052.15 5
-1 2 8 14577 1071.92 18
-1 2 8 14252.4 1167.16 10
-1 2 8 14882.6 1195.52 16
1 2 -8 15346.6 819.857 18
1 2 -8 13943.4 975.969 7
1 2 -8 15415.6 817.826 15
1 2 -8 15077.9 1107.21 9
-1 2 8 14242.6 1042.47 15
-1 2 8 14294.6 1043.51 17
1 2 -8 15420.3 877.37 5
1 2 -8 13676.5 1143.16 2
-1 2 8 16178.8 741.082 3
-1 2 8 15614.2 884.329 12
-1 2 8 14238.9 1148.53 4
1 2 -8 15135 807.07 15
-1 2 7 21692.7 1292.03 18
-1 2 7 24630.6 994.991 3
-1 2 7 22836.4 1263.96 5
-1 2 7 22378.1 1299.38 15
1 2 -7 23298.2 1047.86 18
1 2 -7 23933.8 1113.97 5
1 2 -7 22130.7 1403.42 2
1 2 -7 22878.7 1038.1 15
-1 2 7 22632.3 1369.35 4
1 2 -7 21293.2 1171.97 7
1 2 -7 21689 1288.45 9
-1 2 7 21737.6 1280.18 17
-1 2 7 21934.9 1415.47 16
-1 2 7 22354.8 1413.21 10
-1 2 7 24544.6 1067.61 12
-1 2 6 2632.04 450.012 4
-1 2 6 2147.99 508.669 16
1 2 -6 2300.59 368.483 7
1 2 -6 2499.61 452.323 9
-1 2 6 2375.11 454.643 5
1 2 -6 2520.68 471.942 2
-1 2 6 3185.09 333.087 3
-1 2 6 2489.49 305.516 12
1 2 -6 1693.24 257.966 4
1 2 -6 2902.59 372.45 5
1 2 -6 2439.95 325.233 18
-1 2 6 2458.89 523.879 10
-1 2 6 1862.15 412.862 17
-1 2 6 2616.89 471.731 15
1 2 -6 3090.3 366.179 15
-1 2 6 2760.11 462.413 18
1 2 -5 15745.9 953.721 13
-1 2 5 17334.9 875.288 3
-1 2 5 16314.5 1009.7 4
1 2 -5 16654.3 1103.12 2
-1 2 5 16622.6 1038.11 18
-1 2 5 17525.9 1096.81 16
1 2 -5 17233.4 882.876 18
-1 2 5 16450.7 1030.46 17
1 2 -5 16765.3 1075.36 9
1 2 -5 16281.3 833.98 4
-1 2 5 16018 1086.08 10
-1 2 5 18143.8 1083.61 5
1 2 -5 17372.1 892.573 7
-1 2 5 18191.6 1087.92 15
1 2 -5 17854.9 880.066 15
-1 2 4 455.31 311.776 18
-1 2 4 733.881 356.789 10
-1 2 4 807.701 323.662 15
1 2 -4 1015.73 378.968 2
-1 2 4 778.484 337.906 17
1 2 -4 569.975 234.952 13
1 2 -4 -32.9037 284.268 1
-1 2 4 979.019 273.598 3
1 2 -4 812.593 253.303 18
1 2 -4 578.474 215.226 7
1 2 -4 550.73 257.097 15
-1 2 4 345.139 314.749 16
1 2 -4 1215.8 278.032 4
-1 2 4 860.286 317.316 4
1 2 -3 25119.9 1191.82 1
-1 2 3 27488.3 1158.02 3
1 2 -3 23760.2 1004.38 13
1 2 -3 24257.1 1011.02 7
1 2 -3 25324 1115.48 15
-1 2 3 24624.1 1169.54 16
-1 2 3 24417.9 1220.21 17
1 2 -3 25262.1 1121.49 18
1 2 -3 25139.4 1272.22 2
-1 2 3 24990.2 1244.16 18
-1 2 3 26285.5 1233.77 10
1 2 -3 26876.3 1198.15 14
-1 2 3 24593.4 1237.99 15
-1 2 3 25499 1079.8 4
-1 2 2 1997.2 407.635 17
-1 2 2 2179.01 423.241 2
-1 2 2 2095.84 393.897 15
-1 2 2 2199.02 286.814 4
1 2 -2 2039.12 400.758 2
1 2 -2 2635.55 350.312 12
-1 2 2 2049.97 397.768 18
1 2 -2 2559.84 362.303 14
1 2 -2 2301.5 365.082 18
1 2 -2 1638.75 401.915 1
1 2 -2 2334.3 205.543 10
1 2 -2 2067.81 341.031 15
-1 2 2 1748.81 303.248 16
-1 2 2 2229.57 407.696 10
1 2 -1 13048.7 827.365 2
-1 2 1 13996.2 555.476 4
1 2 -1 12566.9 599.88 10
-1 2 1 11200.7 711.443 12
-1 2 1 13606.7 807.7 2
1 2 -1 13502.1 698.479 12
-1 2 1 12904.7 652.838 16
-1 2 1 13035.2 805.235 17
-1 2 1 12843.4 727.897 10
-1 2 1 13127 812.246 15
1 2 -1 12190 775.906 18
-1 2 1 12228.9 796.758 18
1 2 -1 13651.2 856.974 1
1 2 -1 14262.3 894.587 3
1 2 -1 13537 794.977 15
-1 2 0 38397 1369.73 10
-1 2 0 35238.3 1646.87 1
-1 2 0 40159.5 1508.07 9
1 2 0 37390.9 1514.14 15
-1 2 0 37237.1 1038.3 4
1 2 0 43594.1 1651.26 3
-1 2 0 38720.2 1478.86 17
1 2 0 40009.7 1272.71 12
-1 2 0 38955.5 1215.34 16
-1 2 0 40034.4 1526.85 2
1 2 0 39754.6 1548.44 18
-1 2 0 36180.3 1457.63 18
1 2 0 39137.7 1354.34 10
1 2 0 42140.3 1599.62 1
-1 2 0 40423.2 1404.12 12
-1 2 0 38894.2 1474.63 15
1 2 0 39785.9 1589.6 2
-1 2 -1 128398 3617.32 6
-1 2 -1 121262 3471.27 18
1 2 1 138208 3731.2 3
1 2 1 121263 3685.75 5
-1 2 -1 121894 3058.84 16
-1 2 -1 115822 3576.7 2
1 2 1 123570 3634.06 2
-1 2 -1 122392 3471.51 17
-1 2 -1 137783 3582.48 12
-1 2 -1 128462 3639.97 9
1 2 1 122793 3631.59 15
-1 2 -1 125625 3149.64 13
1 2 1 123012 3649.66 18
-1 2 -1 122230 3470.67 15
1 2 1 129062 3141.95 12
1 2 1 119221 3413.03 16
1 2 1 120046 3483.68 10
1 2 2 57186.4 2013.45 16
1 2 2 65257.1 2190.31 3
1 2 2 60415.8 2159.53 18
-1 2 -2 67003.8 2143.65 12
-1 2 -2 59867.5 1928.11 15
-1 2 -2 61173.7 1584.16 4
-1 2 -2 62080.1 2125.34 2
1 2 2 59828 2156.24 2
-1 2 -2 61625.6 1943.29 18
-1 2 -2 60361.7 2148.19 9
1 2 2 56370.7 1902.53 4
1 2 2 62718.9 2221.3 5
-1 2 -2 64569.1 2168.48 6
-1 2 -2 61008.5 1930.04 17
1 2 2 58797.3 2077.93 10
1 2 2 60763.3 2145.26 15
-1 2 -2 61423.4 1793.92 13
-1 2 -3 9799.42 457.595 4
-1 2 -3 8883.73 709.155 2
-1 2 -3 9438.09 751.086 9
-1 2 -3 8809.02 550.747 15
-1 2 -3 9492.73 580.032 13
1 2 3 9294.77 768.241 5
-1 2 -3 9062.07 547.74 17
1 2 3 9798.13 718.296 3
1 2 3 8471.4 705.806 16
-1 2 -3 8249.18 542.438 18
1 2 3 6522.83 695.462 2
-1 2 -3 9409.77 400.423 7
1 2 3 9777.8 755.035 10
1 2 3 8993.51 642.037 4
1 2 3 8861.81 719.862 18
1 2 3 8660.79 705.984 17
1 2 3 8237.8 694.344 15
-1 2 -4 11.4001 62.1499 16
-1 2 -4 166.355 147.617 15
-1 2 -4 314.673 231.604 13
1 2 4 -50.0617 294.501 16
1 2 4 -46.3337 262.053 17
1 2 4 32.264 309.998 10
-1 2 -4 200.415 140.6 18
-1 2 -4 -321.743 210.561 7
-1 2 -4 158.45 149.494 17
1 2 4 432.156 250.382 3
-1 2 -4 -79.5766 259.464 2
1 2 4 -208.285 252.411 15
1 2 4 487.475 316.118 5
-1 2 -4 90.1272 111.284 10
-1 2 -4 -280.74 353.02 9
1 2 4 207.322 245.229 18
1 2 4 414.252 291.745 4
-1 2 -4 106.216 150.808 4
1 2 5 4330 591.15 10
1 2 5 3620.68 498.972 15
1 2 5 3766.3 448.958 3
-1 2 -5 3681.9 322.936 18
-1 2 -5 4009.53 316.865 17
1 2 5 2940.44 489.979 5
-1 2 -5 3181.74 505.758 9
1 2 5 3475.63 493.987 17
-1 2 -5 3343.1 494.384 2
1 2 5 2875.56 449.681 18
-1 2 -5 3418.68 303.94 15
-1 2 -5 3347.76 257.861 16
1 2 5 2556 174.997 12
-1 2 -5 3499.86 397.194 4
1 2 5 3529.73 549.992 16
1 2 5 2371.13 478.851 4
-1 2 -5 3394.49 307.752 7
-1 2 -5 3521.99 284.648 10
1 2 6 14406.6 961.449 17
-1 2 -6 15436.7 1085.74 9
1 2 6 12807.9 935.49 18
-1 2 -6 13361.8 586.602 18
1 2 6 11593.1 982.28 4
-1 2 -6 14145.9 597.635 18
-1 2 -6 13992.8 660.582 16
-1 2 -6 13464.6 740.831 7
1 2 6 11433.8 1000.88 10
1 2 6 13086.8 555.995 12
-1 2 -6 13450 586.493 17
-1 2 -6 13693.2 981.32 2
-1 2 -6 14919.8 654.422 10
1 2 6 12166.1 1038.12 16
-1 2 -6 13733.4 590.247 15
1 2 6 13645.3 993.876 5
1 2 6 13755.1 948.8 15
1 2 7 8304.77 788.813 5
1 2 7 9271.47 919.591 10
-1 2 -7 8591.47 401.362 18
1 2 7 9099.73 799.035 18
-1 2 -7 9522.05 539.019 10
1 2 7 9356.17 511.165 12
1 2 7 8140.38 757.567 15
-1 2 -7 8131.08 391.764 15
-1 2 -7 7794.46 792.184 9
1 2 7 8547.92 820.608 4
-1 2 -7 8824.61 662.189 7
1 2 7 8078.78 743.385 17
-1 2 -7 9580.38 886.94 2
-1 2 -7 8402.04 403.099 18
-1 2 -7 9532.23 576.778 16
-1 2 -7 7497.56 397.231 17
1 2 7 8841.05 897.584 16
-1 2 -7 8448.43 401.351 15
1 2 8 14596 1039.09 15
-1 2 -8 13775.1 1137.08 2
-1 2 -8 14565.9 937.955 7
1 2 8 14903.5 1204.38 10
1 2 8 13752.3 1125.22 4
1 2 8 16691.7 792.346 12
1 2 8 14310.2 1215.47 16
1 2 8 15009 1059.85 18
1 2 8 15041.6 1113.3 5
1 2 8 15111 1043.12 17
-1 2 -8 13359.8 1083.99 9
1 2 9 9451.17 890.642 18
1 2 9 9092.42 1052.03 16
1 2 9 9414.76 860.179 15
1 2 9 10716 678.374 12
-1 2 -9 9802.28 984.217 9
1 2 9 11561.9 1016.83 5
-1 2 -9 9517.92 805.199 7
1 2 9 10218.9 861.985 17
1 2 9 8370.16 995.907 4
1 2 9 9096.88 1006.69 10
-1 2 -9 8800.94 982.683 2
1 2 10 8367.95 1022.32 4
1 2 10 9135.58 845.988 15
1 2 10 7884.63 804.797 18
-1 2 -10 8797.06 855.616 1
1 2 10 8309.63 813.493 17
1 2 10 7684.11 844.386 5
-1 2 -10 8363.37 822.508 7
-1 2 -10 7750.93 948.767 11
-1 2 -10 9332.37 983.986 9
1 2 10 7477.73 999.401 16
-1 2 -10 7981.75 947.571 2
1 2 10 7798.98 989.425 10
1 2 10 8605.47 666.268 12
-1 2 -11 2021.79 515.79 1
1 2 11 2024.44 608.675 10
-1 2 -11 1936.19 601.3 11
1 2 11 2974.69 725.401 16
-1 2 -11 2783.66 617.951 9
1 2 11 2124.15 519.229 5
1 2 11 1546.26 404.085 18
-1 2 -11 1988.01 594.606 2
1 2 11 2578.44 483.688 15
-1 2 -11 2767.68 547.551 7
1 2 11 1435.16 573.057 4
1 2 12 996.248 553.247 4
1 2 12 969.545 380.646 15
1 2 12 538.452 437.892 16
1 2 12 1542.44 442.571 18
-1 2 -12 1187.27 482.082 7
1 2 12 222.954 470.889 10
-1 2 -12 -114.891 453.636 11
1 2 12 771.616 442.588 5
-1 2 -12 1519.48 639.459 2
-1 2 -12 825.93 508.967 9
1 2 13 3233.34 655.57 5
1 2 13 3287.89 816.191 16
1 2 13 3007.06 749.983 10
-1 2 -13 4559.08 942.888 2
1 2 13 2886.01 919.651 4
-1 2 -13 4614.31 803.509 9
-1 2 -13 3485.99 754.309 11
-1 2 -14 3834.53 803.067 9
1 2 14 2124.19 690.604 10
-1 2 -14 1861.1 631.196 2
1 3 -14 -616.195 574.68 9
-1 3 13 4924.52 829.274 18
1 3 -13 5107.7 1016.83 2
-1 3 13 5375.54 1022.67 4
1 3 -13 2214.67 579.851 9
1 3 -13 4660.15 884.56 11
-1 3 13 4903.63 818.367 15
-1 3 13 5437.5 1009.5 10
-1 3 12 9822.78 1062.62 5
-1 3 12 10519.1 1255.26 10
1 3 -12 7868.97 1009.9 9
1 3 -12 9059.26 1184.5 2
-1 3 12 11162.1 1338.06 16
-1 3 12 10352.3 1123.93 15
-1 3 12 10929.2 1157.06 18
-1 3 12 9665.74 1196.99 4
-1 3 11 990.093 424.914 18
-1 3 11 788.387 468.39 5
-1 3 11 402.537 427.895 15
-1 3 11 1129.37 567.91 10
-1 3 11 290.726 481.492 4
1 3 -11 -422.428 481.419 9
1 3 -11 285.277 523.6 2
-1 3 11 945.771 595.388 16
-1 3 10 8575.11 997.773 18
1 3 -10 8914.19 1087.36 2
-1 3 10 9298.59 1109.12 10
-1 3 10 8919.44 1088.44 16
1 3 -10 8305 966.628 9
-1 3 10 8766.07 986.929 15
-1 3 10 8532.17 1022.88 5
-1 3 10 8505.83 1079.46 4
1 3 -10 8690.72 869.282 7
-1 3 9 5099.02 797.501 15
-1 3 9 5222.75 768.397 18
1 3 -9 6232.27 904.687 2
-1 3 9 5331.55 794.796 5
-1 3 9 5120.97 832.368 10
1 3 -9 5476.9 637.78 7
1 3 -9 6311.46 904.533 9
-1 3 9 5323.69 895.451 16
-1 3 9 5083.32 732.977 17
-1 3 9 6411.57 871.365 4
1 3 -8 397.422 223.715 18
-1 3 8 290.271 388.946 4
1 3 -8 2172.55 595.461 9
-1 3 8 891.94 536.22 16
1 3 -8 516.487 254.392 15
-1 3 8 453.795 385.466 17
1 3 -8 448.416 412.806 2
-1 3 8 221.427 335.169 5
-1 3 8 623.155 547.781 10
-1 3 8 549.756 353.811 18
-1 3 8 249.669 363.259 15
-1 3 8 496.144 185.547 12
1 3 -8 704.191 286.609 7
-1 3 7 28870.8 1740.45 18
-1 3 7 31473 1703.88 4
1 3 -7 32938.8 1476.32 18
1 3 -7 32998.7 1856.46 9
-1 3 7 30218.1 1714.64 5
-1 3 7 29780.7 1815.92 10
1 3 -7 30352.1 1815.34 2
1 3 -7 33203 1469.75 15
-1 3 7 29197.9 1708.89 17
1 3 -7 32704.6 1463.36 7
-1 3 7 33192.8 1230.53 12
-1 3 7 32284.3 1823.14 16
-1 3 7 29590.9 1736.88 15
-1 3 6 24260.3 1496.71 17
1 3 -6 24031.2 1239.23 15
1 3 -6 22588.1 1478.5 9
-1 3 6 25756.8 1550.39 18
-1 3 6 25888.3 1552.99 5
-1 3 6 24502 1547.96 10
1 3 -6 23252.1 1538.88 2
-1 3 6 24150 1498.97 15
1 3 -6 25204.1 1191.35 7
-1 3 6 25370 1402.29 4
-1 3 6 23853.7 1479.15 16
1 3 -6 25861 1283.51 18
1 3 -5 13450.9 803.008 13
1 3 -5 13212.3 888.759 15
-1 3 5 12500 904.296 4
-1 3 5 11657 1012.46 15
1 3 -5 12794.1 782.07 7
-1 3 5 13457.1 1033.85 16
1 3 -5 14081.8 919.633 18
-1 3 5 12848.4 1037.61 17
1 3 -5 11159.4 1038.67 2
-1 3 5 13666.7 1103.7 10
-1 3 5 12995.7 1066.82 18
-1 3 5 13420.1 1089.76 5
-1 3 4 2324.92 449.341 16
-1 3 4 2529.6 420.784 4
1 3 -4 2219.1 533.639 2
-1 3 4 2943.74 531.02 18
1 3 -4 2912.6 329.895 13
-1 3 4 2769.88 528.285 17
1 3 -4 2743.22 438.991 15
-1 3 4 1844.39 456.145 10
-1 3 4 2618 517.837 15
1 3 -4 2287.91 409.134 18
1 3 -3 156.08 266.346 15
-1 3 3 416.693 370.685 15
1 3 -3 958.804 344.107 18
1 3 -3 433.169 124.74 10
-1 3 3 464.781 345.034 18
1 3 -3 692.681 375.246 2
-1 3 3 730.321 195.917 12
1 3 -3 463.243 129.871 13
-1 3 3 706.671 271.718 4
-1 3 3 743.037 372.711 10
-1 3 3 627.534 327.305 2
-1 3 3 221.013 258.474 16
-1 3 3 875.15 393.36 17
1 3 -2 5504.42 606.488 15
-1 3 2 5833.14 495.918 12
1 3 -2 4307.74 650.14 2
1 3 -2 5397.17 588.93 18
1 3 -2 6054.45 428.045 10
-1 3 2 6260.82 684.24 18
-1 3 2 6074.23 626.003 10
-1 3 2 6367.93 560.794 16
-1 3 2 5835.43 688.293 15
-1 3 2 6057.22 685.18 17
-1 3 2 6357.53 680.222 2
-1 3 2 5546 418.026 4
-1 3 1 12440.2 936.616 15
-1 3 1 12797 866.344 10
1 3 -1 13542.3 815.537 12
1 3 -1 12874.1 1023.9 2
-1 3 1 12793.1 552.665 4
-1 3 1 12171.9 932.235 2
1 3 -1 12441.7 933.366 18
-1 3 1 13693 744.381 16
-1 3 1 14316.2 808.071 12
1 3 -1 13762.4 945.548 15
1 3 -1 13750.8 744.784 10
-1 3 1 12203.3 917.11 17
-1 3 1 13199.4 974.579 18
-1 3 0 15285 996.079 17
-1 3 0 14469.9 983.18 18
1 3 0 15747.1 814.266 12
-1 3 0 14860.1 876.316 10
-1 3 0 16428.4 738.599 16
-1 3 0 14391.7 1049.98 2
1 3 0 15963 885.865 10
1 3 0 13652.4 994.545 18
1 3 0 15654.1 1051.44 15
1 3 0 15434 1090.3 2
-1 3 0 14043.1 975.174 15
1 3 1 62663.9 1814.59 12
-1 3 -1 59651.5 2199.89 15
-1 3 -1 56506 2171.66 18
-1 3 -1 57360.2 1948.79 10
-1 3 -1 56449.6 2300.78 2
-1 3 -1 56370.4 2153.67 17
1 3 1 57065.7 2106.34 10
-1 3 -1 57641.4 2276.88 9
1 3 1 55162.6 1984.59 16
1 3 1 56347.5 2303.62 18
1 3 1 56150.5 2309.22 2
-1 3 -1 57320.1 1617.79 16
1 3 1 55984.3 2275.06 15
-1 3 -2 19697.3 1115.83 18
1 3 2 21202.6 1302.13 18
-1 3 -2 21123.3 1293.65 9
-1 3 -2 22618.9 960.783 10
1 3 2 19766.7 1096.96 16
1 3 2 20176.5 1259.25 2
1 3 2 19697 1259.26 15
-1 3 -2 19880 1113 17
-1 3 -2 20488 1125.17 15
1 3 2 20334.2 1311.89 5
1 3 2 21220.3 1192.28 10
-1 3 -2 22332.5 804.805 13
1 3 2 21767.4 783.924 12
-1 3 -2 21583.2 1262.57 2
1 3 2 21858.9 1294.3 17
1 3 3 4248.3 616.536 2
1 3 3 3839.06 622.584 5
-1 3 -3 4099.46 486.649 18
-1 3 -3 5161.83 657.303 9
1 3 3 4589.15 577.082 16
-1 3 -3 4987.6 405.502 13
1 3 3 4040.33 591.43 18
-1 3 -3 5148.24 394.838 10
-1 3 -3 4362.08 606.305 2
1 3 3 3938.12 583.799 15
1 3 3 4501.68 615.968 17
-1 3 -3 4903.1 512.006 15
-1 3 -3 4888.95 511.671 17
1 3 3 5058.3 628.099 10
-1 3 -4 3421.98 569.675 2
-1 3 -4 3413.74 439.734 18
1 3 4 3001.94 556.214 15
1 3 4 3547.34 583.715 18
1 3 4 3809.09 618.378 10
-1 3 -4 3094.08 420.866 15
1 3 4 3540.6 485.445 4
-1 3 -4 3749.92 614.242 9
1 3 4 3272.9 528.969 16
1 3 4 2971.98 559.682 17
1 3 4 3630.02 587.353 5
-1 3 -4 3682.3 264.479 4
-1 3 -4 4190.47 432.443 13
-1 3 -4 3191.5 287.737 10
-1 3 -4 4170.48 476.143 17
-1 3 -5 2867 303.627 4
-1 3 -5 1848.4 337.871 18
-1 3 -5 1834.25 243.21 7
-1 3 -5 2164.47 347.859 17
-1 3 -5 1576.98 433.799 2
-1 3 -5 1310.88 435.265 9
-1 3 -5 2094.44 334.059 15
1 3 5 2457.09 522.557 18
1 3 5 2099.16 510.312 5
1 3 5 1471.89 448.224 17
1 3 5 1907 507.399 10
1 3 5 1261.41 441.179 16
-1 3 -5 2036.83 208.453 10
1 3 5 1488.96 433.757 15
1 3 5 1160.09 319.479 4
1 3 6 1014.09 447.068 10
1 3 6 514.131 287.946 4
-1 3 -6 1036.02 263.081 15
1 3 6 904.416 401.691 17
-1 3 -6 1094.09 485.235 2
-1 3 -6 1159.37 268.662 18
-1 3 -6 1455.14 277.814 17
1 3 6 1384.93 483.118 15
1 3 6 1612.05 486.757 5
1 3 6 1036.86 455.142 16
-1 3 -6 1053.26 443.436 9
1 3 6 1394.78 447.84 18
-1 3 -6 1555.6 261.059 7
1 3 7 22760 1514.12 4
-1 3 -7 26658.7 1641.67 2
-1 3 -7 26525.6 1139.11 7
1 3 7 25603.9 1611.52 5
-1 3 -7 24854.3 1617.85 9
1 3 7 24642.1 1666.41 10
-1 3 -7 26015 1103.35 18
-1 3 -7 26562.7 1106.54 15
1 3 7 26608.4 1597.78 17
-1 3 -7 27693.8 1116.1 17
1 3 7 24063.7 1594.14 16
1 3 7 24454.5 1575.85 18
1 3 7 23155.7 1513.74 15
1 3 8 4595.64 723.853 18
1 3 8 3541.73 680.165 4
1 3 8 3812.5 731.529 16
1 3 8 4193.09 677.588 17
-1 3 -8 3616.81 676.559 2
1 3 8 3326.18 626.008 15
-1 3 -8 4659.64 758.061 9
1 3 8 3336.71 671.237 5
1 3 8 3751.66 710.651 10
1 3 9 1194.31 439.331 15
1 3 9 726.315 394.268 17
-1 3 -9 1865.35 549.295 2
-1 3 -9 857.211 380.764 9
1 3 9 936.234 409.801 18
1 3 9 984.346 464.11 5
1 3 9 1161.09 548.44 10
1 3 9 1589.17 514.404 4
1 3 9 1886.7 633.101 16
1 3 10 -1.71966 340.09 18
1 3 10 661.128 548.409 4
1 3 10 669.62 538.054 16
-1 3 -10 244.153 367.602 9
1 3 10 140.158 383.946 5
1 3 10 -75.898 389.627 17
1 3 10 552.928 375.665 15
1 3 10 723.465 537.506 10
-1 3 -10 674.258 499.176 2
1 3 11 1037.63 465.335 17
1 3 11 2751.5 815.83 10
1 3 11 1400.6 504.57 18
1 3 11 1560.6 551.195 15
1 3 11 1653.4 671.259 16
1 3 11 916.363 476.739 5
-1 3 -11 479.115 476.181 2
-1 3 -11 318.964 405.823 9
1 3 11 1644.04 634.983 4
1 3 12 671.842 591.062 4
1 3 12 2054.53 684.898 10
-1 3 -12 2648.04 750.365 11
1 3 12 1244.95 602.361 16
-1 3 -12 1557.99 488.895 9
1 3 12 1340.61 508.214 5
1 3 12 2025.94 530.597 18
-1 3 -12 2363.76 659.694 2
1 3 12 2135.69 573.452 15
-1 3 -13 1026.7 686.885 2
-1 3 -13 995.881 508.663 9
1 3 13 947.29 496.662 5
-1 4 12 2322.87 693.025 18
-1 4 12 2111.13 743.522 4
-1 4 12 1682.12 657.937 5
-1 4 12 2913.91 699.888 15
1 4 -11 -128.512 568.509 2
-1 4 11 927.526 506.151 15
-1 4 11 241.317 520.297 4
-1 4 11 1084.55 563.187 16
-1 4 11 1666.59 655.859 5
-1 4 11 485.413 505.36 10
-1 4 11 173.242 461.787 18
-1 4 10 5002.33 939.419 5
-1 4 10 5980.74 926.905 4
-1 4 10 4542.86 849.166 17
-1 4 10 6226.69 1003.59 16
-1 4 10 4278.65 815.606 18
1 4 -10 4824.6 923.473 2
-1 4 10 6211.87 1065.84 10
-1 4 10 6279.08 968.043 15
-1 4 9 7187.87 958.313 17
-1 4 9 7291.51 1022.81 16
1 4 -9 6410.52 965.505 2
-1 4 9 6031.34 991.004 10
-1 4 9 6253.06 964.802 18
-1 4 9 8895.76 1055.87 5
-1 4 9 6214.29 864.89 4
-1 4 9 6160.72 933.884 15
1 4 -8 433.018 479.547 2
-1 4 8 1517.43 546.389 10
-1 4 8 760.447 407.615 4
-1 4 8 672.094 402.804 18
-1 4 8 431.492 408.182 17
-1 4 8 1009.24 435.818 15
-1 4 8 742.043 500.101 16
-1 4 8 613.21 431.181 5
1 4 -7 2941.36 506.622 15
-1 4 7 2549.54 613.85 18
1 4 -7 4142 589.092 18
1 4 -7 1927.63 583.423 2
-1 4 7 3570.22 658.704 4
-1 4 7 3420.86 672.103 15
-1 4 7 2411.75 585.458 5
-1 4 7 3788.33 709.917 10
-1 4 7 3493.75 692.09 17
-1 4 7 2985.74 666.931 16
-1 4 6 12480.2 1208.96 5
-1 4 6 12393.9 995.914 4
1 4 -6 12757 1010.67 18
-1 4 6 9743.38 1069.4 15
1 4 -6 11068.5 1177.92 2
-1 4 6 8773.53 1035.34 18
-1 4 6 11819.7 1151.52 10
-1 4 6 11497.4 1147.5 17
-1 4 6 10367.9 1038.81 16
1 4 -6 12049.8 973.517 15
-1 4 5 954.52 397.051 16
-1 4 5 1812.18 560.497 17
-1 4 5 1095.11 407.609 18
1 4 -5 2002.21 586.39 2
1 4 -5 1023.36 355.014 15
1 4 -5 1073.88 350.722 18
-1 4 5 1989.19 615.299 5
-1 4 5 1524 515.025 15
-1 4 5 736.7 450.79 10
-1 4 5 1197.59 369.398 4
-1 4 4 13008.6 1143.94 10
-1 4 4 12036.7 827.07 4
1 4 -4 11418.8 993.162 18
-1 4 4 11214.9 1097.3 18
-1 4 4 11545.2 961.739 16
1 4 -4 12677 1027.25 15
-1 4 4 11386.7 1084.37 17
-1 4 4 11920.7 1154.28 15
1 4 -4 8228.75 1093.4 2
-1 4 4 10510.1 1122.38 2
1 4 -3 2014.34 565.505 2
-1 4 3 2099.15 542.687 18
-1 4 3 1615.96 315.806 4
-1 4 3 1673.51 487.504 10
-1 4 3 1716.36 499.82 15
-1 4 3 1604.69 498.448 17
1 4 -3 1807.04 472.409 18
1 4 -3 1384.25 428.858 15
-1 4 3 1359.16 441.326 2
-1 4 3 1478.79 398.957 16
1 4 -2 193.936 304.449 18
1 4 -2 75.4877 316.572 15
-1 4 2 -63.7605 343.481 18
-1 4 2 -99.4055 324.889 17
-1 4 2 -44.3623 352.158 15
1 4 -2 384.826 421.847 2
1 4 -2 99.0406 188.785 10
-1 4 2 -76.6096 214.781 16
-1 4 2 144.333 307.885 2
-1 4 2 140.478 313.44 10
1 4 -1 9914.42 945.319 17
1 4 -1 8447.26 881.7 15
1 4 -1 9054.86 931.993 18
1 4 -1 9164.58 986.067 2
-1 4 1 10304.7 844.048 10
1 4 -1 9531.01 722.436 10
-1 4 1 9417.53 924.853 15
-1 4 1 9388.83 931.682 18
-1 4 1 9014.76 931.169 2
-1 4 1 8963.76 657.258 16
-1 4 1 9292.93 913.579 17
-1 4 0 14389 1139.27 18
-1 4 0 15497.4 777.421 16
1 4 0 15033 1251.13 2
-1 4 0 15913 1179.82 17
1 4 0 14557.8 974.582 10
-1 4 0 14076.1 1127.3 15
-1 4 0 15911.3 1023.83 10
1 4 0 14809.5 1167.93 17
-1 4 0 15419 1237.99 2
1 4 0 14831.3 1186.28 18
1 4 0 14781.4 1188.41 15
-1 4 -1 284.869 285.175 17
1 4 1 374.522 203.441 12
-1 4 -1 53.0744 287.314 18
1 4 1 -70.5054 352.721 18
1 4 1 400.784 386.334 2
-1 4 -1 412.715 389.928 2
1 4 1 377.941 283.057 10
-1 4 -1 325.864 224.016 10
-1 4 -1 -25.0824 291.77 15
1 4 1 -116.108 376.448 15
1 4 1 -284.411 373.509 17
1 4 2 6334.29 743.509 10
1 4 2 7565.28 911.743 2
-1 4 -2 5526.32 844.395 2
-1 4 -2 6468.56 720.229 17
-1 4 -2 6524.83 729.819 15
-1 4 -2 7317.93 593.492 10
1 4 2 6559.87 813.508 15
1 4 2 6757.06 914.997 5
1 4 2 6955.63 703.163 16
-1 4 -2 5896.31 715.627 18
1 4 2 5576.19 765.763 18
1 4 2 6438.52 826.69 17
-1 4 -3 4653.91 760.601 9
1 4 3 5285.54 784.975 18
-1 4 -3 5359.81 661.282 15
1 4 3 5622.98 796.416 15
1 4 3 6597.89 903.692 5
-1 4 -3 6051.15 695.51 17
1 4 3 5356.58 673.025 16
1 4 3 5567.16 795.888 17
1 4 3 5231.91 743.761 10
-1 4 -3 5312.79 664.819 18
-1 4 -3 5039.79 468.242 10
-1 4 -3 6740.98 811.861 2
1 4 3 5208.35 797.496 2
-1 4 -4 305.378 258.293 15
1 4 4 808.897 383.841 15
1 4 4 1027.22 429.558 2
-1 4 -4 257.823 432.164 2
-1 4 -4 419.622 292.179 17
-1 4 -4 1688.66 623.278 9
1 4 4 457.224 402.107 5
1 4 4 4.90529 342.59 10
1 4 4 154.114 336.002 18
-1 4 -4 111.439 244.236 18
1 4 4 441.511 422.674 17
1 4 4 586.622 372.182 16
1 4 5 230.755 483.979 5
-1 4 -5 -477.363 392.017 9
-1 4 -5 -135.919 233.576 15
-1 4 -5 218.084 436.734 2
-1 4 -5 87.5013 254.124 17
1 4 5 21.5502 364.86 10
-1 4 -5 177.703 266.258 18
1 4 5 26.5388 356.975 17
1 4 5 -53.1902 332.552 16
1 4 5 349.686 411.723 15
1 4 5 -12.3719 325.666 18
-1 4 -6 11502.2 1183.75 2
1 4 6 10424.4 1055.93 16
1 4 6 9461.83 1142.69 5
-1 4 -6 11060 1183.75 9
1 4 6 11607.7 1183.34 10
-1 4 -6 12188.5 906.483 18
1 4 6 12091 1180.13 15
1 4 6 11024.1 1147.37 18
-1 4 -6 11861.5 878.147 17
-1 4 -6 11845 879.911 15
1 4 6 10755.8 1121.53 17
1 4 7 980.557 450.062 17
-1 4 -7 1553.36 626.846 2
1 4 7 572.767 374.137 4
1 4 7 1046.24 528.397 15
1 4 7 985.779 489.457 10
1 4 7 1993.05 629.579 18
1 4 7 1255.91 437.101 5
1 4 7 886.892 470.303 16
-1 4 -7 1329.95 558.324 9
-1 4 -8 7892.78 1014.29 9
1 4 8 6411.61 939.453 18
1 4 8 6852.33 921.308 4
1 4 8 8564.12 1050.93 15
1 4 8 7147.23 957.727 17
1 4 8 7055.64 1014.6 5
1 4 8 7855.06 1075.83 10
-1 4 -8 8071.07 1051.45 2
1 4 8 8229.94 1092.21 16
-1 4 -9 4334.55 823.556 2
1 4 9 3995.81 780.699 17
1 4 9 3402.49 746.558 16
1 4 9 3158.31 787.234 10
1 4 9 4424.61 798.64 18
1 4 9 4235.76 866.819 5
1 4 9 4853.3 794.83 4
-1 4 -9 3976.02 798.21 9
1 4 9 3223.16 732.17 15
1 4 10 4143.52 746.334 4
1 4 10 3981.38 798.754 18
-1 4 -10 4230.67 836.406 9
1 4 10 6012.24 946.917 17
1 4 10 5028.33 886.765 16
-1 4 -10 4926.43 882.498 2
1 4 10 4419.19 835.029 15
1 4 10 5218.46 910.821 5
1 4 10 4452.15 887.75 10
1 4 11 2267.49 607.875 15
-1 4 -11 2023.91 708.215 2
1 4 11 2187.86 798.499 16
1 4 11 1997.43 656.575 4
1 4 11 2096.03 613.994 18
-1 4 -11 3370.95 838.047 9
1 4 11 1862.32 630.125 17
1 4 11 2272.02 704.393 5
1 4 12 5888.75 953.226 18
1 4 12 6321.21 975.074 17
1 4 12 4319.63 921.603 5
1 4 12 7332.06 1078.2 15
-1 5 10 295.059 547.915 5
-1 5 9 1204.27 608.576 16
-1 5 9 834.176 554.681 5
-1 5 8 3541.97 790.285 16
-1 5 8 3644.05 841.733 18
1 5 -8 3689.26 899.615 2
-1 5 8 4369.23 910.187 15
-1 5 8 4334.74 841.292 17
-1 5 8 2200.23 655.445 5
-1 5 8 4394 916.525 10
1 5 -7 239.221 507.416 2
-1 5 7 135.451 504.59 5
-1 5 7 268.179 507.492 10
-1 5 7 701.601 527.396 18
-1 5 7 728.711 469.116 17
-1 5 7 65.0034 407.751 15
-1 5 7 1182.61 573.341 16
1 5 -6 1933.57 643.894 2
1 5 -6 2553.73 570.336 18
-1 5 6 3072.3 758.404 15
-1 5 6 2501.69 699.5 10
-1 5 6 1525.86 603.135 17
-1 5 6 2397.66 716.463 5
-1 5 6 2198.83 703.318 18
1 5 -6 3424.21 662.433 15
-1 5 6 2538.5 617.836 16
1 5 -6 3330.34 648.147 17
1 5 -5 2349.63 568.113 15
-1 5 5 1436 566.555 10
-1 5 5 1562.77 575.395 17
-1 5 5 1156.53 529.563 18
-1 5 5 973.986 570.474 5
1 5 -5 1619.04 650.828 2
-1 5 5 1717.67 626.633 15
1 5 -5 1914.05 553.737 18
-1 5 5 1004.95 424.67 16
1 5 -5 803.501 435.603 17
1 5 -4 1456.55 449.215 15
1 5 -4 776.045 510.672 2
-1 5 4 753.995 556.859 2
1 5 -4 1150.25 450.606 17
-1 5 4 1618.1 613.566 17
-1 5 4 2402.15 739.896 5
-1 5 4 1860.33 596.352 10
-1 5 4 1189.23 437.096 16
-1 5 4 2741.47 657.534 15
-1 5 4 1845.44 578.785 18
1 5 -4 1368.28 482.896 18
1 5 -3 2895.59 640.719 18
-1 5 3 1430.31 563.214 17
1 5 -3 1222.12 611.27 2
1 5 -3 920.041 434.56 15
-1 5 3 2497.43 716.894 2
-1 5 3 858.551 420.441 15
1 5 -3 682.775 415.534 17
-1 5 3 1735.82 508.807 10
-1 5 3 1270.69 528.803 18
1 5 -2 4621.95 746.452 17
-1 5 2 2354.37 646.609 15
1 5 -2 2708.64 700.654 2
-1 5 2 4297.86 729.135 10
-1 5 2 3631.06 756.089 18
-1 5 2 2976.21 651.65 2
1 5 -2 4027.95 706.493 18
-1 5 2 3260.41 698.324 17
1 5 -2 3333.27 690.227 15
-1 5 1 1640.26 569.972 17
-1 5 1 1709.64 521.492 15
1 5 -1 1899.71 574.068 15
1 5 -1 1971.93 580.79 17
-1 5 1 1946.73 507.556 10
1 5 -1 2389.22 696.043 2
-1 5 1 1877.31 591.222 18
1 5 -1 1850.46 563.313 18
-1 5 1 1316.83 507.554 2
-1 5 0 881.966 494.764 17
-1 5 0 496.325 475.17 2
1 5 0 296.431 374.957 15
1 5 0 1137.54 564.304 2
1 5 0 592.649 430.009 17
-1 5 0 355.751 316.704 10
1 5 0 710.759 374.646 10
-1 5 0 677.162 400.06 18
1 5 0 96.4102 345.736 18
-1 5 0 795.055 491.791 15
-1 5 -1 2768.28 600.459 17
1 5 1 3090.5 711.299 2
-1 5 -1 2446.8 600.414 15
1 5 1 3370.38 696.703 18
1 5 1 2927.94 727.983 5
1 5 1 2579.92 523.797 10
-1 5 -1 1752.14 626.672 2
1 5 1 3133.03 713.385 17
-1 5 -1 3613.37 704.251 18
1 5 1 4214.46 782.948 15
1 5 2 2926.09 686.571 17
-1 5 -2 3822.43 730.957 2
1 5 2 2738.34 706.974 15
-1 5 -2 3133.67 652.028 15
1 5 2 2688.69 702.492 5
-1 5 -2 3116.21 656.614 17
1 5 2 2182.5 614.807 18
1 5 2 2561.67 507.746 10
-1 5 -2 2975.06 589.506 18
1 5 2 3150.41 734.971 2
1 5 3 2027.22 609.134 15
-1 5 -3 831.099 471.182 2
-1 5 -3 1097.06 439.157 15
1 5 3 506.657 417.286 2
1 5 3 1560.86 565.14 5
1 5 3 1760.98 616.566 17
-1 5 -3 2079.13 556.68 17
1 5 3 1365.62 433.135 10
-1 5 -3 1110.73 445.035 18
1 5 3 1514.17 574.349 18
1 5 4 352.188 424.57 17
1 5 4 268.192 512.981 2
-1 5 -4 638.529 373.9 17
-1 5 -4 879.032 412.766 15
1 5 4 -18.9179 391.72 18
1 5 4 891.113 532.286 5
-1 5 -4 467.193 487.49 2
1 5 4 154.576 442.648 10
-1 5 -4 164.026 396.576 18
1 5 4 618.956 469.113 15
1 5 4 778.089 441.007 16
1 5 5 795.311 476.919 10
1 5 5 876.632 488.544 16
1 5 5 274.773 447.744 18
1 5 5 832.348 577.069 5
1 5 5 989.415 517.452 15
1 5 5 1147.72 573.824 17
-1 5 -5 690.931 581.507 2
1 5 6 -218.577 468.196 10
1 5 6 685.683 545.62 15
1 5 6 -149.607 584.451 5
-1 5 -6 361.119 482.28 2
1 5 6 -553.939 499.658 18
1 5 6 1536.68 591.827 17
1 5 6 -441.237 438.167 16
1 5 7 3883.71 855.505 15
1 5 7 4945.9 919.429 17
1 5 7 3749.34 801.487 18
1 5 7 3508.42 805.494 5
-1 5 -7 2135.16 735.874 2
1 5 7 3354.83 769.122 16
1 5 7 2710.14 725.686 10
-1 5 -8 5090.86 969.268 2
1 5 8 4753.49 927.492 10
1 5 8 7272.54 1066.15 17
1 5 8 6725.26 1052.04 15
1 5 8 4233.05 948.139 5
1 5 8 6520.49 1046.35 18
-1 5 -8 7129.33 1120.9 9
1 5 8 5163.9 965.129 16
1 5 9 7611.04 1162.72 16
-1 6 6 -327.44 463.084 10
-1 6 5 1032.97 564.437 10
1 6 -4 1525.15 536.195 15
1 6 -4 842.483 531.114 17
-1 6 4 1604.95 608.798 10
1 6 -4 1157.13 518.043 18
1 6 -3 3886.49 795.303 18
-1 6 3 4273.79 857.315 17
-1 6 3 4317.33 869.348 15
-1 6 3 3117.13 769.944 2
-1 6 3 3760.48 834.263 18
1 6 -3 4726.05 857.626 15
1 6 -3 4479.32 838.102 17
-1 6 2 3591.94 821.048 2
1 6 -2 4349.86 954.552 2
-1 6 2 3697.25 799.762 15
1 6 -2 3854.07 816.067 17
1 6 -2 3391.63 781.747 18
-1 6 2 3657.31 853.234 17
-1 6 2 2814.24 740.198 18
1 6 -2 3268.05 723.397 15
1 6 -1 1592.29 775.381 5
1 6 -1 941.357 570.534 17
-1 6 1 180.513 618.453 2
1 6 -1 765.062 541.975 15
1 6 -1 1965.7 754.101 2
-1 6 1 164.315 449.533 18
-1 6 1 813.479 546.584 17
-1 6 1 281.069 502.934 15
1 6 -1 1523.37 614.126 18
1 6 0 2738.85 746.232 15
-1 6 0 3069.81 780.724 2
1 6 0 4373.7 910.758 17
-1 6 0 4181.52 849.214 17
1 6 0 4407.78 994.842 5
-1 6 0 4420.61 816.911 15
1 6 0 3555.75 805.182 18
-1 6 0 3171 750.072 18
1 6 0 4474.9 944.744 2
-1 6 -1 1316.07 586.307 2
-1 6 -1 1452.48 646.443 18
1 6 1 1533.44 663.104 5
1 6 1 1749.68 717.221 2
1 6 1 1010.84 594.006 15
1 6 1 1214.91 586.569 18
-1 6 -1 1964.58 618.801 15
1 6 1 1020.88 556.086 17
-1 6 -1 1727.29 646.177 17
1 6 2 3678.7 832.673 2
-1 6 -2 2793.1 756.726 2
-1 6 -2 3592.57 731.612 17
1 6 2 3462.27 822.503 15
1 6 2 3221.2 762.854 17
1 6 2 3113.45 799.872 18
-1 6 -2 2429.03 626.672 15
-1 6 -2 2710.46 577.459 18
-1 6 -3 2729.04 858.758 2
-1 6 -3 3197.48 765.438 15
-1 6 -3 3752.66 749.286 17
-1 6 -3 4035.33 759.464 18
1 6 4 1142.63 554.957 10
1 6 5 2688.65 789.149 10
-2 -6 7 -193.429 448.212 14
-2 -6 6 3244.84 767.067 14
-2 -6 5 3818.81 826.93 14
-2 -6 4 5485.55 903.071 14
2 -6 -4 5243.41 918.548 6
2 -6 -3 1160.85 506.668 14
-2 -6 3 1366.14 506.845 14
2 -6 -3 1338.68 593.009 6
-2 -6 2 2653.1 648.498 14
2 -6 -2 2945.09 773.694 6
2 -6 -2 2877.7 768.066 8
2 -6 -2 2608.15 770.004 14
2 -6 -1 -216.546 517.318 14
-2 -6 1 996.053 476.853 14
2 -6 -1 887.824 548.679 8
2 -6 -1 1235.78 619.352 6
-2 -6 0 1117.22 525.148 14
2 -6 0 804.9 534.563 8
2 -6 0 333.259 456.335 6
2 -6 0 658.612 452.848 14
2 -6 1 5501.85 936.988 6
2 -6 1 4585.93 801.594 8
-2 -6 -1 5574.52 873.996 14
2 -6 1 5234.61 912.887 14
2 -6 2 1725.21 612.169 14
2 -6 2 1113.65 601.95 6
-2 -6 -2 1801.31 594.841 14
2 -6 2 1989.03 590.919 8
2 -6 3 2754.42 776.93 6
-2 -6 -3 2163.72 655.679 14
2 -6 4 937.861 582.653 6
-2 -6 -4 914.23 510.78 14
-2 -6 -5 1472.06 641.969 14
2 -5 -10 2558.91 752.81 7
2 -5 -9 -112.36 444.334 7
-2 -5 9 -227.021 452.466 12
2 -5 -8 1245.85 502.303 7
-2 -5 8 1383.76 567.726 6
-2 -5 8 2610.97 711.089 12
-2 -5 7 2390.81 621.478 14
2 -5 -7 3248.43 628.852 7
-2 -5 7 844.974 534.306 6
-2 -5 7 2910.49 706.787 12
2 -5 -7 3024.93 741.83 6
2 -5 -6 5009.88 722.493 7
-2 -5 6 4555.33 799.688 14
2 -5 -6 3138.45 724.839 6
-2 -5 6 2963.99 635.768 12
-2 -5 6 2990.19 695.167 6
-2 -5 5 1701.35 521.388 14
-2 -5 5 1809.51 672.945 6
2 -5 -5 1993.39 648.727 6
-2 -5 5 458.474 397.34 12
-2 -5 4 7211.84 900.445 14
2 -5 -4 6919.56 916.325 6
-2 -5 4 7228.34 898.868 12
-2 -5 4 7258.54 990.04 6
2 -5 -3 5090.69 836.655 14
-2 -5 3 3298.8 594.42 12
-2 -5 3 3255.55 724.395 6
2 -5 -3 3089.96 662.606 6
-2 -5 3 4055.55 717.23 14
2 -5 -3 2801.03 681.066 8
-2 -5 2 727.262 400.134 14
-2 -5 2 39.3457 425.802 6
2 -5 -2 -197.038 400.683 14
2 -5 -2 1008.86 508.733 8
2 -5 -2 181.618 391.757 6
2 -5 -1 34.8934 426.857 14
-2 -5 1 87.8167 452.421 6
-2 -5 1 -7.11057 337.08 14
2 -5 -1 123.19 396.242 6
2 -5 -1 238.318 394.835 8
2 -5 0 739.858 358.401 8
2 -5 0 484.266 453.254 14
-2 -5 0 388.604 320.072 14
-2 -5 0 562.163 438.677 6
2 -5 0 963.557 487.518 6
2 -5 1 3949.4 761.862 6
2 -5 1 4263.15 732.399 14
-2 -5 -1 3685.11 766.96 6
-2 -5 -1 3680.75 607.269 14
2 -5 1 4318.99 727 8
-2 -5 -2 15126.2 1387.32 6
2 -5 2 15499.5 1374.77 14
-2 -5 -2 15667 1240.4 14
2 -5 2 13384.6 1277.47 6
2 -5 2 17004.7 1319.13 8
-2 -5 -2 11306.3 1362.3 1
2 -5 3 10837.2 1168.71 14
-2 -5 -3 11504.5 1363.77 1
2 -5 3 12258.5 1177.66 6
-2 -5 -3 11397.3 1236.07 6
2 -5 3 14049.2 1147.6 8
-2 -5 -3 11442.3 1109.05 14
-2 -5 -4 1891.87 636.83 6
2 -5 4 680.688 427.232 14
2 -5 4 1872.3 464.881 8
-2 -5 -4 724.035 550.43 1
2 -5 4 1211.81 494.895 6
-2 -5 -5 2098.08 678.898 6
-2 -5 -5 2086.83 832.184 1
2 -5 5 3564.7 777.523 6
2 -5 5 3121.55 703.57 14
-2 -5 -6 3319.09 809.158 6
2 -5 6 5393.53 898.41 6
-2 -5 -6 3584.36 862.988 1
2 -5 6 4481.67 864.717 14
-2 -5 -7 225.792 365.692 6
2 -5 7 225.631 422.455 6
-2 -5 -7 142.789 564.349 1
2 -5 7 -319.539 457.223 14
2 -5 8 59.1864 400.249 6
2 -5 9 404.483 554.088 6
2 -4 -12 738.896 520.208 7
2 -4 -12 207.006 438.803 8
-2 -4 11 3878.98 870.376 6
-2 -4 11 3247.57 727.463 12
2 -4 -11 3360.47 773.382 7
2 -4 -10 3662.49 794.622 7
-2 -4 10 3763.1 813.839 12
-2 -4 10 3088.88 764.365 6
-2 -4 9 877.346 459.371 6
-2 -4 9 1635.89 615.75 12
2 -4 -9 866.686 456.928 7
2 -4 -8 -186.175 361.681 7
-2 -4 8 10.9816 413.243 6
-2 -4 8 -24.7556 381.439 12
-2 -4 7 4355.53 801.032 6
-2 -4 7 3971.26 687.014 12
2 -4 -7 5224.97 722.423 7
-2 -4 6 2954.02 567.411 14
2 -4 -6 3413.17 572.977 7
-2 -4 6 2479.8 526.932 12
-2 -4 6 3272.27 693.565 6
-2 -4 5 6861 805.272 14
-2 -4 5 7294.81 833.106 12
-2 -4 5 6146.51 814.126 6
2 -4 -5 6949.18 715.967 7
2 -4 -4 1031.07 328.635 7
-2 -4 4 -39.2193 402.306 6
-2 -4 4 456.873 293.633 12
-2 -4 4 678.131 375.484 14
2 -4 -3 1722.72 587.151 6
2 -4 -3 3175.09 294.611 13
-2 -4 3 3215.27 533.007 14
-2 -4 3 2890.72 623.407 6
2 -4 -3 3721.42 453.811 7
-2 -4 3 3130.11 525.901 12
2 -4 -2 1150.21 418.474 14
-2 -4 2 745.206 366.005 14
2 -4 -2 718.475 122.244 13
-2 -4 2 770.524 305.321 12
-2 -4 2 636.42 105.431 4
-2 -4 2 -406.281 429.351 6
2 -4 -2 1057.24 278.94 7
2 -4 -2 738.843 355.318 6
2 -4 -1 2358.95 303.3 7
-2 -4 1 1121.13 342.521 14
2 -4 -1 1972.36 484.125 6
2 -4 -1 1323.83 131.515 13
-2 -4 1 1686.92 346.77 12
-2 -4 1 1829.42 516.718 6
2 -4 -1 1427.74 440.7 8
-2 -4 1 2281.22 330.631 16
2 -4 -1 1871.9 527.395 14
-2 -4 0 5397.71 646.24 14
-2 -4 0 5146.52 750.272 6
2 -4 0 5077.09 708.54 14
2 -4 0 4594.4 671.242 6
2 -4 0 5291.62 690.997 8
2 -4 0 5382.76 359.213 7
-2 -4 0 5519.28 519.296 12
2 -4 0 4566.14 239.028 13
2 -4 1 28359.6 1622.33 6
2 -4 1 29867.6 945.411 13
-2 -4 -1 28068.9 1710.48 6
2 -4 1 27741.5 1676.67 14
-2 -4 -1 26269.3 1767.93 1
2 -4 1 27517.7 1598.42 8
-2 -4 -1 29266.5 1559.58 14
-2 -4 -2 17884 1337.57 6
2 -4 2 16275.8 1295.39 14
2 -4 2 20128.6 1336.55 6
2 -4 2 19775.8 1244.06 8
-2 -4 -3 7892.96 1039.03 1
-2 -4 -3 8372.95 966.77 6
2 -4 3 9191.81 939.065 6
2 -4 3 8777.85 947.079 14
2 -4 3 9135.48 828.64 8
2 -4 4 9739.59 819.718 8
2 -4 4 8441.1 936.177 14
-2 -4 -4 8862.91 1018.79 6
-2 -4 -4 9957.22 1123.5 1
2 -4 4 9225.74 924.35 6
2 -4 5 4684.83 774.385 14
2 -4 5 4318.94 697.107 6
2 -4 5 5692.72 600.95 8
-2 -4 -5 2549.29 805.362 1
-2 -4 -5 4317.47 753.326 6
2 -4 6 1434.86 565.096 14
2 -4 6 559.503 487.226 12
2 -4 6 848.245 473.704 6
-2 -4 -6 596.072 565.398 1
2 -4 7 650.767 409.179 6
2 -4 7 812.865 532.153 14
-2 -4 -7 463.998 432.404 1
2 -4 7 -110.006 389.973 12
-2 -4 -8 4719.81 887.486 1
2 -4 8 3923.15 734.014 6
2 -4 8 3662.36 853.182 12
2 -4 9 2104.23 729.733 12
2 -4 9 2385.85 652.204 6
-2 -4 -9 2245.82 717.008 1
2 -4 10 1803.03 729.786 12
2 -4 10 2561.96 680.921 6
-2 -4 -10 3114.31 723.34 1
-2 -4 -11 -11.9573 530.236 1
2 -4 11 26.3976 441.711 6
-2 -3 13 2322.05 734.649 6
2 -3 -13 870.593 608.42 7
2 -3 -13 921.272 432.925 8
-2 -3 12 2657.76 673.314 12
2 -3 -12 3026.19 680.661 8
-2 -3 12 2084.16 711.964 6
2 -3 -12 2997.37 760.464 7
-2 -3 11 4841.64 855.474 12
-2 -3 11 5297.23 924.185 6
2 -3 -11 4568.7 788.417 1
2 -3 -11 4687.72 884.49 7
-2 -3 11 4607.17 696.775 4
2 -3 -10 9054.15 1059.39 7
-2 -3 10 8684.81 1045.76 12
2 -3 -10 5713.57 885.798 1
-2 -3 10 8671.75 843.684 4
-2 -3 10 6767.32 951.77 6
-2 -3 9 10632.8 859.586 4
-2 -3 9 9798.86 1047.55 12
-2 -3 9 8321.25 985.743 6
2 -3 -9 9863.22 1102.63 7
-2 -3 8 371.048 427.747 12
2 -3 -8 146.769 326.113 7
-2 -3 8 -139.732 358.576 6
2 -3 -8 12.094 332.162 1
-2 -3 8 101.009 146.329 16
-2 -3 8 161.451 269.112 4
-2 -3 7 11552.1 586.123 16
-2 -3 7 10536.3 1033.55 12
-2 -3 7 10750.6 759.376 4
2 -3 -7 9967.14 934.475 7
-2 -3 7 9912.28 1014.09 6
-2 -3 6 5245.15 418.809 8
-2 -3 6 5094.59 682.946 12
-2 -3 6 5185.47 488.403 4
-2 -3 6 4251.43 664.691 6
2 -3 -6 4582.5 638.992 7
-2 -3 6 5495.27 370.184 16
-2 -3 5 8489.69 765.967 14
-2 -3 5 8147.12 842.191 6
2 -3 -5 9625.15 637.852 9
-2 -3 5 10024.5 872.151 12
-2 -3 5 9549.61 598.674 4
-2 -3 5 9216.79 639.03 8
-2 -3 5 9852.22 496.368 16
2 -3 -5 8933.04 780.561 7
-2 -3 4 3883.44 359.296 4
-2 -3 4 4008 574.11 12
2 -3 -4 3460.83 400.919 9
-2 -3 4 3570.51 561.882 6
2 -3 -4 4055.18 503.002 7
-2 -3 4 3611.9 491.109 14
-2 -3 4 3620.14 295.295 16
-2 -3 3 3237.24 465.232 14
-2 -3 3 2710.48 506.137 6
-2 -3 3 2959.54 453.601 12
-2 -3 3 3328.9 293.428 16
-2 -3 3 2966.21 294.624 4
2 -3 -3 3344.03 399.328 4
2 -3 -3 3541.34 433.266 7
-2 -3 2 3300.45 312.454 4
-2 -3 2 3820.98 481.434 12
-2 -3 2 3984.4 363.281 10
-2 -3 2 4024.92 357.075 16
-2 -3 2 3966.84 510.391 14
-2 -3 2 3618.19 566.918 6
2 -3 -2 4291.67 419.589 7
2 -3 -2 3555.97 513.39 6
2 -3 -1 15660.4 1028.99 6
2 -3 -1 14290.1 1043.54 14
-2 -3 1 15782.3 1102.74 6
-2 -3 1 16162.8 689.33 4
-2 -3 1 14650.3 1053.63 1
2 -3 -1 16728 737.334 7
-2 -3 1 16553.5 812.93 16
2 -3 -1 13521.8 1012.62 8
-2 -3 1 15458.7 841.885 12
2 -3 -1 16105.2 661.238 13
-2 -3 1 14324.7 898.731 14
-2 -3 1 15956.9 828.579 10
2 -3 0 33124.2 1632.66 14
2 -3 0 35771.2 1093.47 7
-2 -3 0 32781.6 1464.59 14
2 -3 0 34660.7 1642.65 8
-2 -3 0 32256.5 1689.83 1
2 -3 0 35315.2 1151.26 13
-2 -3 0 35568.1 1298.24 12
-2 -3 0 36502 1260.57 4
-2 -3 0 34472 1678.65 6
2 -3 0 33046.1 1573.54 6
-2 -3 0 36023.6 1417.29 16
-2 -3 -1 2878.54 525.478 6
2 -3 1 4298.44 555.886 6
2 -3 1 3641.57 312.892 13
-2 -3 -1 3374.28 314.425 12
2 -3 1 3162.19 552.116 14
2 -3 1 3191.96 501.811 8
-2 -3 -1 3222.51 596.419 1
-2 -3 -1 3605.57 374.918 4
-2 -3 -2 28072.6 1517.07 3
2 -3 2 28808.2 1384.23 8
2 -3 2 27869.3 1103.52 13
-2 -3 -2 29442 1263.12 4
2 -3 2 26314.3 1389.45 6
-2 -3 -2 26335.5 1473.11 6
-2 -3 -2 27801.1 1585.4 1
2 -3 2 26853.1 1493.84 14
-2 -3 -2 29210.6 989.523 13
-2 -3 -3 2445.44 285.382 13
2 -3 3 2251 549.812 14
2 -3 3 2509.22 350.017 13
2 -3 3 1789.41 364.107 6
-2 -3 -3 1905.56 427.196 3
-2 -3 -3 1967 513.619 1
2 -3 3 2379.75 370.471 8
2 -3 4 10180.3 717.066 18
-2 -3 -4 9171.76 838.264 3
2 -3 4 9948.98 851.881 6
2 -3 4 10456.9 733.938 8
2 -3 4 10828.1 720.241 15
2 -3 4 9697.24 900.458 12
-2 -3 -4 10945.6 973.296 1
2 -3 4 9858.61 928.802 14
2 -3 4 10411.6 743.309 13
-2 -3 -4 11056.8 693.13 13
-2 -3 -5 1308 526.408 1
2 -3 5 2692.92 361.214 15
2 -3 5 2568.8 417.709 13
2 -3 5 2612.5 475.775 6
-2 -3 -5 2701.88 527.742 3
2 -3 5 1617.63 503.972 12
2 -3 5 2791.74 356.168 8
2 -3 5 1908.78 534.909 14
2 -3 6 7529.72 825.317 6
2 -3 6 8609.9 562.459 15
2 -3 6 9307.08 622.711 8
-2 -3 -6 8448.34 834.46 3
-2 -3 -6 5047.35 908.838 1
2 -3 6 7237.29 886.424 14
2 -3 6 8255.16 914.301 12
2 -3 7 8053.56 884.83 6
2 -3 7 9261.44 571.092 8
-2 -3 -7 7819.78 982.739 1
2 -3 7 6738.59 970.2 12
-2 -3 -7 8099.56 839.149 3
2 -3 7 8419.8 950.292 14
-2 -3 -8 735.607 341.311 3
2 -3 8 1100.21 476.837 12
2 -3 8 412.234 378.147 6
-2 -3 -8 689.214 459.837 1
2 -3 9 6942.58 906.239 6
2 -3 9 7549.3 1088.1 12
-2 -3 -9 5845.6 988.249 1
-2 -3 -9 8702.58 830.527 3
-2 -3 -10 11906.9 1199.98 1
2 -3 10 9963.89 1118.3 6
2 -3 10 9776.91 1258.57 12
2 -3 11 6360.09 979.829 6
2 -3 11 5829.87 970.166 12
-2 -3 -11 5522.6 918.266 7
-2 -3 -11 5765.28 967.937 1
-2 -3 -12 499.264 519.328 7
2 -3 12 414.208 543.117 12
2 -3 12 313.058 510.355 6
-2 -3 -12 -27.6518 478.68 1
-2 -3 -13 1452.78 690.834 1
-2 -2 15 1324.97 638.166 4
2 -2 -14 391.974 572.691 7
-2 -2 14 455.099 471.148 12
-2 -2 14 237.478 441.929 4
2 -2 -13 4529.8 882.518 7
-2 -2 13 4926.59 900.128 12
-2 -2 13 4078.19 817.341 4
-2 -2 12 1297.75 548.16 4
2 -2 -12 400.804 471.95 7
-2 -2 12 1086.81 561.868 6
2 -2 -12 895.123 395.836 8
-2 -2 12 1892.81 484.098 16
-2 -2 12 1049.51 465.059 12
-2 -2 11 2061.14 609.379 4
2 -2 -11 3067.87 539.208 1
-2 -2 11 2159.03 564.725 6
2 -2 -11 2236.14 497.424 8
2 -2 -11 2021.71 670.52 7
-2 -2 11 2526.3 476.486 16
-2 -2 11 1903.57 572.008 12
-2 -2 10 8902.43 1005.07 6
-2 -2 10 8703.26 1019.11 12
-2 -2 10 9754.76 947.623 4
2 -2 -10 8533 999.577 7
2 -2 -10 10381.4 928.025 1
-2 -2 10 10546.6 821.54 16
-2 -2 9 -42.8236 296.445 4
-2 -2 9 343.417 357.846 6
2 -2 -9 -202.892 276.429 1
-2 -2 9 398.243 93.699 10
-2 -2 9 455.963 272.572 16
2 -2 -9 805.21 429.696 7
-2 -2 9 310.851 355.99 12
-2 -2 8 378.013 371.746 12
-2 -2 8 -44.8951 324.508 6
2 -2 -8 279.553 307.063 1
-2 -2 8 63.6789 49.451 10
-2 -2 8 108.532 208.362 16
2 -2 -8 39.9512 334.021 7
-2 -2 8 -25.1575 295.499 4
2 -2 -7 10220.5 893.326 1
-2 -2 7 13898.5 783.982 16
-2 -2 7 10808.5 990.648 12
2 -2 -7 12645.9 524.149 9
-2 -2 7 12089 992.03 6
-2 -2 7 13263.1 892.406 4
2 -2 -7 12085.2 1004.87 7
2 -2 -6 2053.65 192.921 9
2 -2 -6 1046.73 379.686 1
-2 -2 6 2156.98 191.107 8
2 -2 -6 1887.9 471.792 7
-2 -2 6 2528.91 513.995 6
-2 -2 6 1890.71 439.732 12
-2 -2 6 2129.08 325.232 16
-2 -2 6 2333.91 384.903 4
2 -2 -5 3456.2 508.009 7
-2 -2 5 2624.14 449.991 12
-2 -2 5 3335.48 502.424 6
2 -2 -5 3209.33 265.234 9
-2 -2 5 3362.65 281.047 8
-2 -2 5 3135.15 329.179 16
-2 -2 5 3987.05 429.802 4
-2 -2 4 5881.15 609.06 12
2 -2 -4 6805.78 568.947 4
-2 -2 4 6699.25 569.669 7
-2 -2 4 5196.86 621.128 6
2 -2 -4 7417.58 433.695 9
2 -2 -4 6023.35 615.67 7
-2 -2 4 6878.57 501.915 4
-2 -2 4 7068 592.95 14
-2 -2 4 7191.11 465.413 8
-2 -2 3 7259.82 607.27 12
2 -2 -3 8519.76 591.691 4
-2 -2 3 6740.66 641.519 6
2 -2 -3 8220.51 638.358 16
2 -2 -3 7389.57 574.194 7
-2 -2 3 6957.23 333.978 10
-2 -2 3 7716.67 465.602 4
2 -2 -3 7288 473.307 9
-2 -2 3 7246.89 578.383 7
-2 -2 3 7592.63 569.043 14
2 -2 -2 1663.19 273.408 7
2 -2 -2 1554.16 391.321 2
-2 -2 2 1867.31 206.646 10
-2 -2 2 1601.61 323.98 12
-2 -2 2 2008.15 327.601 7
2 -2 -2 1932.36 282.595 9
-2 -2 2 2057.77 384.618 1
-2 -2 2 1696.19 372.685 6
2 -2 -2 1900.38 319.127 16
2 -2 -2 1882.25 280.799 4
-2 -2 2 2107.23 326.981 14
2 -2 -2 1459.84 409.522 8
2 -2 -1 9441.69 483.487 7
-2 -2 1 8038.99 526.276 14
2 -2 -1 8508.9 469.714 13
2 -2 -1 4551.03 619.342 6
2 -2 -1 9697.71 657.159 17
-2 -2 1 9066.43 673.613 1
-2 -2 1 8103.22 532.08 12
-2 -2 1 7994.49 690.517 3
2 -2 -1 9767.64 664.498 18
-2 -2 1 9088.19 532.72 16
2 -2 -1 8952.96 673.416 2
-2 -2 1 8542.83 514.23 10
2 -2 -1 7359.25 679.677 8
2 -2 -1 9638.88 607.177 9
2 -2 -1 9399.58 644.275 15
-2 -2 1 8153.57 603.596 7
-2 -2 1 7862.77 663.133 6
2 -2 0 30218.6 1224.49 15
2 -2 0 28156.9 997.888 13
-2 -2 0 27964.6 1125.16 16
2 -2 0 30790.4 1235.99 18
-2 -2 0 26295.1 1261.19 6
-2 -2 0 28122.6 985.563 12
-2 -2 0 27594.5 1308.78 3
2 -2 0 28078.7 1295.57 14
2 -2 0 31089.2 1238.12 17
-2 -2 0 29355.1 1146.94 10
2 -2 0 30734.7 1248.06 9
2 -2 0 30487.1 1230.53 2
2 -2 0 27395.9 1236.33 8
2 -2 0 26849.2 1197.67 6
-2 -2 0 19747.5 1250.99 1
2 -2 0 27721.9 825.025 7
-2 -2 -1 24952.6 1239.59 3
2 -2 1 24305.8 1122.64 6
-2 -2 -1 25996 1132.39 16
2 -2 1 28187.6 1116.63 15
2 -2 1 25747.8 986.496 13
-2 -2 -1 24558.4 812.859 12
-2 -2 -1 26943.7 1157.45 10
2 -2 1 28531.1 1136.41 18
-2 -2 -1 23598.5 1210.24 6
2 -2 1 24892 1230.69 14
-2 -2 -1 26069.3 900.41 13
2 -2 1 26946.7 1106.46 17
2 -2 1 28027.1 1162.15 2
-2 -2 -1 23841.7 1264.25 1
2 -2 1 25307 1152.99 8
-2 -2 -1 26104.4 1058 4
-2 -2 -2 32133.2 1445.92 3
2 -2 2 31404.4 1462.98 14
2 -2 2 32220.7 1244.75 13
-2 -2 -2 36551.7 1362.77 4
-2 -2 -2 35635.3 1193.22 13
2 -2 2 33191.9 1354.01 6
2 -2 2 32244.2 1330.35 8
-2 -2 -2 27162.3 1492.99 1
2 -2 2 35075.3 1271.43 18
2 -2 2 31638 1404.72 2
2 -2 2 35587.2 1270.52 15
2 -2 3 55520.1 2169.49 14
-2 -2 -3 54045.3 2079.91 3
2 -2 3 58711 2051.52 6
2 -2 3 50010.5 2167.67 12
2 -2 3 61864 1825.93 18
-2 -2 -3 56215.6 2210.62 1
-2 -2 -3 62340.5 1924.62 13
2 -2 3 56307.9 1943.74 13
2 -2 3 58780.7 1809.69 15
2 -2 3 58699.3 1911.43 8
2 -2 4 15253.5 1009.92 12
-2 -2 -4 15612.5 855.329 13
2 -2 4 13585.2 876.673 6
2 -2 4 13584 845.206 13
2 -2 4 14326.3 993.733 14
2 -2 4 15010.7 660.423 18
2 -2 4 14405 742.473 8
-2 -2 -4 13179.2 877.906 3
-2 -2 -4 13291 982.927 1
2 -2 4 14339.6 649.415 15
-2 -2 -5 5614.59 591.382 3
2 -2 5 5753.68 671.019 12
2 -2 5 5589.08 664.021 14
2 -2 5 6591.36 457.297 8
2 -2 5 6330.54 355.907 15
2 -2 5 6127.14 619.753 6
2 -2 5 4163.12 619.206 13
-2 -2 -5 6940.62 700.677 1
2 -2 6 9197.49 805.316 6
-2 -2 -6 9567.52 773.106 3
-2 -2 -6 9468.11 892.714 1
2 -2 6 9876.44 852.942 13
2 -2 6 8524.34 891.187 12
2 -2 6 10556.7 564.644 8
2 -2 7 1012.07 339.731 4
2 -2 7 737.688 349.91 6
2 -2 7 963.445 177.028 8
-2 -2 -7 1311.66 406.893 1
-2 -2 -7 1225.31 316.103 3
2 -2 7 600.44 409.524 12
2 -2 8 10408.1 954.652 6
-2 -2 -8 11475.8 836.302 3
2 -2 8 9932.95 867.086 4
2 -2 8 9468.62 958.101 12
-2 -2 -8 11742.3 1035.97 1
-2 -2 -9 25033 1343.26 3
2 -2 9 26703.8 1685.35 12
2 -2 9 27739.6 1650.67 6
2 -2 9 24256.3 1540.38 4
-2 -2 -9 25174.4 1603.22 1
-2 -2 -10 12532.5 1155.16 1
2 -2 10 11307.6 1102.82 4
2 -2 10 14268.3 1221.48 6
2 -2 10 12877.8 1213.12 12
-2 -2 -11 4134.05 741.224 1
2 -2 11 3448.68 775.182 12
2 -2 11 3860.73 714.589 4
-2 -2 -11 3784.76 791.616 7
-2 -2 -12 377.085 473.745 7
2 -2 12 28.2909 384.651 12
-2 -2 -12 684.146 486.312 1
2 -2 12 -150.906 393.854 4
2 -2 13 2987.75 748.739 12
-2 -2 -13 2343.6 754.122 7
2 -2 13 2797.57 647.94 4
-2 -2 -13 3149.62 715.75 1
2 -2 14 1672.48 675.823 4
-2 -1 15 579.17 477.229 16
2 -1 -15 -577.27 544.49 11
-2 -1 15 -51.051 461.278 12
-2 -1 15 -106.57 541.769 4
2 -1 -14 1136.72 552.065 11
-2 -1 14 906.434 458.327 16
-2 -1 14 857.941 460.607 12
-2 -1 14 -348.492 546.462 4
2 -1 -14 468.8 478.797 7
-2 -1 13 2152.27 572.145 16
2 -1 -13 2339.14 622.529 11
-2 -1 13 2358.62 665.026 4
-2 -1 13 2107.88 586.093 12
2 -1 -13 1493.13 556.485 7
-2 -1 12 5652.99 866.469 4
-2 -1 12 5527.86 832.833 12
-2 -1 12 5087.03 602.19 10
2 -1 -12 5160.94 790.933 11
2 -1 -12 4781.92 773.678 7
-2 -1 12 6730.09 824.966 16
2 -1 -11 1123.65 520.64 7
-2 -1 11 1556.27 473.731 4
2 -1 -11 1473.17 378.459 8
-2 -1 11 1775.1 328.486 18
-2 -1 11 1530.44 542.864 12
2 -1 -11 1110.8 419.969 11
-2 -1 11 1658.91 366.193 10
-2 -1 11 1288.55 456.615 16
-2 -1 10 973.085 425.198 12
2 -1 -10 349.292 371.789 11
-2 -1 10 399.587 357.219 16
-2 -1 10 -405.25 235.791 10
2 -1 -10 443.357 251.405 1
-2 -1 10 243.187 205.638 18
2 -1 -10 391.934 275.462 8
2 -1 -10 486.236 371.63 7
-2 -1 10 1065.91 394.082 4
-2 -1 9 8811.71 912.028 6
-2 -1 9 9062.55 807.866 16
-2 -1 9 8455.77 899.121 12
2 -1 -9 8596.91 694.594 1
-2 -1 9 10256 680.827 10
2 -1 -9 8451.58 456.264 9
2 -1 -9 8901.73 743.797 8
-2 -1 9 9193.77 899.783 4
-2 -1 9 9584.05 691.914 18
2 -1 -9 8354.18 833.708 11
2 -1 -9 9093.74 945.778 7
2 -1 -8 4061.98 674.866 7
-2 -1 8 5316.42 678.71 6
-2 -1 8 5276.9 650.21 4
-2 -1 8 4877.06 643.406 12
2 -1 -8 4649.3 578.657 11
-2 -1 8 5403.45 459.035 10
2 -1 -8 4267.91 491.215 1
2 -1 -8 5601.48 569.738 8
-2 -1 8 5610.27 493.532 18
-2 -1 8 4620.87 540.442 16
2 -1 -8 4430.63 285.906 9
2 -1 -7 5972.69 512.765 1
2 -1 -7 5998.02 668.929 7
-2 -1 7 5943.89 507.803 18
2 -1 -7 5277.72 578.792 8
-2 -1 7 5804.25 667.114 12
-2 -1 7 6116.79 638.336 4
2 -1 -7 4730.85 253.039 9
-2 -1 7 6484.13 467.29 10
-2 -1 7 6649.94 701.196 6
-2 -1 7 6853.54 610.667 16
2 -1 -7 6118.67 613.042 11
-2 -1 6 6637.38 619.761 4
-2 -1 6 7078.02 543.607 18
-2 -1 6 8420.57 713.677 6
-2 -1 6 7709.09 706.813 12
2 -1 -6 6489.44 610.596 11
-2 -1 6 7084.26 461.891 10
2 -1 -6 6950.35 687.833 7
-2 -1 6 6305.83 579.514 16
-2 -1 6 7044.93 575.898 9
2 -1 -6 6671.08 602.142 8
2 -1 -6 6196.7 521.105 1
-2 -1 5 66608.8 1861.94 10
2 -1 -5 62834.4 2059.99 1
-2 -1 5 66898.7 2196.51 4
-2 -1 5 65821.2 2281.28 12
2 -1 -5 63678.6 2150.19 11
-2 -1 5 70699.7 2167.11 9
-2 -1 5 63963.3 2258.7 6
-2 -1 5 63213.1 2077.3 18
2 -1 -5 63919.6 2180.48 8
-2 -1 5 65368 1758.33 8
-2 -1 5 72279.9 2289.34 7
2 -1 -5 63433.4 2262.77 7
-2 -1 5 67901 2109.92 16
2 -1 -4 15458.4 825.738 4
-2 -1 4 12136.4 757.489 6
2 -1 -4 12364.9 701.502 11
-2 -1 4 12527.9 692.149 16
-2 -1 4 11426.7 766.952 12
2 -1 -4 12146.5 751.544 15
2 -1 -4 14442.1 794.688 17
2 -1 -4 13770.4 814.519 16
2 -1 -4 10778.7 777.628 8
-2 -1 4 13359.1 731.461 9
-2 -1 4 13244.5 721.366 4
-2 -1 4 12940.7 764.578 7
-2 -1 4 14050.8 546.024 8
2 -1 -4 13394.9 792.983 18
2 -1 -4 12575.6 789.609 7
2 -1 -3 20338.1 924.563 15
2 -1 -3 20006.2 920.12 18
-2 -1 3 18243.7 895.15 6
-2 -1 3 17633.8 888.617 12
2 -1 -3 19939.8 910.807 4
-2 -1 3 16531.9 816.617 4
2 -1 -3 18248.6 885.976 17
-2 -1 3 19998.4 905.37 7
-2 -1 3 14975.3 691.223 1
-2 -1 3 21340.3 963.144 2
2 -1 -3 19676 920.971 16
-2 -1 3 19754.7 880.701 9
-2 -1 3 19676.3 728.224 8
2 -1 -3 18136.7 919.047 8
2 -1 -3 18885.1 872.049 7
-2 -1 2 63225.6 2034.07 3
-2 -1 2 64003.9 2038.51 6
-2 -1 2 68896.2 2134.44 2
-2 -1 2 71198.9 2064.64 7
2 -1 -2 65525.3 1980.2 7
-2 -1 2 68153.3 1906.89 1
-2 -1 2 68009.7 1826.59 10
-2 -1 2 71023.5 1954.12 8
2 -1 -2 67977.5 2080.32 15
-2 -1 2 62972.5 2007.82 12
2 -1 -2 70628.5 2081.82 17
2 -1 -2 74093.1 2006.38 2
2 -1 -2 70237.5 2034.17 4
2 -1 -2 63368.7 2097.37 8
2 -1 -2 70312.3 2100.75 18
-2 -1 1 38267.2 1281.58 12
-2 -1 1 42717.8 1359.79 8
2 -1 -1 41788.7 1376.54 15
-2 -1 1 40789.4 1135.38 14
-2 -1 1 42373.6 1262.99 10
-2 -1 1 37035.2 1330.71 6
-2 -1 1 39938.5 1329.17 5
2 -1 -1 41566.5 1366.63 17
-2 -1 1 40395.7 1377.79 2
2 -1 -1 40555.5 1366.43 18
-2 -1 1 39592.9 1408.1 3
-2 -1 1 43332.6 1395.7 7
-2 -1 1 43886.1 1419.31 15
-2 -1 1 38598 1304.11 1
2 -1 -1 40989.4 1417.66 8
2 -1 -1 39170.6 1212.43 7
2 -1 -1 42124.8 1268.03 2
-2 -1 0 30967.9 1188.42 3
-2 -1 0 27134.5 1116.47 6
2 -1 0 32388 907.674 7
2 -1 0 24624.3 998.275 6
-2 -1 0 33352.3 1110.16 10
2 -1 0 29629.8 1144.92 14
2 -1 0 33600.6 1098.39 18
2 -1 0 33078.5 1087.34 17
-2 -1 0 32834.3 1179.35 8
2 -1 0 31173.2 1012.02 2
2 -1 0 30553.8 1062.42 13
2 -1 0 29783.4 1157.46 8
-2 -1 0 32825.8 1136.55 2
-2 -1 0 32773.7 1172.93 15
-2 -1 0 32206 1167.28 5
2 -1 0 33598.1 1097.7 15
-2 -1 0 30556.9 1128.4 1
-2 -1 -1 69038.7 2144.59 1
2 -1 1 74217.1 1958.08 15
-2 -1 -1 68060.2 2150.83 3
2 -1 1 63621.1 2027.89 13
2 -1 1 68104.7 2130.19 14
2 -1 1 63461.6 1942.93 2
2 -1 1 73202.4 1958.47 18
2 -1 1 71218.7 2067.22 8
-2 -1 -1 77551.1 2156.08 10
-2 -1 -1 74362.5 2181.34 5
2 -1 1 72057.3 1948.53 17
-2 -1 -1 70938.1 2119.83 15
-2 -1 -1 70886.3 2000.1 13
-2 -1 -1 74391.3 2139.95 16
2 -1 1 67169.7 1948.79 6
-2 -1 -1 72154.5 2109.54 2
2 -1 2 119774 3542.59 14
2 -1 2 128660 3207.43 15
2 -1 2 124443 3364.4 6
-2 -1 -2 122923 3529.55 3
2 -1 2 125586 3486.8 13
-2 -1 -2 131293 3491.72 15
-2 -1 -2 117393 3536.93 1
-2 -1 -2 131862 3595.31 10
-2 -1 -2 137434 3520 2
-2 -1 -2 130209 3455.09 13
2 -1 2 130739 3210.89 18
-2 -1 -2 129961 3574.02 16
2 -1 2 124362 3386.53 8
2 -1 2 128978 3202.31 17
-2 -1 -2 134428 3551.75 4
-2 -1 -2 129378 3604.92 5
2 -1 3 17350.3 730.393 8
-2 -1 -3 16360.5 886.289 1
2 -1 3 14959.9 514.279 18
-2 -1 -3 14929.9 846.581 13
-2 -1 -3 17852.6 861.602 2
-2 -1 -3 16635.3 888.128 5
2 -1 3 16077 776.367 6
-2 -1 -3 18340.8 924.218 10
-2 -1 -3 16073.3 585.522 12
-2 -1 -3 15690.7 816.622 3
2 -1 3 16865.7 864.941 13
2 -1 3 14985 511.915 15
-2 -1 -3 17778 897.893 4
-2 -1 -3 16918.9 894.598 16
2 -1 3 13080.6 907.909 12
2 -1 3 14847.8 879.956 14
2 -1 3 15024.2 513.762 17
-2 -1 -3 15933.2 785.072 15
-2 -1 -4 27417.5 1276.27 1
2 -1 4 29339.1 1321.3 13
2 -1 4 30297.5 1315.9 5
2 -1 4 30370.7 1232.01 6
-2 -1 -4 31963.8 1328.36 13
-2 -1 -4 27448.9 1301.43 11
-2 -1 -4 30430.2 1206.96 18
-2 -1 -4 29274.8 994.659 12
2 -1 4 30704.3 1077.81 8
-2 -1 -4 29996.6 1232.76 3
2 -1 4 29072.9 1368.64 12
-2 -1 -4 30128.8 1192.87 15
2 -1 5 2294.96 402.798 4
-2 -1 -5 2460.71 356.983 15
2 -1 5 2391.74 446.105 12
2 -1 5 1625.75 399.422 13
2 -1 5 3091.02 431.592 6
-2 -1 -5 2592.92 336.239 3
-2 -1 -5 2572.44 444.138 11
-2 -1 -5 2771.31 293.504 12
2 -1 5 2434.88 380.316 5
-2 -1 -5 2699.43 344.694 18
2 -1 5 2370.18 277.713 8
-2 -1 -5 2144.2 384.208 1
-2 -1 -6 9994.18 593.102 12
-2 -1 -6 10421.5 672.445 18
-2 -1 -6 9545.49 773.135 1
2 -1 6 10149.9 826.203 13
-2 -1 -6 8714.6 651.673 3
2 -1 6 10646.2 685.885 10
-2 -1 -6 8241.67 766.87 11
2 -1 6 11203.2 812.087 6
2 -1 6 11584.9 792.717 5
2 -1 6 9315.76 688.465 16
2 -1 6 8287.76 770.177 12
2 -1 6 9274.27 764.002 4
-2 -1 -6 10189.1 669.561 15
-2 -1 -7 37160.7 1747.63 1
2 -1 7 39197.1 1632.28 16
-2 -1 -7 41086.2 1501.47 12
-2 -1 -7 37799.3 1830.23 11
-2 -1 -7 39069.8 1586.54 3
-2 -1 -7 39155.8 1519.41 15
2 -1 7 41492.4 1607.93 10
2 -1 7 39655.1 1733.72 5
2 -1 7 38860.7 1901.62 13
2 -1 7 32715.9 1744 4
2 -1 7 36487.6 1778.89 12
-2 -1 -7 39823.9 1547.48 18
-2 -1 -8 46447 1856.96 3
2 -1 8 48930.6 2185.72 12
2 -1 8 46396.7 2081.76 4
-2 -1 -8 45156.8 2141.04 11
2 -1 8 50188.2 2036.86 5
2 -1 8 46781.9 1879.96 10
2 -1 8 49153.1 1957.44 16
-2 -1 -8 46950.7 2050.09 1
-2 -1 -9 28948.4 1575.9 1
2 -1 9 26239.9 1615.58 12
-2 -1 -9 25088.7 1614.4 11
2 -1 9 27083 1382.41 10
-2 -1 -9 26432.4 1310.71 3
2 -1 9 24997.4 1558.32 4
2 -1 9 26333.7 1444.75 16
2 -1 9 28933.5 1515.94 5
2 -1 10 16449 1083.09 10
-2 -1 -10 15195 972.696 3
-2 -1 -10 16953.2 1211.99 1
2 -1 10 14252.9 1190.87 4
2 -1 10 14573.6 1223.69 12
-2 -1 -10 13571.8 1212.45 11
2 -1 10 16947.6 1151.12 5
2 -1 10 16207.5 1151.3 16
-2 -1 -10 14743.6 1275.77 7
2 -1 11 1167.35 508.203 4
-2 -1 -11 1332.6 475.268 11
2 -1 11 2468.9 474.416 10
2 -1 11 2668.2 615.665 12
2 -1 11 2198.45 554.306 16
-2 -1 -11 1708.63 509.587 7
-2 -1 -11 1677.31 423.334 1
2 -1 11 2535.42 530.471 5
2 -1 12 351.312 494.783 4
-2 -1 -12 908.444 578.08 7
2 -1 12 584.284 399.08 12
-2 -1 -12 556.437 437.485 11
2 -1 12 726.256 361.901 10
-2 -1 -12 125.362 377.655 1
2 -1 12 578.714 398.647 16
-2 -1 -13 624.771 422.49 7
2 -1 13 -213.878 485.432 4
2 -1 13 -59.5632 407.747 12
2 -1 13 -295.894 416.923 16
-2 -1 -13 91.0042 475.854 11
2 -1 14 1797.08 671.54 12
-2 -1 -14 1565.25 636.599 7
2 -1 14 1327.49 509.144 16
2 -1 14 1107.35 740.871 4
2 -1 15 3915.25 850.034 12
-2 0 16 5964.82 955.738 12
-2 0 16 4619.36 950.302 16
2 0 -15 -35.2718 458.837 7
-2 0 15 420.456 578.242 4
-2 0 15 1368.43 569.491 12
2 0 -15 900.028 566.904 11
-2 0 15 1122.02 525.839 16
-2 0 14 2377.44 711.243 4
-2 0 14 1033.94 503.195 12
-2 0 14 2446.17 590.452 10
-2 0 14 1401.3 546.448 16
2 0 -14 1799.56 614.945 11
2 0 -14 1325.51 553.068 7
2 0 -13 1303.34 567.598 7
-2 0 13 -1.83592 414.501 12
2 0 -13 263.812 383.42 11
-2 0 13 -69.179 365.583 10
-2 0 13 728.236 544.056 4
-2 0 13 812.87 521.844 16
-2 0 12 -290.05 258.822 18
2 0 -12 281.055 428.622 7
-2 0 12 -185.458 351.589 12
-2 0 12 -313.864 437.843 4
2 0 -12 371.001 453.131 11
-2 0 12 -52.2393 306.826 10
-2 0 12 -181.535 420.818 16
-2 0 11 821.49 505.281 4
-2 0 11 585.128 429.318 12
2 0 -11 616.658 382.347 11
-2 0 11 9.09263 297.611 10
2 0 -11 -103.074 205.803 9
-2 0 11 43.2025 390.784 16
2 0 -11 262.819 354.444 7
-2 0 11 290.094 231.007 18
2 0 -10 1373.78 466.328 7
2 0 -10 475.639 210.41 9
-2 0 10 663.532 402.071 4
-2 0 10 677.979 392.698 12
2 0 -10 766.012 417.043 11
-2 0 10 714.096 330.682 10
-2 0 10 828.289 178.431 5
-2 0 10 1035.94 298.657 18
-2 0 10 548.729 414.094 16
-2 0 10 819.887 280.051 15
2 0 -10 498.995 203.501 1
2 0 -10 368.963 202.559 8
2 0 -9 100.624 168.624 9
2 0 -9 432.119 366.004 7
-2 0 9 636.04 367.148 12
2 0 -9 17.8842 291.033 11
-2 0 9 -226.398 368.469 16
-2 0 9 644.212 164.82 5
-2 0 9 334.874 225.122 18
2 0 -9 146.861 120.038 1
-2 0 9 647.733 248.645 15
2 0 -9 340.574 193.352 8
-2 0 9 175.052 276.591 10
-2 0 9 84.58 353.413 4
-2 0 8 3329.93 520.418 16
2 0 -8 2505.27 169.461 3
-2 0 8 3724.67 280.485 5
-2 0 8 2916.52 462.15 12
2 0 -8 3411.72 491.176 11
-2 0 8 3728.38 445.45 18
2 0 -8 3367.23 291.534 1
2 0 -8 3878.69 386.97 9
2 0 -8 3030.57 342.249 8
-2 0 8 3766.22 441.229 15
-2 0 8 3552.39 511.435 10
2 0 -8 3073.46 547.002 7
-2 0 8 3354.28 571.229 4
-2 0 7 16167.8 899.147 18
-2 0 7 15437.9 874.47 15
2 0 -7 17348.8 661.541 1
-2 0 7 16771.6 1013.13 12
2 0 -7 15273.5 983.285 11
-2 0 7 16869.2 633.872 5
2 0 -7 15790.4 768.629 8
-2 0 7 16633.1 955.242 10
2 0 -7 15741.2 738.752 9
-2 0 7 15362.3 1027.37 4
-2 0 7 17797.4 1071 16
2 0 -7 16162.2 1052.18 7
2 0 -6 91138.6 3038.65 7
-2 0 6 95553 2861.36 18
-2 0 6 94193.9 2983.94 12
2 0 -6 94542.5 2972.08 11
-2 0 6 94150.1 3061.89 4
-2 0 6 98367.6 2897.76 10
-2 0 6 95836.7 2851.75 15
-2 0 6 94765.5 2418.75 5
2 0 -6 98736.8 2862.34 15
2 0 -6 100152 2878.91 18
-2 0 6 92415.8 3019.43 16
2 0 -6 91128.4 2652.01 8
2 0 -6 95367.6 2577.68 9
2 0 -6 95352.3 2451.96 1
-2 0 5 -0.147 302.818 4
2 0 -5 239.235 211.836 6
-2 0 5 357.458 277.597 12
2 0 -5 417.207 256.902 11
-2 0 5 556.424 270.371 15
-2 0 5 187.057 70.9142 1
2 0 -5 204.301 84.4415 1
-2 0 5 38.2265 289.727 16
-2 0 5 270.099 70.4681 5
2 0 -5 225.696 196.392 18
2 0 -5 19.4075 183.145 15
-2 0 5 260.633 131.769 9
2 0 -5 212.09 129.259 9
-2 0 5 610.377 257.473 18
2 0 -5 259.901 234.508 16
2 0 -5 98.3729 157.183 8
-2 0 5 172.168 228.792 10
2 0 -5 172.479 322.907 7
2 0 -4 3919.36 464.548 7
2 0 -4 3898.11 381.833 11
-2 0 4 4363.43 403.981 15
-2 0 4 4079.29 442.311 12
2 0 -4 4219.78 387.237 15
-2 0 4 4129.26 392.585 18
-2 0 4 3746.42 263.482 9
-2 0 4 4170.85 364.703 8
-2 0 4 3221.32 432.895 16
2 0 -4 4162.31 394.986 18
-2 0 4 3156.83 441.921 7
-2 0 4 3190.2 441.263 4
2 0 -4 3792.01 324.55 8
2 0 -4 4331.31 404.863 6
2 0 -4 5232.5 491.523 4
2 0 -4 3081.66 198.628 3
-2 0 3 8405.82 524.147 18
-2 0 3 7145.14 341.497 3
-2 0 3 7078.78 512.646 4
-2 0 3 7853.18 494.151 6
2 0 -3 7608.22 457.575 8
2 0 -3 8117.49 503.952 18
2 0 -3 7766.46 433.57 11
2 0 -3 8192.88 339.933 3
-2 0 3 8205.69 372.588 9
-2 0 3 8032.18 455.635 8
2 0 -3 7772.5 485.651 6
2 0 -3 8164.96 557.787 4
-2 0 3 7915.88 530.837 16
-2 0 3 7636.04 544.135 7
2 0 -3 7242.27 486.823 15
-2 0 3 7517.08 498.726 15
2 0 -3 8194.72 554.507 7
-2 0 2 52247.5 1689.15 4
-2 0 2 55046.2 1574.44 6
-2 0 2 58548.6 1714.8 7
2 0 -2 55017.9 1525.12 3
2 0 -2 56851 1699.02 15
-2 0 2 54090.4 1677.63 15
-2 0 2 57322.7 1649.65 8
-2 0 2 56215.5 1524.37 3
-2 0 2 57214.7 1458.97 5
2 0 -2 55122.3 1627.2 8
-2 0 2 55079.3 1685.65 18
2 0 -2 51693.6 1688.04 7
2 0 -2 57766.7 1707.23 18
2 0 -2 57796.8 1584.58 6
2 0 -1 651.955 186.694 15
-2 0 1 590.732 168.753 3
-2 0 1 782.713 221.662 8
2 0 -1 475.48 184.831 18
-2 0 1 605.683 119.357 6
2 0 -1 1166.28 193.595 3
-2 0 1 585.801 202.621 7
2 0 -1 336.124 197.51 7
-2 0 1 669.442 151.975 5
-2 0 1 960.619 230.537 18
2 0 -1 653.742 157.21 5
2 0 -1 579.735 106.524 6
2 0 -1 570.994 118.548 2
2 0 -1 737.555 209.901 8
2 0 0 6091.75 405.127 8
-2 0 0 6072.83 402.84 13
-2 0 0 6893.61 388.912 5
-2 0 0 5811.99 364.176 18
2 0 0 5806.34 398.3 13
-2 0 0 6412.93 391.602 1
2 0 0 5662.11 367.239 5
-2 0 0 6315.47 385.115 3
2 0 0 6089.44 282.108 14
-2 0 0 6052 388.823 8
-2 0 0 5638.5 381.666 7
-2 0 0 6221.27 292.598 14
2 0 0 6334.16 396.093 3
2 0 0 6734.26 372.239 18
-2 0 -1 66893.2 1948.16 10
-2 0 -1 67764.4 1828.2 14
-2 0 -1 66989.3 1951.28 13
2 0 1 67350.6 1955.28 13
2 0 1 63377.4 1927.69 8
-2 0 -1 67637.4 1959.8 3
2 0 1 72509.3 1978.31 3
-2 0 -1 67899.9 1963.16 1
2 0 1 65782.1 1815.96 11
-2 0 -1 68601.8 1969.1 5
-2 0 -1 67073.7 1817.18 18
-2 0 -1 69819.7 1953.91 8
-2 0 -1 65319.3 1801.74 11
2 0 1 65277.2 1943.92 5
2 0 1 69581.6 1825.8 18
-2 0 -2 66413.3 1858.42 14
2 0 2 61197.7 1692.12 15
-2 0 -2 60326.2 1863.19 12
2 0 2 66953.1 1962.39 13
2 0 2 65045.3 1701.07 18
2 0 2 60899.7 1903.85 10
-2 0 -2 62387.4 1958.53 13
2 0 2 67093.8 1941.46 3
-2 0 -2 57666 1926.15 1
2 0 2 62678.3 1918.61 5
2 0 2 64345.5 1850.68 11
-2 0 -2 61332.9 1934.07 5
-2 0 -2 62031.9 1833.03 11
-2 0 -2 64416.6 1931.44 10
-2 0 -2 64295.2 1869.84 8
-2 0 -2 63952.7 1936.62 4
-2 0 -2 63241.1 1902.74 16
2 0 2 60798.5 1858.04 8
-2 0 -2 61686.8 1907.56 3
-2 0 -3 22302.8 983.542 10
2 0 3 22590 1040.23 13
-2 0 -3 20801.6 888.714 6
-2 0 -3 22827.3 960.062 3
-2 0 -3 21121.4 994.91 1
-2 0 -3 21881.6 915.638 12
2 0 3 24876.7 981.678 3
2 0 3 20469.9 906.853 8
-2 0 -3 21957.6 971.977 16
-2 0 -3 19861.2 914.856 11
-2 0 -3 24244.8 999.043 5
2 0 3 22809.7 1001.42 5
2 0 3 22380.5 987.164 10
2 0 3 23917.7 971.897 11
-2 0 -3 21917.9 1022.41 4
-2 0 -3 24703.8 928.482 8
-2 0 -3 23271.7 1029.34 13
2 0 3 20039.5 944.64 12
2 0 3 20894.8 728.228 18
-2 0 -3 21614.3 721.029 15
2 0 3 21840.3 731.19 15
-2 0 -4 8366.71 615.078 10
2 0 4 7121.7 593.184 16
2 0 4 7769.03 677.184 13
-2 0 -4 9054.65 660.618 13
-2 0 -4 6705.33 623.855 4
2 0 4 7979.34 606.895 10
-2 0 -4 8389.47 604.806 1
2 0 4 8289.98 579.861 12
-2 0 -4 7995.96 541.021 12
2 0 4 6965.76 630.784 4
-2 0 -4 7011.18 587.342 11
-2 0 -4 7851.75 571.007 5
2 0 4 7950.09 607.902 5
2 0 4 9092.66 617.483 11
2 0 4 7183.6 370.2 15
2 0 4 7250.76 373.307 18
-2 0 -4 7916.9 515.679 8
-2 0 -4 7284.83 530.574 3
2 0 4 7872.45 372.693 17
-2 0 -4 7715.46 367.646 15
-2 0 -4 8712.32 597.303 16
-2 0 -4 8271.68 546.177 6
2 0 5 170.68 94.9378 15
-2 0 -5 344.569 112.621 15
2 0 5 225.632 310.037 4
2 0 5 289.432 108.722 18
2 0 5 387.98 357.199 13
2 0 5 805.287 295.469 12
-2 0 -5 614.294 265.165 12
-2 0 -5 757.746 314.431 11
-2 0 -5 242.169 173.957 8
2 0 5 226.666 96.8401 17
-2 0 -5 -12.2122 223.107 3
2 0 5 93.4842 252.186 10
-2 0 -5 929.574 311.356 1
2 0 5 177.289 241.27 5
2 0 5 189.883 301.221 16
2 0 6 2998.18 508.065 4
2 0 6 2986.34 433.354 12
-2 0 -6 3168.37 387.723 3
2 0 6 2789.9 437.936 10
2 0 6 3157.48 246.265 15
2 0 6 2817.94 238.349 18
2 0 6 3463.65 504.57 16
2 0 6 3035.06 233.63 17
2 0 6 3269.09 523.014 13
-2 0 -6 2713.29 476.475 11
-2 0 -6 3634.88 459.801 1
2 0 6 2779.98 424.041 5
-2 0 -6 3006.7 247.795 15
-2 0 -6 3556.5 391.141 8
-2 0 -7 9453.67 728.396 1
2 0 7 9756.97 884.46 4
2 0 7 10295.5 961.242 13
2 0 7 10698 827.754 10
2 0 7 10750.3 798.383 5
-2 0 -7 10455.2 861.361 11
-2 0 -7 11146.5 763.701 3
2 0 7 10080.1 484.056 18
2 0 7 10484.7 882.239 16
2 0 7 11785.1 829.858 12
2 0 7 10291.9 486.085 15
-2 0 -7 9909.54 483.929 15
-2 0 -7 10656.7 668.855 8
-2 0 -8 27443.4 1598.79 11
-2 0 -8 31334.2 1315 8
2 0 8 31416.3 1547.1 12
-2 0 -8 31394.8 1049.85 15
2 0 8 31725.5 1052.38 18
2 0 8 33078.8 1553.96 5
-2 0 -8 28087.1 1457.81 1
2 0 8 30981.9 1562.76 10
2 0 8 26881 1664.24 4
2 0 8 31943.5 1047.67 15
-2 0 -8 31493.2 1445.6 3
2 0 8 30114 1607.1 16
2 0 9 4497.63 698.98 16
2 0 9 3663.1 666.431 4
-2 0 -9 3504.3 494.265 1
-2 0 -9 3963.41 614.594 7
2 0 9 4680.77 335.602 18
-2 0 -9 5238.19 583.422 3
2 0 9 4709.82 668.805 12
-2 0 -9 4651.58 682.005 11
2 0 9 4313.06 629.659 10
2 0 9 4373.28 588.144 5
2 0 9 5084.53 341.689 15
-2 0 -10 110.167 370.18 7
2 0 10 198.197 370.544 16
2 0 10 -323.162 378.066 12
-2 0 -10 130.23 415.402 11
-2 0 -10 336.704 282.019 3
2 0 10 543.457 358.662 10
-2 0 -10 -347.397 347.834 1
2 0 10 -324.568 382.694 4
2 0 10 -286.152 270.29 5
-2 0 -11 16016.4 1173.11 1
2 0 11 18825.4 1273.54 5
2 0 11 17706.8 1315.43 10
-2 0 -11 17773.3 1125.45 3
2 0 11 17855.2 1302.96 12
-2 0 -11 16129 1410.8 11
-2 0 -11 15018.2 1286.47 7
2 0 11 16381.5 1391.7 4
-2 0 -11 17874.6 1259.84 9
2 0 11 18019.3 1402.48 16
2 0 12 597.812 501.971 4
-2 0 -12 418.528 450.892 7
2 0 12 852.806 505.887 16
2 0 12 579.231 377.312 12
-2 0 -12 1266.37 535.569 11
2 0 12 588.646 399.019 10
-2 0 -12 291.777 333.97 1
2 0 12 1107.53 420.307 5
-2 0 -12 721.154 416.393 9
2 0 13 120.208 458.47 4
-2 0 -13 544.59 532.989 11
-2 0 -13 903.525 543.684 7
2 0 13 -449.073 436.246 12
2 0 13 426.332 423.112 16
-2 0 -13 -192.327 314.96 9
2 0 13 595.367 383.65 10
2 0 13 267.815 428.36 5
-2 0 -14 3205.94 753.617 7
2 0 14 3968.57 858.235 4
2 0 14 4697.62 819.75 10
2 0 14 4241.91 787.374 12
2 0 14 4762.11 898.687 16
-2 0 -14 3465.28 763.319 11
2 0 15 1010.77 582.513 16
-2 1 16 1045.96 581.288 10
2 1 -15 265.774 434.578 7
2 1 -15 667.911 485.72 11
-2 1 15 1425.41 612.962 10
-2 1 15 -447.186 475.439 16
2 1 -14 384.724 440.77 7
-2 1 14 7.29029 377.61 12
2 1 -14 -463.907 509.227 2
-2 1 14 435.115 560.148 16
-2 1 14 428.539 422.499 10
2 1 -14 291.048 451.385 11
-2 1 14 308.868 521.947 4
2 1 -13 2229.07 637.489 7
2 1 -13 1304.73 525.188 11
-2 1 13 1389.54 504.29 12
-2 1 13 1189.11 574.775 4
-2 1 13 2666.7 685.411 10
-2 1 13 2391.63 669.306 16
2 1 -13 1864.33 641.715 2
-2 1 13 2066.95 486.126 15
-2 1 13 2285.48 521.879 18
2 1 -12 4482.79 755.842 7
-2 1 12 6344.32 736.236 18
-2 1 12 4780.17 706.643 12
2 1 -12 3981.55 785.381 2
2 1 -12 6335 693.697 9
2 1 -12 5170.06 805.552 11
-2 1 12 4218.83 712.019 10
-2 1 12 5097.99 648.116 15
-2 1 12 4263.94 828.327 4
-2 1 12 4649.43 796.153 16
-2 1 11 1177.49 509.146 4
-2 1 11 1703.13 439.477 18
-2 1 11 1978.72 456.642 15
2 1 -11 474.583 385.619 7
2 1 -11 1441.86 515.521 11
-2 1 11 1401.09 505.954 10
-2 1 11 1437.38 315.17 5
-2 1 11 1663.53 486.557 12
2 1 -11 1507.3 394.789 9
-2 1 11 969.063 489.088 16
-2 1 10 193.424 419.257 4
-2 1 10 120.545 327.267 15
2 1 -10 274.016 343.278 11
-2 1 10 274.415 303.114 12
2 1 -10 404.197 292.729 9
-2 1 10 429.633 340.895 18
-2 1 10 -587.879 386.81 10
-2 1 10 358.91 218.27 5
2 1 -10 160.455 330.99 7
-2 1 10 188.974 414.456 16
-2 1 9 8832.88 661.421 1
2 1 -9 9664.45 511.451 1
-2 1 9 9784.5 959.111 16
-2 1 9 9022.24 808.261 12
2 1 -9 7454.93 816.216 11
-2 1 9 8594.04 769.351 18
-2 1 9 9721.81 664.432 5
-2 1 9 8437.51 909.57 4
-2 1 9 8538.17 859.868 10
2 1 -9 7241.39 593.511 3
2 1 -9 8317.23 716.7 9
-2 1 9 9405.6 804.086 15
2 1 -9 8395.46 848.885 7
-2 1 8 5025.2 555.714 15
2 1 -8 5058.91 634.731 7
2 1 -8 3259.96 400.82 3
2 1 -8 5192.37 352.749 1
-2 1 8 4709.07 662.495 16
-2 1 8 4518.72 476.777 1
2 1 -8 5781.76 582.308 9
-2 1 8 5154.63 562.281 12
-2 1 8 4929.26 648.353 10
2 1 -8 5312.5 332.743 5
2 1 -8 5201.42 725.941 2
-2 1 8 5318.99 584.695 18
-2 1 8 5613.77 740.337 4
-2 1 8 5012.73 488.804 5
2 1 -7 5833.23 628.431 7
-2 1 7 5720.73 656.519 10
-2 1 7 5861.49 500.033 1
2 1 -7 4681.93 412.829 3
-2 1 7 6448.47 584.572 12
-2 1 7 5883.68 491.535 5
2 1 -7 6028.02 335.524 5
2 1 -7 6212.65 704.413 2
2 1 -7 5925.51 553.189 9
2 1 -7 6438.73 530.292 18
2 1 -7 5513.68 347.501 1
-2 1 7 5376.65 673.884 16
-2 1 7 5602.85 579.302 18
2 1 -7 5823.45 497.939 15
-2 1 7 6325.42 611.858 15
-2 1 7 5757.1 682.256 4
2 1 -6 6371.5 595.065 7
2 1 -6 6495.94 302.69 8
2 1 -6 6932.49 684.841 2
2 1 -6 7960.76 566.277 18
-2 1 6 6844.55 700.765 16
2 1 -6 7101.33 501.227 3
-2 1 6 5671.68 616.932 10
-2 1 6 6624.85 604.856 15
-2 1 6 6991.37 594.719 12
-2 1 6 6584.25 607.336 18
2 1 -6 6114.42 569.901 9
-2 1 6 7138.6 542.988 1
-2 1 6 7531.03 527.336 5
-2 1 6 7265.23 694.668 4
2 1 -6 6543.23 341.5 5
2 1 -6 7135.75 537.812 15
-2 1 5 69937.7 2177.41 11
-2 1 5 63655.2 2295.89 16
-2 1 5 65697.7 2211.88 18
-2 1 5 67993.3 2055.82 5
-2 1 5 68702.8 2071.85 1
-2 1 5 64308.4 2257.04 4
-2 1 5 62947.1 2242.28 10
2 1 -5 66120.5 2106.56 9
2 1 -5 65892.1 2052.48 3
2 1 -5 68527 2095.85 18
2 1 -5 65129.2 2192.56 7
2 1 -5 62317.8 1722.82 5
-2 1 5 64323.9 2188.47 15
2 1 -5 55444 1708.34 1
2 1 -5 66738.1 1722.03 8
2 1 -5 64203.7 2296.45 2
2 1 -5 70099.9 2212.17 4
2 1 -4 14248.3 791.759 12
-2 1 4 11891.1 804.667 7
2 1 -4 11296.4 691.404 3
-2 1 4 12818.2 803.985 16
2 1 -4 13494 533.379 8
2 1 -4 13807.2 723.454 14
-2 1 4 13361 708.356 11
-2 1 4 12165.3 763.516 4
-2 1 4 12136.1 794.133 10
2 1 -4 12724.7 808.637 2
2 1 -4 13218.3 718.368 18
-2 1 4 13022.6 783.356 18
2 1 -4 13787.1 759.548 4
-2 1 4 12167.9 719.792 1
2 1 -4 13440.4 794.69 6
2 1 -4 11282.6 491.968 1
-2 1 4 11839.1 744.008 15
2 1 -4 13574.3 767.294 7
-2 1 3 18232.1 896.771 7
2 1 -3 19563.1 792.558 14
2 1 -3 17977.5 866.128 3
2 1 -3 19902 922.349 6
2 1 -3 18165.1 676.589 1
-2 1 3 17101.4 885.326 15
2 1 -3 17794.1 683.863 5
-2 1 3 18738 796.318 11
-2 1 3 16905.4 884.31 1
2 1 -3 18785.5 716.671 8
2 1 -3 20114.6 906.55 12
2 1 -3 19487.8 871.755 18
-2 1 3 18648.3 926.246 18
-2 1 3 18388.7 923.347 16
-2 1 3 19701.1 899.392 4
2 1 -3 17763.7 876.727 7
2 1 -3 19163.3 932.898 2
2 1 -2 69091.3 2081 18
2 1 -2 67677.6 1857.54 14
-2 1 2 63973 2048.89 16
2 1 -2 72179.7 2084.1 6
-2 1 2 71188.9 2007.15 7
2 1 -2 65772.8 2035.17 7
-2 1 2 66110.1 2076.16 18
2 1 -2 68982.1 2077.42 3
2 1 -2 70771 2036.19 12
2 1 -2 69916.5 2071.7 2
2 1 -2 64783 1883.01 5
-2 1 2 69101.5 1798.17 9
2 1 -2 65855.8 2047.44 15
-2 1 2 63482.2 2000.97 4
-2 1 2 66278.8 2070.02 15
2 1 -2 65833.2 1883.97 1
2 1 -1 43959.9 1388.87 6
2 1 -1 43863.9 1438.03 3
2 1 -1 40709.3 1139.87 14
2 1 -1 39620.1 1302.75 5
-2 1 1 39340 1362.41 15
-2 1 1 39736.6 1282.89 4
-2 1 1 41771.1 1242.53 7
2 1 -1 42474.4 1372.44 2
-2 1 1 41856.2 1260.65 9
-2 1 1 38459.2 1361.73 18
-2 1 1 38642.2 1250.81 2
2 1 -1 40563.1 1391.43 15
-2 1 1 40918 1446.97 8
2 1 -1 37437.8 1323.4 1
2 1 0 27198 1158.51 1
-2 1 0 32931.5 1190.73 8
2 1 0 33056.7 1208.8 3
2 1 0 31324.4 1132.6 5
-2 1 0 28132.4 998.268 2
2 1 0 29752.7 1019.14 13
2 1 0 29949.3 1155.1 15
2 1 0 30701.4 1091.61 10
-2 1 0 32287 1113.59 9
-2 1 0 30309.7 1078.03 18
-2 1 0 32329.9 1083.75 15
2 1 0 33934.9 1127.16 2
-2 1 0 32011 906.179 7
2 1 1 77119.5 2170.42 1
-2 1 -1 73862.9 2136.58 14
-2 1 -1 67346.5 1923.94 6
-2 1 -1 72381.7 1755.48 7
2 1 1 69085.5 1992.89 13
-2 1 -1 70124.1 2028.03 13
2 1 1 75226.9 2195.39 3
-2 1 -1 61915 2188.83 12
2 1 1 68218.3 2125.56 5
2 1 1 67872.1 2093.28 10
2 1 1 68541.6 2096.66 15
-2 1 -1 72493.5 2187.49 5
-2 1 -1 71368.8 2116.44 9
-2 1 -1 66118.5 1923.81 2
-2 1 -1 69309.8 1923.92 18
2 1 1 70410.9 2112.07 18
-2 1 -1 75892.7 2082.52 8
-2 1 -1 70323.7 1921.53 15
-2 1 -2 130737 3360.26 4
2 1 2 124725 3583.01 1
-2 1 -2 128099 3354.57 6
2 1 2 128418 3517.6 11
2 1 2 122598 3421.26 13
-2 1 -2 132769 3559.87 14
-2 1 -2 135598 3472.9 13
-2 1 -2 128389 3378.21 8
-2 1 -2 122748 3161.93 18
-2 1 -2 136505 3576.13 12
2 1 2 122219 3536.08 5
-2 1 -2 133431 3589.51 5
2 1 2 121405 3528.11 10
-2 1 -2 121374 3162.69 15
2 1 2 125733 3455.07 18
2 1 2 123322 3447.17 15
2 1 2 139389 3563.71 3
-2 1 -2 118144 3350.71 2
-2 1 -3 15773.7 522.512 18
-2 1 -3 17922.4 900.821 14
-2 1 -3 16147.3 771.049 6
2 1 3 16160.9 949.141 1
-2 1 -3 18128.8 805.449 4
2 1 3 16176.5 849.625 13
-2 1 -3 17258.8 734.067 8
-2 1 -3 17947.8 894.538 5
-2 1 -3 18200.6 910.708 12
2 1 3 15940.2 820.019 18
2 1 3 15267.4 900.19 5
2 1 3 16675.2 883.373 11
2 1 3 16311.7 844.411 3
2 1 3 15353.8 892.96 10
-2 1 -3 15380.7 742.736 10
-2 1 -3 19239.3 891.556 13
2 1 3 16391.7 926.504 16
-2 1 -3 15896.4 523.195 15
2 1 3 14714.4 789.13 15
-2 1 -3 16637 718.253 16
-2 1 -3 15568.9 797.887 2
2 1 4 26708.7 1357.28 10
2 1 4 27538 1311.6 13
2 1 4 27206.6 1176.04 15
-2 1 -4 30823.8 1147.31 16
2 1 4 32839.9 1281.43 3
2 1 4 28082.4 1327.67 5
-2 1 -4 31708.5 1330.86 5
-2 1 -4 32274.4 1261.98 4
-2 1 -4 31123.5 1183.02 10
2 1 4 25973.9 1311.87 4
2 1 4 26663.8 1182.47 18
-2 1 -4 30126.4 1253.79 2
-2 1 -4 28181.4 1296.63 9
-2 1 -4 31396.1 1246.5 6
-2 1 -4 31052.2 1078.15 8
2 1 4 26555.7 1323.79 16
2 1 5 2557.21 380.201 3
2 1 5 1503.71 419.225 4
-2 1 -5 2420.15 307.255 2
-2 1 -5 2371.76 334.298 7
-2 1 -5 2941.6 284.827 8
2 1 5 2589.17 340.28 17
-2 1 -5 3172.91 368.918 10
2 1 5 2453.55 290.54 12
-2 1 -5 2946.32 361.752 16
-2 1 -5 2277.01 384.977 9
2 1 5 2887.52 453.408 5
2 1 5 3521.36 546.623 10
2 1 5 2518.64 482.243 13
2 1 5 2632.89 368.485 15
2 1 5 2308.96 349.356 18
2 1 5 2321.73 463.778 16
2 1 6 10227.2 701.149 3
2 1 6 8650.74 837.842 13
2 1 6 8937.68 655.216 18
-2 1 -6 9091.73 805.539 11
2 1 6 9403.83 652.07 15
2 1 6 9194.6 748.405 5
-2 1 -6 10165.5 683.437 10
2 1 6 9330.03 817.756 10
-2 1 -6 10034.5 671.796 16
-2 1 -6 10325.8 821.351 9
2 1 6 10270.8 861.662 16
2 1 6 10596.5 625.823 12
2 1 6 9041.1 829.452 4
2 1 6 9403.87 639.743 17
-2 1 -6 10304.5 553.625 8
-2 1 -6 9439.73 657.38 7
-2 1 -7 38663 1634.07 7
-2 1 -7 39125 1319.11 8
2 1 7 36432.2 1842.84 16
2 1 7 33322.6 1875.67 4
2 1 7 40882.3 1508.07 12
-2 1 -7 37189.8 1683.04 3
-2 1 -7 38620.7 1718.87 1
-2 1 -7 34423.8 1755.58 11
2 1 7 38952.5 1522.78 18
2 1 7 36752.7 1818.96 10
-2 1 -7 37891.4 1761.3 9
2 1 7 38721.7 1499.43 17
2 1 7 39691 1521.39 15
2 1 7 36281 1709.1 5
-2 1 -8 47508.9 2030.85 1
-2 1 -8 45482.5 1971.56 3
-2 1 -8 48746.3 2004.17 7
-2 1 -8 44186.4 2131.28 11
2 1 8 46003.3 2037.88 5
-2 1 -8 45747.9 2073.65 9
-2 1 -8 46400.1 1535.62 8
2 1 8 49050.7 1797.62 18
2 1 8 47953.4 1759.75 17
2 1 8 52676.4 1870.35 12
2 1 8 45921.2 2175.59 4
2 1 8 45544.1 2143.7 10
2 1 8 42435.9 2162.52 16
2 1 8 48755.8 1784.1 15
2 1 9 26805.1 1689.05 16
-2 1 -9 28792 1547.67 1
-2 1 -9 27794.4 1493.67 3
-2 1 -9 26736.5 1666.66 11
2 1 9 27471.1 1541.19 5
2 1 9 29192.7 1307.69 18
2 1 9 30677.7 1413.95 12
2 1 9 26979.3 1676.63 4
2 1 9 25935.8 1631.66 10
-2 1 -9 25207.3 1529.99 9
-2 1 -9 26876.1 1533.1 7
2 1 9 29827.2 1296.05 17
2 1 9 28443.3 1288.75 15
2 1 10 9825.08 1326.31 4
-2 1 -10 16808.7 1213.06 7
-2 1 -10 14747.8 1277.56 11
-2 1 -10 13910.8 1073.72 3
2 1 10 15704.3 1199.4 5
2 1 10 15780.8 1266.43 10
2 1 10 15424 1342.22 16
2 1 10 16677 954.386 18
-2 1 -10 14299.3 1155.26 9
2 1 10 16204.8 949.277 15
-2 1 -10 16639.3 1164.21 1
2 1 10 17429.7 1101.2 12
-2 1 -11 1250.61 492.754 9
2 1 11 2030.23 446.608 12
-2 1 -11 1458.33 558.876 11
-2 1 -11 2510.85 504.667 1
-2 1 -11 3057.5 609.37 7
2 1 11 2202.62 648.995 4
2 1 11 2056.08 500.809 5
-2 1 -11 1664.85 437.957 3
2 1 11 2633.65 623.937 10
2 1 11 1971.94 591.914 16
-2 1 -12 1727.44 514.186 1
2 1 12 998.901 374.783 12
2 1 12 1462.61 569.633 10
-2 1 -12 1285.82 570.219 11
-2 1 -12 -342.052 335.076 9
2 1 12 338.806 352.228 5
2 1 12 1486.73 602.892 4
-2 1 -12 532.411 397.151 7
2 1 12 701.977 506.015 16
-2 1 -13 372.498 470.87 7
2 1 13 1189.42 510.853 10
-2 1 -13 607.176 564.2 2
2 1 13 1395.8 621.408 4
2 1 13 610.13 343.544 5
-2 1 -13 1122.74 544.568 11
-2 1 -13 894.997 446.349 9
2 1 13 -59.7501 508.383 16
-2 1 -14 861.32 479.835 7
-2 1 -14 1116.74 663.76 2
2 1 14 2000.54 745.376 16
2 1 15 1389.53 649.555 10
2 2 -15 3107.44 788.43 7
-2 2 15 1492.54 630.395 10
-2 2 14 1155.13 688.772 4
2 2 -14 657.248 460.562 7
2 2 -14 775.561 522.67 11
-2 2 14 87.8186 505.15 10
2 2 -14 217.539 518.939 2
-2 2 14 1143.08 691.919 16
-2 2 13 5052.37 762.294 15
-2 2 13 5437.83 773.146 18
2 2 -13 4384.87 843.737 11
-2 2 13 5146 901.302 10
2 2 -13 2774.47 763.67 2
2 2 -13 5145.67 806.587 7
2 2 -13 3406.97 621.418 9
-2 2 13 5074.68 911.784 4
-2 2 13 4640.18 885.164 16
2 2 -12 1193.48 487.615 7
-2 2 12 1403.61 646.106 4
-2 2 12 1995.89 482.32 12
2 2 -12 1393.86 576.064 11
-2 2 12 1010.54 463.04 18
-2 2 12 1591.05 549.766 10
2 2 -12 775.484 537.368 2
2 2 -12 428.472 309.202 9
-2 2 12 2159.56 676.461 16
-2 2 12 1724.33 525.674 15
-2 2 11 3527.11 615.778 15
-2 2 11 1528.65 372.675 5
-2 2 11 1942.97 620.259 10
2 2 -11 2828.56 683.037 2
-2 2 11 3026.25 595.956 18
-2 2 11 2946.65 492.996 12
-2 2 11 2112.54 613.995 16
2 2 -11 1075.46 447.469 7
2 2 -11 2205.37 467.427 9
-2 2 11 2346.02 710.001 4
-2 2 10 8628.12 1006.66 4
-2 2 10 10767.4 862.481 12
-2 2 10 10358.8 983.224 18
-2 2 10 8916.61 832.112 5
-2 2 10 10435.9 1089.72 10
2 2 -10 10568.8 752.557 15
2 2 -10 9722.4 934.073 7
2 2 -10 9020.48 867.984 9
-2 2 10 8762.79 898.689 15
-2 2 10 8506.17 1023.86 16
2 2 -10 8836.9 1065.86 2
-2 2 9 549.35 470.092 10
-2 2 9 295.066 428.28 4
2 2 -9 438.953 206.702 15
2 2 -9 603.059 386.558 7
-2 2 9 266.257 278.725 18
-2 2 9 422.739 252.096 12
-2 2 9 -13.8855 250.199 5
2 2 -9 109.503 382.01 2
-2 2 9 600.984 373.506 15
-2 2 9 544.153 479.459 16
2 2 -9 596.912 384.672 9
-2 2 8 -330.302 315.259 5
2 2 -8 303.415 256.604 15
-2 2 8 408.643 377.395 16
-2 2 8 359.1 336.124 18
-2 2 8 63.1878 230.436 12
2 2 -8 -460.099 228.211 1
-2 2 8 140.91 92.7917 3
-2 2 8 -67.2374 355.232 10
2 2 -8 373.401 373.74 2
2 2 -8 -234.153 161.776 5
2 2 -8 -82.2792 279.832 7
-2 2 8 66.6906 295.334 15
2 2 -8 -905.146 481.143 9
-2 2 8 -379.669 391.836 4
2 2 -7 13165.5 819.206 15
-2 2 7 12148.8 983.807 18
-2 2 7 12321.4 789.675 12
-2 2 7 13913.2 649.284 3
2 2 -7 12990.7 1045.82 2
-2 2 7 12916.7 919.531 5
2 2 -7 13183.6 732.138 5
-2 2 7 11324.9 1027.08 10
2 2 -7 11144.4 691.181 1
2 2 -7 10518.7 863.121 9
-2 2 7 12253.2 963.287 4
-2 2 7 11819.8 999.954 16
-2 2 7 12302.3 977.345 15
2 2 -7 11893.1 891.038 7
-2 2 6 1874.6 433.246 15
2 2 -6 2405.57 368.317 15
-2 2 6 2169.08 437.979 17
-2 2 6 2804.99 468.594 5
-2 2 6 1906.09 430.668 18
2 2 -6 2338.59 460.824 2
2 2 -6 2490.14 337.743 1
-2 2 6 2589.74 535.775 10
-2 2 6 2410.04 297.535 3
-2 2 6 2414.26 531.349 16
2 2 -6 2023.31 376.701 7
-2 2 6 2018.57 402.55 4
2 2 -5 2736.57 408.625 7
-2 2 5 3454.55 511.608 15
2 2 -5 3542.93 429.332 1
-2 2 5 3958.15 387.644 3
2 2 -5 3842.53 456.631 15
-2 2 5 2887.95 490.473 18
2 2 -5 3304.68 513.136 2
-2 2 5 3590.66 565.124 16
-2 2 5 3476.7 549.978 10
-2 2 5 3136.49 473.919 17
-2 2 5 3233.11 476.699 4
-2 2 4 5740.83 614.791 17
2 2 -4 6354.21 557.515 7
-2 2 4 6625.06 582.052 4
2 2 -4 5871.33 653.694 2
-2 2 4 5983.78 683.386 10
-2 2 4 6961.7 673.593 15
2 2 -4 6420.21 572.595 15
2 2 -4 6988.25 595.802 14
-2 2 4 6692.5 665.938 18
2 2 -4 7709.57 570.297 1
-2 2 4 6972.12 654.047 16
2 2 -3 7121.68 608.528 15
-2 2 3 7222.58 641.857 10
2 2 -3 7584.98 556.9 14
2 2 -3 6822.02 684.261 2
-2 2 3 7878.94 574.752 4
-2 2 3 6861.94 644.557 18
-2 2 3 7307.1 662.995 17
2 2 -3 7359.19 584.736 7
-2 2 3 6475.76 613.403 15
2 2 -3 9777.02 689.24 1
-2 2 3 7530.24 641.351 16
-2 2 2 1760.79 304.05 9
-2 2 2 1530.75 359.108 18
2 2 -2 999.246 321.371 1
2 2 -2 1994.3 395.258 2
2 2 -2 2123.02 340.502 12
2 2 -2 1974.58 302.896 14
2 2 -2 1990.58 239.666 10
-2 2 2 1634.94 341.321 16
-2 2 2 1980.45 409.742 15
-2 2 2 1900.01 385.965 2
2 2 -2 1865.89 354.995 15
-2 2 2 1947 393.051 17
-2 2 2 2061.19 296.356 4
2 2 -1 9185.74 554.275 12
-2 2 1 7497.96 608.318 2
2 2 -1 8847.63 426.057 13
2 2 -1 8168.23 668.058 5
2 2 -1 9889.14 700.482 1
2 2 -1 8796.95 525.689 10
-2 2 1 9096.85 667.61 17
-2 2 1 8677.23 602.208 9
-2 2 1 8092.62 640.92 18
-2 2 1 9167.53 481.057 4
-2 2 1 8500.42 539.803 16
2 2 -1 8273.27 681.738 18
2 2 -1 9391.99 695.047 15
-2 2 1 9061.03 676.704 15
2 2 -1 9250.12 714.673 2
2 2 0 28748.1 990.363 12
-2 2 0 28421.6 1230.76 9
2 2 0 28905.6 1312.11 2
-2 2 0 28749.6 1016.53 16
-2 2 0 31947.5 1268.23 12
2 2 0 26456.6 1285.59 5
2 2 0 27600.3 1139.92 10
2 2 0 28001.7 1304.11 15
-2 2 0 27091.7 1197.36 18
-2 2 0 27003.3 1194.57 15
2 2 0 26592.3 1292.72 18
-2 2 0 27572.5 1194.86 17
-2 2 0 28936.4 1206.97 2
2 2 0 28493.1 921.893 13
-2 2 0 29219.8 937.61 4
-2 2 -1 27005.1 875.46 16
-2 2 -1 18854.7 1134.08 6
2 2 1 26556.8 917.485 13
2 2 1 25702.5 1246.61 5
-2 2 -1 18874.4 1124.19 2
2 2 1 25620.8 1148.34 10
-2 2 -1 24652.8 1188.34 9
2 2 1 26055.1 1239.23 15
2 2 1 25192.4 1240.93 18
2 2 1 26562.2 1230.02 2
-2 2 -1 24712.2 1061.93 17
-2 2 -1 25228.7 1086.19 18
-2 2 -1 27515 985.194 13
-2 2 -1 25746.5 1089.29 15
-2 2 -2 37782.2 1444.15 6
-2 2 -2 35707.4 1274.28 13
-2 2 -2 37375 1123.49 4
-2 2 -2 33181.7 1266.85 18
2 2 2 31335.9 1493.24 5
2 2 2 33070.8 1488.99 15
-2 2 -2 36224.1 1549.17 9
2 2 2 33436.9 1505.84 18
2 2 2 28977.4 1480.02 2
2 2 2 33531.4 1459.55 10
2 2 2 34376.5 1222.8 13
-2 2 -2 33237.1 1253.11 17
2 2 2 32732.6 1423.66 16
-2 2 -2 34455 1401.79 2
-2 2 -2 33042.5 1260.6 15
-2 2 -3 58074.2 1787.56 17
2 2 3 58089 2157.2 2
2 2 3 60100.3 1954.13 13
2 2 3 55764 2138.16 15
2 2 3 55405.9 2197.84 5
2 2 3 56960.7 2162.13 18
-2 2 -3 56228.1 1972.16 13
2 2 3 56653.7 2159.46 10
-2 2 -3 55722.9 2186.24 9
-2 2 -3 58785.7 2088.28 2
2 2 3 56295.2 2147.63 16
-2 2 -3 60104.6 1619.05 16
-2 2 -3 57496.3 1807.06 18
-2 2 -3 57101.8 1804.77 15
-2 2 -3 65438 1811.19 4
2 2 4 11720.6 859.123 13
-2 2 -4 14544.1 647.468 15
2 2 4 12519.4 888.902 18
-2 2 -4 13759.5 639.525 18
-2 2 -4 15265.7 583.454 7
2 2 4 14035.5 1010.13 5
2 2 4 13552.7 993.832 10
2 2 4 14378.4 936.976 4
-2 2 -4 14337.1 598.738 16
-2 2 -4 15190 1030.75 9
2 2 4 12884.6 900.309 15
-2 2 -4 15168.8 731.623 10
2 2 4 13145.9 958.539 16
2 2 4 14066.6 937.481 17
-2 2 -4 14369.2 759.24 4
-2 2 -4 14458.7 631.656 17
-2 2 -4 11425.9 880.959 2
-2 2 -5 7243.97 456.459 7
2 2 5 5954.42 662.227 4
-2 2 -5 6312.96 360.909 18
2 2 5 5595.15 631.706 13
-2 2 -5 6208.06 531.66 4
-2 2 -5 6614.66 701.517 9
-2 2 -5 6707.68 493.706 10
2 2 5 5481.14 699.23 5
2 2 5 5522.55 667.19 10
-2 2 -5 5832.3 347.316 15
2 2 5 6076.74 642.716 18
-2 2 -5 6319.93 357.505 17
2 2 5 5363.27 619.41 17
-2 2 -5 7124.01 438.542 16
-2 2 -5 6865.81 715.329 2
2 2 5 6038.76 721.984 16
2 2 5 6368.04 636.192 15
-2 2 -6 8410.51 338.953 18
2 2 6 9072.85 865.168 5
2 2 6 10190.9 880.744 4
2 2 6 9917.28 918.119 10
-2 2 -6 10218.1 618.892 10
-2 2 -6 10827.2 648.973 7
2 2 6 9985.97 807.793 17
-2 2 -6 9656.03 892.048 9
-2 2 -6 7792.53 337.646 18
-2 2 -6 7583.73 334.336 15
2 2 6 9964.4 804.891 18
-2 2 -6 11178.4 606.234 16
2 2 6 9389.53 918.17 16
-2 2 -6 10229.8 887.294 2
2 2 6 9881.24 810.337 15
2 2 7 559.854 312.854 15
-2 2 -7 1211.61 453.843 2
2 2 7 1309.02 450.68 5
-2 2 -7 434.201 185.077 7
-2 2 -7 732.895 203.728 10
2 2 7 991.048 429.205 10
2 2 7 1300.25 367.854 17
2 2 7 371.511 278.435 18
-2 2 -7 1614.72 451.953 9
-2 2 -7 1542.53 301.416 16
2 2 7 940.178 459.461 16
2 2 7 1201.77 478.878 4
2 2 8 11025.5 892.451 17
2 2 8 9732.61 962.735 5
2 2 8 11628.8 627.556 12
2 2 8 10583 895.715 18
2 2 8 9940.49 1021.75 16
2 2 8 10939.4 1064.6 10
2 2 8 10498.8 876.164 15
-2 2 -8 10303 955.111 9
-2 2 -8 9259.61 692.568 7
2 2 8 8646.38 1014.16 4
-2 2 -8 9321.03 955.593 2
2 2 9 27222.9 1492.85 18
2 2 9 29121.7 1182.45 12
2 2 9 25520.7 1615.47 5
2 2 9 25635.6 1728.2 10
-2 2 -9 23544.4 1558.28 9
-2 2 -9 24706.9 1353.08 7
2 2 9 27949.7 1481.28 17
2 2 9 24126.3 1691.71 4
-2 2 -9 25753.5 1640.79 2
2 2 9 23608 1708.73 16
2 2 9 26458.8 1463.36 15
-2 2 -10 13162 1003.35 7
-2 2 -10 13411.3 1118.8 1
-2 2 -10 11125.6 1164.58 11
-2 2 -10 13053 1238.08 2
2 2 10 12037.8 1124.95 5
2 2 10 12157.7 1225.31 10
-2 2 -10 13043.5 1196.05 9
2 2 10 14742.6 1080.28 18
2 2 10 13223.7 1013.33 17
2 2 10 11886.1 1294.97 4
2 2 10 12249.2 1251.67 16
2 2 10 12905.7 1014.01 15
2 2 11 2697.67 521.283 15
2 2 11 4263.61 795.651 4
-2 2 -11 3925.95 690.909 3
-2 2 -11 3813.44 646.259 1
-2 2 -11 3882.3 768.872 11
2 2 11 3780.52 571.322 18
2 2 11 3226.7 681.064 5
2 2 11 4580.93 858.161 10
-2 2 -11 4135.87 790.414 2
2 2 11 3349.9 534.845 17
-2 2 -11 3661.23 629.562 7
2 2 11 3351.04 786.201 16
-2 2 -11 2748.09 630.78 9
2 2 12 57.4559 512.727 4
-2 2 -12 1060.06 594.404 11
2 2 12 413.318 387.899 5
-2 2 -12 -175.233 429.38 2
2 2 12 253.803 572.313 10
2 2 12 -165.502 498.539 16
-2 2 -12 -879.495 581.63 9
2 2 13 2248.79 848.723 4
-2 2 -13 3639.2 762.129 9
-2 2 -13 2563.57 744.744 11
2 2 13 2564.63 753.077 10
-2 2 -13 2218.54 679.836 2
2 2 13 2970.41 688.502 5
2 2 13 3847.95 926.109 16
-2 2 -14 1770.84 682.195 9
-2 3 14 1767.57 616.474 18
-2 3 14 2095.31 648.86 15
-2 3 13 2397.74 694.346 4
-2 3 13 3132.5 697.116 18
-2 3 13 3260.36 850.387 10
2 3 -13 3135.19 829.462 2
-2 3 13 2073.17 630.012 15
-2 3 12 4483.58 892.012 4
-2 3 12 2626.35 627.367 18
2 3 -12 1642.69 655.355 2
-2 3 12 3238.05 658.3 5
-2 3 12 2812.77 780.217 10
-2 3 12 2705.89 664.967 15
-2 3 12 2264.15 771.795 16
-2 3 11 6445.03 972.851 4
2 3 -11 5024.78 882.315 2
-2 3 11 4574.75 750.076 5
-2 3 11 4231.76 825.402 10
-2 3 11 5685.23 878.989 18
2 3 -11 5752.63 783.144 7
-2 3 11 6103.82 876.579 15
-2 3 11 4373.66 854.114 16
-2 3 10 7121.64 916.82 18
-2 3 10 7731.42 933.384 5
2 3 -10 9914.94 1147.32 2
-2 3 10 8143.68 1076.31 16
-2 3 10 8642.79 1085.12 10
-2 3 10 7816.24 1040.55 4
2 3 -10 7667.69 843.959 7
-2 3 10 7140.14 906.936 15
2 3 -9 11539.4 861.128 18
-2 3 9 11384 789.301 12
-2 3 9 9156.6 1015.25 15
-2 3 9 10477.4 983.929 5
-2 3 9 9539.73 1086.34 10
-2 3 9 9973.8 1092.98 4
-2 3 9 9447.42 1022.02 18
-2 3 9 9089.89 1056.65 16
2 3 -9 11750.4 1198.46 2
2 3 -9 10893.9 841.168 15
2 3 -9 8641.33 834.989 7
-2 3 8 -160.375 373.155 4
2 3 -8 28.2148 249.15 18
2 3 -8 -174.293 264.645 15
-2 3 8 103.499 170.844 12
-2 3 8 385.696 350.629 18
2 3 -8 852.005 490.63 2
-2 3 8 292.447 324.059 5
-2 3 8 121.694 401.742 10
-2 3 8 103.883 329.741 17
2 3 -8 283.992 329.625 7
-2 3 8 62.9288 370.662 15
-2 3 8 520.008 444.016 16
-2 3 7 10996.2 962.395 4
-2 3 7 9668.68 1018.76 10
-2 3 7 10869.3 1000.11 5
-2 3 7 11770.9 1078.34 16
-2 3 7 10041.5 1019.83 18
2 3 -7 11354.2 869.029 18
-2 3 7 10492.7 999.477 17
2 3 -7 11819.1 1083.35 2
2 3 -7 9918.78 819.676 7
-2 3 7 10507.4 1030.35 15
2 3 -7 11551.6 870.099 15
-2 3 6 5220.4 642.252 4
-2 3 6 4512.36 667.124 15
2 3 -6 4516.07 570.83 15
2 3 -6 5071.13 750.318 2
-2 3 6 4212.79 659.86 18
-2 3 6 5446.4 758.068 5
-2 3 6 5051.85 684.702 16
-2 3 6 4434.35 702.889 10
2 3 -6 5546.2 609.191 18
-2 3 6 4791.41 669.68 17
2 3 -6 5311.16 576.482 7
-2 3 5 8263.51 877.599 10
2 3 -5 10391.8 714.823 13
2 3 -5 9864.16 749.442 7
-2 3 5 9953.31 876.901 16
-2 3 5 8431.11 887.417 18
-2 3 5 9757.5 790.76 4
-2 3 5 9125.62 913.155 15
-2 3 5 8617.6 884.118 17
2 3 -5 9369.08 786.803 18
2 3 -5 9124.58 944.777 2
2 3 -5 9970.16 804.213 15
-2 3 4 3822.92 478.182 4
2 3 -4 4126.93 551.598 15
-2 3 4 4295.09 628.843 18
-2 3 4 3869.91 600.192 15
2 3 -4 3526.28 398.262 13
2 3 -4 3865.91 651.476 2
-2 3 4 3907.8 557.886 16
-2 3 4 3767.58 572.975 10
-2 3 4 4314.14 623.259 17
2 3 -4 4566.15 588.689 18
-2 3 3 3322.15 406.059 4
-2 3 3 3089.53 519.096 17
-2 3 3 3419.32 558.843 2
2 3 -3 3525.12 530.088 18
2 3 -3 3704.09 582.006 2
-2 3 3 3100.47 463.582 16
2 3 -3 3593.29 284.883 10
-2 3 3 2834.06 535.028 10
2 3 -3 3178.65 497.468 15
-2 3 3 2816.31 492.335 18
-2 3 3 3029.31 524.001 15
-2 3 2 4143.94 574.304 15
-2 3 2 4674.91 506.557 16
2 3 -2 3735.58 257.06 13
-2 3 2 2833.31 490.818 17
2 3 -2 3875.07 661.633 2
2 3 -2 4126.25 379.158 10
-2 3 2 4587.35 576.221 10
2 3 -2 4515.79 587.869 18
-2 3 2 4181.13 595.251 18
-2 3 2 3717.5 371.131 4
-2 3 2 3939.07 555.47 2
2 3 -2 4298.79 576.994 15
-2 3 1 16554.8 675.505 4
-2 3 1 16623.8 845.968 16
2 3 -1 15159.6 1092.7 2
-2 3 1 14313.7 1007.5 15
-2 3 1 13689.2 1004.75 18
2 3 -1 17750.4 893.777 12
2 3 -1 15618.5 1103.73 5
-2 3 1 14385.8 1016.74 17
-2 3 1 14967.7 967.961 10
2 3 -1 14799 826.542 10
2 3 -1 14948.7 1050.96 15
-2 3 1 14092.3 957.188 9
-2 3 1 16657 1060.39 2
2 3 -1 15257.6 1054.97 18
2 3 0 37977.4 1328.85 12
-2 3 0 35953 1263.12 16
2 3 0 34680.4 1708.17 5
2 3 0 33613 1670.84 15
-2 3 0 34087.5 1479.83 10
2 3 0 35684.2 1474.95 10
-2 3 0 33491 1584.43 18
-2 3 0 34463.1 1633.78 9
-2 3 0 35321.3 1632.28 15
2 3 0 34935.4 1700.88 18
-2 3 0 34921.4 1636.25 2
2 3 0 36183.6 1736.06 2
-2 3 0 34401.5 1023.04 4
-2 3 0 32901.8 1559.01 17
2 3 1 3483.09 525.129 15
2 3 1 3183.43 516.124 2
-2 3 -1 2608.64 475.621 2
2 3 1 3318.9 290.022 12
-2 3 -1 3310.52 505.81 9
2 3 1 2310.56 519.023 5
2 3 1 2514.49 429.655 10
-2 3 -1 3313.09 275.909 16
-2 3 -1 3418.54 472.336 15
2 3 1 3762.91 559.954 18
-2 3 -1 3403.73 482.064 18
-2 3 -1 3471.78 480.034 17
-2 3 -2 24640.6 775.405 16
-2 3 -2 29257.6 1351.99 18
2 3 2 27239.1 1504.34 18
2 3 2 26275 1514.7 5
-2 3 -2 28304.1 1306.87 17
2 3 2 27246.3 1410.74 10
-2 3 -2 30548.4 1538.9 9
2 3 2 23776.4 1522.81 2
-2 3 -2 27928.6 1424.55 2
-2 3 -2 29881.1 1086.03 13
-2 3 -2 26758.9 1297.78 15
2 3 2 26034.8 1480.37 15
2 3 3 1994.5 468.958 15
-2 3 -3 2100.24 375.528 15
-2 3 -3 1986.99 352.018 18
2 3 3 1997.47 508.632 2
-2 3 -3 1869.31 467.008 2
-2 3 -3 2503.59 339.895 13
-2 3 -3 2307.53 504.758 9
2 3 3 1826.62 444.882 18
2 3 3 2121.7 479.751 10
2 3 3 2614.94 525.918 5
2 3 3 2660.14 527.811 17
-2 3 -3 2444.93 198.167 4
2 3 3 2558.99 485.174 16
-2 3 -3 2439.87 372.685 17
-2 3 -4 10452.2 722.792 18
2 3 4 9700.94 946.258 5
2 3 4 10550.7 966.592 15
2 3 4 10384.8 959.873 10
2 3 4 9982.53 886.353 16
2 3 4 9728.05 947.748 18
-2 3 -4 10396.5 972.747 9
-2 3 -4 11857.6 565.674 4
-2 3 -4 10028 694.164 17
2 3 4 9658.1 917.812 17
-2 3 -4 10422.6 897.112 2
-2 3 -4 9995.77 712.621 15
-2 3 -5 2903.1 521.068 2
2 3 5 3206.1 595.806 17
-2 3 -5 2918.66 367.946 17
2 3 5 3254.81 571.931 15
2 3 5 2504.62 518.058 18
2 3 5 4281.07 679.742 5
2 3 5 2587.48 545.727 10
-2 3 -5 2736.4 365.651 18
-2 3 -5 2597.51 521.812 9
-2 3 -5 2644.95 357.571 15
2 3 5 2205.71 521.94 16
2 3 6 8318.25 933.149 16
2 3 6 7385.24 842.928 17
2 3 6 6721.75 806.002 15
-2 3 -6 8485.92 856.46 2
-2 3 -6 9667 585.786 17
2 3 6 7215.9 891.759 10
-2 3 -6 8136.06 553.217 15
2 3 6 7958.9 920.691 5
-2 3 -6 8870.02 958.59 9
-2 3 -6 9639.53 608.034 18
2 3 6 6385.84 806.848 18
2 3 6 7990.75 830.299 4
-2 3 -7 8610.37 943.214 2
2 3 7 8126.63 970.437 5
2 3 7 9818.33 1032.74 10
-2 3 -7 8629.61 957.042 9
2 3 7 8474.87 919.91 18
2 3 7 8263.54 902.361 17
2 3 7 8051.66 973.164 16
2 3 7 7482.58 887.044 4
2 3 7 8461.43 911.045 15
2 3 8 1020.28 478.245 15
2 3 8 913.353 453.024 17
-2 3 -8 1074.88 470.665 2
2 3 8 675.055 408.407 4
2 3 8 1404.9 501.418 5
2 3 8 1111.73 502.248 10
-2 3 -8 553.349 389.934 9
2 3 8 1450.12 536.34 18
2 3 8 335.804 440.155 16
2 3 9 8519.94 1020.96 4
-2 3 -9 9135.92 1024.03 2
2 3 9 8431.23 992.341 5
2 3 9 8188.62 1073.09 10
-2 3 -9 7387.71 988.672 9
2 3 9 8897.38 959.435 15
2 3 9 8907.44 977.08 18
2 3 9 8979.77 951.531 17
2 3 9 6493.79 972.573 16
2 3 10 11917.4 1233.3 4
2 3 10 9783.24 1187.56 10
-2 3 -10 9778.64 1124.16 2
-2 3 -10 11633 1194.68 9
2 3 10 11621.7 1110.8 18
2 3 10 8948.14 1173.01 16
2 3 10 9408.64 1000.75 17
2 3 10 11407.9 1192.42 5
2 3 10 11405.2 1106.19 15
2 3 11 6239.88 869.995 15
2 3 11 7024.47 876.408 18
-2 3 -11 5920.62 990.492 2
2 3 11 6589.66 968.635 5
2 3 11 5538.26 956.946 4
-2 3 -11 4939.64 761.091 9
2 3 11 5142.67 772.264 17
2 3 11 5697.68 1068.6 10
2 3 11 3500.83 831.329 16
2 3 12 580.526 538.164 10
-2 3 -12 538.932 505.804 11
-2 3 -12 1477.39 675.042 2
-2 3 -12 217.766 416.019 9
2 3 12 -618.16 492.592 5
2 3 12 600.823 529.138 4
2 3 12 -514.948 627.499 16
-2 3 -13 2791.13 847.528 2
2 3 13 2378.36 670.094 5
-2 4 12 772.273 634.579 18
-2 4 12 317.422 556.471 4
-2 4 12 878.46 476.864 5
-2 4 12 1182.06 609.994 15
-2 4 11 4038.07 854.446 15
-2 4 11 4198.52 830.297 18
2 4 -11 4595.38 896.085 2
-2 4 11 3632.7 773.51 5
-2 4 11 3940.96 959.453 10
-2 4 11 4105.87 806.039 4
-2 4 11 4090.77 908.507 16
-2 4 10 4095.18 828.413 15
-2 4 10 3925.37 760.97 4
-2 4 10 2486.6 707.396 5
-2 4 10 3499.79 852.068 10
-2 4 10 3687.42 776.017 18
2 4 -10 2602.63 744.698 2
-2 4 10 2509.65 690.217 16
-2 4 9 2847.12 694.043 18
-2 4 9 1362.45 551.433 4
2 4 -9 1595.93 597.207 2
-2 4 9 1214.15 592.963 15
-2 4 9 762.102 484.71 16
-2 4 9 931.697 507.735 5
-2 4 9 816.919 538.333 10
-2 4 9 1004.42 466.553 17
-2 4 8 -217.307 348.106 4
2 4 -8 -316.327 433.663 2
-2 4 8 955.313 520.303 5
2 4 -8 114.004 290.795 18
-2 4 8 217.7 448.044 18
-2 4 8 -422.651 467.412 17
-2 4 8 124.979 454.519 10
-2 4 8 126.325 435.4 16
-2 4 8 -214.378 449.903 15
2 4 -7 5175.76 675.089 15
-2 4 7 4808.35 806.125 18
2 4 -7 4266.1 799.157 2
-2 4 7 4162.96 797.871 5
-2 4 7 4551.1 769.849 10
-2 4 7 4851.98 700.734 4
-2 4 7 4117.39 728.802 15
2 4 -7 5415.66 703.858 18
-2 4 7 4271.92 744.085 17
-2 4 7 4493.1 739.536 16
-2 4 6 2688.14 597.147 15
2 4 -6 3432.64 762.223 2
-2 4 6 2634.16 569.557 18
-2 4 6 3247.52 559.494 4
-2 4 6 4486.55 815.384 5
-2 4 6 1854.1 580.15 10
2 4 -6 2886.61 547.726 15
2 4 -6 3068.55 556.788 18
-2 4 6 2012.74 594.754 17
-2 4 6 2601.9 570.349 16
-2 4 5 7466.19 894.656 15
-2 4 5 6250.85 665.694 4
2 4 -5 6347.75 877.826 2
2 4 -5 6938.34 791.259 18
-2 4 5 6955.18 877.528 10
-2 4 5 7243.59 905.979 18
-2 4 5 7709.5 917.073 17
-2 4 5 6514.31 789.579 16
2 4 -5 7108.56 800.62 15
-2 4 4 1054.37 307.195 4
2 4 -4 706.883 389.455 18
-2 4 4 374.621 404.57 10
2 4 -4 763.986 442.373 2
-2 4 4 838.224 422.92 18
2 4 -4 872.297 377.256 15
-2 4 4 662.689 383.369 16
-2 4 4 623.456 438.343 15
-2 4 4 696.256 454.295 17
-2 4 3 2584.89 568.023 2
-2 4 3 2004.8 540.981 15
2 4 -3 2956.38 575.227 15
-2 4 3 3333.59 400.398 4
2 4 -3 2956.21 657.998 2
-2 4 3 3659.73 626.099 10
-2 4 3 2517.81 529.089 17
2 4 -3 2445.33 519.48 18
-2 4 3 2601.11 476.166 16
-2 4 3 2758.41 616.416 18
-2 4 2 515.859 321.466 2
-2 4 2 730.713 402.374 17
-2 4 2 1398.27 498.639 15
2 4 -2 524.399 317.573 15
-2 4 2 1531.86 406.154 10
2 4 -2 803.237 255.38 10
-2 4 2 607.48 399.03 18
2 4 -2 1018.23 421.267 18
-2 4 2 659.946 304.68 16
2 4 -2 1214.37 460.094 2
-2 4 1 1439.66 485.019 2
-2 4 1 1841.65 482.177 18
2 4 -1 1777.22 492.144 2
-2 4 1 1307.35 280.405 16
-2 4 1 1595.9 452.049 17
-2 4 1 1132.24 369.845 15
2 4 -1 2379.67 583.591 5
-2 4 1 1584.58 430.915 10
2 4 -1 1723.83 340.089 10
2 4 -1 1587.43 457.26 18
2 4 -1 1986.95 530.515 15
-2 4 0 5376.48 723.386 15
-2 4 0 5682.48 764.78 2
2 4 0 5293.59 741.624 15
2 4 0 4446.91 699.439 2
2 4 0 5286.29 494.616 12
-2 4 0 4555.36 687.834 17
2 4 0 5593.49 756.684 5
-2 4 0 5780.51 629.508 10
2 4 0 4582.4 568.047 10
2 4 0 4772.2 738.993 18
-2 4 0 4964.62 700.918 18
-2 4 0 6216.67 469.884 16
-2 4 -1 29923.2 1614.26 17
-2 4 -1 29394.5 1638.09 18
2 4 1 29098.8 1783.66 5
2 4 1 30775.7 1808.91 2
-2 4 -1 29162.7 1427.01 10
2 4 1 30203.1 1568.75 10
-2 4 -1 28280.2 1710.78 9
-2 4 -1 28865.3 1704.9 2
-2 4 -1 28124 1607.47 15
2 4 1 29180.1 1764.02 18
2 4 1 28635.6 1729.01 15
2 4 2 20605.8 1458.76 2
-2 4 -2 18605.8 1226.46 17
2 4 2 20109.1 1463.63 5
-2 4 -2 22144.9 1135.34 10
2 4 2 19312.6 1280.75 10
2 4 2 18413.5 1393.25 15
-2 4 -2 20739.6 1460.61 9
-2 4 -2 18874.1 1254.21 18
2 4 2 19759.2 1434.59 18
-2 4 -2 20033.2 1412.4 2
2 4 2 19863.9 1433.87 17
-2 4 -2 18881.9 1245.5 15
2 4 3 7760.63 952.166 15
2 4 3 9188.56 1023.84 5
-2 4 -3 9072.18 678.51 10
2 4 3 8368.87 887.915 10
-2 4 -3 8652.9 997.952 9
-2 4 -3 9080.43 846.746 18
2 4 3 9653.91 1037.43 18
2 4 3 8892.62 1048.95 2
-2 4 -3 9933.38 992.278 2
-2 4 -3 9200.34 824.853 17
2 4 3 9686.55 1023.66 17
-2 4 -3 8771.78 818.103 15
2 4 4 8595.69 1018.71 2
2 4 4 10324.9 1110.42 5
2 4 4 9624.24 953.377 16
2 4 4 9036.32 996.805 10
2 4 4 8954.74 1004.36 17
-2 4 -4 8908.35 1023.37 9
2 4 4 8938.04 1025.73 18
-2 4 -4 9103.62 821.963 18
-2 4 -4 9844.25 820.74 17
-2 4 -4 9151.67 957.735 2
-2 4 -4 9935.15 849.524 15
2 4 4 9386.16 1048.57 15
2 4 5 4774.49 767.671 17
2 4 5 4694.42 775.252 15
-2 4 -5 4748.24 809.22 9
-2 4 -5 6241.62 647.39 18
-2 4 -5 5941.11 843.534 2
2 4 5 4011.64 831.574 5
2 4 5 3812.52 679.185 10
-2 4 -5 6107.05 628.938 17
2 4 5 4662.42 776.06 18
2 4 5 5574.25 795.931 16
-2 4 -5 6008.73 645.23 15
-2 4 -6 1019 451.842 2
2 4 6 656.998 493.429 16
2 4 6 1359.07 442.547 18
-2 4 -6 1369.84 499.488 9
2 4 6 1825.64 588.834 5
2 4 6 880.706 521.666 10
2 4 6 1522.05 566.794 17
2 4 6 1669.66 536.031 15
2 4 7 207.416 365.486 15
2 4 7 463.374 480.007 10
-2 4 -7 910.043 577.864 2
2 4 7 55.2143 422.251 5
2 4 7 385.169 372.504 18
-2 4 -7 42.0323 449.511 9
2 4 7 -129.604 420.217 17
2 4 7 352.277 500.896 16
2 4 8 4136.98 785.647 15
-2 4 -8 4090.22 811.712 9
-2 4 -8 4573.27 816.367 2
2 4 8 4355.6 734.948 17
2 4 8 6106.48 968.128 5
2 4 8 4081.89 808.121 10
2 4 8 5433.84 918.168 18
2 4 8 5053.19 845.209 16
2 4 9 1889.26 564.598 15
2 4 9 1970.92 655.576 16
-2 4 -9 2335.54 680.592 2
2 4 9 2105.74 740.85 5
2 4 9 2284.13 733.441 10
2 4 9 3166.88 735.531 17
-2 4 -9 2622.88 688.851 9
2 4 9 2032.91 648.054 18
-2 4 -10 3962.99 828.763 2
2 4 10 3413.64 765.444 17
2 4 10 2573.68 710.703 15
2 4 10 4071.99 914.723 10
-2 4 -10 3012.81 821.845 9
2 4 10 2944.67 774.153 5
2 4 10 2723.78 653.539 18
2 4 10 2489.78 751.37 16
-2 4 -11 694.66 569.79 2
2 4 11 -582.438 525.597 5
2 4 11 407.59 496.488 15
2 4 11 74.2709 428.319 18
2 4 11 346.008 409.61 17
2 4 12 2781.39 724.66 15
2 4 12 1766.01 590.233 18
2 4 12 3078.8 775.571 17
-2 5 10 2213.52 711.549 5
-2 5 9 -587.083 570.2 5
-2 5 9 -333.343 484.655 16
2 5 -8 1177.04 569.427 2
-2 5 8 1307.86 545.017 15
-2 5 8 1434.27 648.318 5
-2 5 8 1396.63 551.931 18
-2 5 8 1385.53 668.285 10
-2 5 8 995.965 490.831 17
-2 5 8 735.781 541.281 16
-2 5 7 2491.26 716.191 15
-2 5 7 2013.49 649.579 17
-2 5 7 1915.27 656.321 18
-2 5 7 1952.91 688.898 5
-2 5 7 2063.91 673.228 10
-2 5 7 2095.17 639.257 16
2 5 -7 1952.18 805.873 2
-2 5 6 4832.83 848.036 15
2 5 -6 4242.45 855.703 2
-2 5 6 3600.72 814.816 18
2 5 -6 4216.95 708.923 15
-2 5 6 3916.66 790.368 10
-2 5 6 5036.41 955.94 5
2 5 -6 4158.96 714.067 18
-2 5 6 2796.35 665.1 17
-2 5 6 3917.99 727.893 16
2 5 -5 839.125 367 15
-2 5 5 1279.39 530.017 15
-2 5 5 2219.12 632.694 17
2 5 -5 1704.54 547.569 18
2 5 -5 2075.73 726.776 2
-2 5 5 1485.47 494.305 16
-2 5 5 1738.29 630.761 10
-2 5 5 2145.89 666.864 18
-2 5 4 7549.93 1027.68 15
2 5 -4 7437.22 1047.97 2
-2 5 4 6144.14 879.765 10
-2 5 4 6640.01 977.083 18
2 5 -4 6616.47 869.546 18
2 5 -4 7395.56 904.882 15
-2 5 4 8179.56 1063.09 17
-2 5 3 3716.24 747.652 15
2 5 -3 3200.73 670.976 15
2 5 -3 4337.4 823.799 2
-2 5 3 4045.25 763.094 17
-2 5 3 3289.76 693.199 10
2 5 -3 3310.65 703.14 18
-2 5 3 3405.03 764.56 18
-2 5 3 3386.02 781.162 2
-2 5 2 278.198 386.578 15
2 5 -2 798.672 449.72 15
2 5 -2 747.057 489.879 17
2 5 -2 554.759 459.095 2
-2 5 2 -303.57 357.183 18
-2 5 2 328.651 383.056 2
2 5 -2 606.347 530.837 5
-2 5 2 754.939 435.56 10
-2 5 2 713.233 512.202 17
2 5 -2 358.424 381.065 18
-2 5 1 637.914 422.674 15
2 5 -1 310.182 397.763 17
2 5 -1 -262.053 467.574 2
-2 5 1 201.216 311.6 10
2 5 -1 -417.437 384.061 18
-2 5 1 -82.5231 361.914 2
2 5 -1 245.016 421.971 15
-2 5 1 217.422 368.807 18
-2 5 1 386.72 370.707 17
2 5 -1 839.105 491.845 5
2 5 0 521.207 420.039 15
-2 5 0 852.713 507.622 2
-2 5 0 218.519 412.626 15
2 5 0 815.071 407.096 2
2 5 0 966.619 579.233 5
-2 5 0 240.812 342.489 10
-2 5 0 798.518 441.639 18
2 5 0 750.753 458.272 18
-2 5 0 776.831 400.658 17
2 5 0 438.756 388.426 17
-2 5 -1 4431.84 731.79 15
2 5 1 5623.49 915.604 2
-2 5 -1 4208.23 822.753 2
2 5 1 4866.01 868.99 18
2 5 1 4877.24 841.164 5
2 5 1 5179.12 826.472 17
2 5 1 4812.04 651.089 10
2 5 1 4506.94 817.912 15
-2 5 -1 5439.76 796.054 18
-2 5 -1 4065.14 690.955 17
2 5 2 16437.2 1482.17 17
2 5 2 14446 1399.17 18
2 5 2 15616.3 1505.8 5
2 5 2 16466.9 1285.74 10
-2 5 -2 17577.9 1490.62 2
2 5 2 16755 1561.95 2
-2 5 -2 16280.4 1318.71 18
-2 5 -2 15956.5 1273.89 17
-2 5 -2 15776.1 1302.53 15
2 5 2 15116.9 1413.16 15
2 5 3 11804.7 1294.15 5
2 5 3 13369.3 1217.39 10
-2 5 -3 10809 1265.29 2
-2 5 -3 13706.8 1165.85 18
2 5 3 12676.2 1313.7 18
-2 5 -3 12619.8 1113.05 17
2 5 3 13455.1 1402.76 2
2 5 3 11248 1239.85 17
2 5 3 12914 1306.27 15
-2 5 -3 15330.3 1248.25 15
-2 5 -4 267.973 460.992 9
2 5 4 1120.72 576.508 2
-2 5 -4 1472.2 476.502 15
-2 5 -4 1675.33 608.823 2
2 5 4 1680.82 590.671 15
-2 5 -4 1897.24 502.77 17
2 5 4 1259.88 557.454 5
2 5 4 1136.03 534.983 10
-2 5 -4 1393.24 400.075 18
2 5 4 1523.83 489.301 18
2 5 4 280.346 418.058 17
-2 5 -5 3433.53 756.391 2
2 5 5 2519.22 667.171 17
2 5 5 3518.73 767.859 18
2 5 5 2631.85 747.912 5
2 5 5 2397.95 636.548 10
-2 5 -5 2972.98 706.498 9
2 5 5 2614.16 691.068 15
-2 5 -6 3552.62 760.818 2
2 5 6 4738.57 905.167 15
2 5 6 4775.7 981.18 5
-2 5 -6 3906.17 847.647 9
2 5 6 5175 916.029 10
2 5 6 4712.38 880.443 17
2 5 6 4651.75 841.567 18
2 5 7 -97.3992 491.412 5
2 5 7 660.475 557.567 17
2 5 7 474.233 527.455 10
-2 5 -7 -91.618 556.847 2
-2 5 -7 257.369 498.705 9
2 5 7 614.727 538.741 16
2 5 7 149.313 468.271 18
2 5 7 280.24 493.444 15
2 5 8 1148 698.979 15
-2 5 -8 -540.773 516.548 2
2 5 8 546.685 516.864 5
2 5 8 751.102 639.588 10
2 5 8 526.746 523.25 16
2 5 8 -829.989 560.189 18
2 5 8 209.925 512.75 17
2 6 -5 2659.74 652.618 15
-2 6 5 2638.36 766.842 10
2 6 -5 2080.02 612.994 18
2 6 -5 1957.72 655.315 17
2 6 -5 2256.81 771.436 5
2 6 -4 5726.94 911.773 17
2 6 -4 5214.79 910.534 15
2 6 -4 5185.84 964.4 5
-2 6 4 4360.92 810.278 10
2 6 -4 5243 922.913 18
-2 6 3 1627.54 724.341 2
-2 6 3 3664.52 880.871 15
2 6 -3 1959.15 575.773 15
-2 6 3 1914.78 686.765 18
2 6 -3 1934.7 699.761 18
2 6 -3 1253.43 556.961 17
2 6 -3 2723.42 897.16 5
-2 6 3 1814.96 681.534 17
-2 6 2 2799.15 779.174 15
2 6 -2 1977.17 688.239 17
2 6 -2 2418.83 770.863 5
2 6 -2 2039.36 674.398 15
-2 6 2 1648.39 650.584 18
2 6 -2 2546.27 700.617 18
-2 6 2 2838.07 783.273 17
-2 6 2 2261.4 694.363 2
-2 6 1 58.8051 478.032 15
2 6 -1 104.99 504.121 15
-2 6 1 773.415 577.443 2
2 6 -1 708.267 526.235 5
-2 6 1 -200.967 472.572 18
-2 6 1 389.354 481.634 17
2 6 -1 722.868 591.114 17
2 6 -1 245.773 434.125 18
-2 6 0 982.185 518.044 18
-2 6 0 808.091 615.853 2
2 6 0 932.341 598.241 15
-2 6 0 455.934 408.581 17
2 6 0 835.616 575.82 5
2 6 0 1118.97 621.072 18
2 6 0 643.173 475.036 17
-2 6 0 1105.05 562.774 15
2 6 1 6322.14 1088.2 15
-2 6 -1 5088.91 956.458 2
2 6 1 4977.87 915.815 17
-2 6 -1 5904.63 946.741 15
-2 6 -1 6318.29 953.818 18
2 6 1 4973.08 985.355 5
2 6 1 4679.41 885.146 18
-2 6 -1 5640.86 910.48 17
-2 6 -2 1857.28 694.941 2
-2 6 -2 1733.62 636.901 15
-2 6 -2 1280.26 576.114 17
-2 6 -2 2722.11 717.206 18
-2 6 -3 727.473 628.196 2
-2 6 -4 983.17 647.046 2
2 6 5 1262.65 630.77 10
3 -6 -4 12868.6 1376.77 6
3 -6 -3 834.717 498.844 6
3 -6 -2 1336.66 616.09 6
3 -6 -2 81.4356 471.481 8
3 -6 -1 2785.96 681.91 6
3 -6 -1 2489.18 711.151 8
3 -6 0 1223.06 587.381 6
3 -6 0 1410.11 585.756 8
3 -6 1 -438.083 521.293 6
3 -6 1 -186.958 390.183 8
3 -6 2 2585.12 650.556 8
3 -6 2 1571.23 646.177 6
3 -6 3 145.641 411.366 6
3 -6 4 781.554 553.605 6
3 -5 -10 1833.7 616.091 7
-3 -5 9 2627.57 710.404 12
3 -5 -9 4501.68 809.975 7
3 -5 -8 1221.01 553.363 7
-3 -5 8 328.758 541.037 6
-3 -5 8 853.133 488.957 12
3 -5 -8 1541.83 573.537 8
3 -5 -7 1661.4 644.107 8
3 -5 -7 1327.79 610.009 6
-3 -5 7 2191.68 710.32 6
-3 -5 7 1472.69 499.479 12
3 -5 -6 774.438 585.309 6
-3 -5 6 1299.42 527.611 6
-3 -5 6 1825.73 590.807 12
3 -5 -6 844.29 438.539 8
-3 -5 6 970.963 476.161 14
3 -5 -5 11400.3 1202.51 6
-3 -5 5 12192.6 1289.56 6
-3 -5 5 10515.3 1037.66 12
3 -5 -5 9566.02 1190 8
-3 -5 5 10881.9 1063.93 14
-3 -5 4 1612.58 532.768 14
3 -5 -4 1483.88 557.921 14
3 -5 -4 1224.48 470.489 6
-3 -5 4 2022.23 695.718 6
-3 -5 4 1678.95 462.988 12
3 -5 -4 2376.03 612.759 8
-3 -5 3 24611.2 1549.42 14
3 -5 -3 20708.5 1603.64 6
3 -5 -3 23035.6 1736.93 14
-3 -5 3 21825.2 1707.25 6
3 -5 -3 23845.2 1762.59 8
-3 -5 2 4253.09 662.539 14
3 -5 -2 5246.46 791.51 6
-3 -5 2 4591.62 817.281 6
3 -5 -2 4494.98 757.713 14
3 -5 -2 5810.5 876.904 8
3 -5 -1 1116.55 430.052 6
-3 -5 1 1364.37 493.817 6
3 -5 -1 1102.12 496.15 14
3 -5 -1 908.876 471.165 8
-3 -5 1 575.169 317.834 14
-3 -5 0 1771.03 494.305 14
3 -5 0 1024.99 502.349 14
-3 -5 0 1845.53 621.018 6
3 -5 0 1831.46 578.549 6
3 -5 0 1266.24 524.869 8
3 -5 1 248.027 388.108 14
-3 -5 -1 1551.17 467.087 14
-3 -5 -1 1034.75 439.629 6
3 -5 1 1211.48 491.744 6
-3 -5 -1 207.924 477.534 1
3 -5 1 2273.42 616.795 8
3 -5 2 1612.47 519.93 14
-3 -5 -2 1536.14 478.074 6
3 -5 2 2112.33 566.047 6
-3 -5 -2 1291.6 423.677 14
-3 -5 -2 851.206 614.794 1
3 -5 2 1880.12 505.416 8
3 -5 3 2367.24 667.199 14
-3 -5 -3 2169.69 545.478 14
-3 -5 -3 1546.98 621.231 6
3 -5 3 2345.83 597.535 6
-3 -5 -3 2479.36 796.018 1
3 -5 3 2936.16 588.149 8
-3 -5 -4 4045.5 845.62 6
3 -5 4 3161.58 746.437 14
3 -5 4 1989.43 603.52 6
-3 -5 -4 1694.6 869.63 1
3 -5 4 4695.77 646.768 8
3 -5 5 287.308 540.176 14
-3 -5 -5 409.091 506.938 6
3 -5 5 429.321 451.641 6
-3 -5 -5 762.688 675.472 1
3 -5 6 5099.1 941.153 14
-3 -5 -6 5117.99 929.669 6
3 -5 6 5860.55 893.291 6
-3 -5 -6 6263.35 1096.72 1
3 -5 7 1037.61 503.72 14
-3 -5 -7 1852.43 735.268 6
3 -5 7 2289.44 683.318 6
-3 -5 -7 999.578 775.066 1
3 -5 8 -67.2286 475.234 6
3 -5 9 476.745 543.886 6
3 -4 -12 5456.3 996.69 7
3 -4 -12 6220.47 998.703 8
3 -4 -11 1424.34 564.858 7
-3 -4 11 2288.57 656.464 6
-3 -4 11 2409.49 718.502 12
3 -4 -11 1657.97 588.234 8
3 -4 -10 -432.615 499.936 7
-3 -4 10 43.4189 452.833 6
-3 -4 10 -438.842 476.831 12
3 -4 -10 -234.899 422.847 8
3 -4 -9 4543.08 809.16 7
-3 -4 9 3831.8 798.906 6
-3 -4 9 2797.08 655.682 12
3 -4 -9 4788.19 846.668 8
3 -4 -8 593.652 443.669 7
-3 -4 8 324.942 441.084 6
-3 -4 8 -411.205 411.635 12
3 -4 -8 995.094 523.941 8
-3 -4 7 3979.15 720.129 6
-3 -4 7 3948.61 714.62 12
3 -4 -7 4017.29 783.711 8
3 -4 -7 4576.62 687.32 7
-3 -4 6 7461.84 938.467 6
-3 -4 6 7796.68 894.839 12
3 -4 -6 6858.71 975.372 8
-3 -4 6 8274.28 865.025 14
3 -4 -6 8366.05 840.95 7
-3 -4 5 8353.84 847.998 14
-3 -4 5 7351.81 822.544 12
3 -4 -5 7906.75 938.089 8
3 -4 -5 8337.87 809.596 7
-3 -4 5 7359.56 916.164 6
3 -4 -4 13447.5 1327.03 6
-3 -4 4 16978 1383.07 6
-3 -4 4 18581.8 1237.16 12
3 -4 -4 16727.5 1397.36 8
3 -4 -4 18961.8 1112.59 7
-3 -4 4 18292.9 1207.05 14
-3 -4 3 6179.79 678.546 14
3 -4 -3 6222.28 471.564 13
3 -4 -3 6663.01 776.024 6
-3 -4 3 5997.49 442.783 4
-3 -4 3 5330.15 774.871 6
-3 -4 3 6387.3 674.514 12
3 -4 -3 7265.77 865.776 8
3 -4 -3 6770.43 593.196 7
3 -4 -2 7149.18 826.636 6
3 -4 -2 7597.87 498.09 13
3 -4 -2 6196.09 845.46 8
-3 -4 2 7285.83 904.201 6
-3 -4 2 7184.81 695.228 12
3 -4 -2 6929.94 842.229 14
-3 -4 2 7957.76 739.928 14
-3 -4 2 6851.01 518.626 4
3 -4 -2 8549.45 585.126 7
3 -4 -1 3498.3 304.341 7
-3 -4 1 2913.64 447.661 14
3 -4 -1 3415.87 613.369 14
3 -4 -1 3144.21 315.059 13
3 -4 -1 3752.52 585.273 6
-3 -4 1 3226.76 638.031 6
-3 -4 1 3319.99 444.016 12
-3 -4 1 2305.05 581.735 1
3 -4 -1 3215.15 634.255 8
-3 -4 0 609.016 353.944 14
-3 -4 0 1105.76 486.386 6
3 -4 0 611.281 349.8 6
-3 -4 0 592.74 222 12
-3 -4 0 806.656 489.159 1
3 -4 0 1295.33 459.155 8
3 -4 0 1393.51 503.772 14
3 -4 0 512.355 145.332 13
3 -4 1 7053.27 809.343 8
3 -4 1 6417.7 852.397 14
3 -4 1 8084.09 529.278 13
-3 -4 -1 6287.17 818.703 6
-3 -4 -1 7710.22 972.99 1
-3 -4 -1 7257.06 729.159 14
3 -4 1 8081.13 821.962 6
3 -4 2 14941.3 1167.4 6
3 -4 2 14904.3 809.176 13
-3 -4 -2 13313.1 1187.99 6
3 -4 2 15691.8 1271.03 14
-3 -4 -2 10160.8 1355.14 1
3 -4 2 15493.8 1137.3 8
-3 -4 -3 4041.56 713.669 6
3 -4 3 3469.47 663.447 14
3 -4 3 4229.34 486.393 13
3 -4 3 3629.18 675.494 6
-3 -4 -3 4887.03 835.825 1
3 -4 3 4556.5 617.655 8
3 -4 4 2871.59 669.822 14
3 -4 4 2777.68 455.92 13
3 -4 4 2919.62 501.293 8
3 -4 4 2710.15 538.272 6
-3 -4 -4 2157.59 606.607 1
-3 -4 -4 2687.98 633.481 6
3 -4 5 1967.52 597.887 14
3 -4 5 3379.98 629.901 6
-3 -4 -5 3185.19 707.687 1
3 -4 5 3846.59 533.884 8
-3 -4 -5 3461.39 702.615 6
3 -4 6 8384.75 988.277 6
-3 -4 -6 10152.4 1044.93 3
3 -4 6 8131.49 1051.58 14
-3 -4 -6 8239.03 1158.84 1
3 -4 7 2644.9 701.57 14
-3 -4 -7 1962.08 513.558 3
3 -4 7 2999.95 658.079 6
-3 -4 -7 1256.29 515.294 1
3 -4 8 99.137 460.92 14
-3 -4 -8 53.1882 333.919 3
3 -4 8 660.726 449.294 6
-3 -4 -8 -452.087 452.921 1
3 -4 9 4121.3 799.608 6
-3 -4 -9 2946.43 813.985 1
3 -4 10 2574.8 704.875 6
-3 -4 -10 2934.52 820.055 1
3 -4 11 10373.3 1256.2 6
3 -3 -13 2168.15 681.149 7
3 -3 -13 1630.04 505.203 8
-3 -3 12 1467.43 567.677 4
3 -3 -12 791.762 538.02 7
-3 -3 12 699.545 472.4 6
-3 -3 12 1101.01 552.474 12
3 -3 -12 884.291 466.799 8
-3 -3 11 10239.1 1168.76 12
-3 -3 11 10956.9 1232.58 6
3 -3 -11 10771.8 1182.78 7
3 -3 -11 10410.2 1150.43 8
-3 -3 11 9306.82 989.629 4
3 -3 -10 4893.74 776.148 7
-3 -3 10 4127.48 648.205 4
3 -3 -10 3712.48 701.9 8
-3 -3 10 4834.29 805.729 6
-3 -3 10 4728.64 836.93 12
-3 -3 9 1142.16 386.196 4
-3 -3 9 1028.77 494.792 6
-3 -3 9 1306.32 500.454 12
3 -3 -9 965.798 483.96 7
3 -3 -9 1491.34 495.697 8
3 -3 -8 3012.1 587.474 7
-3 -3 8 2746.24 611.922 6
-3 -3 8 2530.87 578.308 12
3 -3 -8 2749.38 625.216 8
-3 -3 8 3653.2 397.615 16
-3 -3 8 3986.95 520.58 4
-3 -3 7 3180.46 460.012 4
3 -3 -7 3319.05 600.426 7
-3 -3 7 3115.75 377.566 16
-3 -3 7 3328.89 625.521 6
-3 -3 7 2718.34 550.937 12
3 -3 -7 2822.52 586.406 8
-3 -3 6 10479.1 636.398 16
-3 -3 6 10112.6 971.463 6
-3 -3 6 10871.9 668.453 8
-3 -3 6 10614.8 955.763 12
-3 -3 6 9676.03 747.802 4
3 -3 -6 9415.06 1007.59 8
3 -3 -6 11427.5 944.856 7
-3 -3 5 5888.07 624.653 14
-3 -3 5 5208.91 683.31 6
-3 -3 5 6878.58 716.86 12
-3 -3 5 5879.08 557.483 4
3 -3 -5 7488.28 529.947 9
-3 -3 5 6576.4 578.279 8
3 -3 -5 6171.09 789.793 8
3 -3 -5 7222.2 689.981 7
3 -3 -4 1541.21 366.255 7
-3 -3 4 2180.41 499.043 6
-3 -3 4 1618.13 401.845 12
-3 -3 4 1208.18 246.364 4
-3 -3 4 1463.16 171.448 10
-3 -3 4 1628.71 346.812 14
3 -3 -4 1521.45 284.537 9
3 -3 -4 1751.05 461.559 8
-3 -3 3 10029.2 546.445 10
-3 -3 3 8298.82 673.063 14
-3 -3 3 8770.06 844.995 6
-3 -3 3 10170 759.059 12
-3 -3 3 8097 596.58 4
3 -3 -3 4882.02 782.359 6
-3 -3 3 6049.59 771.889 1
3 -3 -3 8808.68 881.532 8
3 -3 -3 10061.2 685.823 7
3 -3 -2 10150.1 621.725 7
3 -3 -2 9592.63 773.704 6
-3 -3 2 9646.63 875.192 6
-3 -3 2 9032.47 675.21 12
3 -3 -2 8812.83 587.845 13
-3 -3 2 10065.4 619.198 10
-3 -3 2 8680.7 659.024 14
-3 -3 2 9337.77 842.709 1
3 -3 -2 10091.7 913.322 8
-3 -3 2 10875.4 674.093 16
-3 -3 1 23873.3 1133.29 14
3 -3 -1 21045.1 1250.81 6
3 -3 -1 22683.9 1342.46 14
-3 -3 1 22382.7 1345.31 6
-3 -3 1 22078.7 1356.81 1
3 -3 -1 24232 1010.24 13
-3 -3 1 24037.5 1089.16 12
-3 -3 1 25791.3 1158 10
3 -3 -1 25257.9 905.992 7
3 -3 -1 22617.6 1333.11 8
3 -3 0 22068.7 1344.39 14
-3 -3 0 24413.3 1142.81 14
3 -3 0 23655.7 1006.22 13
-3 -3 0 24371.9 997.134 12
3 -3 0 25453.9 1294.42 6
-3 -3 0 22402.6 1414.83 3
-3 -3 0 22343.9 1349.85 6
3 -3 0 24339.5 1346.22 8
-3 -3 0 23640.3 1430.28 1
-3 -3 0 25553.3 1108.31 4
3 -3 0 23584.1 711.89 7
-3 -3 -1 4290.54 630.53 1
3 -3 1 4186.6 632.974 14
3 -3 1 4487.87 427.395 13
-3 -3 -1 5256.33 649.725 6
3 -3 1 4359.54 542.88 6
-3 -3 -1 4362.29 336.218 12
-3 -3 -1 3503.5 582.257 3
3 -3 1 4431.96 550.589 8
-3 -3 -2 7211.26 764.45 6
3 -3 2 7091.98 787.516 14
3 -3 2 7681.44 703.671 6
3 -3 2 8157.32 590.291 13
-3 -3 -2 8047.81 512.784 13
-3 -3 -2 7462.39 846.355 1
-3 -3 -2 7060.93 765.48 3
3 -3 2 8369.61 723.491 8
3 -3 3 15779.9 977.332 8
3 -3 3 14545.7 1003.35 6
-3 -3 -3 10756 1149.39 1
3 -3 3 14150.7 1121.21 14
-3 -3 -3 16094.1 1152.17 3
3 -3 3 14917.9 886.891 13
-3 -3 -3 15087 803.806 13
-3 -3 -3 13805 1094.98 6
-3 -3 -4 5573.73 722.585 3
3 -3 4 5782.79 758.434 14
3 -3 4 5505.98 586.927 13
3 -3 4 6105.28 655.612 6
3 -3 4 5178.55 553.364 8
-3 -3 -4 5000.69 720.633 1
3 -3 4 5186.77 499.231 18
3 -3 4 6182.14 534.041 15
3 -3 5 10730.6 1033.6 14
-3 -3 -5 10404 969.698 3
3 -3 5 11035.4 911.556 6
3 -3 5 11359.3 882.685 13
3 -3 5 10994.7 675.438 15
3 -3 5 11824 798.646 8
-3 -3 -5 10270.7 1067.11 1
3 -3 6 232.753 320.296 13
3 -3 6 483.68 342.434 6
-3 -3 -6 862.703 384.636 3
3 -3 6 412.2 385.844 14
-3 -3 -6 90.5647 335.164 1
3 -3 6 705.073 247.237 8
3 -3 7 2607.02 624.456 14
3 -3 7 3485.79 409.898 8
3 -3 7 2337.82 584.54 13
3 -3 7 1587.74 657.939 12
3 -3 7 2779.72 576.046 6
-3 -3 -7 2384.79 511.259 3
-3 -3 -7 3615.13 745.53 1
3 -3 8 1287.04 576.393 12
3 -3 8 1238.97 432.021 6
-3 -3 -8 2170.92 487.479 3
-3 -3 -8 856.895 435.129 1
-3 -3 -9 1426.22 451.858 3
3 -3 9 1268.43 553.215 6
3 -3 9 2047.34 713.14 12
-3 -3 -9 950.349 456.084 1
3 -3 10 284.418 351.078 6
-3 -3 -10 407.401 396.334 1
3 -3 11 2857.67 764.669 12
3 -3 11 2074.46 703.563 6
-3 -3 -11 3003.16 745.896 1
-3 -3 -12 4605.95 918.067 1
-3 -3 -13 2414.68 793.184 1
-3 -2 15 1400.54 675.545 4
3 -2 -14 621.418 579.593 7
-3 -2 14 -775.945 600.128 12
-3 -2 14 -908.616 530.938 4
-3 -2 13 -46.855 446.623 12
-3 -2 13 210.075 461.315 4
3 -2 -13 314.896 489.202 7
-3 -2 12 9377.9 1020.56 4
3 -2 -12 8174.83 1071.47 7
-3 -2 12 7323.27 998.935 12
-3 -2 12 7629.37 1021.91 6
3 -2 -12 7924.03 897.011 8
-3 -2 12 7855.58 863.094 16
-3 -2 11 1941.43 590.635 4
3 -2 -11 1760.18 465.903 8
-3 -2 11 1459.14 540.023 6
3 -2 -11 3062.2 692.886 7
-3 -2 11 2700.54 531.626 16
-3 -2 11 2768.57 688.01 12
-3 -2 10 25315.4 1698.08 12
3 -2 -10 25870.4 1560.51 8
-3 -2 10 25971.3 1587.32 4
-3 -2 10 27175.8 1435.43 16
3 -2 -10 24824 1671.55 7
-3 -2 10 26758.8 1759.4 6
-3 -2 9 6270.36 814.972 12
-3 -2 9 8333.77 842.287 4
-3 -2 9 7403.1 409.879 10
3 -2 -9 8264.7 844.421 8
-3 -2 9 8526.23 930.791 6
-3 -2 9 7777.05 717.937 16
3 -2 -9 7630.33 906.865 7
3 -2 -8 3586.35 631.174 7
-3 -2 8 3286.78 461.165 16
-3 -2 8 2894.57 581.481 12
-3 -2 8 3476.78 240.952 10
-3 -2 8 3392.17 629.587 6
3 -2 -8 2870.42 540.972 8
-3 -2 8 2877.45 499.463 4
3 -2 -7 -262.708 310.533 7
-3 -2 7 634.613 390.968 6
-3 -2 7 345.308 317.35 4
-3 -2 7 326.819 229.464 16
-3 -2 7 207.655 71.5904 10
-3 -2 7 115.816 298.968 12
3 -2 -7 -23.4531 267.196 8
-3 -2 7 340.164 116.301 8
-3 -2 6 6349.67 668.983 6
3 -2 -6 6055.35 657.586 7
3 -2 -6 4306.1 589.786 8
-3 -2 6 5748.7 538.994 16
-3 -2 6 5248.99 652.798 12
-3 -2 6 5432.08 292.411 10
-3 -2 6 6489.65 413.701 8
-3 -2 6 5337.6 267.116 10
-3 -2 6 5416.5 589.004 4
-3 -2 5 27264.4 1453.49 6
-3 -2 5 28368.4 1454.07 12
3 -2 -5 28975.2 1410.96 7
-3 -2 5 29601.2 905.678 10
-3 -2 5 31448.9 1160.39 8
-3 -2 5 31045.4 1325.41 4
3 -2 -5 28786.2 1494.65 8
3 -2 -4 36734.6 1565.73 7
-3 -2 4 35971.8 1661.24 6
-3 -2 4 37001.2 1629.08 12
-3 -2 4 40746.2 1195.18 10
-3 -2 4 42827.7 1475.05 8
3 -2 -4 36599.7 1723.35 8
-3 -2 4 37380.8 1490.98 4
-3 -2 3 8243.65 664.521 12
-3 -2 3 5871.69 618.937 1
-3 -2 3 8187.26 694.22 6
-3 -2 3 9595.67 483.085 10
-3 -2 3 8618.97 617.626 8
-3 -2 3 7593.6 603.357 4
3 -2 -3 7716.36 718.318 8
3 -2 -3 8985.44 599.471 7
-3 -2 3 8590.45 547.72 14
-3 -2 3 7291.93 705.284 3
3 -2 -2 1135.8 248.796 7
-3 -2 2 1208.96 241.421 14
3 -2 -2 1346.18 326.161 2
-3 -2 2 918.496 336.798 6
-3 -2 2 665.854 328.241 3
-3 -2 2 983.96 269.886 12
3 -2 -2 866.538 356.04 8
-3 -2 2 784.802 186.156 10
-3 -2 2 808.574 243.174 8
-3 -2 1 982.768 210.036 14
3 -2 -1 682.27 322.884 14
3 -2 -1 176.84 215.302 6
-3 -2 1 1008.33 317.785 6
3 -2 -1 371.301 238.452 2
3 -2 -1 685.03 225.933 13
-3 -2 1 929.664 439.52 3
-3 -2 1 773.859 238.93 12
-3 -2 1 713.666 217.813 10
3 -2 -1 887.389 183.887 7
3 -2 -1 511.226 291.3 8
-3 -2 0 18978.1 1049.57 6
-3 -2 0 18225.3 1087.14 3
3 -2 0 18672.2 894.948 13
-3 -2 0 22159.1 1016.35 10
3 -2 0 18943.8 1085.88 14
3 -2 0 21639.9 1022.9 18
3 -2 0 20382.3 1077.4 8
3 -2 0 22394.3 1028.17 17
3 -2 0 20668.6 957.404 2
-3 -2 0 20095.6 1170.11 1
-3 -2 0 21981.1 1029.99 16
-3 -2 0 18906.3 815.37 12
3 -2 0 20629.5 672.767 7
3 -2 0 19760.5 956.796 6
3 -2 0 21434.6 1021.66 15
-3 -2 -1 8342.2 766.438 6
3 -2 1 5069.81 478.813 6
3 -2 1 5573.53 562.529 8
3 -2 1 5662.17 482.198 13
-3 -2 -1 6009.21 443.957 13
-3 -2 -1 5229.4 597.44 3
-3 -2 -1 5081.22 324.054 12
-3 -2 -1 4788.33 588.553 1
3 -2 1 5908.73 488.573 17
3 -2 1 5901.18 482.572 18
3 -2 1 5259.02 591.026 14
3 -2 1 6094.88 526.239 2
3 -2 1 5601.52 471.593 15
3 -2 2 71936.3 2336.34 13
3 -2 2 66111.2 2512.63 14
-3 -2 -2 70827.5 2551.7 3
3 -2 2 69332.2 2316.72 6
-3 -2 -2 75237.3 2279.94 13
-3 -2 -2 72989.4 2602.31 1
3 -2 2 73081.8 2404.97 8
-3 -2 -2 69780.3 1877.54 12
3 -2 2 79416.4 2282.79 18
3 -2 2 79300.9 2281.46 17
3 -2 2 81082.6 2414.93 2
3 -2 2 76715.7 2266.05 15
-3 -2 -3 29366.2 1456.96 3
3 -2 3 31742.9 1334.69 6
-3 -2 -3 32010.7 1305.12 13
3 -2 3 30839 1360.7 13
3 -2 3 32881.6 1170.34 18
3 -2 3 28483.9 1482.27 14
3 -2 3 30170 1315.07 8
-3 -2 -3 29356.1 1493.9 1
3 -2 3 32291.4 1163.67 15
3 -2 3 30611.2 1373.52 2
3 -2 4 24851 1415.4 14
-3 -2 -4 25254.8 1350.26 3
3 -2 4 26219.7 1256.97 6
3 -2 4 25121.5 1291.3 13
3 -2 4 27748.3 989.659 18
3 -2 4 27581.4 1202.74 8
-3 -2 -4 25475.5 1434.14 1
3 -2 4 28026.2 985.388 15
3 -2 5 5773.31 710.51 14
-3 -2 -5 5462.42 614.171 3
3 -2 5 6912.32 639.392 6
-3 -2 -5 5743.48 253.453 12
3 -2 5 6276.29 742.583 12
3 -2 5 6137.49 336.584 15
3 -2 5 6749.09 688.085 13
3 -2 5 6611.84 523.988 8
-3 -2 -5 6270.21 732.64 1
-3 -2 -6 1554.35 408.501 1
3 -2 6 1456.23 413.341 13
3 -2 6 1679.75 497.346 12
3 -2 6 1473.94 365.232 6
-3 -2 -6 1254.06 145.546 12
-3 -2 -6 1728.71 441.04 3
3 -2 6 1298.07 258.786 8
3 -2 7 2123.9 553.202 12
3 -2 7 2406.62 474.863 6
-3 -2 -7 2124.18 454.166 3
3 -2 7 2348.32 304.36 8
-3 -2 -7 3212.12 566.334 1
3 -2 7 2124.59 589.575 13
-3 -2 -8 7708.26 775.979 3
3 -2 8 7393.79 812.638 6
3 -2 8 8858.16 946.507 12
3 -2 8 7724.31 552.315 8
3 -2 8 4566.52 930.497 13
-3 -2 -8 7896.49 900.491 1
-3 -2 -9 10385.5 1080.29 1
3 -2 9 11000.4 1037.51 6
-3 -2 -9 12499.5 998.559 3
3 -2 9 9059.98 1065.12 12
-3 -2 -10 984.52 383.721 1
3 -2 10 1018.75 470.241 12
-3 -2 -10 2056.41 531.742 3
-3 -2 -11 1215.64 559.88 1
3 -2 11 3107.17 751.117 12
-3 -2 -12 1865.8 591.19 1
3 -2 12 622.324 513.931 12
-3 -2 -12 1974.1 705.687 7
-3 -2 -13 3479.44 758.81 1
3 -2 13 2568.13 861.277 12
-3 -1 15 -222.037 508.193 4
3 -1 -15 620.116 469.262 11
-3 -1 15 -155.295 413.58 12
-3 -1 15 5.57559 418.259 16
-3 -1 14 2500.89 678.614 12
3 -1 -14 632.022 526.09 7
3 -1 -14 2072.59 606.608 11
-3 -1 14 2210.91 698.522 4
-3 -1 14 3058.98 694.042 16
-3 -1 13 611.14 519.933 4
3 -1 -13 370.508 519.352 7
-3 -1 13 659.332 484.906 12
-3 -1 13 461.333 431.468 16
3 -1 -13 368.52 419.304 11
-3 -1 12 640.014 393.882 4
-3 -1 12 705.274 285.587 18
3 -1 -12 21.9608 388.942 7
3 -1 -12 868.554 409.216 11
-3 -1 12 752.666 415.269 12
-3 -1 12 724.789 477.051 16
-3 -1 11 9247.16 786.105 18
-3 -1 11 7815.57 950.347 12
3 -1 -11 8708.56 924.293 11
-3 -1 11 8518.77 726.293 10
3 -1 -11 8343.78 989.59 7
3 -1 -11 8372.42 795.101 8
-3 -1 11 8610.59 1028.13 4
-3 -1 11 8902.4 900.325 16
-3 -1 10 13343.7 1182.46 12
-3 -1 10 13671.7 1061.32 16
-3 -1 10 12110.4 1111.66 6
3 -1 -10 11677.1 1136.58 7
3 -1 -10 12933.7 1048.29 11
-3 -1 10 14296 881.352 10
-3 -1 10 13571 937.707 18
-3 -1 10 12883.3 1116.52 4
3 -1 -10 11572.8 902.393 8
-3 -1 9 9158.91 912.226 4
3 -1 -9 8666.3 904.384 7
-3 -1 9 10481.7 884.753 16
-3 -1 9 9963.92 770.636 18
-3 -1 9 9807.43 969.245 12
-3 -1 9 9602.14 960.085 6
3 -1 -9 9009.02 843.602 11
-3 -1 9 10321.3 702.869 10
3 -1 -9 8975.75 758.311 8
-3 -1 8 702.892 342.832 4
-3 -1 8 569.008 373.036 6
-3 -1 8 744.552 359.981 12
3 -1 -8 557.803 294.138 11
-3 -1 8 601.13 229.889 10
-3 -1 8 600.971 253.477 18
-3 -1 8 467.479 310.052 16
3 -1 -8 594.651 311.608 8
3 -1 -8 296.914 312.014 7
3 -1 -7 6241.38 706.287 7
-3 -1 7 6224.46 684.201 6
-3 -1 7 5876.01 685.829 12
3 -1 -7 6657.8 622.99 11
-3 -1 7 6592.98 496.466 10
-3 -1 7 5894.4 661.902 16
3 -1 -7 5603.82 602.943 8
-3 -1 7 6702.2 401.388 8
-3 -1 7 6767.63 602.803 18
-3 -1 7 5176.9 637.22 4
3 -1 -6 5580.49 657.996 7
-3 -1 6 5556.61 591.5 6
-3 -1 6 4732.4 571.395 12
-3 -1 6 5971.79 452.334 10
-3 -1 6 5510.12 535.297 18
-3 -1 6 6024.14 581.491 16
-3 -1 6 5605.64 492.171 9
-3 -1 6 6141.28 389.559 8
3 -1 -6 5371.12 561.892 8
3 -1 -6 5791.58 527.863 11
-3 -1 6 6119.44 594.613 4
-3 -1 5 8175.61 680.322 12
-3 -1 5 9075.02 667.079 18
3 -1 -5 8832.35 599.09 11
-3 -1 5 9115.73 703.649 6
-3 -1 5 8803.18 684.674 4
-3 -1 5 10064.1 655.323 9
-3 -1 5 8476.33 650.861 16
-3 -1 5 9846.35 525.005 8
3 -1 -5 8097.36 686.68 8
3 -1 -5 8024.52 699.286 7
3 -1 -4 1445.04 342.612 7
-3 -1 4 1702.66 355.701 6
-3 -1 4 1079.25 264.111 3
-3 -1 4 952.175 325.27 12
-3 -1 4 1899.24 348.432 9
3 -1 -4 1274.7 337.045 8
-3 -1 4 1429.43 239.329 8
-3 -1 4 929.493 154.067 1
-3 -1 4 1299.98 326.007 18
-3 -1 4 1000.74 323.809 4
-3 -1 3 6009.48 507.978 3
3 -1 -3 7053.47 581.563 15
-3 -1 3 7762.63 507.158 8
3 -1 -3 7524.54 592.105 18
-3 -1 3 6217.12 560.328 12
-3 -1 3 6645.9 399.064 1
-3 -1 3 6673.15 554.473 4
-3 -1 3 7463.73 584.419 2
-3 -1 3 6743.91 530.058 6
3 -1 -3 6690.73 585.642 8
-3 -1 3 8200.06 596.463 7
3 -1 -3 6075.2 519.484 7
-3 -1 2 11498.2 661.983 6
-3 -1 2 11422.4 715.955 3
3 -1 -2 11503 746.115 8
3 -1 -2 13284.7 737.171 18
-3 -1 2 11956.7 679.692 12
3 -1 -2 11977.5 649.957 7
-3 -1 2 10477.8 601.357 5
-3 -1 2 11503.8 590.468 1
3 -1 -2 10553.3 597.117 2
-3 -1 2 13078.2 682.52 8
-3 -1 2 13000.2 744.317 7
-3 -1 2 12594.2 709.209 2
3 -1 -2 12746.7 721.131 15
-3 -1 1 26035.7 1025.17 1
-3 -1 1 27479.5 1054.56 5
-3 -1 1 29796.8 1177.49 7
-3 -1 1 23541.3 1020.89 6
-3 -1 1 27658 1049.78 10
3 -1 -1 28633.8 1114.71 18
3 -1 -1 26290.9 1153.43 8
3 -1 -1 26805.3 896.145 2
-3 -1 1 27062.3 1107.67 8
-3 -1 1 24257.1 1071.66 2
3 -1 -1 25976.3 968.292 7
-3 -1 1 23817.7 1110.88 3
3 -1 -1 28837 1115.68 15
-3 -1 0 25290.8 1060.64 8
3 -1 0 23259.4 962.956 13
-3 -1 0 20979.3 959.179 1
-3 -1 0 20094.3 900.733 6
3 -1 0 22411.3 973.316 14
3 -1 0 22636.9 737.765 6
-3 -1 0 24158.4 1058.93 3
3 -1 0 21998.8 1028.03 8
-3 -1 0 23853.5 1005.36 5
-3 -1 0 24456.4 995.205 10
3 -1 0 25098.6 949.312 18
-3 -1 0 23600.7 924.551 2
3 -1 0 20611.4 805.715 7
3 -1 0 25645.6 946.774 15
-3 -1 -1 13969.6 750.865 15
3 -1 1 13879 637.114 15
-3 -1 -1 10389.9 685.868 2
3 -1 1 12489.8 725.868 14
-3 -1 -1 14204.1 800.342 3
3 -1 1 13371.6 736.382 13
-3 -1 -1 12852.1 706.792 13
-3 -1 -1 14753.7 799.139 5
3 -1 1 12388.3 730.844 8
-3 -1 -1 14697.8 777.132 10
3 -1 1 13713 641.11 18
-3 -1 -1 13465.7 795.896 8
3 -1 1 13596.2 544.899 6
-3 -1 -1 11568.7 739.294 1
3 -1 1 10123.7 574.69 2
-3 -1 -2 142512 3756.6 15
3 -1 2 132303 3792.3 14
3 -1 2 136691 3443.92 17
3 -1 2 138373 3492.27 6
3 -1 2 127018 3746.35 13
-3 -1 -2 128869 3822.5 3
-3 -1 -2 138352 3891.35 8
-3 -1 -2 140047 3900.26 5
-3 -1 -2 141588 3869.31 16
-3 -1 -2 142131 3886.65 10
-3 -1 -2 127725 3806.59 1
3 -1 2 140210 3467.38 18
3 -1 2 130491 3698.38 8
-3 -1 -2 142683 3756.83 13
3 -1 2 140097 3464.42 15
-3 -1 -3 136045 4201.29 1
3 -1 3 144634 4186.5 14
3 -1 3 142822 4171.3 13
-3 -1 -3 162425 4215.83 13
-3 -1 -3 147300 3830.96 12
-3 -1 -3 142670 4191.72 3
-3 -1 -3 149064 4067.04 15
3 -1 3 142552 4248.69 5
3 -1 3 145249 4036.92 8
-3 -1 -3 152218 4098.12 2
3 -1 3 146432 3929.28 6
3 -1 3 150608 3680.16 17
3 -1 3 150648 3691.62 18
3 -1 3 151279 3693.5 15
-3 -1 -4 11178.9 801.339 1
3 -1 4 12133.3 849.296 13
3 -1 4 11267.7 665.356 6
-3 -1 -4 11113.9 757.577 3
-3 -1 -4 11211.6 575.02 12
-3 -1 -4 12278.8 702.5 15
-3 -1 -4 11365.9 796.645 11
3 -1 4 11650.6 823.544 5
3 -1 4 11151.6 649.813 8
3 -1 4 9614.6 367.506 18
3 -1 4 11861.4 812.22 14
3 -1 4 8970.91 360.894 17
3 -1 4 9047.12 370.508 15
-3 -1 -5 299.169 173.949 15
3 -1 5 368.849 320.428 13
3 -1 5 160.784 283.719 12
-3 -1 -5 479.867 190.947 12
3 -1 5 515.882 275.042 6
-3 -1 -5 654.43 329.801 1
-3 -1 -5 693.879 294.287 3
3 -1 5 664.332 205.834 8
-3 -1 -5 835.871 350.242 11
3 -1 5 398.692 304.304 5
-3 -1 -6 4869.33 568.128 3
3 -1 6 3239.32 518.503 12
-3 -1 -6 2644.71 340.368 12
3 -1 6 2595.99 332.349 8
-3 -1 -6 3721.26 415.633 15
-3 -1 -6 2882.27 469.079 1
3 -1 6 2232.74 425.064 5
-3 -1 -6 2850.77 518.046 11
3 -1 6 2231.8 511.889 13
3 -1 7 1738.11 496.299 13
3 -1 7 1908.48 486.367 12
-3 -1 -7 2400.58 448.672 3
-3 -1 -7 1546.33 379.748 1
3 -1 7 1787.33 413.406 5
-3 -1 -7 1532.88 397.615 11
3 -1 8 1831.63 555.124 13
-3 -1 -8 816.841 373.449 11
-3 -1 -8 1579.4 367.899 3
-3 -1 -8 1877.99 468.049 1
3 -1 8 1686.97 446.848 5
3 -1 8 911.184 406.61 12
-3 -1 -9 23039.1 1492.87 1
3 -1 9 24672.3 1645.67 13
-3 -1 -9 24198.7 1342.3 3
3 -1 9 21324.9 1533.41 4
3 -1 9 26231.9 1589.09 12
-3 -1 -9 24060.4 1570.86 11
3 -1 9 22371.4 1436.17 5
3 -1 10 5143.71 768.361 4
3 -1 10 7474.21 877.002 12
-3 -1 -10 4649.24 558.568 3
-3 -1 -10 4951.9 765.216 11
-3 -1 -10 6204.86 797.713 1
3 -1 10 5772.38 749.847 5
3 -1 11 4742.58 671.027 5
-3 -1 -11 3945.73 769.395 7
3 -1 11 3601.53 672.145 12
-3 -1 -11 3957.32 725.493 1
-3 -1 -11 3983.61 747.141 11
3 -1 11 3746.27 721.231 4
-3 -1 -12 2502.92 655.389 1
-3 -1 -12 1458.02 656.661 7
-3 -1 -12 934.697 478.043 11
-3 -1 -13 803.555 501.917 7
-3 -1 -13 1178.54 464.036 1
3 -1 13 66.4779 463.686 12
-3 -1 -13 1004.47 556.44 11
3 -1 14 4173.34 919.651 12
-3 0 16 336.848 464.427 12
-3 0 16 325.507 508.977 16
3 0 -15 627.431 554.718 7
-3 0 15 232.275 584.986 4
-3 0 15 -352.189 504.806 16
3 0 -15 768.799 542.354 11
-3 0 15 -288.991 439.714 12
-3 0 14 4151.64 902.494 4
3 0 -14 2884.49 744.955 7
-3 0 14 3638.39 727.698 12
3 0 -14 2545.74 698.386 11
-3 0 14 3258.76 597.793 10
-3 0 14 3290.24 771.188 16
-3 0 13 917.568 576.432 4
3 0 -13 268.674 456.253 7
-3 0 13 885.114 481.016 12
3 0 -13 796.997 487.974 11
-3 0 13 -8.98682 379.233 10
-3 0 13 213.016 257.326 18
-3 0 13 -195.207 445.251 16
3 0 -12 2220.87 624.645 7
-3 0 12 3161.02 643.884 12
3 0 -12 2944.19 639.111 11
-3 0 12 2727.54 541.928 10
-3 0 12 3155.84 704.251 16
-3 0 12 3255.6 731.702 4
-3 0 12 2711.13 483.607 18
3 0 -11 632.998 431.241 7
-3 0 11 521.523 403.293 16
-3 0 11 1385.29 406.657 18
3 0 -11 738.241 407.051 11
-3 0 11 795.708 522.205 4
-3 0 11 807.79 401.858 10
-3 0 11 749.711 414.36 12
-3 0 10 5997.64 784.437 16
-3 0 10 5894.34 636.14 18
3 0 -10 5362.91 489.963 8
-3 0 10 5736.19 753.056 12
-3 0 10 5840.71 811.577 4
3 0 -10 5442.39 706.011 11
-3 0 10 5197.66 633.181 10
3 0 -10 5042.77 732.914 7
-3 0 9 276.597 256.368 15
-3 0 9 -232.941 349.746 12
3 0 -9 192.946 299.013 11
-3 0 9 -81.0602 211.621 18
-3 0 9 190.022 295.322 10
3 0 -9 179.627 171.603 8
-3 0 9 220.756 319.106 16
3 0 -9 170.399 334.826 7
-3 0 9 19.3503 42.8766 5
-3 0 9 -188.723 379.296 4
3 0 -8 5435.92 681.933 7
3 0 -8 5434.44 473.008 8
-3 0 8 5718.19 592.116 15
-3 0 8 5672.28 675.676 12
3 0 -8 5185.36 597.599 11
-3 0 8 5815.57 597.15 18
-3 0 8 5519.23 602.606 10
-3 0 8 6523.66 750.297 4
-3 0 8 5302.74 684.043 16
3 0 -7 116.798 333.636 7
-3 0 7 242.112 306.742 12
-3 0 7 83.832 292.313 4
3 0 -7 151.973 230.109 11
-3 0 7 478.213 274.614 10
-3 0 7 -398.956 265.971 18
3 0 -7 298.736 198.985 8
-3 0 7 -232.049 343.191 16
-3 0 7 -303.644 245.58 15
3 0 -6 -183.542 217.183 11
3 0 -6 -56.7977 316.026 7
-3 0 6 -46.6815 252.842 18
-3 0 6 466.183 285.365 12
-3 0 6 -63.2138 279.849 10
3 0 -6 42.1739 58.6426 3
-3 0 6 -25.8294 100.33 9
-3 0 6 142.823 330.402 16
3 0 -6 360.967 195.556 8
-3 0 6 -44.3301 316.13 4
-3 0 6 39.9696 275.125 15
-3 0 5 10695 468.748 3
-3 0 5 11670.1 749.929 15
3 0 -5 11597.1 470.142 3
-3 0 5 11924.5 794.378 12
3 0 -5 11782.7 684.615 11
-3 0 5 11542.9 809.346 4
-3 0 5 11626.2 748.355 18
3 0 -5 12140 752.596 6
-3 0 5 12071.2 522.25 9
3 0 -5 10684.5 704.903 18
-3 0 5 11911.9 679.531 8
3 0 -5 11917.5 747.268 15
3 0 -5 9954.1 781.505 7
3 0 -5 10767.3 639.483 8
-3 0 5 11118.2 793.438 16
3 0 -4 15333.5 762.737 8
-3 0 4 14197.3 609.097 3
3 0 -4 17211.9 812.4 6
-3 0 4 15864.8 798.57 6
3 0 -4 15856.4 614.353 3
3 0 -4 16147 851.005 18
3 0 -4 16058.4 717.478 11
-3 0 4 14694.3 504.325 5
-3 0 4 12684.5 874.941 4
-3 0 4 15080.6 840.314 18
3 0 -4 18049.8 925.978 4
-3 0 4 16687.7 799.448 8
3 0 -4 16837.2 863.018 15
-3 0 4 15058.6 884.359 16
3 0 -4 15421.1 906.636 7
-3 0 4 15891.7 910.524 7
-3 0 4 16321.5 870.129 15
3 0 -3 39189.7 1416.06 8
-3 0 3 39828.6 1492.42 18
3 0 -3 42632.1 1364.29 6
-3 0 3 40726.2 1350.27 6
-3 0 3 38709 1272.91 3
3 0 -3 42626 1290.52 3
-3 0 3 42069.8 1188.22 5
3 0 -3 41588.3 1245.48 11
3 0 -3 42764.1 1505.8 15
-3 0 3 36053.7 1494.43 4
3 0 -3 42944.4 1518.8 18
-3 0 3 41544.5 1435.65 8
-3 0 3 42833.9 1537.02 7
3 0 -3 41001.5 1499.71 7
-3 0 2 83313 2411.9 8
3 0 -2 82925.1 2183.41 6
-3 0 2 79866.2 2167.44 6
3 0 -2 86669.5 2301.84 3
-3 0 2 83790.5 2209.8 5
3 0 -2 80595.5 2197.94 5
-3 0 2 80293.7 2420.32 18
3 0 -2 77476.7 2375.15 8
3 0 -2 84947.7 2442.24 18
3 0 -2 77093.3 2397.73 7
-3 0 2 77072.7 2434.67 7
-3 0 2 78480.1 2274.1 3
3 0 -2 85904 2444.94 15
-3 0 1 4596.38 420.348 7
-3 0 1 4270.08 414.37 18
3 0 -1 4562.34 438.433 8
3 0 -1 4143.78 226.834 6
-3 0 1 4159.96 219.665 6
-3 0 1 4378.24 381.188 3
3 0 -1 4356.07 385.726 3
-3 0 1 4348.92 348.14 1
-3 0 1 3963.4 342.323 5
3 0 -1 4554.68 362.684 5
3 0 -1 3893.37 417.2 7
-3 0 1 4914.56 436.235 8
3 0 -1 4897.29 403.132 18
3 0 -1 4804.56 411.186 15
-3 0 0 10.1691 134.317 14
3 0 0 408.697 281.928 13
3 0 0 44.678 84.3322 11
-3 0 0 400.552 242.155 1
-3 0 0 93.0506 217.253 3
-3 0 0 55.7317 195.573 5
3 0 0 -50.9653 223.79 3
3 0 0 -15.2847 215.216 5
-3 0 0 20.3429 201.047 18
3 0 0 35.0659 191.485 18
3 0 0 -374.885 253.776 8
-3 0 0 -31.336 196.108 8
3 0 0 -83.0877 137.334 14
-3 0 0 -124.89 206.163 7
3 0 1 148481 4074.49 8
-3 0 -1 161156 3860.04 14
3 0 1 150201 4064.72 13
-3 0 -1 169102 4133.04 13
3 0 1 163125 3947.62 18
-3 0 -1 153741 4089.66 1
3 0 1 157546 3827.95 11
-3 0 -1 154719 3820.28 11
-3 0 -1 162146 4112.38 5
3 0 1 149131 4082.33 5
-3 0 -1 160346 4111.71 10
3 0 1 166719 4144.5 3
-3 0 -1 125252 3653.63 2
-3 0 -1 149552 3921.39 18
-3 0 -1 161787 4114.83 8
-3 0 -1 147616 4080.62 3
3 0 1 155852 3847.53 14
3 0 2 127123 3625.05 8
-3 0 -2 139479 3537.27 14
3 0 2 126482 3699.34 13
-3 0 -2 138474 3703.06 13
-3 0 -2 123866 3672.82 3
3 0 2 139714 3751.89 3
-3 0 -2 128363 3705.57 1
3 0 2 125818 3423.72 15
3 0 2 135953 3527.85 11
-3 0 -2 127237 3496.95 11
-3 0 -2 131028 3716.86 5
3 0 2 123803 3690.73 5
-3 0 -2 135270 3662.99 8
3 0 2 136092 3443.23 18
-3 0 -2 138766 3712.29 10
-3 0 -3 5978.62 534.076 13
-3 0 -3 6232.01 510.246 14
-3 0 -3 5140.29 502.796 3
-3 0 -3 6040.04 420.142 6
3 0 3 4579.84 525.022 13
3 0 3 5521.13 360.824 18
-3 0 -3 6000.97 496.039 12
3 0 3 6101.37 536.452 3
-3 0 -3 5208.08 514.464 1
3 0 3 5696.85 467.894 11
-3 0 -3 5655.17 497.646 11
-3 0 -3 5750.56 519.362 5
3 0 3 5875.04 565.735 5
-3 0 -3 6960.15 565.479 10
3 0 3 4872.61 510.085 10
3 0 3 4942.99 489.288 8
-3 0 -3 5358.48 517.799 4
-3 0 -3 7105.14 545.366 8
3 0 3 5087.84 368.702 15
-3 0 -3 5220.97 504.182 16
-3 0 -4 30293.5 1362.99 1
-3 0 -4 33585.7 1331.07 14
3 0 4 31262.1 1415.88 13
-3 0 -4 30637.2 1214.6 6
-3 0 -4 28806.3 1308.68 3
-3 0 -4 30321.6 1255.31 12
3 0 4 27404.4 1338.86 5
3 0 4 29473.1 997.57 18
3 0 4 28961.9 1316.74 10
3 0 4 28660.2 1251.47 8
3 0 4 28215.6 983.7 18
-3 0 -4 31416 1256.23 8
-3 0 -4 26476 1232.15 11
3 0 4 28337.7 986.91 15
-3 0 -5 11041.1 704.594 8
3 0 5 9651.19 798.138 13
-3 0 -5 10482.7 791.221 1
-3 0 -5 10982.5 770.49 3
-3 0 -5 9283.15 718.62 11
3 0 5 10222.2 759.839 5
3 0 5 11230.1 809.599 10
3 0 5 9696.63 480.158 15
3 0 5 9806.96 486.611 18
3 0 6 21988.1 1425.05 13
-3 0 -6 22269.9 1198.72 3
3 0 6 26474.9 1307.18 12
-3 0 -6 26358.1 1357.03 11
3 0 6 24290.7 1330.61 5
3 0 6 24372.7 1306.76 10
3 0 6 24659.9 870.224 18
-3 0 -6 24407.3 1329.06 1
3 0 6 25681.7 865.942 17
3 0 6 25610.2 877.949 15
-3 0 -7 29059.7 1445.57 3
-3 0 -7 32302.3 1609.04 1
3 0 7 31727.7 1532.69 12
3 0 7 32864.1 1729.12 13
-3 0 -7 29630.4 1587.36 11
3 0 7 30007.2 1547.84 5
3 0 7 29389.3 1519.97 10
3 0 7 30999.7 995.22 17
3 0 7 30941.2 1010.4 18
3 0 7 28571.5 1662.18 4
3 0 7 29343.3 1550.01 16
3 0 7 31521.1 1016.18 15
3 0 8 532.458 114.729 15
3 0 8 722.264 420.393 4
3 0 8 624.331 436.002 13
-3 0 -8 540.401 281.506 1
3 0 8 749.657 404.359 12
3 0 8 -27.2195 351.732 16
-3 0 -8 296.505 327.636 11
-3 0 -8 549.097 284.528 3
3 0 8 432.156 317.226 10
3 0 8 682.919 366.767 5
3 0 8 419.292 106.525 18
3 0 9 238.73 86.4125 15
3 0 9 313.543 95.0879 18
-3 0 -9 248.922 272.021 1
3 0 9 -100.686 310.084 12
3 0 9 205.596 453.57 13
-3 0 -9 452.69 393.247 11
-3 0 -9 807.377 347.674 3
3 0 9 660.047 361.888 10
3 0 9 542.983 355.735 5
3 0 9 259.438 410.17 4
3 0 9 155.452 361.82 16
-3 0 -10 23977.6 1520.85 1
-3 0 -10 24760.2 1424.93 3
3 0 10 24018.2 1535.61 12
-3 0 -10 22382 1592.07 11
3 0 10 24459.7 1536.02 5
3 0 10 24954.1 1552.08 10
3 0 10 22540.6 1597.88 16
3 0 10 23768.4 1647.5 4
-3 0 -10 22634.6 1555.04 7
-3 0 -11 -607.169 450.288 7
3 0 11 -211.115 439.37 4
3 0 11 109.493 419.525 16
3 0 11 129.223 362.57 12
-3 0 -11 327.033 485.811 11
-3 0 -11 120.041 304.861 3
3 0 11 -250.651 379.538 10
3 0 11 -340.925 318.053 5
-3 0 -11 -60.2893 299.142 1
-3 0 -12 2768.02 672.245 7
3 0 12 2139.68 581.692 12
-3 0 -12 2321.23 618.284 11
3 0 12 2537.01 612.051 10
-3 0 -12 2492.11 539.575 9
3 0 12 2164.92 528.987 5
-3 0 -12 3023.19 625.654 1
3 0 12 1467.83 550.8 16
3 0 12 2402.52 761.55 4
-3 0 -13 479.84 468.15 7
3 0 13 -225.156 489.459 4
3 0 13 210.522 434.743 16
3 0 13 613.681 431.235 12
-3 0 -13 294.472 489.553 11
3 0 13 290.583 433.369 10
-3 0 -13 702.52 427.98 1
-3 0 -13 598.447 449.848 9
3 0 13 -909.081 444.176 5
-3 0 -14 2421.72 685.125 7
3 0 14 3060.73 782.453 16
3 0 14 3170.18 705.211 10
-3 1 16 488.348 479.925 10
3 1 -15 523.495 512.131 7
-3 1 15 1390.63 587.774 12
3 1 -15 341.968 464.425 11
-3 1 15 114.317 434.146 10
-3 1 15 190.131 599.919 16
3 1 -14 1581.56 619.598 2
-3 1 14 1245.45 526.753 12
3 1 -14 1739.22 598.959 11
-3 1 14 2115.87 650.101 10
-3 1 14 2121.16 744.802 4
-3 1 14 2297.79 735 16
3 1 -14 2136.69 643.248 7
-3 1 13 -91.2744 321.92 15
-3 1 13 775.883 608.72 4
3 1 -13 71.6974 397.141 7
-3 1 13 128.238 487.106 16
3 1 -13 306.041 396.639 11
-3 1 13 965.548 454.598 12
-3 1 13 197.762 395.33 10
3 1 -13 -332.145 477.829 2
-3 1 13 316.982 334.08 18
-3 1 12 -268.661 523.591 4
-3 1 12 668.751 357.382 15
3 1 -12 827.266 488.156 7
3 1 -12 327.903 425.461 2
3 1 -12 503.174 395.559 11
-3 1 12 753.297 372.417 10
-3 1 12 800.003 467.399 12
-3 1 12 1272.8 412.23 18
-3 1 12 860.087 509.095 16
-3 1 11 8712.56 901.453 12
-3 1 11 8739.01 1022.32 16
-3 1 11 9327.32 898.365 15
-3 1 11 8186.79 839.085 18
3 1 -11 8557.32 975.9 7
-3 1 11 7431.1 1058.74 4
3 1 -11 7922.23 939.521 11
-3 1 11 7173.37 886.646 10
3 1 -11 6538.37 926.628 2
-3 1 10 12689.5 1169.55 4
-3 1 10 12659.1 1060.55 12
3 1 -10 13751.7 1141.33 11
-3 1 10 14440.4 780.23 5
3 1 -10 11977.5 1180.59 2
-3 1 10 13847.9 1152.11 10
-3 1 10 14606 1078.77 18
-3 1 10 14537.7 1247.9 16
3 1 -10 11709.4 1058.19 7
-3 1 10 14171.6 1061.74 15
-3 1 9 9720.82 855.493 12
-3 1 9 8366.32 615.839 1
-3 1 9 10507.3 872.809 18
3 1 -9 9477.1 906.536 11
-3 1 9 10283.1 636.408 5
-3 1 9 9810.16 919.563 10
3 1 -9 8792.41 951.972 2
3 1 -9 8898.5 425.568 8
-3 1 9 8644.53 916.389 16
3 1 -9 9755.63 899.611 7
3 1 -9 9146.91 639.869 3
-3 1 9 8619.5 769.421 15
-3 1 9 8698.92 939.435 4
-3 1 8 585.352 337.698 15
3 1 -8 199.304 284.666 7
-3 1 8 670.889 197.586 1
3 1 -8 1140.85 278.924 3
-3 1 8 866.547 341.575 12
-3 1 8 1082.14 247.708 5
-3 1 8 195.299 364.391 10
3 1 -8 1031.24 387.436 2
3 1 -8 597.866 129.012 8
-3 1 8 691.743 356.834 18
-3 1 8 130.972 333.582 16
-3 1 8 552.894 383.747 4
-3 1 7 7792.38 522.324 1
3 1 -7 6913.29 539.476 3
3 1 -7 5755.73 643.436 7
-3 1 7 6284.56 490.416 5
-3 1 7 7098.84 733.553 10
-3 1 7 6424.15 625.619 12
-3 1 7 6082.5 658.63 18
3 1 -7 7203.88 410.225 8
-3 1 7 7248.16 759.801 4
-3 1 7 7196.27 670.7 15
-3 1 7 6592.74 742.289 16
3 1 -7 7226.87 759.514 2
3 1 -6 4804.35 581.832 7
3 1 -6 6066.98 479.399 3
3 1 -6 6064.55 387.525 8
-3 1 6 6231.39 491.697 1
-3 1 6 6570.77 523.446 5
-3 1 6 5333.39 603.171 10
3 1 -6 5042.11 617.264 2
-3 1 6 5279.78 591.426 18
-3 1 6 5494.96 677.981 16
-3 1 6 6117.12 654.859 4
-3 1 6 6226.23 621.213 15
3 1 -5 8017.69 325.388 1
3 1 -5 9925.07 623.091 3
-3 1 5 8939.11 378.099 3
3 1 -5 7578.26 315.963 5
-3 1 5 10021.4 626.232 11
3 1 -5 9472.79 508.344 8
-3 1 5 9462.3 739.213 4
-3 1 5 8783.14 746.83 16
-3 1 5 8363.92 629.948 1
3 1 -5 8904.15 706.992 7
-3 1 5 8758.21 680.941 15
3 1 -5 9483.38 752.227 2
-3 1 5 8197.7 690.223 18
3 1 -4 1435.91 265.781 14
3 1 -4 983.851 345.625 7
-3 1 4 1227.81 345.782 15
-3 1 4 1096.31 322.278 7
3 1 -4 1647.52 339.88 6
3 1 -4 816.406 238.538 3
-3 1 4 1238.44 238.002 11
-3 1 4 1038.85 276.625 1
-3 1 4 1103.41 167.212 3
3 1 -4 945.956 142.801 5
3 1 -4 1430.67 236.881 8
3 1 -4 1262.49 364.87 2
3 1 -4 1126.9 146.522 1
-3 1 4 923.534 328.407 4
3 1 -4 1035.16 280.465 18
-3 1 4 1082.84 340.324 16
-3 1 4 1122.29 350.581 18
3 1 -3 6945.98 391.105 1
3 1 -3 7612.96 567.787 6
-3 1 3 6428.43 579.885 16
-3 1 3 7082.34 594.313 18
3 1 -3 6520.28 400.876 14
3 1 -3 6900.26 395.311 5
-3 1 3 7194.69 428.199 11
3 1 -3 6925.43 546.46 3
-3 1 3 5989.31 543.228 4
-3 1 3 7000.33 339.052 9
3 1 -3 7610.1 584.942 18
3 1 -3 6874.18 478.186 8
-3 1 3 6708.36 562.592 15
-3 1 3 7824.39 621.754 8
3 1 -3 6814.83 564.387 7
3 1 -3 4563.13 527.253 2
-3 1 3 7339.23 551.314 7
3 1 -2 12084.2 732.999 15
3 1 -2 11708.1 604.294 1
3 1 -2 11150.7 461.257 14
3 1 -2 13109.6 691.576 6
3 1 -2 12814.7 720.451 3
3 1 -2 13421.4 688.385 2
-3 1 2 11416.4 725.227 18
3 1 -2 12377.5 683.373 8
3 1 -2 11651 591.299 5
3 1 -2 12257.8 737.789 18
-3 1 2 11362.3 714.412 15
-3 1 2 11782.3 714.594 4
-3 1 2 13149.5 671.564 7
-3 1 2 12956.5 769.351 8
3 1 -2 10785.6 727.968 7
3 1 -1 26119.6 1148.95 15
3 1 -1 27407.7 1165.18 18
3 1 -1 25956.6 1071.04 6
3 1 -1 27702.7 1086.67 1
3 1 -1 27009.1 1172.11 3
-3 1 1 28173.9 1001.39 7
-3 1 1 26732.1 1113.06 18
3 1 -1 27844.3 1068.84 5
-3 1 1 27647.4 1178.05 8
3 1 -1 26685.5 1129.5 8
3 1 -1 28622.5 1069.82 2
-3 1 1 26899.5 1105.89 15
-3 1 0 19978.4 789.777 2
3 1 0 24723.6 1097.84 3
3 1 0 22973.7 1013.87 5
-3 1 0 23815.2 1079.63 5
3 1 0 21981.1 995.196 10
3 1 0 23791.5 964.199 13
3 1 0 25169.7 953.385 2
-3 1 0 22744.5 945.335 18
-3 1 0 25200.9 1070.24 8
3 1 0 24511.5 1045.58 1
3 1 0 22857.6 1046.48 15
-3 1 0 24352.9 842.035 7
-3 1 0 22469.7 944.977 15
3 1 1 13157.1 757.529 15
-3 1 -1 12940.1 559.149 7
-3 1 -1 13733.9 767.93 8
-3 1 -1 13693.8 731.896 13
-3 1 -1 12840.5 631.836 15
-3 1 -1 13233.4 747.912 14
3 1 1 13127.6 790.827 1
3 1 1 14752 824.531 3
3 1 1 12936.9 784.914 5
3 1 1 13392.6 723.588 13
3 1 1 13765 682.894 2
-3 1 -1 13438.1 803.021 5
3 1 1 12665.9 767.847 10
-3 1 -1 12296.3 621.608 18
-3 1 -1 11941.2 540.952 2
-3 1 -1 13689.6 569.866 6
-3 1 -2 128491 3429.75 15
-3 1 -2 141626 3812.69 14
-3 1 -2 138023 3486.97 6
3 1 2 133264 3922.51 1
3 1 2 132787 3724.2 13
-3 1 -2 140101 3788.36 13
3 1 2 150934 3906.74 3
-3 1 -2 124650 3900.82 12
3 1 2 124205 3808.51 5
3 1 2 139502 3757.41 11
-3 1 -2 139906 3886.7 5
3 1 2 127307 3805.97 10
-3 1 -2 128816 3430.36 18
3 1 2 130492 3713.89 18
-3 1 -2 136793 3714.3 8
-3 1 -2 130350 3483.94 2
3 1 2 129122 3697.01 15
-3 1 -3 154374 3953.27 6
3 1 3 143690 4156.99 13
-3 1 -3 154692 4117.01 4
3 1 3 140734 4233.61 5
3 1 3 160228 4220.98 11
3 1 3 140329 4241.14 10
-3 1 -3 154691 4110.32 10
-3 1 -3 143415 3680.21 18
3 1 3 141607 4051.4 18
-3 1 -3 150649 4042.99 8
3 1 3 139923 4046.45 15
-3 1 -3 151429 4005.1 16
-3 1 -3 150099 3968.79 2
3 1 4 11927.1 839.716 13
3 1 4 11079.3 821.333 5
-3 1 -4 11734.2 696.474 6
3 1 4 11692.1 875.559 10
-3 1 -4 12290.7 741.372 10
3 1 4 10907 707.003 18
-3 1 -4 12201 735.659 2
3 1 4 11150.1 708.051 15
-3 1 -4 11994.6 699.83 16
-3 1 -4 12373.8 710.871 8
3 1 5 680.774 272.975 15
-3 1 -5 89.6745 262.169 3
-3 1 -5 955.688 341.891 11
3 1 5 736.305 321.027 5
3 1 5 581.695 361.01 10
3 1 5 541.661 329.226 13
-3 1 -5 1481.16 385.416 2
3 1 5 490.288 243.532 18
3 1 5 486.68 353.774 16
-3 1 -5 412.039 179.89 8
-3 1 -5 715.543 214.237 16
3 1 6 2645.51 370.205 15
3 1 6 2645.29 542.328 13
3 1 6 2762.78 528.911 16
3 1 6 2763.96 368.99 17
-3 1 -6 3197.27 482.136 11
3 1 6 3405.28 537.823 5
3 1 6 3018.64 538.301 10
-3 1 -6 1593 304.46 3
3 1 6 2628.45 366.633 18
-3 1 -6 3094.56 351.058 8
-3 1 -6 2170.76 413.345 1
3 1 7 1766.95 326.124 15
-3 1 -7 407.019 270.756 7
3 1 7 1539.48 526.952 13
-3 1 -7 1467.71 403.636 11
-3 1 -7 929.26 294.161 1
3 1 7 1291.9 401.081 5
3 1 7 1543.93 450.813 10
-3 1 -7 1461.94 346.632 3
-3 1 -7 1368.06 229.259 8
3 1 7 1604.64 293.779 18
3 1 7 1764.76 295.021 17
3 1 7 1216.24 449.995 4
3 1 7 1877.86 506.336 16
3 1 8 1174.33 284.605 15
3 1 8 1016.26 491.304 13
3 1 8 528.551 393.287 4
-3 1 -8 1743.82 444.984 11
-3 1 -8 1145.76 338.477 1
-3 1 -8 896.377 271.943 7
3 1 8 1143.95 420.682 10
3 1 8 646.484 369.274 5
-3 1 -8 1822.91 436.351 3
-3 1 -8 1661.68 445.745 9
3 1 8 1798.52 311.824 18
-3 1 -8 1870.52 294.373 8
3 1 8 1747.19 308.961 17
3 1 8 1390.44 485.069 16
-3 1 -9 24142.2 1473.95 1
3 1 9 24370.8 1180.75 18
-3 1 -9 23805.6 1573.84 11
3 1 9 25438.9 1532.91 5
3 1 9 24357.9 1592.78 10
3 1 9 23347.7 1618.9 4
3 1 9 22671.9 1560.85 16
-3 1 -9 22661.9 1482.41 9
-3 1 -9 22324.4 1405.69 3
3 1 9 24559.6 1168.26 17
3 1 9 25185.7 1332.78 12
3 1 9 25456.1 1188.22 15
-3 1 -9 23897.4 1416.97 7
-3 1 -10 6436.2 773.899 7
3 1 10 4957.41 783.863 4
3 1 10 5424.49 528.101 18
-3 1 -10 6639.68 769.077 3
3 1 10 5228.33 638.479 12
-3 1 -10 5278.92 789.371 11
3 1 10 5884.17 538.166 17
3 1 10 5802.26 828.731 10
3 1 10 7380.38 852.715 5
-3 1 -10 5145.35 742.216 9
-3 1 -10 5129.34 689.636 1
3 1 10 6378.94 867.422 16
3 1 10 5724.68 543.537 15
-3 1 -11 3656.79 660.968 7
3 1 11 3531.36 573.247 12
-3 1 -11 3910.78 753.199 11
-3 1 -11 2893.11 551.717 1
3 1 11 4129.81 780.471 10
-3 1 -11 3306.24 591.964 3
3 1 11 4265.1 708.313 5
3 1 11 4163.27 829.35 4
-3 1 -11 4080.51 717.949 9
3 1 11 2994.04 777.068 16
3 1 12 1894.72 684.859 4
-3 1 -12 2150.77 529.822 1
-3 1 -12 2206.43 598.471 9
-3 1 -12 1794.56 605.882 11
-3 1 -12 1879.65 521.369 7
3 1 12 1373.19 592.451 10
3 1 12 512.68 349.612 5
3 1 12 2454.35 686.057 16
-3 1 -13 1852.09 575.308 7
3 1 13 2231.94 802.316 4
-3 1 -13 -317.786 532.892 2
-3 1 -13 1391.43 544.93 11
3 1 13 1348.27 581.378 10
3 1 13 370.666 416.606 5
-3 1 -13 883.908 525.323 9
3 1 13 813.524 550.405 16
-3 1 -14 3585.78 756.15 9
-3 1 -14 1361.47 702.845 2
3 1 14 3067.08 754.233 10
3 1 14 3567 854.892 16
-3 2 15 993.565 525.636 10
3 2 -15 156.002 432.501 7
-3 2 14 -230.602 515.448 4
3 2 -14 -6.44644 447.74 11
-3 2 14 492.305 410.017 15
3 2 -14 247.428 453.405 7
-3 2 14 -238.392 461.969 10
3 2 -14 1.61649 531.698 2
-3 2 14 -173.589 367.059 18
-3 2 14 80.0359 545.702 16
-3 2 13 266.629 391.042 15
3 2 -13 120.352 391.449 11
-3 2 13 1265.83 655.449 4
-3 2 13 1747.41 652.209 10
3 2 -13 358.482 436.739 7
3 2 -13 20.7013 458.908 2
-3 2 13 -596.154 615.354 16
-3 2 13 176.282 399.147 18
3 2 -12 7260.97 924.795 7
-3 2 12 8330.78 948.19 15
-3 2 12 8652.77 888.379 12
3 2 -12 6418.21 953.216 11
-3 2 12 7520.58 1012.77 10
3 2 -12 8608.92 1163.6 2
-3 2 12 7326.05 1046.89 4
-3 2 12 8250.12 1103.45 16
-3 2 12 9305.27 1008.47 18
-3 2 11 1946.08 637.199 4
-3 2 11 2484.33 561.094 15
-3 2 11 2124.92 549.043 18
3 2 -11 1364.76 430.763 7
-3 2 11 2627.03 490.187 12
-3 2 11 1759.46 414.459 5
-3 2 11 2124.29 657.654 10
3 2 -11 2385.09 673.839 2
-3 2 11 2449.49 657.264 16
-3 2 10 27242.3 1663.24 18
3 2 -10 25513.2 1363.53 15
-3 2 10 26903.1 1470.51 12
-3 2 10 25489.3 1426.82 5
-3 2 10 25495.4 1724.96 10
-3 2 10 28130.7 1665.05 15
-3 2 10 27126.9 1769.61 4
-3 2 10 26863.8 1795.75 16
3 2 -10 23951.7 1556.56 7
3 2 -10 27103.4 1781.28 2
-3 2 9 7058.49 828.715 18
3 2 -9 6718.67 775.222 7
-3 2 9 7359.59 864.892 4
-3 2 9 7949.98 921.779 16
-3 2 9 7925.4 745.345 12
-3 2 9 6439.42 778.656 15
-3 2 9 7202.32 671.421 5
-3 2 9 6150.91 828.016 10
3 2 -9 7975.53 709.696 15
3 2 -9 8026.5 921.281 2
3 2 -8 3278.39 564.156 7
-3 2 8 3360.63 590.277 15
3 2 -8 2673.93 434.716 15
-3 2 8 2439.09 202.854 3
-3 2 8 3289.96 483.23 12
-3 2 8 3725.99 526.939 5
-3 2 8 3048.02 626.641 10
3 2 -8 3728.8 639.158 2
-3 2 8 2847.95 527.777 18
-3 2 8 3444.02 615.663 16
-3 2 8 3540.88 617.679 4
3 2 -7 717.855 281.986 15
-3 2 7 504.022 356.954 15
-3 2 7 -149.769 322.74 18
-3 2 7 138.533 130.981 3
-3 2 7 148.908 268.235 5
3 2 -7 226.745 325.394 2
-3 2 7 316.201 363.295 10
3 2 -7 630.446 344.845 7
3 2 -7 251.79 164.665 1
-3 2 7 176.595 353.239 16
-3 2 7 296.894 338.884 4
-3 2 6 6166.57 459.161 3
-3 2 6 4994.42 644.105 18
3 2 -6 5981.59 647.716 7
-3 2 6 6282.4 692.8 15
3 2 -6 5476.42 681.108 2
-3 2 6 5253.92 674.594 10
-3 2 6 5507.04 646.701 4
3 2 -6 5063.98 436.067 1
3 2 -6 5736.4 598.126 15
-3 2 6 5936.6 701.195 16
3 2 -5 28225.6 1365.69 15
-3 2 5 28380.1 1481.77 18
3 2 -5 29733.3 1184.16 5
-3 2 5 28496 1528.71 10
-3 2 5 28562.1 1477.8 16
3 2 -5 28770.4 1191.58 1
3 2 -5 31858.7 1545.87 2
3 2 -5 29006 1385.72 7
-3 2 5 30152.8 1515.16 15
-3 2 5 29952.7 1442.12 4
3 2 -4 36173.2 1599.56 15
-3 2 4 39122.8 1592.75 4
3 2 -4 41225.9 1494.57 14
-3 2 4 36635 1704.62 18
3 2 -4 37913.7 1588.57 7
3 2 -4 39716.7 1453.55 5
-3 2 4 36771.8 1699.53 10
-3 2 4 37101.2 1651.9 16
-3 2 4 37307.8 1703.68 15
3 2 -4 40193.5 1765.98 2
3 2 -4 37415.4 1446.22 1
3 2 -3 8402.34 707.563 15
3 2 -3 8944.8 629.951 1
3 2 -3 9248.51 564.686 14
3 2 -3 8369.71 639.446 5
-3 2 3 9274.97 761.142 15
-3 2 3 9973.55 573.116 9
-3 2 3 8509.43 731.515 18
-3 2 3 9159.09 664.862 4
-3 2 3 8866 686.979 16
3 2 -3 8988.67 761.343 2
3 2 -3 7654.22 651.534 7
-3 2 2 1697.55 347.403 2
-3 2 2 1292.52 390.075 15
3 2 -2 802.43 327.446 15
3 2 -2 686.98 336.821 2
3 2 -2 948.336 286.605 5
-3 2 2 571.851 203.747 4
-3 2 2 897.382 239.251 9
-3 2 2 727.623 301.28 18
3 2 -2 1386.51 279.409 1
-3 2 2 440.525 244.567 16
-3 2 1 529.88 252.179 2
3 2 -1 889.715 337.764 15
-3 2 1 715.261 273.958 15
3 2 -1 852.81 346.304 2
-3 2 1 719.635 263.463 16
-3 2 1 733.988 279.176 9
3 2 -1 665.133 289.863 5
3 2 -1 674.1 245.513 10
-3 2 1 439.939 249.075 18
3 2 -1 728.422 213.072 13
-3 2 1 896.334 239.734 4
-3 2 0 20783.4 905.27 16
3 2 0 20976.9 1091.64 2
3 2 0 19297.6 1060.05 5
3 2 0 19632 963.004 10
3 2 0 18527.5 1074.37 15
-3 2 0 20243.4 1020.34 9
-3 2 0 18116 975.661 18
3 2 0 18204.5 1076.54 18
3 2 0 19924.2 842.086 13
-3 2 0 15880 931.828 2
-3 2 0 18989 982.51 15
3 2 1 5521.77 594.973 15
-3 2 -1 4914.93 474.85 15
3 2 1 4581.65 541.829 2
-3 2 -1 5327.59 475.754 6
3 2 1 5688.57 463.092 13
-3 2 -1 6019.1 481.581 13
3 2 1 5002.92 584.99 5
3 2 1 4938.4 579.081 18
3 2 1 5614.76 556.741 10
-3 2 -1 6498.6 625.505 9
-3 2 -1 5762.61 499.4 18
-3 2 -1 4117.43 488.885 2
-3 2 -2 72586.4 2282.04 18
3 2 2 75586.9 2330.39 13
-3 2 -2 76787.8 2386.49 13
3 2 2 76137.3 2572.33 2
3 2 2 70510.5 2614.72 5
3 2 2 71237.8 2572.77 18
3 2 2 71642.5 2546.81 10
-3 2 -2 75686.9 2607.9 9
-3 2 -2 74742.6 2394.03 2
-3 2 -2 73867.4 2276.29 15
-3 2 -2 78555.4 2418.86 6
3 2 2 73481.8 2579.59 15
-3 2 -3 30373.3 1319.77 2
3 2 3 32622.7 1340.71 13
3 2 3 28577.7 1492.1 5
3 2 3 28670.6 1462.43 10
-3 2 -3 29190.2 1484.5 9
-3 2 -3 30351.3 1345.14 8
-3 2 -3 31821.6 1221.71 4
-3 2 -3 30974.2 1138.35 18
3 2 3 29388 1446.98 18
-3 2 -3 30363.8 1131.24 15
-3 2 -3 28207.9 856.56 7
3 2 3 30012.9 1430.59 15
3 2 4 28801 1332.94 13
3 2 4 25615.5 1367.47 15
-3 2 -4 28175.3 1210.79 4
3 2 4 24493.7 1420.28 5
3 2 4 26287.1 1472.9 10
-3 2 -4 27862.9 1210.06 10
-3 2 -4 27827.9 1000.87 15
-3 2 -4 25899.5 1437.71 9
-3 2 -4 27950.1 999.011 18
-3 2 -4 29754.3 1087.58 16
3 2 4 27034.8 1388.6 18
-3 2 -4 27692.3 1248.33 8
-3 2 -4 25961 1249.75 2
-3 2 -4 28396.7 938.536 7
-3 2 -5 6732.07 499.816 16
-3 2 -5 6519.32 743.789 9
3 2 5 5773.2 679.877 13
-3 2 -5 5690.22 579.907 2
3 2 5 5257.92 665.578 5
3 2 5 5898.12 726.372 10
-3 2 -5 6395.58 343.273 18
3 2 5 6643.66 678.176 18
-3 2 -5 5996.91 553.783 8
3 2 5 5834.49 735.498 16
-3 2 -5 6198.57 336.548 15
-3 2 -5 7320.96 460.115 7
3 2 5 6297.58 673.149 15
3 2 6 1866.9 408.452 15
-3 2 -6 1416.25 263.642 7
3 2 6 1077.93 355.948 13
-3 2 -6 1708.66 433.862 2
3 2 6 1393.24 420.633 5
3 2 6 1803.96 501.48 10
-3 2 -6 1438.07 272.498 8
3 2 6 1233.6 420.945 17
-3 2 -6 1338.41 420.209 9
3 2 6 1281.45 394.07 18
-3 2 -6 1852.13 297.22 16
3 2 6 1530.93 530.022 16
3 2 7 2223.74 437.35 15
-3 2 -7 1770.22 455.902 9
3 2 7 1980.59 441.523 17
3 2 7 1468.85 531.908 13
3 2 7 1646.8 595.926 16
-3 2 -7 2484.85 520.448 2
3 2 7 2029.12 487.212 5
3 2 7 2243.07 556.017 10
3 2 7 1823.72 424.993 18
-3 2 -7 2186.77 351.52 7
3 2 8 7853.94 934.843 4
3 2 8 8935.46 946.678 5
3 2 8 8939.42 987.652 10
-3 2 -8 8317.75 937.13 9
3 2 8 8030.46 777.162 18
3 2 8 8624.16 807.955 17
-3 2 -8 8267.75 680.04 7
3 2 8 8331.06 977.852 16
-3 2 -8 8680.67 914.936 2
3 2 8 8314.29 783.284 15
-3 2 -9 11120.5 1050.33 2
-3 2 -9 9302.13 964.858 3
-3 2 -9 11886.4 1087.29 1
-3 2 -9 10512.1 1077.64 11
3 2 9 10704.9 1081.23 5
3 2 9 10675.8 1139.83 10
-3 2 -9 9857.1 1018.97 9
3 2 9 11228.2 927.398 18
3 2 9 11781.5 938.78 17
3 2 9 10490.4 1145.94 4
3 2 9 9757.97 1106.08 16
-3 2 -9 9830.43 800.464 7
3 2 9 10403.1 902.774 15
3 2 10 1899.84 430.015 18
3 2 10 1105.33 369.523 15
-3 2 -10 1535.32 517.357 11
-3 2 -10 1614.71 551.926 1
-3 2 -10 620.918 382.681 9
-3 2 -10 2349.4 582.704 2
3 2 10 1700.74 515.631 5
3 2 10 1345.34 545.695 10
-3 2 -10 1823.42 533.858 3
3 2 10 780.065 547.411 4
3 2 10 1836.38 420.407 17
3 2 10 1146.17 567.894 16
-3 2 -11 1780.41 577.411 2
3 2 11 987.736 608.982 4
-3 2 -11 1922.62 629.704 11
3 2 11 1943.84 666.993 10
3 2 11 2013.26 572.126 5
-3 2 -11 1646.7 520.885 1
-3 2 -11 2782.87 646.136 3
-3 2 -11 1372.02 450.033 9
3 2 11 1458.22 567.954 16
-3 2 -12 1191.5 625.021 11
-3 2 -12 1956.51 587.582 1
3 2 12 2041.91 759.068 4
-3 2 -12 -147.201 477.022 9
-3 2 -12 2215.45 656.886 2
3 2 12 281.552 468.089 10
3 2 12 1498.9 509.422 5
-3 2 -12 1814.27 575.946 3
3 2 12 1764.01 665.141 16
-3 2 -13 3169.81 737.863 2
3 2 13 1099.28 588.587 10
3 2 13 3186.18 786.241 5
-3 2 -13 3114.18 720.649 9
3 2 14 -559.172 513.729 5
-3 3 14 298.542 438.351 15
-3 3 14 1548.78 608.744 18
-3 3 13 1107.25 549.169 15
-3 3 13 1345.23 606.824 18
-3 3 13 2311.09 737.32 10
-3 3 13 748.492 578.986 4
-3 3 12 853.035 463.994 15
3 3 -12 1896.73 580.481 7
3 3 -12 1906.97 683.281 2
-3 3 12 437.476 509.775 10
-3 3 12 2388.12 671.005 18
-3 3 12 2476.93 749.169 4
-3 3 12 1167.33 620.202 16
-3 3 11 11234.6 1213.24 4
-3 3 11 11285 1051.04 5
3 3 -11 10829.2 1243.95 2
-3 3 11 10313.7 1134.36 18
-3 3 11 10733.3 1273.02 10
-3 3 11 10347.4 1228.66 16
3 3 -11 10550.3 1061.77 7
-3 3 11 10798.4 1137.86 15
3 3 -10 5499.59 750.576 7
-3 3 10 6207.49 869.215 15
-3 3 10 4955.69 811.527 4
-3 3 10 4967.27 818.108 18
3 3 -10 4460.44 811.483 2
-3 3 10 5675.01 761.656 5
-3 3 10 5022.16 886.892 10
-3 3 10 4933.87 853.8 16
3 3 -9 923.424 375.213 7
-3 3 9 1690.5 524.248 4
-3 3 9 496.62 402.363 15
3 3 -9 1347.77 402.089 15
-3 3 9 1009.66 533.818 16
-3 3 9 1283.18 336.041 12
3 3 -9 1355.25 539.54 2
-3 3 9 1582.48 463.628 5
-3 3 9 598.103 526.643 10
-3 3 9 522.821 372.27 18
-3 3 8 3405.45 612.025 4
-3 3 8 3382.54 659.257 15
3 3 -8 2680.3 485.121 15
3 3 -8 3335.5 685.925 2
-3 3 8 3234.59 589.113 5
-3 3 8 3807.37 731.426 10
-3 3 8 3035.63 641.847 18
3 3 -8 3653.42 586.568 7
-3 3 8 3736.91 717.365 16
3 3 -7 2846.69 500.261 7
3 3 -7 3589.18 538.693 15
-3 3 7 3728.32 676.843 15
3 3 -7 2141.37 571.75 2
-3 3 7 5260.27 757.489 5
-3 3 7 2662.48 597.485 10
-3 3 7 3193.98 576.26 4
-3 3 7 3147.86 563.299 16
-3 3 7 3257.64 635.025 18
-3 3 6 11095.2 1036.95 10
-3 3 6 10366.1 1013.55 18
-3 3 6 10283.4 891.575 4
3 3 -6 10538.8 1032.44 2
-3 3 6 9899.5 957.006 16
3 3 -6 10348.3 879.277 7
-3 3 6 10730.5 1031.47 15
3 3 -6 10221.3 877.831 15
3 3 -5 6527.41 773.191 2
3 3 -5 6448.96 714.858 18
-3 3 5 6714.55 792.389 10
-3 3 5 5908.83 746.38 15
-3 3 5 6812.66 742.408 16
-3 3 5 6505.76 749.093 17
-3 3 5 6668.6 683.853 4
3 3 -5 6201.47 634.583 7
-3 3 5 6416.01 771.717 18
3 3 -5 6452.75 711.881 15
-3 3 4 1940.36 493.81 15
3 3 -4 1576.48 383.202 15
3 3 -4 1702.02 477.885 2
3 3 -4 1860.69 399.158 5
-3 3 4 1773.39 466.754 10
-3 3 4 1508.13 429.821 16
-3 3 4 1250.02 394.341 18
3 3 -4 1889.25 424.073 18
-3 3 4 1780.75 463.771 17
-3 3 4 2080.67 381.276 4
-3 3 3 9727.08 879.058 17
3 3 -3 9130.55 811.89 5
-3 3 3 9448.75 866.968 10
-3 3 3 7717.87 799.749 18
-3 3 3 8187.73 805.056 2
3 3 -3 9225.14 840.391 18
-3 3 3 9614.22 674.753 4
3 3 -3 8852.78 896.169 2
-3 3 3 9451.42 767.52 16
-3 3 3 8130.66 831.655 15
3 3 -3 8907.14 823.803 15
3 3 -2 10251.5 541.994 13
3 3 -2 10476.6 867.277 5
-3 3 2 10016.3 734.641 16
-3 3 2 10670.9 869.924 10
3 3 -2 10263.5 648.89 10
-3 3 2 9990.26 782.33 9
-3 3 2 10562.1 885.916 18
3 3 -2 9345.81 835.826 15
-3 3 2 8687.86 790.772 2
-3 3 2 11129.9 665.537 4
-3 3 2 9724.75 862.888 17
3 3 -2 10526 907.88 2
3 3 -2 9688.7 852.501 18
-3 3 2 10244.2 885.001 15
3 3 -1 23838.6 1400.49 15
-3 3 1 24478.3 1137.74 16
3 3 -1 23699.5 885.006 13
3 3 -1 25994 1450.76 2
3 3 -1 24556.7 1375.61 5
-3 3 1 23996.9 1335.45 18
-3 3 1 25120.9 986.507 4
3 3 -1 23021.1 1122.6 10
-3 3 1 24058 1348.6 15
-3 3 1 25453.1 1316.86 9
3 3 -1 24724.8 1419.85 18
-3 3 1 24297 1300.65 2
-3 3 1 22472.1 1283.92 17
-3 3 0 25251.7 925.066 4
3 3 0 25476.2 926.481 13
3 3 0 24037.9 1390.91 5
3 3 0 24789.3 1248.06 10
-3 3 0 24931.1 1349.58 9
-3 3 0 23024.7 1296.36 18
3 3 0 23507.3 1402.5 18
3 3 0 25315.8 1451.41 15
-3 3 0 25446.4 1319.09 2
3 3 0 24678.4 1429.97 2
-3 3 0 24299.9 1053.3 16
-3 3 0 23674.4 1283.62 17
-3 3 0 22801 1277.03 15
-3 3 -1 4437.03 543.339 15
3 3 1 4702.07 656.232 15
3 3 1 4214.2 587.981 2
3 3 1 5065.12 395.525 13
-3 3 -1 3300.3 543.319 2
3 3 1 4106.04 610.813 5
-3 3 -1 4403.16 602.224 9
-3 3 -1 4782.69 376.757 16
3 3 1 3829.47 505.699 10
-3 3 -1 4727.54 338.456 4
-3 3 -1 4315.68 529.651 18
3 3 1 3565.65 578.657 18
-3 3 -1 4587.13 560.544 17
3 3 2 6408.81 836.97 2
-3 3 -2 8665.72 468.002 4
3 3 2 8616.56 571.438 13
3 3 2 7821.59 839.762 5
3 3 2 7831.51 755.652 10
-3 3 -2 7486.5 788.413 9
3 3 2 8131.8 843.071 18
-3 3 -2 8621.85 701.856 18
-3 3 -2 7937.7 663.098 17
-3 3 -2 8741.48 767.039 2
-3 3 -2 8105.99 444.709 16
-3 3 -2 8238.21 601.854 13
-3 3 -2 7498.91 668.39 15
3 3 2 7913.31 818.358 15
-3 3 -3 16053.4 607.682 16
3 3 3 16891.5 905.772 13
-3 3 -3 16056.9 922.171 17
3 3 3 12806.8 1173.98 5
3 3 3 15014.5 1109.08 10
-3 3 -3 16386.3 1171.49 9
-3 3 -3 15358.9 922.81 18
3 3 3 14849.1 1148.77 18
3 3 3 14868.6 1179.11 2
-3 3 -3 16023.4 621.569 16
-3 3 -3 17616 757.363 4
-3 3 -3 16314.7 1078.25 2
-3 3 -3 15632.3 921.761 15
3 3 3 15384.6 1134.76 15
3 3 4 5055.18 692.374 15
3 3 4 5676.84 596.82 13
-3 3 -4 4779.11 608.621 2
3 3 4 5221.76 724.114 5
-3 3 -4 5092.02 288.652 16
3 3 4 5933.24 750.639 10
-3 3 -4 5214.28 718.208 9
-3 3 -4 5322.52 491.373 18
3 3 4 4885.1 693.301 18
-3 3 -4 5096.5 477.46 17
-3 3 -4 6130.8 551.115 15
3 3 5 10304.6 1011.7 16
3 3 5 11037.5 1078.71 5
3 3 5 10234.5 1012.89 10
-3 3 -5 11842.6 697.704 18
-3 3 -5 12338.3 1108.97 9
3 3 5 10899.3 1027.47 18
3 3 5 11273.9 1025.46 17
-3 3 -5 11887.6 994.839 2
-3 3 -5 11459.6 687.744 15
3 3 5 10517 989.105 15
3 3 6 326.995 382.306 15
-3 3 -6 -175.643 381.557 9
-3 3 -6 461.997 282.875 2
3 3 6 448.167 396.24 5
3 3 6 36.7527 440.04 10
3 3 6 887.726 411.494 18
3 3 6 596.408 325.236 17
3 3 6 939.77 482.948 16
3 3 7 2986.31 618.521 15
3 3 7 3134.46 685.267 16
3 3 7 3090.35 627.789 17
-3 3 -7 2643.94 612.031 2
-3 3 -7 3797.09 744.66 9
3 3 7 3608.24 673.262 5
3 3 7 3525.72 725.909 10
3 3 7 2947.35 590.952 18
3 3 8 1479.06 452.532 15
-3 3 -8 1552.27 580.86 9
-3 3 -8 2817.59 589.29 2
3 3 8 2014.75 566.584 5
3 3 8 2259.13 561.198 18
3 3 8 2378.19 618.606 10
3 3 8 1999.13 533.417 17
3 3 8 2205.01 702.184 16
3 3 9 1026.42 439.96 15
-3 3 -9 1621.19 512.526 2
3 3 9 1289.9 565.112 5
3 3 9 1008.45 497.514 10
-3 3 -9 1144.54 542.566 9
3 3 9 1095.27 445.096 18
3 3 9 1125.35 481.585 17
3 3 9 1843.58 635.823 16
3 3 10 173.893 367.401 15
-3 3 -10 -302.245 381.011 2
3 3 10 582.93 492.537 5
3 3 10 920.156 478.522 10
-3 3 -10 313.175 435.374 9
3 3 10 700.613 426.821 18
3 3 10 536.161 403.916 17
3 3 10 1204.08 679.207 16
3 3 11 2839.59 600.623 15
-3 3 -11 2471.22 599.862 1
3 3 11 1665.29 554.827 17
-3 3 -11 1543.02 538.099 11
-3 3 -11 2190.42 569.074 2
-3 3 -11 -84.1921 483.003 9
3 3 11 2068.19 624.41 5
3 3 11 3092.49 806.373 10
3 3 11 2442.23 605.387 18
3 3 11 1728.89 673.216 16
-3 3 -12 3026.78 648.324 9
-3 3 -12 3519.56 795.621 2
3 3 12 4960.06 949.887 5
-3 3 -12 4248.37 823.429 3
3 3 13 3192.1 789.072 5
-3 4 12 5960.98 1036.06 4
-3 4 11 3327.98 833.107 4
-3 4 11 1528.41 627.352 15
3 4 -11 2350.07 825.263 2
-3 4 11 1947.28 673.029 10
-3 4 11 1596.06 465.47 5
-3 4 11 1825.84 579.602 18
-3 4 11 2268.7 730.639 16
-3 4 10 248.395 436.559 15
-3 4 10 1180.87 650.221 18
3 4 -10 74.2638 505.221 2
-3 4 10 900.862 425.445 5
-3 4 10 -186.171 507.705 10
-3 4 10 578.499 481.175 16
-3 4 10 650.515 572.399 4
-3 4 9 5045.24 815.262 4
-3 4 9 4846.88 855.193 15
-3 4 9 5100.52 868.681 18
3 4 -9 3762.93 772.948 2
-3 4 9 4125.87 789.202 5
-3 4 9 4921.97 910.509 10
-3 4 9 4371.57 819.105 16
-3 4 8 -4.23999 416.421 4
-3 4 8 81.0235 405.71 15
3 4 -8 246.496 345.191 15
-3 4 8 254.284 397.9 18
3 4 -8 125.507 284.673 18
3 4 -8 -350.407 530.051 2
-3 4 8 -339.488 368.283 5
-3 4 8 35.77 472.689 10
-3 4 8 404.304 403.297 16
-3 4 7 4704.81 827.704 15
3 4 -7 4144.98 660.38 15
3 4 -7 5498.24 743.719 18
3 4 -7 3894.79 785.603 2
-3 4 7 4456.78 848.082 5
-3 4 7 4746.42 793.649 10
-3 4 7 3048.59 644.977 18
-3 4 7 3404.22 698.031 17
-3 4 7 3530.29 610.309 4
-3 4 7 3527.46 693.448 16
-3 4 6 6617.58 912.655 15
-3 4 6 7970.11 1009.73 18
-3 4 6 8175.6 969.886 10
3 4 -6 7725.93 860.645 18
-3 4 6 7801.12 793.549 4
-3 4 6 6915.49 927.716 17
-3 4 6 7390.34 873.067 16
3 4 -6 6869.08 1028.8 2
3 4 -6 8702.49 902.51 15
-3 4 5 6745.21 906.073 15
3 4 -5 7305.29 834.647 15
3 4 -5 8159.46 986.405 2
3 4 -5 7790.66 878.34 5
-3 4 5 8189.58 968.192 10
3 4 -5 9103.02 940.79 18
-3 4 5 7436.75 944.855 18
-3 4 5 8325.15 771.046 4
-3 4 5 7619.6 918.368 17
-3 4 5 7799.56 861.924 16
-3 4 4 19432.2 1276.03 16
-3 4 4 20831.6 1445.89 10
3 4 -4 17583.3 1316.48 18
-3 4 4 20426.1 1107.21 4
-3 4 4 17195.5 1361.41 17
3 4 -4 16286.3 1362.04 2
-3 4 4 16614.1 1365.47 18
3 4 -4 18541.2 1348.18 5
-3 4 4 16338.1 1346.88 15
3 4 -4 16649.1 1279.56 15
3 4 -3 6132.59 796.319 15
3 4 -3 7100.15 930.849 2
3 4 -3 6646.12 833.763 5
-3 4 3 6674.77 794.236 10
3 4 -3 6377.55 833.799 18
-3 4 3 7184.64 880.886 2
-3 4 3 6275.32 853.988 18
-3 4 3 7291.62 602.287 4
-3 4 3 7542.12 901.138 17
-3 4 3 6251.33 694.096 16
-3 4 3 5843.4 798.956 15
-3 4 2 7333.95 868.692 15
-3 4 2 6307.68 806.904 2
3 4 -2 7180.85 862.219 15
3 4 -2 7596.14 929.982 2
3 4 -2 6589.14 833.467 5
3 4 -2 7330.25 592.707 10
-3 4 2 7490.92 814.341 10
-3 4 2 7976.07 712.606 16
-3 4 2 6409.09 786.416 18
3 4 -2 5875.6 779.072 18
-3 4 2 6098.79 795.116 17
-3 4 1 3374.62 601.987 15
3 4 -1 3130.95 611.617 15
-3 4 1 2339.74 524.829 2
3 4 -1 2893.6 613.233 2
3 4 -1 3087.7 626.736 5
-3 4 1 3810.46 574.283 10
-3 4 1 3568.17 627.129 17
3 4 -1 3172.71 469.849 10
-3 4 1 2758.3 564.862 18
3 4 -1 3348.72 655.655 18
-3 4 1 2859.67 411.306 16
-3 4 0 895.292 406.894 15
3 4 0 407.27 393.661 18
-3 4 0 804.582 400.363 2
3 4 0 645.068 361.359 15
3 4 0 -82.7653 354.961 5
-3 4 0 629.407 332.773 10
3 4 0 359.795 326.937 2
3 4 0 457.247 291.606 10
-3 4 0 801.403 451.227 9
-3 4 0 521.364 326.652 18
-3 4 0 1276.65 479.415 17
-3 4 0 698.566 207.727 16
-3 4 -1 6487.25 748.032 15
3 4 1 7239.82 889.49 15
3 4 1 8313.27 915.267 2
-3 4 -1 6530.62 767.083 18
-3 4 -1 9140.53 798.538 10
3 4 1 7079.39 937.561 5
3 4 1 7108.75 750.429 10
-3 4 -1 7434.63 867.762 9
-3 4 -1 6264.89 874.69 2
3 4 1 6730.33 879.592 18
-3 4 -1 7255.56 788.406 17
-3 4 -2 12639.1 1133.11 2
3 4 2 13928.4 1247.84 5
-3 4 -2 14518.9 972.354 10
3 4 2 13318.7 1096.04 10
3 4 2 14925.7 1329.12 2
-3 4 -2 15362.1 1233.89 9
-3 4 -2 15459.8 1127.79 18
3 4 2 13906.6 1238.81 18
-3 4 -2 14984.5 1074.59 17
-3 4 -2 14717 1095.42 15
3 4 2 15039.9 1273.18 15
-3 4 -3 4443.88 599.508 18
3 4 3 4004.94 715.251 2
3 4 3 4563.34 728.496 15
-3 4 -3 2731.21 649.314 2
-3 4 -3 4669.11 586.781 15
3 4 3 4560.02 766.57 5
-3 4 -3 5350.73 637.891 17
3 4 3 3893.23 655.334 17
3 4 3 4921.94 700.818 10
-3 4 -3 4303.81 714.221 9
3 4 3 3971.86 698.553 18
3 4 4 2617.91 627.969 2
3 4 4 3453.08 670.947 15
-3 4 -4 2384.57 670.147 2
3 4 4 3126.42 670.089 18
-3 4 -4 2863.74 479.331 18
-3 4 -4 2984.07 508.966 17
3 4 4 2714.69 618.583 5
3 4 4 2743.64 614.483 17
3 4 4 2629.89 653.837 10
-3 4 -4 3616.77 750.984 9
-3 4 -4 3228.17 537.385 15
3 4 5 3462.63 715.206 15
3 4 5 3825.06 746.338 17
-3 4 -5 2899.11 647.193 2
3 4 5 3499.15 735.376 5
3 4 5 2461.02 575.964 10
-3 4 -5 3476.01 734.013 9
3 4 5 2677.67 667.846 18
3 4 6 10521 1156.02 10
3 4 6 7852.92 1037.2 5
-3 4 -6 10358.6 1157.95 9
3 4 6 8903.93 1100.44 18
-3 4 -6 9268.04 1073.06 2
3 4 6 9098.92 1079.93 17
3 4 6 10814.6 1125.76 15
3 4 7 1031.68 493.848 17
3 4 7 2771.83 660.243 15
-3 4 -7 2976.88 708.005 2
3 4 7 2535.19 716.742 5
3 4 7 2347.43 619.836 10
-3 4 -7 2188.32 651.536 9
3 4 7 2071.68 616.814 18
3 4 7 1794.56 613.474 16
3 4 8 251.493 373.075 15
-3 4 -8 333.755 432.371 2
3 4 8 260.405 457.636 16
3 4 8 -91.5487 451.085 5
3 4 8 836.661 602.645 10
-3 4 -8 412.826 452.014 9
3 4 8 413.98 449.874 18
3 4 8 967.891 450.934 17
3 4 9 4390.54 815.344 15
-3 4 -9 5417.52 927.543 2
3 4 9 3289.53 815.495 5
3 4 9 5326.37 932.976 10
-3 4 -9 4570.36 935.131 9
3 4 9 5100.03 851.27 18
3 4 9 3673.36 752.909 17
3 4 9 5078.78 969.615 16
3 4 10 4875.76 859.869 17
3 4 10 4250.71 804.014 15
3 4 10 3329.22 820.333 16
-3 4 -10 4280.86 884.446 2
3 4 10 3509.22 799.115 5
3 4 10 3320.5 720.977 18
3 4 11 9597.29 1177.06 15
-3 4 -11 7472.23 1116.51 2
3 4 11 8717.2 1123.86 18
3 4 11 9204.32 1151.94 17
-3 5 10 369.119 482.183 5
-3 5 9 4012.81 871.902 5
-3 5 9 4262.88 905.608 16
-3 5 8 1587.35 661.102 15
3 5 -8 647.711 598.321 2
-3 5 8 1176.77 604.951 5
-3 5 8 2459.17 763.38 10
-3 5 8 1132.6 588.667 18
-3 5 8 1345.77 550.149 16
3 5 -7 2179.08 542.775 15
3 5 -7 2154.61 762.103 2
-3 5 7 3409.58 843.948 5
-3 5 7 2248.8 686.054 10
-3 5 7 140.802 464.04 17
-3 5 7 2352.75 664.588 18
3 5 -7 2307.06 637.166 18
-3 5 7 1523.73 628.101 15
-3 5 7 2204.7 650.458 16
-3 5 6 1075.99 532.879 15
3 5 -6 1746.86 540.33 15
3 5 -6 1816.2 639.765 2
-3 5 6 2477.51 632.997 16
3 5 -6 3222.08 715.737 5
-3 5 6 2751 743.957 10
-3 5 6 1319.68 569.448 18
3 5 -6 2137.36 592.08 18
-3 5 6 1620.58 625.378 17
3 5 -5 10892.4 1285.98 2
3 5 -5 10605.5 1144.41 5
-3 5 5 12249.9 1273.98 10
-3 5 5 10322.8 1202.86 18
3 5 -5 10793.8 1155.49 18
-3 5 5 9324.07 1126.86 17
-3 5 5 11186.6 1079.63 16
-3 5 5 10002.3 1203.7 15
3 5 -5 10930.8 1132.68 15
-3 5 4 2138.52 609.504 15
3 5 -4 2677.62 625.891 15
3 5 -4 1401.09 579.011 2
-3 5 4 830.421 463.022 17
3 5 -4 1842.17 633.751 5
-3 5 4 968.977 501.09 10
-3 5 4 1036.26 486.153 18
3 5 -4 2083.45 611.148 18
3 5 -3 25279.2 1771.26 5
-3 5 3 25114.1 1726.15 10
-3 5 3 25273.1 1842.78 18
-3 5 3 25557.3 1833.5 2
3 5 -3 24670.2 1766.92 18
3 5 -3 24596.8 1914.72 2
-3 5 3 22676 1721.03 17
-3 5 3 24756.7 1839.16 15
3 5 -3 24465.7 1752.51 15
3 5 -2 6060.56 926.585 18
-3 5 2 6647.73 941.349 15
3 5 -2 5241.75 833.312 15
-3 5 2 6179.42 892.349 2
3 5 -2 4842.23 834.758 2
3 5 -2 5220.36 920.279 5
-3 5 2 6561.26 828.296 10
-3 5 2 6346.4 926.156 18
-3 5 2 5070.03 823.216 17
-3 5 1 1570.54 561.357 15
3 5 -1 1295.45 535.624 15
-3 5 1 1576.83 575.248 2
3 5 -1 848.155 436.323 5
-3 5 1 2179.87 528.356 10
-3 5 1 1201.01 484.791 18
3 5 -1 1196.33 538.252 18
-3 5 1 1304.01 501.768 17
3 5 -1 618.709 501.581 2
-3 5 0 1630.8 583.46 2
3 5 0 1508.45 586.134 2
3 5 0 1178.06 517.414 15
3 5 0 1852.29 630.67 5
-3 5 0 1675.89 447.24 10
3 5 0 1632.39 551.346 17
3 5 0 872.867 500.882 18
-3 5 0 1619.33 532.091 18
-3 5 0 2193.49 572.561 17
-3 5 0 1831.23 543.245 15
-3 5 -1 2007.64 568.045 15
3 5 1 728.44 492.957 15
3 5 1 1094.26 569.522 2
-3 5 -1 1100.23 490.783 2
3 5 1 1261.89 568.958 5
3 5 1 1289.11 459.243 10
3 5 1 1106.4 548.211 18
-3 5 -1 1557.24 510.37 18
-3 5 -1 1121.32 411.163 17
3 5 1 1199.33 509.177 17
3 5 2 2253.54 680.876 18
-3 5 -2 1657.71 494.123 15
3 5 2 1800.06 664.029 2
3 5 2 1261.54 611.526 15
-3 5 -2 585.777 478.001 2
-3 5 -2 1719.82 627.948 9
3 5 2 1234.66 565.743 5
3 5 2 1252.79 458.467 10
-3 5 -2 940.183 437.733 18
-3 5 -2 1318.86 451.331 17
3 5 2 1392.19 536.384 17
3 5 3 2933.54 798.463 2
-3 5 -3 2561.04 542.49 15
3 5 3 2757.63 725.406 15
-3 5 -3 2371.13 662.986 2
3 5 3 3069.51 724.972 17
3 5 3 2187.16 662.083 5
3 5 3 3208.74 684.2 10
-3 5 -3 2754.44 614.101 18
3 5 3 2360.83 715.82 18
-3 5 -3 3612.7 658.798 17
-3 5 -3 2109.88 664.714 9
3 5 4 3591.82 783.928 15
3 5 4 4361.68 893.023 5
-3 5 -4 4948.93 873.427 2
3 5 4 3759.41 818.385 2
3 5 4 3390.23 743.059 10
-3 5 -4 2857.69 742.49 9
3 5 4 3838.07 770.18 18
3 5 4 3287.05 716.165 17
3 5 5 1031.67 560.851 15
-3 5 -5 239.564 430.976 2
3 5 5 120.649 567.34 5
3 5 5 601.416 457.324 10
3 5 5 304.771 404.86 18
-3 5 -5 551.5 572.564 9
3 5 5 447.979 407.143 17
3 5 6 5589.52 993.091 15
-3 5 -6 5247.84 915.596 2
3 5 6 5909.11 1037.14 5
3 5 6 6307.29 1037.74 10
-3 5 -6 7387.99 1123.73 9
3 5 6 7571.86 1116.45 18
3 5 6 8365.58 1131.21 17
3 5 7 387.964 442.956 15
-3 5 -7 801.274 521.516 2
3 5 7 527.624 620.207 5
3 5 7 1126.31 617.821 10
3 5 7 1372.16 645.233 18
3 5 7 2653.15 770.246 17
-3 5 -8 446.762 441.488 2
3 6 -5 3927.93 830.085 15
3 6 -5 4498.8 905.302 5
-3 6 5 3085.6 818.082 10
3 6 -5 2710.99 700.913 17
3 6 -5 4237.55 887.164 18
3 6 -4 12780.5 1466.7 5
3 6 -4 12958.2 1420.97 15
-3 6 4 12579.3 1390.18 10
3 6 -4 14125.5 1447.24 18
3 6 -4 13428.6 1412.23 17
3 6 -3 2338.95 750.583 18
3 6 -3 1378.71 647.471 5
3 6 -3 1338.7 567.546 17
3 6 -3 1290.45 579.174 15
-3 6 3 1278.7 633.481 2
-3 6 2 876.023 597.629 2
-3 6 2 597.343 506.121 15
3 6 -2 119.213 443.511 15
3 6 -2 1536 628.387 18
3 6 -2 141.316 501.17 5
-3 6 2 1016.26 577.064 18
-3 6 2 854.468 543.087 17
3 6 -2 562.625 548.74 17
-3 6 1 4672.65 875.408 15
-3 6 1 3758.34 834.293 2
3 6 -1 4131.51 878.72 15
3 6 -1 4713.53 921.227 17
3 6 -1 3073.68 848.187 5
-3 6 1 5274.58 965.391 18
3 6 -1 4620.38 929.995 18
-3 6 1 4582.44 856.205 17
-3 6 0 1352.64 589.079 15
-3 6 0 769.592 494.522 2
3 6 0 -138.111 467.968 5
-3 6 0 -37.0813 513.329 18
-3 6 0 1755.42 623.879 17
-3 6 -1 903.03 489.476 15
-3 6 -1 -90.6608 620.86 2
-3 6 -1 631.312 535.86 18
-3 6 -1 8.82784 418.493 17
-3 6 -2 2681.67 793.906 2
-3 6 -3 557.547 574.325 2
-3 6 -4 483.831 496.289 2
3 6 5 4488.89 974.17 10
4 -6 -4 335.998 456.079 6
4 -6 -3 5933.37 980.34 6
4 -6 -2 533.769 485.697 6
4 -6 -1 742.821 531.438 6
4 -6 -1 1934.47 649.076 8
4 -6 0 3041.45 733.336 6
4 -6 0 1805.51 640.214 8
4 -6 1 971.203 518.607 6
4 -6 1 1619.96 607.528 8
4 -6 2 224.33 488.817 6
4 -6 2 17.3676 393.719 8
4 -6 3 310.471 464.58 6
4 -6 4 725.943 409.36 6
-4 -5 9 3813.89 793.625 12
4 -5 -8 -406.947 504.581 6
-4 -5 8 1019.91 524.858 12
4 -5 -7 723.837 524.85 6
-4 -5 7 1338.69 675.5 6
-4 -5 7 731.735 454.12 12
4 -5 -7 539.379 441.055 8
4 -5 -6 2418.35 646.088 6
-4 -5 6 1685.12 581.446 6
-4 -5 6 1091.23 484.16 12
4 -5 -6 1745.88 631.355 8
-4 -5 5 568.939 362.633 14
4 -5 -5 691.211 476.25 6
4 -5 -5 1426.8 600.287 8
-4 -5 5 1191.14 579.001 6
-4 -5 5 938.077 478.977 12
4 -5 -4 9948.77 1124.31 6
4 -5 -4 8457.09 1091.51 14
-4 -5 4 8640.42 1098.3 6
4 -5 -4 8348.32 1092.94 8
-4 -5 4 11322.5 1013.74 14
4 -5 -3 2757.3 665.727 8
-4 -5 3 2512.35 518.165 14
4 -5 -3 3769.15 769.299 14
4 -5 -3 2689.87 630.071 6
-4 -5 3 2535.09 709.875 6
-4 -5 2 1608.5 422.272 14
4 -5 -2 2136.03 611.438 14
4 -5 -2 1839.26 537.422 6
-4 -5 2 1012.81 512.874 6
4 -5 -2 1492.94 581.601 8
-4 -5 1 1123.24 364.992 14
4 -5 -1 595.071 458.446 14
4 -5 -1 1607.02 532.185 6
-4 -5 1 1192.97 530.433 6
-4 -5 1 449.971 437.585 1
4 -5 -1 1066.81 546.329 8
-4 -5 0 876.701 373.552 14
4 -5 0 1002.88 606.792 14
4 -5 0 -447.219 448.624 8
-4 -5 0 461.336 457.437 6
4 -5 0 668.885 426.69 6
-4 -5 0 652.267 563.072 1
4 -5 1 90.4001 478.951 14
-4 -5 -1 212.092 270.464 14
-4 -5 -1 41.9533 387.042 6
4 -5 1 555.569 354.54 6
-4 -5 -1 585.848 531.779 1
4 -5 1 672.72 471.334 8
4 -5 2 2401.03 653.743 14
-4 -5 -2 2463.84 685.374 6
4 -5 2 1070.78 523.652 6
-4 -5 -2 2007.93 771.568 1
-4 -5 -2 2176.02 475.396 14
4 -5 2 2639.13 586.337 8
-4 -5 -3 508.542 378.364 14
-4 -5 -3 -162.019 432.961 6
4 -5 3 1111.48 447.464 6
-4 -5 -3 1041.44 670.924 1
4 -5 3 -198.777 469.446 14
4 -5 3 -242.089 329.706 8
4 -5 4 4508.29 857.459 14
-4 -5 -4 4012.28 791.571 6
4 -5 4 3121.16 709.565 6
-4 -5 -4 3903.67 894.909 1
4 -5 4 3978.55 670.721 8
4 -5 5 1386.82 648.471 14
-4 -5 -5 546.318 467.775 6
4 -5 5 706.133 493.508 6
-4 -5 -5 1236.92 657.214 1
4 -5 6 710.393 480.426 14
-4 -5 -6 43.7151 455.058 6
4 -5 6 841.311 420.616 6
-4 -5 -6 133.498 521.294 1
4 -5 7 1482.91 560.672 6
4 -5 8 955.62 582.053 6
4 -5 9 1184.26 522.462 6
4 -4 -12 2312.91 750.13 7
4 -4 -12 1924.53 618.902 8
4 -4 -11 6844.31 1035.16 7
-4 -4 11 5887.14 985.139 12
4 -4 -11 6374.6 992.09 8
4 -4 -10 7546.65 1018.27 7
4 -4 -10 7133.81 1040.95 8
-4 -4 10 8130.73 1134.81 6
-4 -4 10 7468.45 1042.24 12
4 -4 -9 4553.75 738.111 7
-4 -4 9 5225.2 889.568 6
-4 -4 9 4371.05 836.06 12
4 -4 -9 4519.19 863.224 8
4 -4 -8 6465.32 815.263 7
-4 -4 8 5719.15 875.761 6
4 -4 -8 5096.94 840.343 8
-4 -4 8 6150.66 898.488 12
-4 -4 7 8170.33 1009.65 6
-4 -4 7 7453.13 954.712 12
4 -4 -7 7991.43 1023.48 8
4 -4 -7 9173.71 935.147 7
-4 -4 6 7983.25 989.779 6
4 -4 -6 8470.79 1057.47 8
-4 -4 6 8554.47 931.023 12
4 -4 -6 10293.3 900.548 7
4 -4 -5 6679.25 990.261 6
-4 -4 5 9662.47 848.106 14
-4 -4 5 8739.58 1003.7 6
-4 -4 5 9106.89 902.262 12
4 -4 -5 9101.67 1059.73 8
4 -4 -5 8648.11 786.901 7
4 -4 -4 484.068 290.454 7
-4 -4 4 313.242 252.856 14
4 -4 -4 161.077 316.395 6
-4 -4 4 359.159 418.99 6
-4 -4 4 705.938 398.551 12
-4 -4 4 -404.026 263.608 4
4 -4 -4 -137.044 344.569 8
4 -4 -3 26482.3 1198.18 7
-4 -4 3 25226.6 1324.95 14
4 -4 -3 24692.3 1652.23 14
-4 -4 3 23717.6 1638.67 6
4 -4 -3 24840.5 1161.34 13
-4 -4 3 25774.7 1399.74 12
4 -4 -3 26522.9 1529.61 6
-4 -4 3 22912.9 1170.24 4
4 -4 -3 25907.8 1707.94 8
-4 -4 2 17210.5 1053.1 14
4 -4 -2 15514.2 1167.45 6
4 -4 -2 14662.1 1262.05 14
-4 -4 2 15223.6 1261.35 6
4 -4 -2 17623.1 921.366 13
-4 -4 2 17786.5 1084.86 12
-4 -4 2 14862.5 1280.63 1
4 -4 -2 14883.1 1257.33 8
4 -4 -2 17846.1 833.627 7
-4 -4 1 14950.5 968.5 14
4 -4 -1 13998.1 1233.68 14
4 -4 -1 14332.4 1111.74 6
-4 -4 1 13540.4 1192.07 6
4 -4 -1 14191.7 812.383 13
-4 -4 1 14375.6 892.622 12
-4 -4 1 16087.3 1326.31 1
4 -4 -1 15605.1 1262.58 8
4 -4 0 8.01258 425.45 14
-4 -4 0 49.882 239.861 14
-4 -4 0 -150.633 376.684 6
4 -4 0 -90.308 294.584 6
4 -4 0 104.732 162.791 13
4 -4 0 249.737 332.514 8
-4 -4 0 684.335 500.979 1
-4 -4 -1 7336.35 693.409 14
4 -4 1 7751.41 798.84 6
4 -4 1 5409.53 813.046 14
4 -4 1 7393.11 601.004 13
-4 -4 -1 5929.28 810.586 6
4 -4 1 7337.18 841.382 8
-4 -4 -2 12118.5 1187.33 3
4 -4 2 13747 1254.77 14
-4 -4 -2 12128.2 1173.58 6
4 -4 2 14163.6 1087.97 6
4 -4 2 13543.7 865.25 13
-4 -4 -2 14694.7 1301.61 1
4 -4 2 13813.2 1105.86 8
4 -4 3 1144.77 486.679 14
-4 -4 -3 1084.51 459.009 6
4 -4 3 1635.74 358.022 13
4 -4 3 1680.59 461.924 6
-4 -4 -3 1101.16 471.651 3
-4 -4 -3 213.336 469.434 1
4 -4 3 486.463 354.748 8
-4 -4 -4 1741.73 600.975 1
4 -4 4 1701.8 537.759 14
-4 -4 -4 2501.44 600.075 6
4 -4 4 1385.59 459.251 6
-4 -4 -4 1837.11 570.073 3
4 -4 4 1815.27 426.047 13
4 -4 4 2265.7 488.436 8
-4 -4 -5 1246.73 515.451 6
4 -4 5 806.074 429.74 6
-4 -4 -5 2948.91 674.403 3
4 -4 5 1545.46 414.832 13
4 -4 5 1283.05 472.835 14
-4 -4 -5 1262.23 550.25 1
4 -4 5 1756.82 419.348 8
4 -4 6 5358.98 905.694 14
-4 -4 -6 3771.58 764.629 6
4 -4 6 4378.6 729.863 13
-4 -4 -6 4945.82 800.043 3
4 -4 6 5818.52 804.271 6
-4 -4 -6 4318.59 788.883 1
4 -4 7 1036.14 588.948 14
-4 -4 -7 1032.12 459.914 3
4 -4 7 651.841 418.264 6
-4 -4 -7 -201.772 483.371 1
-4 -4 -8 -532.716 594.946 1
-4 -4 -8 383.953 370.35 3
4 -4 8 -36.1982 366.9 6
-4 -4 -9 1326.65 626.576 1
4 -4 9 1216.28 518.88 6
4 -4 10 3535.84 789.441 6
4 -4 11 -200.4 465.081 6
4 -3 -13 680.341 534.56 7
4 -3 -13 1178.16 505.897 8
-4 -3 12 715.136 482.632 4
4 -3 -12 777.703 546.171 7
-4 -3 12 710.064 561.128 6
-4 -3 12 -418.429 502.761 12
4 -3 -12 500.043 393.268 8
4 -3 -11 4052.13 752.807 8
4 -3 -11 5181.48 907.148 7
-4 -3 11 5029.25 848.178 6
-4 -3 11 4691.93 847.667 12
-4 -3 11 5015.49 755.094 4
4 -3 -10 1295.69 505.105 7
-4 -3 10 1553.66 571.125 6
-4 -3 10 1843.32 564.816 12
4 -3 -10 898.22 409.006 8
-4 -3 10 1253.22 431.305 4
4 -3 -9 3982.83 698.183 7
4 -3 -9 3768.54 742.355 8
-4 -3 9 3538.91 700.77 6
-4 -3 9 3093.27 634.275 12
-4 -3 9 5078.2 654.72 4
4 -3 -8 3588.72 652.345 7
-4 -3 8 2712.42 625.879 6
-4 -3 8 3061.48 587.89 12
-4 -3 8 4374.36 569.62 4
-4 -3 8 3014.65 427.847 16
4 -3 -8 3703.57 686.987 8
4 -3 -7 212.827 344.162 7
-4 -3 7 107.812 369.533 6
-4 -3 7 71.0455 339.535 12
4 -3 -7 -53.9677 380.975 8
-4 -3 7 138.56 191.647 16
-4 -3 7 -314.298 299.709 4
4 -3 -6 3483.9 535.742 7
-4 -3 6 2575.91 522.714 6
-4 -3 6 3350.82 591.813 12
4 -3 -6 3620.17 668.701 8
-4 -3 6 3129.96 497.949 4
-4 -3 5 9596.91 947.005 6
-4 -3 5 9757.97 893.03 12
-4 -3 5 9710.43 482.176 10
-4 -3 5 8751.66 758.38 4
4 -3 -5 10924.1 852.717 7
4 -3 -5 9030.34 967.379 8
4 -3 -4 1371.14 327.837 7
-4 -3 4 1521.51 323.488 14
-4 -3 4 1489.56 347.194 4
-4 -3 4 1226.63 389.068 6
-4 -3 4 1055.7 370.854 12
-4 -3 4 1322.8 371.203 1
-4 -3 4 1223.54 206.013 10
4 -3 -4 1160.02 454.557 8
-4 -3 3 3895.3 419.133 14
4 -3 -3 3488 537.326 6
-4 -3 3 4052.48 595.875 6
-4 -3 3 4199.45 524.192 12
-4 -3 3 4217.55 397.002 10
-4 -3 3 3905.48 579.257 1
4 -3 -3 3875.41 602.862 8
4 -3 -3 4206.1 435.869 7
4 -3 -2 3070.1 345.704 7
4 -3 -2 2450.04 552.951 8
-4 -3 2 2889.03 354.638 14
4 -3 -2 2890.38 449.911 6
4 -3 -2 2750.71 548.671 14
-4 -3 2 2538.31 493.971 6
4 -3 -2 2589.62 377.712 13
-4 -3 2 2487.17 534.406 3
-4 -3 2 3672.33 448.811 12
-4 -3 2 3384.05 395.319 10
-4 -3 2 3728.16 575.058 1
4 -3 -1 721.811 157.896 7
-4 -3 1 818.301 242.397 14
4 -3 -1 476.533 389.888 14
-4 -3 1 572.479 329.529 6
4 -3 -1 548.416 215.437 13
-4 -3 1 234.981 344.448 1
-4 -3 1 96.6091 317.829 3
-4 -3 1 751.285 270.821 12
4 -3 -1 633.156 273.402 6
4 -3 -1 74.3475 290.744 8
-4 -3 0 6775.67 731.194 6
4 -3 0 6503.49 635.578 6
4 -3 0 6343.53 758.091 14
4 -3 0 6919.07 580.025 13
-4 -3 0 7361.59 524.527 12
-4 -3 0 7638.99 830.95 3
-4 -3 0 7231.34 556.888 14
-4 -3 0 6703.9 810.52 1
4 -3 0 6482.3 705.147 8
4 -3 1 1345.99 475.144 14
-4 -3 -1 601.592 342.799 6
4 -3 1 333.399 199.723 13
4 -3 1 696.895 284.529 6
-4 -3 -1 1056.01 425.292 3
-4 -3 -1 919.486 186.273 12
-4 -3 -1 1840.53 537.876 1
4 -3 1 1047.51 404.546 8
4 -3 2 2096.83 470.923 14
-4 -3 -2 3222.69 564.646 6
4 -3 2 2799.89 421.368 13
4 -3 2 2620.11 440.442 6
-4 -3 -2 2283.21 321.935 13
-4 -3 -2 2706.43 212.767 12
-4 -3 -2 2080.14 484.554 3
4 -3 2 2067.33 436.797 8
-4 -3 -2 2782.93 553.111 1
-4 -3 -3 14794.3 1161.64 6
-4 -3 -3 17268.6 1247.34 3
-4 -3 -3 15315.9 1249.36 1
4 -3 3 18088.2 1082.06 6
4 -3 3 18025.9 1084.31 13
4 -3 3 17565.8 1296.62 14
4 -3 3 18677.7 1130.84 8
4 -3 4 4932.53 753.789 14
4 -3 4 5739.86 648.329 13
4 -3 4 6054.24 533.917 15
4 -3 4 5895.22 647.667 6
-4 -3 -4 4994.75 701.333 3
4 -3 4 6258.39 548.041 18
4 -3 4 6085.38 643.89 8
-4 -3 -4 5219.31 790.975 1
4 -3 5 217.97 367.52 14
4 -3 5 927.957 380.232 13
4 -3 5 396.559 322.69 6
-4 -3 -5 590.772 365.627 3
4 -3 5 625.588 250.214 8
-4 -3 -5 477.427 428.366 1
4 -3 6 5690.43 844.562 14
4 -3 6 5076.8 662.268 6
-4 -3 -6 4485.21 685.442 3
4 -3 6 5441.06 577.544 8
4 -3 6 4444.67 695.342 13
-4 -3 -6 6358.54 880.763 1
4 -3 7 786.76 494.011 14
4 -3 7 1291.18 448.033 13
4 -3 7 1676.81 501.712 6
-4 -3 -7 1688.31 517.85 3
4 -3 7 1583.91 329.689 8
-4 -3 -7 1130.55 451.53 1
4 -3 8 3305.85 711.965 13
4 -3 8 3281.62 655.243 6
-4 -3 -8 2588.96 584.554 3
-4 -3 -8 2995.22 659.752 1
4 -3 9 1849.79 527.208 6
-4 -3 -9 1115.01 413.05 3
-4 -3 -9 1090.52 548.554 1
4 -3 10 1715.83 546.972 6
-4 -3 -10 2235.82 653.553 1
-4 -3 -11 7730.43 1110.67 1
-4 -3 -12 3542.41 940.268 1
-4 -2 15 2200.2 778.188 4
-4 -2 14 3239.88 786.157 4
-4 -2 13 240.095 443.098 4
4 -2 -13 1081.67 625.66 7
-4 -2 13 548.775 514.521 12
-4 -2 13 945.709 588.44 6
4 -2 -12 1512.65 564.119 7
-4 -2 12 1458.45 570.992 6
-4 -2 12 898.799 474.557 12
4 -2 -12 1284.16 464.828 8
-4 -2 12 1539.97 471.604 16
-4 -2 12 2370.38 635.121 4
4 -2 -11 8700.35 1066.84 7
-4 -2 11 8365.29 1037.28 6
-4 -2 11 8672.08 1066.03 12
-4 -2 11 9381.26 1017.68 4
4 -2 -11 7685.81 891.364 8
-4 -2 11 9292.96 874.464 16
-4 -2 10 20476.7 1527.37 6
-4 -2 10 24045.9 1499.14 4
-4 -2 10 19608.7 1501.15 12
-4 -2 10 22013 1342.43 16
4 -2 -10 20397 1399.54 8
4 -2 -10 20196.6 1521.07 7
4 -2 -9 3813.03 661.205 7
-4 -2 9 4354.43 697.002 6
-4 -2 9 4428.33 709.695 12
-4 -2 9 4293.86 349.82 10
-4 -2 9 4440.64 599.181 16
4 -2 -9 3193.39 587.383 8
-4 -2 9 4450.87 656.619 4
4 -2 -8 385.304 379.56 7
-4 -2 8 -74.5038 326.75 6
-4 -2 8 494.908 400.409 12
-4 -2 8 395.971 146.624 10
-4 -2 8 371.919 294.053 16
-4 -2 8 303.083 126.861 8
4 -2 -8 45.5885 341.955 8
-4 -2 8 431.528 330.298 4
-4 -2 7 1594.6 482.106 4
4 -2 -7 3015.48 564.369 7
-4 -2 7 2695.92 300.144 8
-4 -2 7 2439.37 497.257 6
-4 -2 7 2429.87 506.59 12
-4 -2 7 2715.29 258.131 10
-4 -2 7 2925.96 437 16
4 -2 -7 2709.48 559.727 8
4 -2 -6 818.434 338.985 7
-4 -2 6 1174.29 241.598 8
-4 -2 6 869.803 370.438 6
-4 -2 6 1028.47 398.814 12
-4 -2 6 1320.56 186.551 10
-4 -2 6 1164.28 301.43 16
4 -2 -6 383.208 318.704 8
-4 -2 6 883.313 359.25 4
4 -2 -5 577.415 267.314 7
-4 -2 5 703.979 341.377 6
-4 -2 5 1183.75 399.087 12
-4 -2 5 1250.01 199.071 10
-4 -2 5 1105 251.607 8
-4 -2 5 556.616 279.797 4
4 -2 -5 1315.85 394.337 8
4 -2 -4 1640.81 379.802 7
-4 -2 4 967.531 351.061 6
-4 -2 4 1491.51 363.965 4
-4 -2 4 1690.78 409.591 3
-4 -2 4 1484.48 398.712 12
4 -2 -4 1701.07 455.394 8
-4 -2 4 1888.51 310.334 1
-4 -2 4 2283.27 274.509 10
-4 -2 4 1718.4 306.673 8
4 -2 -3 5243.55 480.51 7
-4 -2 3 4771.79 597.06 3
-4 -2 3 4916.94 544.353 12
-4 -2 3 4972.66 575.306 6
4 -2 -3 6030.76 519.63 2
-4 -2 3 5367.87 438.932 10
-4 -2 3 5186.16 552.386 1
4 -2 -3 4920.05 606.766 8
4 -2 -2 2275.05 293.652 7
-4 -2 2 1923.1 217.481 14
4 -2 -2 1420.49 307.571 2
-4 -2 2 1901.58 388.146 6
-4 -2 2 1154.72 400.622 3
-4 -2 2 1793.31 326.193 12
-4 -2 2 2164.88 319.368 10
-4 -2 2 2820.89 494.28 1
4 -2 -2 1235.09 411.005 8
-4 -2 1 4341.6 297.316 14
4 -2 -1 4130.01 536.191 14
4 -2 -1 2209.7 389.18 6
-4 -2 1 3510.34 486.112 6
4 -2 -1 3561 430.765 13
-4 -2 1 2823.06 458.994 3
-4 -2 1 4048.7 414.353 12
-4 -2 1 4828.96 464.594 10
4 -2 -1 4478.01 424.257 2
4 -2 -1 3466.06 517.929 8
4 -2 -1 4285.03 354.068 7
-4 -2 1 3456.42 487.812 1
-4 -2 0 1542.75 374.045 1
4 -2 0 1649.14 399.599 14
-4 -2 0 1957.37 223.908 14
-4 -2 0 1935.97 402.348 6
4 -2 0 1495.12 261.794 6
4 -2 0 1743.56 355.09 13
-4 -2 0 1067.85 377.593 3
-4 -2 0 1685.92 271.313 12
4 -2 0 1385.37 266.772 2
4 -2 0 1533.46 364.681 8
4 -2 0 1441.75 204.538 7
-4 -2 -1 15031.1 922.13 6
4 -2 1 13436.6 947.484 14
4 -2 1 14997.9 776.124 6
-4 -2 -1 14595.8 1023.7 3
4 -2 1 15055.4 873.805 13
-4 -2 -1 16385.2 857.271 13
-4 -2 -1 15391.1 678.313 12
4 -2 1 17270.3 884.005 18
4 -2 1 15817.1 972.916 8
4 -2 1 16533.2 859.747 17
-4 -2 -1 14295 968.6 1
4 -2 1 17014.7 872.83 15
4 -2 2 23976.2 1024.71 18
-4 -2 -2 16139.3 1137.31 6
4 -2 2 19932.4 1202.67 14
4 -2 2 21786.3 1145.59 8
4 -2 2 21993.2 988.203 6
-4 -2 -2 19978.8 1211.22 3
4 -2 2 20352.2 1120.86 13
4 -2 2 22796.9 991.807 17
4 -2 2 23705.4 1020.65 15
4 -2 2 15392.3 932.611 2
-4 -2 -2 20523.3 1258 1
4 -2 3 8983.24 807.518 14
-4 -2 -3 8821.55 790.152 3
4 -2 3 8400.43 611.566 6
4 -2 3 8948.79 745.984 13
4 -2 3 9845.71 576.039 18
4 -2 3 8256.58 705.745 8
4 -2 3 8920.56 551.673 17
4 -2 3 8766.48 550.939 15
-4 -2 -3 6965.41 766.43 1
4 -2 4 9093.09 835.89 14
-4 -2 -4 9845.2 831.844 3
4 -2 4 10236 712.522 6
4 -2 4 8343.71 751.395 13
-4 -2 -4 8724.68 435.818 12
4 -2 4 9679.8 736.46 8
4 -2 4 9963.27 536.019 17
4 -2 4 9790.94 536.358 18
4 -2 4 10024 543.985 15
-4 -2 -4 8919.35 857.861 1
4 -2 5 1878.12 339.964 8
4 -2 5 1616.09 477.116 14
4 -2 5 1652.37 448.406 13
-4 -2 -5 1685.47 454.305 1
4 -2 5 2341.88 402.742 6
-4 -2 -5 1506.39 180.943 12
-4 -2 -5 1621.79 417.622 3
4 -2 5 1534.76 186.535 18
4 -2 5 1761.85 190.271 15
4 -2 6 1317.76 471.285 13
4 -2 6 1417.17 362.145 6
-4 -2 -6 1329.71 396.005 3
-4 -2 -6 1271 416.619 1
4 -2 6 1563.19 303.061 8
4 -2 7 890.264 456.781 13
-4 -2 -7 1310.64 493.732 1
4 -2 7 1196.65 402.657 6
-4 -2 -7 1085.09 403.974 3
4 -2 7 1072.29 261.876 8
4 -2 8 2585.84 589.691 13
-4 -2 -8 3323.69 631.759 1
4 -2 8 4281.07 632.243 6
-4 -2 -8 3101.1 527.613 3
4 -2 8 3120.78 421.363 8
-4 -2 -9 1719.14 500.147 1
-4 -2 -9 2477.99 530.417 3
-4 -2 -10 2748.62 660.436 1
-4 -2 -10 3737.05 607.899 3
-4 -2 -11 706.014 457.816 1
-4 -2 -12 2212.18 643.822 1
-4 -2 -13 7214.58 1082.47 1
-4 -1 15 1619.05 694.008 12
4 -1 -15 2077.18 662.284 11
-4 -1 15 2093.52 647.447 16
-4 -1 15 1432.23 724.941 4
-4 -1 14 1948.47 738.765 4
4 -1 -14 1067.82 622.567 7
-4 -1 14 947.543 513.233 12
-4 -1 14 2024.47 636.261 16
4 -1 -14 2148.66 647.516 11
-4 -1 13 445.872 473.062 4
4 -1 -13 663.864 530.884 7
-4 -1 13 482.623 456.352 16
-4 -1 13 1075.11 492.187 12
4 -1 -13 628.326 427.073 11
4 -1 -12 3121.97 716.955 7
-4 -1 12 4318.88 609.626 18
-4 -1 12 4902.64 862.124 12
4 -1 -12 3995.4 698.782 11
-4 -1 12 5691.4 816.048 16
-4 -1 12 4403.57 803.9 4
4 -1 -11 958.708 497.404 7
-4 -1 11 773.836 359.883 18
-4 -1 11 566.626 418.593 12
4 -1 -11 405.918 279.903 11
-4 -1 11 461.72 265.089 10
4 -1 -11 1174.3 372.353 8
-4 -1 11 669.362 347.769 16
-4 -1 11 827.872 470.201 4
4 -1 -10 20171.1 1485.66 7
-4 -1 10 18732.3 1397.41 4
-4 -1 10 17599.4 1371.98 6
-4 -1 10 20374.2 1475.79 12
4 -1 -10 19041.9 1281.26 11
-4 -1 10 21617.9 1165.6 10
-4 -1 10 20586.9 1255.01 18
4 -1 -10 19652.3 1236.04 8
-4 -1 10 21791.9 1381.58 16
-4 -1 9 19548 1365.04 12
4 -1 -9 19206.5 1204.54 11
-4 -1 9 18504 1311.22 6
-4 -1 9 20420 1051.79 10
-4 -1 9 19707 1199.31 18
-4 -1 9 17663.8 1260.79 16
-4 -1 9 19121.7 1315.36 4
4 -1 -9 18061 1322.91 7
4 -1 -9 16845.9 1118.48 8
4 -1 -8 4871.58 710.745 7
-4 -1 8 4725.64 659.929 6
-4 -1 8 4444.46 658.396 12
4 -1 -8 5090.87 566.813 11
-4 -1 8 5243.89 506.653 10
-4 -1 8 5570.85 627.043 18
-4 -1 8 5925.02 444.963 8
4 -1 -8 4520.58 578.927 8
-4 -1 8 4833.63 624.943 16
-4 -1 8 3820.06 638.053 4
4 -1 -7 3196.08 548.479 7
-4 -1 7 1777.89 470.72 4
-4 -1 7 3042.6 456.676 18
-4 -1 7 2634.33 487.813 6
-4 -1 7 3428.87 558.125 12
4 -1 -7 2573.66 392.855 11
-4 -1 7 3410.15 358.656 8
4 -1 -7 3223.36 495.132 8
-4 -1 7 2928.23 484.353 16
4 -1 -6 14789.3 993.083 8
-4 -1 6 16309.7 1013.33 6
4 -1 -6 16363.7 1066.17 7
-4 -1 6 15135.4 1040.63 12
4 -1 -6 15704.5 872.922 11
-4 -1 6 13983.1 1040.29 4
-4 -1 6 16491.9 910.362 9
-4 -1 6 17484.7 1036.26 18
-4 -1 6 16855.4 825.071 8
-4 -1 6 17297.2 1009.33 16
-4 -1 5 42767.8 1718.53 18
-4 -1 5 42914.9 1567.82 3
-4 -1 5 44634.6 1692.4 6
-4 -1 5 44811.6 1772.3 12
-4 -1 5 42596.9 1755.04 4
-4 -1 5 48962.4 1564.18 8
4 -1 -5 42776.4 1715.95 8
4 -1 -5 44645.1 1772.65 7
-4 -1 4 19927.9 1009.76 3
-4 -1 4 19400.9 992.003 6
-4 -1 4 18434.7 1046.34 12
4 -1 -4 18890 1073.08 8
-4 -1 4 21264.8 983.127 8
-4 -1 4 18608.7 1052.64 18
-4 -1 4 18917.6 1145.87 4
-4 -1 4 19551.6 759.67 1
4 -1 -4 19914.1 1045.34 7
-4 -1 3 7423.14 580.918 6
4 -1 -3 7724.56 698.829 8
-4 -1 3 8801.66 514.372 5
-4 -1 3 7654.55 622.28 3
-4 -1 3 8910.78 612.625 8
4 -1 -3 8077.4 628.723 7
-4 -1 3 7789.8 480.27 1
-4 -1 3 6565.5 636.527 2
-4 -1 2 21697.2 1013.12 8
4 -1 -2 17877.4 1007.6 8
-4 -1 2 17338.3 846.507 6
-4 -1 2 17069.1 990.037 3
4 -1 -2 16292.2 709.763 2
-4 -1 2 18704.8 869.479 5
-4 -1 2 18745.7 842.098 1
4 -1 -2 19085.8 916.458 7
-4 -1 2 17894 908.307 2
-4 -1 1 33084.8 1241.93 1
4 -1 -1 34478.9 1308.64 15
4 -1 -1 32874.6 1260.88 14
-4 -1 1 31097.5 1149.95 6
-4 -1 1 35811.1 1388.96 8
-4 -1 1 32127.1 1352.28 3
4 -1 -1 32590.3 1303.41 13
4 -1 -1 37066.9 1334.26 18
-4 -1 1 34862.8 1288.34 5
-4 -1 1 34605.3 1305.72 10
-4 -1 1 31247.3 1185.18 2
4 -1 -1 31504.8 1378.98 8
4 -1 -1 33726.2 942.28 2
4 -1 -1 34178 1189.46 7
-4 -1 0 18093.2 886.84 1
-4 -1 0 15562.9 743.416 6
4 -1 0 15973.8 501.353 6
-4 -1 0 16203.2 912.948 3
4 -1 0 16458.2 869.572 13
-4 -1 0 20320.8 797.887 2
-4 -1 0 18865.7 917.895 5
-4 -1 0 19610.2 920.572 10
4 -1 0 17254 848.996 14
4 -1 0 18740.1 837.569 18
4 -1 0 16952.9 931.046 8
4 -1 0 19066.2 842.272 15
4 -1 1 46012.5 1510.07 18
-4 -1 -1 41940.4 1641.36 1
-4 -1 -1 37840.1 1466.23 6
4 -1 1 44420 1230.38 6
-4 -1 -1 40750.4 1690.85 3
4 -1 1 43332.6 1663.57 13
-4 -1 -1 43749.6 1632.4 13
4 -1 1 41807.2 1583.17 14
4 -1 1 42070.1 1651.36 8
-4 -1 -1 39933 1505.92 2
4 -1 1 46306.8 1518.51 15
-4 -1 -2 33046.7 1457.41 1
4 -1 2 30993.8 1369.8 14
4 -1 2 34812.9 1099.61 6
4 -1 2 29455.9 1431.59 13
-4 -1 -2 31607.2 1464.13 3
4 -1 2 34438.9 1197.9 18
4 -1 2 31240.4 1481.83 5
-4 -1 -2 31401 1299.5 2
4 -1 2 35115.9 1209.99 15
4 -1 2 34214.9 1434.09 8
-4 -1 -3 2045.65 381.699 2
4 -1 3 2950.41 447.628 14
4 -1 3 2528.25 454.233 13
4 -1 3 2794.45 304.491 6
-4 -1 -3 2556.96 429.105 3
4 -1 3 2996 275.324 18
4 -1 3 3006.63 418.698 8
-4 -1 -3 2466.05 416.099 1
4 -1 3 3043.16 279.021 15
4 -1 3 2704.77 471.064 5
-4 -1 -4 22714.7 1298.65 1
4 -1 4 25065.9 1334.73 13
-4 -1 -4 22498.1 1265.38 3
4 -1 4 23289.3 1250.29 14
-4 -1 -4 25199.3 1051.69 12
4 -1 4 23286.6 1328.74 5
4 -1 4 25452.7 853.959 18
4 -1 4 24390.3 834.543 17
4 -1 4 24307.4 1180.58 8
4 -1 4 26310.1 859.829 15
4 -1 5 232.513 66.5801 15
4 -1 5 276.327 67.8221 15
4 -1 5 25.5344 329.748 13
4 -1 5 686.646 363.875 5
-4 -1 -5 716.673 231.713 12
-4 -1 -5 1221.15 440.338 11
-4 -1 -5 720.312 335.004 3
-4 -1 -5 -94.3962 308.111 1
4 -1 5 599.21 250.788 8
4 -1 5 269.835 64.7677 18
4 -1 5 201.015 59.9628 17
-4 -1 -6 8729.47 832.764 1
-4 -1 -6 8084.59 777.937 3
4 -1 6 6223.65 775.848 13
-4 -1 -6 8678.45 617.588 12
-4 -1 -6 8787.09 821.11 11
4 -1 6 7893.45 808.034 5
4 -1 6 7522.67 648.567 8
4 -1 7 784.968 476.614 13
-4 -1 -7 971.734 373.315 1
-4 -1 -7 1068.77 386.605 11
-4 -1 -7 1203.92 372.339 3
4 -1 7 848.82 379.556 5
4 -1 7 1127.74 307.202 8
4 -1 8 -124.184 386.485 13
4 -1 8 -20.7768 316.397 5
-4 -1 -8 386.827 363.033 11
-4 -1 -8 841.726 393.677 1
-4 -1 -9 15901.2 1306.56 1
-4 -1 -9 19339 1271.65 3
4 -1 9 16424 1443.73 13
-4 -1 -9 18243.1 1390.4 11
4 -1 9 20549 1409.09 5
-4 -1 -10 5733.92 720.879 3
-4 -1 -10 5707.34 837.628 11
-4 -1 -10 5765.48 820.952 1
4 -1 10 7822.44 910.647 5
-4 -1 -11 763.21 443.065 11
-4 -1 -11 1194.67 494.686 1
4 -1 11 91.6397 392.244 5
-4 -1 -12 5384.4 910.772 7
-4 -1 -12 5863.83 929.848 1
-4 -1 -12 3912.32 802.274 11
4 -1 12 5857.34 876.662 5
-4 -1 -13 758.798 579.395 7
-4 -1 -13 1002.58 520.134 1
-4 -1 -13 1537.1 572.168 11
-4 0 15 5437.57 910.073 12
4 0 -15 4827.92 896.661 11
-4 0 15 6495.84 1033.4 16
-4 0 14 4.45447 519.116 4
4 0 -14 -264.538 440.022 7
-4 0 14 -736.517 506.73 12
4 0 -14 1048.31 494.764 11
-4 0 14 95.5019 404.633 10
-4 0 14 -178.478 466.115 16
4 0 -13 1345.41 566.251 7
-4 0 13 1136.44 411.265 18
-4 0 13 1192.73 561.173 4
-4 0 13 703.375 507.705 12
4 0 -13 880.417 441.227 11
-4 0 13 1131.01 463.342 10
-4 0 13 708.611 418.232 16
4 0 -12 2501.03 651.6 7
-4 0 12 917.613 477.288 12
4 0 -12 2228.29 574.432 11
-4 0 12 2326.71 522.266 10
-4 0 12 2556.3 623.182 16
-4 0 12 2912.77 545.817 18
-4 0 12 2278.9 733.512 4
4 0 -11 572.148 419.653 7
-4 0 11 700.496 462.654 12
4 0 -11 104.302 347.855 11
-4 0 11 108.584 292.836 10
-4 0 11 394.592 348.623 18
-4 0 11 -51.394 389.05 16
-4 0 11 -376.456 426.773 4
-4 0 10 28710.6 1691.35 12
4 0 -10 28963.1 1622.39 11
-4 0 10 28054.1 1571.86 10
4 0 -10 29617.3 1320.11 8
-4 0 10 28037.3 1758.21 4
-4 0 10 29807.5 1587.29 18
-4 0 10 29623 1722.91 16
4 0 -10 26179.9 1675.51 7
-4 0 9 24700.2 1548.73 16
4 0 -9 24279 1541.78 7
-4 0 9 24317.5 1480.28 12
4 0 -9 26803.1 1451.88 11
-4 0 9 25395 1407.27 10
4 0 -9 26215.4 1216.72 8
-4 0 9 25843.3 1606.65 4
-4 0 9 26540.2 1440.27 18
4 0 -8 4414.4 631.443 7
-4 0 8 4422.85 601.305 12
4 0 -8 5215.15 594.197 11
-4 0 8 4774.77 567.348 10
4 0 -8 4860.68 492.414 8
-4 0 8 5491.36 610.325 18
-4 0 8 4877.12 669.733 16
-4 0 8 5082.3 687.255 4
4 0 -7 6104.28 685.706 7
4 0 -7 6198.83 321.717 3
-4 0 7 6801.67 713.057 12
4 0 -7 6195.04 590.424 11
-4 0 7 5400.5 602.678 10
-4 0 7 7413.79 434.399 9
-4 0 7 5926.57 742.759 4
-4 0 7 6852.51 668.992 18
4 0 -7 6664.98 560.067 8
-4 0 7 5476.81 686.899 16
4 0 -6 1654.62 406.341 7
-4 0 6 1593.65 429.807 12
4 0 -6 2225.95 335.559 11
-4 0 6 2068.32 225.568 3
4 0 -6 1928.23 210.883 3
-4 0 6 2121.21 235.31 9
-4 0 6 2075.26 396.272 18
4 0 -6 2073.1 345.343 8
-4 0 6 1616.72 396.709 16
-4 0 6 1872.54 332.981 8
-4 0 6 1721.97 424.797 4
4 0 -5 9844.96 678.231 8
-4 0 5 9547.96 525.279 3
4 0 -5 9820.5 669.795 6
4 0 -5 9768.75 513.167 3
-4 0 5 10576 766.869 18
-4 0 5 7587.8 350.007 1
4 0 -5 10304.2 602.093 11
-4 0 5 9817.71 393.749 5
-4 0 5 11955.8 727.644 8
-4 0 5 10405.1 775.557 16
-4 0 5 7601.51 764.079 4
4 0 -5 11143.4 815.475 7
4 0 -4 49.3674 284.362 7
4 0 -4 596.974 225.889 6
-4 0 4 1083.14 165.811 1
4 0 -4 757.749 198.63 11
-4 0 4 518.516 185.477 3
4 0 -4 662.614 196.314 3
-4 0 4 925.492 159.559 5
4 0 -4 1093.89 316.046 8
-4 0 4 786.886 302.293 18
-4 0 4 936.372 370.319 4
-4 0 4 593.625 252.459 8
4 0 -3 141659 3612.26 6
-4 0 3 127867 3580.62 6
-4 0 3 134278 3673.89 3
4 0 -3 139281 3708.14 3
-4 0 3 139448 3555.79 1
-4 0 3 143485 3896.66 8
4 0 -3 138280 3410.11 11
-4 0 3 142369 3574.31 5
4 0 -3 131514 3555.74 5
-4 0 3 129873 3896.14 18
-4 0 3 133371 3933.46 4
4 0 -3 130051 3822.57 8
4 0 -3 134490 3893.69 7
-4 0 3 148952 3958.11 7
4 0 -2 4242.28 442.737 15
-4 0 2 4138.75 461.865 7
4 0 -2 3707.63 277.242 6
-4 0 2 3239.87 258.797 6
4 0 -2 3812.86 469.102 7
-4 0 2 3775.09 346.832 1
-4 0 2 3826.71 351.394 5
-4 0 2 3671.36 401.374 3
4 0 -2 3529.86 397.483 3
4 0 -2 3800.77 358.654 5
-4 0 2 3744.96 457.588 18
4 0 -2 4191.23 440.069 18
-4 0 2 3660.01 411.618 8
4 0 -2 3093.58 408.745 8
4 0 -2 3407.45 276.3 2
4 0 -1 20670.1 1010.73 8
4 0 -1 20388.6 739.132 14
4 0 -1 18971.7 636.641 6
-4 0 1 20672 631.41 6
4 0 -1 22922.1 1017.64 15
4 0 -1 21067.2 1027.06 13
-4 0 1 22295.6 987.892 3
4 0 -1 17860.3 619.878 2
4 0 -1 23206.3 1009.88 3
-4 0 1 21629.3 942.795 1
4 0 -1 21073 992.969 7
-4 0 1 23437.6 953.572 5
4 0 -1 20681.7 937.812 5
-4 0 1 22208.8 999.945 18
4 0 -1 23181.1 1026.96 18
-4 0 1 24265.8 1069.65 8
-4 0 1 23839.6 1029.01 7
4 0 0 -50.1502 149.26 14
-4 0 0 237.761 157.74 14
4 0 0 234.098 226.902 18
4 0 0 10.4701 305.696 13
-4 0 0 116.459 207.191 1
4 0 0 8.28989 86.7926 11
-4 0 0 -177.691 251.168 3
-4 0 0 272.48 224.984 5
4 0 0 119.741 234.886 3
4 0 0 -41.357 226.303 5
-4 0 0 -183.612 255.457 18
4 0 0 166.315 277.747 8
-4 0 0 -82.0629 195.041 8
-4 0 0 265.278 239.672 7
4 0 1 49561.6 1534.89 18
4 0 1 48016.6 1390.84 14
-4 0 -1 49023.6 1396.41 14
4 0 1 44533 1653.95 13
-4 0 -1 49248.5 1672.94 13
-4 0 -1 45646 1666.26 3
-4 0 -1 49497.6 1701.63 8
4 0 1 49334.2 1704.2 3
-4 0 -1 48843.5 1668.2 1
4 0 1 48526.4 1350.26 11
-4 0 -1 46204.1 1326.88 11
-4 0 -1 49959.6 1676.61 5
4 0 1 44974.5 1637.84 5
-4 0 -1 48811.7 1683.02 10
-4 0 -1 46168.2 1515.28 18
4 0 1 48140.4 1675.08 8
4 0 2 36669.3 1331.33 15
4 0 2 40067.9 1362.47 18
4 0 2 36643.1 1533.2 13
-4 0 -2 35310 1531.49 3
-4 0 -2 34936.3 1519.86 1
4 0 2 37875.7 1329.49 11
-4 0 -2 36130.6 1306.95 11
4 0 2 37301.1 1542.48 5
-4 0 -2 39743 1356.59 14
4 0 2 35293.9 1502.66 8
4 0 3 459.713 182.172 15
-4 0 -3 946.292 272.851 14
4 0 3 57.9184 316.376 13
4 0 3 528.144 181.199 18
-4 0 -3 433.605 262.404 1
-4 0 -3 744.395 274.867 12
-4 0 -3 672.487 186.528 6
4 0 3 699.179 211.815 11
-4 0 -3 790.133 260.522 11
-4 0 -3 114.297 240.35 3
4 0 3 404.959 289.549 5
4 0 3 444.368 286.405 8
-4 0 -4 117.983 269.383 1
4 0 4 76.5697 144.981 15
4 0 4 56.3829 309.669 13
-4 0 -4 193.57 207.533 6
-4 0 -4 286.838 284.27 11
-4 0 -4 270.985 232.771 3
4 0 4 151.225 130.884 18
4 0 4 -291.522 319.198 5
4 0 4 34.8491 238.168 8
4 0 5 220.125 124.452 15
4 0 5 522.044 347.273 13
-4 0 -5 -1.22151 251.678 3
-4 0 -5 235.298 250.64 1
4 0 5 713.803 370.678 10
4 0 5 544.397 352.139 5
4 0 5 152.274 128.831 18
4 0 5 125.951 112.642 18
4 0 6 41384.3 1315.21 18
4 0 6 37178.2 1890.81 13
-4 0 -6 39370.4 1867.52 1
-4 0 -6 36914.2 1758.49 3
-4 0 -6 38834.1 1773.03 11
4 0 6 39896.2 1878.97 5
4 0 6 38837.1 1808.33 10
4 0 6 39626.8 1297.27 18
4 0 6 39566.9 1294.79 15
4 0 7 7527.4 900.286 13
-4 0 -7 7154.64 786.789 1
-4 0 -7 6723.2 695.253 3
4 0 7 7817.72 442.401 18
-4 0 -7 7467.84 727.403 11
4 0 7 7365.6 807.192 5
4 0 7 7309.56 780.188 10
4 0 7 7402.17 424.052 18
4 0 7 7622.52 422.844 17
4 0 7 7501.54 427.853 15
-4 0 -8 20561.2 1393.25 1
4 0 8 20851.8 1480.31 13
4 0 8 20988.6 751.199 17
-4 0 -8 20948.8 1305.47 3
-4 0 -8 20925.8 1381.31 11
4 0 8 21072.9 1375.49 5
4 0 8 21018.4 1367.42 10
4 0 8 19942.3 752.104 18
4 0 8 20622.1 763.098 15
-4 0 -9 21306.8 1446.2 1
4 0 9 19559.6 1529.34 13
-4 0 -9 19139.6 1279.69 3
-4 0 -9 18173.9 1388.52 11
4 0 9 19518.7 1385.55 5
4 0 9 20706.8 1408.89 10
-4 0 -10 -100.171 322.555 1
4 0 10 -770.142 457.577 13
-4 0 -10 -437.634 455.012 11
-4 0 -10 154.56 262.947 3
4 0 10 45.0494 349.927 10
4 0 10 -185.841 343.111 5
-4 0 -11 2031.59 540.757 1
-4 0 -11 1591.54 542.471 7
-4 0 -11 1785.46 568.577 11
-4 0 -11 1641.44 366.221 3
4 0 11 1599.48 553.648 10
4 0 11 2152.89 563.903 5
-4 0 -12 1886.38 597.268 7
-4 0 -12 730.039 469.222 11
4 0 12 767.782 484.452 10
4 0 12 485.503 436.123 5
-4 0 -12 1236.97 505.649 1
-4 0 -13 11103.4 1186 1
-4 0 -13 10652.2 1273.87 11
4 0 13 9902.86 1162.39 5
4 0 13 9738.87 1142.33 10
-4 0 -13 11878.8 1207.83 9
-4 0 -13 11990.9 1310.08 7
-4 0 -14 2651.9 737.934 7
4 0 14 2336.88 703.352 10
-4 1 16 11600.9 1347 10
4 1 -15 2497.93 688.602 7
-4 1 15 1481.57 585.274 12
4 1 -15 2238.9 739.338 11
-4 1 15 1702.84 627.841 10
-4 1 14 1644.77 526.114 15
4 1 -14 1416.62 574.157 7
-4 1 14 2628.63 714.675 12
4 1 -14 871.637 451.182 11
-4 1 14 1511.94 499.003 18
-4 1 14 1331.52 585.506 10
4 1 -14 1219.91 677.444 2
-4 1 14 722.603 536.286 4
-4 1 14 2027.33 686.2 16
-4 1 13 -183.321 485.884 4
4 1 -13 232.241 452.808 7
-4 1 13 254.239 400.727 12
4 1 -13 149.26 372.812 11
-4 1 13 282.004 407.887 10
4 1 -13 -227.217 509.733 2
-4 1 13 -102.985 327.465 18
-4 1 13 147.547 381.593 15
-4 1 13 1251.59 598.596 16
-4 1 12 4917.34 715.138 15
4 1 -12 4312.81 747.132 7
4 1 -12 3160.18 774.223 2
-4 1 12 3567.61 625.847 18
-4 1 12 4359.51 721.048 12
4 1 -12 3193.04 640.56 11
-4 1 12 4882.36 813.701 10
-4 1 12 3504.73 736.155 16
-4 1 12 2801.36 687.928 4
-4 1 11 521.552 335.533 15
4 1 -11 424.668 412.319 7
-4 1 11 806.198 425.181 12
4 1 -11 781.568 393.415 11
-4 1 11 1262.28 534.228 10
-4 1 11 313.664 397.282 4
-4 1 11 1113.5 447.659 18
4 1 -11 179.266 410.776 2
-4 1 11 879.701 456.168 16
-4 1 10 21245.5 1538.35 4
-4 1 10 20995.3 1383.8 18
-4 1 10 19361 1327.31 12
4 1 -10 18744.6 1328.93 11
-4 1 10 22697.4 935.51 5
-4 1 10 19696.9 1419.35 10
-4 1 10 17908.9 1423.28 16
4 1 -10 18612 1385 7
-4 1 10 19815.4 1341.15 15
4 1 -10 16316.6 1332.01 2
-4 1 9 19812.9 881.805 1
-4 1 9 17563.4 1214.22 12
-4 1 9 20780.6 904.109 5
4 1 -9 17044.3 1201.37 11
-4 1 9 17425.8 1246.25 10
4 1 -9 19230.6 831.232 8
-4 1 9 19543.1 1285.26 18
-4 1 9 18192.5 1363.28 4
-4 1 9 18787.5 1386.86 16
4 1 -9 18218.2 1307.04 7
-4 1 9 17857.3 1228.61 15
4 1 -9 17515.2 1328.75 2
-4 1 8 6460.39 457.366 1
4 1 -8 5002.37 689.05 7
4 1 -8 5269.02 478.279 3
-4 1 8 5394.13 662.83 15
-4 1 8 4795.6 714.802 4
-4 1 8 5414.3 435.665 5
-4 1 8 5361.87 644.472 12
-4 1 8 4943.23 668.341 10
4 1 -8 5868.25 441.654 8
4 1 -8 5038.42 691.415 2
-4 1 8 4850.6 620.624 18
-4 1 8 4901.59 709.832 16
-4 1 7 2452.89 483.863 15
4 1 -7 3075.94 547.667 7
4 1 -7 2627.85 333.028 3
-4 1 7 2476.32 326.425 5
-4 1 7 2859.08 468.108 10
4 1 -7 2538.67 495.003 2
-4 1 7 3077.82 535.101 18
4 1 -7 3037.81 347.182 8
-4 1 7 3028.87 552.87 16
-4 1 7 3888.59 358.352 1
-4 1 7 2478.09 521.726 4
-4 1 6 15415.1 1025.85 15
-4 1 6 14580.1 583.472 3
4 1 -6 17309.7 868.919 3
-4 1 6 16419.9 1070.59 18
-4 1 6 17524.4 896.96 11
4 1 -6 16323.5 810.108 8
-4 1 6 15639.3 1054.39 4
-4 1 6 19696.1 883.005 1
-4 1 6 16019.8 1101.85 16
4 1 -6 14955.6 1060.53 7
4 1 -6 13960.5 975.216 2
4 1 -5 44295.3 1618.8 3
4 1 -5 44934.7 1553.43 8
-4 1 5 47353.8 1371.05 3
-4 1 5 44656.4 1869.3 16
4 1 -5 39611.9 1200.49 1
-4 1 5 48004.5 1557.59 11
4 1 -5 42477.4 1202.02 5
-4 1 5 33429.3 1635.39 1
-4 1 5 37637.1 1832.63 4
-4 1 5 44432.2 1838.04 18
4 1 -5 41594.4 1808.22 7
-4 1 5 43102.8 1807.35 15
4 1 -5 47329.8 1796.13 2
4 1 -4 20279.8 960.945 8
4 1 -4 21561 1048.72 6
4 1 -4 21321.2 1017.57 3
4 1 -4 21375.4 775.614 1
-4 1 4 20301.7 849.208 3
-4 1 4 21317.3 848.261 11
4 1 -4 20111.6 758.972 5
-4 1 4 19398.7 1078.25 4
-4 1 4 20513.8 1148.47 16
-4 1 4 19227.7 1102.79 18
4 1 -4 18901.2 1106.06 7
4 1 -4 20454.5 1039.39 2
-4 1 4 18823.7 1089.43 15
4 1 -3 8903.93 427.261 14
4 1 -3 9696.91 629.317 6
4 1 -3 9428.24 663.747 3
4 1 -3 8760.01 512.501 1
-4 1 3 8899.86 570.821 3
-4 1 3 8556.55 433.975 11
4 1 -3 8289.92 497.088 5
-4 1 3 8628.05 675.523 4
4 1 -3 7025.98 596.351 2
4 1 -3 9305.09 635.211 8
-4 1 3 8515.19 689.482 18
-4 1 3 9193.16 656.899 7
4 1 -3 7958.04 676.134 7
-4 1 3 7833.28 656.192 15
4 1 -2 20433.1 916.867 6
4 1 -2 20138 900.586 1
4 1 -2 20851.5 1026.56 3
-4 1 2 18688.4 921.999 3
4 1 -2 19026.4 869.985 5
-4 1 2 19133.4 653.151 11
-4 1 2 20234.5 1001.94 5
-4 1 2 18531.7 1002.94 18
4 1 -2 18252.5 1029.03 7
4 1 -2 18849.5 975.248 8
4 1 -2 19083.3 904.462 2
-4 1 2 20496.1 939.635 7
-4 1 2 18025.5 987.385 15
4 1 -1 31280 1394.42 15
-4 1 1 33926.2 1371.98 18
4 1 -1 32809.9 1238.14 6
4 1 -1 34862.7 1350.45 1
4 1 -1 32615.8 1324.77 13
-4 1 1 32873.7 1354.72 3
4 1 -1 32043.4 1295.62 5
-4 1 1 36448.2 1447.55 5
4 1 -1 32166.3 1244.37 2
4 1 -1 32487.7 1391.18 8
-4 1 1 35574.6 1267.52 7
-4 1 1 34631.2 1362.55 15
4 1 0 17711.3 922.599 15
4 1 0 17610.5 871.085 13
4 1 0 18921.5 941.756 1
-4 1 0 17572.2 936.728 3
4 1 0 15866.5 868.984 5
-4 1 0 17366.7 849.406 18
4 1 0 18281 979.035 8
4 1 0 12702.4 762.719 2
-4 1 0 18062.8 765.074 7
-4 1 0 17417.9 855.301 15
-4 1 -1 43386.9 1403.99 18
4 1 1 40993 1539.94 15
-4 1 -1 45464.8 1553.38 14
4 1 1 42287.1 1531.53 13
-4 1 -1 41013 1624.01 3
4 1 1 33494.6 1391.07 2
4 1 1 41900.9 1591.2 5
4 1 1 46223.4 1472.81 11
-4 1 -1 41063.1 1331.14 7
4 1 1 42487.6 1649.87 8
-4 1 -1 32329 1067.45 2
-4 1 -1 42924.3 1397.05 15
-4 1 -2 31036.8 1095.7 2
-4 1 -2 34622.4 1101.29 6
4 1 2 32819.8 1406.09 13
-4 1 -2 32015.1 1183.18 18
-4 1 -2 30337 1457.67 3
4 1 2 35089.9 1366.1 11
4 1 2 30740.4 1446.74 5
4 1 2 31916.4 1361.8 15
4 1 2 31175.8 1448.94 10
4 1 3 2545.93 389.795 15
-4 1 -3 2712.94 447.243 3
4 1 3 2269.97 425.763 13
-4 1 -3 2793.22 274.086 18
-4 1 -3 2731.29 300.492 6
-4 1 -3 2440.24 356.638 11
4 1 3 2749.59 408.735 18
-4 1 -3 2744.07 306.759 2
4 1 3 2846.54 502.033 5
4 1 3 2446.31 507.53 10
-4 1 -4 25976.3 1088.21 6
4 1 4 24556.6 1317.69 13
-4 1 -4 21888.4 1306.4 3
-4 1 -4 22715.9 1180.86 11
4 1 4 23865.7 1331.12 5
4 1 4 24673.9 1353.42 10
4 1 4 23993.5 1169.05 18
-4 1 -4 26207.3 1113.43 2
4 1 4 22585.1 1127.72 15
4 1 5 406.332 243.722 15
-4 1 -5 544.195 263.68 2
4 1 5 227.545 219.532 18
4 1 5 1092.59 429.193 13
-4 1 -5 488.788 248.206 11
4 1 5 182.486 269.469 5
4 1 5 -59.2649 340.143 10
-4 1 -5 300.618 298.103 3
-4 1 -6 8979.07 727.75 2
4 1 6 7093.63 767.375 13
-4 1 -6 6659.32 748.975 3
-4 1 -6 7277.27 766.97 1
-4 1 -6 7837.92 755.428 11
4 1 6 8086.14 782.701 5
4 1 6 6715.37 755.813 10
4 1 6 7644.86 618.209 18
4 1 6 7512.6 610.039 15
4 1 7 986.615 254.444 15
-4 1 -7 753.951 353.57 1
4 1 7 821.412 457.345 13
4 1 7 1049.82 266.705 17
-4 1 -7 423.72 274.159 11
4 1 7 873.617 445.725 10
4 1 7 1628.61 470.142 5
-4 1 -7 965.458 356.999 3
4 1 7 1000.07 264.497 18
4 1 8 601.148 232.517 15
4 1 8 599.343 469.46 13
-4 1 -8 93.0519 298.19 11
-4 1 -8 80.1729 298.304 1
4 1 8 226.733 389.603 10
4 1 8 351.355 372.748 5
-4 1 -8 574.267 317.543 3
4 1 8 757.714 265.752 18
4 1 8 390.538 226.252 17
4 1 9 15228.4 1431.95 13
-4 1 -9 19765.9 1409.02 1
-4 1 -9 17178.9 1296.21 3
-4 1 -9 17213 1354.27 11
4 1 9 18398.2 1376.78 5
4 1 9 17858.7 1395.37 10
-4 1 -9 16981.6 1346.21 9
4 1 9 19614.3 1035.02 18
4 1 9 19329.2 1008.44 17
4 1 9 19967.9 1045.97 15
-4 1 -9 18253.8 1243.89 7
-4 1 -10 6488.04 798.112 7
-4 1 -10 7105.79 872.695 1
-4 1 -10 7197.48 957.243 11
-4 1 -10 5408.9 754.323 3
4 1 10 6919.54 946.954 10
4 1 10 6270.44 867.644 5
-4 1 -10 5737.39 835.241 9
-4 1 -11 937.208 396.006 7
-4 1 -11 1572.51 568.151 11
-4 1 -11 1314.16 444.111 1
-4 1 -11 245.912 308.235 3
4 1 11 -202.069 441.115 10
4 1 11 -166.43 373.799 5
-4 1 -11 1664.54 549.336 9
-4 1 -11 -310.529 460.702 2
-4 1 -12 5376.48 812.204 7
-4 1 -12 4112.51 677.433 1
-4 1 -12 7009.64 1028.68 11
4 1 12 4759.38 863.521 10
4 1 12 6654.06 956.479 5
-4 1 -12 5544.35 869.839 9
-4 1 -12 4587.13 792.114 2
-4 1 -13 -149.523 468.612 1
-4 1 -13 1509.82 658.363 11
-4 1 -13 1875.81 614.981 9
4 1 13 1208.27 590.827 10
4 1 13 1907.42 632.392 5
-4 1 -13 -450.931 578.462 2
4 1 14 1244.38 628.609 10
4 1 14 2828.92 698.726 5
-4 1 -14 1627.17 548.467 2
-4 1 -14 1197.78 560.428 9
4 2 -15 2128.23 712.209 7
4 2 -14 1880.26 589.399 7
4 2 -14 2611.61 692.944 11
-4 2 14 2878.48 666.587 15
-4 2 14 1827.43 699.179 10
4 2 -14 2941.91 842.596 2
-4 2 14 2409.21 649.97 18
-4 2 13 -500.539 485.602 4
-4 2 13 1449.89 485.958 15
4 2 -13 1300.25 506.175 7
-4 2 13 1666.82 703.886 16
-4 2 13 1178.49 467.369 12
4 2 -13 1130.6 576.47 11
-4 2 13 1797.53 633.105 10
4 2 -13 1204.26 633.382 2
-4 2 13 1464.18 585.296 18
-4 2 12 1619.62 647.527 4
-4 2 12 1730.1 534.365 15
4 2 -12 1690.01 597.351 7
-4 2 12 2221.56 596.79 18
-4 2 12 1183.72 403.488 12
4 2 -12 1883.1 569.342 11
-4 2 12 779.765 491.969 10
4 2 -12 751.865 458.159 2
-4 2 12 872.912 584.166 16
4 2 -11 8508.14 824.339 15
-4 2 11 8687.57 1083.4 4
4 2 -11 7714.53 956.362 7
-4 2 11 9139.24 900.088 12
-4 2 11 9012.05 1080.5 10
4 2 -11 9095.28 1112.99 2
-4 2 11 8720.25 985.271 18
-4 2 11 9490.34 1137.4 16
-4 2 11 9344.33 990.42 15
4 2 -10 20889.1 1305.4 15
-4 2 10 20715.3 1339.39 12
-4 2 10 22754.3 1251.91 5
-4 2 10 21055.9 1509.53 18
-4 2 10 21886.5 1562.71 10
-4 2 10 23099.1 1628.42 4
-4 2 10 21361 1618.92 16
4 2 -10 21658.9 1490.61 7
4 2 -10 20094.2 1563.75 2
-4 2 10 24287 1593.11 15
4 2 -9 4568.13 679.289 7
-4 2 9 3512.96 629.369 15
4 2 -9 3938.17 562.894 15
-4 2 9 4232.72 596.809 12
-4 2 9 3874.02 516.077 5
-4 2 9 4601.31 738.388 10
4 2 -9 4033.18 693.006 2
-4 2 9 3754.73 648.005 18
-4 2 9 4313.35 751.331 16
-4 2 9 3751.13 658.957 4
4 2 -8 571.125 410.015 7
4 2 -8 264.252 254.747 15
-4 2 8 -520.393 457.399 16
-4 2 8 318.035 280.561 5
4 2 -8 -55.4894 358.869 2
-4 2 8 -216.491 408.934 10
-4 2 8 140.369 68.1276 3
-4 2 8 -42.7712 357.373 15
-4 2 8 -61.2812 317.312 18
-4 2 8 244.956 357.216 4
4 2 -7 2158.97 485.918 7
-4 2 7 2025.85 492.977 15
4 2 -7 2071.44 412.276 15
-4 2 7 2321.74 276.629 3
4 2 -7 2593.88 261.993 1
4 2 -7 2515.09 518.343 2
4 2 -7 2565.78 257.063 5
-4 2 7 2218.03 539.038 10
-4 2 7 3217.39 570.84 4
-4 2 7 2188.86 475.698 18
-4 2 7 1983.63 522.566 16
4 2 -6 1147.86 400.884 7
-4 2 6 861.149 392.337 15
4 2 -6 1278.63 383.868 15
4 2 -6 1121.13 219.383 1
4 2 -6 1103.27 437.936 2
4 2 -6 1341.09 229.041 5
-4 2 6 1271.96 443.348 10
-4 2 6 909.361 328.504 18
-4 2 6 975.929 388.874 16
-4 2 6 1257.73 381.945 4
4 2 -5 999.187 369.427 15
4 2 -5 1037.69 273.002 14
4 2 -5 1420.59 250.706 1
4 2 -5 1171.41 390.408 2
4 2 -5 1037.35 210.876 5
-4 2 5 565.534 315.248 15
-4 2 5 644.875 308.07 18
-4 2 5 1162.05 422.161 16
-4 2 5 1336.98 369.546 4
4 2 -5 1179.77 336.029 7
-4 2 4 1505 426.037 15
4 2 -4 1664.15 371.493 15
4 2 -4 1886.35 288.222 14
-4 2 4 1763.23 232.562 9
-4 2 4 1240.71 348.698 4
4 2 -4 1766.36 433.484 2
-4 2 4 1562.8 284.103 11
4 2 -4 1794.16 307.029 1
4 2 -4 1661.98 288.675 5
-4 2 4 1731.84 438.123 18
-4 2 4 1470.22 406.752 16
4 2 -4 1754.14 436.224 7
4 2 -3 6488.94 680.994 15
4 2 -3 5572.09 525.849 1
4 2 -3 5683.35 408.164 14
4 2 -3 4931.21 576.341 2
4 2 -3 5113.9 498.318 5
-4 2 3 5391.73 638.582 18
-4 2 3 5479.06 436.397 9
-4 2 3 5901.13 662.868 15
-4 2 3 4268.6 487.611 4
-4 2 3 5474.23 598.598 16
-4 2 3 5619.39 520.984 7
-4 2 2 2081.58 321.732 7
4 2 -2 2032.91 439.785 15
4 2 -2 1594.17 378.717 2
4 2 -2 1597.71 324.022 5
-4 2 2 1737.43 324.539 9
-4 2 2 2040.83 400.143 15
-4 2 2 2001.32 395.935 16
-4 2 2 1967.95 440.634 18
-4 2 2 2244.67 363.728 4
4 2 -1 4578.61 600.039 15
4 2 -1 4116.89 425.197 13
4 2 -1 3864.4 482.578 5
-4 2 1 1777.81 413.961 2
-4 2 1 4165.67 497.942 15
-4 2 1 4640.02 540.301 18
-4 2 1 4389.68 489.19 9
-4 2 1 3938.77 450.973 4
4 2 -1 4610.24 552.734 2
-4 2 1 4479.86 370.05 7
-4 2 0 1427.23 308.618 15
-4 2 0 1993.54 226.071 7
4 2 0 1570.71 400.931 15
-4 2 0 1095.38 295.909 2
4 2 0 2013.03 386.888 2
4 2 0 1700.19 308.668 13
-4 2 0 2324.56 386.676 18
4 2 0 1463.85 360.869 5
4 2 0 1703.99 367.833 10
-4 2 0 2031.3 381.413 9
-4 2 -1 11604.4 729.167 6
4 2 1 15840.3 863.454 13
4 2 1 16584.5 1058.61 5
4 2 1 14712.4 957.437 10
-4 2 -1 16197.8 983.575 9
-4 2 -1 16056.3 881.993 18
4 2 1 16394.6 1050.62 18
-4 2 -1 11463.3 816.263 2
4 2 1 14432.3 913.146 2
-4 2 -1 16445.5 585.54 7
-4 2 -1 16019.4 880.568 15
4 2 1 15319.8 1013.88 15
4 2 2 22945.1 1122.62 13
4 2 2 21398.3 1271.86 5
4 2 2 22874.1 1266.35 10
-4 2 -2 23064.3 1261.64 9
-4 2 -2 21919.6 1014.5 18
4 2 2 22628.1 1195.91 2
4 2 2 21511 1235.61 18
-4 2 -2 18178.6 936.269 2
-4 2 -2 24239.9 733.962 7
-4 2 -2 22069.2 1015.28 15
4 2 2 21611.1 1229.12 15
-4 2 -3 8117.58 579.504 6
4 2 3 9464.69 727.757 13
4 2 3 8794.9 816.481 5
4 2 3 7337.64 769.232 10
-4 2 -3 8453.63 793.122 9
-4 2 -3 8086.41 540.476 18
4 2 3 8528.19 771.786 18
-4 2 -3 8546.91 599.346 2
-4 2 -3 6748.66 411.103 7
-4 2 -3 8847.02 568.914 15
4 2 3 7382.46 710.602 15
4 2 4 10391.6 828.082 13
4 2 4 9909 923.64 5
4 2 4 8513.03 825.33 10
-4 2 -4 9878.59 546.906 18
-4 2 -4 8160.06 825.037 9
4 2 4 9141.57 809.409 18
-4 2 -4 9650.87 638.978 16
-4 2 -4 9829.23 548.158 15
-4 2 -4 9910.95 739.559 2
4 2 4 8993.13 789.298 15
4 2 5 1539.51 392.084 15
-4 2 -5 2112.53 278.243 7
4 2 5 1464.94 383.712 13
-4 2 -5 2161.22 434.754 2
4 2 5 1696.46 469.576 5
4 2 5 1783.99 515.225 10
-4 2 -5 1782.62 499.42 9
-4 2 -5 1896.43 193.923 18
4 2 5 1621.8 396.138 18
-4 2 -5 2107.85 339.761 16
4 2 6 929.082 327.01 15
-4 2 -6 1297.31 290.101 7
-4 2 -6 1417.88 354.221 2
4 2 6 1415.26 448.553 5
4 2 6 1887.89 557.407 10
-4 2 -6 974.973 430.946 9
4 2 6 768.242 297.966 17
4 2 6 527.069 313.45 18
4 2 6 1379.16 421.462 13
-4 2 -7 1330.99 327.814 7
4 2 7 1019.84 380.883 15
4 2 7 258.221 375.167 13
-4 2 -7 565.948 247.937 2
4 2 7 451.15 387.611 5
4 2 7 1068.22 507.138 10
-4 2 -7 1154.27 465.331 9
4 2 7 1562.44 396.998 18
4 2 7 763.788 329.167 17
4 2 8 2632.3 482.658 15
-4 2 -8 3378.07 476.137 7
4 2 8 3026.27 664.739 13
-4 2 -8 2370.57 529.395 11
-4 2 -8 3226.19 545.742 2
4 2 8 2785.41 612.292 5
4 2 8 2757.42 650.368 10
-4 2 -8 2610.41 574.523 3
4 2 8 3064.05 508.71 18
4 2 8 2374.55 461.754 17
-4 2 -8 2734.44 617.093 9
4 2 9 2351.47 459.053 15
-4 2 -9 2645.3 642.727 9
-4 2 -9 1487.85 480.523 11
-4 2 -9 2077.82 491.804 3
-4 2 -9 1776.29 452.545 2
4 2 9 1829.54 568.417 5
4 2 9 2211.59 642.228 10
4 2 9 2450.49 482.337 18
-4 2 -9 1759.85 445.613 1
4 2 9 2622.81 499.434 17
4 2 10 2995.2 544.14 15
-4 2 -10 2761.25 544.702 1
-4 2 -10 2395.18 581.605 11
-4 2 -10 3032.08 641.423 2
4 2 10 2638.23 651.09 5
4 2 10 3467.39 703.645 10
-4 2 -10 2111.3 501.288 3
-4 2 -10 3276.68 676.51 9
4 2 10 3880.98 567.94 18
4 2 10 3528.88 553.058 17
-4 2 -11 -174.547 398.989 9
-4 2 -11 670.198 473.873 11
-4 2 -11 582.956 410.032 1
-4 2 -11 874.234 376.176 2
4 2 11 817.54 533.097 10
4 2 11 726.196 515.951 5
-4 2 -11 1140.49 471.48 3
-4 2 -12 1921.4 613.181 11
-4 2 -12 2609.74 703.188 2
4 2 12 1182.4 569.526 10
4 2 12 1334.1 581.499 5
-4 2 -12 1382.28 516.132 3
-4 2 -12 1239.72 525.382 9
-4 2 -12 1367.93 501.778 1
-4 2 -13 5818.34 990.246 9
-4 2 -13 6053.57 993.185 2
4 2 13 5773.06 964.143 5
4 2 14 690.806 578.026 5
-4 3 14 748.692 593.838 15
-4 3 14 845.36 610.895 18
4 3 -13 1262.76 581.026 7
-4 3 13 384.505 462.939 15
-4 3 13 828.529 653.583 4
-4 3 13 1083.59 585.774 18
-4 3 13 1141.9 624.856 10
4 3 -12 937.502 527.009 7
-4 3 12 608.103 590.099 4
-4 3 12 1755.78 636.761 15
4 3 -12 1648.51 680.513 2
-4 3 12 509.71 509.973 10
-4 3 12 871.663 529.661 18
-4 3 12 2119.61 761.385 16
4 3 -11 5942.13 850.708 7
-4 3 11 5027.56 838.683 4
-4 3 11 5376.31 881.583 15
-4 3 11 6902.89 1025.95 16
-4 3 11 5717.93 909.837 18
4 3 -11 6011.29 962.785 2
-4 3 11 4801.7 731.353 5
-4 3 11 6158.46 986.569 10
-4 3 10 791.459 450.11 4
4 3 -10 1915.3 559.701 7
-4 3 10 1087.1 452.929 15
4 3 -10 977.959 400.548 15
-4 3 10 924.088 342.815 12
4 3 -10 1211.31 540.587 2
-4 3 10 1424.66 464.492 5
-4 3 10 1429.89 576.379 10
-4 3 10 1121.84 438.051 18
-4 3 10 394.635 514.062 16
4 3 -9 3934.86 675.75 7
-4 3 9 3627.09 690.684 15
4 3 -9 4813.56 659.094 15
-4 3 9 6122.78 720.716 12
4 3 -9 3863.79 713.601 2
-4 3 9 4308.93 648.858 5
-4 3 9 3363.86 669.079 10
-4 3 9 4724.47 797.882 18
-4 3 9 5086.72 851.459 16
-4 3 9 5394.7 799.501 4
-4 3 8 2732.94 607.164 15
4 3 -8 3430.87 577.388 15
4 3 -8 2862.78 677.507 2
-4 3 8 3889.98 765.901 5
-4 3 8 1874.16 570.797 10
-4 3 8 2686.96 593.149 18
-4 3 8 2943.95 657.809 16
-4 3 8 3680.32 637.29 4
4 3 -8 2256.97 524.711 7
-4 3 7 -354.642 384.492 15
4 3 -7 -122.347 289.586 15
4 3 -7 -120.441 380.173 2
4 3 -7 -10.1583 233.014 5
-4 3 7 -16.191 404.241 10
-4 3 7 -8.43738 332.551 18
-4 3 7 328.867 396.748 16
-4 3 7 674.674 405.762 4
4 3 -7 274.523 368.685 7
4 3 -6 3509.81 578.656 15
4 3 -6 3470.63 651.001 2
-4 3 6 2310.81 523.544 15
4 3 -6 3440.68 476.608 5
-4 3 6 3487.15 636.35 10
-4 3 6 2882.16 581.246 18
-4 3 6 3469.22 608.14 16
-4 3 6 3277.69 558.948 4
4 3 -6 3281.35 553.994 7
4 3 -5 9945.16 921.61 15
-4 3 5 11091.2 957.398 16
4 3 -5 9279.52 775.489 5
-4 3 5 10490 993.533 10
-4 3 5 9607.35 974.806 18
-4 3 5 9955.19 842.762 4
4 3 -5 10647.6 999.968 2
-4 3 5 9814.3 970.479 15
-4 3 4 1480.09 476.998 15
4 3 -4 1158.26 406.578 15
4 3 -4 1176.73 421.283 2
4 3 -4 1037.08 309.882 5
-4 3 4 1035.31 438.027 10
-4 3 4 2344.61 558.024 18
-4 3 4 1379.4 422.03 16
-4 3 4 1825.56 399.259 4
-4 3 3 4277.55 641.15 15
4 3 -3 3955.56 598.431 15
4 3 -3 3976.99 615.411 2
-4 3 3 4268.57 579.951 16
4 3 -3 4094.34 588.732 18
4 3 -3 4186.38 541.732 5
-4 3 3 4035.21 477.533 9
-4 3 3 3140.95 564.814 18
-4 3 3 4360.09 494.328 4
-4 3 2 3769.36 583.958 15
4 3 -2 3275.56 540.756 15
4 3 -2 3445.95 560.658 18
4 3 -2 3054.64 549.386 2
4 3 -2 3336.14 373.58 13
-4 3 2 2801.67 471.739 2
4 3 -2 3015.24 473.846 5
-4 3 2 2853.5 432.93 9
-4 3 2 2965.43 515.534 18
-4 3 2 3401.89 478.976 16
-4 3 2 3487.96 430.184 4
-4 3 1 957.617 341.911 15
-4 3 1 180.825 237.224 2
4 3 -1 -64.0515 297.324 15
4 3 -1 467.636 354.548 2
4 3 -1 410.741 205.22 13
4 3 -1 750.105 314.449 5
4 3 -1 76.1161 287.748 10
-4 3 1 798.063 342.079 9
-4 3 1 555.923 341.889 18
4 3 -1 422.127 358.68 18
-4 3 1 837.961 240.731 4
-4 3 1 774.406 287.259 16
4 3 0 6580.11 768.631 15
4 3 0 6991.19 527.366 13
-4 3 0 7144.19 649.383 2
-4 3 0 7440.22 580.591 16
4 3 0 6991.21 789.972 5
4 3 0 7201.37 679.888 10
-4 3 0 7627.79 767.268 9
-4 3 0 7133.95 718.765 18
-4 3 0 7117.69 522.808 4
4 3 0 6941.65 805.491 18
4 3 0 7296.38 815.513 2
-4 3 0 7539.35 747.658 15
-4 3 -1 1093.93 342.877 15
4 3 1 821.83 386.33 15
4 3 1 1428.97 424.696 2
-4 3 -1 853.228 347.124 2
4 3 1 940.474 243.334 13
-4 3 -1 675.251 359.513 9
4 3 1 471.738 323.411 5
4 3 1 850.069 351.475 10
4 3 1 1078.35 400.814 18
-4 3 -1 1314.31 361.853 18
-4 3 -1 1240.41 269.745 16
4 3 2 2262.19 410.884 2
4 3 2 3090.82 590.222 15
-4 3 -2 3096.15 356.682 4
-4 3 -2 2570.97 424.7 15
-4 3 -2 2439.01 488.834 2
4 3 2 3022.28 398.317 13
-4 3 -2 3356.72 571.168 9
4 3 2 3147.4 589.845 5
4 3 2 2815.85 519.845 10
-4 3 -2 2906.37 456.482 18
4 3 2 2302.02 500.454 18
-4 3 -2 2896.93 332.738 16
4 3 3 18562.8 1047.13 13
4 3 3 16212.5 1254.28 5
4 3 3 16118.9 1210.4 10
-4 3 -3 17602.3 1269.95 9
-4 3 -3 17497.1 1002.51 18
4 3 3 17297.9 1247.44 2
4 3 3 16936.9 1283.11 18
-4 3 -3 17608.8 1113.92 2
-4 3 -3 17522.3 1005.97 15
4 3 3 17964.2 1287.89 15
-4 3 -4 5439.7 776.867 9
4 3 4 4365.97 659.759 15
4 3 4 5722.33 603.93 13
4 3 4 5316.92 783.66 5
4 3 4 6409.89 801.449 10
-4 3 -4 5266.44 507.641 18
4 3 4 5156.24 735.602 18
-4 3 -4 5986.34 729.097 2
-4 3 -4 5833.95 536.22 15
-4 3 -5 366.133 168.373 15
4 3 5 778.575 444.44 15
4 3 5 953.47 362.331 13
-4 3 -5 880.618 427.567 2
4 3 5 44.1178 346.406 5
4 3 5 30.3905 394.806 10
-4 3 -5 117.495 383.881 9
-4 3 -5 881.947 245.798 18
4 3 5 688.585 389.398 18
4 3 6 5745.15 773.734 15
4 3 6 5092.47 670.983 13
4 3 6 4469.79 712.137 18
-4 3 -6 4379.05 732.889 9
4 3 6 4945.43 796.153 5
4 3 6 5249.32 817.023 10
-4 3 -6 6656.64 765.68 2
4 3 6 4848.08 744.961 17
4 3 7 1190.8 421.692 15
-4 3 -7 1799.3 602.376 9
-4 3 -7 1741.31 480.886 2
4 3 7 988.387 463.167 5
4 3 7 987.279 458.607 10
4 3 7 742.584 373.999 18
4 3 7 654.471 398.692 17
4 3 8 2241.34 563.514 15
-4 3 -8 1954.76 571.933 9
-4 3 -8 2813.04 576.178 2
4 3 8 3311.68 756.291 5
4 3 8 3322.99 749.508 10
4 3 8 2558.41 548.517 18
4 3 8 2836.59 581.909 17
4 3 9 1334.61 491.199 15
-4 3 -9 223.298 422.125 2
-4 3 -9 1706.43 598.582 9
4 3 9 1765.96 670.295 5
4 3 9 662.177 547.362 10
4 3 9 486.56 360.84 18
4 3 9 746.383 448.572 17
4 3 10 2142 524.578 15
-4 3 -10 1526.5 470.959 11
-4 3 -10 2334.95 536.925 2
4 3 10 1748.87 574.985 5
4 3 10 2780.26 731.379 10
-4 3 -10 3456.57 777.058 9
-4 3 -10 1113.82 432.592 3
4 3 10 2883.55 659.232 18
4 3 10 1867.14 540.665 17
-4 3 -11 7145.45 1022.15 3
-4 3 -11 9432.06 1158.86 1
-4 3 -11 8682.45 1115.45 11
-4 3 -11 9386.74 1097.58 2
4 3 11 8425.48 1184.13 5
4 3 11 9705.84 1289.4 10
-4 3 -11 10147 1269.46 9
-4 3 -12 2208.4 680.83 2
4 3 12 3252.4 858.483 5
-4 3 -12 2046.27 581.659 3
-4 4 12 2521.49 794.36 4
-4 4 11 5966.32 982.596 15
-4 4 11 7615.83 1085.96 4
-4 4 11 6172.84 933.624 5
-4 4 11 7414.27 1053.81 18
-4 4 11 7854.57 1188.25 16
-4 4 10 7774.08 1046.22 4
-4 4 10 6888.04 1025.36 15
4 4 -10 8163.71 1205.81 2
-4 4 10 7477.22 975.696 5
-4 4 10 7919.17 1152.7 10
-4 4 10 6848.1 1020.36 18
-4 4 10 8765.24 1201.55 16
-4 4 9 5519.24 856.845 4
-4 4 9 4234.15 796.29 15
4 4 -9 4812.45 723.726 15
4 4 -9 6828.58 1067 2
-4 4 9 4373.24 779.672 5
-4 4 9 5022.1 938.053 10
-4 4 9 5165.85 878.13 18
4 4 -9 4986.98 763.794 18
-4 4 9 5240.99 915.738 16
-4 4 8 6293.27 952.838 15
4 4 -8 7181.43 864.205 15
4 4 -8 7488.87 1070.13 2
-4 4 8 7156.87 983.122 5
-4 4 8 7328.16 1065.91 10
-4 4 8 5803.76 918.082 16
-4 4 8 6166.17 830.226 4
-4 4 8 6703.66 975.427 18
4 4 -8 6755.68 886.262 18
-4 4 7 6959.47 982.861 15
4 4 -7 6109.04 1024.03 2
4 4 -7 9678.15 993.519 18
-4 4 7 7887.67 1029.01 10
-4 4 7 8372.77 1055.51 18
-4 4 7 8964.28 931.014 4
-4 4 7 7665.59 975.011 16
4 4 -7 8613.7 943.069 15
-4 4 6 9253.42 1078.83 18
4 4 -6 9404.66 977.05 15
4 4 -6 9347.62 908.555 5
4 4 -6 8496.28 917.709 18
-4 4 6 8605.7 1066.42 10
-4 4 6 9158.56 886.679 4
4 4 -6 8506.38 1087.27 2
-4 4 6 8562.43 947.47 16
-4 4 6 9428.63 1116.35 15
-4 4 5 9687.75 991.453 16
4 4 -5 6687.02 1034.16 2
4 4 -5 8465.88 903.15 5
-4 4 5 9851.27 1067.61 10
-4 4 5 8069.8 1005.52 18
4 4 -5 9042.43 1002.36 18
-4 4 5 9129.24 810.935 4
-4 4 5 8563.53 1000.19 15
4 4 -5 8282.33 924.325 15
-4 4 4 45.3082 357.019 15
4 4 -4 -201.75 355.286 15
4 4 -4 461.873 353.972 18
4 4 -4 427.658 406.977 2
4 4 -4 747.181 406.424 5
-4 4 4 -299.849 421.465 10
-4 4 4 340.978 409.383 18
-4 4 4 42.1429 310.24 16
-4 4 4 -114.091 269.843 4
4 4 -3 24034.3 1557.97 5
4 4 -3 25512 1676.78 18
-4 4 3 26620.3 1632.7 10
-4 4 3 22091 1557.08 17
-4 4 3 23713.3 1636.28 18
-4 4 3 25898.6 1604.8 2
4 4 -3 26450.4 1808.71 2
-4 4 3 26721.2 1470 16
-4 4 3 24777.6 1664.58 15
4 4 -3 25987.1 1669.76 15
4 4 -2 17378 1292.22 5
-4 4 2 15416.9 1219.8 10
4 4 -2 17499.4 1013.54 10
-4 4 2 20029.8 1284.45 9
-4 4 2 17368.3 1342.08 18
4 4 -2 16377 1341.89 18
-4 4 2 18593.8 1295.61 2
-4 4 2 15574.3 1233.79 17
-4 4 2 18023.6 1108.91 16
4 4 -2 16657.9 1401.37 2
-4 4 2 16945.7 1310.21 15
4 4 -2 15868.3 1299.37 15
-4 4 1 13870.5 1150.2 17
-4 4 1 16612.7 1196.28 2
4 4 -1 15976.5 1251.01 5
-4 4 1 14450.1 1132.69 10
4 4 -1 14404.7 1004.11 10
-4 4 1 15932 1237.55 18
-4 4 1 17100.6 1240.03 9
4 4 -1 14395.3 1253.94 18
4 4 -1 13500 1213.17 2
-4 4 1 17515.1 1000.43 16
-4 4 1 14655.9 1215.39 15
4 4 -1 13924.3 1231.36 15
4 4 0 255.011 339.606 15
-4 4 0 452.754 366.417 2
4 4 0 290.963 404.063 2
-4 4 0 457.876 343.975 15
4 4 0 424.625 369.47 5
4 4 0 650.559 353.448 18
4 4 0 274.298 291.096 10
-4 4 0 500.245 366.594 9
-4 4 0 315.797 352.264 18
-4 4 0 -115.939 296.342 17
4 4 1 5155.41 782.159 15
4 4 1 6991.47 889.238 2
-4 4 -1 6883.85 773.016 18
-4 4 -1 6221.24 783.64 2
4 4 1 6958.71 886.676 5
4 4 1 6756.3 779.379 10
-4 4 -1 7083.19 894.743 9
4 4 1 5541.1 810.424 18
-4 4 -1 6377.4 740.815 17
-4 4 -1 7096.27 790.1 15
4 4 2 10218.7 1190.07 5
4 4 2 13492 1142.74 10
-4 4 -2 14931.4 1265.65 9
-4 4 -2 13492.5 1040.81 18
4 4 2 14019 1261.56 18
4 4 2 15284.1 1289.98 2
-4 4 -2 13924 1118.24 2
-4 4 -2 12675.5 1017.3 17
-4 4 -2 13489.6 1045.94 15
4 4 2 15047.4 1305.21 15
-4 4 -3 1170.55 369.345 15
4 4 3 444.381 424.314 15
-4 4 -3 269.117 432.884 2
4 4 3 1227.78 456.362 5
4 4 3 416.356 382.135 10
-4 4 -3 1444.29 545.667 9
-4 4 -3 1093.77 354.307 18
4 4 3 1006.6 464.356 18
4 4 3 622.595 492.635 2
4 4 4 3085.69 691.599 15
-4 4 -4 1734.65 403.879 15
-4 4 -4 697.524 500.044 2
4 4 4 1443.85 526.918 5
4 4 4 1360.09 463.921 10
-4 4 -4 1837.62 613.373 9
4 4 4 2250.32 610.672 18
4 4 4 3190.94 712.695 17
4 4 5 1444.92 522.455 15
-4 4 -5 1156.79 420.757 2
4 4 5 1932.57 666.775 5
4 4 5 949.62 521.542 10
-4 4 -5 1080.5 508.014 9
4 4 5 1547.04 575.553 18
4 4 5 1868.05 594.411 17
4 4 6 5589.88 877.571 15
-4 4 -6 4973.74 806.996 2
4 4 6 4818.34 915.154 5
4 4 6 4126.64 821.269 10
-4 4 -6 4402.33 816.118 9
4 4 6 3413.04 719.963 18
4 4 6 5192.62 868.809 17
4 4 7 1159.76 540.536 15
-4 4 -7 1525.32 579.512 2
4 4 7 449.277 425.673 5
4 4 7 760.364 551.788 10
-4 4 -7 525.411 476.904 9
4 4 7 1365.93 519.905 18
4 4 7 1395.8 589.315 17
4 4 8 755.955 453.019 15
-4 4 -8 84.0576 424.221 2
4 4 8 1347.72 603.485 5
4 4 8 81.849 494.619 10
-4 4 -8 110.83 425.125 9
4 4 8 160.341 376.641 18
4 4 8 464.602 384.205 17
4 4 9 1587.63 551.002 15
-4 4 -9 1715.62 569.228 2
4 4 9 187.598 517.065 5
4 4 9 558.326 471.528 10
-4 4 -9 1702.12 705.061 9
4 4 9 1056.5 536.966 18
4 4 9 2364.49 625.558 17
4 4 10 2968.04 747.494 15
-4 4 -10 2682.6 670.955 2
4 4 10 2079.93 632.774 18
4 4 10 3194.37 716.339 17
-4 5 10 5715.02 951.813 5
-4 5 9 3182.61 791.052 5
-4 5 9 5164.32 953.202 16
-4 5 8 607.191 614.06 5
-4 5 8 1227.57 662.313 10
-4 5 8 -156.318 472.099 16
-4 5 7 68.5703 495.476 15
4 5 -7 813.758 491.718 15
4 5 -7 1004.71 603.81 2
-4 5 7 469.221 547.691 10
-4 5 7 920.66 579.854 18
4 5 -7 -40.2188 437.956 18
-4 5 7 605.911 439.256 16
-4 5 6 1225.79 550.055 15
4 5 -6 1855.76 573.107 15
4 5 -6 2108.21 737.505 2
-4 5 6 -11.2167 559.595 10
-4 5 6 -210.251 516.887 18
4 5 -6 1725.15 550.043 18
-4 5 6 1135.35 479.551 16
-4 5 5 1680.18 590.258 15
4 5 -5 350.197 471.561 15
4 5 -5 1083.6 649.98 2
4 5 -5 112.078 385.02 5
-4 5 5 815.186 571.352 10
-4 5 5 1056.8 555.942 18
4 5 -5 1889.41 632.019 18
4 5 -4 9619.96 1183.65 2
4 5 -4 10455.5 1120.71 5
-4 5 4 11216 1175.47 10
-4 5 4 9105.92 1136.62 18
4 5 -4 11111.9 1213.62 18
-4 5 4 7559.41 1044.64 17
-4 5 4 10830.9 1237.73 15
4 5 -4 10012.6 1134.42 15
-4 5 3 2787.31 721.846 2
4 5 -3 3014.83 681.289 15
4 5 -3 2540.38 624.123 18
4 5 -3 3022.03 764.414 2
-4 5 3 1730.31 582.944 17
-4 5 3 3125.85 719.395 15
4 5 -3 1817.69 587.967 5
-4 5 3 2723.97 638.598 10
-4 5 3 2654.73 663.85 18
-4 5 2 1812.04 607.151 2
-4 5 2 1313.4 505.318 15
4 5 -2 1650.33 595.412 15
4 5 -2 1924.28 645.231 2
4 5 -2 796.796 415.043 5
-4 5 2 1000.09 416.003 10
-4 5 2 1182.51 487.296 18
4 5 -2 2139.73 635.922 18
-4 5 2 916.235 536.131 17
-4 5 1 1196.92 483.57 15
-4 5 1 1985.74 639.321 2
4 5 -1 1822.97 616.912 15
4 5 -1 1355.4 600.5 2
4 5 -1 1998.19 639.204 5
-4 5 1 1355.01 488.797 10
-4 5 1 979.944 435.549 18
4 5 -1 480.508 421.958 18
-4 5 1 1852.96 527.698 17
-4 5 0 399.897 346.498 15
4 5 0 635.378 503.18 15
-4 5 0 324.151 384.061 2
4 5 0 1042.6 556.609 2
4 5 0 815.594 456.332 5
-4 5 0 585.409 378.734 10
-4 5 0 901.493 470.238 18
4 5 0 -103.102 407.454 18
-4 5 0 837.385 489.078 17
-4 5 -1 698.566 402.227 15
4 5 1 -290.406 388.059 15
4 5 1 598.78 571.387 2
-4 5 -1 553.99 421.798 2
4 5 1 -108.366 384.885 5
4 5 1 63.1454 323.462 10
-4 5 -1 279.399 404.618 9
-4 5 -1 664.129 375.889 18
4 5 1 537.439 462.283 18
-4 5 -1 789.367 404.244 17
4 5 2 2134.41 630.834 2
4 5 2 2505.64 656.171 15
4 5 2 2418.48 679.538 17
-4 5 -2 2693.04 646.448 2
-4 5 -2 2309.25 575.181 15
4 5 2 2395.7 658.325 5
4 5 2 2511.22 620.08 10
-4 5 -2 3753.22 852.208 9
-4 5 -2 2239.68 520.37 18
4 5 2 2432.71 642.582 18
-4 5 -2 2894.37 589.545 17
4 5 3 -184.694 436.833 2
-4 5 -3 634.712 510.698 2
4 5 3 321.232 508.213 15
4 5 3 -82.7956 466.339 5
4 5 3 224.59 402.45 10
-4 5 -3 638.604 544.667 9
4 5 3 600.129 477.452 18
4 5 3 835.222 535.674 17
4 5 4 5058.56 911.744 15
-4 5 -4 3321.26 782.223 2
4 5 4 3334.6 832.271 5
4 5 4 4792.76 869.428 10
-4 5 -4 4080.93 829.004 9
4 5 4 4166.4 800.193 18
4 5 4 4362.63 853.438 17
4 5 5 887.917 607.589 15
-4 5 -5 1302.87 587.477 2
4 5 5 646.913 505.926 5
4 5 5 631.881 507.036 10
-4 5 -5 138.001 429.851 9
4 5 5 943.24 632.677 18
4 5 5 1081.56 607.096 17
4 5 6 791.933 562.328 15
-4 5 -6 444.681 541.24 2
4 5 6 1085.31 637.596 5
4 5 6 323.485 476.822 10
-4 5 -6 243.572 501.647 9
4 5 6 765.275 527.167 18
4 5 6 927.438 561.506 17
-4 5 -7 1576.76 680.15 2
4 5 7 2775.81 804.211 10
-4 6 5 1178.45 627.762 10
4 6 -4 402.417 531.408 5
-4 6 4 646.846 559.098 10
4 6 -3 5506.75 966.761 5
-4 6 2 1165.49 521.209 2
-4 6 2 1270.25 611.311 15
4 6 -2 453.837 573.028 5
-4 6 2 1125.53 545.939 18
-4 6 2 578.83 459.429 17
-4 6 1 555.758 447.39 15
-4 6 1 453.962 460.721 2
4 6 -1 1091.97 646.187 5
-4 6 1 1292.08 647.358 18
-4 6 1 965.351 475.544 17
-4 6 0 2225.26 655.154 15
-4 6 0 1838.77 691.968 2
-4 6 0 2750.54 696.085 18
-4 6 0 1510.76 582.174 17
-4 6 -1 1304.9 528.66 15
-4 6 -1 997.012 558.321 2
-4 6 -1 1504.98 621.263 18
-4 6 -1 2049.78 658.67 17
-4 6 -2 220.921 494.331 2
-4 6 -3 277.732 492.673 2
5 -6 -5 2636.88 736.276 6
5 -6 -4 3625.28 770.491 6
5 -6 -3 676.537 529.468 6
5 -6 -2 1542.96 542.383 6
5 -6 -1 3129.03 768.117 6
5 -6 0 3675.2 773.653 6
5 -6 0 4868.08 915.842 8
5 -6 1 1030.58 552.039 6
5 -6 1 224.072 519.429 8
5 -6 2 -22.3705 407.208 8
-5 -5 9 -193.672 480.393 12
5 -5 -8 2095.1 660.641 6
-5 -5 8 1447.29 525.884 12
5 -5 -7 3330.28 736.369 6
-5 -5 7 1574.98 610.91 6
-5 -5 7 2923.33 729.115 12
5 -5 -7 3640.48 875.408 8
5 -5 -6 1895.1 660.048 6
-5 -5 6 1301.81 592.169 6
-5 -5 6 2559.21 615.311 12
5 -5 -6 1533.07 654.536 8
5 -5 -5 2989.75 782.429 14
5 -5 -5 2488.23 660.148 6
-5 -5 5 3193 788.518 6
5 -5 -5 3354.3 759.552 8
5 -5 -4 831.504 504.291 14
5 -5 -4 -246.155 391.891 6
-5 -5 4 -234.68 419.205 6
5 -5 -4 614.957 492.516 8
5 -5 -3 1369.18 557.659 14
5 -5 -3 722.334 429.798 6
-5 -5 3 796.456 501.469 6
5 -5 -3 1725.61 643.748 8
5 -5 -2 2144.11 688.302 14
5 -5 -2 2622.92 561.412 6
-5 -5 2 3027.82 684.708 6
5 -5 -2 2448 629.562 8
5 -5 -1 1720.25 589.822 14
5 -5 -1 1989.46 487.042 6
-5 -5 1 1487.25 591.281 6
-5 -5 1 1454.88 656.364 1
5 -5 -1 2057.99 620.917 8
5 -5 0 -107.823 434.361 14
-5 -5 0 320.509 464.056 6
5 -5 0 1349.53 499.233 6
-5 -5 0 355.617 508.747 1
5 -5 0 1174.59 563.793 8
5 -5 1 1216.27 637.594 14
-5 -5 -1 -672.072 490.018 6
5 -5 1 290.23 350.854 6
-5 -5 -1 777.203 649.501 1
5 -5 1 515.319 405.596 8
5 -5 2 -649.695 622.404 14
-5 -5 -2 641.487 452.874 6
5 -5 2 2001.32 623.548 6
-5 -5 -2 1106.57 713.059 1
5 -5 2 888.864 540.088 8
5 -5 3 4334.88 710.633 8
5 -5 3 3668.13 833.933 14
-5 -5 -3 3597.96 722.368 6
5 -5 3 3253.6 703.241 6
-5 -5 -3 3438.51 954.99 1
5 -5 4 2493.82 671.218 14
-5 -5 -4 648.317 440.818 6
5 -5 4 1977.84 522.665 6
-5 -5 -4 2117.02 731.759 1
-5 -5 -5 5874.9 1042.77 6
5 -5 5 5275.33 891.754 6
5 -4 -12 1284.01 640.197 7
5 -4 -11 1102.84 615.679 7
5 -4 -11 895.006 543.387 8
5 -4 -10 3404.36 740.547 7
-5 -4 10 3713.19 844.109 6
-5 -4 10 5252.61 954.781 12
5 -4 -10 3752.5 799.495 8
-5 -4 9 10937.9 1266.27 6
-5 -4 9 10899.9 1202.74 12
5 -4 -9 11333.5 1284.2 8
5 -4 -9 10781.2 1127.94 7
5 -4 -8 1205.61 420.742 7
-5 -4 8 1575.16 523.684 6
-5 -4 8 1619.2 537.291 12
5 -4 -8 1143.61 573.624 8
5 -4 -7 5174.71 708.299 7
-5 -4 7 4793.73 844.349 6
-5 -4 7 5591.04 799.099 12
5 -4 -7 4056.66 753.385 8
5 -4 -6 1072.26 399.084 7
-5 -4 6 261.15 348.12 6
-5 -4 6 1099.64 467.615 12
5 -4 -6 1154.14 511.19 8
5 -4 -5 336.071 259.752 7
5 -4 -5 -162.892 319.694 6
-5 -4 5 104.85 326.946 6
-5 -4 5 832.825 375.931 12
5 -4 -5 -201.954 404.19 8
-5 -4 4 6826.16 658.456 14
5 -4 -4 6473.31 822.294 6
5 -4 -4 5919.37 617.425 13
-5 -4 4 6695.69 903.477 6
-5 -4 4 5811.05 709.967 12
-5 -4 4 6569.82 652.084 4
5 -4 -4 6260.7 897.524 8
5 -4 -4 7120.1 640.561 7
-5 -4 3 4339.31 507.214 14
5 -4 -3 3863.56 711.198 14
5 -4 -3 4404.1 726.293 6
-5 -4 3 5141.46 818.059 6
5 -4 -3 4513.99 533.985 13
-5 -4 3 4747.72 620.163 12
-5 -4 3 2131.33 667.114 1
5 -4 -3 5038.58 780.308 8
-5 -4 2 844.266 287.414 14
5 -4 -2 -411.799 421.603 14
5 -4 -2 1010.09 380.162 6
-5 -4 2 821.993 452.75 6
5 -4 -2 679.48 258.124 13
-5 -4 2 659.999 264.038 12
-5 -4 2 1595.49 618.911 1
5 -4 -2 964.634 436.998 8
-5 -4 1 11827 809.545 14
5 -4 -1 9884.65 1051.67 14
5 -4 -1 11539.9 966.74 6
5 -4 -1 10879 789.446 13
-5 -4 1 8076.75 943.623 6
5 -4 -1 9062.58 1018.55 8
-5 -4 1 10369.3 1166.75 1
-5 -4 0 1711.09 360.622 14
5 -4 0 2273.07 580.523 14
-5 -4 0 2027.15 600.115 6
5 -4 0 1772.55 352.175 13
5 -4 0 1744.02 447.235 6
-5 -4 0 1311.09 502.137 3
-5 -4 0 2245.4 694.327 1
5 -4 0 1668.88 493.46 8
-5 -4 -1 5162.52 792.481 6
5 -4 1 4693.1 548.702 13
5 -4 1 4904.71 615.502 6
-5 -4 -1 4999.1 833.588 3
5 -4 1 5258.12 782.066 14
-5 -4 -1 5585.86 577.838 14
-5 -4 -1 3415.8 835.622 1
5 -4 1 5285.91 774.31 8
-5 -4 -2 6952.26 666.584 14
5 -4 2 6626.35 915.733 14
5 -4 2 7267.82 777.775 6
5 -4 2 6973.04 689.669 13
-5 -4 -2 6027.11 851.488 6
-5 -4 -2 5378.27 831.942 3
-5 -4 -2 5075.57 942.524 1
5 -4 2 7202.32 849.358 8
5 -4 3 9371.41 1103.9 14
-5 -4 -3 9580.25 1046.8 6
-5 -4 -3 9253.9 1097.74 3
5 -4 3 11991.4 991.763 6
5 -4 3 11893.9 945.979 13
5 -4 3 12501.8 1072.79 8
-5 -4 -3 10787.2 1186.32 1
5 -4 4 3216.04 728.398 14
-5 -4 -4 2328 601.826 6
5 -4 4 1931.87 443.326 13
5 -4 4 2628.36 543.588 6
-5 -4 -4 1453.55 573.647 3
5 -4 4 2884.95 542.764 8
-5 -4 -4 2224.26 744.012 1
5 -4 5 3020.09 678.248 14
-5 -4 -5 2546.37 661.868 6
5 -4 5 3970.12 636.166 13
5 -4 5 3025.78 577.663 6
-5 -4 -5 3567.08 693.869 3
-5 -4 -5 2758.76 794.464 1
5 -4 5 3804.62 588.872 8
5 -4 6 1144.48 604.19 14
-5 -4 -6 477.623 477.581 6
5 -4 6 1122.6 424.894 13
5 -4 6 1030.69 420.986 6
-5 -4 -6 2186.77 649.722 3
-5 -4 -6 688.719 538.163 1
5 -4 7 5598.37 941.094 14
5 -4 7 3754.43 750.943 13
-5 -4 -7 4644.62 813.559 3
5 -4 7 4476.15 743.318 6
-5 -4 -7 4777.98 961.856 1
-5 -4 -8 1123.76 540.46 3
5 -4 8 851.308 482.716 6
-5 -4 -8 870.945 554.683 1
5 -4 9 342.703 426.207 6
5 -3 -13 137.391 392.764 8
5 -3 -12 655.327 567.369 7
-5 -3 12 3.44551 480.387 6
-5 -3 12 484.972 482.434 12
5 -3 -12 1486.63 542.879 8
-5 -3 12 2023.61 643.373 4
5 -3 -11 345.108 400.829 7
-5 -3 11 1431.77 647.268 6
-5 -3 11 1281.75 585.898 12
5 -3 -11 1322.76 460.832 8
-5 -3 11 1162.56 493.681 4
5 -3 -10 6959.08 913.727 7
-5 -3 10 7952.07 1051.61 6
-5 -3 10 5395.82 877.161 12
5 -3 -10 5934.43 872.04 8
-5 -3 10 5908.78 778.324 4
5 -3 -9 7567.4 921.684 7
-5 -3 9 7059.95 732.105 16
-5 -3 9 6717.75 916.173 6
-5 -3 9 6519.32 923.837 12
5 -3 -9 7031.6 927.421 8
-5 -3 9 7698.4 831.141 4
5 -3 -8 15829.4 1230.42 7
-5 -3 8 17078.8 1098.4 16
-5 -3 8 15804.6 1314.74 6
-5 -3 8 16020.1 1322.24 12
-5 -3 8 14638.7 1160.59 4
5 -3 -8 14434.9 1278.18 8
5 -3 -7 2019.31 499.74 7
-5 -3 7 1398.43 465.896 6
-5 -3 7 856.911 422.209 12
-5 -3 7 1464.03 366.887 16
5 -3 -7 2230.54 609.608 8
-5 -3 7 548.891 333.474 4
5 -3 -6 603.614 358.955 7
-5 -3 6 -162.729 353.197 6
-5 -3 6 -206.989 300.576 12
5 -3 -6 -281.775 400.044 8
-5 -3 6 -478.299 372.451 4
5 -3 -5 357.117 276.664 7
-5 -3 5 36.9547 308.73 6
-5 -3 5 363.65 326.242 12
-5 -3 5 -280.231 253.733 1
-5 -3 5 -192.302 258.49 4
5 -3 -5 168.049 381.789 8
-5 -3 4 6919.58 796.653 6
-5 -3 4 6822.12 731.769 12
-5 -3 4 6535.47 770.975 1
-5 -3 4 7940.44 569.069 10
-5 -3 4 7271.06 730.705 4
5 -3 -4 7149.41 848.552 8
5 -3 -4 7623.1 666.5 7
-5 -3 3 8797.09 585.512 14
5 -3 -3 8625.67 732.356 6
-5 -3 3 8052.48 831.342 6
5 -3 -3 8639.17 720.333 13
-5 -3 3 8075.99 747.554 12
5 -3 -3 8812.97 915.314 8
-5 -3 3 8692.3 928.046 3
5 -3 -3 9990.79 682.097 7
-5 -3 3 7705.69 852.532 1
-5 -3 2 7628.68 508.611 14
5 -3 -2 6397.18 681.597 6
5 -3 -2 6641.82 752.971 14
5 -3 -2 6957.12 636.137 13
-5 -3 2 6016.57 715.254 6
-5 -3 2 7557.98 658.995 12
-5 -3 2 7106.6 849.036 3
5 -3 -2 7402.06 836.208 8
-5 -3 2 7663.25 771.741 1
5 -3 -2 7822.87 554.661 7
-5 -3 1 34592 1253.54 14
5 -3 -1 30734.1 1730.88 14
5 -3 -1 34949.9 1517.67 6
-5 -3 1 31550.9 1799.4 3
-5 -3 1 33703.6 1730.2 6
5 -3 -1 34515.1 1520.62 13
-5 -3 1 32978.2 1427.32 12
5 -3 -1 33249.8 1779.99 8
-5 -3 1 33140.9 1725.11 1
5 -3 -1 34847.4 1188.38 7
-5 -3 0 4702.45 410.572 14
5 -3 0 4433.31 641.59 14
-5 -3 0 4463.99 644.475 6
5 -3 0 4132.12 498.79 6
5 -3 0 3970.57 491.797 13
-5 -3 0 4436.58 439.188 12
-5 -3 0 3997.94 672.196 3
-5 -3 0 4240.77 648.837 1
5 -3 0 3754.38 584.967 8
5 -3 1 16530.8 1238.56 14
-5 -3 -1 15861.3 1174.59 6
-5 -3 -1 16727 1274.17 3
5 -3 1 18370.7 1035.01 6
5 -3 1 17624.2 1067.71 13
-5 -3 -1 18154.8 1309.8 1
-5 -3 -1 18158.2 825.369 12
5 -3 1 17798.7 1218.7 8
5 -3 2 13191.3 1124.92 14
-5 -3 -2 11228.4 1009.28 6
-5 -3 -2 11892.7 1083.74 3
5 -3 2 13911.9 914.225 6
5 -3 2 14678.3 1001.73 13
-5 -3 -2 14602.5 628.334 12
-5 -3 -2 13041 1156.86 1
5 -3 2 13788 1049.04 8
-5 -3 -3 4030.53 678.306 1
5 -3 3 3449.92 635.464 14
-5 -3 -3 3088.73 558.016 6
5 -3 3 3581.26 528.941 13
5 -3 3 3505.08 500.082 6
-5 -3 -3 2773.94 579.072 3
5 -3 3 3645.99 561.411 8
-5 -3 -4 8751.77 946.167 6
5 -3 4 9604.64 1006.62 14
5 -3 4 10794.5 860.584 6
5 -3 4 13096.6 1045.33 13
-5 -3 -4 8212.54 910.805 3
5 -3 4 11990 940.189 8
-5 -3 -4 9970.89 1060.83 1
5 -3 5 9132.5 1043.05 14
-5 -3 -5 10408.1 1055.44 3
5 -3 5 10755.1 885.954 6
5 -3 5 10002.4 958.442 13
5 -3 5 11460.8 914.369 8
-5 -3 -5 10048.4 1077.64 1
-5 -3 -6 597.311 416.267 1
5 -3 6 1627.13 562.98 14
5 -3 6 1806.11 551.919 13
5 -3 6 2463.2 523.63 6
-5 -3 -6 1414.32 477.113 3
5 -3 6 2421.72 453.055 8
-5 -3 -7 4064.01 768.758 1
5 -3 7 3810.83 752.977 14
5 -3 7 5069.1 777.917 13
5 -3 7 6273.96 745.708 6
-5 -3 -7 4974.78 757.955 3
-5 -3 -8 4416.33 829.794 1
5 -3 8 3938.57 730.336 13
5 -3 8 2723.08 547.784 6
-5 -3 -8 3515.59 676.924 3
5 -3 9 100.518 496.603 13
5 -3 9 -24.5301 383.284 6
-5 -3 -9 -378.723 430.621 3
-5 -3 -10 1883.38 668.533 1
-5 -3 -11 1001.94 610.358 1
-5 -2 15 3495.18 839.8 4
-5 -2 14 606.999 523.431 4
5 -2 -13 -669.961 530.33 7
-5 -2 13 563.531 567.37 12
-5 -2 13 149.98 481.21 6
-5 -2 13 -270.41 360.699 16
-5 -2 13 631.901 498.386 4
5 -2 -12 1730.52 584.575 7
-5 -2 12 1143.74 491.024 6
-5 -2 12 -12.859 425.615 12
5 -2 -12 591.418 405.409 8
-5 -2 12 1146.5 483.513 16
-5 -2 12 -78.6406 419.703 4
5 -2 -11 2320.68 632.078 7
-5 -2 11 3712.36 657.087 16
-5 -2 11 3379.36 705.392 6
-5 -2 11 2771.96 666.074 12
5 -2 -11 4525.02 762.329 8
-5 -2 11 3679.67 713.477 4
5 -2 -10 456.554 433.829 7
-5 -2 10 754.109 420.622 6
-5 -2 10 -362.961 467.491 12
5 -2 -10 -294.182 398.323 8
-5 -2 10 -193.249 384.065 16
-5 -2 10 -432.998 446.218 4
5 -2 -9 3385.95 661.919 7
-5 -2 9 4419.78 713.003 6
-5 -2 9 4046.53 707.04 12
5 -2 -9 3179.24 600.084 8
-5 -2 9 4993.4 631.906 16
-5 -2 9 3620.17 647.056 4
-5 -2 8 11022.1 1014.97 6
-5 -2 8 10648.3 1035.89 12
-5 -2 8 11914.4 671.818 10
-5 -2 8 9333.98 880.507 4
5 -2 -8 11172.4 1062.87 8
-5 -2 8 11665.4 909.742 16
5 -2 -8 11336.6 1034.83 7
5 -2 -7 627.832 356.855 7
-5 -2 7 844.83 414.336 4
-5 -2 7 1103.94 421.52 6
-5 -2 7 1090.57 390.088 12
-5 -2 7 1457.09 277.644 8
5 -2 -7 1036.01 415.134 8
-5 -2 7 1238.31 403.743 16
5 -2 -6 1254.91 375.46 7
-5 -2 6 1138.54 411.656 6
-5 -2 6 853.447 399.458 12
-5 -2 6 1192.82 238.459 10
-5 -2 6 495.56 287.165 4
5 -2 -6 1288.86 441.1 8
-5 -2 5 8752.16 810.393 3
-5 -2 5 8208.41 785.033 6
-5 -2 5 8317.58 795.955 12
-5 -2 5 9185.99 596.075 10
-5 -2 5 7356.71 788.982 4
-5 -2 5 6992.23 626.896 1
5 -2 -5 8940.65 855.181 8
5 -2 -5 8262.42 735.025 7
5 -2 -4 2177.21 393.992 7
-5 -2 4 2049.16 326.977 1
-5 -2 4 2019.49 406.872 6
-5 -2 4 1678.23 426.43 3
-5 -2 4 1596.69 389.356 12
-5 -2 4 2070.75 310.423 10
-5 -2 4 1895.62 411.958 4
5 -2 -4 2271.83 518.951 8
-5 -2 3 16394.4 1150.34 3
-5 -2 3 16928.6 1056.77 6
-5 -2 3 17439.6 1044.77 12
-5 -2 3 19060.3 960.356 10
5 -2 -3 17179.1 1159.67 8
5 -2 -3 18339.8 963.093 2
-5 -2 3 18376.9 996.299 1
5 -2 -3 18574.1 981.056 7
5 -2 -2 13410.8 831.892 6
5 -2 -2 18258.8 1119.25 14
-5 -2 2 18336.1 1065.55 6
-5 -2 2 17014.1 1150.54 3
5 -2 -2 18088.6 1038.97 13
-5 -2 2 18169.6 1013.62 12
5 -2 -2 20584.8 1230.38 8
5 -2 -2 19468 928.64 2
-5 -2 2 18402.1 1044.88 1
5 -2 -2 19795.9 946.553 7
5 -2 -1 17323.3 1088.98 14
-5 -2 1 15637 533.125 14
5 -2 -1 17691.8 833.085 6
-5 -2 1 17773.8 1038.52 6
-5 -2 1 18329.3 1168.01 3
5 -2 -1 18129.7 1157.81 8
5 -2 -1 17693.3 1009.89 13
-5 -2 1 17122.2 925.432 12
5 -2 -1 16620.1 829.959 2
5 -2 -1 19181.6 854.058 7
-5 -2 1 18032.4 1058.18 1
-5 -2 0 20084.5 667.06 14
-5 -2 0 21333.6 1138.25 6
5 -2 0 21355.4 884.268 6
-5 -2 0 21322.1 1264.06 3
5 -2 0 21122.8 1125.47 13
5 -2 0 18332.8 1155.4 14
5 -2 0 20317.5 1226.66 8
5 -2 0 14177.3 791.365 2
-5 -2 0 18713.7 1160.15 1
5 -2 1 39.8375 311.46 14
-5 -2 -1 641.541 303.736 6
-5 -2 -1 348.858 263.197 1
5 -2 1 840.874 200.894 6
-5 -2 -1 356.725 276.748 3
5 -2 1 115.331 169.578 2
5 -2 1 201.776 309.327 8
5 -2 2 3372.26 404.777 15
5 -2 2 3347.19 553.038 14
5 -2 2 3735.73 364.356 6
-5 -2 -2 3789.94 500.603 6
5 -2 2 3256.24 494.712 13
-5 -2 -2 1889.04 495.371 1
-5 -2 -2 3440.84 553.776 3
5 -2 2 4404.44 444.736 18
5 -2 2 3979.64 418.639 17
5 -2 2 3841.58 547.621 8
5 -2 3 6914.74 774.532 14
5 -2 3 6922.37 533.039 6
5 -2 3 6235.49 692.721 13
5 -2 3 6755.51 676.13 8
-5 -2 -3 4887.94 663.827 1
-5 -2 -3 4535.81 637.412 3
5 -2 3 6790.11 520.343 18
5 -2 3 6221.66 489.575 17
5 -2 3 6280.9 497.607 15
5 -2 4 7142.52 811.835 14
-5 -2 -4 6990.58 777.351 3
5 -2 4 8301.9 646.569 6
5 -2 4 7906.35 821.462 13
-5 -2 -4 8038.98 487.888 12
-5 -2 -4 7126.63 817.889 1
5 -2 4 8112.12 529.093 18
5 -2 4 7837.14 742.58 8
5 -2 4 8503.72 528.713 17
5 -2 4 8298.67 531.012 15
5 -2 5 542.693 141.89 15
5 -2 5 471.269 381.171 14
5 -2 5 820.219 416.21 13
5 -2 5 698.287 278.467 6
-5 -2 -5 877.335 446.673 1
-5 -2 -5 878.349 403.574 3
5 -2 5 606.948 142.723 18
5 -2 5 580.312 313.229 8
5 -2 6 4163.13 676.203 13
-5 -2 -6 4125.94 708.507 1
5 -2 6 5041.61 586.524 6
-5 -2 -6 3257.87 572.091 3
5 -2 6 4318.23 540.039 8
5 -2 7 6149.78 721.13 6
5 -2 7 4138.76 722.518 13
5 -2 7 5319.64 586.278 8
-5 -2 -7 5643.25 796.11 1
-5 -2 -7 5334.22 741.235 3
-5 -2 -8 14219.4 1187.16 3
5 -2 8 13494.5 1248.69 13
5 -2 8 11783.2 901.074 8
-5 -2 -8 11603 1145.94 1
5 -2 9 3287.23 702.933 13
-5 -2 -9 3275.78 705.057 1
-5 -2 -9 3619.5 668.134 3
5 -2 10 1840.25 540.677 13
-5 -2 -10 2595.91 664.264 1
-5 -2 -10 2328.9 570.747 3
-5 -2 -11 6290.86 1052.41 1
-5 -2 -12 208.651 424.652 1
-5 -1 16 4526.67 922.694 16
5 -1 -15 5225.91 911.816 11
-5 -1 15 7352.85 1018.69 16
5 -1 -14 344.299 539.52 7
-5 -1 14 2347.77 747.201 12
-5 -1 14 939.541 633.065 4
5 -1 -14 461.139 439.589 11
-5 -1 14 1474.14 589.65 16
5 -1 -13 5107.69 929.12 7
-5 -1 13 4799.83 723.674 18
-5 -1 13 5156.39 906.936 12
5 -1 -13 3887.94 687.011 11
-5 -1 13 5473.51 947.954 4
-5 -1 13 3780.73 737.69 16
5 -1 -12 -89.5484 415.646 7
-5 -1 12 -558.416 538.516 12
5 -1 -12 576.579 410.818 11
-5 -1 12 29.6124 288.503 18
-5 -1 12 382.423 398.597 16
-5 -1 12 552.449 465.55 4
5 -1 -11 2948.04 673.612 7
-5 -1 11 3634.97 620.406 18
-5 -1 11 3342.35 702.455 12
5 -1 -11 3587.01 592.69 11
-5 -1 11 4008.76 555.84 10
5 -1 -11 3513.67 566.988 8
-5 -1 11 3110.35 622.054 16
-5 -1 11 3839.47 686.578 4
-5 -1 10 18163.6 1381.81 6
5 -1 -10 15740.5 1320.48 7
-5 -1 10 16471.2 1355.95 12
5 -1 -10 17484.2 1192.5 11
-5 -1 10 18957.2 1113.6 10
5 -1 -10 16456.1 1162.63 8
-5 -1 10 17529.9 1238.53 18
-5 -1 10 17838.3 1308.82 16
-5 -1 10 17095 1352.99 4
5 -1 -9 2295.4 555.199 7
-5 -1 9 2041.05 511.23 6
-5 -1 9 1038.11 481.09 12
5 -1 -9 2060.45 403.729 11
-5 -1 9 3003.94 446.504 10
5 -1 -9 2376.2 489.974 8
-5 -1 9 2432.57 478.145 18
-5 -1 9 2452.58 525.11 16
-5 -1 9 1062.51 428.154 4
5 -1 -8 11204.1 1004.36 7
-5 -1 8 11892.9 970.052 6
-5 -1 8 12159.8 1041.74 12
5 -1 -8 12455.4 850.756 11
-5 -1 8 11848.7 956.96 18
-5 -1 8 11320 1035.86 4
-5 -1 8 12970.2 789.568 8
-5 -1 8 11454.9 955.049 16
5 -1 -8 10614.7 895.136 8
5 -1 -7 5522.26 683.105 7
-5 -1 7 4578.25 587.328 6
-5 -1 7 4671.89 664.825 12
5 -1 -7 4625.71 487.62 11
-5 -1 7 5642.41 515.309 8
-5 -1 7 4348.31 618.945 16
-5 -1 7 4732.05 613.005 18
-5 -1 7 5146.12 634.649 4
5 -1 -7 4005.91 565.291 8
-5 -1 6 11383.6 743.348 3
-5 -1 6 9854.75 806.889 6
-5 -1 6 10706.2 903.872 4
-5 -1 6 10961.6 902.201 12
-5 -1 6 11265.5 897.719 18
5 -1 -6 11137.2 885.266 8
5 -1 -6 10104.7 875.497 7
-5 -1 5 1688.4 345.626 6
5 -1 -5 1863.33 324.627 6
-5 -1 5 1979.41 349.397 3
-5 -1 5 1532.99 431.167 12
5 -1 -5 1958.4 411.779 7
-5 -1 5 2179.9 441.195 18
-5 -1 5 2037.79 463.337 4
5 -1 -5 2181.97 453.673 8
-5 -1 5 1697.32 196.817 1
-5 -1 4 19144.1 1125.51 3
-5 -1 4 21057.6 1075.47 6
5 -1 -4 23575.9 1004.85 6
-5 -1 4 23473.4 923.381 5
-5 -1 4 21212.8 1215.03 18
-5 -1 4 25017.4 1315.42 4
5 -1 -4 21102.1 1208.19 8
5 -1 -4 22190.1 1170.14 7
-5 -1 4 20020.5 862.804 1
-5 -1 3 62793 2007.91 2
-5 -1 3 54907.8 1905.94 6
-5 -1 3 55485 2068.61 3
5 -1 -3 58700.6 1755.35 6
-5 -1 3 56314.6 1869.87 5
5 -1 -3 54265.9 2163.66 8
-5 -1 3 54964.4 1830.11 1
5 -1 -3 55442 2040.13 7
5 -1 -2 17514.8 679.155 2
-5 -1 2 18700.8 922.249 1
-5 -1 2 18207.8 874.884 6
-5 -1 2 20476.9 1103.89 3
5 -1 -2 16897.6 1065.15 8
-5 -1 2 19550.7 965.747 5
5 -1 -2 19734.3 985.62 7
-5 -1 2 19995.5 931.141 2
-5 -1 1 14378 807.061 1
5 -1 -1 13881.7 774.295 14
5 -1 -1 12455 384.952 6
-5 -1 1 13371.9 675.734 6
-5 -1 1 14662.2 911.054 3
5 -1 -1 13919 871.522 13
5 -1 -1 13718.3 904.163 8
5 -1 -1 14486.5 781.303 7
-5 -1 1 14936.3 707.613 2
-5 -1 0 22527.8 1138.41 1
5 -1 0 20559.4 1061.75 14
-5 -1 0 20833 946.542 6
-5 -1 0 23864.9 1268.74 3
5 -1 0 22638.8 1191.93 13
5 -1 0 22990.3 1232.88 8
-5 -1 0 25903.5 1003.86 2
-5 -1 -1 27653.6 886.43 14
-5 -1 -1 25434.5 1309.23 1
-5 -1 -1 25952.8 1085.06 6
5 -1 1 26397.2 1232.61 14
-5 -1 -1 25259.7 1350.78 3
5 -1 1 24836.4 1295.77 13
5 -1 1 29348.5 1204.77 18
5 -1 1 24968 1318.11 8
-5 -1 -1 28578.5 1119.09 2
5 -1 1 26955.5 1170.87 15
5 -1 2 1729.51 276.701 15
-5 -1 -2 1062.24 354.401 1
-5 -1 -2 2010.7 247.636 14
5 -1 2 1338.72 347.579 14
-5 -1 -2 969.08 291.044 2
5 -1 2 1033.7 379.919 13
-5 -1 -2 1546.62 415.659 3
5 -1 2 1754.93 449.425 5
5 -1 2 1566.09 259.489 18
5 -1 2 1735.91 391.835 8
-5 -1 -3 2748.91 486.324 1
-5 -1 -3 2065.77 436.062 2
5 -1 3 3557.76 494.245 14
5 -1 3 2482.76 484.433 13
-5 -1 -3 3398.44 534.108 3
5 -1 3 3423.73 335.669 18
5 -1 3 3029.14 518.034 5
5 -1 3 3702.57 517.902 8
5 -1 3 3774.11 343.718 15
5 -1 4 2920.32 564.185 13
-5 -1 -4 2559.53 373.077 12
-5 -1 -4 3155.05 523.167 3
5 -1 4 2512.45 518.091 5
5 -1 4 3315.68 303.654 18
-5 -1 -4 2431.29 517.426 1
5 -1 4 3383.06 502.07 8
5 -1 4 3770.47 318.53 15
5 -1 5 4157.29 309.379 15
5 -1 5 3099.88 502.619 8
5 -1 5 4239.48 668.56 13
-5 -1 -5 3786.65 571.408 3
5 -1 5 4624.67 636.913 5
5 -1 5 4160.05 303.118 18
-5 -1 -5 3970.33 623.974 1
5 -1 5 4491.35 311.299 15
5 -1 6 3585.06 636.743 13
-5 -1 -6 5044.47 655.607 11
-5 -1 -6 3729.2 577.168 3
5 -1 6 3194.99 559.312 5
5 -1 6 4076.11 533.531 8
-5 -1 -6 4758.87 682.778 1
5 -1 6 2712.29 181.434 15
5 -1 6 2547.12 168.315 15
5 -1 7 3244.22 623.961 13
-5 -1 -7 4247.58 682.221 11
-5 -1 -7 3695.53 607.128 3
5 -1 7 4514.54 710.269 5
5 -1 7 4021.91 542.406 8
-5 -1 -7 4288.82 688.961 1
-5 -1 -8 6736.03 828.415 3
5 -1 8 5076.53 847.309 13
-5 -1 -8 6565.52 837.771 11
5 -1 8 6898 854.843 5
-5 -1 -8 5428.63 764.086 1
5 -1 9 4077.35 864.969 13
-5 -1 -9 5301.74 780.851 11
-5 -1 -9 6097.79 806.003 3
-5 -1 -9 5086.93 768.04 1
5 -1 9 5512.84 822.292 5
-5 -1 -10 8985.75 977.075 3
5 -1 10 9706.26 1203.86 13
-5 -1 -10 8575.98 1039.31 11
-5 -1 -10 7496.58 979.322 1
5 -1 10 9243.23 1017.71 5
5 -1 11 2070.12 731.141 13
-5 -1 -11 1299.08 447.322 3
-5 -1 -11 1619.41 597.506 11
-5 -1 -11 2061.28 603.199 1
5 -1 11 2131.46 656.278 5
-5 -1 -12 593.257 521.439 11
-5 -1 -12 1430.43 565.307 1
5 -1 12 1187.29 466.827 5
-5 -1 -13 4395.93 907.017 1
-5 0 15 14616.8 1478.43 12
5 0 -15 14179.2 1421.65 11
-5 0 15 15294.3 1571.03 16
-5 0 14 2100.99 715.122 4
5 0 -14 1907.8 549.494 7
-5 0 14 856.79 565.248 12
5 0 -14 479.133 380.235 11
-5 0 14 1225.96 458.505 18
-5 0 14 1141.89 562.644 16
5 0 -13 904.341 509.895 7
-5 0 13 2528.9 721.133 12
5 0 -13 2374.57 610.066 11
-5 0 13 1936.46 544.614 10
-5 0 13 1566.9 485.293 18
-5 0 13 1898.05 653.47 16
-5 0 13 1926.16 647.096 4
5 0 -12 581.988 466.135 7
-5 0 12 430.116 363.498 18
-5 0 12 -27.358 397.888 12
5 0 -12 311.656 369.702 11
-5 0 12 -239.058 333.914 10
-5 0 12 -160.776 442.035 16
-5 0 12 -832.953 619.362 4
5 0 -11 1576.27 572.829 7
-5 0 11 478.139 430.956 12
5 0 -11 857.984 399.952 11
-5 0 11 813.048 384.572 10
-5 0 11 688.718 474.723 16
-5 0 11 883.845 402.654 18
-5 0 11 96.5994 448.385 4
5 0 -10 8490.42 973.733 7
-5 0 10 9422.16 990.705 12
5 0 -10 10505.8 913.705 11
5 0 -10 9973.78 771.968 8
-5 0 10 10993.2 946.124 10
-5 0 10 10573.2 969.238 18
-5 0 10 10470.1 1089.99 4
-5 0 10 12342.2 1148.71 16
5 0 -9 504.732 391.161 7
-5 0 9 376.747 358.426 18
-5 0 9 133.36 372.493 12
5 0 -9 139.423 247.007 11
-5 0 9 294.461 298.519 10
5 0 -9 21.2809 214.109 8
-5 0 9 -122.57 382.708 16
-5 0 9 486.773 424.502 4
-5 0 8 23621 1444.75 16
5 0 -8 20929.1 770.83 3
-5 0 8 21105 1360.28 12
5 0 -8 21553 1178.37 11
-5 0 8 23690.3 908.934 9
-5 0 8 22028.7 1344.16 18
-5 0 8 25008.4 1488.18 4
5 0 -8 21579.5 1165.31 8
5 0 -8 21457.1 1402.9 7
-5 0 7 10880.8 565.687 3
-5 0 7 10030.1 843.275 18
5 0 -7 11472.2 561.696 3
-5 0 7 10240.4 894.788 12
5 0 -7 10370.2 744.951 11
-5 0 7 10804.5 580.003 9
5 0 -7 10263.4 777.405 8
-5 0 7 10646.4 924.321 4
-5 0 7 9988.14 927.572 16
5 0 -7 10691.1 937.26 7
5 0 -6 227.339 307.928 7
-5 0 6 86.1821 74.4153 1
-5 0 6 159.186 142.676 3
5 0 -6 68.1446 159.144 11
-5 0 6 80.8597 58.5645 1
-5 0 6 217.13 78.9223 5
5 0 -6 104.055 149.507 3
-5 0 6 -378.699 330.727 18
5 0 -6 441.995 293.024 8
-5 0 6 169.714 304.161 16
-5 0 6 99.7469 319.283 4
5 0 -5 574.984 345.267 7
-5 0 5 265.023 107.555 1
5 0 -5 263.589 209.743 6
5 0 -5 645.67 166.024 11
-5 0 5 359.988 157.208 3
-5 0 5 633.278 137.368 5
5 0 -5 858.067 223.406 3
-5 0 5 178.398 299.296 18
5 0 -5 436.515 252.524 8
-5 0 5 -140.384 371.465 4
5 0 -4 2179.49 473.08 7
5 0 -4 2349.89 307.655 6
5 0 -4 2451.3 234.038 11
-5 0 4 2890.64 295.229 5
-5 0 4 1936.82 307.808 3
5 0 -4 2569.04 333.308 3
5 0 -4 1846.59 331.636 2
-5 0 4 2448.17 431.664 18
5 0 -4 2339.94 398.775 8
-5 0 4 2319.02 533.873 4
-5 0 4 2431.94 261.849 1
5 0 -3 21505.8 838.515 6
-5 0 3 20272.4 825.254 6
-5 0 3 19724.9 978.604 3
5 0 -3 20673.1 1016.38 3
-5 0 3 20089 891.937 1
5 0 -3 19568.6 639.005 11
-5 0 3 22033.1 931.593 5
5 0 -3 19891.4 912.462 5
-5 0 3 18928.1 1096.86 18
5 0 -3 20127.6 1096.09 8
5 0 -3 18684.6 1085.03 7
5 0 -3 18052.7 804.904 2
5 0 -2 196320 4486.06 6
-5 0 2 187839 4461.34 6
-5 0 2 182123 4931.49 3
-5 0 2 179830 5041.75 18
5 0 -2 204453 5020.85 3
-5 0 2 194471 4857.8 1
-5 0 2 201671 4884.23 5
5 0 -2 188468 4854.48 5
5 0 -2 185087 5033.83 7
5 0 -2 178709 5040.09 8
5 0 -1 37086.6 1103.76 14
-5 0 1 35521.5 900.238 6
5 0 -1 35538.5 1473.2 13
-5 0 1 35979 1457.65 3
-5 0 1 39392.5 1432.16 1
-5 0 1 41516.5 1462.21 5
5 0 -1 35247.5 1386.66 5
-5 0 1 34797.8 1440.16 18
5 0 -1 37258.9 1517.18 8
5 0 0 26829 971.46 14
5 0 0 24768.8 1268.51 13
-5 0 0 26641.9 1287.44 3
-5 0 0 26874.8 1263.44 1
5 0 0 27411.7 876.852 11
5 0 0 26162 1236.49 5
-5 0 0 26767.4 1222.88 18
5 0 0 25731.5 1298.91 8
5 0 1 40454.9 1186.73 14
-5 0 -1 42953.7 1216.78 14
5 0 1 39421.9 1541.33 13
-5 0 -1 38580.2 1533.63 3
-5 0 -1 41492.8 1557.4 1
5 0 1 43989.4 1155.6 11
-5 0 -1 40508.3 1122.83 11
5 0 1 40398.8 1543.92 5
5 0 1 40228.1 1544.23 8
5 0 1 44318.7 1438.77 18
-5 0 -1 40159.3 1399.8 18
5 0 2 759.409 228.239 18
-5 0 -2 552.581 193.442 14
5 0 2 508.493 329.887 13
-5 0 -2 988.026 156.811 6
-5 0 -2 525.571 277.447 1
5 0 2 681.135 208.586 11
-5 0 -2 545.871 199.204 11
-5 0 -2 488.518 281.375 3
5 0 2 1172.68 344.662 5
5 0 2 1020.63 331.104 8
5 0 3 28112.3 1231.36 15
-5 0 -3 33267.5 1333.2 14
5 0 3 30549.6 1526.92 13
-5 0 -3 32128.3 1143.73 6
-5 0 -3 29453.4 1492.23 3
-5 0 -3 28952.6 1507.09 1
-5 0 -3 30489.3 1289.72 11
5 0 3 29068.3 1522.01 5
5 0 3 32918.8 1274.88 18
5 0 3 30664.8 1494.3 8
5 0 4 12727.2 733.727 15
5 0 4 13095.4 1025.89 13
-5 0 -4 12942.4 760.229 6
-5 0 -4 14600.2 1035.49 1
-5 0 -4 14142.9 1017.52 3
5 0 4 14659.2 764.815 18
-5 0 -4 13127.3 851.663 11
5 0 4 13323.2 1013.71 5
5 0 4 13896.5 966.186 8
5 0 5 4916.06 699.42 13
-5 0 -5 5165.01 594.508 11
-5 0 -5 4992.13 630.156 3
5 0 5 4755.24 651.058 5
5 0 5 5539.6 444.746 18
5 0 5 4488.52 410.523 18
5 0 5 3732.9 560.329 8
-5 0 -5 4857.25 651.032 1
5 0 5 4649.68 420.532 15
5 0 6 12949.2 1132.67 13
-5 0 -6 13477.1 1069.42 1
-5 0 -6 13336.9 1042.51 3
-5 0 -6 13095.9 999.31 11
5 0 6 12186.8 1048.44 5
5 0 6 13457.1 687.109 18
5 0 6 12575 675.847 18
5 0 6 13065 679.07 15
5 0 7 3612.82 714.32 13
-5 0 -7 4985.77 628.812 11
-5 0 -7 4882 743.959 1
-5 0 -7 5030.39 703.227 3
5 0 7 4849.17 734.771 5
5 0 7 5097.72 389.332 18
5 0 7 5019.68 381.658 17
5 0 7 5193.86 397.375 15
-5 0 -8 13144.2 1155.38 1
5 0 8 9783.6 1131.16 13
-5 0 -8 11875.5 1046.76 3
-5 0 -8 10689.7 1001.29 11
5 0 8 13940.4 1195.37 5
5 0 8 13611.6 1153.31 10
-5 0 -9 14958.7 1319.55 1
5 0 9 11516.1 1412.71 13
-5 0 -9 15378.6 1234.4 3
-5 0 -9 14375 1221.82 11
5 0 9 16068.5 1330.03 5
5 0 9 15774.2 1260.74 10
-5 0 -10 5313.37 804.917 1
5 0 10 4500.63 924.936 13
-5 0 -10 4578.09 778.901 11
-5 0 -10 5644.92 766.294 3
5 0 10 5002.33 813.024 10
5 0 10 5163.65 801.288 5
-5 0 -11 9323.55 1115.7 1
5 0 11 6378.36 1045.61 13
-5 0 -11 9234.19 998.342 3
-5 0 -11 8737.61 1086.94 11
5 0 11 10922.3 1168.76 5
5 0 11 10133.5 1128.26 10
-5 0 -12 5905.69 920.397 7
-5 0 -12 5513.15 946.923 11
5 0 12 5944.43 912.283 10
5 0 12 6242.24 933.045 5
-5 0 -12 5922.05 926.186 1
-5 0 -13 1451.64 610.671 7
-5 0 -13 1764.14 618.824 9
5 0 13 2908.13 774.412 5
-5 0 -13 2104.39 656.813 1
5 0 14 2089.37 749.882 5
-5 1 16 3393.67 803.628 12
-5 1 15 4684.37 851.667 12
5 1 -15 6475.68 969.05 11
-5 1 15 4596.5 862.625 10
-5 1 14 1424.65 596.521 12
5 1 -14 554.922 483.405 11
-5 1 14 1050.52 532.567 10
5 1 -14 713.806 649.861 2
-5 1 14 -460.548 573.255 4
5 1 -14 829.702 583.487 7
-5 1 14 537.294 352.005 18
-5 1 14 794.493 640.725 16
-5 1 13 5207.37 820.352 15
5 1 -13 4485.99 855.051 7
-5 1 13 3998.39 774.149 12
5 1 -13 4174.87 763.415 11
-5 1 13 4789.7 776.144 18
-5 1 13 4587.29 807.638 10
5 1 -13 3722.41 856.819 2
-5 1 13 4667.63 833.974 16
-5 1 13 5239.74 947.979 4
-5 1 12 -144.133 338.668 15
5 1 -12 -99.5699 392.517 7
-5 1 12 331.348 452.779 12
5 1 -12 471.53 386.835 11
-5 1 12 1150.49 532.989 10
5 1 -12 350.182 533.989 2
-5 1 12 214.024 398.189 18
-5 1 12 72.8197 481.719 16
-5 1 12 687.63 485.605 4
-5 1 11 3984.09 652.878 15
5 1 -11 3404.97 700.022 7
-5 1 11 4037.08 702.906 12
5 1 -11 2787.66 584.364 11
-5 1 11 3499.52 725.435 10
5 1 -11 3761.51 737.813 2
-5 1 11 4457.1 695.114 18
-5 1 11 2978.52 709.729 16
-5 1 11 3926.67 767.354 4
-5 1 10 17098.3 1278.5 12
5 1 -10 17752.6 1252.35 11
-5 1 10 16400.9 1274.02 18
-5 1 10 17128.7 1345.58 10
-5 1 10 18004.9 1431.32 4
-5 1 10 15972 1367.72 16
5 1 -10 16829.4 1347.66 7
-5 1 10 18396.4 1319.19 15
5 1 -10 15124.9 1331.68 2
-5 1 9 2932.76 523.905 15
5 1 -9 2629.22 578.21 7
-5 1 9 2901.91 298.7 5
-5 1 9 3021.28 569.847 12
5 1 -9 2967.62 500.782 11
-5 1 9 2511.13 557.223 10
5 1 -9 2035.27 527.054 2
-5 1 9 2422.47 539.249 18
5 1 -9 2934.33 372.294 8
-5 1 9 2701.85 648.04 16
-5 1 9 2437.52 540.108 4
5 1 -8 12685.2 775.54 3
-5 1 8 12256.9 1032.01 12
-5 1 8 12460.7 701.535 5
-5 1 8 11821.3 1026.36 18
-5 1 8 11484.7 996.374 10
-5 1 8 9656.56 1013.19 4
5 1 -8 13473.3 786.237 8
-5 1 8 11027 1073.75 16
5 1 -8 11141.9 1019.07 7
-5 1 8 14705 722.279 1
-5 1 8 10959.7 971.548 15
5 1 -8 9839.21 980.693 2
-5 1 7 4612.82 625.703 15
5 1 -7 4252.38 637.453 7
5 1 -7 4910.63 482.954 8
-5 1 7 4454.43 297.445 3
5 1 -7 4870.46 497.139 3
5 1 -7 4815.58 625.858 2
-5 1 7 4926.22 657.685 18
-5 1 7 6036.73 494.566 1
-5 1 7 4028.93 614.291 16
-5 1 7 4307.31 644.177 4
5 1 -6 10429.3 702.039 8
-5 1 6 11070.9 559.678 3
5 1 -6 7911.78 349.196 5
-5 1 6 8989.53 920.582 4
-5 1 6 11326.9 919.963 18
-5 1 6 12456.6 714.467 1
-5 1 6 9830.98 902.104 16
5 1 -6 9892.29 906.16 7
-5 1 6 11018.9 893.213 15
5 1 -6 10595.6 832.171 2
5 1 -5 2019.62 455.899 7
-5 1 5 1714.91 435.372 15
-5 1 5 1921.04 251.507 11
5 1 -5 2285.39 411.51 2
-5 1 5 2155.52 289.38 3
5 1 -5 1933.14 215.22 5
-5 1 5 2705.89 349.41 5
-5 1 5 1454.91 398.01 18
5 1 -5 1550.59 314.587 8
-5 1 5 2038.63 438.361 4
-5 1 5 2587.57 524.949 16
-5 1 4 22392.4 1024.96 3
-5 1 4 21329.3 1240.24 4
5 1 -4 24951.1 953.926 1
-5 1 4 24606.9 853.123 11
5 1 -4 22052.1 916.958 5
-5 1 4 26667.3 1142.16 5
-5 1 4 21809.6 1255.87 16
-5 1 4 22133.5 1265.58 18
5 1 -4 23819.7 1167.11 8
5 1 -4 17797.5 1113.09 2
5 1 -4 22087.4 1258.3 7
-5 1 4 20927.7 1233.47 15
5 1 -3 54454.6 1529.14 14
5 1 -3 62454.9 1989.3 6
-5 1 3 59222.8 1975.86 3
5 1 -3 62359.3 1911.86 1
-5 1 3 56484.5 1528.89 11
5 1 -3 56946.4 1858.07 5
-5 1 3 60936 2066.58 5
-5 1 3 54494.2 2150.87 18
-5 1 3 57793.6 2151.8 4
5 1 -3 56970.4 2074.96 8
5 1 -3 52100.6 1904.78 2
5 1 -3 56721.6 2204.27 7
-5 1 3 56326.8 2166.65 15
5 1 -2 20281 926.815 6
-5 1 2 19130 1101.59 18
-5 1 2 20102.9 1033.47 3
5 1 -2 20394.1 999.627 1
5 1 -2 18831.3 947.766 5
5 1 -2 19530.4 1073.43 8
5 1 -2 19757.8 950.912 2
-5 1 2 20859.9 1031.29 7
-5 1 2 18533.2 1071.39 15
5 1 -1 15929.1 983.549 15
-5 1 1 14916.5 903.608 18
5 1 -1 15196.2 762.117 6
5 1 -1 13816.2 879.941 13
-5 1 1 15234.9 914.666 3
5 1 -1 13588.2 858.068 5
5 1 -1 15021.4 954.28 8
5 1 -1 13843.6 776.759 2
-5 1 1 16743.1 866.749 7
-5 1 1 13459.3 850.314 15
5 1 0 24406.1 1222.26 15
5 1 0 22005.6 1152.13 13
-5 1 0 22278 1200.85 3
5 1 0 22154.4 1148.37 5
5 1 0 23605.9 1244.76 8
-5 1 0 23212.8 1108.47 18
-5 1 0 23908.2 1119.08 15
5 1 0 19138.8 978.184 2
-5 1 0 25202.3 1070.88 7
-5 1 -1 27358.9 1073.14 18
5 1 1 25980.4 1205.21 13
5 1 1 25494.4 1180.33 15
-5 1 -1 24841.2 1248.52 3
-5 1 -1 24659.8 854.17 11
5 1 1 28053.2 1071.38 11
5 1 1 25258.8 1222.83 5
5 1 1 23363.3 1229.38 8
-5 1 -1 28329.5 1046.01 7
5 1 2 1054.71 307.772 15
-5 1 -2 1583.22 187.236 6
5 1 2 1653.04 405.435 13
-5 1 -2 1378.13 202.391 2
-5 1 -2 1959.71 294.242 11
5 1 2 1935.62 319.175 11
-5 1 -2 1737.84 288.012 18
5 1 2 1596.48 417.865 5
-5 1 -2 1738.87 449.485 3
5 1 2 1901.04 439.311 8
-5 1 -2 1275.15 285.25 7
5 1 3 3034.8 450.964 15
-5 1 -3 3853.37 341.318 6
5 1 3 2783.22 502.723 13
-5 1 -3 2920.89 390.676 11
-5 1 -3 2543.69 299.913 2
5 1 3 3534.63 558.309 5
5 1 3 2907.38 530.765 10
-5 1 -3 2892.94 480.223 3
-5 1 -3 3058.47 334.649 18
5 1 4 3639.65 461.107 15
5 1 4 3279.34 551.702 13
-5 1 -4 3089.63 354.659 6
-5 1 -4 3291.64 436.865 11
5 1 4 3176.19 540.903 5
5 1 4 2350.24 507.287 10
-5 1 -4 2724.09 370.737 2
-5 1 -4 2517.94 478.603 3
5 1 4 2760.37 428.468 18
5 1 5 3917.83 479.435 15
-5 1 -5 4240.83 627.367 1
5 1 5 3677.59 598.809 13
-5 1 -5 3670.95 501.979 11
5 1 5 3972.42 621.466 5
5 1 5 3828.48 621.187 10
-5 1 -5 4023.99 624.092 3
5 1 5 4181.92 499.595 18
-5 1 -5 4551.63 493.474 2
5 1 6 4522.6 667.421 13
-5 1 -6 5064.57 627.591 11
5 1 6 4312.46 665.21 5
5 1 6 4456.55 704.533 10
-5 1 -6 3364.21 591.289 3
-5 1 -6 3882.01 649.462 1
-5 1 -6 3705.96 558.738 2
5 1 6 4047.61 489.364 18
5 1 6 4199.45 482.59 15
5 1 7 4106.87 707.153 13
-5 1 -7 4122.61 621.001 11
5 1 7 3813.37 668.046 5
5 1 7 4660.76 758.513 10
-5 1 -7 5037.46 716.474 3
-5 1 -7 4626.67 641.917 2
5 1 7 4209.24 495.54 18
5 1 7 4537.79 509.179 17
-5 1 -7 4744.02 717.742 1
5 1 7 4353.18 490.156 15
-5 1 -8 5420.71 763.561 2
5 1 8 4222.47 746.44 13
-5 1 -8 5797.82 807.524 1
-5 1 -8 6367.39 781.792 11
-5 1 -8 6574.15 820.272 3
5 1 8 5973.06 855.987 10
5 1 8 5865.44 845.362 5
5 1 8 6316.03 585.882 18
5 1 8 6408.6 579.458 17
5 1 8 6366.02 592.131 15
5 1 9 3727.44 798.644 13
-5 1 -9 4750.04 714.23 11
-5 1 -9 5984.21 817.254 3
5 1 9 4396.1 798.414 10
5 1 9 5402.75 799.796 5
-5 1 -9 5322.94 760.614 2
-5 1 -9 5799.37 830.929 1
-5 1 -10 10801.6 1057.78 2
-5 1 -10 6899.67 829.748 7
-5 1 -10 10378.3 1158.81 1
5 1 10 9019.67 1082.95 13
-5 1 -10 9436.78 1048.64 3
-5 1 -10 8150.97 979.633 11
5 1 10 7409.04 1003.26 10
-5 1 -10 8352.48 1004.49 9
5 1 10 8552.96 1056.52 5
-5 1 -11 1224.6 397.941 7
-5 1 -11 2121.5 538.755 11
-5 1 -11 2301.83 638.918 1
-5 1 -11 -55.9494 417.505 3
5 1 11 1212.65 610.224 10
5 1 11 1447.49 548.147 5
-5 1 -11 997.824 513.51 9
-5 1 -11 2678.72 656.388 2
-5 1 -12 411.157 395.769 1
-5 1 -12 612.34 420.128 11
-5 1 -12 1187.17 362.177 3
5 1 12 1004.82 576.965 10
5 1 12 1019.78 535.902 5
-5 1 -12 1415.08 541.308 2
-5 1 -12 2539.62 716.476 9
-5 1 -13 3032.49 720.078 1
5 1 13 6005.59 1044.16 10
5 1 13 5569.83 965.767 5
-5 1 -13 3628.91 803.961 9
-5 2 15 2320.79 667.025 15
-5 2 15 2613.24 657.506 18
-5 2 14 357.17 420.436 15
5 2 -14 621.767 478.958 7
5 2 -14 811.417 561.247 11
-5 2 14 704.739 502.267 10
-5 2 14 1240 551.072 18
-5 2 13 714.554 443.391 15
5 2 -13 278.323 516.467 7
-5 2 13 515.188 451.536 12
5 2 -13 680.395 479.04 11
-5 2 13 68.8504 434.92 10
5 2 -13 941.678 610.33 2
-5 2 13 -81.694 559.515 4
-5 2 13 684.061 416.544 18
-5 2 13 1136.57 558.204 16
-5 2 12 1911.03 616.734 15
5 2 -12 1101.74 514.157 7
-5 2 12 955.27 430.191 12
5 2 -12 1032.25 456.458 11
-5 2 12 788.406 531.259 10
5 2 -12 896.057 542.735 2
-5 2 12 618.472 364.487 18
-5 2 12 1730.44 546.147 16
-5 2 12 735.224 629.63 4
5 2 -11 4220.17 751.491 7
-5 2 11 3891.12 708.792 15
5 2 -11 3286.82 569.996 15
-5 2 11 4484.69 703.949 12
-5 2 11 2965.8 707.803 10
5 2 -11 4245.8 834.84 2
-5 2 11 3814.07 739.983 18
-5 2 11 4967.16 890.807 16
-5 2 11 4282.82 851.873 4
5 2 -10 -972.919 459.034 7
-5 2 10 980.915 422.967 15
5 2 -10 529.976 328.37 15
-5 2 10 -170.814 331.775 12
-5 2 10 -33.8951 224.161 5
-5 2 10 -572.894 481.644 10
5 2 -10 98.8762 398.87 2
-5 2 10 -309.637 411.605 18
-5 2 10 498.191 501.519 16
-5 2 10 -148.838 446.452 4
5 2 -9 5054.42 766.066 7
-5 2 9 3941.86 706.5 15
5 2 -9 4254.47 656.992 15
-5 2 9 3750.48 707.6 16
-5 2 9 4850.57 722.294 12
-5 2 9 4888.23 568.158 5
5 2 -9 3690.83 722.75 2
-5 2 9 4793.97 787.943 10
-5 2 9 3799.89 682.833 18
-5 2 9 3884.5 716.184 4
5 2 -8 11360.2 975.558 15
-5 2 8 10283.1 508.134 3
-5 2 8 11207.2 1088.17 10
-5 2 8 10509.7 1044.37 18
-5 2 8 11421.4 1127.45 16
-5 2 8 11372.9 1037.3 4
5 2 -8 10477.1 1016.13 7
5 2 -8 10774.3 1072.56 2
-5 2 8 11537.1 1069.78 15
5 2 -7 845.482 354.883 7
-5 2 7 422.848 367.052 15
5 2 -7 1568.9 443.616 15
5 2 -7 909.653 384.629 2
-5 2 7 1066.85 449.552 10
5 2 -7 841.556 157.362 5
-5 2 7 970.435 195.933 3
-5 2 7 989.095 415.461 18
-5 2 7 909.632 449.259 16
-5 2 7 747.428 432.959 4
5 2 -6 1474.6 459.945 7
5 2 -6 1924.56 273.142 1
5 2 -6 1736.31 451.924 15
-5 2 6 954.749 233.354 3
-5 2 6 1035.97 419.09 15
5 2 -6 781.777 409.075 2
5 2 -6 1244 223.225 5
-5 2 6 833.289 417.185 18
-5 2 6 503.761 385.009 16
-5 2 6 898.923 395.268 4
5 2 -5 8267.11 798.381 15
-5 2 5 9330.99 870.402 16
5 2 -5 9452.26 612.942 14
5 2 -5 10124.1 632.844 1
-5 2 5 8551.67 863.696 18
-5 2 5 9745.91 681.197 3
5 2 -5 9683.38 621.779 5
-5 2 5 9770.95 666.66 11
-5 2 5 9430.95 485.566 9
-5 2 5 9528.22 829.511 4
5 2 -5 7414.72 848.696 2
5 2 -5 8599.17 840.525 7
-5 2 5 9137.91 859.935 15
-5 2 4 1598.99 402.716 15
5 2 -4 1931.31 328.769 1
5 2 -4 2016.88 467.478 15
5 2 -4 1934.5 259.38 14
5 2 -4 1684.22 454.957 2
-5 2 4 1914.99 280.225 11
5 2 -4 2044.04 325.06 5
-5 2 4 1957.12 267.446 9
-5 2 4 1518.77 431.366 18
-5 2 4 1042.59 354.766 4
-5 2 4 1676.55 410.546 16
5 2 -4 1844.02 437.953 7
5 2 -3 16548.6 1129.2 15
5 2 -3 18889.1 1015.25 5
-5 2 3 19606.6 931.784 9
-5 2 3 17344.6 1135.43 18
-5 2 3 17132.2 1050.39 4
5 2 -3 17665 1091.5 2
-5 2 3 18413.5 1120.09 16
-5 2 3 16945 1118.93 15
5 2 -2 17785.3 1157.63 15
5 2 -2 19091.8 1019.76 13
5 2 -2 19287.6 1081.14 5
-5 2 2 20046.7 1026.18 9
-5 2 2 18466.3 1136.36 18
-5 2 2 19444.5 1084.25 4
5 2 -2 19482.7 1126.05 2
-5 2 2 18565.9 1102.39 16
-5 2 2 19430.4 1158.05 15
-5 2 2 20425.6 996.98 7
5 2 -1 17406.8 1152.61 15
5 2 -1 18304.8 1100.3 2
5 2 -1 18070.8 1005.24 13
5 2 -1 16561.6 1062.54 5
-5 2 1 20234.2 1076.26 9
-5 2 1 19377.8 1130.9 18
-5 2 1 17640.6 869.646 2
-5 2 1 17865.9 1100.65 15
-5 2 1 21223.8 923.261 7
5 2 0 22771.5 1311.7 15
5 2 0 21148 1101.62 13
5 2 0 20464.3 1209.78 5
-5 2 0 21385.1 1193.2 9
-5 2 0 21733.2 1153.55 18
-5 2 0 18394.9 900.181 2
5 2 0 18194.8 1164.07 2
-5 2 0 24063.4 924.237 7
-5 2 0 22036.2 1152.92 15
-5 2 -1 357.385 232.293 15
-5 2 -1 749.497 175.177 7
5 2 1 690.744 315.595 2
5 2 1 849.929 378.554 15
-5 2 -1 963.368 249.914 2
5 2 1 536.421 273.78 13
5 2 1 1330.59 431.228 5
5 2 1 884.906 325.55 10
-5 2 -1 1057.31 357.517 9
-5 2 -1 604.991 236.12 18
-5 2 -2 3513.16 411.747 15
5 2 2 2755.18 506.381 2
5 2 2 2971.13 531.439 15
-5 2 -2 1978.96 299.918 6
5 2 2 3428.04 486.04 13
-5 2 -2 1981.11 251.739 2
5 2 2 3739.95 545.503 5
5 2 2 2750.5 481.17 10
-5 2 -2 3649.28 544.606 9
-5 2 -2 3580.73 424.336 18
5 2 2 3744.97 537.133 18
-5 2 -2 3899.83 314.864 7
-5 2 -3 6076.64 515.986 6
5 2 3 6647.25 696.332 13
5 2 3 5455.44 711.257 5
5 2 3 5806.99 724.53 10
-5 2 -3 6661.07 755.337 9
-5 2 -3 6570.36 522.339 18
5 2 3 6318.72 714.847 18
-5 2 -3 5395.9 501.977 2
-5 2 -3 6615.11 442.48 7
-5 2 -3 6578.19 525.597 15
5 2 3 6177.23 692.256 15
5 2 4 7808.21 798.066 13
5 2 4 7576.49 844.012 5
5 2 4 7330 831.371 10
-5 2 -4 8956.61 883.011 9
-5 2 -4 8196.59 539.339 18
5 2 4 7584.2 785.718 18
-5 2 -4 7971.93 669.012 2
5 2 4 7399.33 765.724 15
5 2 5 330.251 275.309 15
5 2 5 600.588 348.922 13
-5 2 -5 914.58 374.922 2
5 2 5 -21.6562 349.42 5
5 2 5 1062.97 420.248 10
-5 2 -5 442.651 416.462 9
-5 2 -5 985.818 413.058 3
5 2 5 316.422 342.509 18
-5 2 -5 343.329 119.121 18
5 2 6 4626.31 609.8 15
5 2 6 3992.2 674.441 13
-5 2 -6 5000.09 639.323 11
-5 2 -6 2130.55 591.325 2
5 2 6 3354.21 633.82 5
5 2 6 3184.5 661.864 10
-5 2 -6 3741.46 666.036 9
-5 2 -6 3937.84 688.247 3
5 2 6 3440.85 599.871 18
5 2 7 4878.55 720.181 13
-5 2 -7 4767.35 684.68 11
-5 2 -7 4974.85 733.211 3
-5 2 -7 4498.36 681.699 2
5 2 7 5148.53 773.489 5
5 2 7 4646.49 744.697 10
-5 2 -7 5437.99 838.959 9
5 2 7 5402.2 677.222 18
5 2 7 5572.4 687.502 17
5 2 7 5734.6 708.088 15
5 2 8 11987.2 1222.68 13
-5 2 -8 12869.1 1221.04 3
-5 2 -8 11249.3 1180.32 1
-5 2 -8 12205.6 1134.79 11
5 2 8 11855.1 1201.73 5
5 2 8 11557.3 1206.17 10
-5 2 -8 11194.1 1158.37 9
5 2 8 12171.3 1005.88 18
5 2 8 12206.4 991.793 17
-5 2 -8 13628.1 1077.94 2
5 2 8 13522.4 1045.2 15
5 2 9 3554.37 561.427 15
-5 2 -9 3601.8 702.026 1
5 2 9 2550.61 627.945 13
-5 2 -9 3376.6 669.685 11
-5 2 -9 3041.54 623.317 2
5 2 9 3244.54 683.212 5
5 2 9 2855.52 718.641 10
-5 2 -9 3714.88 717.998 3
-5 2 -9 3297.34 706.112 9
5 2 9 3144.8 541.933 18
5 2 9 3264.44 538.364 17
-5 2 -10 3265.2 660.366 11
-5 2 -10 2145.27 539.277 2
5 2 10 2260.43 678.865 5
5 2 10 1979.96 692.386 10
-5 2 -10 2411.94 636.877 3
-5 2 -10 3052.04 687.152 9
-5 2 -10 1910.53 588.505 1
-5 2 -11 6828.09 998.007 9
-5 2 -11 6381.42 925.141 1
-5 2 -11 6947.57 965.44 11
5 2 11 6222.41 1023.4 10
5 2 11 7645.69 1112.36 5
-5 2 -11 6074.75 902.644 3
-5 2 -11 7537.24 994.572 2
-5 2 -12 788.994 458.533 11
-5 2 -12 -337.459 427.856 3
5 2 12 -87.1263 459.233 5
-5 2 -12 270.136 367.342 9
-5 2 -12 327.036 332.698 1
5 3 -13 452.999 522.53 7
-5 3 13 460.266 542.128 4
-5 3 13 -226.595 443.468 15
-5 3 13 352.678 472.862 18
5 3 -12 600.21 449.523 7
-5 3 12 1331.19 692.461 4
-5 3 12 538.863 520.243 15
-5 3 12 1521.76 614.348 18
5 3 -12 749.205 559.959 2
-5 3 12 1663.25 686.353 10
-5 3 12 582.996 555.614 16
-5 3 11 1838.9 679.634 4
5 3 -11 1950.43 595.395 7
-5 3 11 1431.79 632.174 15
-5 3 11 1500.71 428.946 12
5 3 -11 1954.67 676.318 2
-5 3 11 1073.7 545.744 10
-5 3 11 699.414 477.043 18
-5 3 11 1149.88 593.411 16
5 3 -10 6071.13 837.134 7
5 3 -10 7974.29 904.248 15
-5 3 10 7730.96 1022.54 15
-5 3 10 7678.91 841.205 12
-5 3 10 8093.75 890.482 5
5 3 -10 7543.45 1022.34 2
-5 3 10 6888.32 971.964 10
-5 3 10 6178.62 898.065 18
-5 3 10 5933.65 966.074 16
-5 3 10 6315.47 901.864 4
5 3 -9 8018.62 891.129 15
-5 3 9 6946.21 967.475 15
5 3 -9 8097.27 1037.94 2
-5 3 9 7421.02 861.504 5
-5 3 9 7978.52 1073.59 10
-5 3 9 7657.48 1002.86 18
-5 3 9 7716.22 965.793 16
-5 3 9 6718.32 904.941 4
5 3 -9 6635.32 879.163 7
5 3 -8 17630.1 1306.8 15
-5 3 8 16027.1 1399.09 10
-5 3 8 16371.6 1407.17 18
-5 3 8 17769.4 1390.7 4
-5 3 8 15610.8 1362.54 16
5 3 -8 16077.7 1425.74 2
5 3 -8 16126.9 1285.77 7
-5 3 8 15813.4 1378.23 15
-5 3 7 2312.91 541.807 15
5 3 -7 1158 472.704 15
5 3 -7 1782.54 604.513 2
-5 3 7 1658.28 519.761 10
-5 3 7 1017.3 453.787 18
-5 3 7 1316.79 490 16
-5 3 7 1745.36 493.696 4
5 3 -7 1865.04 497.216 7
-5 3 6 709.499 380.523 15
5 3 -6 213.676 330.047 15
5 3 -6 538.656 419.841 2
-5 3 6 737.957 426.077 18
5 3 -6 69.7991 257.676 5
-5 3 6 543.082 439.716 10
-5 3 6 -55.8214 368.645 16
-5 3 6 346.534 297.764 4
5 3 -6 752.542 424.504 7
-5 3 5 319.204 368.734 15
5 3 -5 -429.564 376.895 15
5 3 -5 64.5004 353.684 2
5 3 -5 -68.5966 249.64 5
-5 3 5 -172.484 370.327 10
-5 3 5 -211.34 304.539 18
-5 3 5 354.391 375.44 16
-5 3 5 41.6196 282.364 4
5 3 -4 7218.13 824.118 15
-5 3 4 7038.85 837.86 15
-5 3 4 6166.68 789.124 18
5 3 -4 8071.56 727.381 5
-5 3 4 9086.43 712.511 9
-5 3 4 6707.07 694.636 4
5 3 -4 7177.48 870.514 2
-5 3 4 7460.05 780.611 16
5 3 -3 8728.92 910.878 15
5 3 -3 9163.38 692.48 13
5 3 -3 9136.73 800.533 5
-5 3 3 10242.2 770.799 9
-5 3 3 8153.04 875.878 18
-5 3 3 9205.99 782.669 4
5 3 -3 8307.95 903.325 2
-5 3 3 8191.65 789.976 16
-5 3 3 7387.35 817.886 15
-5 3 2 6011.67 706.458 15
5 3 -2 7058.33 818.536 15
5 3 -2 7065.19 589.061 13
5 3 -2 7300.44 773.887 5
-5 3 2 7821.03 695.616 9
-5 3 2 6474.15 645.417 2
-5 3 2 7641.96 674.299 4
-5 3 2 6422.56 740.377 18
5 3 -2 7499.56 797.968 2
-5 3 2 6296.79 655.414 16
-5 3 1 32759.8 1521.01 2
5 3 -1 34906.9 1428.21 13
5 3 -1 31727.4 1719.23 5
-5 3 1 33456.1 1649.27 9
-5 3 1 35486.6 1474.08 4
5 3 -1 32723.7 1819.6 18
-5 3 1 30377 1664.27 18
5 3 -1 36219.2 1790.38 2
-5 3 1 34645.6 1542.97 16
-5 3 1 31572.2 1669.45 15
5 3 -1 33676.6 1820.76 15
-5 3 0 5010.87 629.288 15
5 3 0 4833.15 706.27 15
-5 3 0 4005.79 507.436 2
5 3 0 5193.07 667.528 2
5 3 0 4557.31 492.912 13
5 3 0 4387.51 656.047 5
5 3 0 4724.96 600.061 10
-5 3 0 4133.91 580.797 9
-5 3 0 4553.16 595.493 18
5 3 0 4726.64 697.993 18
-5 3 0 4627.92 478.613 4
-5 3 0 4986.52 513.418 16
5 3 1 20003.6 1059.01 13
5 3 1 16205.7 1238.82 5
5 3 1 17355.8 1195.49 10
-5 3 -1 18797.8 1260.44 9
-5 3 -1 16680.4 1096.7 18
5 3 1 17143.6 1290.15 18
-5 3 -1 15874.6 1066.46 2
-5 3 -1 18573.2 1010.82 16
-5 3 -1 17647.4 1122.68 15
5 3 1 18176.9 1314.59 15
5 3 1 18373.6 1276.92 2
5 3 2 15002.6 957.991 13
-5 3 -2 13536.3 943.09 18
5 3 2 14102 1195.81 5
5 3 2 13794.1 1096.83 10
-5 3 -2 15396.6 985.787 2
-5 3 -2 14621.4 1146.36 9
5 3 2 12985.7 1142 18
5 3 2 11891.7 1097.05 2
-5 3 -2 15311.9 985.772 15
5 3 2 12640.5 1117.26 15
5 3 3 3369.31 605.565 2
-5 3 -3 4015 499.787 15
5 3 3 4283.55 662.623 15
5 3 3 3102.86 487.716 13
-5 3 -3 4300.67 577.029 2
5 3 3 3438.96 626.629 5
5 3 3 4154.93 694.082 10
-5 3 -3 3967.82 666.203 9
-5 3 -3 3719.37 480.298 18
5 3 3 3106.86 592.189 18
5 3 4 12746.6 967.083 13
5 3 4 10503.5 1104.05 5
5 3 4 11648.2 1120.22 10
-5 3 -4 11158 1091.45 9
5 3 4 10411.3 1033.21 18
-5 3 -4 10130.8 864.224 2
-5 3 -4 11408.2 756.839 15
5 3 4 10563.4 1041.02 15
-5 3 -4 10595.7 730.528 18
5 3 5 10570.1 965.659 13
5 3 5 10401.7 1128.32 5
5 3 5 8508.62 1000.05 10
-5 3 -5 9976.35 1065.99 9
5 3 5 8484.16 981.272 18
-5 3 -5 10663.2 916.26 2
5 3 5 9501.04 1008.31 15
5 3 6 2014.22 563.229 15
5 3 6 1680.59 502.17 13
-5 3 -6 2384.65 489.437 2
5 3 6 1831.12 540.686 5
5 3 6 1572.13 579.586 10
-5 3 -6 1544.19 563.261 9
5 3 6 1791.34 553.23 18
5 3 7 3149.59 629.827 15
5 3 7 4052.3 728.76 13
-5 3 -7 3681.32 583.532 2
5 3 7 4894.28 884.707 5
5 3 7 4148.96 810.134 10
-5 3 -7 4085.98 774.241 9
5 3 7 3488.06 671.61 18
5 3 7 4200.48 703.474 17
5 3 8 4350.07 733.355 15
-5 3 -8 3522.3 564.742 2
5 3 8 2734.59 680.695 5
5 3 8 3790.96 804.166 10
-5 3 -8 2640.86 673.693 9
5 3 8 4344.47 684.71 18
5 3 8 3616.06 651.969 17
5 3 9 588.515 371.771 15
-5 3 -9 -848.636 542.5 2
-5 3 -9 151.478 318.923 11
5 3 9 1227.73 638.513 5
5 3 9 773.887 499.725 10
-5 3 -9 149.089 494.878 3
5 3 9 -32.1424 314.458 18
-5 3 -9 -319.079 521.307 9
5 3 9 394.298 443.763 17
-5 3 -10 1948.05 651.117 9
-5 3 -10 1802.19 578.699 11
5 3 10 1102.55 545.141 5
5 3 10 3032.67 817.857 10
-5 3 -10 1396.61 503.844 1
-5 3 -10 1476.43 578.711 3
-5 3 -11 -408.238 404.361 11
-5 3 -11 68.8817 417.313 3
-5 3 -11 -704.075 598.053 1
-5 3 -12 650.69 419.84 1
-5 4 12 1238.01 684.922 4
-5 4 11 1589.16 651.722 4
-5 4 11 1191.41 674.952 16
-5 4 10 4541.41 826.951 4
-5 4 10 4273.74 852.448 15
5 4 -10 3776.8 843.817 2
-5 4 10 4244.56 772.997 5
-5 4 10 4786.2 995.999 10
-5 4 10 5240.21 929.495 18
-5 4 10 4421.01 887.212 16
-5 4 9 12227.5 1249.44 5
-5 4 9 11954.9 1342.51 10
-5 4 9 11019.3 1300.47 18
5 4 -9 11511.8 1179.6 18
-5 4 9 11161.7 1182.11 4
-5 4 9 11385.6 1304.13 16
5 4 -9 10689.7 1291.07 2
-5 4 9 11402.5 1276.68 15
5 4 -9 11684.7 1163.21 15
-5 4 8 1864.81 625.477 15
5 4 -8 3100.88 635.824 15
5 4 -8 1450.06 650.792 2
-5 4 8 1704.98 612.956 10
-5 4 8 2106.79 642.013 18
5 4 -8 1876.26 526.441 18
-5 4 8 1673.36 596.542 16
-5 4 8 2265.42 632.528 4
-5 4 7 6713.83 936.984 15
5 4 -7 5809.12 863.82 15
5 4 -7 4806.08 869.657 2
5 4 -7 4885.3 801.368 18
-5 4 7 5998.18 916.731 10
-5 4 7 6189.53 912.541 18
-5 4 7 5404.89 882.427 16
-5 4 7 4766.26 731.968 4
-5 4 6 1166.96 567.421 15
5 4 -6 972.09 389.348 15
5 4 -6 1431.1 618.417 2
5 4 -6 841.708 353.402 5
-5 4 6 349.483 488.452 10
-5 4 6 953.916 462.483 18
5 4 -6 702.378 434.109 18
-5 4 6 561.795 447.162 16
-5 4 6 735.188 357.632 4
-5 4 5 116.497 361.742 15
5 4 -5 -504.759 440.394 15
5 4 -5 1336.03 594.847 2
5 4 -5 -158.17 315.122 5
-5 4 5 46.9235 426.749 10
-5 4 5 -78.9355 416.844 18
5 4 -5 254.226 367.036 18
-5 4 5 198.208 446.444 16
-5 4 5 -147.48 305.79 4
-5 4 4 5549.07 820.803 15
5 4 -4 5599 822.263 15
5 4 -4 5651.77 917.231 2
5 4 -4 6880.64 808.356 5
-5 4 4 6778.39 896.759 10
-5 4 4 5651.72 862.706 18
5 4 -4 6825.1 894.771 18
-5 4 4 7274.62 842.868 16
-5 4 3 3809.74 691.614 15
5 4 -3 4074.88 688.917 15
5 4 -3 5599.2 880.3 2
5 4 -3 4731.91 681.898 5
-5 4 3 4981.26 783.251 10
5 4 -3 4977.13 785.75 18
-5 4 3 5127.79 800.923 18
-5 4 3 5496.7 694.124 16
-5 4 2 1012.11 436.252 2
-5 4 2 740.776 472.715 15
5 4 -2 415.344 361.643 15
5 4 -2 1161.73 551.725 2
5 4 -2 252.398 340.639 5
-5 4 2 1572.23 481.431 9
-5 4 2 950.126 467.913 18
5 4 -2 1300.12 499.601 18
-5 4 2 542.939 352.82 16
5 4 -1 11508.8 1108.97 5
5 4 -1 10849.5 899.823 10
-5 4 1 10960 979.976 2
-5 4 1 11052.9 1011.09 9
-5 4 1 11468.9 1081.55 18
5 4 -1 10458.3 1102.06 18
5 4 -1 11253 1110.49 2
-5 4 1 11356.8 851.732 16
-5 4 1 9349.37 990.605 15
5 4 -1 9712.38 1074.46 15
-5 4 0 2131.6 525.575 15
5 4 0 2031.2 611.732 15
-5 4 0 1645.23 455.142 2
5 4 0 2410.66 680.202 2
5 4 0 1811.29 520.772 5
5 4 0 2091.89 487.136 10
5 4 0 1623.36 543.902 18
-5 4 0 1685.67 492.824 9
-5 4 0 1832.14 498.839 18
-5 4 -1 5664.05 741.125 15
5 4 1 4514.52 782.555 15
5 4 1 6259.02 873.544 2
-5 4 -1 4682.54 651.22 2
5 4 1 5692.03 825.82 5
5 4 1 5047.79 732.157 10
-5 4 -1 4844.94 739.023 9
-5 4 -1 4852.52 674.202 18
5 4 1 5380.3 846.026 18
5 4 2 5773.15 937.297 2
5 4 2 5785.21 847.796 15
5 4 2 6605.39 915.413 5
5 4 2 6232.5 800.291 10
-5 4 -2 7043.47 782.73 18
-5 4 -2 7684.78 946.927 9
5 4 2 7671.47 994.411 18
-5 4 -2 7186.56 813.35 2
-5 4 -2 6765.69 784.006 15
5 4 3 11370.7 1188.33 5
5 4 3 9686.52 1045.46 10
-5 4 -3 10075.8 1119.16 9
-5 4 -3 12055.4 970.51 18
5 4 3 11440.9 1212.5 2
5 4 3 10731.9 1166.47 18
-5 4 -3 9129.61 1040.71 2
-5 4 -3 11182.7 948.989 15
5 4 3 13131.3 1265.4 15
5 4 4 2878.55 669.856 15
-5 4 -4 2909.33 600.671 2
5 4 4 2182.34 584.962 5
5 4 4 2449.79 648.981 10
-5 4 -4 1953.39 569.195 9
5 4 4 2282.45 634.603 18
5 4 5 3379.05 709.584 15
-5 4 -5 2169.97 626.095 2
5 4 5 3474.5 807.127 5
5 4 5 2343.93 649.598 10
-5 4 -5 4178.92 770.753 9
5 4 5 3191.09 688.271 18
5 4 5 3383.02 736.425 17
5 4 6 2352.92 655.389 15
-5 4 -6 452.012 367.957 2
5 4 6 1807.09 635.261 5
5 4 6 1441.78 595.662 10
-5 4 -6 2425.43 729.224 9
5 4 6 1670.63 613.247 18
5 4 6 1256.69 538.83 17
5 4 7 4564.15 811.616 15
-5 4 -7 6258.63 984.009 9
5 4 7 3975.01 906.334 5
5 4 7 5686.37 972.635 10
5 4 7 4493.93 792.057 17
5 4 7 4143.86 838.907 18
5 4 8 987.243 454.914 15
5 4 8 980.653 548.66 5
5 4 8 2405.55 752.534 10
-5 4 -8 1339.14 709.792 9
5 4 8 781.672 419.505 18
5 4 8 1172.59 493.172 17
5 4 9 1045.76 462.034 15
5 4 9 298.228 438.174 18
5 4 9 207.524 417.507 17
5 4 10 1024.36 571.842 15
5 4 10 1154.29 578.195 18
5 4 10 843.407 540.502 17
-5 5 10 4850.04 950.432 5
-5 5 9 749.904 589.057 5
-5 5 9 652.03 562.577 16
5 5 -8 1950.04 588.057 15
5 5 -8 1054.25 483.642 18
-5 5 8 562.256 467.212 16
-5 5 7 2407.86 701.337 15
5 5 -7 3011.46 634.731 15
5 5 -7 1712.43 705.998 2
-5 5 7 1956.36 676.213 10
-5 5 7 2346.41 710.976 18
5 5 -7 2855.62 666.3 18
-5 5 7 2956.27 667.601 16
-5 5 6 2567.22 689.657 15
5 5 -6 1973.96 632.138 15
5 5 -6 2408.58 810.524 2
-5 5 6 2248.67 698.949 10
-5 5 6 1472.73 605.797 18
5 5 -6 2500.01 717.862 18
-5 5 5 2619.33 624.249 15
5 5 -5 1186.8 535.751 15
5 5 -5 2697.93 731.545 2
5 5 -5 2974.99 655.993 5
-5 5 5 3025.3 763.905 10
-5 5 5 2702.41 666.983 18
5 5 -5 2879.75 732.371 18
-5 5 4 168.22 453.23 15
5 5 -4 419.781 481.082 15
5 5 -4 -164.55 475.563 2
5 5 -4 14.8993 385.777 18
5 5 -4 357.735 371.312 5
-5 5 4 73.013 419.044 10
-5 5 4 402.745 417.573 18
-5 5 3 1328.1 501.027 15
5 5 -3 1518.84 561.599 15
5 5 -3 1411.01 673.343 2
5 5 -3 808.149 427.483 5
-5 5 3 1308 510.498 10
-5 5 3 1352.23 550.026 18
5 5 -3 263.49 457.864 18
-5 5 2 3203.17 674.451 2
-5 5 2 3245.9 724.995 15
5 5 -2 2710.8 696.486 15
5 5 -2 2419.03 714.139 2
5 5 -2 3367.35 718.311 5
-5 5 2 3017.34 686.056 10
-5 5 2 2052.02 631.337 18
5 5 -2 2717.32 637.312 18
-5 5 1 1951.93 624.277 15
-5 5 1 1684.43 514.098 2
5 5 -1 2568.81 715.659 15
5 5 -1 1688.28 583.419 2
5 5 -1 780.946 511.565 5
-5 5 1 1485.65 541.121 10
-5 5 1 1738.06 552.868 18
5 5 -1 1133.29 551.609 18
-5 5 0 866.197 508.811 15
5 5 0 663.272 438.586 15
-5 5 0 1035.89 511.728 2
5 5 0 224.518 518.898 2
5 5 0 261.814 427.578 5
-5 5 0 769.4 417.334 10
-5 5 0 952.201 543.883 9
-5 5 0 784.849 457.783 18
5 5 0 14.5023 491.042 18
-5 5 -1 -245.557 356.575 15
5 5 1 67.4569 494.546 2
-5 5 -1 277.763 403.7 2
5 5 1 346.158 510.939 15
5 5 1 -469.559 483.807 5
5 5 1 282.052 429.024 10
-5 5 -1 840.856 511.174 9
-5 5 -1 -266.103 403.09 18
5 5 1 547.814 434.537 18
5 5 2 583.432 566.932 2
5 5 2 504.743 446.089 15
-5 5 -2 -16.3919 373.966 2
5 5 2 328.837 533.545 5
5 5 2 -218.242 376.722 10
-5 5 -2 736.582 538.42 9
5 5 2 640.067 448.892 18
5 5 3 1908.73 722.637 2
5 5 3 3125.63 783.004 15
-5 5 -3 2941.07 739.183 2
5 5 3 4581.26 877.198 5
5 5 3 3324.93 676.751 10
-5 5 -3 3055.66 767.285 9
5 5 3 3783.22 866.917 18
5 5 3 4140.81 888.927 17
5 5 4 1791.69 622.47 15
5 5 4 729.86 472.257 5
5 5 4 2408.19 700.031 10
-5 5 -4 872.602 449.373 9
5 5 4 2105.67 738.954 18
5 5 4 2067.72 641.689 17
5 5 5 5266.09 945.88 15
5 5 5 4541.83 860.369 10
-5 5 -5 5841.75 999.156 9
5 5 5 5493.68 982.484 18
5 5 5 4610.7 891.81 17
5 5 6 5685.49 1009.42 10
5 6 -4 5233.7 972.756 5
-5 6 4 4323.74 958.011 10
5 6 -3 -415.122 545.964 5
-5 6 1 5254.93 931.844 15
-5 6 1 3814.02 835.492 18
-5 6 0 3314.01 771.093 15
-5 6 0 5158.55 907.907 18
6 -5 -9 2434.3 715.945 6
6 -5 -8 870.708 570.829 6
-6 -5 8 -198.956 398.085 12
6 -5 -7 933.262 531.774 6
6 -5 -6 168.438 413.88 6
-6 -5 6 1142.67 627.401 6
6 -5 -5 3002.41 692.902 14
6 -5 -5 4799.2 779.024 6
-6 -5 5 3932.56 818.853 6
6 -5 -5 2975.6 812.574 8
6 -5 -4 6256.93 1016.5 14
6 -5 -4 6340.82 893.211 6
-6 -5 4 5060.09 865.68 6
6 -5 -4 5781.1 1003.53 8
6 -5 -3 994.829 518.882 14
6 -5 -3 1827.36 540.597 6
-6 -5 3 533.456 472.459 6
-6 -5 3 274.838 511.047 1
6 -5 -3 249.727 393.148 8
6 -5 -2 2872.7 726.124 14
6 -5 -2 2352.15 617.409 6
-6 -5 2 1453.17 616.8 6
-6 -5 2 2447.22 714.905 1
6 -5 -2 2794.24 746.725 8
6 -5 -1 428.26 520.39 14
6 -5 -1 902.055 430.621 6
-6 -5 1 827.203 526.505 6
-6 -5 1 1253.54 604.85 1
6 -5 -1 928.075 477.019 8
6 -5 0 11759 1328.48 14
-6 -5 0 12575.6 1316.2 6
6 -5 0 12062.8 1113.57 6
6 -5 0 12163.7 1288.8 8
-6 -5 0 7615.88 1402.21 1
6 -5 1 7970.71 1132.48 14
-6 -5 -1 9397.96 1150.07 6
-6 -5 -1 9839.97 1276.07 1
6 -5 1 8095.85 1046.35 8
6 -5 2 3460.5 813.127 14
-6 -5 -2 2408.53 671.805 6
-6 -5 -2 3588.07 927.086 1
6 -5 2 3308.48 681.617 8
6 -5 3 980.418 570.419 14
-6 -5 -3 -644.748 463.13 6
-6 -5 -3 1242.24 647.86 1
6 -5 3 -2.80604 407.76 8
-6 -5 -4 1822.67 668.673 6
-6 -5 -4 2103.86 665.64 3
6 -4 -11 371.703 493.561 7
6 -4 -10 183.773 405.974 7
-6 -4 10 1062.98 536.745 6
-6 -4 10 666.296 404.712 12
6 -4 -10 -696.653 574.254 8
6 -4 -9 559.468 443.985 7
-6 -4 9 394.027 410.482 6
-6 -4 9 690.69 522.225 12
6 -4 -9 1260.2 656.783 8
6 -4 -8 7670.73 911.427 7
-6 -4 8 4781.7 854.425 6
-6 -4 8 6084.4 893.603 12
6 -4 -8 6428.38 1058.35 8
6 -4 -7 2300.41 522.054 7
-6 -4 7 1549.43 627.037 6
-6 -4 7 1609.95 523.642 12
6 -4 -7 1769.89 618.868 8
6 -4 -6 4881.35 678.89 7
-6 -4 6 3434.5 682.23 6
-6 -4 6 3950.74 685.951 12
6 -4 -6 4687.69 832.318 8
6 -4 -5 821.875 416.405 6
6 -4 -5 1494.48 422.864 13
-6 -4 5 987.088 496.561 6
-6 -4 5 1101.21 395.472 12
-6 -4 5 1671.2 430.305 4
6 -4 -5 840.785 470.958 8
6 -4 -4 987.937 474.885 14
6 -4 -4 555.722 328.22 6
-6 -4 4 456.788 418.008 6
6 -4 -4 572.338 305.185 13
-6 -4 4 652.131 375.443 12
-6 -4 4 684.868 377.34 1
-6 -4 4 1452.2 430.29 4
6 -4 -4 721.113 487.369 8
6 -4 -3 982.193 528.449 14
6 -4 -3 823.494 367.643 6
-6 -4 3 933.222 404.683 6
6 -4 -3 1482.07 403.895 13
-6 -4 3 1267.6 402.778 12
-6 -4 3 1765.27 575.258 1
6 -4 -3 1721.05 549.967 8
-6 -4 2 16993.9 1496.52 3
6 -4 -2 17088.1 1429.54 14
6 -4 -2 18609.4 1232.94 6
-6 -4 2 16661 1366.75 6
6 -4 -2 19596.3 1185.6 13
6 -4 -2 19253.5 1521.44 8
-6 -4 2 20727 1523.84 1
6 -4 -1 5510.54 856.008 14
6 -4 -1 6358.22 673.313 13
6 -4 -1 6337.09 708.564 6
-6 -4 1 5954.48 828.038 6
-6 -4 1 7317.72 1011.38 3
-6 -4 1 5870.83 880.242 1
6 -4 -1 6124.34 831.375 8
6 -4 0 2200.93 561.004 14
-6 -4 0 2905.18 631.431 6
6 -4 0 2487.27 445.255 13
6 -4 0 2849.65 505.595 6
-6 -4 0 2270.39 662.012 3
-6 -4 0 2809.11 652.353 1
6 -4 0 2087.02 542.722 8
6 -4 1 3701.57 737.954 14
-6 -4 -1 3711.83 706.747 6
6 -4 1 4311.67 590.817 13
6 -4 1 4791.86 636.007 6
-6 -4 -1 3920.61 766.215 3
-6 -4 -1 4015.88 781.649 1
6 -4 1 5462.75 754.193 8
6 -4 2 2460.07 632.96 14
-6 -4 -2 2822.17 675.457 6
6 -4 2 2240.74 458.664 13
6 -4 2 2930.03 562.295 6
-6 -4 -2 3147.38 733.235 3
-6 -4 -2 3843.4 805.858 1
6 -4 2 2630.23 609.693 8
6 -4 3 6317.09 899.292 14
6 -4 3 6501.14 843.569 8
6 -4 3 5957.65 731.139 6
6 -4 3 7143.17 793.566 13
-6 -4 -3 5780.29 863.809 6
-6 -4 -3 5809.14 921.194 3
-6 -4 -3 6348.28 985.399 1
6 -4 4 3781.48 773.696 14
-6 -4 -4 3301.84 719.243 6
6 -4 4 3391.29 614.587 13
6 -4 4 4269.56 637.938 6
-6 -4 -4 4833.56 863.606 3
-6 -4 -4 3895.87 798.66 1
6 -4 4 3881.32 706.18 8
6 -4 5 780.784 524.496 14
-6 -4 -5 557.693 483.473 6
6 -4 5 1686.55 539.812 13
-6 -4 -5 773.295 518.913 3
-6 -4 -5 1465.4 713.556 1
6 -4 5 1075.95 422.812 8
6 -4 6 457.727 507.602 14
-6 -4 -6 648.32 531.365 6
6 -4 6 237.81 443.273 13
-6 -4 -6 1145.53 523.046 3
-6 -4 -6 653.267 465.999 1
6 -4 7 459.672 533.838 14
-6 -4 -7 483.75 486 6
6 -4 7 570.026 524.901 13
-6 -4 -7 162.954 433.902 3
-6 -4 -7 516.785 557.873 1
-6 -4 -8 1696.85 617.465 6
-6 -4 -8 1306.8 577.05 3
6 -3 -13 1414.95 599.537 8
6 -3 -12 -600.069 540.598 7
-6 -3 12 758.353 521.591 6
-6 -3 12 630.263 608.187 12
6 -3 -12 644.92 512.139 8
-6 -3 12 -176.037 480.216 4
6 -3 -11 886.495 475.457 7
-6 -3 11 1741.7 549.515 6
-6 -3 11 2293.83 668.871 12
6 -3 -11 1219.81 546.397 8
-6 -3 11 1609.53 506.159 4
6 -3 -10 288.361 382.106 7
-6 -3 10 600.529 478.888 6
-6 -3 10 -38.9053 399.85 12
6 -3 -10 231.709 346.354 8
-6 -3 10 1348.44 519.271 4
6 -3 -9 1451.41 497.707 7
-6 -3 9 1818.18 563.605 6
-6 -3 9 2368.29 594.839 12
6 -3 -9 3255.23 701.157 8
-6 -3 9 2943.25 557.541 16
-6 -3 9 2498.52 573.658 4
-6 -3 8 9267.93 1071.3 6
-6 -3 8 9428.13 1061.97 12
-6 -3 8 8734.98 976.899 4
-6 -3 8 10579.5 942.853 16
6 -3 -8 8201.92 1004.52 8
6 -3 -8 8917.98 971.513 7
-6 -3 7 18531.8 1396.56 6
-6 -3 7 17717.5 1365.31 12
-6 -3 7 19242.7 1306.58 4
6 -3 -7 16689.4 1423.28 8
6 -3 -7 20778.5 1375.81 7
-6 -3 6 8409.62 902.352 6
-6 -3 6 9201.1 881.484 4
-6 -3 6 8463.82 899.086 12
6 -3 -6 9377.43 1039.33 8
6 -3 -6 8796.28 846.424 7
6 -3 -5 2118.24 422.724 7
-6 -3 5 1666.81 488.145 6
-6 -3 5 1686.61 434.218 12
-6 -3 5 1039.86 391.255 1
-6 -3 5 2333.82 504.797 4
6 -3 -5 2262.37 562.048 8
6 -3 -4 8660.94 734.395 6
-6 -3 4 9173.83 987.525 3
-6 -3 4 8425.74 882.039 6
-6 -3 4 8408.48 826.538 12
-6 -3 4 11587.6 957.878 4
-6 -3 4 7782.77 831.742 1
6 -3 -4 7874.96 952.144 8
6 -3 -4 8788.25 746.521 7
6 -3 -3 15310.3 1137.48 6
-6 -3 3 21638.3 1475.49 3
6 -3 -3 19888.6 1393.18 14
-6 -3 3 21345.7 1371.7 6
6 -3 -3 20799.1 1236.25 13
-6 -3 3 20123.3 1228.41 12
6 -3 -3 22783.7 1523.13 8
-6 -3 3 21517.1 1318.77 1
6 -3 -3 21492.5 1102.34 7
6 -3 -2 560.881 392.718 14
6 -3 -2 955.992 301.29 6
-6 -3 2 62.9834 301.362 6
6 -3 -2 280.276 266.43 13
-6 -3 2 497.434 414.549 3
-6 -3 2 726.017 274.095 12
6 -3 -2 496.159 199.717 7
-6 -3 2 839.444 413.896 1
6 -3 -2 1042.65 446.337 8
-6 -3 1 42078 1292.46 14
6 -3 -1 36874.2 1966.64 14
6 -3 -1 42962.4 1677.56 6
-6 -3 1 37684.3 2074.27 3
-6 -3 1 38028 1918.17 6
6 -3 -1 42049.5 1853.28 13
-6 -3 1 41866.2 1695.02 12
6 -3 -1 38955.9 2047.37 8
-6 -3 1 40692.9 2030.43 1
-6 -3 0 12240.5 589.601 14
6 -3 0 11643 1050.93 14
-6 -3 0 11063 1001.64 6
-6 -3 0 12487.2 1155.63 3
6 -3 0 12837.4 823.657 6
6 -3 0 11856.4 936.672 13
-6 -3 0 11699.7 760.412 12
6 -3 0 13211.5 1098.36 8
-6 -3 0 13079.1 1105.39 1
-6 -3 -1 4578.92 378.399 14
6 -3 1 3707.98 685.602 14
6 -3 1 4699.1 504.791 6
-6 -3 -1 3762.78 637.631 6
6 -3 1 3195.03 544.684 13
-6 -3 -1 4825.27 444.628 12
-6 -3 -1 4423.77 712.586 3
6 -3 1 4792.06 683.376 8
-6 -3 -1 3051.44 599.593 1
-6 -3 -2 6023.09 804.064 1
6 -3 2 4386.87 720.542 14
6 -3 2 6343.93 597.662 6
-6 -3 -2 3741.19 651.469 6
6 -3 2 5169.74 680.13 13
-6 -3 -2 4404.53 722.739 3
6 -3 2 6256.5 756.796 8
-6 -3 -3 472.246 386.395 1
6 -3 3 682.115 435.195 14
-6 -3 -3 -56.2853 340.856 6
6 -3 3 656.218 356.681 13
6 -3 3 798.9 278.04 6
-6 -3 -3 897.468 373.288 3
6 -3 3 998.042 383.533 8
-6 -3 -4 -188.449 421.878 1
6 -3 4 -288.468 408.547 14
-6 -3 -4 468.636 388.202 6
6 -3 4 -90.1444 307.172 13
6 -3 4 193.988 241.825 6
-6 -3 -4 122.59 364.142 3
6 -3 4 671.653 393.845 8
-6 -3 -5 1875.77 590.181 1
6 -3 5 1572.83 514.583 14
-6 -3 -5 1638.86 515.245 6
6 -3 5 2260.5 583.799 13
6 -3 5 1252.35 351.204 6
-6 -3 -5 1970.97 550.283 3
6 -3 5 1916.39 431.759 8
-6 -3 -6 4850.18 845.299 1
6 -3 6 4914.52 838.924 14
6 -3 6 4206.17 695.16 13
6 -3 6 6000.18 686.015 6
-6 -3 -6 5587.98 835.903 3
6 -3 6 5756.67 694.749 8
-6 -3 -7 2955.59 664.243 1
6 -3 7 4182.57 821.23 13
6 -3 7 4997.35 683.991 6
-6 -3 -7 3600.27 688.731 3
-6 -3 -8 4833.59 959.366 1
6 -3 8 5724.81 905.457 13
-6 -3 -8 5137.58 832.489 3
-6 -3 -9 -12.584 415.792 1
6 -3 9 -209.451 454.579 13
-6 -3 -9 168.572 403.149 3
6 -3 10 1048.31 639.694 13
-6 -2 14 1555.59 663.324 4
6 -2 -13 2516.4 806.428 7
-6 -2 13 1672.11 665.588 6
-6 -2 13 1002.09 495.145 12
-6 -2 13 1300.03 516.252 16
-6 -2 13 2568.79 738.27 4
6 -2 -12 1402.76 598.614 7
-6 -2 12 363.557 501.933 6
-6 -2 12 1997.06 629.61 12
6 -2 -12 1853.16 542.42 8
-6 -2 12 1251.92 515.047 16
-6 -2 12 1300.64 568.65 4
6 -2 -11 218.591 377.767 7
-6 -2 11 -596.564 417.985 6
6 -2 -11 368.16 431.345 8
-6 -2 11 19.5022 342.9 16
-6 -2 11 322.401 419.784 4
6 -2 -10 1708.58 552.635 7
-6 -2 10 2182.01 574.906 6
-6 -2 10 3030.07 732.423 12
6 -2 -10 2567.87 608.065 8
-6 -2 10 3217.8 620.529 16
-6 -2 10 2279.86 604.863 4
-6 -2 9 26790.1 1698.78 6
6 -2 -9 25999.1 1681.7 7
-6 -2 9 24537.6 1682.76 12
-6 -2 9 22229.4 1627.61 4
6 -2 -9 23866 1603.71 8
-6 -2 9 26783.6 1606.49 16
6 -2 -8 1015.26 423.896 7
-6 -2 8 421.489 403.007 6
-6 -2 8 543.427 380.223 12
6 -2 -8 759.51 447.929 8
-6 -2 8 1341.06 436.205 16
-6 -2 8 681.043 451.965 4
6 -2 -7 5394.09 707.509 7
-6 -2 7 5430.63 679.334 6
-6 -2 7 5129.19 736.35 12
6 -2 -7 4700.22 696.386 8
-6 -2 7 3723.3 649.281 4
-6 -2 6 14361.7 1052.71 3
-6 -2 6 14720.9 1069.69 6
-6 -2 6 13400.9 1085.8 12
-6 -2 6 13678.9 1127.98 4
-6 -2 6 11189.8 798.824 1
6 -2 -6 14971.5 1176.33 8
6 -2 -6 13812.3 1062.66 7
6 -2 -5 2331.65 471.356 7
-6 -2 5 2297.29 446.565 6
-6 -2 5 1984.37 480.315 3
-6 -2 5 1447.4 404.912 12
-6 -2 5 1767.2 328.181 1
-6 -2 5 1632.23 468.78 4
6 -2 -5 1616.9 489.417 8
6 -2 -4 1013.33 321.632 7
6 -2 -4 833.863 289.313 2
-6 -2 4 1175.07 383.822 6
-6 -2 4 907.699 388.738 3
-6 -2 4 1218.57 359.274 12
6 -2 -4 827.095 401.627 8
-6 -2 4 1295.09 319.006 1
-6 -2 3 10459.9 914.827 3
-6 -2 3 10816.7 840.36 6
-6 -2 3 10055.1 820.937 12
6 -2 -3 9420.16 900.982 8
6 -2 -3 12083 719.363 2
-6 -2 3 11433.5 808.141 1
6 -2 -3 11942.7 806.59 7
6 -2 -2 1903.39 333.685 7
-6 -2 2 2082.41 408.503 1
6 -2 -2 1930.25 400.253 14
6 -2 -2 1887.24 276.23 6
-6 -2 2 2502.25 424.684 6
6 -2 -2 1962.09 280.23 2
6 -2 -2 1609.34 371.179 13
-6 -2 2 2362.45 510.641 3
-6 -2 2 2310.17 425.333 12
6 -2 -2 1990.11 499.836 8
6 -2 -1 18091.9 1144.65 14
6 -2 -1 20442.1 799.242 6
-6 -2 1 17567.9 1028.76 6
6 -2 -1 17484.3 1212.85 8
-6 -2 1 16858.2 1238.46 3
6 -2 -1 17076.8 1084.74 13
6 -2 -1 19069.5 939.52 7
-6 -2 1 17383.6 1119.44 1
6 -2 0 19364.5 1163.63 14
-6 -2 0 19510.4 1077.24 6
6 -2 0 20523.1 768.546 6
-6 -2 0 19677.7 1259.88 3
6 -2 0 19411 1154.94 13
6 -2 0 18952.3 1218.55 8
-6 -2 0 19331.5 1166.67 1
-6 -2 -1 13301.2 1044.42 1
6 -2 1 14910.8 1068.39 14
-6 -2 -1 14579.5 956.527 6
6 -2 1 15827.4 696.133 6
-6 -2 -1 13079.1 1074.85 3
6 -2 1 14699.4 1053.31 13
6 -2 1 15227.7 1116.64 8
-6 -2 -2 13130.8 1063.51 1
6 -2 2 13221 1019.17 14
-6 -2 -2 11909.8 912.986 6
-6 -2 -2 12801.2 1103.06 3
6 -2 2 15440.3 720.66 6
6 -2 2 14511.5 1052.2 13
6 -2 2 13596 1037.86 8
-6 -2 -3 12729.1 1068.2 1
-6 -2 -3 10102 858.636 6
6 -2 3 12036.7 1011.66 14
-6 -2 -3 13076.4 1113.55 3
6 -2 3 13075.3 721.463 6
6 -2 3 11907.8 1018.17 13
6 -2 3 12580.6 996.335 8
6 -2 4 3413.97 600.777 14
6 -2 4 2806.03 553.445 13
6 -2 4 3566.1 404.263 6
-6 -2 -4 2574.47 587.04 1
-6 -2 -4 2766.35 574.777 3
6 -2 4 3065.87 345.054 18
6 -2 4 3364.24 362.313 17
6 -2 4 3143.12 559.857 8
6 -2 4 3555.4 385.882 15
6 -2 5 1592.99 485.853 14
6 -2 5 1430.92 450.71 13
6 -2 5 1936.58 350.081 6
-6 -2 -5 1655.42 515.88 1
-6 -2 -5 2124.55 537.025 3
6 -2 5 1363.27 397.291 8
6 -2 6 -212.451 438.057 13
-6 -2 -6 851.267 445.258 1
-6 -2 -6 31.7883 322.376 3
6 -2 6 0.2469 260.102 8
6 -2 7 1686.47 534.066 13
-6 -2 -7 2689.88 645.43 1
-6 -2 -7 2511.67 595.877 3
6 -2 7 2491.22 487.601 8
6 -2 8 5793.33 909.8 13
6 -2 8 5302.37 663.09 8
-6 -2 -8 6214.62 926.606 1
-6 -2 -8 6826.87 869.183 3
6 -2 9 3645.27 824.078 13
-6 -2 -9 5267.3 899.622 1
-6 -2 -9 5161.12 825.849 3
6 -2 10 2457.23 764.074 13
-6 -2 -10 2765.97 740.292 1
-6 -2 -10 3406.9 672.336 3
6 -2 11 2600.75 916.222 13
-6 -2 -11 4616.22 903.025 1
6 -1 -15 7414.6 1018.08 11
-6 -1 15 6366 1012.55 16
-6 -1 14 -493.658 560.214 12
6 -1 -14 148.272 345.228 11
-6 -1 14 -652.72 508.993 16
-6 -1 14 3.54204 499.25 4
-6 -1 13 5158.44 885.86 16
6 -1 -13 5043.71 888.113 7
-6 -1 13 4960.84 879.239 12
6 -1 -13 5437.95 787.434 11
-6 -1 13 5908.25 852.453 18
-6 -1 13 4842.3 903.423 4
6 -1 -12 774.902 554.803 7
-6 -1 12 1312.94 556.328 12
6 -1 -12 1669.68 462.44 11
-6 -1 12 2237.09 558.438 18
-6 -1 12 2265.17 626.153 16
-6 -1 12 1110.34 595.309 4
6 -1 -11 1852.16 666.706 7
-6 -1 11 892.182 460.469 12
6 -1 -11 2500.2 497.775 11
-6 -1 11 2748.75 468.573 10
-6 -1 11 1945.82 529.468 18
6 -1 -11 1514.72 418.11 8
-6 -1 11 4249.33 731.145 16
-6 -1 11 415.227 492.035 4
6 -1 -10 8043.27 982.732 7
-6 -1 10 5539.47 830.912 12
6 -1 -10 6525.19 702.238 11
-6 -1 10 6480.24 697.498 10
6 -1 -10 5535.61 707.464 8
-6 -1 10 7016.37 828.802 18
-6 -1 10 6150.48 837.215 16
-6 -1 10 7909.04 940.222 4
6 -1 -9 5981.76 805.745 7
-6 -1 9 4507.74 678.865 6
-6 -1 9 5221.39 781.149 12
6 -1 -9 5068.81 578.497 11
-6 -1 9 3802.07 614.963 18
-6 -1 9 4859.06 685.371 16
6 -1 -9 3680.2 588.746 8
-6 -1 9 5130.82 776.652 4
-6 -1 8 31734.1 1714.53 6
-6 -1 8 32667.9 1848.64 12
6 -1 -8 37330.4 1531.69 11
-6 -1 8 34154.3 1820.52 18
-6 -1 8 33744.5 1852.22 4
6 -1 -8 31524.7 1699.02 8
-6 -1 8 35740.2 1828.5 16
6 -1 -8 36915.6 1924.46 7
-6 -1 7 28132.3 1325.83 3
-6 -1 7 28714.2 1498.38 6
-6 -1 7 24948.8 1527.53 12
-6 -1 7 28627.2 1604.68 18
-6 -1 7 30131.2 1624.25 4
6 -1 -7 26067.1 1507.36 8
-6 -1 7 27782.1 1570.47 16
6 -1 -7 26758.7 1570.84 7
6 -1 -6 1719.68 461.26 7
-6 -1 6 1593.02 373.951 6
-6 -1 6 1461.33 323.226 3
-6 -1 6 2344.43 544.767 12
-6 -1 6 1532.98 407.837 18
-6 -1 6 1388.1 197.38 1
6 -1 -6 1676.1 467.257 8
-6 -1 6 1090.74 433.389 4
-6 -1 5 6245.63 590.055 6
6 -1 -5 6638.97 530.692 6
-6 -1 5 5946.23 433.98 5
-6 -1 5 4747.81 537.505 3
-6 -1 5 6034.54 692.374 12
-6 -1 5 5107.13 748.077 4
-6 -1 5 6094.19 686.655 18
6 -1 -5 6009.12 696.114 8
6 -1 -5 6478.39 711.014 7
-6 -1 5 5252.92 410.613 1
-6 -1 4 10016.9 622.15 1
-6 -1 4 9453.18 808.568 3
-6 -1 4 9300.43 682.924 6
6 -1 -4 10360 603.652 6
-6 -1 4 10552.5 644.792 5
-6 -1 4 9568.35 835.458 18
6 -1 -4 9820.32 876.857 8
6 -1 -4 10172 813.948 7
-6 -1 3 11691.1 726.059 1
-6 -1 3 12475.3 725.385 6
-6 -1 3 10690.8 844.964 3
6 -1 -3 12912.5 582.64 6
-6 -1 3 13464.2 782.429 5
6 -1 -3 9872.42 531.323 2
6 -1 -3 11707.3 929.02 8
6 -1 -3 12257.2 872.188 7
-6 -1 2 25073.4 1166.33 1
6 -1 -2 23550 1120.12 14
-6 -1 2 24939.6 1035.08 6
6 -1 -2 25463.6 732.968 6
-6 -1 2 24468.8 1309.38 3
6 -1 -2 25049.5 1319.85 13
6 -1 -2 25152.9 1356.09 8
6 -1 -2 25091 1222.89 7
-6 -1 2 26425.5 1101.67 2
-6 -1 1 9026.53 724.651 1
6 -1 -1 9666.29 696.218 14
-6 -1 1 9589 587.974 6
-6 -1 1 9025.84 799.522 3
6 -1 -1 9570.64 805.976 13
6 -1 -1 9326.85 836.572 8
-6 -1 1 9836.33 607.848 2
-6 -1 0 12452.3 892.793 1
6 -1 0 12215.4 804.381 14
-6 -1 0 12051.7 665.654 6
-6 -1 0 11907.2 929.95 3
6 -1 0 12438.3 923.261 13
6 -1 0 11899.5 939.865 8
-6 -1 0 12769.7 693.042 2
6 -1 1 7859.69 662.579 14
-6 -1 -1 8323.47 407.586 14
-6 -1 -1 7131.57 561.629 6
-6 -1 -1 8202.54 750.286 1
6 -1 1 6973.97 736.818 13
-6 -1 -1 8266.18 803.857 3
6 -1 1 8445.1 826.669 5
6 -1 1 8796.98 795.418 8
-6 -1 -1 8117.06 571.177 2
-6 -1 -2 5946.23 506.724 6
6 -1 2 7741.81 688.848 14
-6 -1 -2 8589.94 499.515 14
-6 -1 -2 7394.95 794.813 1
6 -1 2 7694.65 770.663 13
-6 -1 -2 7390.54 778.086 3
6 -1 2 8565.93 799.693 5
6 -1 2 7852.04 771.938 8
-6 -1 -2 7389.22 591.564 2
-6 -1 -3 6013.17 704.418 1
6 -1 3 6192.33 514.599 18
6 -1 3 6523.85 651.846 14
-6 -1 -3 7057.03 518.931 14
6 -1 3 6383.04 722.971 13
6 -1 3 6716.58 765.14 5
-6 -1 -3 5685.12 684.945 3
-6 -1 -3 2902.45 482.572 2
6 -1 3 4726.31 595.077 8
6 -1 3 7069.05 545.486 15
-6 -1 -4 21719.2 1397.41 1
6 -1 4 22446.9 1442.56 13
-6 -1 -4 23332.5 1462.64 3
6 -1 4 22017.6 1462.82 5
6 -1 4 24180.1 1033.1 18
6 -1 4 21602.8 1318.16 8
6 -1 4 24365.1 1039.19 15
6 -1 5 17386.2 805.18 15
-6 -1 -5 16089.2 1269.63 1
6 -1 5 16818.9 1272.04 13
-6 -1 -5 15404.7 1211.53 3
6 -1 5 17698.1 1298.55 5
6 -1 5 17659.5 803.309 18
6 -1 5 16894.4 1156.52 8
6 -1 5 18756.6 817.702 15
6 -1 6 2645.52 607.148 13
-6 -1 -6 3012.77 596.092 3
6 -1 6 3184.44 616.76 5
6 -1 6 2637.41 246.439 18
6 -1 6 3002.59 530.972 8
-6 -1 -6 2561 537.656 1
6 -1 6 2845.1 261.585 15
6 -1 7 2534.89 611.292 13
-6 -1 -7 3851.97 654.164 3
6 -1 7 3209.71 649.43 5
6 -1 7 2073.16 457.731 8
-6 -1 -7 3343.34 630.437 1
-6 -1 -8 11787.9 1186.3 1
6 -1 8 9666.55 1165.68 13
-6 -1 -8 11520.5 1133.98 3
-6 -1 -8 12411.1 1142.03 11
6 -1 8 11978.6 1177.36 5
6 -1 9 4774.81 881.466 13
6 -1 9 4575.27 824.25 5
-6 -1 -9 6027.18 866.803 11
-6 -1 -9 5234.35 781.36 3
-6 -1 -9 6031.1 863.712 1
6 -1 10 2484.82 858.059 13
-6 -1 -10 2097.01 503.973 3
-6 -1 -10 3573.87 702.997 11
-6 -1 -10 3387.52 740.342 1
6 -1 10 2947.82 700.081 5
6 -1 11 966.961 669.926 13
-6 -1 -11 373.748 362.138 3
-6 -1 -11 776.725 518.281 11
-6 -1 -11 240.441 414.266 1
6 -1 11 1247.3 590.23 5
-6 -1 -12 4690.27 915.025 1
6 -1 12 4166.53 859.717 5
6 0 -15 547.01 428.88 11
-6 0 15 1356.95 632.19 16
6 0 -14 5558.78 1014.43 7
-6 0 14 6226.62 1000.97 12
6 0 -14 5517.19 819.954 11
-6 0 14 5388.72 833.265 18
-6 0 14 6377.32 1016.87 16
-6 0 14 6575.35 1083.55 4
6 0 -13 964.754 612.199 7
-6 0 13 762.215 511.183 12
6 0 -13 692.414 352.939 11
-6 0 13 941.29 493.648 10
-6 0 13 1378.2 465.514 18
-6 0 13 -271.37 459.953 16
-6 0 13 1103.67 556.611 4
6 0 -12 2456.14 646.941 7
-6 0 12 3337.66 726.978 12
6 0 -12 1655.76 471.763 11
-6 0 12 2057.35 572.008 10
-6 0 12 2467.53 579.936 18
-6 0 12 2248.05 658.583 16
-6 0 12 3468.29 799.333 4
6 0 -11 1392.51 575.453 7
-6 0 11 359.462 351.422 12
6 0 -11 787.181 415.891 11
-6 0 11 382.09 362.027 10
-6 0 11 355.35 423.922 18
-6 0 11 -330.537 396.111 16
-6 0 11 -42.598 462.609 4
6 0 -10 1808.93 594.38 7
-6 0 10 1141.65 411.856 18
-6 0 10 1334.65 467.685 12
6 0 -10 1836.92 434.236 11
-6 0 10 790.961 386.151 10
6 0 -10 1868.5 405.934 8
-6 0 10 1233.8 541.575 16
-6 0 10 1877.37 577.708 4
6 0 -9 3570.67 659.775 7
-6 0 9 4688.2 711.488 12
6 0 -9 3937.26 520.97 11
-6 0 9 4518.25 601.16 10
-6 0 9 3604.56 594.566 18
6 0 -9 3860.14 534.131 8
-6 0 9 3344.05 676.313 16
-6 0 9 4452.54 745.551 4
-6 0 8 97838.8 2749.76 3
-6 0 8 86446.3 3413.21 12
6 0 -8 100696 3123.84 11
-6 0 8 92796.6 3485.44 18
-6 0 8 96617.8 3596.57 4
-6 0 8 99541.3 2764.92 9
6 0 -8 96951.9 3251.32 8
-6 0 8 94175.5 3555.58 16
6 0 -8 93762.1 3549.42 7
-6 0 7 42372.3 2036.62 4
-6 0 7 44044.9 1506.17 3
6 0 -7 48590.4 1518.01 3
-6 0 7 42158.8 1157.88 5
6 0 -7 48385.9 1630.09 11
6 0 -7 45179.5 1850.56 8
-6 0 7 47933.4 1491.68 9
-6 0 7 43826.1 2012.13 18
-6 0 7 45378.1 2074.82 16
6 0 -7 43295.3 2036.82 7
6 0 -6 18636.8 1139.49 2
-6 0 6 22970.7 1374.72 18
-6 0 6 23872.5 1084.69 3
-6 0 6 21432.9 837.198 1
6 0 -6 23802 1063.46 3
6 0 -6 25934.5 1033.89 11
-6 0 6 25498 904.492 5
-6 0 6 22253 1361.98 4
6 0 -6 22942.4 1276.83 8
-6 0 6 21986.2 1395.87 16
6 0 -6 22208.8 1412.57 7
6 0 -5 2174.97 491.882 7
-6 0 5 2550.64 291.31 1
6 0 -5 1925.03 312.498 6
6 0 -5 2531.21 255.782 11
-6 0 5 1499.53 290.835 3
-6 0 5 2346.55 266.994 5
6 0 -5 2018.49 359.252 3
6 0 -5 2087.58 360.677 2
-6 0 5 2010.18 411.952 18
6 0 -5 2265.87 432.191 8
-6 0 5 2109.67 491.06 4
6 0 -4 11306.6 663.202 6
-6 0 4 11322.4 776.846 3
-6 0 4 11903.3 679.075 1
6 0 -4 11590.3 475.883 11
-6 0 4 12585.9 703.503 5
-6 0 4 10318 876.199 4
-6 0 4 11435.7 901.207 18
6 0 -4 10610 880.344 7
6 0 -4 8389.64 619.673 2
6 0 -4 11001.8 872.084 8
6 0 -3 1020.88 190.93 6
6 0 -3 574.961 166.796 2
-6 0 3 1073.18 315.588 3
-6 0 3 1085.79 255.695 5
-6 0 3 996.004 250.832 1
6 0 -3 531.283 240.029 5
-6 0 3 1362.89 397.115 18
6 0 -3 672.129 348.263 8
6 0 -3 525.317 308.879 7
6 0 -2 13179 636.097 14
6 0 -2 13102.1 531.471 6
6 0 -2 13256.2 948.62 13
-6 0 2 12368.7 859.886 3
-6 0 2 14939.9 868.831 1
6 0 -2 13419.1 838.152 5
-6 0 2 13487.7 931.333 18
6 0 -2 13269.8 965.312 8
6 0 -2 12329.4 534.247 2
6 0 -2 13199.7 936.396 7
6 0 -1 79952.1 2219.74 14
6 0 -1 76299.1 2722.18 13
-6 0 1 76552.1 2688.64 3
-6 0 1 82932.1 2677.54 1
6 0 -1 77178.6 2627.63 5
-6 0 1 72347.4 2638.57 18
6 0 -1 74976.2 2753.75 8
6 0 0 4623.84 381.106 14
6 0 0 4317.87 568.786 13
-6 0 0 5263.07 583.828 1
-6 0 0 4891.59 594.579 3
6 0 0 5122.21 597.853 5
-6 0 0 4045.47 499.75 18
6 0 0 3730.04 544.404 8
-6 0 -1 10209.5 573.455 14
-6 0 -1 9091.37 303.05 6
6 0 1 8615.52 824.669 13
-6 0 -1 10580.2 858.847 3
-6 0 -1 10133.7 806.29 1
6 0 1 8858.71 763.322 5
6 0 1 9091.58 802.403 8
-6 0 -1 9954.86 748.35 18
6 0 2 10406.4 737.812 15
-6 0 -2 12007.6 702.033 14
-6 0 -2 11775.2 489.287 6
6 0 2 10689.6 882.304 13
-6 0 -2 9867.77 856.96 3
-6 0 -2 10473 893.532 1
-6 0 -2 10915 649.279 11
6 0 2 10080.2 883.604 5
6 0 2 11839.4 909.817 8
-6 0 -3 2681.35 504.536 1
6 0 3 2556.84 373.768 15
6 0 3 1525.44 478.902 13
-6 0 -3 2531.72 265.827 6
-6 0 -3 3006.43 391.847 11
-6 0 -3 2366.87 517.042 3
6 0 3 2044.64 467.764 5
6 0 3 1925.73 475.576 8
6 0 4 8057.71 630.061 15
-6 0 -4 9898.94 619.38 6
6 0 4 9776.24 914.616 13
-6 0 -4 10617.7 936.952 1
-6 0 -4 8809.66 879.183 3
-6 0 -4 10123.7 759.986 11
6 0 4 9473.65 913.001 5
6 0 4 10139.7 688.005 18
6 0 4 7803.97 792.926 8
6 0 5 3872.7 674.037 13
-6 0 -5 3685.11 524.605 11
-6 0 -5 3937.78 602.393 3
6 0 5 3365.16 577.95 5
6 0 5 4636.02 450.337 18
-6 0 -5 4425.35 644.772 1
6 0 5 4242.48 622.296 8
6 0 5 4262.7 431.683 15
6 0 6 319.808 183.775 15
6 0 6 564.409 419.062 13
-6 0 -6 332.41 333.102 11
-6 0 -6 527.238 295.089 3
-6 0 -6 523.309 391.379 1
6 0 6 83.3287 317.391 5
6 0 6 280.795 162.557 18
6 0 7 720.265 201.849 15
6 0 7 413.277 418.951 13
-6 0 -7 1405.32 472.675 1
-6 0 -7 1006.9 357.741 11
-6 0 -7 1343.2 410.207 3
6 0 7 1285.37 504.094 5
6 0 7 1078.61 221.491 18
-6 0 -8 8146.3 947.57 1
6 0 8 6091.46 980.264 13
-6 0 -8 8395.78 925.421 3
-6 0 -8 7775.42 876.813 11
6 0 8 7994.94 961.507 5
-6 0 -9 612.825 438.696 1
6 0 9 654.348 485.446 13
-6 0 -9 -60.8524 342.681 11
-6 0 -9 542.998 359.508 3
6 0 9 -464.711 422.77 5
-6 0 -10 2714.01 624.872 1
6 0 10 1572.81 634.058 13
-6 0 -10 1231.59 484.194 11
-6 0 -10 3062.85 642.094 3
6 0 10 1299.98 553.519 5
-6 0 -11 -833.453 536.912 1
6 0 11 -1108.82 617.424 13
-6 0 -11 97.6553 334.455 11
-6 0 -11 69.3858 326.684 3
6 0 11 -77.3505 434.935 5
-6 0 -12 218.133 506.677 7
-6 0 -12 267.739 420.032 11
6 0 12 -878.077 577.514 5
-6 0 -12 524.35 534.59 1
-6 0 -13 891.185 556.246 7
6 0 13 -385.571 483.631 5
-6 1 15 6658.35 1023.93 12
6 1 -15 6686.18 993.989 11
-6 1 15 7511.09 1101.27 10
-6 1 15 6714.7 989.081 18
6 1 -14 -314.848 476.491 7
-6 1 14 781.282 607.44 16
-6 1 14 -6.34658 447.151 12
6 1 -14 359.736 405.672 11
-6 1 14 -427.72 461.947 10
6 1 -14 623.905 584.142 2
-6 1 14 187.33 399.371 18
6 1 -13 4729.98 865.549 7
-6 1 13 4185.58 839.409 16
-6 1 13 5777.07 899.008 12
6 1 -13 3730.62 706.839 11
-6 1 13 2872.62 717.092 10
6 1 -13 3113.22 820.938 2
-6 1 13 4589.96 802.456 18
-6 1 13 4804.9 925.852 4
-6 1 12 1569.48 529.861 15
6 1 -12 344.663 427.269 7
-6 1 12 1024.39 449.558 18
-6 1 12 1146.35 491.083 12
6 1 -12 773.321 443.133 11
-6 1 12 874.269 458.303 10
6 1 -12 881.963 552.86 2
-6 1 12 627.24 453.74 16
-6 1 12 2184.75 698.207 4
-6 1 11 2124.13 570.192 15
6 1 -11 2187.93 640.464 7
-6 1 11 2100.9 597.834 18
-6 1 11 2041.44 577.198 12
6 1 -11 1584.33 451.375 11
-6 1 11 3319.49 695.002 10
6 1 -11 2732.04 707.297 2
-6 1 11 2367.3 697.468 16
-6 1 11 2526.83 701.993 4
-6 1 10 7367.56 889.412 15
6 1 -10 5927.52 859.379 7
-6 1 10 6694.05 860.905 12
6 1 -10 6700.54 767.87 11
-6 1 10 7126.24 851.024 10
6 1 -10 5850.12 858.718 2
-6 1 10 6931.33 865.158 18
-6 1 10 5111.85 866.33 16
-6 1 10 5673.82 879.127 4
-6 1 9 4125.14 646.095 15
6 1 -9 5267.24 797.128 7
-6 1 9 5612.83 776.74 12
6 1 -9 4248.39 605.304 11
-6 1 9 4405.28 716.919 10
6 1 -9 3580.15 650.36 2
-6 1 9 4273.34 694.254 18
6 1 -9 4571.68 498.091 8
-6 1 9 4919.9 848.432 16
-6 1 9 4398.67 750.693 4
6 1 -8 35220.1 1532.46 8
-6 1 8 31768.9 1077.1 3
-6 1 8 32032.3 1899.04 4
-6 1 8 33819.6 1857.74 18
-6 1 8 36587.6 1942.57 16
6 1 -8 32489.8 1828.96 7
-6 1 8 33952.5 1829.3 15
6 1 -8 28963.8 1708.54 2
-6 1 7 28342 1100.32 3
-6 1 7 26198.4 1592.4 18
-6 1 7 32286.2 1243.92 5
-6 1 7 27571.8 1653.95 4
6 1 -7 28887.6 1381.03 8
-6 1 7 29066.5 1309.78 1
-6 1 7 28733.8 1673.5 16
6 1 -7 25873.3 1595.35 7
-6 1 7 24250.6 1544.28 15
6 1 -7 27358.5 1504.27 2
6 1 -6 1085.66 370.44 7
-6 1 6 1438.87 412.178 15
6 1 -6 1378.2 188.778 5
-6 1 6 1388.28 244.784 3
6 1 -6 1968.6 419.632 2
-6 1 6 1622.5 287.329 5
-6 1 6 1248.72 394.073 18
6 1 -6 1428.14 333.993 8
-6 1 6 947.958 402.683 4
-6 1 6 2001.09 526.327 16
6 1 -5 5799.91 709.653 7
-6 1 5 6929.63 756.941 15
-6 1 5 7114.9 564.076 3
6 1 -5 6037.05 445.344 5
-6 1 5 7478.34 589.078 5
6 1 -5 6592.33 642.369 8
-6 1 5 6073.07 703.221 18
-6 1 5 5750.51 669.899 4
-6 1 5 5973.92 727.511 16
6 1 -5 4583.96 582.154 2
6 1 -4 10006.4 798.697 8
-6 1 4 11358.5 746.992 3
6 1 -4 10314.6 646.616 5
-6 1 4 10362.8 884.796 18
-6 1 4 10403.9 894.162 4
6 1 -4 8256.58 682.148 2
6 1 -4 9981.5 892.722 7
-6 1 4 10210.6 865.387 15
6 1 -3 12973.2 757.857 6
-6 1 3 12419.3 842.422 3
6 1 -3 11474.3 752.999 5
-6 1 3 11560.6 914.081 18
6 1 -3 11787.5 880.062 8
6 1 -3 11806.5 756.488 2
6 1 -3 11806.2 968.358 7
-6 1 3 12718.3 943.895 15
6 1 -2 26587.6 1125.25 6
6 1 -2 24767.4 1326.9 13
-6 1 2 27385.4 1326.78 3
6 1 -2 25779.4 1242.75 5
-6 1 2 25018.1 1341.03 18
6 1 -2 24406.3 1342.5 8
6 1 -2 27516.8 1129.57 2
-6 1 2 24527.6 1330.54 15
6 1 -1 8865.16 793.253 15
6 1 -1 8824.73 778.189 13
-6 1 1 9743.66 795.735 3
6 1 -1 9870.56 765.899 5
-6 1 1 9012.85 751.163 18
6 1 -1 9286.25 807.732 8
6 1 -1 9309.69 584.561 2
6 1 0 11800.7 881.274 15
6 1 0 11117.6 861.25 13
-6 1 0 12198.6 922.432 3
-6 1 0 12061.6 505.032 11
6 1 0 13105.7 714.969 11
6 1 0 12119.5 894.01 5
-6 1 0 12152.4 815.599 18
6 1 0 13223.6 971.003 8
6 1 0 7145.31 652.714 2
6 1 1 8083.23 742.416 15
-6 1 -1 7839.84 653.411 18
6 1 1 7693.15 743.233 13
-6 1 -1 7667.47 781.934 3
-6 1 -1 8609.5 493.028 11
6 1 1 9215.7 626.835 11
6 1 1 7710.11 759.971 5
6 1 1 8026.86 798.743 8
6 1 2 7600.55 705.021 15
6 1 2 8023.55 779.046 13
-6 1 -2 8653.25 831.695 3
-6 1 -2 8062.24 539.043 11
6 1 2 7375.35 755.84 5
-6 1 -2 8060.71 616.052 18
6 1 2 7967.15 798.449 8
-6 1 -2 6558.22 326.629 2
6 1 3 6070.44 631.392 15
-6 1 -3 6490.29 407.124 6
6 1 3 5897.74 709.164 13
-6 1 -3 6922.51 564.988 11
-6 1 -3 6157.97 520.53 18
6 1 3 5781.85 715.039 5
-6 1 -3 6328.46 741.442 3
-6 1 -3 4581.39 417.227 2
-6 1 -4 22420 980.398 6
6 1 4 21495.6 1388.59 13
-6 1 -4 21051.8 1394.96 3
-6 1 -4 23761.3 1483.62 1
-6 1 -4 23215.8 1206.67 11
6 1 4 22246.2 1419.4 5
6 1 4 22161.5 1230.77 18
-6 1 -4 20833.3 1018.72 2
6 1 4 22293.9 1222.94 15
6 1 5 17604.4 1285.94 13
-6 1 -5 17589.3 1299.83 3
-6 1 -5 17700.7 1301.24 1
-6 1 -5 17128.9 1096.8 11
6 1 5 16196.8 1274.86 5
6 1 5 17710 1317 10
6 1 5 17074.9 1066.46 18
-6 1 -5 17062 978.037 2
6 1 5 18060.9 1072.21 15
-6 1 -6 3104.18 629.193 1
6 1 6 2732.18 422.312 15
6 1 6 3680.46 653.59 13
-6 1 -6 3509.44 546.709 11
-6 1 -6 2780.04 575.591 3
6 1 6 2402.88 631.368 5
6 1 6 2561.24 624.689 10
-6 1 -6 3684.71 483.186 2
6 1 6 3352.43 482.129 18
6 1 7 3152.65 451.698 15
6 1 7 3258.01 671.663 13
-6 1 -7 3176.84 571.862 11
-6 1 -7 3788.4 712.197 1
-6 1 -7 2980.88 636.629 3
6 1 7 2896.02 658.047 10
6 1 7 3011.71 679.927 5
-6 1 -7 2423.93 503.74 2
6 1 7 3184.29 454.883 18
6 1 8 10216.8 1222.03 13
-6 1 -8 10840.2 1123.54 3
-6 1 -8 13410 1255 1
-6 1 -8 11034 1055.06 11
6 1 8 12091.9 1185.95 5
6 1 8 12012.3 1204.68 10
-6 1 -8 10470.1 1008.29 2
6 1 9 4355.38 913.126 13
-6 1 -9 4275.74 752.465 11
-6 1 -9 4772.94 793.379 3
6 1 9 5475.3 890.772 10
6 1 9 4248.36 755.172 5
-6 1 -9 6771.69 818.547 2
-6 1 -9 5148.38 817.203 1
6 1 10 2059.15 740.694 13
-6 1 -10 3541.64 669.198 11
-6 1 -10 2530.19 539.506 3
6 1 10 2372.56 696.536 10
6 1 10 2485.47 640.984 5
-6 1 -10 2220.6 667.569 1
6 1 11 762.225 491.993 13
-6 1 -11 -429.797 500.597 11
-6 1 -11 1840.89 674.001 1
-6 1 -11 -119.1 463.275 3
6 1 11 1055.24 586.557 10
6 1 11 831.015 555.246 5
-6 1 -11 932.18 476.56 9
-6 1 -12 2461.81 690.101 1
-6 1 -12 2145.14 594 11
-6 1 -12 2167.83 533.899 3
6 1 12 3925.6 868.416 10
6 1 12 3758.35 853.579 5
-6 1 -12 3041.13 740.577 9
-6 2 14 1437.17 621.028 15
6 2 -14 1238.35 562.212 7
-6 2 14 938.77 460.191 12
6 2 -14 1024.55 575.47 11
-6 2 14 1594.97 620.776 18
-6 2 14 2023.74 676.698 10
-6 2 13 2096.44 658.892 15
6 2 -13 1866.04 673.062 7
-6 2 13 710.97 475.418 12
6 2 -13 1909.31 600.467 11
-6 2 13 1835.04 637.21 10
6 2 -13 1790.09 760.018 2
-6 2 13 2511.34 709.513 18
-6 2 13 1391.4 623.015 16
-6 2 13 3672.51 915.526 4
6 2 -12 1590.77 634.052 7
-6 2 12 1951.39 632.15 15
6 2 -12 1572.76 507.806 15
-6 2 12 1362.07 497.599 12
6 2 -12 2455.42 646.011 11
6 2 -12 1373.34 550.396 2
-6 2 12 1731.75 617.992 10
-6 2 12 1489.91 539.369 18
-6 2 12 1354.59 623.515 16
-6 2 12 1977.44 747.343 4
6 2 -11 834.41 492.313 7
-6 2 11 222.579 410.118 15
6 2 -11 719.632 397.506 15
-6 2 11 2043.76 649.371 18
-6 2 11 47.8457 395.398 12
6 2 -11 636.891 447.994 2
-6 2 11 301.341 412.196 10
-6 2 11 573.875 524.062 16
-6 2 11 745.519 515.388 4
6 2 -10 2607.35 636.414 7
-6 2 10 2832.63 657.996 15
6 2 -10 3250.53 655.949 15
-6 2 10 2934.07 635.868 12
6 2 -10 1905.09 608.687 2
-6 2 10 2408.5 629.038 10
-6 2 10 3391.51 694.632 18
-6 2 10 3424.39 767.329 16
-6 2 10 3652.86 768.37 4
6 2 -9 24788.1 1589.99 15
-6 2 9 26709.5 1787.04 10
-6 2 9 25116.1 1722.17 18
-6 2 9 26232.4 1771.41 4
-6 2 9 26300 1805.23 16
6 2 -9 27021.9 1759.27 7
6 2 -9 25432.3 1710.67 2
-6 2 9 26560.2 1762.97 15
6 2 -8 539.965 373.781 7
-6 2 8 665.413 425.588 15
6 2 -8 1012.52 442.659 15
6 2 -8 1327.78 464.734 2
-6 2 8 712.705 459.508 10
-6 2 8 1485.65 525.804 18
-6 2 8 579.161 459.868 16
-6 2 8 456.89 425.962 4
6 2 -7 4621.29 709.517 7
-6 2 7 5798.09 784.157 15
6 2 -7 5007.4 721.687 15
-6 2 7 6223.86 519.378 3
6 2 -7 6224.63 763.545 2
-6 2 7 5281.91 823.238 16
-6 2 7 5004.85 768.766 18
-6 2 7 4597.59 694.066 4
6 2 -6 13971.3 1149.21 15
-6 2 6 14835.9 1206.58 16
-6 2 6 15792 904.116 3
6 2 -6 16132.4 806.264 5
-6 2 6 16022 636.732 9
-6 2 6 13358.8 1161.38 18
-6 2 6 15282.7 1173.06 4
6 2 -6 16414.8 1173.3 2
6 2 -6 14255.6 1158.69 7
-6 2 6 14958 1196.48 15
-6 2 5 2242.48 541.059 15
6 2 -5 1037.07 435.131 15
6 2 -5 1666.37 258.202 14
6 2 -5 1605.52 463.069 2
-6 2 5 2014.7 298.661 11
6 2 -5 1906.16 314.844 5
-6 2 5 2248.29 368.519 3
-6 2 5 2203.88 264.598 9
6 2 -5 2408.97 341.397 1
-6 2 5 2791.54 546.621 18
-6 2 5 1208.83 427.491 4
-6 2 5 1961.03 508.409 16
6 2 -5 2344.05 519.961 7
-6 2 4 1365.32 439.162 15
6 2 -4 1634.17 453.329 15
6 2 -4 1174.46 163.778 14
6 2 -4 768.891 337.954 2
-6 2 4 1371.09 233.475 11
6 2 -4 1120.48 287.698 5
-6 2 4 988.424 301.572 3
-6 2 4 1086.06 227.737 9
-6 2 4 1593.24 449.653 18
-6 2 4 1047.69 382.103 4
-6 2 4 993.048 380.264 16
6 2 -3 10111.1 949.778 15
-6 2 3 13158.1 904.412 3
6 2 -3 11482.2 823.781 5
-6 2 3 12136.4 622.812 11
-6 2 3 12117.8 773.792 9
-6 2 3 10714.6 940.334 18
-6 2 3 12259.7 936.339 4
6 2 -3 11775.8 899.944 2
-6 2 3 11161.9 938.603 16
-6 2 3 10634.7 919.561 15
-6 2 2 2155.6 411.882 15
6 2 -2 1924.8 464.021 15
6 2 -2 2302.59 401.452 2
6 2 -2 1459.89 371.255 13
6 2 -2 2028.43 400.631 5
-6 2 2 2153.36 402.403 9
-6 2 2 2402.29 459.214 3
-6 2 2 2021.88 421.148 18
-6 2 2 1819 412.638 4
6 2 -1 18266.8 1238.7 15
6 2 -1 18432.7 1106.98 13
-6 2 1 20870 1264.51 3
6 2 -1 18446.2 1155.04 5
-6 2 1 18863.1 1117.53 9
-6 2 1 18600.4 1157.74 18
6 2 -1 18783.6 1136.17 2
-6 2 1 17637.5 1134.79 15
-6 2 1 19987.7 980.76 7
6 2 0 18855.6 1261.25 15
6 2 0 19307 1142.27 13
-6 2 0 20363.9 1166.95 18
-6 2 0 19339.7 1259.24 3
6 2 0 20332.5 1240.09 5
-6 2 0 20301.3 1202.54 9
-6 2 0 17422.9 782.527 2
6 2 0 19275.4 1173.55 2
-6 2 0 20093.1 946.162 7
-6 2 0 20704.3 1174.13 15
6 2 1 14518.7 1099.53 15
6 2 1 15273.1 1032.83 13
-6 2 -1 14863.4 1115.18 3
6 2 1 14769.9 1091.04 5
-6 2 -1 12604.2 656.661 2
6 2 1 15060.7 967.745 2
-6 2 -1 14657.6 957.476 18
-6 2 -1 17041 809.118 7
-6 2 -1 14711.4 958.994 15
6 2 2 12361.7 953.451 13
6 2 2 12805.1 1044.65 18
-6 2 -2 12810.2 1083.21 3
6 2 2 12932.4 1069.73 5
6 2 2 11535.1 1002.79 10
-6 2 -2 13654.7 851.417 18
-6 2 -2 11444.5 635.128 2
-6 2 -2 14037 716.699 7
-6 2 -2 14007.2 869.515 15
6 2 2 12758.4 1011.78 15
6 2 3 11962.2 978.94 13
-6 2 -3 11017.8 1037.67 3
6 2 3 11803.2 1072.4 5
6 2 3 11665.4 1050.97 10
-6 2 -3 11941.8 1050.86 9
-6 2 -3 12591.8 788.699 18
6 2 3 12148.9 1025.45 18
-6 2 -3 10300.9 680.258 2
6 2 3 12873.2 1015.59 15
6 2 4 2966.11 553.407 15
6 2 4 3032.21 552.194 13
-6 2 -4 3396 427.511 2
6 2 4 2847.21 580.234 5
6 2 4 3687.51 644.55 10
-6 2 -4 2859.62 576.965 9
-6 2 -4 3603.43 402.621 18
-6 2 -4 2696.19 585.082 3
6 2 4 2782.87 555.122 18
6 2 5 990.689 415.838 15
6 2 5 2009.22 505.187 13
-6 2 -5 2435.6 431.796 2
-6 2 -5 784.208 318.126 11
6 2 5 1649.75 546.247 5
6 2 5 2600.37 629.985 10
-6 2 -5 1223.65 498.839 9
-6 2 -5 1448.01 471.106 3
6 2 5 1067.97 382.917 18
6 2 6 -13.226 284.097 15
6 2 6 700.867 457.047 13
-6 2 -6 169.04 310.563 11
-6 2 -6 590.933 376.83 2
6 2 6 -461.821 427.314 5
6 2 6 349.142 470.344 10
-6 2 -6 -567.849 414.595 9
-6 2 -6 38.4576 315.769 3
6 2 6 570.322 363.782 18
6 2 7 1861.87 419.195 15
6 2 7 2434.96 620.085 13
-6 2 -7 2980.25 581.825 11
-6 2 -7 1572.96 542.241 2
6 2 7 1134.34 521.053 5
6 2 7 2964.2 737.165 10
-6 2 -7 1996.1 593.244 3
-6 2 -7 2319.17 598.534 9
-6 2 -7 1078.31 395.443 1
6 2 7 2738.84 531.304 18
-6 2 -8 5407.61 888.166 1
6 2 8 5923.51 883.491 13
-6 2 -8 5847.95 823.831 11
6 2 8 6011.03 929.648 5
6 2 8 6025.1 931.529 10
-6 2 -8 5335.75 844.378 3
-6 2 -8 6590.22 954.779 9
6 2 8 5730.94 718.176 18
6 2 8 6134.8 732.553 17
6 2 8 6061.34 724.623 15
-6 2 -9 5740.91 923.76 1
6 2 9 5000.49 827.763 13
-6 2 -9 6021.91 871.714 11
6 2 9 4693.93 894.913 5
6 2 9 4147.33 830.668 10
-6 2 -9 4828.91 844.43 3
-6 2 -9 5654.59 896.771 9
6 2 10 1497.17 676.451 13
-6 2 -10 1647.96 545.983 11
-6 2 -10 1782.98 623.281 1
6 2 10 3369.21 792.555 5
6 2 10 2635.19 798.796 10
-6 2 -10 2230.11 679.635 3
-6 2 -10 2769.57 690.565 9
-6 2 -11 4329.79 848.252 1
-6 2 -11 4275.04 824.076 11
-6 2 -11 4486.77 851.868 3
6 2 11 3079.68 837.682 5
-6 2 -12 6545.19 1029.53 3
-6 2 -12 6375.97 1052.25 1
6 3 -13 168.731 448.665 7
6 3 -12 275.468 475.061 7
-6 3 12 472.154 499.64 15
6 3 -12 -624.943 587.795 2
-6 3 12 284.287 543.342 10
-6 3 12 -531.41 436.861 18
-6 3 12 -428.926 592.3 16
-6 3 12 144.443 567.146 4
6 3 -11 1852.63 589.018 7
-6 3 11 1667.2 617.565 15
6 3 -11 1566.59 531.38 15
-6 3 11 2955.03 637.576 12
6 3 -11 2387.05 731.695 2
-6 3 11 1403.63 659.083 10
-6 3 11 2312.18 683.352 18
-6 3 11 1548.47 662.973 16
-6 3 11 2340.01 707.28 4
-6 3 10 -56.9845 404.118 15
6 3 -10 9.29757 344.55 15
6 3 -10 606.748 564.466 2
-6 3 10 241.201 447.743 10
-6 3 10 208.601 415.551 18
-6 3 10 713.107 603.831 16
-6 3 10 -105.215 493.958 4
6 3 -10 302.133 460.513 7
-6 3 9 2101.39 642.839 15
6 3 -9 2161.74 559.737 15
-6 3 9 1728.92 593.165 18
6 3 -9 2279.84 650.639 2
-6 3 9 2001.25 653.736 10
-6 3 9 2578.8 751.625 16
-6 3 9 2102.55 610.769 4
6 3 -9 2398.85 654.934 7
6 3 -8 8759.35 985.591 15
-6 3 8 9743.17 1125.65 18
-6 3 8 9576.15 1136.9 10
-6 3 8 9464.85 1103 16
6 3 -8 9617.14 1090.6 2
6 3 -8 9830.07 1058.9 7
-6 3 8 8221.46 988.451 4
-6 3 8 10236.5 1129.55 15
6 3 -7 17661.7 1380.93 15
-6 3 7 19744.8 1137.04 3
-6 3 7 18826.4 1515.13 10
-6 3 7 17999.4 1477.26 18
-6 3 7 18911.2 1410.63 4
-6 3 7 19743.5 1495.94 16
6 3 -7 18985.3 1452.18 2
6 3 -7 18535.9 1411.19 7
-6 3 7 18349.4 1491.62 15
6 3 -6 8273.72 941.02 15
-6 3 6 7094.2 915.491 15
6 3 -6 9522.38 744.211 5
-6 3 6 8897.76 991.301 10
-6 3 6 9693 934.679 4
-6 3 6 8747.6 1029.7 18
6 3 -6 10149.5 1025.96 2
-6 3 6 8210.61 944.152 16
-6 3 5 2039.79 593.442 15
6 3 -5 1197.03 466.28 15
6 3 -5 1889.55 515.013 2
6 3 -5 1633.86 371.56 5
-6 3 5 2996.81 414.176 9
-6 3 5 1973.38 489.761 18
-6 3 5 1906.63 557.183 16
-6 3 5 1640.41 468.766 4
6 3 -4 8256.36 943.725 15
6 3 -4 9834.8 837.376 5
-6 3 4 9645.26 712.921 9
-6 3 4 9387.18 850 4
-6 3 4 7523.1 896.883 18
6 3 -4 8964.42 976.959 2
-6 3 4 9329.91 939.875 16
-6 3 4 8167.25 925.857 15
6 3 -3 20157.8 1456.89 15
6 3 -3 20889 1184.96 13
6 3 -3 21423.6 1306.93 5
-6 3 3 23137.6 1224.36 9
-6 3 3 19400 1399.04 18
-6 3 3 22249.1 1277.44 4
6 3 -3 22710.5 1489.62 2
-6 3 3 21158.1 1342.43 16
-6 3 3 21267.9 1442.37 15
-6 3 2 598 345.246 15
6 3 -2 -27.1018 335.148 15
6 3 -2 808.147 354.987 2
6 3 -2 684.269 338.316 13
6 3 -2 597.05 340.945 5
-6 3 2 233.446 271.274 9
-6 3 2 347.021 363.89 18
-6 3 2 295.819 296.985 4
-6 3 2 639.986 334.796 16
6 3 -1 40835.9 1758 13
6 3 -1 40518.3 2019.82 5
-6 3 1 43405.7 1960.66 9
-6 3 1 40105.7 1982.54 18
-6 3 1 42539.7 1729.32 2
-6 3 1 40831.1 1787.44 4
6 3 -1 39635.7 2115.9 18
6 3 -1 44787.9 2056.91 2
-6 3 1 40315.8 1833.85 16
-6 3 1 40683.6 1983.84 15
6 3 -1 39599.5 2100.24 15
6 3 0 12212.6 891.235 13
6 3 0 11877.8 1072.77 5
-6 3 0 13140.3 1066.15 9
-6 3 0 11867.8 966.539 18
6 3 0 13053.7 1170.2 18
-6 3 0 11870.7 807.276 2
6 3 0 14036.4 1080.78 2
-6 3 0 12790 929.881 16
-6 3 0 13031.8 1021.2 15
6 3 0 11905.6 1099.15 15
-6 3 -1 4391.7 574.258 15
6 3 1 5272.42 700.087 2
6 3 1 3632.25 657.958 15
-6 3 -1 3744.81 464.832 2
6 3 1 4114.92 546.919 13
6 3 1 4131.33 670.986 5
6 3 1 4496.54 681.19 10
-6 3 -1 3750.97 623.566 9
-6 3 -1 4496.29 586.959 18
6 3 1 4941.78 764.255 18
6 3 2 6740.63 772.64 2
6 3 2 4995 772.514 15
6 3 2 5601.34 671.908 13
6 3 2 4327.35 729.582 5
6 3 2 4592.06 700.594 10
-6 3 -2 5735.56 782.269 9
6 3 2 5383.32 790.85 18
-6 3 -2 6153.28 636.114 2
-6 3 -2 5772.91 628.04 18
-6 3 -2 5886.67 640.399 15
-6 3 -3 401.709 237.564 15
6 3 3 309.971 351.175 15
-6 3 -3 1232.03 338.64 2
6 3 3 1144.08 398.436 13
6 3 3 659.919 401.996 5
6 3 3 941.879 525.803 10
-6 3 -3 1152.53 340.798 18
-6 3 -3 418.559 389.81 9
6 3 3 580.69 393.923 18
6 3 4 -435.312 378.892 15
6 3 4 -191.024 321.118 13
-6 3 -4 -67.0055 253.931 2
6 3 4 704.943 427.212 5
6 3 4 -90.3889 395.888 10
-6 3 -4 16.6146 376.852 9
6 3 4 75.1648 347.408 18
6 3 5 2503.82 600.375 15
6 3 5 1527.66 493.273 13
6 3 5 1257.99 529.996 5
6 3 5 1723.97 572.308 10
-6 3 -5 2180.71 575.214 9
6 3 5 1096.11 433.846 18
6 3 6 6051.43 820.105 15
6 3 6 5271.49 789.779 13
6 3 6 4938.87 825.917 5
6 3 6 5055.61 887.758 10
-6 3 -6 4865.91 838.803 9
-6 3 -6 4222.73 769.677 3
6 3 6 4882.26 768.013 18
6 3 7 4402.49 736.012 15
6 3 7 4549.84 730.372 13
6 3 7 3222.48 749.964 5
6 3 7 4115.81 832.957 10
-6 3 -7 4668.71 881.553 9
-6 3 -7 4286.14 841.234 3
6 3 7 3888.51 743.034 18
6 3 7 4979.51 789.211 17
6 3 8 4771.13 752.599 15
6 3 8 5241.87 877.831 13
-6 3 -8 4717.47 744.706 11
6 3 8 5750.09 1010.67 5
6 3 8 4543.97 934.756 10
-6 3 -8 3890.95 773.023 9
-6 3 -8 3799.09 806.721 3
6 3 8 5388.74 804.818 18
6 3 8 4707.7 802.102 17
6 3 9 -164.398 330.954 15
-6 3 -9 202.763 402.825 11
6 3 9 -510.617 501.234 5
6 3 9 507.548 624.15 10
-6 3 -9 295.121 433.581 3
-6 3 -9 123.7 482.662 9
6 3 9 -253.518 382.534 18
6 3 9 627.602 441.919 17
-6 3 -10 927.687 516.535 11
-6 3 -10 -583.202 568.433 1
-6 3 -10 625.944 511.952 3
-6 4 11 536.576 596.324 4
-6 4 10 1736.96 684.228 4
6 4 -10 620.061 463.256 15
6 4 -10 1909.16 626.364 2
6 4 -10 822.207 456.679 18
-6 4 10 1430.04 675.215 16
6 4 -10 936.737 518.591 7
-6 4 9 1770.21 642.735 15
6 4 -9 1224.41 518.726 15
6 4 -9 215.985 529.515 2
-6 4 9 116.659 491.253 10
-6 4 9 778.734 574.039 18
6 4 -9 533.148 377.498 18
-6 4 9 1128.63 665.846 16
-6 4 9 649.14 483.615 4
-6 4 8 4954.59 881.208 15
6 4 -8 7002.94 976.863 15
6 4 -8 6444.84 1052.93 2
-6 4 8 7263.63 1069.24 10
-6 4 8 6840.29 1006.55 18
6 4 -8 7334.15 976.384 18
-6 4 8 7131.82 1013.21 16
-6 4 8 5767.13 847.49 4
-6 4 7 1875.04 629.124 15
6 4 -7 1900.99 607.653 15
6 4 -7 1652.85 709.087 2
-6 4 7 3027.21 738.386 10
-6 4 7 2009.59 621.756 18
6 4 -7 2139.13 592.392 18
-6 4 7 2162.7 635.466 16
-6 4 7 1734.82 547.224 4
-6 4 6 4488.14 831.874 15
6 4 -6 3423.99 730.182 15
6 4 -6 3406.11 745.871 2
-6 4 6 4253.82 836.755 10
-6 4 6 3676.84 765.013 18
6 4 -6 3185.89 726.041 18
-6 4 6 4865.34 823.517 16
-6 4 6 3387.11 641.515 4
-6 4 5 1506.96 589.897 15
6 4 -5 314.465 443.452 15
6 4 -5 143.739 384.185 2
-6 4 5 658.984 504.273 10
6 4 -5 1060.52 376.002 5
-6 4 5 1340.21 577.945 18
6 4 -5 541.014 337.869 18
-6 4 5 998.079 485.171 16
-6 4 4 566.603 418.535 15
6 4 -4 236.57 401.582 15
6 4 -4 1216.61 490.212 2
-6 4 4 1219.74 509.024 10
6 4 -4 1501.7 457.867 5
6 4 -4 1155.78 506.798 18
-6 4 4 2567.56 546.157 9
-6 4 4 806.466 413.254 18
-6 4 4 676.84 426.249 16
-6 4 3 816.813 487.689 15
6 4 -3 1560.47 578.95 15
6 4 -3 1406.32 547.463 2
6 4 -3 1658.58 515.599 5
-6 4 3 2139.58 505.184 9
-6 4 3 1535.59 534.05 18
6 4 -3 1141.62 500.583 18
-6 4 3 1231.14 412.465 16
6 4 -2 19542.6 1436.42 5
-6 4 2 21010.4 1376.37 9
-6 4 2 19599.5 1495.54 18
6 4 -2 17999.1 1535.24 18
6 4 -2 20972.3 1566.05 2
-6 4 2 21237.8 1320.43 16
-6 4 2 19468.2 1464.52 15
6 4 -2 17699.8 1479.88 15
-6 4 1 6063.68 816.183 15
6 4 -1 6339.87 925.106 15
6 4 -1 6444.9 914.697 2
6 4 -1 5293.38 792.472 5
-6 4 1 7493.75 847.998 9
-6 4 1 6790.04 793.923 2
-6 4 1 6071.83 810.706 18
6 4 -1 6502.97 918.654 18
-6 4 0 3161.4 607.858 15
-6 4 0 3101.25 541.675 2
6 4 0 2093 578.36 15
6 4 0 3254.27 714.451 2
6 4 0 2838.06 653.144 5
6 4 0 3092.88 596.575 10
-6 4 0 2457.38 576.308 9
-6 4 0 2853.73 640.978 18
6 4 0 2369.99 638.073 18
-6 4 -1 5114.65 713.393 15
6 4 1 3621.17 738.692 2
6 4 1 3418.3 712.356 15
-6 4 -1 4922.03 642.279 2
6 4 1 4141.55 728.663 5
6 4 1 4932.66 747.697 10
-6 4 -1 4076.75 720.785 9
6 4 1 5136.85 859.47 18
-6 4 -1 4208.55 659.169 18
-6 4 -2 2427.6 507.146 15
6 4 2 1416.08 532.666 2
6 4 2 2863.44 719.772 15
6 4 2 1654.29 583.972 5
6 4 2 2672.66 624.566 10
-6 4 -2 3219.38 705.254 9
-6 4 -2 2888.18 578.385 18
6 4 2 1926.04 637.78 18
6 4 3 7247.08 1011.95 2
6 4 3 6358.18 956.954 15
6 4 3 6321.03 980.033 5
6 4 3 6693.89 940.49 10
-6 4 -3 6920.47 961.458 9
6 4 3 6674.11 972.714 18
6 4 4 3528 710.171 15
6 4 4 3752.62 823.11 5
6 4 4 3591.16 764.801 10
-6 4 -4 4598.09 844.538 9
6 4 4 4381.35 864.803 18
6 4 5 706.141 439.67 15
6 4 5 153.138 466.301 5
6 4 5 660.087 483.782 10
-6 4 -5 860.908 523.726 9
6 4 5 284.51 468.73 18
6 4 6 1514.98 571.584 15
6 4 6 1608.19 645.568 5
6 4 6 2006.85 681.906 10
-6 4 -6 762.666 552.607 9
6 4 6 829.378 515.417 18
6 4 6 1082.68 507.224 17
6 4 7 333.26 411.705 15
6 4 7 769.887 584.111 5
6 4 7 1124.21 534.422 10
-6 4 -7 -236.193 499.267 9
6 4 7 940.085 485.103 18
6 4 7 1229.72 535.071 17
6 4 8 2878.45 725.398 15
6 4 8 1775.22 588.657 18
6 4 8 1499.47 602.797 17
6 4 9 3830.92 825.524 15
6 4 9 3327.18 742.899 18
6 4 9 2912.94 736.833 17
-6 5 9 3102.45 848.972 5
6 5 -8 587.51 559.902 15
6 5 -8 752.06 550.374 18
-6 5 8 591.343 583.58 16
6 5 -7 671.932 420.567 15
6 5 -7 646.252 507.745 18
-6 5 6 1595.21 706.015 15
6 5 -6 858.455 511.222 15
6 5 -6 993.755 672.226 2
-6 5 6 704.315 564.006 10
-6 5 6 754.929 478.433 18
6 5 -6 1100.32 562.448 18
-6 5 5 3006.95 722.269 15
6 5 -5 3582.08 803.221 15
6 5 -5 3335.18 821.781 2
-6 5 5 3215.84 820.949 10
-6 5 5 2711.31 712.448 18
6 5 -5 3818.8 818.194 18
-6 5 4 6195.07 994.617 15
6 5 -4 5930.76 990.865 15
6 5 -4 6777.68 1094.06 2
6 5 -4 5503.28 774.677 5
-6 5 4 5528.45 953.867 10
-6 5 4 5517.29 959.798 18
6 5 -4 5547.07 956.117 18
-6 5 3 279.044 474.197 15
6 5 -3 843.977 505.557 15
6 5 -3 1302.6 634.309 2
6 5 -3 866.494 521.17 5
-6 5 3 963.604 489.878 10
-6 5 3 298.24 471.61 18
6 5 -3 470.461 534.188 18
-6 5 2 2321.33 653.156 15
6 5 -2 2978.16 739.946 15
6 5 -2 1616.09 700.107 2
-6 5 2 1354.89 527.522 10
6 5 -2 3121.24 747.121 5
-6 5 2 1769.17 597.508 18
6 5 -2 2301.94 689.333 18
-6 5 1 678.594 448.578 15
6 5 -1 238.175 428.944 15
6 5 -1 465.439 463.691 2
-6 5 1 1171.13 505.917 10
6 5 -1 935.181 533.194 5
-6 5 1 1103.3 509.873 9
-6 5 1 960.335 479.389 18
6 5 -1 521.474 562.338 18
6 5 0 11916.6 1324.66 5
-6 5 0 12007.3 1192.79 10
-6 5 0 12830 1277.42 9
-6 5 0 11814.8 1199.81 18
6 5 0 11761.8 1369.15 18
6 5 0 12007.5 1418.8 2
-6 5 0 14254.9 1314.07 15
6 5 0 10717.4 1294 15
6 5 1 9888.03 1281.12 15
6 5 1 8498.68 1173.65 5
-6 5 -1 9974.21 1164.39 9
-6 5 -1 8663.05 1024.09 18
6 5 1 12570.4 1370.1 2
6 5 1 9235.4 1239.56 18
-6 5 -1 9520.21 1047.33 15
6 5 2 3767.59 918.985 2
6 5 2 4456.52 924.268 15
6 5 2 3324.34 842.39 5
6 5 2 2949.62 693.571 10
-6 5 -2 3980.83 802.249 9
6 5 2 3546.97 861.352 18
6 5 3 -199.014 482.66 2
6 5 3 242.061 479.307 15
6 5 3 -717.861 541.433 5
6 5 3 439.776 458.543 10
-6 5 -3 -312.676 521.285 9
6 5 3 282.324 444.208 18
6 5 4 1590.25 703.699 10
-6 5 -4 2613.88 754.228 9
6 5 5 1321.81 644.536 10
-7 -5 5 4444.4 888.627 6
7 -5 -4 -550.671 500.449 14
-7 -5 4 351.563 462.352 6
7 -5 -4 -436.135 502.01 8
7 -5 -3 1152.03 668.215 14
-7 -5 3 1064.56 565.251 6
-7 -5 3 194.158 512.71 1
7 -5 -3 839.023 560.577 8
7 -5 -2 -59.7361 477.918 14
-7 -5 2 548.748 471.895 6
-7 -5 2 1778.64 670.125 1
7 -5 -2 263.231 448.611 8
7 -5 -1 1448.66 595.902 14
-7 -5 1 1309.69 585.132 6
-7 -5 1 2055.46 745.419 1
7 -5 -1 1566.83 546.058 8
7 -5 0 1302.65 602.304 14
-7 -5 0 892.579 474.986 6
-7 -5 0 1661.57 686.116 1
7 -5 0 1063.06 486.862 8
7 -5 1 8795.74 1210.47 14
-7 -5 -1 7382.11 1056.54 6
-7 -5 -1 8258.18 1270.19 1
7 -5 1 10421 1209.59 8
-7 -5 -2 -922.899 561.321 6
-7 -5 -2 1405.39 856.881 1
7 -5 2 761.591 494.336 8
-7 -5 -3 1149.13 546.069 6
7 -5 3 1969.65 667.852 8
7 -4 -11 -27.8008 404.505 7
7 -4 -10 721.251 483.847 7
-7 -4 10 -228.048 437.14 12
7 -4 -9 903.408 494.453 7
-7 -4 9 518.219 409.767 6
-7 -4 9 1243.52 517.583 12
7 -4 -9 1446.9 613.12 8
-7 -4 8 450.874 509.22 6
-7 -4 8 718.05 500.197 12
7 -4 -8 1303.79 633.577 8
-7 -4 7 1646.4 618.457 6
-7 -4 7 2221.67 625.193 12
7 -4 -7 2267.06 677.665 8
7 -4 -6 1673.3 588.59 6
-7 -4 6 3606.57 681.23 6
-7 -4 6 3554.88 668.96 12
7 -4 -6 3144.18 679.447 8
7 -4 -5 1851.21 543.517 14
7 -4 -5 2532.88 574.902 6
7 -4 -5 2586.64 528.512 13
-7 -4 5 2415.16 604.689 6
-7 -4 5 2721.86 607.09 12
-7 -4 5 2603.9 647.47 1
-7 -4 5 3945.85 617.152 4
7 -4 -5 2011.25 658.726 8
7 -4 -4 7955.07 838.022 6
7 -4 -4 7639.39 1026.3 14
7 -4 -4 9013.86 876.804 13
-7 -4 4 6786.81 929.673 6
-7 -4 4 6558.47 785.775 12
-7 -4 4 7361.39 941.109 1
-7 -4 4 9241.69 888.317 4
7 -4 -4 6860.58 984.574 8
7 -4 -3 2838.31 675.765 14
7 -4 -3 2823.6 540.55 6
7 -4 -3 3395.58 546.312 13
-7 -4 3 3323.74 668.277 6
-7 -4 3 2920.38 727.21 3
-7 -4 3 3663.1 722.478 1
7 -4 -3 3230.26 716.333 8
7 -4 -2 3686.36 739.137 14
-7 -4 2 3908.16 720.517 6
7 -4 -2 3960.09 572.562 13
-7 -4 2 3605.21 800.482 3
-7 -4 2 4470.24 792.793 1
7 -4 -2 2751.39 632.404 8
7 -4 -1 9935.82 1115.23 14
-7 -4 1 10203.5 1174.56 3
-7 -4 1 9265.81 1019.89 6
7 -4 -1 10981.8 938.387 13
7 -4 -1 9665.48 1096.63 8
-7 -4 1 9652.18 1098.35 1
7 -4 0 5394.21 859.895 14
-7 -4 0 3813.24 699.454 6
7 -4 0 4815.78 644.848 13
-7 -4 0 3692 790.874 3
-7 -4 0 5205.61 833.116 1
7 -4 0 6043.25 891.321 8
7 -4 1 2136.51 579.059 14
-7 -4 -1 1432.07 502.067 6
7 -4 1 1868.25 438.2 13
-7 -4 -1 2493.76 706.795 3
-7 -4 -1 2540.82 676.126 1
7 -4 1 1915.87 563.006 8
7 -4 2 3153.81 697.482 14
-7 -4 -2 3697.23 702.606 6
7 -4 2 4748.92 697.475 13
-7 -4 -2 4142.04 833.828 3
-7 -4 -2 3698.98 782.211 1
7 -4 2 4121.29 738.467 8
7 -4 3 1628.18 559.765 14
-7 -4 -3 1615.58 574.834 6
7 -4 3 2203.64 563.679 13
-7 -4 -3 1800.68 612.094 3
7 -4 3 997.342 496.916 8
-7 -4 -3 2153.89 656.266 1
7 -4 4 118.842 477.79 14
-7 -4 -4 -13.4883 408.181 6
7 -4 4 298.469 344.791 13
-7 -4 -4 438.697 520.911 3
7 -4 4 -181.214 396.37 8
-7 -4 -4 432.402 537.279 1
7 -4 5 985.448 546.317 14
-7 -4 -5 1267.97 512.828 6
7 -4 5 565.363 449.303 13
-7 -4 -5 1659.35 572.622 3
7 -4 5 254.454 337.721 8
-7 -4 -5 349.287 464.528 1
7 -4 6 1391.33 662.269 14
-7 -4 -6 1426.62 573.228 6
7 -4 6 599.428 471.412 13
-7 -4 -6 55.7828 430.383 3
-7 -4 -6 1990.25 684.867 1
-7 -4 -7 -59.1504 418.645 6
-7 -4 -7 180.063 526.412 3
-7 -4 -8 873.986 618.668 6
-7 -4 -8 647.865 539.553 3
7 -3 -13 1792.09 629.064 8
7 -3 -12 611.126 472.42 7
7 -3 -12 828.439 497.195 8
-7 -3 12 1476.32 631.408 4
7 -3 -11 2327.85 662.802 7
-7 -3 11 2012.61 666.702 6
-7 -3 11 1191.15 600.433 12
7 -3 -11 2018.14 700.114 8
-7 -3 11 3143.84 678.829 4
7 -3 -10 312.12 439.418 7
-7 -3 10 181.359 432.21 6
-7 -3 10 855.846 473.038 12
7 -3 -10 96.6718 400.261 8
-7 -3 10 272.456 448.523 4
7 -3 -9 -97.3668 362.259 7
-7 -3 9 144.432 412.074 6
-7 -3 9 -35.0976 394.084 12
7 -3 -9 -126.448 390.774 8
-7 -3 9 551.928 437.208 16
-7 -3 9 -276.454 370.175 4
7 -3 -8 4361.11 719.897 7
-7 -3 8 4135.74 759.902 6
-7 -3 8 3679.96 717.163 12
7 -3 -8 5808.56 908.273 8
-7 -3 8 4070.57 663.554 16
-7 -3 8 4992.89 746.081 4
-7 -3 7 6040.92 828.922 6
-7 -3 7 7682 945.986 12
7 -3 -7 6388.41 904.244 8
-7 -3 7 7485.57 832.962 4
7 -3 -7 8294.07 906.409 7
7 -3 -6 2663.41 529.903 7
-7 -3 6 2088.34 578.111 6
-7 -3 6 1380.91 464.444 12
-7 -3 6 656.648 315.508 1
-7 -3 6 1077.22 441.951 4
7 -3 -6 1765.21 515.071 8
7 -3 -5 2879.97 522.938 7
-7 -3 5 3653.71 620.86 6
-7 -3 5 2222.8 577.558 3
-7 -3 5 3740.7 609.69 12
-7 -3 5 5258.76 683.455 1
-7 -3 5 5391.64 774.484 4
7 -3 -5 2420.41 593.546 8
7 -3 -4 2682.1 449.604 7
7 -3 -4 2808.64 627.852 14
7 -3 -4 2917.7 468.019 6
7 -3 -4 3913.99 615.399 13
-7 -3 4 2654.84 557.488 6
-7 -3 4 3889.16 716.521 3
-7 -3 4 4267.91 617.18 12
-7 -3 4 3633.1 601.341 1
7 -3 -4 3711.25 674.26 8
7 -3 -3 7964.02 662.312 6
-7 -3 3 7498.53 961.716 3
-7 -3 3 7787.27 829.868 6
7 -3 -3 6606.01 818.55 14
7 -3 -3 6542 755.69 13
-7 -3 3 7020.13 740.59 12
-7 -3 3 8681.89 866.352 1
7 -3 -3 6568.22 891.758 8
7 -3 -3 8299.96 685.479 7
7 -3 -2 6665.13 583.656 6
7 -3 -2 6015.01 808.284 14
7 -3 -2 7767.86 787.541 13
-7 -3 2 5717.55 703.181 6
-7 -3 2 6036.76 670.952 12
-7 -3 2 6200.1 899.037 3
7 -3 -2 6551.54 878.865 8
-7 -3 2 8373.24 882.403 1
7 -3 -2 5849.43 544.052 7
7 -3 -1 9456.52 961.716 14
-7 -3 1 8690.19 882.6 6
7 -3 -1 10249.2 698.407 6
-7 -3 1 10458.5 1074.62 3
7 -3 -1 9978.45 928.538 13
-7 -3 1 10081.4 801.313 12
7 -3 -1 10470.7 1063.68 8
-7 -3 1 9474.81 966.625 1
7 -3 0 13874.3 1202.8 14
-7 -3 0 13896.9 1139.14 6
-7 -3 0 13205.3 1260.91 3
7 -3 0 16903 899.999 6
7 -3 0 16642.7 1182.41 13
-7 -3 0 16167.1 955.871 12
7 -3 0 15382.4 1274.74 8
-7 -3 0 15287.4 1262.42 1
-7 -3 -1 4336.13 724.086 1
7 -3 1 3317.88 630.805 14
7 -3 1 3982.34 433.736 6
-7 -3 -1 3155.34 588.828 6
7 -3 1 3969.59 645.715 13
-7 -3 -1 3825.26 717.605 3
7 -3 1 4099.65 703.995 8
7 -3 2 10776.3 1087.77 14
-7 -3 -2 11298.7 1008.55 6
-7 -3 -2 12053.2 1175.31 3
7 -3 2 12060 1058.5 13
7 -3 2 11910.1 1081.67 8
-7 -3 -2 10893.1 1145.68 1
-7 -3 -3 1539.88 609.31 1
7 -3 3 2243.52 548.355 14
-7 -3 -3 1364.04 465.453 6
7 -3 3 1262.99 417.258 13
-7 -3 -3 1032 393.593 3
7 -3 3 2504.95 555.973 8
-7 -3 -4 6945.13 936.938 1
7 -3 4 7280.4 972.527 14
-7 -3 -4 5832.96 791.793 6
7 -3 4 7277.06 877.184 13
-7 -3 -4 6099.59 880.017 3
7 -3 4 6530.49 833.291 8
-7 -3 -5 2923.78 709.569 1
7 -3 5 3268.87 700.615 14
-7 -3 -5 3698.28 676.812 6
7 -3 5 3529.29 673.673 13
-7 -3 -5 3738.52 761.918 3
7 -3 5 3944.98 644.918 8
7 -3 6 601.423 467.183 14
-7 -3 -6 0.91403 434.002 1
-7 -3 -6 355.16 355.83 6
7 -3 6 -565.241 387.911 13
-7 -3 -6 547.777 458.545 3
7 -3 6 475.555 397.46 8
-7 -3 -7 741.538 503.975 1
7 -3 7 1521.09 632.177 13
-7 -3 -7 1858.99 635.62 3
-7 -3 -8 608.119 500.394 1
7 -3 8 1215.07 662.584 13
-7 -3 -8 1662.27 614.028 3
7 -3 9 2371.71 861.668 13
-7 -3 -9 4506.49 845.486 3
-7 -2 14 2854.37 758.646 4
7 -2 -13 3311.94 824.436 7
-7 -2 13 2008.61 658.756 16
-7 -2 13 3411.51 829.621 4
7 -2 -12 1697.81 590.299 7
-7 -2 12 1153.81 628.973 6
-7 -2 12 1192.52 604.139 12
7 -2 -12 1083.05 495.851 8
-7 -2 12 1145.63 454.964 16
-7 -2 12 1359.21 559.728 4
7 -2 -11 476.912 482.906 7
-7 -2 11 1815.53 548.826 6
-7 -2 11 2304.86 678.842 12
7 -2 -11 2761.2 645.586 8
-7 -2 11 2977.88 648.831 16
-7 -2 11 929.153 477.93 4
7 -2 -10 42.687 399.252 7
-7 -2 10 -345.321 443.263 6
-7 -2 10 -633.306 519.164 12
7 -2 -10 560.201 410.665 8
-7 -2 10 355.129 393.026 16
-7 -2 10 483.225 540.482 4
7 -2 -9 519.872 427.84 7
-7 -2 9 677.106 463.836 6
-7 -2 9 758.79 522.3 12
7 -2 -9 350.701 369.383 8
-7 -2 9 535.753 387.153 16
-7 -2 9 742.182 442.773 4
7 -2 -8 2035.26 574.564 7
-7 -2 8 2165.35 553.115 6
-7 -2 8 2444.23 564.85 12
7 -2 -8 3249.08 669.749 8
-7 -2 8 2476.77 529.953 16
-7 -2 8 1245.47 445.345 4
-7 -2 7 12870.7 1055.22 3
-7 -2 7 12267.3 1044.29 6
-7 -2 7 11991.3 1097.67 12
-7 -2 7 9953.03 1065.69 4
7 -2 -7 11998.6 1120.21 8
7 -2 -7 12268.9 1090.19 7
-7 -2 6 10832.8 985.662 3
-7 -2 6 10475.4 916.248 6
-7 -2 6 9354.72 947.419 12
-7 -2 6 13063.6 1083.41 4
7 -2 -6 9956.44 1038.51 8
-7 -2 6 12012.8 802.815 1
7 -2 -6 10513.5 962.11 7
7 -2 -5 419.112 292.146 7
-7 -2 5 402.097 302.019 6
-7 -2 5 795.64 337.504 3
-7 -2 5 907.856 401.931 12
-7 -2 5 910.865 303.045 1
-7 -2 5 385.605 408.933 4
7 -2 -5 359.245 354.206 8
-7 -2 4 3820.82 497.675 1
7 -2 -4 3776.89 548.049 7
7 -2 -4 2849.12 397.305 2
-7 -2 4 3864.98 523.929 6
-7 -2 4 3058.06 608.773 3
-7 -2 4 3336.43 557.295 12
7 -2 -4 2739.1 579.743 8
7 -2 -3 5140.49 518.616 6
7 -2 -3 8784.85 831.509 14
-7 -2 3 7870.81 928.031 3
-7 -2 3 7774.48 703.222 6
7 -2 -3 7905.27 808.26 13
-7 -2 3 7491.46 763.525 12
7 -2 -3 7928.96 872.733 8
7 -2 -3 8568.71 550.918 2
7 -2 -3 7752.91 705.528 7
-7 -2 3 7093.36 679.161 1
7 -2 -2 4831.58 363.486 6
-7 -2 2 5245.81 581.096 6
7 -2 -2 4409.39 600.039 14
-7 -2 2 4874.23 581.346 1
7 -2 -2 4934.58 666.105 13
-7 -2 2 5013.46 717.661 3
7 -2 -2 4255.71 635.626 8
7 -2 -2 3314.73 340.419 2
7 -2 -2 5254.78 549.888 7
-7 -2 1 4888.93 543.555 6
7 -2 -1 5051.6 318.38 6
7 -2 -1 4985.58 627.678 14
7 -2 -1 5192.88 656.444 13
-7 -2 1 4355.97 567.55 1
-7 -2 1 4303.01 650.062 3
7 -2 -1 3786.04 625.902 8
-7 -2 0 10255.9 945.546 1
7 -2 0 11414.8 945.636 14
-7 -2 0 11203.7 831.115 6
7 -2 0 11994.6 496.607 6
-7 -2 0 12203.4 1061.48 3
7 -2 0 10477.5 944.868 13
7 -2 0 10939.3 1016.17 8
-7 -2 -1 17858.3 1280.79 1
7 -2 1 17114.4 1196.97 14
-7 -2 -1 17174.2 1070.95 6
-7 -2 -1 18151.5 1326.86 3
7 -2 1 20166.9 714.34 6
7 -2 1 18447.9 1256.69 13
7 -2 1 17902.3 1311.13 8
-7 -2 -2 7801.26 871.416 1
7 -2 2 8149.74 841.03 14
-7 -2 -2 8179.06 731.318 6
7 -2 2 8402.58 462.447 6
7 -2 2 7666.76 863.832 13
-7 -2 -2 6397.94 834.579 3
7 -2 2 8568.96 904.64 8
7 -2 3 2265.67 510.862 14
-7 -2 -3 2485.98 445.131 6
7 -2 3 2684.72 621.976 13
-7 -2 -3 2711.33 599.156 3
-7 -2 -3 2866.33 606.226 1
7 -2 3 2532.02 538.784 8
7 -2 4 1542.87 462.121 14
-7 -2 -4 1339.46 374.653 6
7 -2 4 1444.11 496.549 13
-7 -2 -4 1528.28 471.964 3
-7 -2 -4 1096.97 471.207 1
7 -2 4 2227.05 522.869 8
7 -2 5 555.844 399.257 14
7 -2 5 771.15 442.294 13
-7 -2 -5 -75.7294 349.425 3
-7 -2 -5 305.449 415.181 1
7 -2 5 291.471 356.347 8
7 -2 6 8435.3 1014.89 13
-7 -2 -6 6935.3 921.432 3
-7 -2 -6 7623.49 1015.79 1
7 -2 6 6883.1 831.584 8
7 -2 7 3350.8 662.74 13
-7 -2 -7 3589.16 662.799 3
-7 -2 -7 3102.19 746.549 1
7 -2 7 3082.84 577.384 8
7 -2 8 7683.78 1030.98 13
-7 -2 -8 5559.66 937.681 1
-7 -2 -8 6511.78 902.395 3
7 -2 9 480.228 503.381 13
-7 -2 -9 31.1951 464.891 1
-7 -2 -9 260.282 379.037 3
7 -2 10 1481.08 727.419 13
-7 -2 -10 339.594 559.758 1
-7 -2 -10 980.812 561.768 3
-7 -1 15 1714.33 619.949 16
-7 -1 14 5159.84 848.313 18
-7 -1 14 4619.57 869.979 16
-7 -1 14 4587.42 1001.7 4
7 -1 -13 1579.92 646.462 7
-7 -1 13 2055.05 714.285 12
-7 -1 13 2485.19 634.165 18
-7 -1 13 2048.48 650.607 16
-7 -1 13 -149.052 529.128 4
7 -1 -12 4740.01 862.994 7
-7 -1 12 2687.03 729.188 12
-7 -1 12 3973.56 751.523 18
-7 -1 12 3437.25 745.726 16
-7 -1 12 3667.2 825.014 4
7 -1 -11 3236.84 791.984 7
-7 -1 11 1691.19 565.138 12
7 -1 -11 3422.49 558.511 11
-7 -1 11 3718.58 575.795 10
-7 -1 11 2550.1 574.869 18
7 -1 -11 2658.87 563.559 8
-7 -1 11 2610.08 655.169 16
-7 -1 11 3019.21 763.804 4
7 -1 -10 2491.54 625.977 7
-7 -1 10 2430 626.775 12
7 -1 -10 4136.69 548.985 11
-7 -1 10 3933.97 654.849 10
-7 -1 10 3346.78 654.51 18
7 -1 -10 4369.83 660.017 8
-7 -1 10 3427.06 703.747 16
-7 -1 10 4493.17 788.353 4
-7 -1 9 11151 1019.82 6
-7 -1 9 10247.2 1076.74 12
-7 -1 9 11309 1074 18
-7 -1 9 8994.91 1086.05 4
7 -1 -9 9645.45 954.832 8
-7 -1 9 11817.3 1082.76 16
7 -1 -9 9995.57 1059.94 7
-7 -1 8 19005.3 1107.08 3
-7 -1 8 18541.2 1273.97 6
-7 -1 8 16730.5 1339.67 12
-7 -1 8 19271.6 1397.58 18
-7 -1 8 16516.4 1329.78 4
7 -1 -8 18048.2 1301.85 8
-7 -1 8 19134.6 1393.15 16
7 -1 -8 18218 1364.4 7
-7 -1 7 23017.8 1227.8 3
-7 -1 7 21822.7 1280.68 6
-7 -1 7 19867 1399.44 12
-7 -1 7 20679.9 1419.13 18
7 -1 -7 21969.6 1400.46 8
-7 -1 7 18912.1 1451.73 4
-7 -1 7 18166.5 717.368 1
7 -1 -7 20059.6 1402.32 7
-7 -1 6 15747.1 1014.6 3
-7 -1 6 14523.7 974.38 6
-7 -1 6 13020.5 1106.01 12
-7 -1 6 14289.2 721.323 5
-7 -1 6 14211.4 1141.72 18
-7 -1 6 15469.6 1210.27 4
7 -1 -6 15281.8 1155.02 8
7 -1 -6 14778.2 1153.64 7
-7 -1 6 12337.3 661.476 1
7 -1 -5 1781.15 466.739 7
7 -1 -5 1689.66 276.01 6
-7 -1 5 1505.05 340.716 6
-7 -1 5 1764.3 276.182 1
-7 -1 5 1844.28 397.414 3
-7 -1 5 1435.41 257.778 5
-7 -1 5 971.883 398.143 18
-7 -1 5 998.831 418.488 4
7 -1 -5 1774.63 476.86 8
-7 -1 4 7079.17 570.805 1
7 -1 -4 7915.32 490.647 6
-7 -1 4 6079.43 713.155 3
-7 -1 4 6868.46 581.749 6
-7 -1 4 7891.18 809.215 18
7 -1 -4 4699.97 448.395 2
7 -1 -4 8040.3 830.857 8
7 -1 -4 7915.8 756.606 7
7 -1 -3 1363.1 168.246 2
7 -1 -3 2036.14 197.977 6
7 -1 -3 2186.66 376.942 14
-7 -1 3 1467.12 280.498 6
-7 -1 3 1805.91 406.627 3
-7 -1 3 2106.07 345.633 1
7 -1 -3 1867.01 496.272 8
7 -1 -3 2088.75 460.008 7
-7 -1 2 7160.42 656.943 1
7 -1 -2 7065.21 612.071 14
-7 -1 2 7186.85 515.675 6
-7 -1 2 7011.18 750.4 3
7 -1 -2 6609.85 744.019 13
7 -1 -2 6480.42 764.908 8
7 -1 -2 6199.59 653.206 7
-7 -1 2 6043.06 522.357 2
-7 -1 1 16223.5 1056.49 1
7 -1 -1 15409.3 926.614 14
-7 -1 1 16288.5 795.689 6
-7 -1 1 15826.1 1125.05 3
7 -1 -1 14501.9 1095.9 13
7 -1 -1 15758.1 1169.21 8
-7 -1 1 15319 814.491 2
-7 -1 0 3588.82 513.494 1
-7 -1 0 3602.81 357.561 6
7 -1 0 3108.57 446.365 14
7 -1 0 3239.64 571.074 13
-7 -1 0 2708.66 350.275 2
-7 -1 0 2830.91 559.248 3
7 -1 0 3059.09 544.684 8
7 -1 1 8113.57 688.131 14
-7 -1 -1 7744.8 397.756 14
-7 -1 -1 7645.76 535.917 6
-7 -1 -1 7234.98 764.83 1
-7 -1 -1 7609.49 823.07 3
7 -1 1 7314.49 796.873 13
7 -1 1 6656.29 799.008 5
7 -1 1 7994.96 830.676 8
-7 -1 -1 8109.12 568.961 2
-7 -1 -2 6602.06 761.216 1
7 -1 2 7032.01 669.715 14
-7 -1 -2 5564.12 546.687 6
-7 -1 -2 7951.53 487.63 14
7 -1 2 8308.15 862.078 13
-7 -1 -2 6477.91 786.868 3
7 -1 2 6925.72 806.873 5
7 -1 2 7848.18 819.289 8
-7 -1 -2 6731.69 558.859 2
7 -1 3 9861.11 842.082 14
-7 -1 -3 7512.08 652.133 6
-7 -1 -3 10861.8 660.461 14
-7 -1 -3 10181.5 977.926 1
7 -1 3 11204.4 1027.46 13
-7 -1 -3 9082.01 955.922 3
7 -1 3 9429.43 948.837 5
7 -1 3 9632.96 888.558 8
-7 -1 -4 806.064 399.125 1
7 -1 4 996.987 462.258 13
-7 -1 -4 856.101 395.838 3
7 -1 4 452.999 403.483 5
7 -1 4 868.509 376.972 8
7 -1 5 14431.8 795.082 15
-7 -1 -5 12783 1177.26 1
7 -1 5 13306.8 1242.67 13
-7 -1 -5 13804 1186 3
7 -1 5 13104.4 1199.44 5
7 -1 5 13582 1123.05 8
7 -1 6 3102.26 687.851 13
-7 -1 -6 3353.46 663.687 3
7 -1 6 2467.38 627.907 5
7 -1 6 3558.4 618.255 8
-7 -1 -6 2518.47 623.835 1
7 -1 7 3946 783.135 13
-7 -1 -7 4099.18 707.018 3
7 -1 7 4994.6 802.12 5
7 -1 7 3724.78 693.773 8
-7 -1 -7 4603.78 792.621 1
7 -1 8 5758.02 996.665 13
-7 -1 -8 5797.09 848.465 3
7 -1 8 7626.47 999.954 5
-7 -1 -8 6883.84 959.285 1
7 -1 9 2895.44 772.109 13
-7 -1 -9 2433.58 600.592 3
-7 -1 -9 3726.14 873.03 1
7 -1 9 2790.67 725.481 5
7 -1 10 1148.32 692.939 13
-7 -1 -10 247.006 408.811 3
-7 -1 -10 1183.26 593.323 1
7 -1 10 488.819 529.24 5
-7 -1 -11 6221.07 954.328 3
-7 -1 -11 4889.6 922.378 1
7 -1 11 5557.17 999.682 5
-7 0 14 -141.683 392.852 18
-7 0 14 1096.77 510.427 12
7 0 -14 -555.866 458.371 2
-7 0 14 -212.458 548.609 16
7 0 -13 8812.59 1171.03 7
-7 0 13 9418.37 1227.79 12
7 0 -13 10008.3 1038.91 11
-7 0 13 9270.08 1077.76 10
7 0 -13 4738.71 877.997 2
-7 0 13 10733.2 1146.57 18
-7 0 13 8186.58 1150.52 16
-7 0 13 9058.55 1233.69 4
7 0 -12 4198 844.909 7
-7 0 12 3636.53 741.971 12
7 0 -12 4539.46 660.388 11
-7 0 12 5815.2 813.46 10
-7 0 12 5174.96 818.086 18
-7 0 12 4253.19 861.999 16
-7 0 12 5480.85 959.278 4
7 0 -11 406.652 521.625 7
-7 0 11 173.238 433.725 12
7 0 -11 379.971 277.372 11
-7 0 11 -565.973 367.667 10
-7 0 11 -381.647 417.725 18
-7 0 11 112.736 415.54 16
-7 0 11 -40.4468 440.221 4
7 0 -10 2131.71 516.567 7
-7 0 10 1407.32 568.225 12
7 0 -10 1817.16 402.17 11
-7 0 10 2306.96 540.086 10
-7 0 10 1665.21 531.175 18
7 0 -10 2428.16 498.953 8
-7 0 10 2575.54 702.671 16
-7 0 10 1488.21 543.555 4
7 0 -9 3307.6 698.732 7
-7 0 9 3809.02 706.56 12
7 0 -9 5698.02 594.158 11
7 0 -9 2921.52 499.203 2
-7 0 9 4261.3 674.755 18
7 0 -9 4999.05 639.41 8
-7 0 9 3827.68 733.373 16
-7 0 9 4585.66 785.781 4
-7 0 8 53343.6 2456.18 4
-7 0 8 52106 1809.92 3
-7 0 8 48678 2375.98 12
7 0 -8 54766.7 1923.1 11
-7 0 8 49378.3 2390.18 18
7 0 -8 49794 2200.41 8
-7 0 8 50914 2473.9 16
7 0 -8 46027.8 2346.73 7
7 0 -7 7162.38 832.206 7
-7 0 7 7642.81 418.883 1
-7 0 7 7957.51 621.567 3
7 0 -7 9049.03 597.397 11
-7 0 7 6463.38 801.171 18
7 0 -7 6704.63 766.604 8
-7 0 7 6374.67 858.992 4
-7 0 7 7535.73 847.542 16
7 0 -7 6871.34 668.209 2
-7 0 6 16291.8 969.271 3
-7 0 6 18372.3 812.567 1
7 0 -6 18590 788.238 11
-7 0 6 18809 846.257 5
-7 0 6 17116.9 1241.35 18
-7 0 6 14315.9 1226.72 4
7 0 -6 16472.2 1150.15 8
7 0 -6 16154.8 1259.48 7
7 0 -6 12008.8 891.524 2
7 0 -5 5208.86 700.934 7
7 0 -5 6599.11 544.844 6
-7 0 5 5614.34 574.83 3
-7 0 5 5411.81 470.285 1
7 0 -5 5629.91 329.525 11
-7 0 5 6630.39 523.372 5
-7 0 5 5862.93 739.422 18
7 0 -5 5725.2 679.38 8
-7 0 5 6269.48 805.893 4
7 0 -5 4227.9 482.93 2
7 0 -4 5006.35 413.212 6
-7 0 4 3821.28 424.377 1
-7 0 4 4312.87 520.87 3
7 0 -4 2992.15 351.938 2
-7 0 4 4611.53 633.489 18
7 0 -4 3483.35 557.09 8
7 0 -4 4791.28 643.74 7
7 0 -3 5817.56 445.198 14
7 0 -3 5622.14 373.087 6
-7 0 3 5584.03 617.816 3
-7 0 3 5622.6 562.258 1
7 0 -3 6309.04 614.638 5
-7 0 3 5029.3 638.506 18
7 0 -3 5848.17 690.667 8
7 0 -3 3961.34 327.927 2
7 0 -3 4775.53 622.598 7
-7 0 2 1273.93 374.507 18
7 0 -2 797.723 193.579 14
7 0 -2 675.666 101.723 2
7 0 -2 734.464 385.136 13
-7 0 2 1050.17 324.5 1
-7 0 2 1088.18 330.411 3
7 0 -2 690.842 310.593 5
7 0 -2 274.349 321.158 8
7 0 -1 3601.37 346.29 14
7 0 -1 3556.93 583.56 13
-7 0 1 2993.19 461.313 1
-7 0 1 4238.51 583.309 3
7 0 -1 3011.16 481.5 5
-7 0 1 3863.09 529.888 18
7 0 -1 3079.8 552.946 8
7 0 0 1495.93 261.118 14
-7 0 0 1562.15 370.439 1
7 0 0 1289.54 432.076 13
-7 0 0 1306.54 369.632 3
7 0 0 1443.77 416.154 5
-7 0 0 1471.57 378.883 18
7 0 0 1588.61 420.524 8
7 0 1 25937.3 1520.69 8
-7 0 -1 27975.7 1139.15 14
7 0 1 24654 1502.99 13
-7 0 -1 25697 1502.64 3
-7 0 -1 26028.6 1480.7 1
7 0 1 24997.5 1465.52 5
7 0 2 9141.57 752.974 15
-7 0 -2 8825.9 618.68 14
-7 0 -2 8972.55 368.221 6
7 0 2 8889.29 877.957 13
-7 0 -2 7642.35 831.254 3
-7 0 -2 9003.88 853.504 1
7 0 2 8324.38 835.015 5
7 0 2 8013.11 814.216 8
7 0 3 22561.9 1160.47 15
7 0 3 20615.5 1363.13 13
-7 0 -3 21825.8 1391.66 3
-7 0 -3 22138.4 1408.94 1
-7 0 -3 22203.8 1071.45 11
7 0 3 21183.2 1415.66 5
7 0 3 22341.4 1386.79 8
7 0 4 31693.1 1437.48 15
7 0 4 30950.9 1775.38 13
-7 0 -4 30111.8 1761.72 1
-7 0 -4 29500.5 1758 3
-7 0 -4 29505.7 1438.24 11
7 0 4 33265.7 1837.26 5
7 0 4 30091.8 1719.93 8
7 0 5 5183.05 529.683 15
7 0 5 4402.68 752.005 13
-7 0 -5 5605.35 632.59 11
-7 0 -5 4668.93 726.562 3
7 0 5 5634.87 802.472 5
-7 0 -5 6079.48 811.509 1
7 0 5 3995.76 668.445 8
7 0 6 16500.1 1391.34 13
-7 0 -6 15339.3 1326.97 1
-7 0 -6 15684.4 1314.9 3
-7 0 -6 14948.4 1120.93 11
7 0 6 16008 1358.5 5
7 0 6 17154.7 948.087 18
7 0 6 17398.9 956.143 15
7 0 7 1004.7 499.666 13
-7 0 -7 1605.97 535.215 1
-7 0 -7 2052.09 445.96 11
-7 0 -7 1217.59 493.663 3
7 0 7 1567.98 538.222 5
-7 0 -8 10651.8 1146.63 3
7 0 8 9211.36 1149.76 13
-7 0 -8 9592.33 1109.82 1
-7 0 -8 9926.3 999.658 11
7 0 8 8727.9 1110.05 5
-7 0 -9 15207.2 1421.1 1
7 0 9 12774.6 1450.64 13
-7 0 -9 15488 1382.38 3
-7 0 -9 13330.8 1227.43 11
7 0 9 16039.2 1461.66 5
-7 0 -10 127.092 437.733 1
7 0 10 558.087 540.273 13
-7 0 -10 -1271.74 515.724 11
-7 0 -10 -301.088 421.811 3
7 0 10 -130.345 500.413 5
-7 0 -11 -222.944 464.486 1
-7 0 -11 324.122 353.558 11
-7 0 -11 951.307 552.873 3
7 0 11 -37.1838 540.792 5
-7 1 15 1872.49 644.476 10
-7 1 15 2053.92 635.618 18
-7 1 14 4603.96 871.82 12
-7 1 14 3006.63 743.21 10
7 1 -14 3163.7 828.111 2
-7 1 14 4908.5 869.116 18
7 1 -13 1731.7 654.197 7
-7 1 13 1372.41 554.71 12
7 1 -13 1513.02 483.391 11
-7 1 13 1993.15 633.373 10
7 1 -13 693.05 497.071 2
-7 1 13 2453.24 628.083 18
-7 1 13 1992.52 675.563 16
-7 1 13 2297.81 814.171 4
7 1 -12 3334.7 721.79 7
-7 1 12 3413.35 730.658 12
7 1 -12 3935.33 683.956 11
-7 1 12 3360.92 719.119 10
7 1 -12 1909.52 582.052 2
-7 1 12 3632.77 744.539 18
-7 1 12 3748.66 841.53 16
-7 1 12 3146.93 748.565 4
7 1 -11 1794.49 586.246 7
-7 1 11 2733.68 652.724 12
7 1 -11 2456.82 516.819 11
-7 1 11 3330.82 675.254 10
7 1 -11 2301.36 599.628 2
-7 1 11 3418.07 740.62 18
-7 1 11 3946.95 818.958 16
-7 1 11 3132.45 751.896 4
-7 1 10 4440.16 752.326 15
7 1 -10 3876.12 809.699 7
-7 1 10 3558.8 694.92 12
7 1 -10 3724.56 612.672 11
-7 1 10 3688.36 729.417 10
7 1 -10 3384.31 678.143 2
-7 1 10 4108.15 736.789 18
-7 1 10 3816.07 783.803 16
-7 1 10 3545.82 762.062 4
7 1 -9 11715.9 925.112 11
-7 1 9 10724.3 1103.47 18
7 1 -9 11559 878.898 8
-7 1 9 10577 1154.87 4
-7 1 9 10771.1 1177.73 16
7 1 -9 10887.3 1151.27 7
-7 1 9 11879.8 1161.6 15
7 1 -9 8082.24 949.807 2
-7 1 8 19738.3 896.369 3
7 1 -8 20314.8 1156.69 11
-7 1 8 20365.3 1474.82 18
7 1 -8 19266 1182.29 8
-7 1 8 16389.3 1435.24 4
-7 1 8 18745.9 1434.13 16
7 1 -8 19278.5 1453.43 7
7 1 -8 16683.8 1233.36 2
-7 1 8 18726.1 1389.97 15
-7 1 7 21577.7 1052.57 3
-7 1 7 22463.8 1526.72 18
-7 1 7 20506.4 1475.52 4
7 1 -7 23506.9 1312.88 8
-7 1 7 23284.3 1565.36 16
7 1 -7 20479.7 1480.22 7
7 1 -7 20981 1292.02 2
-7 1 7 22245.5 1493.77 15
-7 1 6 14960.3 899.679 3
7 1 -6 15529.3 744.96 5
-7 1 6 15060.5 1185.2 18
-7 1 6 13454.3 1145.91 4
7 1 -6 14862.9 1031.27 8
-7 1 6 14829.7 1186.39 16
7 1 -6 14086.2 1183.85 7
7 1 -6 9987.98 953.443 2
-7 1 6 14178.4 1137.4 15
-7 1 5 1372.26 474.638 15
7 1 -5 1152.09 338.612 2
-7 1 5 1900.06 370.139 3
7 1 -5 1376.53 267.348 5
-7 1 5 1171.69 395.312 18
7 1 -5 1662.39 376.084 8
-7 1 5 1792.08 502.393 4
7 1 -5 1858.79 492.446 7
7 1 -4 6644.07 337.737 14
-7 1 4 7942.28 697.821 3
7 1 -4 7204.67 601.188 5
-7 1 4 8332.55 823.385 18
7 1 -4 7500.58 768.518 8
-7 1 4 6200.05 761.801 4
7 1 -4 6114.25 598.191 2
-7 1 4 7331.49 791.81 15
7 1 -4 7206.65 791.056 7
7 1 -3 2197.02 329.733 6
7 1 -3 1877.22 325.541 2
-7 1 3 2335.82 417.96 3
7 1 -3 2191.78 387.258 5
-7 1 3 2397.19 513.064 18
7 1 -3 1884.02 452.237 8
7 1 -2 5934.59 482.301 6
-7 1 2 6606.41 682.384 3
7 1 -2 5630.07 696.656 13
7 1 -2 7346.6 679.495 5
-7 1 2 6095.2 686.069 18
7 1 -2 6147.04 717.54 8
7 1 -2 7970.37 569.704 2
7 1 -1 15590.4 1110.44 15
7 1 -1 14338.1 1060.2 13
-7 1 1 15381.2 1090.21 3
7 1 -1 17277.7 816.956 11
7 1 -1 14700 1022.11 5
-7 1 1 14789.7 1036.2 18
7 1 -1 14053.9 765.083 2
7 1 -1 16640.4 1166.06 8
7 1 0 2586.21 333.087 2
7 1 0 3492.63 570.176 15
7 1 0 4174.17 590.31 13
7 1 0 4127.24 405.476 11
-7 1 0 3127.81 228.702 11
-7 1 0 2802.13 524.945 3
7 1 0 2737.91 489.589 5
-7 1 0 3031.93 489.502 18
7 1 0 3406.98 592.911 8
7 1 1 8010.13 784.978 15
7 1 1 6762.91 739.757 13
-7 1 -1 7366.16 685.953 18
-7 1 -1 7370.59 801.533 3
7 1 1 8097.02 614.409 11
-7 1 -1 7939.82 483.175 11
7 1 1 7346.5 773.678 5
7 1 1 7576.08 828.354 8
7 1 2 6100.38 696.84 15
7 1 2 7524.81 838.359 13
-7 1 -2 7663.68 832.354 3
-7 1 -2 7843.84 554.469 11
7 1 2 7143.22 799.457 5
-7 1 -2 7449.58 661.575 18
7 1 2 7558.14 862.26 8
7 1 3 10062 843.476 15
7 1 3 10065.5 979.481 13
-7 1 -3 9346.74 959.792 3
-7 1 -3 8782.13 977.277 1
-7 1 -3 10711.7 720.454 11
7 1 3 9081.39 907.335 5
-7 1 -3 10339.7 753.581 18
-7 1 -3 8957.89 441.623 2
7 1 4 328.077 325.385 15
7 1 4 721.452 425.475 13
-7 1 -4 735.056 270.837 11
-7 1 -4 322.539 363.283 3
7 1 4 1102.11 491.983 5
-7 1 -4 654.666 420.608 1
7 1 5 13777.3 1195.92 13
-7 1 -5 13735.2 1219.49 3
-7 1 -5 14173.4 1263.58 1
-7 1 -5 14920 1025.39 11
7 1 5 12757.4 1196.31 5
7 1 5 13994.9 1014.07 18
7 1 5 14164.8 1010.85 15
7 1 6 2884.15 458.941 15
7 1 6 4293.63 758.334 13
-7 1 -6 3715.68 573.793 11
-7 1 -6 3365.84 665.984 3
7 1 6 2070.61 580.852 5
-7 1 -6 3399.82 710.985 1
7 1 6 2590.96 455.531 18
7 1 7 4836.01 855.326 13
-7 1 -7 4526.47 785.37 1
-7 1 -7 4848.17 708.178 11
-7 1 -7 4147.06 748.164 3
7 1 7 4727.44 810.294 5
7 1 7 4443.01 559.099 18
7 1 7 5068.87 594.436 15
-7 1 -8 6988.51 968.795 1
7 1 8 8100.16 1051.05 13
-7 1 -8 8409.15 945.663 11
-7 1 -8 5962.46 880.222 3
7 1 8 7704.53 1009.23 5
7 1 9 3226.98 816.307 13
-7 1 -9 3656.14 692.821 11
-7 1 -9 2791.66 657.365 3
7 1 9 2255.61 662.272 5
-7 1 -9 3296.45 749.045 1
7 1 10 773.456 599.829 13
-7 1 -10 2367.61 650.364 11
-7 1 -10 1186.58 566.186 3
-7 1 -10 538.72 510 1
7 1 10 423.723 466.815 5
-7 1 -11 8064.26 1248.72 1
-7 1 -11 5977.99 920.654 11
-7 1 -11 5177.24 870.63 3
7 1 11 5662.02 1056.8 5
-7 1 -12 3484.52 766.367 3
-7 2 14 2637.98 723.838 12
7 2 -14 2976.72 762.199 11
7 2 -13 3290.78 814.342 7
-7 2 13 2303.43 665.122 15
-7 2 13 3945.7 816.853 12
7 2 -13 2222.03 659.283 11
7 2 -13 2750.98 799.735 2
-7 2 13 2901.93 791.714 10
-7 2 13 3755.62 835.032 18
7 2 -12 1412.76 604.977 7
-7 2 12 963.789 432.957 15
7 2 -12 691.602 470.036 15
-7 2 12 747.472 403.729 12
7 2 -12 1988.95 589.15 11
7 2 -12 2095.14 713.064 2
-7 2 12 874.997 582.351 10
-7 2 12 758.795 402.923 18
-7 2 12 3143.93 797.072 16
-7 2 12 970.154 585.873 4
7 2 -11 2327.11 706.651 7
-7 2 11 1744.11 628.804 15
7 2 -11 1432.56 493.51 15
-7 2 11 1316.49 546.528 12
7 2 -11 1663.22 643.786 2
-7 2 11 1049.13 583.015 10
-7 2 11 2211.33 605.484 18
-7 2 11 1392.93 665.929 16
-7 2 11 1836.19 642.367 4
7 2 -10 471.481 415.372 7
-7 2 10 1147.43 476.21 15
7 2 -10 695.573 426.339 15
7 2 -10 614.531 463.709 2
-7 2 10 -193.192 447.862 10
-7 2 10 195.77 372.056 18
-7 2 10 933.848 568.767 16
-7 2 10 556.896 520.65 4
7 2 -9 -252.547 387.96 7
-7 2 9 646.453 503.676 15
7 2 -9 397.254 422.292 15
7 2 -9 691.3 442.782 2
-7 2 9 799.243 521.005 10
-7 2 9 1099.99 498.886 18
-7 2 9 882.034 613.176 16
-7 2 9 143.157 431.902 4
7 2 -8 2167.04 567.639 7
-7 2 8 3564.1 729.324 15
7 2 -8 3066.34 623.757 15
7 2 -8 3038.46 671.006 2
-7 2 8 2618.93 638.299 18
-7 2 8 2344.61 647.969 16
-7 2 8 2173.92 586.39 4
7 2 -7 11685 1135.79 15
-7 2 7 12469.7 816.763 3
-7 2 7 11221.1 1137.82 18
7 2 -7 14369.9 1027.91 8
-7 2 7 13163.1 1175.32 4
-7 2 7 12789.7 1208.47 16
7 2 -7 13475.2 1104 2
7 2 -7 11956.5 1128.16 7
-7 2 7 11832.1 1140.01 15
7 2 -6 10425.7 1052.87 15
-7 2 6 11548.1 838.429 3
7 2 -6 12375 742.626 5
-7 2 6 12186.8 621.805 9
-7 2 6 12207.8 1128.72 18
7 2 -6 12334.3 951.719 8
-7 2 6 12316.6 1078.4 4
-7 2 6 10862.9 1089.99 16
7 2 -6 9775.67 1034.5 2
7 2 -6 11506.3 1104.69 7
-7 2 6 11882 1128.61 15
-7 2 5 679.873 432.157 15
7 2 -5 1107.42 478.242 15
7 2 -5 668.933 354.8 2
-7 2 5 453.975 171.015 9
7 2 -5 259.573 257.078 5
-7 2 5 260.817 238.031 3
-7 2 5 654.818 399.923 18
7 2 -5 102.246 306.756 8
-7 2 5 357.446 368.854 4
-7 2 5 762.86 499.449 16
7 2 -5 684.07 403.667 7
-7 2 4 4139.84 643.182 15
7 2 -4 2438.32 519.604 15
7 2 -4 3432.73 615.346 2
7 2 -4 3106.67 441.385 5
-7 2 4 3747.22 538.469 3
-7 2 4 4055.43 460.235 9
-7 2 4 4048.48 663.515 18
-7 2 4 3835.68 620.246 4
-7 2 4 3718.71 628.355 16
7 2 -3 8159.52 894.877 15
7 2 -3 8199.08 780.588 13
-7 2 3 8611.35 816.962 3
7 2 -3 7939.96 722.42 5
-7 2 3 9264.52 711.652 9
-7 2 3 8045.4 828.137 4
-7 2 3 6771.12 800.627 18
7 2 -3 7899.3 781.595 2
-7 2 3 7805.85 841.961 15
-7 2 2 5811.56 712.134 15
7 2 -2 5726.49 780.625 15
7 2 -2 4869.57 631.868 13
7 2 -2 5585.64 667.482 5
-7 2 2 6530.84 720.932 3
-7 2 2 5529.1 708.28 18
7 2 -2 5439.3 621.163 2
-7 2 1 4716.54 603.239 15
7 2 -1 5481.87 755.539 15
7 2 -1 4732.6 612.04 13
7 2 -1 4804.4 633.244 5
-7 2 1 4150.75 613.753 3
-7 2 1 6257.49 726.459 18
7 2 -1 4738.02 589.072 2
7 2 0 11293.5 1024.16 15
7 2 0 12412.7 985.607 13
-7 2 0 11268.4 1023.62 3
7 2 0 11838.5 999.318 5
-7 2 0 11119.5 911.647 18
7 2 0 11020.4 865.367 2
-7 2 0 12323.9 952.819 15
7 2 1 18245.5 1309.8 15
7 2 1 18075.7 1222.32 13
-7 2 -1 17844.2 1309.42 3
7 2 1 18800.7 1304.78 5
-7 2 -1 17131 1109.51 18
7 2 1 17643.4 1166.29 2
-7 2 -1 17286.8 1114.36 15
7 2 2 7194.19 796.001 13
-7 2 -2 8346.1 644.664 11
7 2 2 7794.79 879.635 5
-7 2 -2 7099.06 868.333 3
-7 2 -2 7487.5 693.873 18
7 2 2 7551.37 837.47 15
7 2 3 2117.5 485.847 15
7 2 3 2960.36 575.309 13
-7 2 -3 3264.85 446.793 11
7 2 3 2966.61 614.979 5
-7 2 -3 1954.63 513.275 3
-7 2 -3 3094.5 445.286 18
7 2 3 2270.96 508.295 18
7 2 4 1918.81 517.44 15
7 2 4 1649.13 437.796 13
-7 2 -4 2149.59 420.67 11
7 2 4 2086.44 594.919 5
-7 2 -4 1935.4 540.711 3
7 2 4 1677.48 457.008 18
7 2 5 254.705 354.053 15
7 2 5 -102.739 371.398 13
-7 2 -5 94.8947 288.637 11
7 2 5 -174.289 374.803 5
7 2 5 -384.725 463.37 10
-7 2 -5 244.276 333.525 3
7 2 5 53.2326 278.288 18
7 2 6 7723.9 938.556 13
-7 2 -6 8193.08 870.145 11
7 2 6 6729.89 986.638 5
7 2 6 6125.29 925.912 10
-7 2 -6 8253.51 1033.36 3
-7 2 -6 7380.18 961.922 9
7 2 6 7137.19 818.362 18
7 2 6 7613.03 854.836 15
7 2 7 3420.35 599.873 15
7 2 7 3621.38 757.234 13
-7 2 -7 3546.16 622.975 11
-7 2 -7 2838.53 675.644 1
7 2 7 3995.41 822.676 5
7 2 7 4049.64 818.508 10
-7 2 -7 3848.15 787.209 3
-7 2 -7 3489.78 750.581 9
7 2 7 4103.98 649.543 18
7 2 8 5566.86 954.277 13
-7 2 -8 6103.57 970.064 1
-7 2 -8 5554.68 823.991 11
7 2 8 5920.13 980.39 5
7 2 8 6107.37 1031.38 10
-7 2 -8 6653.22 985.21 3
-7 2 -8 6828.32 991.201 9
7 2 9 1682.06 652.082 13
-7 2 -9 485.01 423.185 11
-7 2 -9 248.981 436.151 3
7 2 9 -108.663 506.146 5
7 2 9 5.96338 474.133 10
-7 2 -9 414.935 496.395 9
-7 2 -9 484.376 468.265 1
7 2 10 2116.04 781.394 13
-7 2 -10 209.702 427.146 1
-7 2 -10 720.247 525.472 11
-7 2 -10 1840.72 678.706 3
7 2 10 1006.37 615.302 5
-7 2 -11 1197.88 560.531 11
-7 2 -11 1244.61 661.304 3
-7 3 12 525.329 420.936 12
7 3 -12 745.07 602.31 2
-7 3 12 2085.92 766.763 4
7 3 -12 1623.03 626.483 7
-7 3 11 2357.25 669.239 15
7 3 -11 2167.11 617.509 15
-7 3 11 2814.86 705.273 12
7 3 -11 2190.76 744.265 2
-7 3 11 2391.8 744.098 10
-7 3 11 2023.25 636.669 18
-7 3 11 2227.2 694.045 16
-7 3 11 2096.31 682.534 4
7 3 -11 1949.03 645.602 7
-7 3 10 -813.091 590.071 15
7 3 -10 117.359 400.023 15
7 3 -10 -429.863 415.851 2
-7 3 10 1284.13 679.859 10
-7 3 10 247.603 521.271 18
-7 3 10 811.309 584.666 16
-7 3 10 323.787 537.467 4
7 3 -10 1648.01 623.501 7
-7 3 9 -69.8613 435.706 15
7 3 -9 -189.787 396.858 15
7 3 -9 -159.45 478.242 2
-7 3 9 -151.932 478.788 10
-7 3 9 -17.465 440.243 18
-7 3 9 -83.6629 456.444 16
-7 3 9 -404.549 493.726 4
7 3 -9 1003.8 507.854 7
-7 3 8 3907.36 790.713 15
7 3 -8 3513.44 696.314 15
7 3 -8 3974.68 778.66 2
-7 3 8 5050.52 890.4 10
-7 3 8 4741.08 836.676 18
-7 3 8 3840.54 826.419 16
-7 3 8 2902.9 654.146 4
7 3 -8 3908.13 734.551 7
-7 3 7 7257.38 977.334 15
7 3 -7 7772.86 945.551 15
7 3 -7 6799.7 918.441 2
-7 3 7 8264.24 1052.93 10
-7 3 7 6162.42 915.224 18
-7 3 7 7932.7 1018.83 16
-7 3 7 6745.3 884.868 4
-7 3 6 1431.79 516.064 15
7 3 -6 2330.07 634.851 15
7 3 -6 1818.07 558.68 2
-7 3 6 2503.09 485.017 3
-7 3 6 2122.38 570.676 18
-7 3 6 1723.43 509.802 16
-7 3 6 2820.77 602.331 4
-7 3 5 2637.63 621.588 15
7 3 -5 4006.96 752.786 15
7 3 -5 3092.62 622.08 2
7 3 -5 3429.58 520.954 5
-7 3 5 3346.54 528.924 3
-7 3 5 3922.01 764.772 18
-7 3 5 3852.53 671.235 16
-7 3 5 3093.29 654.662 4
-7 3 4 2994.21 590.901 15
7 3 -4 3735.67 705.904 15
7 3 -4 3517.35 671.191 2
7 3 -4 2481.72 487.327 13
7 3 -4 3834.23 594.758 5
-7 3 4 4497.35 501.179 9
-7 3 4 3708.64 591.961 3
-7 3 4 3083.62 629.703 18
-7 3 4 3162.94 589.324 4
-7 3 4 4805.74 745.762 16
7 3 -3 6883.06 905.741 15
7 3 -3 7594.85 778.115 13
-7 3 3 7489.4 829.151 3
7 3 -3 7401.1 793.443 5
-7 3 3 8135.44 750.928 9
-7 3 3 8119.79 836.499 4
7 3 -3 6773.48 876.686 2
-7 3 3 6627.19 791.273 16
-7 3 3 7936.03 915.991 15
-7 3 3 7532.2 888.01 18
-7 3 2 6526.54 820.747 15
7 3 -2 5670.29 832.515 15
7 3 -2 5250.69 752.215 2
7 3 -2 6138.26 696.619 13
7 3 -2 5826.85 728.679 5
-7 3 2 6623.78 710.354 9
-7 3 2 7358.64 848.532 18
-7 3 2 7177.59 791.097 16
-7 3 2 6565.21 736.945 4
7 3 -1 10180.4 875.415 13
7 3 -1 11146.6 1039.99 5
-7 3 1 11486.8 1000.28 9
-7 3 1 8763.46 920.597 18
-7 3 1 9722.69 883.192 4
7 3 -1 8488.23 1009.38 2
-7 3 1 10530.7 899.905 16
-7 3 1 10114.3 968.818 15
7 3 -1 9789.63 1055.59 15
7 3 0 16711.6 1125.44 13
7 3 0 15992.1 1284.78 5
-7 3 0 15728.1 1202.82 9
-7 3 0 16897.5 1203.62 18
7 3 0 17185.1 1404.44 18
7 3 0 11638.4 1209.68 2
-7 3 0 14875.7 1135.11 15
7 3 0 16154.3 1344.75 15
-7 3 -1 3690.93 572.345 15
7 3 1 3398.16 635.001 2
7 3 1 3338.2 694.279 15
7 3 1 4449.22 626.647 13
7 3 1 3720.8 710.145 5
-7 3 -1 4538.34 712.729 9
-7 3 -1 3332.79 539.803 18
7 3 1 4652.79 784.811 18
7 3 2 12239.1 1046.42 13
-7 3 -2 12506.5 1212.32 3
7 3 2 11985.5 1180.91 5
-7 3 -2 12511.2 1170.98 9
-7 3 -2 13087.1 989.249 18
7 3 2 12087.9 1110.84 2
7 3 2 11649.9 1166.07 18
-7 3 -2 13167.7 1009.4 15
7 3 2 10563.3 1106.92 15
7 3 3 1273.14 541.114 15
7 3 3 1659.31 471.896 13
7 3 3 1184.27 526.017 5
7 3 3 1300.06 493.371 10
-7 3 -3 1098 525.494 9
-7 3 -3 1770.28 573.534 3
7 3 3 1236.17 482.37 18
7 3 4 8093.04 905.67 13
7 3 4 6608.81 948.089 5
7 3 4 7203.25 998.481 10
-7 3 -4 7711.53 997.74 9
-7 3 -4 7366.98 976.317 3
7 3 4 6639.36 910.107 18
7 3 4 7320.4 965.665 15
7 3 5 4694.23 798.641 15
7 3 5 4587.13 760.258 13
7 3 5 3370.94 785.573 5
7 3 5 1694.22 548.535 10
-7 3 -5 3418.23 768.261 9
-7 3 -5 2281.59 674.546 3
7 3 5 3394.58 678.849 18
7 3 6 228.278 376.723 15
7 3 6 491.375 406.068 13
-7 3 -6 164.251 315.408 11
7 3 6 1088.4 526.475 5
7 3 6 1157.29 539.526 10
-7 3 -6 847.287 548.955 9
-7 3 -6 -502.162 494.141 3
7 3 6 795.41 490.912 18
7 3 7 1693.77 535.801 15
7 3 7 876.778 470.53 13
-7 3 -7 2051.76 550.161 11
7 3 7 704.74 474.745 5
7 3 7 1545.69 668.728 10
-7 3 -7 1428.24 615.02 3
-7 3 -7 1486.14 585.615 9
7 3 7 1643.86 541.352 18
7 3 8 1477.48 514.364 15
7 3 8 2491.21 676.976 13
-7 3 -8 1410.53 543.859 11
7 3 8 1033.68 597.008 5
7 3 8 1111.07 573.31 10
-7 3 -8 813.61 588.388 3
-7 3 -8 -46.609 450.732 9
7 3 8 2434.01 614.496 18
7 3 8 1140.43 484.05 17
7 3 9 3423.37 862.06 13
-7 3 -9 3632.14 735.023 11
-7 3 -10 2251.57 665.333 11
7 4 -11 290.394 502.234 7
-7 4 11 824.513 590.286 4
7 4 -10 701.105 379.16 15
-7 4 10 -930.277 645.776 4
7 4 -9 332.757 421.737 15
7 4 -9 1313.7 668.029 2
-7 4 9 476.669 516.328 16
-7 4 9 800.512 559.812 4
-7 4 8 122.821 419.703 15
7 4 -8 385.883 458.937 15
7 4 -8 188.46 435.378 2
-7 4 8 -387.36 533.521 10
-7 4 8 240.586 508.249 18
-7 4 8 1105.69 594.069 16
-7 4 8 662.324 539.366 4
-7 4 7 2698.11 701.777 15
7 4 -7 2689.65 683.682 15
7 4 -7 2239.2 739.561 2
-7 4 7 2235.02 664.853 10
-7 4 7 2791.99 722.968 18
-7 4 7 2399.71 627.078 16
-7 4 7 3134.38 721.578 4
-7 4 6 2599.02 668.187 15
7 4 -6 2260.95 631.998 15
7 4 -6 3614.76 800.878 2
-7 4 6 2650.36 685.082 10
-7 4 6 2751.97 692.382 18
-7 4 6 3140.42 677.598 16
-7 4 5 3037.88 704.465 15
7 4 -5 2169.05 585.749 15
7 4 -5 2784.36 702.89 2
-7 4 5 2625.5 721.409 10
-7 4 5 2328.48 652.383 18
7 4 -5 2862.46 704.149 18
-7 4 5 2160.84 588.611 16
-7 4 4 7403.59 988.128 15
7 4 -4 5691.47 899.07 15
7 4 -4 7040.54 972.515 2
7 4 -4 8037.04 909.16 5
-7 4 4 5412.25 885.093 18
7 4 -4 7185 1006.25 18
-7 4 4 8684.36 958.521 16
-7 4 3 2591.98 633.385 15
7 4 -3 2885.62 691.315 15
7 4 -3 3499.62 734.634 2
7 4 -3 4032.38 712.289 5
-7 4 3 2665.06 472.719 9
-7 4 3 2712.5 668.827 18
7 4 -3 2386.04 685.804 18
-7 4 3 3424.64 626.331 16
-7 4 2 3384.07 691.713 15
7 4 -2 3278.75 735.808 15
7 4 -2 3975.43 758.297 2
7 4 -2 3669.34 690.071 5
-7 4 2 4473.02 673.298 9
-7 4 2 3325.85 655.709 18
7 4 -2 4806.8 868.049 18
-7 4 2 4494.62 663.919 16
7 4 -1 9255.07 1132.84 15
7 4 -1 10246.9 1058.89 2
7 4 -1 9792.08 1091.31 5
-7 4 1 10025.3 997.866 9
-7 4 1 10876.6 1119.06 18
7 4 -1 10438.1 1224.71 18
-7 4 1 9334.1 1070.66 15
-7 4 0 4615.32 710.22 15
7 4 0 4568.38 866.29 15
7 4 0 3894.09 776.85 2
7 4 0 3463.02 732.878 5
-7 4 0 5103.17 748.33 9
-7 4 0 5433.86 783.597 18
7 4 0 4331.81 809.149 18
-7 4 -1 1567.45 475.309 15
7 4 1 2415.7 621.386 2
7 4 1 2546.67 717.591 15
7 4 1 2221.1 634.112 5
-7 4 -1 1566.64 445.19 9
-7 4 -1 2293.38 584.511 18
7 4 1 2007.27 634.636 18
7 4 2 4009.79 759.852 2
7 4 2 2520.18 673.557 15
7 4 2 3334.29 681.119 5
7 4 2 4053.66 774.744 10
-7 4 -2 5101.59 830.809 9
7 4 2 3493.45 771.633 18
7 4 3 1521.1 619.057 15
7 4 3 1282.75 590.836 5
7 4 3 1334.87 505.417 10
-7 4 -3 2709.73 723.4 9
7 4 3 1546.91 586.032 18
7 4 4 -134.884 457.87 15
7 4 4 306.975 465.363 5
7 4 4 615.251 536.885 10
-7 4 -4 306.353 398.641 9
7 4 4 448.315 378.323 18
7 4 5 1529.89 613.979 15
7 4 5 574.087 456.541 5
7 4 5 835.279 578.327 10
-7 4 -5 244.038 511.395 9
7 4 5 1158.17 569.299 18
7 4 6 1567.63 566.917 15
7 4 6 993.007 600.149 10
-7 4 -6 1165.99 592.837 9
-7 4 -6 956.835 528.887 3
7 4 6 894.799 472.307 18
7 4 7 -685.355 537.056 15
7 4 7 605.255 519.336 18
7 4 7 -6.64081 406.783 17
7 4 8 1858.39 660.382 15
7 4 8 135.307 453.999 18
7 4 8 1013.89 548.35 17
7 5 -6 369.879 578.195 15
-7 5 5 3504.4 851.568 15
7 5 -5 3369.94 817.519 15
7 5 -5 2997.1 786.132 2
-7 5 5 3486.5 800.463 10
-7 5 5 3474.03 856.284 18
7 5 -5 3475.77 828.619 18
-7 5 4 -229.265 423.495 15
7 5 -4 430.447 507.451 15
7 5 -4 106.321 511.711 2
-7 5 4 598.907 525.991 10
-7 5 4 335.551 480.51 18
7 5 -4 290.214 473.728 18
-7 5 3 0.96197 447.13 15
7 5 -3 -336.949 404.305 15
7 5 -3 280.453 545.042 2
-7 5 3 1284.44 544.566 10
7 5 -3 198.05 432.878 5
-7 5 3 382.665 381.163 18
7 5 -3 -89.7888 450.516 18
-7 5 2 540.985 436.208 15
7 5 -2 -216.855 475.494 15
7 5 -2 393.828 493.982 2
-7 5 2 119.627 435.4 10
7 5 -2 1172.71 554.074 5
-7 5 2 910.402 569.261 18
7 5 -2 1481.59 649.452 18
-7 5 1 811.453 455.111 15
7 5 -1 1396.23 592.255 15
7 5 -1 2221.09 717.367 2
7 5 -1 797.719 518.549 5
-7 5 1 969.279 512.584 9
-7 5 1 1401.36 616.899 18
7 5 -1 1417.78 644.431 18
-7 5 0 1903.64 575.741 15
7 5 0 1729.88 598.067 15
7 5 0 1246.17 650.091 2
7 5 0 1288.09 595.822 5
-7 5 0 1593.46 522.142 9
-7 5 0 1937.14 572.599 18
7 5 0 1663.38 681.58 18
7 5 1 8450.65 1129.54 2
7 5 1 7184.55 1117.41 5
-7 5 -1 8204.63 1129.58 9
7 5 2 220.256 543.878 2
7 5 2 506.197 596.834 5
7 5 2 447.465 498.202 10
-7 5 -2 373.348 531.232 9
7 5 3 997.069 500.103 10
-7 5 -3 1018.79 572.955 9
7 5 4 2846.94 786.544 10
-8 -5 4 1514.83 592.311 6
-8 -5 3 2469.96 679.933 6
-8 -5 3 2065.04 706.176 1
-8 -5 2 2072.36 727.818 6
-8 -5 2 3929.23 1021.67 1
-8 -5 1 430.942 516.281 6
-8 -5 1 2497.6 873.254 1
-8 -5 0 819.125 533.045 6
-8 -5 0 2123.98 869.191 1
8 -5 0 1910.25 657 8
-8 -5 -1 657.768 507.685 6
8 -5 1 881.434 544.924 8
-8 -5 -2 95.9421 430.27 6
8 -5 2 876.215 535.031 8
8 -5 3 4130.43 844.52 8
-8 -4 9 746.357 596.353 6
-8 -4 9 1607.55 645.531 12
-8 -4 8 1246.11 526.946 6
-8 -4 8 1882.27 578.04 12
-8 -4 7 2409.57 713.919 6
-8 -4 7 2942.54 662.163 12
8 -4 -7 1805.17 646.366 8
8 -4 -6 11072.2 1242.3 14
-8 -4 6 10945.3 1183.98 6
8 -4 -6 10589.1 1073.45 13
-8 -4 6 11362.7 1148.77 12
8 -4 -6 10665.8 1269 8
8 -4 -5 3788.95 813.445 14
8 -4 -5 2583.33 577.737 13
-8 -4 5 2771.06 680.988 6
-8 -4 5 2590.13 584.995 12
-8 -4 5 2901.88 614.512 4
8 -4 -5 3250.4 826.869 8
8 -4 -4 4683.48 810.119 14
8 -4 -4 5634.17 761.576 13
-8 -4 4 5525.47 840.926 6
-8 -4 4 5728.74 904.652 3
-8 -4 4 4160.12 918.193 1
-8 -4 4 8028.78 951.414 4
8 -4 -4 6468.07 994.846 8
8 -4 -3 -159.556 481.236 14
8 -4 -3 197.503 319.27 13
-8 -4 3 30.5835 364.437 6
-8 -4 3 689.026 548.591 3
-8 -4 3 806.783 538.232 1
8 -4 -3 -126.78 434.737 8
8 -4 -2 2061.48 553.51 14
8 -4 -2 2593.49 576.156 13
-8 -4 2 1821.55 535.137 6
-8 -4 2 2534.71 726.137 3
-8 -4 2 2639.2 680.033 1
8 -4 -2 2641.27 740.92 8
8 -4 -1 650.583 473.95 14
8 -4 -1 710.16 482.148 13
-8 -4 1 726.59 428.483 6
-8 -4 1 386.72 436.225 3
-8 -4 1 -72.8752 480.788 1
8 -4 -1 690.541 439.818 8
8 -4 0 2153.66 599.22 14
-8 -4 0 2316.82 602.275 6
8 -4 0 2789.28 542.127 13
-8 -4 0 3430.47 744.446 3
-8 -4 0 4348.17 851.897 1
8 -4 0 2064.84 621.968 8
8 -4 1 2259.37 624.536 14
-8 -4 -1 2473.19 632.797 6
8 -4 1 3833.05 673.793 13
-8 -4 -1 3637.91 830.733 3
-8 -4 -1 4308.48 908.94 1
8 -4 1 2268.99 602.196 8
8 -4 2 4131.1 825.736 14
-8 -4 -2 5051.97 803.865 6
8 -4 2 5671.23 789.104 13
-8 -4 -2 5640.62 983.404 3
8 -4 2 5502.75 890.099 8
-8 -4 -2 4670.41 893.229 1
8 -4 3 3784.66 818.328 14
-8 -4 -3 4151.94 780.673 6
8 -4 3 4074.58 719.151 13
-8 -4 -3 4329.3 883.723 3
8 -4 3 3219.27 709.267 8
-8 -4 -3 3044.98 804.608 1
8 -4 4 4491.06 905.852 14
-8 -4 -4 3382.76 762.157 6
8 -4 4 5361.4 850.341 13
-8 -4 -4 5855.77 980.425 3
8 -4 4 5283.03 877.158 8
-8 -4 -4 2886.19 824.465 1
8 -4 5 490.543 535.648 14
-8 -4 -5 -509.917 502.972 6
8 -4 5 82.2384 502.776 13
-8 -4 -5 313.859 486.093 3
-8 -4 -6 4084.71 827.504 6
8 -3 -12 -1409.47 627.062 8
-8 -3 12 -294.023 461.814 4
8 -3 -11 3157.91 788.534 7
-8 -3 11 2669.34 711.275 6
8 -3 -11 1463.04 583.975 8
-8 -3 11 3018.54 766.144 4
8 -3 -10 835.269 506.382 7
-8 -3 10 1129.27 570.037 6
-8 -3 10 1542.38 623.246 12
8 -3 -10 1522.61 596.964 8
-8 -3 10 1801.21 578.949 4
8 -3 -9 103.484 389.475 7
-8 -3 9 -79.4033 386.858 6
-8 -3 9 1054.1 530.436 12
8 -3 -9 -118.484 396.303 8
-8 -3 9 557.465 413.776 16
-8 -3 9 273.04 408.124 4
8 -3 -8 3518.29 694.708 7
-8 -3 8 3337.5 659.927 6
-8 -3 8 3160.39 717.169 12
8 -3 -8 2959.79 688.563 8
-8 -3 8 3541.69 751.564 4
8 -3 -7 5509.29 753.977 7
-8 -3 7 4894.26 766.267 6
-8 -3 7 4270.73 767.177 12
8 -3 -7 5874.47 928.101 8
-8 -3 7 5079.23 758.492 4
8 -3 -6 5840.39 729.98 7
-8 -3 6 6133.74 811.108 6
-8 -3 6 5577.97 843.14 3
-8 -3 6 4256.84 723.509 12
-8 -3 6 5386.29 754.38 4
8 -3 -6 5907.77 916.303 8
-8 -3 5 8944.86 1060.05 3
8 -3 -5 8557.28 989.991 14
-8 -3 5 8209.11 908.261 6
8 -3 -5 9347.62 986.713 13
-8 -3 5 7728.15 895.301 12
-8 -3 5 8952.64 981.154 4
-8 -3 5 8734.74 891.508 1
8 -3 -5 7216.95 968.266 8
8 -3 -5 9027.65 846.784 7
8 -3 -4 5502.64 824.153 14
8 -3 -4 6954.6 855.981 13
-8 -3 4 6516.78 801.029 6
-8 -3 4 7053.41 902.773 3
-8 -3 4 6684.31 816.073 12
-8 -3 4 6827.36 836.418 1
8 -3 -4 8400.65 1042.4 8
8 -3 -4 6810.71 701.729 7
8 -3 -3 4004.86 693.858 14
8 -3 -3 5204.28 733.348 13
-8 -3 3 4264.6 643.772 6
-8 -3 3 5633.57 848.721 3
-8 -3 3 4914.13 676.706 12
-8 -3 3 5769.03 781.909 1
8 -3 -3 3760.56 677.76 8
8 -3 -3 5036.89 578.213 7
8 -3 -2 2050.43 530.657 14
8 -3 -2 1529.59 470.022 13
-8 -3 2 2392.74 519.506 6
-8 -3 2 1656.1 509.281 3
-8 -3 2 1855.41 457.853 12
8 -3 -2 2791.06 691.682 8
-8 -3 2 1836.64 503.975 1
-8 -3 1 2901.2 624.352 1
8 -3 -1 2470.73 566.967 14
-8 -3 1 2597.87 536.05 6
8 -3 -1 2304.6 547.601 13
-8 -3 1 1494.02 554.742 3
-8 -3 1 2133.24 443.33 12
8 -3 -1 1671.77 553.744 8
-8 -3 0 1775.31 512.481 1
8 -3 0 2187.96 586.064 14
-8 -3 0 1605.5 448.639 6
8 -3 0 2031.4 501.356 13
-8 -3 0 1777.73 594.857 3
8 -3 0 1092.8 464.878 8
-8 -3 -1 3791.23 733.352 1
8 -3 1 4165.38 725.071 14
-8 -3 -1 3905.84 637.098 6
8 -3 1 3636.53 658.821 13
-8 -3 -1 3756.22 760.419 3
8 -3 1 4346.25 752.21 8
-8 -3 -2 710.052 364.66 1
8 -3 2 619.307 380.368 14
-8 -3 -2 142.225 307.994 6
8 -3 2 647.12 428.371 13
-8 -3 -2 454.061 490.985 3
8 -3 2 4.79291 425.079 8
8 -3 3 412.267 434.958 14
-8 -3 -3 87.046 390.878 1
-8 -3 -3 555.57 377.26 6
8 -3 3 828.284 466.798 13
-8 -3 -3 247.993 434.741 3
8 -3 3 1152.73 470.666 8
8 -3 4 116.765 411.122 14
-8 -3 -4 278.115 434.116 1
-8 -3 -4 -248.492 319.759 6
8 -3 4 697.67 453.356 13
-8 -3 -4 631.572 493.499 3
8 -3 4 504.703 398.164 8
8 -3 5 3001.53 766.154 14
-8 -3 -5 2241.91 651.061 1
-8 -3 -5 3302.08 667.998 6
8 -3 5 2401.71 661.778 13
-8 -3 -5 3055.88 757.037 3
8 -3 5 3195.06 605.883 8
-8 -3 -6 6968.23 1025.49 6
8 -3 6 10628.5 1220.84 14
-8 -3 -6 10299.2 1228.01 3
-8 -3 -6 8659.01 1232.11 1
8 -3 6 10725 1217.51 13
8 -3 6 10367.3 1073 8
-8 -3 -7 1580.97 741.389 1
8 -3 7 998.951 564.836 13
-8 -3 -7 1271.89 662.005 3
8 -3 8 1027.5 506.172 13
-8 -3 -8 1272.19 607.019 3
-8 -2 13 2092.91 654.344 16
-8 -2 13 1517.36 651.758 4
8 -2 -12 584.12 510.261 7
-8 -2 12 -219.018 512.789 6
8 -2 -12 1559.21 610.085 8
-8 -2 12 933.874 471.915 16
-8 -2 12 1423.59 622.689 4
8 -2 -11 1907.68 668.062 7
-8 -2 11 564.472 500.87 6
-8 -2 11 2141.22 727.798 12
8 -2 -11 1274 523.377 8
-8 -2 11 1346.42 531.66 16
-8 -2 11 1095.49 570.595 4
8 -2 -10 -455.539 417.152 7
-8 -2 10 104.763 384.768 6
-8 -2 10 10.4474 467.267 12
8 -2 -10 561.84 414.699 8
-8 -2 10 -450.032 409.058 16
-8 -2 10 286.206 430.239 4
8 -2 -9 1990.37 621.686 7
-8 -2 9 666.083 437.042 6
-8 -2 9 667.864 479.584 12
8 -2 -9 -51.7131 432.684 8
-8 -2 9 38.166 394.49 16
-8 -2 9 802.584 495.176 4
8 -2 -8 4724.81 779.891 7
-8 -2 8 4732.86 718.521 3
-8 -2 8 5599.75 784.091 6
-8 -2 8 5249.93 827.531 12
8 -2 -8 4031.43 751.589 8
-8 -2 8 4948.73 867.554 4
8 -2 -7 2193.19 531.845 7
-8 -2 7 2435.68 600.309 3
-8 -2 7 1751.22 474.016 6
-8 -2 7 1369.16 451.296 12
8 -2 -7 2504.99 649.514 8
-8 -2 7 1131.93 477.698 4
8 -2 -6 856.083 404.211 7
-8 -2 6 1051.59 386.794 6
-8 -2 6 2067.56 571.606 3
-8 -2 6 469.295 414.27 12
-8 -2 6 5091.58 590.406 1
-8 -2 6 3664.97 741.208 4
8 -2 -6 1340.48 510.837 8
-8 -2 5 12144.7 1084.43 3
-8 -2 5 12654.3 975.372 6
-8 -2 5 11579.8 1063.38 12
-8 -2 5 14729.9 1200.76 4
8 -2 -5 11621.7 1134.94 8
-8 -2 5 11970.7 862.986 1
8 -2 -5 12560.9 1071.44 7
8 -2 -4 4169.96 478.619 6
-8 -2 4 6577.51 678.497 6
8 -2 -4 6110.4 728.358 14
8 -2 -4 5811.77 776.927 13
-8 -2 4 5522.66 740.586 3
-8 -2 4 6222.36 760.644 12
8 -2 -4 7182.5 903.161 8
8 -2 -4 7069.31 746.287 7
-8 -2 4 5852.5 644.667 1
8 -2 -3 3256.88 544.626 14
-8 -2 3 2469.6 446.301 1
8 -2 -3 3396.45 627.713 13
-8 -2 3 3470.75 491.357 6
-8 -2 3 4509.75 722.746 3
-8 -2 3 3876.31 638.594 12
8 -2 -3 2647.54 580.945 8
8 -2 -3 3867.12 553.879 7
8 -2 -2 529.187 323.193 14
-8 -2 2 311.631 303.81 1
8 -2 -2 -165.435 317.135 13
-8 -2 2 436.686 278.321 6
-8 -2 2 969.941 507.068 3
8 -2 -2 711.312 414.452 8
-8 -2 1 10406.4 930.291 1
8 -2 -1 9448.55 906.017 14
-8 -2 1 10040.8 786.149 6
-8 -2 1 12015 1111.84 3
8 -2 -1 9712.91 962.055 13
8 -2 -1 10199.3 1053.09 8
8 -2 0 1639.41 410.355 14
-8 -2 0 1887.03 382.423 6
8 -2 0 3041.2 599.694 13
-8 -2 0 2489.19 534.66 1
-8 -2 0 1480.57 500.63 3
8 -2 0 1338.63 486.569 8
8 -2 1 2184.75 506.013 14
-8 -2 -1 1749.46 362.871 6
8 -2 1 1886.79 477.19 13
-8 -2 -1 1965.63 564.954 3
-8 -2 -1 2969.8 606.517 1
8 -2 1 1892.96 529.162 8
-8 -2 -2 27086.2 1712.61 1
8 -2 2 27537.6 1620.94 14
-8 -2 -2 26959.9 1422.98 6
-8 -2 -2 27544 1806.74 3
8 -2 2 27488.1 1715.65 13
8 -2 2 27483.8 1718.63 8
8 -2 3 3583.78 655.413 14
-8 -2 -3 2539.88 483.426 6
8 -2 3 3223.05 667.933 13
-8 -2 -3 4730.81 782.667 3
-8 -2 -3 3789.97 731.718 1
8 -2 3 4007.47 680.877 8
8 -2 4 4574.34 716.64 14
-8 -2 -4 2948.56 579.587 6
8 -2 4 3928.46 726.705 13
-8 -2 -4 4192.89 699.612 3
-8 -2 -4 3972.8 722.362 1
8 -2 4 3885.27 659.457 8
8 -2 5 7263.99 969.477 13
-8 -2 -5 8937.98 1063.85 3
-8 -2 -5 7152.1 1036.28 1
8 -2 5 8137.8 927.101 8
8 -2 6 654.532 538.626 13
-8 -2 -6 -276.453 451.153 3
-8 -2 -6 333.186 427.183 1
8 -2 6 1090.35 470.662 8
8 -2 7 5811.22 958.975 13
-8 -2 -7 5444.43 885.384 3
-8 -2 -7 5199.96 913.33 1
8 -2 7 5739.7 824.281 8
8 -2 8 1200.99 634.653 13
-8 -2 -8 34.6758 467.009 1
-8 -2 -8 1008.54 538.279 3
8 -2 9 1719.64 765.071 13
-8 -2 -9 -241.893 423.602 3
-8 -2 -10 10118 1294.61 3
-8 -1 14 994.308 512.742 18
-8 -1 14 2026.12 690.823 16
-8 -1 13 1004.86 557.088 18
-8 -1 13 987.716 570.875 16
-8 -1 13 2346.61 759.946 4
8 -1 -12 1889.21 635.406 7
-8 -1 12 1529.11 600.06 12
-8 -1 12 2544.37 669.292 18
-8 -1 12 2495.43 663.314 16
-8 -1 12 2549.07 789.613 4
8 -1 -11 861.69 463.893 7
-8 -1 11 147.27 466.59 12
-8 -1 11 798.741 477.986 18
8 -1 -11 -71.033 324.145 8
-8 -1 11 122.478 437.639 16
-8 -1 11 379.539 562.248 4
8 -1 -10 222.653 401.591 7
-8 -1 10 129.988 434.139 12
-8 -1 10 126.59 378.725 18
8 -1 -10 1496.63 515.316 8
-8 -1 10 678.915 486.49 16
-8 -1 10 641.223 487.119 4
8 -1 -9 1510.27 514.002 7
-8 -1 9 1041.24 550.027 12
-8 -1 9 859.178 470.44 18
8 -1 -9 936.631 442.593 8
-8 -1 9 1133.48 469.427 16
-8 -1 9 150.686 560.691 4
8 -1 -8 4959.79 791.632 7
-8 -1 8 4457.14 584.98 3
-8 -1 8 3939 594.738 6
-8 -1 8 3551.49 714.357 12
-8 -1 8 4491.35 733.562 18
8 -1 -8 3167.73 617.371 8
-8 -1 8 4046.21 710.023 4
-8 -1 8 4536.38 769.824 16
8 -1 -7 370.234 379.469 7
-8 -1 7 500.693 308.206 6
-8 -1 7 125.435 235.93 3
-8 -1 7 619.512 438.044 12
-8 -1 7 66.3932 333.608 18
8 -1 -7 -304.865 350.949 8
-8 -1 7 -145.125 420.326 4
8 -1 -6 3757.36 641.31 7
-8 -1 6 2846.42 351.736 1
-8 -1 6 3908.03 528.806 6
-8 -1 6 3498.82 588.956 3
-8 -1 6 4161.11 687.399 18
8 -1 -6 4537.4 696.57 8
-8 -1 6 5010 758.701 4
8 -1 -5 4682.48 676.99 7
-8 -1 5 5021.23 498.799 1
-8 -1 5 4743.68 528.68 6
-8 -1 5 4719.69 681.585 3
-8 -1 5 5755.34 792.365 4
8 -1 -5 4450.29 688.226 8
-8 -1 5 4676.7 739.567 18
-8 -1 4 4914.96 528.227 1
-8 -1 4 4218.25 468.999 6
-8 -1 4 4247.62 598.494 3
8 -1 -4 4376.62 677.658 8
8 -1 -4 3114.28 567.416 7
8 -1 -3 397.422 259.219 14
8 -1 -3 -15.7669 347.189 13
-8 -1 3 415.996 226.929 6
-8 -1 3 5.20712 291.587 3
-8 -1 3 271.552 206.483 1
8 -1 -3 187.009 354.18 8
8 -1 -3 -312.59 313.229 7
8 -1 -2 2034.59 355.891 14
8 -1 -2 1720.39 491.591 13
-8 -1 2 1758.57 270.582 6
-8 -1 2 1894.85 504.135 3
8 -1 -2 2115 484.109 8
-8 -1 2 1268.32 351.144 1
-8 -1 1 3277.49 526.149 1
8 -1 -1 3279.93 448.432 14
-8 -1 1 3978.43 373.87 6
8 -1 -1 3776.07 623.604 13
-8 -1 1 3569.51 590.64 3
8 -1 -1 2935.97 580.199 8
8 -1 0 29346.2 1406.98 14
-8 -1 0 27663 1570.19 1
-8 -1 0 28333.7 1106.52 6
-8 -1 0 25739.7 1621.76 3
8 -1 0 26664.9 1646.25 13
8 -1 0 28805.8 1702 8
8 -1 1 51419.8 2068.37 14
-8 -1 -1 50162.2 2334.86 1
-8 -1 -1 54219.6 1734.21 6
8 -1 1 49734.9 2363.78 13
-8 -1 -1 49682.1 2413.12 3
8 -1 1 50536.4 2382.65 8
-8 -1 -2 5599.11 755.501 1
-8 -1 -2 5456.68 470.908 6
8 -1 2 5419.1 643.874 14
8 -1 2 5585.02 803.807 13
-8 -1 -2 4461.86 707.217 3
8 -1 2 4927.84 761.194 5
8 -1 2 4793.07 704.853 8
-8 -1 -3 19955.1 1444.05 1
8 -1 3 19938.5 1427.47 13
-8 -1 -3 18399.1 1420.3 3
8 -1 3 20517.2 1479.88 5
8 -1 3 19139.7 1402.36 8
-8 -1 -4 1198.51 553.463 1
8 -1 4 1003.36 302.97 15
8 -1 4 724.373 447.677 13
-8 -1 -4 491.672 394.588 3
8 -1 4 893.991 446.057 5
8 -1 4 1689.71 504.601 8
8 -1 5 345.761 488.909 13
-8 -1 -5 509.552 419.394 3
8 -1 5 923.167 455.973 5
8 -1 5 661.929 475.75 8
-8 -1 -5 -16.9522 398.69 1
8 -1 6 1700.87 596.415 13
-8 -1 -6 1066.05 507.618 3
8 -1 6 633.311 558.575 5
8 -1 6 407.222 367.633 8
-8 -1 -6 538.906 502.994 1
8 -1 7 3647.36 788.695 13
-8 -1 -7 3576.42 772.615 3
8 -1 7 3302.07 727.774 5
8 -1 7 3363.31 652.284 8
-8 -1 -7 4339.34 838.287 1
8 -1 8 5695.9 933.91 13
-8 -1 -8 5816.82 944.82 3
8 -1 8 6010.14 973.434 5
-8 -1 -8 6728.1 1025.44 1
8 -1 9 937.756 615.12 13
-8 -1 -9 567.801 457.71 3
-8 -1 -9 1686.34 630.798 1
8 -1 9 2272.01 766.07 5
-8 -1 -10 4989.4 902.889 3
8 -1 10 4910.58 1013.48 5
-8 -1 -11 -205.13 463.315 3
8 0 -14 3414.14 1007.56 2
-8 0 14 8573.6 1118.59 18
-8 0 13 15302.6 1533.28 12
-8 0 13 19669.8 1530.21 10
-8 0 13 17718.8 1563.12 18
-8 0 13 18196.6 1774.11 4
-8 0 13 17194.1 1651.64 16
8 0 -13 15797.8 1607.37 7
8 0 -12 1021.24 569.92 7
-8 0 12 -676.18 507.403 12
-8 0 12 245.408 384.169 10
8 0 -12 608.733 550.145 2
-8 0 12 512.112 474.808 18
-8 0 12 18.3389 440.266 16
-8 0 12 227.873 538.01 4
8 0 -11 1201.75 613.342 7
-8 0 11 287.883 387.249 12
-8 0 11 622.49 385.391 10
8 0 -11 1190.08 521.655 2
-8 0 11 127.9 407.065 18
-8 0 11 627.767 558.972 16
-8 0 11 481.454 484.717 4
8 0 -10 5620.2 927.967 7
-8 0 10 6175.09 919.498 12
8 0 -10 3921.95 630.551 2
-8 0 10 5722.37 864.549 18
8 0 -10 5266.57 743.464 8
-8 0 10 5162.2 858.703 16
-8 0 10 4488.24 877.752 4
8 0 -9 5271.85 834.828 7
-8 0 9 5504.04 862.366 12
8 0 -9 3964.61 616.196 2
-8 0 9 5045.55 810.045 18
8 0 -9 4420.56 637.23 8
-8 0 9 4798.69 804.212 16
-8 0 9 4487.9 753.294 4
-8 0 8 22438.1 1166.42 3
-8 0 8 22365.4 1568.77 18
8 0 -8 22878.9 1460.59 8
-8 0 8 23180.9 1602.33 4
-8 0 8 21663.9 1590.38 16
8 0 -8 21807.1 1576.36 7
8 0 -8 15944.4 1148.24 2
-8 0 7 16106.7 999.08 3
-8 0 7 15579.8 1288.47 18
-8 0 7 12043.4 1212.95 4
8 0 -7 15263.4 1178.7 8
-8 0 7 14566.1 1262.2 16
8 0 -7 15137.2 1265.44 7
8 0 -7 10745.4 856.206 2
8 0 -6 608.222 404.671 7
-8 0 6 623.154 212.091 1
-8 0 6 472.159 266.115 3
8 0 -6 273.675 99.375 11
8 0 -6 515.047 244.692 2
-8 0 6 719.681 369.141 18
8 0 -6 -86.8321 339.598 8
-8 0 6 219.002 371.121 4
8 0 -5 8801.52 628.106 6
-8 0 5 8948.8 801.076 3
-8 0 5 9408.62 687.706 1
-8 0 5 8173.23 891.475 18
-8 0 5 8484.92 1025.02 4
8 0 -5 9016.68 899.377 8
8 0 -5 9970.02 979.804 7
8 0 -5 6052.64 530.43 2
8 0 -4 23973.2 1019.45 14
8 0 -4 23431 954.565 6
-8 0 4 24343.6 1363.36 3
-8 0 4 24389 1220.73 1
-8 0 4 22230.1 1455.46 18
8 0 -4 20817.6 1373.96 8
8 0 -4 22943.9 1446.21 7
8 0 -3 1757.9 201.789 6
8 0 -3 2816.96 324.892 14
8 0 -3 2516.48 562.858 13
-8 0 3 3000.41 521.787 3
8 0 -3 3002.32 502.847 5
-8 0 3 2472.22 555.291 18
8 0 -3 3173.61 571.171 8
8 0 -3 3407.66 267.81 2
-8 0 3 3764.58 510.542 1
8 0 -3 3941.72 599.666 7
-8 0 2 3331.16 503.823 1
8 0 -2 2697.95 293.733 14
8 0 -2 3010.07 606.967 13
-8 0 2 3015.71 494.788 3
8 0 -2 2632.36 450.83 5
-8 0 2 3005.31 558.519 18
8 0 -2 2441.55 546.975 8
8 0 -1 68505.6 2025.43 14
8 0 -1 63636.9 2679.2 13
-8 0 1 63012.9 2643.31 3
-8 0 1 65991.2 2592.85 1
8 0 -1 64118.1 2572.93 5
-8 0 1 61106.6 2574.54 18
8 0 -1 61819.6 2702.15 8
8 0 0 4487.6 404.525 14
8 0 0 4258.91 649.464 13
-8 0 0 4785.01 689.022 3
8 0 0 4410.02 652.916 5
-8 0 0 4306.38 595.253 18
8 0 0 4667.63 719.676 8
-8 0 0 4774.71 652.788 1
8 0 1 2295.41 523.846 13
-8 0 -1 2436.79 535.065 3
8 0 1 1542.12 481.039 5
8 0 1 2386.85 537.562 8
-8 0 -1 3270.9 590.503 1
8 0 2 21249.7 1279.38 15
8 0 2 19821.8 1406.32 13
-8 0 -2 21419.8 1480.89 3
-8 0 -2 21193.8 1414.29 1
8 0 2 19820.1 1439.68 5
8 0 2 20247.1 1428.88 8
8 0 3 45868.7 1952.2 15
8 0 3 44095 2256.44 13
-8 0 -3 44573.9 2270.05 1
-8 0 -3 40941.9 2206.37 3
8 0 3 43473.6 2261.08 5
8 0 3 44587.8 2242.59 8
8 0 4 14149.6 967.494 15
8 0 4 14123.1 1251.24 13
-8 0 -4 14611.3 1278.74 1
-8 0 -4 13318.4 1223.04 3
8 0 4 12386.9 1184.12 5
8 0 4 13817.4 1218.42 8
8 0 5 -24.4076 218.359 15
8 0 5 -18.8573 428.483 13
-8 0 -5 -6.3522 236.451 11
-8 0 -5 -495.691 392.038 3
-8 0 -5 129.271 332.108 1
8 0 5 92.5403 369.962 5
8 0 5 -136.535 367.24 8
8 0 6 6001.51 942.121 13
-8 0 -6 6358.48 903.209 1
-8 0 -6 4711.28 638.544 11
-8 0 -6 5647.97 831.668 3
8 0 6 4812.58 836.359 5
8 0 7 4238.17 768.453 13
-8 0 -7 4298.1 813.691 1
-8 0 -7 1923.27 454.032 11
-8 0 -7 2842.31 666.521 3
8 0 7 3273.53 747.975 5
-8 0 -8 73.4129 515.142 1
8 0 8 512.814 575.934 13
-8 0 -8 -668.276 432.418 11
-8 0 -8 751.149 514.752 3
8 0 8 272.522 390.424 5
-8 0 -9 -541.116 542.147 1
8 0 9 -478.843 585.709 13
-8 0 -9 -722.543 475.861 11
-8 0 -9 278.311 509.616 3
8 0 9 691.781 564.234 5
-8 0 -10 130.407 465.967 1
-8 0 -10 -161.547 445.262 11
-8 0 -10 1024.49 642.577 3
8 0 10 1133.65 635.342 5
-8 0 -11 -1486.41 624.722 11
-8 0 -11 1327.95 593.954 3
-8 1 14 1515.3 603.077 10
8 1 -14 1333.07 712.661 2
-8 1 13 1173.16 496.694 12
-8 1 13 1568.32 612.424 10
8 1 -13 -37.2287 447.597 2
-8 1 13 680.036 526.001 18
8 1 -12 2200.87 688.638 7
-8 1 12 1016.07 540.867 12
-8 1 12 3416.95 800.421 10
8 1 -12 1051 556.408 2
-8 1 12 1393.18 552.112 18
-8 1 12 2398.74 762.402 16
-8 1 12 2501.98 792.2 4
8 1 -11 1567.33 658.097 7
-8 1 11 -234.625 458.332 12
-8 1 11 655.996 515.544 10
8 1 -11 -62.8657 389.958 2
-8 1 11 535.357 510.466 18
-8 1 11 511.974 461.064 16
-8 1 11 945.735 625.064 4
8 1 -10 460.809 508.332 7
-8 1 10 515.01 493.143 12
8 1 -10 828.396 481.877 2
-8 1 10 234.818 399.091 18
-8 1 10 193.338 485.168 16
-8 1 10 -258.544 507.219 4
8 1 -9 1185.38 551.674 7
8 1 -9 1179.56 343.323 11
8 1 -9 440.167 382.837 2
-8 1 9 1796.79 554.368 18
8 1 -9 1507.21 373.174 8
-8 1 9 1295.87 582.4 16
-8 1 9 860.661 447.43 4
8 1 -8 3770.56 726.165 7
8 1 -8 4814.81 538.475 11
8 1 -8 3575.29 593.356 2
-8 1 8 3162.53 621.893 18
8 1 -8 4916.06 641.891 8
-8 1 8 4445.92 753.841 16
-8 1 8 3161.01 672.568 4
8 1 -7 820.063 445.826 7
8 1 -7 -343.47 296.54 2
-8 1 7 427.141 240.065 3
-8 1 7 685.915 397.242 18
8 1 -7 -55.4332 271.242 8
-8 1 7 -487.735 482.972 4
-8 1 7 95.8835 385.224 16
8 1 -6 3138.96 505.193 2
-8 1 6 3531.62 486.677 3
-8 1 6 4036.39 709.589 18
8 1 -6 3987 620.999 8
-8 1 6 3496.67 651.334 4
-8 1 6 4174.95 746.702 16
8 1 -6 3663.19 646.457 7
8 1 -5 3942.37 543.918 2
-8 1 5 4787.84 567.493 3
8 1 -5 3818.18 469.454 5
-8 1 5 4127.16 678.415 18
8 1 -5 4176.24 624.006 8
-8 1 5 5120.84 770.396 4
8 1 -5 3953.97 660.696 7
8 1 -4 3401.72 460.168 2
-8 1 4 4330.68 573.207 3
8 1 -4 3633.91 482.624 5
-8 1 4 4308.61 679.699 18
8 1 -4 4158.57 621.463 8
-8 1 4 5667.16 791.162 4
8 1 -4 3954.75 672.335 7
8 1 -3 287.06 177.809 6
8 1 -3 223.171 182.258 2
8 1 -3 -135.541 385.088 13
-8 1 3 50.7532 291.713 3
8 1 -3 -304.744 263.221 5
8 1 -3 185.318 358.131 8
-8 1 3 212.007 373.939 18
8 1 -2 1119.71 433.103 15
8 1 -2 1634.61 291.461 2
8 1 -2 1369.36 454.182 13
8 1 -2 1702.45 239.651 11
-8 1 2 2359.96 519.245 3
8 1 -2 2019.15 420.95 5
-8 1 2 1987.04 460.22 18
8 1 -2 841.035 393.649 8
8 1 -1 3816.91 638.307 15
8 1 -1 2601.45 554.509 13
8 1 -1 3927.22 369.969 11
-8 1 1 3019.15 541.806 3
8 1 -1 3392.08 531.615 5
8 1 -1 2741.65 355.718 2
-8 1 1 3993.13 583.979 18
8 1 -1 3317.96 627.602 8
8 1 0 26008.7 1583.47 15
8 1 0 26959.7 1611.49 13
-8 1 0 27915.2 1663.76 3
8 1 0 31288.2 1247.51 11
8 1 0 26425 1573.17 5
-8 1 0 28285.7 1530.11 18
8 1 0 26315.3 1642.21 8
8 1 1 47950.1 2226.27 15
8 1 1 49616.2 2324.07 13
-8 1 -1 48532.6 2360.35 3
-8 1 -1 50818.6 2395.81 1
8 1 1 49759.3 2339.54 5
-8 1 -1 51011.5 2132.65 18
8 1 1 48949.6 2380.87 8
8 1 2 4768.55 653.527 15
-8 1 -2 4872.28 729.81 1
8 1 2 5694.75 800.995 13
-8 1 -2 5108.61 445.794 11
-8 1 -2 4943.69 754.339 3
8 1 2 5057.4 710.798 5
-8 1 -2 4941.48 582.971 18
8 1 2 4289.77 703.289 8
8 1 3 20395.8 1310.27 15
8 1 3 19985.6 1466.63 13
-8 1 -3 18285.1 1442.29 3
-8 1 -3 19845 1468.99 1
-8 1 -3 19132.4 1034.04 11
8 1 3 17146.6 1404.5 5
8 1 3 19977.5 1497.04 8
-8 1 -4 1295.8 547.346 1
8 1 4 999.314 376.589 15
8 1 4 1663.29 552.021 13
-8 1 -4 1434.68 346.004 11
-8 1 -4 1189.63 498.357 3
8 1 4 1343.77 500.908 5
8 1 5 148.938 256.985 15
8 1 5 809.07 533.178 13
-8 1 -5 597.695 302.736 11
-8 1 -5 623.091 398.255 3
8 1 5 501.503 493.415 5
-8 1 -5 100.52 374.307 1
8 1 5 268.601 259.052 18
8 1 6 1034.73 366.191 15
8 1 6 337.124 418.289 13
-8 1 -6 1092.13 504.18 1
-8 1 -6 1034.14 385.952 11
-8 1 -6 429.529 413.327 3
8 1 6 495.004 527.633 5
8 1 6 649.238 316.544 18
-8 1 -7 3045.79 749.544 1
8 1 7 2482.07 692.581 13
-8 1 -7 3801.42 666.524 11
-8 1 -7 3082.42 689.42 3
8 1 7 3054.45 726.653 5
8 1 8 6554.69 1029.45 13
-8 1 -8 7931.82 937.944 11
-8 1 -8 6343.14 958.16 3
8 1 8 6724.31 1050.61 5
-8 1 -8 7206.56 1058.54 1
-8 1 -9 2645.63 636.185 11
-8 1 -9 1187.44 513.977 3
8 1 9 1467.45 612.172 5
-8 1 -9 1404.18 629.993 1
-8 1 -10 5776.73 887.375 11
-8 1 -10 5333.53 962.015 3
-8 1 -11 7.27691 378.996 11
8 2 -13 2279.67 608.025 15
-8 2 13 2611.68 757.946 12
8 2 -13 2725.3 811.087 2
8 2 -12 854.701 549.332 7
-8 2 12 1706.32 647.148 15
8 2 -12 0.43487 431.722 15
-8 2 12 1423.97 554.559 12
8 2 -12 420.927 503.321 2
-8 2 12 823.888 496.132 10
-8 2 12 1069.75 592.452 18
-8 2 12 693.673 632.672 4
8 2 -11 593.537 509.088 7
-8 2 11 1906.42 689.214 15
8 2 -11 353.927 431.688 15
-8 2 11 1661.15 592.86 12
8 2 -11 1598.85 655.138 2
-8 2 11 1363.91 548.109 10
-8 2 11 1866.39 628.32 18
-8 2 11 1409.92 648.764 16
-8 2 11 1301.9 603.907 4
8 2 -10 731.281 526.069 7
-8 2 10 -194.434 473.525 15
8 2 -10 920.539 475.195 15
8 2 -10 292.496 386.413 2
-8 2 10 -457.431 511.446 10
-8 2 10 616.792 509.066 18
-8 2 10 1004.38 578.312 16
-8 2 10 309.477 463.883 4
-8 2 9 1134.64 474.409 15
8 2 -9 1010.42 511.404 15
8 2 -9 1835.99 584.275 2
-8 2 9 459.581 371.829 18
-8 2 9 757.678 539.323 16
-8 2 9 1319.93 568.376 4
8 2 -9 923.33 541.411 7
-8 2 8 5274.09 852.791 15
8 2 -8 5715.29 844.204 15
8 2 -8 3726.2 751.643 2
-8 2 8 4915.32 829.681 18
8 2 -8 5469.83 679.044 8
-8 2 8 4848.2 865.027 16
-8 2 8 5099.32 874.286 4
8 2 -8 6328.37 941.183 7
-8 2 7 1730.78 507.342 15
8 2 -7 2257.25 541.09 15
8 2 -7 1859.12 577.008 2
-8 2 7 2647.01 418.535 3
-8 2 7 1678.35 541.721 18
8 2 -7 1813.69 458.713 8
-8 2 7 2516.06 637.648 16
-8 2 7 2088.99 623.391 4
8 2 -7 1235.11 491.622 7
-8 2 6 1306.4 498.536 15
8 2 -6 925.275 454.254 15
8 2 -6 1369.39 406.647 2
-8 2 6 562.439 262.755 3
-8 2 6 965.998 459.06 18
8 2 -6 1456.05 448.423 8
-8 2 6 100.438 407.546 4
-8 2 6 1074.86 501.099 16
8 2 -6 412.031 394.351 7
8 2 -5 11885.1 1159.16 15
-8 2 5 12253.5 971.79 3
8 2 -5 13636.8 920.178 5
-8 2 5 14118.3 846.418 9
-8 2 5 12545.6 1186.88 18
8 2 -5 12741.9 1073.03 8
-8 2 5 12302.4 1142.47 4
8 2 -5 13608.1 1075.24 2
-8 2 5 13236.3 1210.04 16
-8 2 5 11399 1120.41 15
-8 2 4 7050.58 894.371 15
8 2 -4 5498.81 799.599 15
-8 2 4 6255.39 721.97 3
8 2 -4 6375.69 775.39 13
8 2 -4 7337.71 709.993 5
-8 2 4 7323.4 647.494 9
-8 2 4 6834.7 849.849 18
8 2 -4 6555.27 773.67 8
8 2 -4 5788.97 692.451 2
-8 2 4 6962.45 871.174 4
-8 2 4 6723.29 828.404 16
-8 2 3 3141.37 598.587 15
8 2 -3 3820.17 713.917 15
8 2 -3 3280.01 508.578 2
8 2 -3 4087.45 633.927 13
8 2 -3 3520.42 556.984 5
-8 2 3 2801.9 532.737 3
-8 2 3 4025.52 636.883 18
8 2 -3 3294.28 638.234 8
-8 2 3 3733.7 637.754 4
-8 2 2 197.288 342.662 15
8 2 -2 249.784 338.729 15
8 2 -2 346.788 264.675 2
8 2 -2 166.217 369.012 13
8 2 -2 513.163 342.674 5
-8 2 2 402.968 333.171 3
-8 2 2 394.674 358.841 18
8 2 -1 10376.9 1055.32 15
8 2 -1 9767.96 940.007 13
-8 2 1 9909.95 983.5 3
8 2 -1 10525.4 981.895 5
-8 2 1 9722.15 964.286 18
8 2 -1 10078.4 816.607 2
-8 2 1 10341.3 948.522 15
8 2 0 1612.79 387.594 2
8 2 0 1514.47 509.237 15
8 2 0 2381.41 539.109 13
8 2 0 1404.41 462.671 5
-8 2 0 3158.23 632.024 3
-8 2 0 1607.41 462.741 18
8 2 1 2250.52 551.626 15
8 2 1 2631.41 551.75 13
8 2 1 2308.2 585.652 5
-8 2 -1 2502.18 595.58 3
-8 2 -1 2299.12 468.646 18
8 2 2 26437.1 1693.3 15
8 2 2 28769 1726.36 13
-8 2 -2 27623.9 1800.24 3
8 2 2 29317.4 1804.06 5
-8 2 -2 28642.1 1494.68 18
8 2 3 3355.33 678.607 15
8 2 3 3531.03 680.583 13
8 2 3 3976.87 744.728 5
-8 2 -3 3533.01 700.384 3
-8 2 -3 4676.05 554.644 18
8 2 3 3864.19 702.43 18
8 2 4 4528.45 699.367 15
8 2 4 3771.71 712.63 13
8 2 4 4617.67 815.537 5
-8 2 -4 4464.44 800.733 3
8 2 4 4151.81 687.428 18
8 2 5 8757.03 1048.82 13
8 2 5 8402.23 1078.29 5
-8 2 -5 7705.68 1046.48 3
8 2 5 8330.66 958.414 18
-8 2 -5 7993.03 1090.99 1
8 2 5 7429.53 881.689 15
8 2 6 458.807 364.041 15
8 2 6 557.72 420.97 13
8 2 6 214.114 457.777 5
-8 2 -6 415.862 507.914 3
-8 2 -6 436.426 490.489 1
-8 2 -6 202.595 417.155 9
8 2 6 864.383 409.815 18
8 2 7 5675.97 782.5 15
8 2 7 5899.07 939.056 13
-8 2 -7 5780.24 995.01 1
-8 2 -7 6673.67 988.193 3
8 2 7 5748.18 1004.91 5
-8 2 -7 6006.55 997.175 9
8 2 7 6450.04 810.994 18
8 2 8 1349.19 632.363 13
-8 2 -8 1645.72 672.618 3
8 2 8 1534.53 686.359 5
-8 2 -8 1193.45 479.655 9
-8 2 -8 626.25 532.813 1
8 2 9 455.707 553.141 13
-8 2 -9 816.72 552.941 3
8 3 -12 502.19 480.411 15
-8 3 12 -6.82932 414.617 12
8 3 -11 1461.64 611.242 15
8 3 -11 1891.03 598.645 2
-8 3 11 2200.06 716.894 4
8 3 -11 2171.88 755.385 7
-8 3 10 1144.54 572.522 15
8 3 -10 1698.38 619.985 15
8 3 -10 1878.09 656.282 2
-8 3 10 1998.99 727.907 10
-8 3 10 1435.84 612.302 18
-8 3 10 2037.57 718.441 16
-8 3 10 2238.4 737.615 4
8 3 -10 1971.87 672.775 7
-8 3 9 -237.819 507.568 15
8 3 -9 323.698 448.951 15
8 3 -9 324.377 464.231 2
-8 3 9 212.688 578.393 10
-8 3 9 -66.6754 438.255 18
-8 3 9 758.246 559.487 16
-8 3 9 112.383 511.762 4
8 3 -9 337.408 387.02 7
-8 3 8 5127.03 952.598 15
8 3 -8 3014.92 714.232 15
8 3 -8 3740.52 773.485 2
-8 3 8 3133.66 727.669 10
-8 3 8 4653.66 833.239 18
-8 3 8 2925.83 729.225 16
-8 3 8 3430.08 723.664 4
8 3 -8 5584.92 949.94 7
-8 3 7 5045.19 844.624 15
8 3 -7 4775.11 853.957 15
8 3 -7 5124.76 839.751 2
-8 3 7 5510.28 911.75 18
-8 3 7 6049.34 934.908 16
-8 3 7 6323.2 901.598 4
-8 3 6 5011.75 823.375 15
8 3 -6 5051.56 851.96 15
-8 3 6 6325.56 745.183 3
8 3 -6 5989.13 823.262 2
-8 3 6 4867.66 823.766 18
-8 3 6 4346.38 792.368 16
-8 3 6 5556.22 847.254 4
-8 3 5 7949.52 998.538 15
8 3 -5 7563 1016.36 15
8 3 -5 7871.47 882.448 13
8 3 -5 8025.8 951.468 2
-8 3 5 9691.13 920.197 3
-8 3 5 8061.77 1024.58 18
-8 3 5 9093.71 1026.22 16
-8 3 5 7531.28 900.797 4
-8 3 4 6712.87 920.321 15
8 3 -4 6174.57 914.069 15
8 3 -4 6793.67 830.648 13
8 3 -4 7312.29 809.616 5
-8 3 4 8667.58 757.409 9
-8 3 4 7149.85 847.28 3
-8 3 4 7497.93 949.476 18
8 3 -4 6456.25 906.259 2
-8 3 4 6257.89 790.905 4
-8 3 4 6744.6 879.28 16
-8 3 3 4425.15 742.553 15
8 3 -3 5046.76 854.766 15
8 3 -3 4467.84 713.883 2
8 3 -3 4012.46 647.187 13
8 3 -3 4523.16 703.96 5
-8 3 3 5625.68 792.353 3
-8 3 3 4816.49 635.89 9
-8 3 3 4354.36 729.296 18
-8 3 3 5126.89 716.26 4
-8 3 3 5721.6 806.418 16
-8 3 2 2988.99 661.478 15
8 3 -2 3025.43 703.879 15
8 3 -2 1307.75 489.96 2
8 3 -2 2697.82 533.031 13
8 3 -2 1940.68 467.452 5
-8 3 2 1872.12 562.652 3
-8 3 2 2644.81 529.9 9
-8 3 2 1781.2 528.956 18
-8 3 2 2918.66 572.889 4
-8 3 2 1910.08 514.736 16
-8 3 1 1049.42 428.849 15
8 3 -1 1763.58 533.158 15
8 3 -1 2316.17 576.881 2
8 3 -1 2353.59 525.312 13
8 3 -1 2747.16 552.159 5
-8 3 1 2314.36 563.173 9
-8 3 1 1802.15 549.141 3
-8 3 1 2262.38 534.77 18
-8 3 1 2186.65 568.175 4
-8 3 0 1968.79 497.367 15
8 3 0 1550.22 509.24 2
8 3 0 1922.44 583.175 15
8 3 0 2110.93 519.512 13
8 3 0 1406.23 524.701 5
-8 3 0 1392.22 475.42 9
-8 3 0 1844.49 554.135 3
-8 3 0 2355.08 523.944 18
8 3 0 1444.69 505.521 18
-8 3 -1 4393.67 641.306 15
8 3 1 3947.01 638.818 2
8 3 1 3634.5 710.573 15
8 3 1 4690.49 697.403 13
8 3 1 3543 758.609 5
-8 3 -1 4694.95 781.913 9
-8 3 -1 3956.1 765.987 3
-8 3 -1 4507.37 655.075 18
8 3 1 3719.1 716.933 18
-8 3 -2 49.3162 281.472 15
8 3 2 3.88069 394.148 15
8 3 2 215.287 418.995 13
8 3 2 247.682 454.235 5
-8 3 -2 740.566 456.08 9
-8 3 -2 -8.02933 436.773 3
-8 3 -2 130.128 289.381 18
8 3 2 894.401 469.712 18
8 3 3 454.211 463.304 15
8 3 3 411.476 353.487 13
8 3 3 475.233 462.206 5
-8 3 -3 1113.84 515.498 9
-8 3 -3 530.83 415.927 3
8 3 3 -458.68 441.859 18
8 3 4 278.267 410.122 15
8 3 4 530.807 444.979 13
8 3 4 440.699 477.116 5
-8 3 -4 365.173 397.652 3
-8 3 -4 367.618 458.684 9
8 3 4 526.83 405.234 18
8 3 5 2994.28 655.521 15
8 3 5 2708.61 647.501 13
8 3 5 2480.76 670.025 5
-8 3 -5 2769.07 723.864 3
-8 3 -5 3015.65 760.612 9
8 3 5 3190.16 699.683 18
8 3 6 12805.7 1262.81 13
8 3 6 11205.5 1327.7 10
8 3 6 10491.9 1309.02 5
-8 3 -6 10991.5 1311.69 9
-8 3 -6 10986.3 1307.45 3
8 3 6 10016.9 1138.14 18
8 3 6 12353.5 1259.59 15
8 3 7 1119.21 489.838 15
8 3 7 1683.71 586.151 13
8 3 7 1278.53 681.119 5
8 3 7 2196.78 767.484 10
-8 3 -7 772.407 503.412 3
-8 3 -7 696.264 567.418 9
8 3 7 1307.5 493.895 18
8 3 8 2033.17 658.5 13
8 3 9 3354.54 819.754 13
8 4 -10 -678.008 559.418 15
-8 4 10 -654.543 522.291 4
8 4 -9 309.443 439.894 15
8 4 -9 732.946 537.026 2
-8 4 9 1353.9 664.634 16
8 4 -8 853.209 437.064 15
8 4 -8 1397.02 648.55 2
-8 4 8 1294.63 580.795 16
-8 4 7 3236.65 798.946 15
8 4 -7 3010.93 725.626 15
8 4 -7 2893.35 784.085 2
-8 4 7 4485.89 885.885 10
-8 4 7 2660.44 781.52 18
-8 4 7 3832.06 774.685 16
-8 4 6 9780.89 1220.65 15
-8 4 6 10138 1232.39 10
-8 4 6 9805.88 1247.32 18
8 4 -6 12642.4 1359.67 2
-8 4 6 11124.2 1231.64 16
8 4 -6 11030.8 1294.86 15
-8 4 5 3310.47 764.999 15
8 4 -5 2205.17 688.813 15
8 4 -5 2450.57 721.957 2
-8 4 5 4186.9 721.786 3
-8 4 5 3432.39 772.048 18
-8 4 5 2877.74 658.611 16
-8 4 4 4430.88 777.352 15
8 4 -4 6149.94 983.605 15
8 4 -4 6932.68 984.866 2
-8 4 4 6398.77 918.299 3
-8 4 4 5186.69 885.34 18
8 4 -4 4614.42 918.113 18
-8 4 4 5693.86 823.881 16
-8 4 3 1265.19 535.678 15
8 4 -3 162.398 383.873 15
8 4 -3 1005.95 545.962 2
8 4 -3 474.03 431.572 5
-8 4 3 32.9336 376.259 18
8 4 -3 395.551 517.58 18
-8 4 3 577.94 464.614 16
-8 4 2 2261.49 646.529 15
8 4 -2 3692.59 823.073 15
8 4 -2 3093.96 670.429 2
8 4 -2 2509.02 655.193 5
-8 4 2 2520.7 542.638 9
-8 4 2 2264.54 576.014 18
8 4 -2 2799.02 729.17 18
-8 4 1 576.328 447.922 15
8 4 -1 288.685 437.237 15
8 4 -1 853.214 450.475 2
8 4 -1 -166.095 439.191 5
-8 4 1 113.724 379.108 9
-8 4 1 583.829 438.824 18
8 4 -1 443.682 469.843 18
-8 4 0 3364.76 666.896 15
8 4 0 4381.19 826.645 2
8 4 0 2903.87 752.43 15
8 4 0 3082.23 730.547 5
-8 4 0 1896.72 519.028 9
-8 4 0 3641.51 714.587 18
8 4 0 2305.2 655.909 18
8 4 1 4200.22 831.037 2
8 4 1 1964.77 636.056 15
8 4 1 2990.25 723.636 5
-8 4 -1 4038.76 736.261 9
8 4 1 2159.19 603.257 18
8 4 2 6049.54 937.451 2
8 4 2 6008.89 984.401 15
8 4 2 5664.84 1007.18 5
-8 4 -2 7334.6 1028.09 9
-8 4 -2 4963.25 917.644 3
8 4 2 4854.8 920.71 18
8 4 3 3291.62 713.682 15
8 4 3 4194.09 861.182 5
-8 4 -3 4035.1 873.462 9
-8 4 -3 2928.43 749.871 3
8 4 3 3333.48 804.173 18
8 4 4 3677.73 810.615 15
8 4 4 5246.23 1009.61 5
8 4 4 4808.79 939.186 10
-8 4 -4 5611.96 1035.53 9
-8 4 -4 3700.7 849.199 3
8 4 4 5598.11 960.195 18
8 4 5 18.1567 423.399 15
8 4 5 957.17 651.393 10
-8 4 -5 485.613 510.907 9
8 4 5 -149.003 405.555 18
8 4 6 5029.27 924.261 15
8 4 6 6253.62 1027.3 18
8 4 7 1127.04 586.494 15
8 4 7 45.1577 430.784 18
8 4 7 1310.7 642.32 17
8 5 -4 859.843 615.07 2
-8 5 3 1807.74 638.775 15
8 5 -3 3203.52 832.167 2
-8 5 3 1535.43 666.384 10
-8 5 3 2676.31 723.167 18
-8 5 2 589.875 430.376 15
8 5 -2 514.556 640.164 2
8 5 -2 1940.62 706.871 5
-8 5 2 1811.28 597.803 18
-8 5 1 743.309 521.425 15
8 5 -1 2418.12 814.381 2
8 5 -1 825.566 449.594 5
-8 5 1 1694.32 646.278 18
8 5 0 2329.05 774.854 2
8 5 0 1411.69 673.898 5
-8 5 0 2510.75 690.02 9
8 5 1 2752.66 803.994 2
-8 5 -1 -252.494 495.032 9
8 5 2 1497.59 714.135 2
-8 5 -2 1223.58 540.109 9
-9 -5 2 2845.51 843.84 1
-9 -4 8 725.095 492.893 6
-9 -4 8 765.761 592.437 12
9 -4 -7 1502.21 652.038 14
9 -4 -7 655.036 442.286 13
-9 -4 7 721.887 485.852 6
-9 -4 7 1314.4 500.158 12
9 -4 -6 5104.06 892.721 14
9 -4 -6 4134.51 785.895 13
-9 -4 6 4507.01 789.464 6
9 -4 -5 6258.03 994.543 14
9 -4 -5 5901.5 866.137 13
-9 -4 5 6391.48 920.314 6
-9 -4 5 6440.27 1043.81 3
-9 -4 5 5984.51 925.239 4
9 -4 -5 6623.58 1041.29 8
9 -4 -4 750.328 443.35 14
9 -4 -4 539.06 407.18 13
-9 -4 4 540.437 486.58 6
-9 -4 4 845.315 501.194 3
-9 -4 4 2025.58 585.594 4
9 -4 -4 969.206 631.988 8
9 -4 -3 244.76 412.99 14
9 -4 -3 444.292 440.509 13
-9 -4 3 1260.09 508.418 6
-9 -4 3 900.365 621.848 3
-9 -4 3 689.613 530.431 1
9 -4 -3 1202.22 568.304 8
9 -4 -2 3112.5 702.165 14
9 -4 -2 3516.59 644.124 13
-9 -4 2 2924.69 619.183 6
-9 -4 2 3080.66 818.762 3
-9 -4 2 3523.88 752.89 1
9 -4 -2 3122.03 723.671 8
9 -4 -1 2528.89 696.594 14
9 -4 -1 4150.94 725.28 13
-9 -4 1 3448.14 701.063 6
-9 -4 1 3089.55 822.96 3
-9 -4 1 4728.53 892.701 1
9 -4 -1 3130.59 758.177 8
9 -4 0 1553.18 593.513 14
9 -4 0 785.6 473.655 13
-9 -4 0 530.91 459.368 6
-9 -4 0 1126.92 640.308 3
-9 -4 0 9.67209 421.97 1
9 -4 0 36.1215 412.098 8
9 -4 1 846.774 500.098 14
9 -4 1 1307.38 526.089 13
-9 -4 -1 441.739 573.493 3
9 -4 1 1635.32 594.217 8
-9 -4 -1 1403.43 675.336 1
9 -4 2 1931.61 626.205 14
9 -4 2 3136.66 645.567 13
9 -4 2 2962.88 742.138 8
-9 -4 -2 3740.14 873.853 1
9 -4 3 8865.79 1199.78 14
9 -4 3 6408.9 892.222 13
9 -4 3 8663.39 1127.53 8
9 -4 4 7801.96 1076.23 8
-9 -3 12 2466.19 764.783 4
9 -3 -11 3616.06 842.38 7
-9 -3 11 3509.35 850.753 6
-9 -3 11 3970.56 833.775 4
9 -3 -10 811.72 552.375 7
-9 -3 10 358.072 446.94 6
9 -3 -10 950.853 582.429 8
-9 -3 10 907.994 549.42 4
9 -3 -9 3231.69 754.437 7
-9 -3 9 4734.22 850.382 6
-9 -3 9 3359.57 764.369 12
9 -3 -9 4967.11 905.796 8
-9 -3 9 3946.78 760.599 16
-9 -3 9 2521.4 618.962 4
9 -3 -8 2407.59 635.174 7
-9 -3 8 1368.08 472.541 6
-9 -3 8 2635.3 717.661 12
9 -3 -8 1379.65 594.962 8
-9 -3 8 1810.31 558.481 4
9 -3 -7 2959.46 615.274 7
-9 -3 7 3196.32 707.373 3
-9 -3 7 3646.73 669.148 6
-9 -3 7 4645.61 804.466 12
9 -3 -7 4395.47 836.612 8
-9 -3 7 3906.69 762.781 4
9 -3 -6 6626.79 841.993 7
9 -3 -6 8250.09 1016 14
9 -3 -6 6810.31 939.767 13
-9 -3 6 7565.56 885.353 6
-9 -3 6 7959.6 1072.31 3
-9 -3 6 7042.13 916.449 12
-9 -3 6 7689.12 945.074 4
9 -3 -6 5481.92 922.997 8
9 -3 -5 1028.91 396.922 7
9 -3 -5 942.677 452.908 14
9 -3 -5 327.289 395.153 13
-9 -3 5 1328.59 438.127 6
-9 -3 5 1598.8 559.398 3
-9 -3 5 798.689 454.507 12
-9 -3 5 1518.32 561.997 4
9 -3 -5 1051.89 521.189 8
9 -3 -4 1805.12 542.189 14
9 -3 -4 2609.38 636.875 13
-9 -3 4 2507.09 562.165 6
-9 -3 4 1873.36 593.514 3
-9 -3 4 3007 626.997 12
-9 -3 4 2740.37 625.319 1
9 -3 -4 2037.12 664.712 8
9 -3 -3 2589.73 601.495 14
9 -3 -3 2081.68 554.503 13
-9 -3 3 2694.85 559.013 6
-9 -3 3 3468.41 742.788 3
-9 -3 3 3213.11 602.284 12
9 -3 -3 2373.91 627.49 8
-9 -3 3 2926.62 628.17 1
-9 -3 2 9249.6 929.814 6
9 -3 -2 7546.83 931.85 14
9 -3 -2 9777.9 1026.75 13
-9 -3 2 7397.41 812.698 12
-9 -3 2 6958.67 1046.61 3
9 -3 -2 7312.46 1024.06 8
-9 -3 2 8256.19 982.445 1
-9 -3 1 2820.51 657.257 1
9 -3 -1 2512.93 598.472 14
9 -3 -1 2355.25 613.386 13
-9 -3 1 2153.98 511.872 6
-9 -3 1 2222.56 653.186 3
9 -3 -1 1777.46 559.697 8
-9 -3 0 611.633 507.896 1
9 -3 0 2668.09 617.122 14
9 -3 0 2053.38 598.702 13
-9 -3 0 545.264 457.143 3
9 -3 0 2784.23 723.645 8
-9 -3 -1 3257.36 731.374 1
9 -3 1 2146.62 621.31 14
9 -3 1 3113.32 672.195 13
-9 -3 -1 2769.3 671.529 3
9 -3 1 3108.87 685.118 8
9 -3 2 1679.36 512.839 14
-9 -3 -2 1549.29 567.672 1
9 -3 2 1425.24 550.697 13
-9 -3 -2 994.55 579.593 3
9 -3 2 1616.19 564.318 8
9 -3 3 3560.9 742.863 14
-9 -3 -3 3095.5 717.044 1
9 -3 3 3308.41 659.767 13
-9 -3 -3 4095.77 839.832 3
9 -3 3 5202.48 864.081 8
9 -3 4 3501.38 739.794 14
-9 -3 -4 2415.94 765.51 1
9 -3 4 4574.94 838.605 13
-9 -3 -4 3179.61 746.689 3
9 -3 4 3066.74 684.64 8
9 -3 5 -216.223 412.131 14
-9 -3 -5 463.071 479.037 1
9 -3 5 883.259 587.079 13
-9 -3 -5 -158.073 472.894 3
9 -3 5 300.597 363.312 8
9 -3 6 3634.01 841.489 13
-9 -3 -6 3581.52 819.398 3
9 -3 7 -469.459 521.959 13
-9 -2 13 441.708 580.174 16
9 -2 -12 2802.9 721.485 8
-9 -2 12 3879.39 813.899 16
-9 -2 12 2063.98 715.263 4
9 -2 -11 2122.76 657.178 7
-9 -2 11 1696.5 527.586 6
-9 -2 11 1161.34 588.797 12
9 -2 -11 1162.91 554.924 8
-9 -2 11 2328.46 692.14 16
-9 -2 11 2845.63 743.367 4
9 -2 -10 1992.03 634.497 7
-9 -2 10 955.674 427.642 6
-9 -2 10 554.326 522.42 12
9 -2 -10 1107.87 492.912 8
-9 -2 10 1019.8 473.606 16
-9 -2 10 673.265 495.426 4
9 -2 -9 227.681 463.515 7
-9 -2 9 255.812 388.263 6
-9 -2 9 -262.603 475.107 12
9 -2 -9 75.4848 408.168 8
-9 -2 9 672.725 485.477 16
-9 -2 9 -615.563 614.022 4
9 -2 -8 1929.07 569.421 7
-9 -2 8 2266.36 553.786 3
-9 -2 8 2191.49 539.373 6
-9 -2 8 1289.69 575.434 12
9 -2 -8 2092.87 674.075 8
-9 -2 8 1992.88 587.071 4
9 -2 -7 5716.64 856.016 7
-9 -2 7 7485.46 825.94 6
-9 -2 7 5845.95 844.562 3
-9 -2 7 6291.91 889.546 12
9 -2 -7 5925.67 893.798 8
-9 -2 7 5835.41 846.388 4
-9 -2 6 11161.2 1093.2 3
-9 -2 6 10220.7 915.067 6
-9 -2 6 9943.17 1082.75 12
-9 -2 6 9270.25 1105.38 4
9 -2 -6 8231.08 1033.15 8
9 -2 -6 10294.9 1039.39 7
9 -2 -5 8934.01 895.411 14
-9 -2 5 8149.06 781.769 6
9 -2 -5 7628.84 954.48 13
-9 -2 5 8745.21 961.874 12
-9 -2 5 7346.69 898.432 3
-9 -2 5 8267.18 1023.9 4
9 -2 -5 6906.91 923.553 8
-9 -2 5 6687.58 705.762 1
9 -2 -5 8506.89 902.487 7
9 -2 -4 9052.08 903.846 14
-9 -2 4 8915.12 1010.96 3
-9 -2 4 8699.66 770.152 6
9 -2 -4 9655.38 1021.18 13
-9 -2 4 8460.05 930.144 12
9 -2 -4 9043.34 1065.13 8
9 -2 -4 8826.12 910.582 7
-9 -2 4 8864.07 814.502 1
9 -2 -3 5535.55 714.12 14
-9 -2 3 6170.28 647.828 6
-9 -2 3 5012.08 668.859 1
9 -2 -3 4683.32 745.713 13
-9 -2 3 6449.54 871.865 3
9 -2 -3 6575.08 933.446 8
9 -2 -3 4772.9 658.429 7
9 -2 -2 2269.53 491.817 14
9 -2 -2 2414.3 611.615 13
-9 -2 2 1847.77 479.88 1
-9 -2 2 1303.07 482.397 3
9 -2 -2 3132.32 659.356 8
9 -2 -1 1164.72 411.346 14
9 -2 -1 786.304 470.831 13
-9 -2 1 1610.78 449.806 1
-9 -2 1 1345.61 506.462 3
9 -2 -1 881.191 451.447 8
9 -2 0 1825.84 474.771 14
9 -2 0 1226.98 505.091 13
-9 -2 0 1289.06 452.412 3
-9 -2 0 1438.49 468.566 1
9 -2 0 2013.17 595.507 8
-9 -2 -1 16010.5 1344.04 1
9 -2 1 17581.5 1287.37 14
-9 -2 -1 17705.5 1490.65 3
9 -2 1 17496.9 1375.03 13
9 -2 1 18324.9 1459.5 8
9 -2 2 1126.57 442.362 14
9 -2 2 1399.76 512.424 13
-9 -2 -2 1158.14 456.322 3
-9 -2 -2 1688.97 528.332 1
9 -2 2 1996.81 582.065 8
9 -2 3 4325.08 679.336 14
9 -2 3 5408.44 881.296 13
-9 -2 -3 3718.94 741.32 3
-9 -2 -3 3207.87 712.062 1
9 -2 3 3983.56 717.352 8
9 -2 4 780.03 461.158 14
9 -2 4 80.521 423.367 13
-9 -2 -4 348.613 468.764 3
-9 -2 -4 600.281 497.964 1
9 -2 4 101.884 372.618 8
-9 -2 -5 9847.19 1246.44 1
-9 -2 -5 11130.6 1253.89 3
9 -2 5 10906.2 1198.98 13
9 -2 5 12151.5 1235.69 8
9 -2 6 4508.04 906.49 13
-9 -2 -6 2304.84 642.003 3
-9 -2 -6 2056.26 693.088 1
9 -2 6 2497.27 615.119 8
9 -2 7 862.764 563.295 13
-9 -2 -7 -48.9824 526.876 1
9 -2 7 659.784 465.888 8
-9 -2 -8 559.429 502.135 3
-9 -1 13 6732.44 1043.11 18
-9 -1 13 8659.41 1225.92 16
9 -1 -12 -51.3801 475.642 7
-9 -1 12 231.651 439.014 18
-9 -1 12 293.041 435.309 16
-9 -1 12 -1079.29 657.653 4
9 -1 -11 567.811 462.799 7
-9 -1 11 389.217 453.713 12
-9 -1 11 499.357 506.279 18
9 -1 -11 732.667 412.625 8
-9 -1 11 591.138 480.873 16
-9 -1 11 268.338 460.026 4
9 -1 -10 2858.05 725.625 7
-9 -1 10 2348.74 632.681 12
-9 -1 10 2925.11 716.612 18
9 -1 -10 2854.38 662.072 8
-9 -1 10 3534.39 800.584 16
-9 -1 10 2704.02 706.713 4
9 -1 -9 3570.63 749.941 7
-9 -1 9 3460.53 767.474 12
-9 -1 9 4725.67 802.032 18
9 -1 -9 3955.12 708.274 8
-9 -1 9 3864 773.51 16
-9 -1 9 3605.35 689.526 4
9 -1 -8 4581.45 804.104 7
-9 -1 8 5837.79 731.354 3
-9 -1 8 5225.12 832.323 12
-9 -1 8 4815.35 797.58 18
9 -1 -8 4793.79 798.834 8
-9 -1 8 4565.64 819.943 4
9 -1 -7 624.828 446.313 7
-9 -1 7 1310.18 403.06 6
-9 -1 7 136.48 301.593 3
-9 -1 7 1907.14 643.923 12
-9 -1 7 1064.04 493.556 18
9 -1 -7 1195.83 545.386 8
-9 -1 7 79.8872 415.098 4
9 -1 -6 1672.66 546.144 7
-9 -1 6 1561.96 349.91 6
-9 -1 6 1781.16 529.602 3
-9 -1 6 1795.22 507.592 18
9 -1 -6 1561.38 525.8 8
-9 -1 6 1839.03 677.577 4
-9 -1 5 13116.5 873.839 1
-9 -1 5 13610.3 1097.31 3
-9 -1 5 12787.9 1254.92 4
9 -1 -5 10578.2 1095.44 8
9 -1 -5 11097.7 1050.2 7
-9 -1 4 19493.9 1168.12 1
9 -1 -4 22199.1 1215.41 14
-9 -1 4 19842.2 1374.38 3
9 -1 -4 18232.2 1406.18 13
9 -1 -4 18381.7 1438.83 8
9 -1 -4 18412.6 1352.54 7
9 -1 -3 1630.04 378.862 14
9 -1 -3 2218.45 538.838 13
-9 -1 3 1106.01 440.011 3
-9 -1 3 1614.97 408.734 1
9 -1 -3 831.376 398.741 8
9 -1 -2 6195.77 636.696 14
9 -1 -2 6346.86 874.922 13
-9 -1 2 7179.51 855.099 3
9 -1 -2 5243.46 786.79 8
-9 -1 2 5868.81 705.884 1
9 -1 -1 1177.54 334.913 14
9 -1 -1 402.677 428.178 13
-9 -1 1 1091.33 408.154 3
9 -1 -1 1583.44 529.096 8
-9 -1 1 1623.24 446.137 1
-9 -1 0 134.467 335.578 1
9 -1 0 449.95 309.458 14
9 -1 0 222.254 384.977 13
-9 -1 0 1213.52 490.034 3
9 -1 0 -115.404 356.402 8
-9 -1 -1 2289.77 542.707 1
9 -1 1 2239.54 455.469 14
9 -1 1 2525.95 630.16 13
-9 -1 -1 2645.16 614.446 3
9 -1 1 3039.74 659.054 8
9 -1 2 21072.8 1273.19 14
-9 -1 -2 21281.1 1533.9 1
9 -1 2 19638.2 1494.24 13
-9 -1 -2 19005.4 1518.35 3
9 -1 2 20408.3 1572.22 5
9 -1 2 20189.2 1504.44 8
-9 -1 -3 14664.6 1322.09 1
9 -1 3 12768.5 1258.07 13
-9 -1 -3 14333.6 1343.11 3
9 -1 3 13361.6 1300.49 5
9 -1 3 15851.1 1328.55 8
-9 -1 -4 3317.17 722.742 1
9 -1 4 2322.56 642.537 13
-9 -1 -4 3068.79 720.393 3
9 -1 4 2264.76 616.359 5
9 -1 4 2770.09 667.204 8
9 -1 5 571.139 495.82 13
-9 -1 -5 1329.42 536.314 3
9 -1 5 1974.22 651.943 5
9 -1 5 1860.02 548.723 8
-9 -1 -5 958.775 427.766 1
9 -1 6 1615.88 644.961 13
-9 -1 -6 1625.09 522.888 3
9 -1 6 2046.14 700.197 5
9 -1 6 1351.41 555.936 8
-9 -1 -6 914.56 420.366 1
9 -1 7 2497.03 790.283 13
-9 -1 -7 1412.4 569.067 3
9 -1 7 2787.66 769.515 5
-9 -1 -7 3062.33 725.609 1
9 -1 7 2278.01 651.109 8
9 -1 8 -172.421 503.782 13
-9 -1 -8 68.3972 464.332 3
9 -1 8 -149.506 494.807 5
-9 -1 -8 1020.16 624.061 1
-9 -1 -9 970.6 620.383 3
9 0 -14 -63.1181 469.706 2
9 0 -13 2581.62 775.575 2
-9 0 13 3507.74 783.902 18
9 0 -12 4833.91 962.08 7
-9 0 12 4587.53 958.904 12
-9 0 12 4805.67 809.523 10
9 0 -12 3130.56 680.27 2
-9 0 12 5284.46 914.67 18
-9 0 12 3871.99 889.445 16
-9 0 12 5470.73 1017.34 4
9 0 -11 -141.878 510.187 7
-9 0 11 156.91 379.148 12
9 0 -11 555.174 474.498 2
-9 0 11 519.63 489.252 18
-9 0 11 168.775 441.195 16
-9 0 11 309.361 542.013 4
9 0 -10 2187.81 685.065 7
-9 0 10 2140.96 653.198 12
9 0 -10 1652.19 503.691 2
-9 0 10 1872.12 602.83 18
9 0 -10 1916.92 485.893 8
-9 0 10 2602.84 725.644 16
-9 0 10 1663.79 606.833 4
9 0 -9 954.651 547.467 7
-9 0 9 1879.15 640.855 12
9 0 -9 209.874 319.103 2
-9 0 9 485.121 437.256 18
9 0 -9 488.066 390.499 8
-9 0 9 1470.86 557.27 16
-9 0 9 266.338 444.452 4
9 0 -8 127.545 428.908 7
9 0 -8 251.053 266.872 2
-9 0 8 557.694 480.637 18
9 0 -8 496.337 390.292 8
-9 0 8 -627.993 494.531 4
-9 0 8 732.443 478.198 16
9 0 -7 5944.81 910.393 7
-9 0 7 6376.9 667.82 3
9 0 -7 4246.83 525.742 2
-9 0 7 5901.23 866.742 18
9 0 -7 5973.46 787 8
-9 0 7 5590.62 878.67 4
-9 0 6 16482 934.55 1
-9 0 6 14883.1 1083.42 3
-9 0 6 15652.5 1305.58 18
-9 0 6 15264.2 1349.05 4
9 0 -6 14618.5 1231.64 8
9 0 -6 16086.7 1323.04 7
9 0 -5 -15.0217 151.785 2
-9 0 5 -236.467 274.607 3
-9 0 5 26.3498 228.364 1
-9 0 5 -138.98 353.733 18
9 0 -5 500.54 439.942 8
-9 0 5 700.644 576.982 4
9 0 -5 169.716 417.449 7
-9 0 4 8775.12 762.36 1
-9 0 4 8122.89 833.69 3
9 0 -4 8068.23 973.291 13
-9 0 4 8506.3 948.494 18
9 0 -4 8285.11 943.622 8
9 0 -4 7977.44 910.461 7
9 0 -3 4397.87 722.166 13
-9 0 3 4974.36 727.264 3
9 0 -3 5146.37 683.78 5
-9 0 3 4363.5 702.587 18
-9 0 3 6196.48 671.349 1
9 0 -3 5111.15 762.264 8
9 0 -2 11286.5 1101.01 13
-9 0 2 12088.5 1073.02 3
-9 0 2 12918.7 1025.61 1
9 0 -2 11124.1 1000.35 5
-9 0 2 11441.9 1054.77 18
9 0 -2 11411.8 1074.83 8
9 0 -1 12795.4 1159.64 13
-9 0 1 13819.9 1159.94 3
-9 0 1 13641.5 1113.91 1
9 0 -1 14736.3 1165.69 5
-9 0 1 14234.2 1156.45 18
9 0 -1 13014.1 1183.71 8
9 0 0 13825.1 1202.87 13
-9 0 0 13840.5 1212.45 3
-9 0 0 14366.2 1166.18 1
9 0 0 14729.1 1194.14 5
9 0 0 13781.6 1215.99 8
9 0 1 341.564 384.824 13
-9 0 -1 -43.0702 351.82 3
9 0 1 73.9395 344.257 5
-9 0 -1 20.4935 351.918 1
9 0 1 665.586 443.25 8
9 0 2 12064.9 1012.83 15
9 0 2 12620.4 1181.81 13
-9 0 -2 12262.4 1136.78 1
-9 0 -2 12181.1 1171.07 3
9 0 2 11463.3 1144.66 5
9 0 2 13941.7 1259.03 8
9 0 3 1537.05 415.332 15
9 0 3 2602.49 632.363 13
-9 0 -3 1263.69 490.217 3
-9 0 -3 1554.39 529.632 1
9 0 3 2553.09 678.988 5
9 0 3 1990.15 610.581 8
9 0 4 7396.34 756.554 15
9 0 4 7204.65 988.717 13
-9 0 -4 7573.26 1004.69 3
-9 0 -4 6454.73 930.538 1
9 0 4 7170.56 983.765 5
9 0 4 7614.01 972.783 8
9 0 5 962.208 520.651 13
-9 0 -5 2291.16 658.526 1
-9 0 -5 1260.58 548.588 3
9 0 5 974.028 510.723 5
9 0 5 64.5184 417.348 8
9 0 6 884.766 556.075 13
-9 0 -6 -441.256 440.718 1
-9 0 -6 370.618 420.54 3
9 0 6 473.826 467.398 5
9 0 7 466.715 565.693 13
-9 0 -7 533.858 434.913 1
-9 0 -7 473.77 473.605 3
9 0 7 601.201 544.8 5
-9 0 -8 245.056 519.094 1
9 0 8 -245.592 604.884 13
-9 0 -8 65.2791 428.863 3
9 0 8 226.647 489.957 5
-9 0 -9 1180.99 520.656 3
-9 1 13 8811.61 1160.54 10
9 1 -13 4749.26 954.035 2
-9 1 12 360.327 476.986 12
-9 1 12 780.286 553.761 10
9 1 -12 1976.85 675.351 2
-9 1 12 593.911 516.002 18
9 1 -11 -53.8783 458.887 7
-9 1 11 1141.37 630.652 12
-9 1 11 -30.359 411.997 10
9 1 -11 -138.517 441.357 2
-9 1 11 55.3736 449.405 18
-9 1 11 876.626 617.91 16
-9 1 11 770.924 523.066 4
9 1 -10 3230.13 760.913 7
9 1 -10 2032.92 575.931 2
-9 1 10 2602.73 642.975 18
-9 1 10 2219.76 688.334 16
-9 1 10 1105.77 598.971 4
9 1 -9 5175.72 826.808 7
9 1 -9 3259.44 559.375 2
-9 1 9 4547.1 819.674 18
9 1 -9 4124.3 672.869 8
-9 1 9 4330.23 854.135 16
-9 1 9 2995.29 746.929 4
9 1 -8 3473.77 634.274 2
-9 1 8 4616.07 778.931 18
9 1 -8 4527.88 664.197 8
-9 1 8 5750.92 906.757 16
-9 1 8 5044.28 851.121 4
9 1 -8 4770.01 847.594 7
9 1 -7 129.804 251.353 2
-9 1 7 789.307 314.406 3
-9 1 7 -47.0116 395.944 18
9 1 -7 500.18 327.841 8
-9 1 7 966.204 509.154 4
-9 1 7 758.556 417.032 16
9 1 -7 636.608 494.152 7
-9 1 6 1835.45 392.015 1
9 1 -6 1871.5 409.512 2
-9 1 6 1919.72 415.234 3
-9 1 6 1554.46 489.593 18
9 1 -6 1291.54 427.462 8
-9 1 6 1581.31 571.461 4
9 1 -6 1857.28 578.015 7
-9 1 5 11288.1 965.857 3
-9 1 5 13464.3 986.612 1
9 1 -5 12124.6 886.895 5
-9 1 5 11765.5 1123.46 18
-9 1 5 12392.3 1196.85 4
9 1 -5 12674.2 1133.87 8
9 1 -5 13104.9 891.928 2
9 1 -5 11826.5 1182.29 7
9 1 -4 18509.4 1424.38 13
-9 1 4 20878.5 1347.49 3
-9 1 4 20604.4 1293.07 1
9 1 -4 19845.9 1223.73 5
-9 1 4 21448.4 1524.61 18
-9 1 4 19693.7 1484.6 4
9 1 -4 19329.3 1426.71 8
9 1 -4 22885.8 1118.08 2
-9 1 3 2141.7 484.867 1
9 1 -3 1507.35 296.44 2
9 1 -3 1287.5 480.243 13
-9 1 3 2552.06 519.15 3
9 1 -3 1622.01 444.851 5
-9 1 3 2380.85 548.331 18
9 1 -3 1620.78 523.79 8
9 1 -2 5504.32 809.295 15
9 1 -2 5288.62 770.181 13
-9 1 2 6794.83 805.354 1
-9 1 2 5947.66 773.128 3
9 1 -2 5891.17 724.97 5
-9 1 2 5414.22 719.634 18
9 1 -2 4974.65 449.351 2
9 1 -2 6803.81 866.987 8
9 1 -1 1422.58 494.639 15
9 1 -1 411.5 350.404 13
-9 1 1 1134.95 427.577 3
9 1 -1 1958.18 490.454 5
-9 1 1 2002.37 501.898 18
9 1 -1 1910.19 556.4 8
-9 1 1 369.566 336.054 1
-9 1 0 584.022 340.558 1
9 1 0 512.105 383.61 15
9 1 0 427.121 364.944 13
-9 1 0 705.169 434.536 3
9 1 0 572.026 353.061 5
-9 1 0 440.617 381.202 18
9 1 0 337.948 354.375 8
9 1 1 1797.87 513.885 15
9 1 1 1538.18 528.358 13
-9 1 -1 2155.94 562.64 3
9 1 1 1914.13 545.421 5
-9 1 -1 1607.71 504.239 1
-9 1 -1 1943.54 456.341 18
9 1 1 2703.42 639.996 8
9 1 2 19497 1395.97 15
9 1 2 21002.3 1542.52 13
-9 1 -2 20408.5 1553.67 3
-9 1 -2 21825.1 1600.3 1
9 1 2 18535.6 1473.89 5
-9 1 -2 23104 1370.56 18
9 1 2 21356.6 1595.24 8
9 1 3 13602 1141.64 15
9 1 3 15717.6 1357.08 13
-9 1 -3 13987.1 1316.96 3
-9 1 -3 15088.5 1325.43 1
9 1 3 12888.6 1267.95 5
9 1 3 13362.8 1290.55 8
9 1 4 3039.27 573.901 15
9 1 4 3349.94 715.017 13
-9 1 -4 3782.43 764.256 3
-9 1 -4 2333.39 666.906 1
9 1 4 2351.21 681.274 5
9 1 5 1437.45 418.8 15
9 1 5 2295.27 679.119 13
-9 1 -5 1568.92 670.22 1
-9 1 -5 2139.92 620.93 3
9 1 5 1803.73 583.901 5
9 1 5 1454.54 434.725 18
-9 1 -6 860.589 507.154 1
9 1 6 1289.23 629.536 13
-9 1 -6 1005.73 543.068 3
9 1 6 1416.69 541.58 5
9 1 7 2887.65 783.073 13
-9 1 -7 2411.64 709.357 3
9 1 7 1718.05 644.432 5
-9 1 -7 4113.61 889.001 1
9 1 8 465.253 573.189 13
-9 1 -8 -195.258 419.003 3
9 1 8 326.671 477.434 5
-9 1 -8 641.707 501.645 1
9 2 -13 434.725 551.552 2
9 2 -12 2730.32 740.571 15
-9 2 12 2230.61 675.215 12
9 2 -12 2216.77 707.356 2
-9 2 11 3198.47 807.468 15
9 2 -11 377.401 453.748 15
-9 2 11 4212.86 943.885 12
9 2 -11 1277.43 581.461 2
-9 2 11 1869.2 632.526 10
-9 2 11 2038.43 726.087 18
-9 2 11 3042.27 861.391 4
9 2 -11 2123.11 699.993 7
-9 2 10 1074.28 539.491 15
9 2 -10 533.736 420.008 15
9 2 -10 1291.84 587.549 2
-9 2 10 -121.426 444.637 10
-9 2 10 1343.29 622.018 18
-9 2 10 77.4576 569.457 16
-9 2 10 1535.06 626.471 4
9 2 -10 760.651 533.514 7
-9 2 9 659.368 457.048 15
9 2 -9 47.2384 402.939 15
9 2 -9 316.459 414.977 2
-9 2 9 734.884 519.613 18
-9 2 9 804.623 631.963 16
-9 2 9 94.0411 459.769 4
9 2 -9 421.704 473.701 7
-9 2 8 1476.51 535.268 15
9 2 -8 2096.69 617.863 15
9 2 -8 1634.5 537.13 2
-9 2 8 1945.02 586.829 18
9 2 -8 2818.58 563.022 8
-9 2 8 2286.68 672.163 16
-9 2 8 2434.34 711.95 4
9 2 -8 2151.57 617.432 7
-9 2 7 5764.17 915.829 15
9 2 -7 5418.15 890.375 15
9 2 -7 5321.58 780.154 2
-9 2 7 6771.36 991.254 18
9 2 -7 5879.85 782.594 8
-9 2 7 6781.25 1005.99 16
-9 2 7 5937.58 894.948 4
9 2 -7 5877.75 888.823 7
9 2 -6 9047.24 1089.27 15
-9 2 6 8650.02 1031.42 15
-9 2 6 12175.6 959.524 3
-9 2 6 10551.8 1174.56 18
9 2 -6 9126.09 965.964 8
-9 2 6 9019.76 1119.35 4
9 2 -6 10675.2 1007.27 2
-9 2 6 10609.9 1172.8 16
-9 2 5 6605.78 909.245 15
9 2 -5 7455.11 1013.64 15
-9 2 5 7470.87 804.345 3
9 2 -5 6483.95 866.905 13
9 2 -5 8299.07 933.038 8
-9 2 5 7042.97 937.839 18
9 2 -5 9263.7 875.714 2
-9 2 5 6738.85 907.063 4
-9 2 5 8427.18 1025.75 16
9 2 -4 8356.25 1025.34 15
-9 2 4 9636.24 947.325 3
9 2 -4 7541.12 929.615 13
9 2 -4 9140.29 858.386 5
-9 2 4 8870.67 1020.75 18
-9 2 4 10244.6 1079 4
9 2 -4 9041.28 998.139 8
9 2 -4 10695.4 890.599 2
-9 2 4 9411.03 1017.91 15
-9 2 3 5891.83 823 15
9 2 -3 4980.38 794.831 15
9 2 -3 6032.41 798.289 13
9 2 -3 6903.31 785.322 5
-9 2 3 6966.28 842.065 3
-9 2 3 5333.45 803.622 18
9 2 -3 5526.43 797.794 8
9 2 -3 4875.62 639.989 2
-9 2 3 6389.26 850.406 4
9 2 -2 2471.08 613.264 15
9 2 -2 2185.64 429.966 2
9 2 -2 2195.86 528.156 13
-9 2 2 2214.43 506 3
9 2 -2 1945.59 508.365 5
-9 2 2 2446.25 606.082 18
9 2 -1 563.954 299.292 2
9 2 -1 948.454 467.262 15
9 2 -1 710.651 407.562 13
-9 2 1 2041.09 539.674 3
9 2 -1 1147.7 484.691 5
-9 2 1 1512.89 492.919 18
9 2 0 776.476 343.526 2
9 2 0 858.614 403.939 15
9 2 0 2441.64 616.544 13
9 2 0 1751.21 512.172 5
-9 2 0 1915.76 551.223 3
-9 2 0 2257.23 499.269 18
9 2 1 18366 1450.59 15
9 2 1 17694.2 1375.3 13
-9 2 -1 18290.6 1488.81 3
9 2 1 18227.1 1456.86 5
-9 2 -1 18630.9 1295.6 18
9 2 2 1177.51 450.396 15
9 2 2 2009.88 571.094 13
9 2 2 698.039 471.123 5
-9 2 -2 1638.91 575.306 3
-9 2 -2 1744.02 445.978 18
9 2 3 4119.47 730.221 15
9 2 3 4527.63 791.766 13
-9 2 -3 4631.45 836.619 3
9 2 3 4977.48 869.729 5
9 2 3 3689.37 710.253 18
9 2 4 862.119 445.3 15
9 2 4 805.447 523.144 13
-9 2 -4 839.83 550.335 3
9 2 4 872.129 534.766 5
9 2 4 400.085 367.514 18
-9 2 -4 660.244 512.363 1
9 2 5 12369.1 1287.13 13
-9 2 -5 10872.9 1283.94 3
-9 2 -5 12701.3 1380.11 1
9 2 5 11938.3 1319.65 5
9 2 5 10403.6 1125 18
9 2 5 12184.6 1158.56 15
9 2 6 2759.1 627.352 15
9 2 6 2927.14 745.563 13
-9 2 -6 2013.93 646.598 1
-9 2 -6 2699.6 783.618 3
9 2 6 3977.11 914.857 5
9 2 6 3295.54 672.666 18
9 2 7 305.435 451.113 13
-9 2 -7 510.373 608.768 3
9 2 7 -586.176 530.88 5
-9 2 -7 710.779 541.707 9
-9 2 -7 1438.94 695.002 1
9 2 8 739.368 568 13
9 3 -11 2225.24 711.777 15
9 3 -11 2545.03 779.691 2
9 3 -10 808.705 505.256 15
9 3 -10 192.027 476.273 2
9 3 -10 685.7 505.106 7
-9 3 9 4586.43 893.38 15
9 3 -9 3341.71 766.682 15
9 3 -9 3276.49 754.082 2
-9 3 9 3926.61 909.476 10
-9 3 9 2832.39 738.301 18
-9 3 9 3468.89 843.492 16
-9 3 9 4238.06 880.943 4
-9 3 8 1793.51 637.015 15
9 3 -8 1246.59 633.39 15
9 3 -8 1624.69 592.533 2
-9 3 8 1971.82 706.705 18
-9 3 8 2527.66 730.078 16
-9 3 8 1370.36 601.9 4
-9 3 7 4256.12 821.739 15
9 3 -7 2913.5 701.264 15
9 3 -7 3980.42 806.006 2
-9 3 7 3970.11 828.458 18
-9 3 7 3990.89 824.702 16
-9 3 7 3709.86 798.632 4
-9 3 6 7559.74 1058.73 15
9 3 -6 6061.89 939.434 15
9 3 -6 8218.4 992.329 2
9 3 -6 6747.71 872.662 13
-9 3 6 6991.34 1023.78 18
-9 3 6 8369.62 1093.87 16
-9 3 6 8164.73 996.055 4
-9 3 5 971.937 495.251 15
9 3 -5 -50.3323 430.239 15
9 3 -5 822.368 478.622 2
9 3 -5 -220.897 330.953 13
-9 3 5 1196.7 450.153 3
-9 3 5 587.055 516.771 18
-9 3 5 411.732 393.969 4
-9 3 5 648.529 440.915 16
-9 3 4 3999.18 799.484 15
9 3 -4 2368.85 699.834 15
9 3 -4 2738.6 618.124 2
9 3 -4 1437.85 476.907 13
9 3 -4 3126.56 584.293 5
-9 3 4 1852.44 541.705 3
-9 3 4 2176.51 618.382 18
-9 3 4 3043.56 657.915 4
-9 3 4 2712.9 681.057 16
-9 3 3 2463.76 590.035 15
9 3 -3 2475.72 670.8 15
9 3 -3 3051.75 619.649 2
9 3 -3 3710.46 689.456 13
9 3 -3 2818.98 590.959 5
-9 3 3 3342.52 653.581 3
-9 3 3 2877.31 532.846 9
-9 3 3 2674.46 629.883 18
-9 3 3 3360.27 687.358 4
-9 3 3 3357.5 678.213 16
9 3 -2 7673.04 1060.07 15
9 3 -2 8760.64 963.312 13
9 3 -2 8687.13 993.489 5
-9 3 2 9955.17 957.97 9
-9 3 2 7868.29 983.102 3
-9 3 2 8818.46 1012.26 18
9 3 -2 6975.06 929.379 2
-9 3 2 7967.77 974.587 4
-9 3 2 8407.91 998.424 16
-9 3 2 8100.08 1003.95 15
-9 3 1 2418.13 575.17 15
9 3 -1 2952.81 582.405 2
9 3 -1 2109.82 624.266 15
9 3 -1 2450 569.428 13
9 3 -1 1917.85 592.009 5
-9 3 1 3002.8 714.455 3
-9 3 1 1677.98 517.975 9
-9 3 1 1983.63 484.644 18
-9 3 1 1659.51 541.958 4
-9 3 0 1698.54 540.588 15
9 3 0 1445.1 474.134 2
9 3 0 1561.96 560.099 15
9 3 0 2238.47 565.786 13
9 3 0 1277.85 535.248 5
-9 3 0 1287.84 475.5 3
-9 3 0 1675.11 544.021 9
-9 3 0 1553.23 491.51 18
9 3 1 3184.95 637.244 2
9 3 1 2129.24 658.3 15
9 3 1 4062.75 711.074 13
9 3 1 2968.06 692.741 5
-9 3 -1 2789.35 714.159 3
-9 3 -1 2750.88 658.575 9
-9 3 -1 3060.19 561.939 18
9 3 1 2164.54 659.673 18
9 3 2 1544.91 585.372 15
9 3 2 1760.91 520.357 13
9 3 2 993.155 522.259 5
-9 3 -2 1684.64 623.708 3
-9 3 -2 713.737 462.879 9
9 3 2 2020.27 671.602 18
9 3 3 4469.83 842.88 15
9 3 3 4013.96 733.623 13
9 3 3 3179.99 716.238 5
-9 3 -3 3907.64 840.561 3
-9 3 -3 3615.74 781.312 9
9 3 3 3464.93 756.434 18
9 3 4 2773.54 680.845 15
9 3 4 3040.68 721.616 13
9 3 4 4805.86 949.728 5
-9 3 -4 3038.04 779.232 3
-9 3 -4 3273.92 766.4 9
9 3 4 3490.49 737.034 18
9 3 5 -186.124 382.609 15
9 3 5 236.429 412.792 13
9 3 5 -213.159 601.684 5
-9 3 -5 597.656 501.659 3
-9 3 -5 360.089 478.374 9
9 3 5 -71.8977 410.909 18
9 3 6 3391.25 727.044 15
9 3 6 2530.77 741.51 13
9 3 6 2028.97 631.288 18
9 3 7 260.5 463.212 13
9 4 -8 416.064 615.953 2
-9 4 8 753.054 554.621 16
9 4 -7 2246.32 729.83 2
-9 4 7 1814.04 722.039 16
-9 4 6 3099.65 744.226 15
9 4 -6 2951.58 753.517 15
9 4 -6 3049.65 783.896 2
-9 4 6 2657.9 753.727 18
-9 4 6 5038.78 887.325 16
-9 4 5 5776.9 930.659 15
9 4 -5 7452.07 1074.35 15
9 4 -5 6439 1027.82 2
-9 4 5 5664.14 1018.87 18
-9 4 5 5586.13 894.435 16
-9 4 4 1367.66 622.239 15
9 4 -4 269.169 525.195 15
9 4 -4 1326.53 603.303 2
-9 4 4 282.619 366.092 3
-9 4 4 913.284 527.608 18
9 4 -4 815.243 573.969 18
-9 4 4 583.476 411.7 16
-9 4 3 1523.49 630.019 15
9 4 -3 1285.02 577.741 15
9 4 -3 1091.61 547.224 2
9 4 -3 1276.97 540.089 5
-9 4 3 625.128 468.129 3
-9 4 3 1165.12 570.087 18
9 4 -3 731.504 484.387 18
-9 4 2 4214.68 835.063 15
9 4 -2 4247.55 833.112 15
9 4 -2 3347.26 722.854 2
9 4 -2 3877.04 781.137 5
-9 4 2 3607.79 747.343 3
-9 4 2 3606.54 742.647 18
9 4 -2 3196.75 770.002 18
-9 4 1 2396.18 590.575 15
9 4 -1 1485.32 590.909 2
9 4 -1 2993.44 788.368 15
9 4 -1 4455.48 866.503 5
-9 4 1 4106.69 809.477 3
-9 4 1 3757.19 718.911 9
-9 4 1 3385.3 734.103 18
9 4 -1 4041.79 877.542 18
9 4 0 43.2316 410.79 2
9 4 0 1183.88 611.05 15
9 4 0 4.21705 406.772 5
-9 4 0 -709.518 571.42 3
-9 4 0 570.242 391.059 9
9 4 0 1043.64 560.116 18
9 4 1 1211.67 571.179 2
9 4 1 1321.92 586.395 15
9 4 1 1206.89 625.971 5
-9 4 -1 808.664 581.533 3
-9 4 -1 825.956 447.658 9
9 4 1 2309.8 716.685 18
9 4 2 2191.18 711.885 15
9 4 2 2594.29 748.946 5
-9 4 -2 4110.6 884.479 3
-9 4 -2 3774.11 793.626 9
9 4 2 3238.24 777.905 18
9 4 3 8806.4 1205.71 15
-9 4 -3 7282.84 1070.83 9
9 4 3 7887.46 1141.97 18
-9 5 3 2385.91 793.306 3
-9 5 2 842.312 506.845 15
9 5 -2 952.332 686.659 2
-9 5 2 2011.23 624.539 18
9 5 -1 376.009 572.171 2
9 5 0 140.706 556.228 2
10 -4 -6 1069.33 575.618 14
10 -4 -5 2169.51 683.567 14
10 -4 -5 2568.86 673.76 13
10 -4 -4 419.155 519.422 14
10 -4 -4 -93.1097 422.287 13
10 -4 -3 3325.82 761.389 14
10 -4 -3 4475.26 813.494 13
10 -4 -2 910.479 574.526 14
10 -4 -2 1051.36 498.891 13
-10 -4 2 93.9785 527.209 1
10 -4 -1 1618.49 595.167 14
10 -4 -1 1334.79 557.486 13
10 -4 0 1107.66 582.014 14
10 -4 0 1405.75 576.762 13
-10 -4 0 1799.51 725.898 1
10 -4 1 3488.93 821.064 14
10 -4 1 3940.71 811.64 13
-10 -4 -1 4383.73 1000.86 1
10 -4 2 726.256 571.309 8
10 -4 3 2190.54 664.007 8
10 -3 -10 733.745 487.329 7
-10 -3 10 1757.05 673.434 4
10 -3 -9 1461.25 535.144 7
-10 -3 9 886.418 517.555 16
-10 -3 9 204.978 694.259 4
10 -3 -8 1299.65 558.06 7
-10 -3 8 628.075 527.962 12
-10 -3 8 -291.473 621.38 4
10 -3 -7 -348.217 413.636 14
10 -3 -7 142.678 491.611 13
-10 -3 7 -465.301 444.092 3
-10 -3 7 442.191 443.836 12
10 -3 -7 374.148 525.662 8
-10 -3 7 780.106 552.277 4
10 -3 -6 764.118 466.722 14
10 -3 -6 1006.04 500.494 13
-10 -3 6 2569.27 717.792 3
-10 -3 6 1026.9 494.201 12
10 -3 -6 120.123 451.987 8
-10 -3 6 1355 616.785 4
10 -3 -5 125.832 377.367 14
10 -3 -5 106.599 391.06 13
-10 -3 5 688.665 523.098 3
-10 -3 5 -152.865 426.366 12
-10 -3 5 16.1417 446.024 4
10 -3 -5 -702.183 524.863 8
10 -3 -4 2387.52 598.485 14
10 -3 -4 2439.8 621.991 13
-10 -3 4 2458.13 704.572 3
-10 -3 4 1208.05 455.754 12
10 -3 -4 1770.42 572.133 8
10 -3 -3 937.39 482.602 14
10 -3 -3 563.288 458.653 13
-10 -3 3 1484.28 651.589 3
-10 -3 3 634.546 419.631 12
10 -3 -3 1656.5 676.035 8
-10 -3 3 1348.97 555.741 1
-10 -3 2 1580.57 571.918 1
10 -3 -2 2909.07 663.199 14
-10 -3 2 1907.41 589.84 3
10 -3 -2 2200.63 664.713 8
-10 -3 1 613.369 467.264 1
10 -3 -1 2655.7 631.983 14
10 -3 -1 2603.44 660.079 13
-10 -3 1 868.267 455.002 3
10 -3 -1 2087.48 686.718 8
-10 -3 0 -123.384 475.64 1
10 -3 0 765.58 462.493 14
10 -3 0 161.509 425.197 13
-10 -3 0 896.465 550.31 3
10 -3 0 470.468 469.801 8
-10 -3 -1 4150.34 861.052 1
10 -3 1 4194.91 752.954 14
10 -3 1 5453.22 919.094 13
-10 -3 -1 4110.06 837.758 3
10 -3 1 4380.83 852.847 8
10 -3 2 3939.22 785.196 14
-10 -3 -2 4242.02 879.782 1
10 -3 2 3705.19 765.806 13
-10 -3 -2 5909.86 990.589 3
10 -3 2 4776.18 848.336 8
10 -3 3 14954.4 1419.65 14
-10 -3 -3 15294.6 1588.88 3
10 -3 3 14869 1478.35 13
10 -3 3 17715.4 1578.43 8
-10 -3 -3 10914.5 1419.74 1
10 -3 4 2188.62 690.527 14
10 -3 4 1551.94 621.768 13
10 -3 4 1484.89 564.407 8
10 -3 5 10647.2 1283.85 14
10 -3 5 12374.4 1411.21 13
10 -3 5 11021.5 1290.97 8
10 -2 -12 1247.33 612.661 8
-10 -2 12 2830.03 719.197 16
10 -2 -11 2123.42 727.211 7
10 -2 -11 1467.85 648.143 8
-10 -2 11 912.797 538.701 16
-10 -2 11 1346.98 697.9 4
10 -2 -10 3213.22 709.845 7
10 -2 -10 1932.67 637.165 8
-10 -2 10 3134.2 768.17 16
-10 -2 10 3280.66 777.943 4
10 -2 -9 1351.1 542.365 7
-10 -2 9 2131.98 674.393 12
10 -2 -9 2248.41 657.047 8
-10 -2 9 1857.96 571.315 16
-10 -2 9 1804.07 635.414 4
10 -2 -8 1118.89 520.542 7
-10 -2 8 1111.53 444.549 3
-10 -2 8 536.009 407.456 12
-10 -2 8 -171.838 471.841 4
10 -2 -7 2647.58 623.444 7
-10 -2 7 2647.95 676.668 3
-10 -2 7 2778.07 693.249 12
10 -2 -7 2825.78 720.011 8
-10 -2 7 1936.07 700.6 4
10 -2 -6 1434.01 530.569 14
10 -2 -6 1463.09 584.743 13
-10 -2 6 1210.8 496.645 3
-10 -2 6 1479.78 605.199 12
10 -2 -6 1598.23 591.706 8
-10 -2 6 2126.08 639.786 4
10 -2 -6 811.533 445.314 7
10 -2 -5 2385.2 518.446 14
10 -2 -5 3356.16 699.787 13
-10 -2 5 2537.03 630.602 3
-10 -2 5 2886.64 671.837 12
-10 -2 5 1650.59 585.862 4
10 -2 -5 1630.05 600.82 8
10 -2 -5 1955.92 519.815 7
10 -2 -4 4035.74 631.235 14
-10 -2 4 2744.04 536.553 1
10 -2 -4 4112.89 738.408 13
-10 -2 4 3195.18 692.963 3
-10 -2 4 4745.37 765.585 12
10 -2 -4 3993.92 771.578 8
10 -2 -4 4895.87 722.507 7
10 -2 -3 713.346 381.339 14
-10 -2 3 564.873 355.462 1
10 -2 -3 923.226 532.865 13
-10 -2 3 442.683 379.586 3
10 -2 -3 1133.01 422.903 8
10 -2 -2 2236.61 506.861 14
10 -2 -2 2592.32 673.974 13
-10 -2 2 1584.64 538.536 1
-10 -2 2 2264.17 640.979 3
10 -2 -2 2610.46 672.309 8
10 -2 -1 851.532 378.56 14
10 -2 -1 513.406 462.985 13
-10 -2 1 296.051 407.978 1
-10 -2 1 367.896 399.959 3
10 -2 -1 -122.343 433.175 8
10 -2 0 733.653 322.452 14
10 -2 0 1714.34 557.224 13
-10 -2 0 1644.87 553.496 3
-10 -2 0 2199.7 560.343 1
10 -2 0 2009.41 661.605 8
10 -2 1 1319.04 443.188 14
10 -2 1 1072.44 542.395 13
-10 -2 -1 861.659 505.894 3
-10 -2 -1 1595.64 581.081 1
10 -2 1 1605.17 625.622 8
10 -2 2 1638.29 509.312 14
10 -2 2 1735.69 567.761 13
-10 -2 -2 1095.74 581.645 3
-10 -2 -2 1800.71 622.435 1
10 -2 2 976.406 501.849 8
10 -2 3 88.8885 358.431 14
10 -2 3 897.775 569.187 13
-10 -2 -3 788.011 540.811 3
-10 -2 -3 302.676 489.481 1
10 -2 3 700.696 445.864 8
10 -2 4 2270.23 700.682 13
-10 -2 -4 2932.6 780.318 3
-10 -2 -4 2314.52 715.678 1
10 -2 4 2750.97 675.488 8
10 -2 5 1515.03 620.13 13
-10 -2 -5 1250.24 504.367 3
-10 -2 -5 1225.92 633.486 1
10 -2 5 1122.19 538.459 8
10 -2 6 2902.82 784.579 13
10 -2 6 3039.99 745.275 8
10 -1 -11 -93.4804 458.881 7
-10 -1 11 897.987 544.218 18
10 -1 -11 -188.67 413.175 8
-10 -1 11 79.1187 487.017 16
-10 -1 11 160.052 494.232 4
10 -1 -10 585.817 519.725 7
-10 -1 10 80.9049 507.009 12
-10 -1 10 13.1634 399.053 18
10 -1 -10 917.184 465.525 8
-10 -1 10 1291.2 647.41 16
-10 -1 10 -602.242 603.944 4
10 -1 -9 2877.68 715.699 7
-10 -1 9 2495.61 684.835 12
-10 -1 9 2636.62 707.643 18
10 -1 -9 3644.38 732.174 8
-10 -1 9 2266.98 589.417 4
-10 -1 9 2492.47 701.744 16
10 -1 -8 1791.27 613.54 7
-10 -1 8 1893.21 641.683 12
-10 -1 8 1760.37 626.67 18
10 -1 -8 3153.57 634.408 8
-10 -1 8 1697.96 610.557 4
10 -1 -7 7127.67 970.721 7
-10 -1 7 9494.03 990.536 3
-10 -1 7 6716.96 953.884 12
-10 -1 7 8048.97 1046.52 18
10 -1 -7 7493.17 999.595 8
-10 -1 7 6763.98 1024.25 4
-10 -1 6 12779.2 1209.52 3
-10 -1 6 16038.9 1434.76 4
10 -1 -6 13626.2 1316.79 8
10 -1 -6 15193.4 1318.97 7
-10 -1 5 10866.7 865.206 1
-10 -1 5 9319.45 1004.41 3
10 -1 -5 9673.91 1135.62 13
-10 -1 5 11249.5 1217.14 4
10 -1 -5 8537.36 1039.24 8
10 -1 -5 10221.2 1073.59 7
10 -1 -4 1802.61 550.599 13
-10 -1 4 1041.7 439.204 3
-10 -1 4 1929.35 444.082 1
10 -1 -4 632.209 454.484 8
10 -1 -4 1166.09 473.755 7
10 -1 -3 2863.61 670.081 13
-10 -1 3 3295.01 667.779 3
-10 -1 3 4219.61 623.64 1
10 -1 -3 3235.7 692.839 8
-10 -1 2 9803.73 941.627 1
-10 -1 2 8991.11 1021.83 3
10 -1 -2 7358 965.811 13
10 -1 -2 8433.91 1049.39 8
10 -1 -1 3317.58 694.38 13
-10 -1 1 2727.77 636.704 3
10 -1 -1 2562.76 627.809 8
-10 -1 1 3295.5 658.197 1
10 -1 0 2965.61 690.793 13
-10 -1 0 2578.41 664.982 3
10 -1 0 3540.4 709.834 8
-10 -1 0 3865.33 691.98 1
10 -1 1 2302.72 615.001 13
-10 -1 -1 664.187 477.838 3
10 -1 1 1661.73 536.874 8
-10 -1 -1 1146.89 492.417 1
10 -1 2 1453.73 573.501 13
-10 -1 -2 1346.89 516.517 3
10 -1 2 906.204 515.389 8
-10 -1 -2 674.383 410.043 1
10 -1 3 558.792 355.621 15
10 -1 3 83.0453 464.512 13
-10 -1 -3 -506.129 478.592 3
10 -1 3 185.7 512.261 8
-10 -1 -3 -172.512 453.107 1
10 -1 4 1932.9 607.962 13
-10 -1 -4 2637.36 675.981 3
10 -1 4 3613.73 804.68 5
10 -1 4 2871.92 715.897 8
-10 -1 -4 3249.44 751.364 1
10 -1 5 1658.95 630.403 13
-10 -1 -5 1576.56 604.641 3
10 -1 5 739.66 531.567 5
10 -1 5 705.258 454.85 8
-10 -1 -5 1238.99 548.521 1
10 -1 6 368.573 543.752 13
-10 -1 -6 -942.25 625.169 3
10 -1 6 -404.636 404.053 5
10 -1 6 245.693 371.818 8
-10 -1 -6 350.166 519.843 1
-10 -1 -7 609.782 468.601 3
10 -1 7 1078.35 542.325 8
-10 0 12 246.014 468.889 10
10 0 -11 471.945 526.333 7
-10 0 11 315.81 467.195 18
-10 0 11 -321.739 453.263 16
-10 0 11 498.214 520.301 4
10 0 -10 158.107 509.766 7
-10 0 10 133.069 508.546 12
-10 0 10 228.126 374.29 18
10 0 -10 220.369 354.862 8
-10 0 10 -566.411 592.926 16
10 0 -9 1190.55 542.936 7
-10 0 9 1599.34 649.575 12
-10 0 9 2237.84 654.486 18
10 0 -9 1026.1 446.63 8
-10 0 9 1092.09 600.854 16
-10 0 9 1198.69 644.315 4
10 0 -8 -597.205 521.851 7
-10 0 8 965.861 507.449 18
-10 0 8 856.874 515.883 4
-10 0 8 93.7558 428.204 16
-10 0 7 122.667 265.534 3
-10 0 7 633.609 438.373 18
10 0 -7 396.088 363.434 8
-10 0 7 792.474 503.766 4
10 0 -7 -353.091 437.034 7
-10 0 6 -88.6505 319.602 3
-10 0 6 207.853 386.069 18
10 0 -6 42.9742 400.059 8
-10 0 6 209.063 519.557 4
10 0 -6 -482.052 454.9 7
10 0 -5 -162.897 393.647 13
-10 0 5 27.293 235.1 1
-10 0 5 -378.675 361.579 3
-10 0 5 -299.449 376.833 18
10 0 -5 179.978 399.483 8
-10 0 5 1284.88 676.523 4
10 0 -5 7.8135 361.307 7
10 0 -4 3841.73 730.858 13
-10 0 4 3300.27 605.841 3
-10 0 4 4171.49 576.052 1
-10 0 4 3504.05 707.989 18
10 0 -4 2722.41 630.348 8
10 0 -3 3936.66 707.207 13
-10 0 3 4549.54 736.272 3
-10 0 3 4197.93 629.676 1
10 0 -3 4973.47 661.337 5
-10 0 3 4199.39 742.443 18
10 0 -3 5324.54 848.054 8
10 0 -2 523.233 444.889 13
-10 0 2 -24.7968 396.488 3
-10 0 2 138.794 333.846 1
10 0 -2 289.093 368.165 5
-10 0 2 26.9629 352.274 18
10 0 -2 -75.3444 430.312 8
10 0 -1 210.905 443.631 13
-10 0 1 192.609 371.434 3
10 0 -1 -173.196 373.949 5
-10 0 1 386.588 368.024 1
10 0 -1 54.1103 373.902 8
10 0 0 932.165 515.032 13
-10 0 0 2195.39 584.614 3
-10 0 0 2026.72 547.496 1
10 0 0 1099.85 505.78 5
10 0 0 1977.77 609.397 8
10 0 1 1061.38 473.243 15
10 0 1 657.281 448.466 13
-10 0 -1 529.793 419.629 3
-10 0 -1 1048.99 463.893 1
10 0 1 347.321 373.498 5
10 0 1 945.186 364.366 8
10 0 2 437.75 333.182 15
10 0 2 40.0708 417.672 13
-10 0 -2 -249.53 380.058 3
-10 0 -2 792.458 466.551 1
10 0 2 -303.841 442.392 5
10 0 2 319.913 443.146 8
10 0 3 283.871 339.355 15
10 0 3 121.084 429.445 13
-10 0 -3 295.662 473.127 3
-10 0 -3 21.6894 426.035 1
10 0 3 738.715 469.068 5
10 0 3 -248.544 418.141 8
10 0 4 918.376 360.819 15
10 0 4 -167.094 451.978 13
-10 0 -4 1091.98 497.857 1
-10 0 -4 -418.813 427.844 3
10 0 4 147.512 424.806 5
10 0 4 296.92 390.174 8
10 0 5 1298.74 580.973 13
-10 0 -5 1787.5 573.269 1
-10 0 -5 884.207 476.133 3
10 0 5 2719.69 714.561 5
10 0 5 1637.46 522.335 8
10 0 6 21.8341 522.829 13
-10 0 -6 707.268 563.624 1
-10 0 -6 2034.06 639.685 3
10 0 6 1462.21 641.265 5
-10 0 -7 1673.63 640.426 3
-10 1 12 2066.94 634.538 10
-10 1 10 732.765 492.416 18
-10 1 10 -40.0585 480.323 16
-10 1 10 534.186 559.704 4
10 1 -10 -269.34 584.909 7
-10 1 9 2003.69 637.014 18
10 1 -9 3499.93 676.709 8
-10 1 9 2742.11 722.686 16
-10 1 9 2680.21 801.363 4
10 1 -9 2837.73 706.336 7
-10 1 8 3762.37 797.469 18
10 1 -8 3029.22 636.98 8
-10 1 8 2560.98 682.799 4
-10 1 8 2628.29 711.754 16
10 1 -8 2549.34 705.827 7
10 1 -7 9302.02 1041.25 8
-10 1 7 7729.8 1046.01 18
-10 1 7 7753.79 1112.92 4
-10 1 7 8063.69 1081.3 16
10 1 -7 6674.48 986.559 7
-10 1 6 14753.8 1142.1 3
-10 1 6 14273 1358.44 18
-10 1 6 16104 1446.92 4
10 1 -6 14430.8 1281.14 8
10 1 -6 14572.7 1396.95 7
-10 1 5 10496.3 972.333 3
10 1 -5 8730.92 1046.87 13
-10 1 5 11154.9 959.649 1
-10 1 5 9489.68 1109.09 18
10 1 -5 10155.2 1090.19 8
-10 1 5 9638.09 1117.65 4
10 1 -4 1738.05 543.559 13
-10 1 4 2073.42 518.669 3
-10 1 4 1760.58 459.799 1
10 1 -4 1129.6 371.312 5
-10 1 4 1342 467.217 18
10 1 -4 2458.48 628.252 8
-10 1 4 2399.69 695.616 4
10 1 -3 3635.71 743.548 15
10 1 -3 3109.97 679.36 13
-10 1 3 2539.42 574.904 3
-10 1 3 3066.79 581.042 1
10 1 -3 3358.46 596.339 5
-10 1 3 3378.23 633.885 18
10 1 -3 3212.53 715.187 8
10 1 -2 7983.12 991.44 15
-10 1 2 9215.25 1020.53 3
10 1 -2 6960.9 931.59 13
-10 1 2 6363.83 864.525 1
10 1 -2 8180.14 904.588 5
-10 1 2 8093.87 976.485 18
10 1 -2 8140.18 990.583 8
10 1 -1 4030.09 676.052 15
-10 1 1 3422.59 724.477 1
10 1 -1 2684.3 652.092 13
-10 1 1 2379.57 614.372 3
10 1 -1 2551.88 589.72 5
-10 1 1 3280.18 624.434 18
10 1 -1 2883.34 656.821 8
-10 1 0 4255.17 735.211 1
10 1 0 3424.29 685.631 15
10 1 0 3451.14 695.621 13
-10 1 0 2869.53 605.358 3
10 1 0 3792.58 723.129 5
-10 1 0 3579.67 629.877 18
10 1 0 3972.43 776.769 8
10 1 1 1001.2 424.801 15
10 1 1 1579.78 552.397 13
-10 1 -1 1728.02 559.052 3
10 1 1 1940.54 567.815 5
-10 1 -1 1209.4 425.178 18
10 1 1 843.61 448.424 8
-10 1 -1 1725.96 573.687 1
10 1 2 802.238 386.225 15
10 1 2 1087.48 465.728 13
-10 1 -2 1939.19 545.366 3
-10 1 -2 993.632 473.956 1
10 1 2 903.19 485.536 5
10 1 2 1363.29 616.379 8
10 1 3 59.5773 358.975 15
10 1 3 -451.428 509.091 13
-10 1 -3 -208.211 438.173 1
-10 1 -3 7.19792 448.095 3
10 1 3 360.367 521.127 5
10 1 4 2242.49 541.435 15
-10 1 -4 3205.94 714.954 1
10 1 4 3438.46 786.221 13
-10 1 -4 2492.09 686.063 3
10 1 4 3097.93 732.897 5
-10 1 -5 1386.87 612.894 1
10 1 5 2221.63 735.292 13
-10 1 -5 830.819 543.7 3
10 1 5 1359.7 600.808 5
10 1 6 867.339 494.83 13
-10 1 -6 -113.58 396.763 3
10 1 6 685.674 524.34 5
-10 1 -6 888.623 617.974 1
10 2 -10 2296.85 719.457 15
-10 2 10 2366.94 703.084 4
10 2 -9 1743.05 647.609 15
-10 2 9 1740.01 626.307 18
-10 2 9 2368.4 771.296 16
-10 2 9 1125.91 562.566 4
10 2 -9 1858.05 688.633 7
10 2 -8 1450.68 610.727 15
-10 2 8 1192.31 556.286 18
-10 2 8 2211.43 732.887 16
-10 2 8 32.615 477.519 4
10 2 -8 1018.6 642.654 7
10 2 -7 1928.34 654.368 15
-10 2 7 2012.33 592.455 18
10 2 -7 2746.68 601.047 8
-10 2 7 1735.32 603.694 4
-10 2 7 3157.99 810.84 16
10 2 -6 1210.12 586.435 15
10 2 -6 736.942 459.641 13
-10 2 6 1223.05 414.592 3
-10 2 6 1676.14 677.047 18
10 2 -6 1412.04 515.402 8
-10 2 6 594.306 548.958 4
-10 2 6 161.033 467.707 16
10 2 -5 2616 648.48 15
10 2 -5 1410.06 519.618 13
-10 2 5 2463.59 543.194 3
-10 2 5 2327.93 606.351 18
10 2 -5 2903.63 649.513 8
-10 2 5 2761.29 663.141 4
-10 2 5 2717.97 732.084 16
10 2 -4 3418.8 748.523 15
10 2 -4 3398.11 688.615 13
-10 2 4 4141.04 715.226 3
-10 2 4 3728.43 709.644 18
10 2 -4 3796.58 745.841 8
-10 2 4 4241.49 812.841 4
10 2 -3 797.335 532.306 15
10 2 -3 1821.66 591.669 13
-10 2 3 793.729 470.917 3
10 2 -3 616.799 390.497 5
-10 2 3 666.862 453.837 18
10 2 -3 524.284 468.714 8
-10 2 3 319.087 482.614 4
10 2 -2 2546.28 701.079 15
10 2 -2 2885.72 677.63 13
-10 2 2 2052.37 595.65 3
10 2 -2 1890.87 510.787 5
-10 2 2 2684.94 619.975 18
10 2 -1 970.708 492.631 15
10 2 -1 661.871 493.988 13
-10 2 1 725.865 414.962 3
10 2 -1 146.481 372.138 5
-10 2 1 1351.17 526.052 18
10 2 0 1199.39 550.61 15
10 2 0 1713.49 555.741 13
-10 2 0 2570.66 662.112 3
10 2 0 809.664 442.037 5
-10 2 0 1805.55 533.584 18
10 2 1 665.478 383.487 15
10 2 1 1119.59 521.874 13
-10 2 -1 567.091 402.065 3
10 2 1 872.067 450.014 5
-10 2 -1 242.203 303.711 18
10 2 2 2144 578.121 15
10 2 2 2725.89 689.367 13
-10 2 -2 680.261 428.272 3
10 2 2 2326.4 618.962 5
-10 2 -2 883.604 571.686 1
-10 2 -3 1171.99 577.845 1
10 2 3 245.64 391.876 15
10 2 3 287.965 452.565 13
-10 2 -3 708.236 471.054 3
10 2 3 -527.973 491.363 5
10 2 3 727.503 444.116 18
10 2 4 2459.26 670.372 15
10 2 4 3661.13 782.835 13
-10 2 -4 4058.5 874.603 3
10 2 4 2338.92 646.919 5
10 2 4 3687.8 722.549 18
-10 2 -4 3629.79 807.713 1
10 2 5 1580.68 521.891 15
-10 2 -5 1679.06 691.724 1
10 2 5 1439.86 622.018 13
-10 2 -5 2462.47 699.868 3
10 2 5 1818.41 634.235 5
10 2 5 2776.86 680.728 18
10 2 6 2853.87 767.778 13
10 3 -10 1974.54 692.891 2
10 3 -9 1705.68 687.991 2
-10 3 9 1651.01 673.121 4
10 3 -8 1003.12 590.002 2
-10 3 8 -27.5338 493.869 16
-10 3 8 1282.78 629.18 4
-10 3 7 -190.271 477.071 15
10 3 -7 -479.428 490.81 15
10 3 -7 158.86 426.765 2
10 3 -7 529.609 449.724 13
-10 3 7 -116.753 444.33 18
-10 3 7 35.4903 490.31 16
-10 3 7 173.973 524.264 4
-10 3 6 1095.02 601.599 15
10 3 -6 546.486 419.851 15
10 3 -6 355.3 398.114 13
-10 3 6 402.368 439.09 18
-10 3 6 1374.52 584.623 16
-10 3 6 1591.54 561.062 4
-10 3 5 6.59628 395.614 15
10 3 -5 -133.958 427.197 15
10 3 -5 475.796 448.526 13
-10 3 5 -151.231 337.687 3
-10 3 5 198.844 375.03 18
-10 3 5 244.761 476.31 4
-10 3 5 440.073 525.54 16
-10 3 4 1869.22 599.119 15
10 3 -4 2338.84 670.806 15
10 3 -4 2358.05 626.906 13
-10 3 4 2285.23 651.622 3
-10 3 4 1964.98 557.033 18
-10 3 4 2112.3 614.032 4
-10 3 4 1387.79 547.935 16
-10 3 3 1590.36 585.611 15
10 3 -3 1054.04 510.451 15
10 3 -3 1273.13 473.942 13
10 3 -3 639.815 491.479 5
-10 3 3 932.823 491.104 3
-10 3 3 421.676 378.689 18
-10 3 3 2255.63 649.147 4
-10 3 3 544.626 452.718 16
-10 3 2 3068.85 687.023 15
10 3 -2 2082.29 624.695 15
10 3 -2 2332.98 578.541 13
10 3 -2 3796.6 753.991 5
-10 3 2 4141.69 795.968 3
-10 3 2 3295.14 616.891 9
-10 3 2 2674.72 642.38 18
-10 3 2 2669.9 670.031 4
-10 3 2 3565.59 777.637 16
10 3 -1 2252.88 726.62 15
10 3 -1 3413.52 706.197 13
10 3 -1 1657.01 604.874 5
-10 3 1 860.768 485.408 3
-10 3 1 907.097 441.216 9
-10 3 1 2051.32 586.392 18
-10 3 1 1731.51 635.613 4
10 3 0 944.586 477.99 15
10 3 0 605.07 434.975 13
10 3 0 450.788 503.661 5
-10 3 0 1240.96 540.164 3
-10 3 0 1566.01 548.755 9
-10 3 0 -24.5002 361.471 18
10 3 1 3744.17 833.095 15
10 3 1 5955.66 911.472 13
10 3 1 3990.85 805.242 5
-10 3 -1 5963.78 1001.05 3
-10 3 -1 5491.92 882.464 9
10 3 1 5217.53 928.959 18
10 3 2 4312.12 869.464 15
10 3 2 5349.31 857.903 13
10 3 2 6346.34 1020.13 5
-10 3 -2 5278.25 997.532 3
-10 3 -2 4815.7 843.832 9
10 3 2 3593.71 829.199 18
10 3 3 16692.9 1474.77 13
-10 3 -3 15914.4 1599.21 3
10 3 3 15104.4 1600.18 5
-10 3 -3 13950.3 1408.24 9
10 3 3 13894.6 1481.72 18
10 3 3 16705.7 1544.34 15
10 3 4 2714.8 742.827 15
10 3 4 695.276 471.387 13
-10 3 -4 1888.7 648.489 9
10 3 4 1483.73 567.845 18
10 3 5 9998.27 1202.83 15
10 3 5 10290.6 1285.21 13
10 3 5 10921.7 1273.71 18
10 4 -7 3396.93 915.336 2
10 4 -6 1554.84 723.786 2
-10 4 6 2462.21 745.694 16
-10 4 5 3749.52 798.557 16
-10 4 4 480.247 455.805 15
-10 4 4 520.477 461.512 3
-10 4 4 247.812 443.91 18
-10 4 3 6064.13 1019.87 15
-10 4 3 4314.76 859.534 18
-10 4 2 1203.93 547.501 15
10 4 -2 2162.08 655.161 5
-10 4 2 1385.39 628.812 3
-10 4 2 810.489 461.265 18
10 4 -1 -275.07 541.915 5
-10 4 1 2211.6 710.524 3
10 4 0 2466.11 760.316 5
-10 4 0 2354.62 698.788 9
-10 4 -1 2429.99 695.984 9
-10 4 -2 1524.18 580.903 9
-11 -4 4 4046.16 893.295 4
-11 -4 1 2673.31 841.186 1
-11 -3 8 3999.25 812.682 4
11 -3 -7 3799.97 817.544 13
-11 -3 7 4886.88 959.716 3
-11 -3 7 4612.32 872.399 12
-11 -3 7 3572.05 869.113 4
11 -3 -6 3498.57 769.459 13
-11 -3 6 4179.67 906.629 3
-11 -3 6 3582.01 774.055 12
-11 -3 6 5736.01 998.416 4
11 -3 -5 3937.98 841.969 13
-11 -3 5 5809.5 1034.46 3
-11 -3 5 4135.12 744.634 12
11 -3 -4 1557.57 597.981 13
-11 -3 4 2683.44 748.479 3
11 -3 -3 2515.55 713.036 13
-11 -3 3 2640.7 755.586 3
-11 -3 2 1340.08 554.939 1
11 -3 -2 321.725 463.478 13
-11 -3 2 2414.81 786.638 3
11 -3 -2 1081.84 627.781 8
-11 -3 1 504.774 416.53 1
11 -3 -1 775.024 512.059 13
-11 -3 1 583.8 567.976 3
11 -3 -1 926.005 608.114 8
-11 -3 0 483.232 511.294 1
11 -3 0 1141.26 562.445 13
11 -3 0 4.13935 438.472 8
-11 -3 -1 -166.628 574.281 1
11 -3 1 -142.58 430.354 13
11 -3 1 661.623 495.681 8
-11 -3 -2 1204.83 569.657 1
11 -3 2 1862.7 659.082 13
11 -3 2 2254.55 728.161 8
11 -2 -10 1597.01 657.612 7
-11 -2 10 1033.09 611.62 16
11 -2 -9 1595.12 588.55 7
11 -2 -9 2048.79 709.131 8
-11 -2 9 1991.38 690.694 4
11 -2 -8 4976.33 888.846 7
-11 -2 8 5124.16 913.09 12
11 -2 -8 4512.16 928.027 8
-11 -2 8 3518.2 819.861 4
11 -2 -7 1066.8 610.811 13
-11 -2 7 1604.33 577.321 3
-11 -2 7 476.757 480.145 12
11 -2 -7 1706.48 601.168 8
-11 -2 7 1246.56 618.385 4
11 -2 -7 1357.53 553.519 7
11 -2 -6 2842.84 731.168 13
-11 -2 6 2721.09 662.505 3
-11 -2 6 3472.54 758.522 12
11 -2 -6 1996.84 645.674 8
-11 -2 6 2983.79 784.984 4
11 -2 -6 3155.46 637.399 7
11 -2 -5 995.023 521.931 13
-11 -2 5 2100.75 627.229 3
-11 -2 5 1050.87 556.016 12
-11 -2 5 2149.07 738.873 4
11 -2 -5 1009.03 535.97 8
11 -2 -5 1469.96 493.459 7
11 -2 -4 2142.53 626.35 13
-11 -2 4 1686.51 600.291 3
-11 -2 4 2617.85 652.93 12
11 -2 -4 3844.52 857.719 8
-11 -2 3 -476.131 382.912 1
11 -2 -3 266.45 416.558 13
-11 -2 3 1183.48 563.425 3
11 -2 -3 -31.1976 436.668 8
11 -2 -2 3206.34 764.863 13
-11 -2 2 294.672 388.742 1
-11 -2 2 2109.03 743.881 3
11 -2 -2 2510.39 714.924 8
11 -2 -1 1642.66 551.723 13
-11 -2 1 3599.17 784.86 1
-11 -2 1 2765.82 755.444 3
11 -2 -1 4746.35 892.437 8
11 -2 0 1986.13 632.484 13
-11 -2 0 502.684 386.789 3
-11 -2 0 1730.76 583.877 1
11 -2 0 609.501 381.886 8
11 -2 1 1310.45 622.223 13
-11 -2 -1 779.323 515.512 3
-11 -2 -1 493.381 483.093 1
11 -2 1 1432.34 582.778 8
11 -2 2 2506.28 709.179 13
-11 -2 -2 2014.68 731.297 3
-11 -2 -2 1537.67 545.195 1
11 -2 2 494.179 513.25 8
11 -2 3 8213.84 1151.3 13
-11 -2 -3 8420.16 1139.44 1
11 -2 3 7761.55 1076.39 8
11 -2 4 325.711 486.377 8
11 -2 5 3993.38 880.405 8
11 -2 6 1226.69 589.239 8
11 -1 -11 552.888 472.269 8
11 -1 -10 1698.59 688.907 7
11 -1 -10 1967.11 671.164 8
-11 -1 10 1563.1 702.986 16
11 -1 -9 6415.96 1025.52 7
-11 -1 9 7471.22 1116.26 12
11 -1 -9 8926.64 1142.29 8
-11 -1 9 7590.04 1083.93 4
-11 -1 9 7777.23 1120.41 16
-11 -1 8 363.083 595.36 12
11 -1 -8 788.704 431.188 8
-11 -1 8 857.319 594.24 4
11 -1 -8 -369.832 488.651 7
-11 -1 7 363.406 401.685 3
-11 -1 7 1936.89 672.441 12
11 -1 -7 928.677 518.948 8
-11 -1 7 1303.94 652.598 4
11 -1 -7 1476.08 620.437 7
11 -1 -6 328 450.85 13
-11 -1 6 64.6092 352.704 3
11 -1 -6 888.548 541.693 8
-11 -1 6 340.07 570.123 4
11 -1 -6 323.007 421.132 7
11 -1 -5 2419.76 672.96 13
-11 -1 5 2242.33 611.575 3
11 -1 -5 1495.26 571.968 8
-11 -1 5 2183.96 697.625 4
11 -1 -5 2500.11 640.033 7
11 -1 -4 -539.937 567.707 13
-11 -1 4 541.891 428.194 3
-11 -1 4 -191.714 298.915 1
11 -1 -4 238.005 456.28 8
11 -1 -3 1481.64 605.186 13
-11 -1 3 866.013 445.747 3
-11 -1 3 1062.17 378.372 1
11 -1 -3 1149.51 474.404 8
11 -1 -2 723.728 497.215 13
-11 -1 2 397.948 416.966 3
-11 -1 2 271.454 354.29 1
11 -1 -2 701.489 413.733 8
11 -1 -1 1594.19 610.886 13
-11 -1 1 949.132 472.157 3
11 -1 -1 452.209 421.364 8
-11 -1 1 255.573 380.296 1
11 -1 0 2145.07 622.806 13
-11 -1 0 1720.18 602.759 3
11 -1 0 3702.53 785.826 8
-11 -1 0 2178.4 560.73 1
11 -1 1 4370.76 791.637 13
-11 -1 -1 4894.7 905.073 3
11 -1 1 4952.75 896.56 8
-11 -1 -1 7241.97 972.844 1
11 -1 2 6077.19 1010.83 13
-11 -1 -2 7762.25 1106.37 3
11 -1 2 7939.82 1108.33 8
-11 -1 -2 9242.82 1171.25 1
11 -1 3 923.331 537.421 13
-11 -1 -3 303.044 474.913 3
11 -1 3 135.708 382.338 8
-11 -1 -3 119.179 423.031 1
11 -1 4 309.036 507.159 13
-11 -1 -4 -969.05 633.124 3
11 -1 4 447.697 526.142 8
-11 -1 -4 -356.061 553.097 1
11 -1 5 4413.37 884.228 8
11 -1 6 7355.25 1125.98 8
11 -1 7 1169.1 644.666 8
11 0 -10 2468.12 665.241 8
-11 0 9 562.479 518.482 12
-11 0 9 419.661 439.262 18
11 0 -9 375.916 433.355 8
-11 0 9 732.248 502.815 4
-11 0 9 481.104 544.509 16
11 0 -9 132.118 494.015 7
-11 0 8 1974.68 642.265 18
11 0 -8 3447.26 737.028 8
-11 0 8 1562.34 638.194 4
-11 0 8 1045.21 498.673 16
11 0 -8 2428.75 687.592 7
-11 0 7 1085.22 528.081 18
11 0 -7 2284.45 664.008 8
-11 0 7 2815.7 759.609 4
11 0 -7 1290.72 524.132 7
-11 0 6 9999.17 1025.56 3
11 0 -6 8313.75 1110.88 13
-11 0 6 11922.1 1343.08 4
-11 0 6 10337.8 1202.45 18
11 0 -6 9784.84 1116.72 8
11 0 -6 10791.2 1211.84 7
-11 0 5 11782.3 1147.55 3
11 0 -5 11698.2 1254 13
-11 0 5 11477.3 1217.8 18
-11 0 5 11332.8 1261.79 4
11 0 -5 10842.4 1194.29 8
11 0 -4 291.583 426.707 13
-11 0 4 251.456 361.347 1
-11 0 4 1139.25 559.512 3
-11 0 4 -571.905 467.13 18
11 0 -4 445.757 432.873 8
11 0 -3 364.15 403.182 13
-11 0 3 883.178 368.63 1
-11 0 3 1404.93 547.82 3
-11 0 3 1231.08 492.987 18
11 0 -3 816.197 524.181 8
11 0 -2 989.94 569.114 13
-11 0 2 1797.64 521.226 1
-11 0 2 1593.56 587.202 3
11 0 -2 1726.32 546.526 5
-11 0 2 1998.42 528.034 18
11 0 -2 1805.19 591.721 8
11 0 -1 589.224 557.021 13
-11 0 1 160.133 429.847 3
-11 0 1 582.142 425.287 1
11 0 -1 670.666 367.946 5
11 0 -1 777.669 463.423 8
11 0 0 -262.462 334.429 15
11 0 0 -104.445 457.938 13
-11 0 0 -329.805 385.067 1
-11 0 0 -125.903 345.612 3
11 0 0 107.913 374.911 5
11 0 0 -33.0934 467.852 8
11 0 1 -134.996 352.195 15
11 0 1 -924.624 609.705 13
-11 0 -1 -107.23 410.472 1
-11 0 -1 829.772 504.157 3
11 0 1 -206.778 375.271 5
11 0 1 -514.933 495.076 8
11 0 2 3533.37 683.657 15
11 0 2 3083.81 788.526 13
-11 0 -2 3809.33 796.771 1
-11 0 -2 3655.37 835.344 3
11 0 2 3372.28 724.384 5
11 0 2 2995.37 778.341 8
11 0 3 2642.95 573.563 15
11 0 3 2255.69 723.193 13
-11 0 -3 3706.11 782.039 1
-11 0 -3 2109.34 627.914 3
11 0 3 3153.27 773.756 5
11 0 3 3180.34 811.453 8
11 0 4 6158.62 1066.66 13
-11 0 -4 6960.24 1075.5 1
-11 0 -4 6454.65 1021.54 3
11 0 4 7547.36 1152.62 5
11 0 4 7080.24 1081.8 8
-11 0 -5 5422.94 988.073 1
11 0 5 6456.93 1055.56 8
11 1 -9 8464.76 1027.2 8
-11 1 9 7973.24 1153.64 4
11 1 -9 6447.63 1022.17 7
-11 1 8 392.6 430.321 18
11 1 -8 225.284 400.37 8
-11 1 8 -807.385 657.771 4
-11 1 8 453.898 563.241 16
11 1 -8 457.024 488.216 7
-11 1 7 476.432 470.956 18
11 1 -7 1240.2 524.321 8
-11 1 7 1391.38 644.143 4
-11 1 7 1442.51 589.593 16
11 1 -7 725.378 541.975 7
11 1 -6 712.922 526.738 13
-11 1 6 -560.973 372.7 3
-11 1 6 -333.212 461.223 18
11 1 -6 -79.3181 422.427 8
-11 1 6 97.532 567.354 4
11 1 -5 1596.7 515.721 13
-11 1 5 1349.61 459.524 3
-11 1 5 2780.54 525.645 1
-11 1 5 3555.79 786.039 18
11 1 -5 1967.12 628.549 8
-11 1 5 1141.17 564.218 4
11 1 -4 740.258 494.906 15
11 1 -4 -228.519 400.751 13
-11 1 4 779.356 433.155 3
-11 1 4 306.08 380.46 1
-11 1 4 -73.6309 352.979 18
11 1 -4 339.255 454.742 8
-11 1 4 -448.506 496.473 4
11 1 -3 1654.92 611.814 15
11 1 -3 1020.93 598.501 13
-11 1 3 1747.23 543.624 3
11 1 -3 798.072 444.183 5
-11 1 3 1820.1 579.195 18
-11 1 3 1010.84 470.17 1
11 1 -3 2039.77 645.819 8
11 1 -2 41.8005 365.922 15
11 1 -2 -661.201 537.088 13
-11 1 2 -39.7524 441.159 3
11 1 -2 -4.67314 373.949 5
-11 1 2 -388.397 387.761 1
-11 1 2 12.2853 369.261 18
11 1 -2 148.448 411.982 8
11 1 -1 1393.82 544.834 15
11 1 -1 -108.011 424.493 13
-11 1 1 975.763 456.166 3
-11 1 1 455.441 455.322 1
11 1 -1 719.267 386.809 5
-11 1 1 945.144 478.765 18
11 1 -1 726.575 428.548 8
11 1 0 2310.94 625.558 15
11 1 0 2756.96 665.282 13
-11 1 0 1468.71 575.498 1
-11 1 0 1587.2 614.94 3
11 1 0 2890.78 684.878 5
-11 1 0 1619.86 522.018 18
11 1 0 1696.27 601.801 8
11 1 1 3953.46 734.495 15
11 1 1 4725.11 841.878 13
-11 1 -1 6081.89 913.481 1
-11 1 -1 5805.92 960.066 3
11 1 1 5573.93 922.94 5
-11 1 -1 5436.31 790.263 18
11 1 1 4021.02 844.987 8
11 1 2 9700.39 1076.82 15
-11 1 -2 8197.92 1108.62 1
11 1 2 7925.4 1110.92 13
-11 1 -2 6964.17 1002.64 3
11 1 2 7716.8 1081.31 5
11 1 2 8558.31 1183.54 8
11 1 3 1050.21 445.207 15
-11 1 -3 844.986 565.383 1
11 1 3 575.806 487.756 13
-11 1 -3 667.927 566.36 3
11 1 3 181.366 394.441 5
11 1 4 784.681 646.603 13
-11 1 -4 466.385 476.834 3
11 1 4 -636.361 504.041 5
-11 1 -4 633.947 574.341 1
-11 2 8 4143.05 839.267 4
11 2 -7 1431.34 687.778 15
11 2 -7 1750.68 625.459 13
-11 2 7 1599.14 665.38 18
11 2 -7 716.961 467.069 8
-11 2 7 1609.04 652.48 4
-11 2 7 1830.13 722.064 16
11 2 -6 2485.03 700.666 15
11 2 -6 3346.33 790.251 13
-11 2 6 4009.78 856.509 18
11 2 -6 3675.62 727.221 8
-11 2 6 3654.5 834.575 4
-11 2 6 2653.68 770.88 16
11 2 -5 759.395 514.255 15
11 2 -5 1494.49 639.356 13
-11 2 5 906.628 377.34 3
-11 2 5 1705.75 631.338 18
11 2 -5 1615.28 572.9 8
-11 2 5 2838.68 731.018 4
-11 2 5 1534.11 671.161 16
11 2 -4 2523.74 739.057 15
11 2 -4 2853.87 693.82 13
-11 2 4 2715.55 628.809 3
-11 2 4 2069.09 592.616 18
11 2 -4 2105.49 637.902 8
-11 2 4 1794.6 608.933 4
11 2 -3 871.356 544.012 15
11 2 -3 186.703 484.679 13
-11 2 3 180.19 391.235 3
11 2 -3 317.384 398.424 5
-11 2 3 489.508 462.642 18
-11 2 3 406.561 504.39 4
11 2 -2 956.257 565.297 15
11 2 -2 2232.52 617.388 13
11 2 -2 2497.3 656.749 5
-11 2 2 1876.2 532.756 18
11 2 -1 4514.25 861.134 15
-11 2 1 3100.22 818.418 1
11 2 -1 3703.75 800.802 13
-11 2 1 2977.08 672.335 3
11 2 -1 3115.31 696.702 5
-11 2 1 3340.18 654.652 18
11 2 0 988.858 555.159 15
11 2 0 1503.2 563.254 13
-11 2 0 1268.72 626.081 1
-11 2 0 715.212 508.765 3
11 2 0 1141.49 527.16 5
-11 2 0 1570.74 533.594 18
11 2 1 549.836 483.212 15
11 2 1 579.716 516.245 13
-11 2 -1 -164.029 502.8 3
11 2 1 813.557 520.992 5
-11 2 -1 669.432 435.97 1
11 2 2 1483.2 495.913 15
11 2 2 1066.98 584.394 13
-11 2 -2 1439.36 547.359 3
11 2 2 1967.97 653.888 5
-11 2 -2 1570.03 662.664 1
11 2 3 7732.25 1063.75 15
11 2 3 9888.44 1214.85 13
-11 2 -3 6936.49 1098.07 1
-11 2 -3 9281.89 1254.36 3
11 2 3 7989.28 1192.35 5
11 2 3 9001.24 1108.74 18
11 2 4 1027.2 531.408 15
11 2 4 2124.62 719.551 13
11 2 4 442.748 461.484 18
11 3 -8 6981.8 1042.33 13
11 3 -7 4150.05 844.364 13
-11 3 7 4711.79 976.883 4
11 3 -6 2649.99 686.008 13
-11 3 6 2931.07 785.04 4
-11 3 6 3930.48 849.666 16
-11 3 5 5201.17 915.572 15
11 3 -5 4899.23 839.175 13
-11 3 5 5062.43 979.404 18
-11 3 5 5270.27 935.166 4
-11 3 5 5550.97 955.712 16
11 3 -4 -98.8243 417.717 13
-11 3 4 2520.89 681.707 3
-11 3 4 635.251 481.348 18
-11 3 4 1953.85 673.369 4
-11 3 4 870.338 440.672 16
11 3 -3 2863.51 668.666 13
-11 3 3 2333.01 674.646 3
-11 3 3 3065.93 736.633 18
-11 3 3 3500.64 811.43 4
-11 3 3 2357.37 632.985 16
11 3 -2 1128.14 560.157 15
11 3 -2 1004.94 494.391 13
-11 3 2 1675.43 594.458 3
11 3 -2 1675.22 620.924 5
-11 3 2 1917.75 585.435 18
-11 3 2 1584.31 617.943 4
11 3 -1 910.831 562.187 15
11 3 -1 1504.93 594.219 13
-11 3 1 1475.21 580.754 3
11 3 -1 696.683 479.953 5
-11 3 1 536.066 491.885 9
-11 3 1 700.575 452.501 18
-11 3 1 167.248 515.818 4
11 3 0 393.662 449.004 15
11 3 0 1487.2 621.563 13
-11 3 0 966.193 613.236 3
11 3 0 141.63 456.267 5
-11 3 0 -302.402 517.799 9
11 3 1 528.99 447.405 15
11 3 1 -521.594 457.016 13
11 3 1 -49.8111 458.096 5
-11 3 -1 944.618 573.09 9
11 3 1 -156.734 474.928 18
11 3 2 1161.08 582.628 15
11 3 2 2474.02 728.766 13
-11 3 -2 2694.84 723.871 9
11 3 2 2112.16 716.556 18
11 3 3 113.116 442.091 15
11 3 3 925.629 511.997 13
11 3 3 1658.29 725.18 18
-11 4 3 -705.787 571.356 3
-12 -3 1 3581.08 866.361 1
-12 -3 0 -457.269 564.622 1
12 -2 -8 3985.93 818.502 7
-12 -2 7 3966.33 818.798 3
12 -2 -7 4928.46 878.259 7
-12 -2 6 4165.02 866.249 3
-12 -2 6 6675.84 1033.1 12
12 -2 -6 5352.97 878.001 7
12 -2 -5 2476.17 757.892 13
-12 -2 5 790.077 469.877 3
-12 -2 5 1903.49 638.765 12
12 -2 -4 679.519 474.377 13
-12 -2 4 188.562 444.019 3
-12 -2 4 1023.5 563.507 12
12 -2 -3 1294.52 580.054 13
-12 -2 3 659.758 613.53 3
12 -2 -2 296.129 482.888 13
-12 -2 2 -1176.61 581.582 1
-12 -2 2 -217.163 449.898 3
12 -2 -1 754.59 520.011 13
-12 -2 1 465.241 474.799 1
-12 -2 1 777.437 540.534 3
12 -2 0 1936.94 676.606 13
-12 -2 0 1322.41 549.57 1
-12 -2 -1 1043 647.414 1
12 -1 -8 562.838 550.968 8
12 -1 -8 1989.64 686.971 7
-12 -1 7 3126.47 816.858 12
12 -1 -7 2218.64 698.848 8
12 -1 -7 1837.35 657.552 7
12 -1 -6 3063.29 833.096 13
-12 -1 6 2203.64 612.402 3
12 -1 -6 1909.58 661.935 8
-12 -1 6 2405.82 828.547 4
12 -1 -5 -68.4712 544.119 13
-12 -1 5 1158.23 547.518 3
12 -1 -5 508.832 506.78 8
-12 -1 5 425.639 497.313 4
12 -1 -4 3114.82 727.185 13
-12 -1 4 1317.48 587.622 3
12 -1 -4 2515.04 736.324 8
12 -1 -3 4187.75 838.227 13
-12 -1 3 2218.2 623.907 3
-12 -1 3 2494.72 595.869 1
12 -1 -3 3072.73 787.422 8
12 -1 -2 4374.12 795.193 13
-12 -1 2 4053.23 798.166 3
-12 -1 2 4559.39 773.091 1
12 -1 -2 4316.02 859.12 8
12 -1 -1 -526.847 494.288 13
-12 -1 1 -172.099 479.57 3
-12 -1 1 -158.896 416.311 1
12 -1 -1 -531.184 486.933 8
12 -1 0 -273.924 527.589 13
-12 -1 0 -617.907 527.442 3
-12 -1 0 -110.625 411.568 1
12 -1 0 -330.542 467.074 8
12 -1 1 4825.99 940.212 13
-12 -1 -1 5258.35 967.551 3
-12 -1 -1 5636.63 939.864 1
12 -1 1 5585.7 1011.47 8
-12 -1 -2 1056.48 582.303 1
12 -1 2 10.4588 489.061 8
12 0 -9 9906.55 1201.93 8
12 0 -8 2784.4 721.656 8
12 0 -8 3102.94 857.415 7
12 0 -7 1239.68 580.52 13
-12 0 7 986.001 608.753 18
12 0 -7 1106.11 592.29 8
12 0 -7 187.739 470.82 7
12 0 -6 525.327 504.608 13
-12 0 6 472.558 383.647 3
-12 0 6 216.562 436.675 18
12 0 -6 -280.332 467.253 8
-12 0 6 414.905 511.646 4
12 0 -5 3720.84 833.26 13
-12 0 5 1843 543.841 3
-12 0 5 3143.27 780.856 18
12 0 -5 2387.79 677.757 8
-12 0 5 3841.76 882.623 4
12 0 -4 10965.5 1324.2 13
-12 0 4 8861.5 1091.21 3
-12 0 4 9350.82 1148.24 18
12 0 -4 8456.96 1128.35 8
-12 0 3 -147.619 375.368 1
12 0 -3 130.668 477.564 13
-12 0 3 40.4972 370.24 3
12 0 -3 432.714 540.467 8
12 0 -2 997.168 548.527 13
-12 0 2 509.347 492.927 1
-12 0 2 -836.853 455.851 3
12 0 -2 68.3751 504.37 8
12 0 -1 1452.66 528.884 15
12 0 -1 3020.64 799.738 13
-12 0 1 2071.7 649.299 1
-12 0 1 942.418 526.253 3
12 0 -1 1691.69 563.445 5
12 0 -1 890.57 550.743 8
12 0 0 16220.6 1456.79 15
-12 0 0 18911 1617.89 1
12 0 0 16383.1 1552.56 13
-12 0 0 17222.6 1629.28 3
12 0 0 15627 1561.18 5
12 0 0 15135.7 1556.29 8
12 0 1 9396.5 1088.6 15
-12 0 -1 12513.5 1348.51 1
12 0 1 11607 1363.95 13
12 0 1 11713.7 1329 5
-12 0 -1 9176.19 1221.75 3
12 0 1 10599.3 1310.03 8
12 0 2 3131.89 667.89 15
12 0 2 3001.02 818.406 13
-12 0 -2 3628.27 810.8 1
-12 0 -2 2725.44 768.038 3
12 0 2 731.096 550.651 5
12 0 2 2361 726.693 8
12 1 -8 1912.71 613.435 8
12 1 -7 1722.18 720.331 13
12 1 -7 2819.65 715.527 8
12 1 -6 2486.15 709.77 13
-12 1 6 1070.5 638.15 18
12 1 -6 1517.63 626.451 8
-12 1 6 2354.08 742.317 4
12 1 -5 51.5091 399.535 15
12 1 -5 336.354 503.843 13
-12 1 5 839.365 507.089 3
-12 1 5 487.146 459.189 18
12 1 -5 287.559 455.509 8
-12 1 5 995.143 646.746 4
12 1 -4 2267.26 703.364 15
-12 1 4 2033.04 567.984 1
12 1 -4 1119.28 563.709 13
-12 1 4 2971.67 728.016 3
-12 1 4 2435.14 648.674 18
12 1 -4 2184.95 629.695 8
-12 1 4 1607.98 660.335 4
12 1 -3 1976.1 652.963 15
-12 1 3 2511.88 649.84 1
12 1 -3 2424.72 755.085 13
-12 1 3 2773.07 678.495 3
-12 1 3 2564.6 650.818 18
12 1 -3 3240.92 806.145 8
12 1 -2 3839.33 811.384 15
-12 1 2 3106.43 804.798 1
12 1 -2 4663.38 895.495 13
-12 1 2 4288.99 832.733 3
12 1 -2 3539.29 783.506 5
-12 1 2 5102.29 867.837 18
12 1 -2 3939.7 798.678 8
12 1 -1 96.1668 458.129 15
-12 1 1 1.34901 432.479 1
12 1 -1 -762.67 603.139 13
-12 1 1 -87.1348 416.462 3
12 1 -1 418.495 405.29 5
-12 1 1 -66.4682 380.585 18
12 1 -1 560.401 551.485 8
12 1 0 456.147 465.264 15
-12 1 0 -146.079 489.993 1
12 1 0 -301.984 508.402 13
-12 1 0 -926.472 522.923 3
12 1 0 961.639 511.639 5
-12 1 0 92.7319 369.378 18
12 1 0 670.771 527.683 8
-12 1 -1 5121.06 966.515 1
12 1 1 4412.24 811.864 15
12 1 1 6276.97 1041.85 13
-12 1 -1 5330.44 982.237 3
12 1 1 5151.93 905.077 5
12 1 1 5462.96 985.687 8
12 1 2 611.345 436.56 15
12 1 2 -35.0094 464.644 13
12 1 2 1592.92 700.507 5
-12 1 -2 1326.22 648.146 1
12 2 -7 2574.78 774.715 13
12 2 -7 3248.4 792.702 8
12 2 -6 5785.01 1041.87 13
12 2 -6 6254.07 992.844 8
12 2 -5 2838.98 787.06 13
-12 2 5 2594.56 760.75 18
12 2 -5 2056.44 653.674 8
-12 2 5 2760.35 799.235 4
12 2 -4 -317.168 464.615 13
-12 2 4 -374.107 475.697 3
-12 2 4 -516.204 473.775 1
-12 2 4 642.57 488.241 18
12 2 -4 -507.414 469.234 8
-12 2 4 883.844 596.468 4
12 2 -3 866.771 620.214 15
12 2 -3 479.659 457.365 13
-12 2 3 151.163 429.247 1
-12 2 3 942.078 562.588 3
-12 2 3 4.77693 450.979 18
-12 2 3 325.772 513.089 4
12 2 -2 382.416 545.618 15
-12 2 2 1232.08 638.509 1
12 2 -2 237.549 520.29 13
-12 2 2 -6.29228 473.345 3
12 2 -2 -15.3717 391.756 5
-12 2 2 -517.035 432.608 18
12 2 -1 -181.191 487.911 15
12 2 -1 -382.193 528.47 13
-12 2 1 457.4 544.262 3
12 2 -1 320.335 428.05 5
-12 2 1 -256.003 389.833 18
-12 2 1 840.637 550.525 1
12 2 0 2207.32 627.036 15
12 2 0 2829.29 681.397 13
-12 2 0 3625.67 845.18 3
-12 2 0 2569.9 798.674 1
12 2 0 2994.82 739.273 5
12 2 1 948.166 576.063 15
12 2 1 461.309 564.143 13
12 2 1 690.132 551.522 5
12 2 2 1804.66 600.436 15
12 2 3 1441.23 604.486 15
12 2 3 2274.53 642.033 18
-12 3 4 3567.81 892.354 4
-12 3 3 1335.98 608.375 3
-12 3 3 210.883 457.993 18
-12 3 3 1617.72 666.483 4
-12 3 3 265.734 474.528 16
-12 3 2 5143.25 900.487 3
-12 3 2 4834.49 913.701 18
12 3 -1 3704.96 835.918 5
-12 3 0 841.229 497.383 9
-13 -2 4 743.643 600.367 12
-13 -2 1 -1772.04 661.134 1
-13 -1 6 2017.2 697.939 3
-13 -1 5 4262.27 849.951 3
-13 -1 4 1584.12 590.44 3
-13 -1 3 1257.98 522.058 3
-13 -1 1 6723.72 1053.83 1
-13 -1 0 7497.12 1089.81 1
-13 0 5 8574.45 1089.89 3
-13 0 4 6364.21 973.994 3
-13 0 3 9988.43 1243.06 3
13 0 -2 349.906 464.969 15
-13 0 2 1470.22 545.956 1
-13 0 2 1519.25 692.296 3
13 0 -1 -412.729 431.699 15
-13 0 1 641.297 545.328 1
13 0 0 503.717 573.562 15
-13 0 0 1138.72 696.534 1
13 0 0 -289.725 474.341 5
13 0 1 10365.7 1202.32 15
-13 1 4 2959.53 749.118 3
-13 1 3 2270.61 671.62 3
-13 1 3 1318.62 553.471 18
-13 1 2 1512.46 648.879 3
-13 1 2 1123.19 537.221 18
-13 1 2 2624.41 662.524 1
13 1 -1 4781.83 895.607 15
13 1 -1 6887.98 1057.08 5
-13 1 1 6948.01 1044.46 18
-13 1 1 7363.03 1133.86 1
13 1 0 6642.27 1058.74 15
13 1 0 7275.61 1116.59 5
-13 1 0 8015.37 1191.66 1
13 1 1 579.489 540.384 15
-13 2 4 58.8549 423.438 3
-13 2 3 1102.91 604.333 1
-13 2 3 -20.7036 500.179 3
-13 2 2 3860.02 823.941 18
-13 2 2 5040.31 1040.54 1
