#------------------------------------------------------------------------------
#$Date: 2019-11-04 14:09:27 +0200 (Mon, 04 Nov 2019) $
#$Revision: 222972 $
#$URL: file:///home/coder/svn-repositories/cod/cif/4/03/44/4034454.cif $
#------------------------------------------------------------------------------
#
# This file is available in the Crystallography Open Database (COD),
# http://www.crystallography.net/
#
# All data on this site have been placed in the public domain by the
# contributors.
#
data_4034454
loop_
_publ_author_name
'Ghosh, Sanjib'
'Roy, Biswajit'
'Bandyopadhyay, Subhajit'
_publ_section_title
;
 Formation or Cleavage of Rings via Sulfide-Mediated Reduction Offers
 Background-Free Detection of Sulfide.
;
_journal_issue                   18
_journal_name_full               'The Journal of organic chemistry'
_journal_page_first              12031
_journal_page_last               12039
_journal_paper_doi               10.1021/acs.joc.9b01946
_journal_volume                  84
_journal_year                    2019
_chemical_formula_moiety         'C10 H5 N5'
_chemical_formula_sum            'C10 H5 N5'
_chemical_formula_weight         195.19
_space_group_crystal_system      monoclinic
_space_group_IT_number           14
_space_group_name_Hall           '-P 2ybc'
_space_group_name_H-M_alt        'P 1 21/c 1'
_atom_sites_solution_hydrogens   geom
_atom_sites_solution_primary     iterative
_audit_creation_date             2018-06-21
_audit_creation_method
;
Olex2 1.2
(compiled 2018.05.29 svn.r3508 for OlexSys, GUI svn.r5506)
;
_cell_angle_alpha                90
_cell_angle_beta                 107.609(4)
_cell_angle_gamma                90
_cell_formula_units_Z            4
_cell_length_a                   7.1948(3)
_cell_length_b                   13.3348(5)
_cell_length_c                   9.1745(3)
_cell_measurement_reflns_used    2926
_cell_measurement_temperature    100.00(10)
_cell_measurement_theta_max      25.0070
_cell_measurement_theta_min      2.7560
_cell_volume                     838.97(6)
_computing_cell_refinement
;
CrysAlisPro, Agilent Technologies,
Version 1.171.37.34 (release 22-05-2014 CrysAlis171 .NET)
(compiled May 22 2014,16:03:01)
;
_computing_data_collection
;
CrysAlisPro, Agilent Technologies,
Version 1.171.37.34 (release 22-05-2014 CrysAlis171 .NET)
(compiled May 22 2014,16:03:01)
;
_computing_data_reduction
;
CrysAlisPro, Agilent Technologies,
Version 1.171.37.34 (release 22-05-2014 CrysAlis171 .NET)
(compiled May 22 2014,16:03:01)
;
_computing_molecular_graphics    'Olex2 (Dolomanov et al., 2009)'
_computing_publication_material  'Olex2 (Dolomanov et al., 2009)'
_computing_structure_refinement  'ShelXL (Sheldrick, 2015)'
_computing_structure_solution    'olex2.solve (Bourhis et al., 2015)'
_diffrn_ambient_environment      N~2~
_diffrn_ambient_temperature      100.00(10)
_diffrn_detector                 'CCD plate'
_diffrn_detector_area_resol_mean 7.9580
_diffrn_detector_type            Eos
_diffrn_measured_fraction_theta_full 0.999
_diffrn_measured_fraction_theta_max 0.999
_diffrn_measurement_details
;
#__ type_ start__ end____ width___ exp.time_
  1 omega  -11.00  103.00   1.0000   15.0000
omega____ theta____ kappa____ phi______ frames
    -       26.7184   57.0000   30.0000 114

#__ type_ start__ end____ width___ exp.time_
  2 omega  -55.00   82.00   1.0000   15.0000
omega____ theta____ kappa____ phi______ frames
    -       26.7184  -38.0000   90.0000 137

#__ type_ start__ end____ width___ exp.time_
  3 omega  -20.00   15.00   1.0000   15.0000
omega____ theta____ kappa____ phi______ frames
    -      -23.5000  -99.0000   60.0000 35

#__ type_ start__ end____ width___ exp.time_
  4 omega   35.00  121.00   1.0000   15.0000
omega____ theta____ kappa____ phi______ frames
    -       26.7184  178.0000   60.0000 86

#__ type_ start__ end____ width___ exp.time_
  5 omega  -12.00  108.00   1.0000   15.0000
omega____ theta____ kappa____ phi______ frames
    -       26.7184   69.0000 -160.0000 120
;
_diffrn_measurement_device       'four-circle diffractometer'
_diffrn_measurement_device_type  'SuperNova, Dual, Cu at zero, Eos'
_diffrn_measurement_method       '\w scans'
_diffrn_orient_matrix_UB_11      0.0199459000
_diffrn_orient_matrix_UB_12      -0.0289990000
_diffrn_orient_matrix_UB_13      0.0678819000
_diffrn_orient_matrix_UB_21      -0.0654421000
_diffrn_orient_matrix_UB_22      0.0301054000
_diffrn_orient_matrix_UB_23      0.0252878000
_diffrn_orient_matrix_UB_31      -0.0774663000
_diffrn_orient_matrix_UB_32      -0.0328944000
_diffrn_orient_matrix_UB_33      -0.0366224000
_diffrn_radiation_monochromator  mirror
_diffrn_radiation_probe          x-ray
_diffrn_radiation_type           MoK\a
_diffrn_radiation_wavelength     0.71073
_diffrn_reflns_av_R_equivalents  0.0395
_diffrn_reflns_av_unetI/netI     0.0408
_diffrn_reflns_Laue_measured_fraction_full 0.999
_diffrn_reflns_Laue_measured_fraction_max 0.999
_diffrn_reflns_limit_h_max       8
_diffrn_reflns_limit_h_min       -8
_diffrn_reflns_limit_k_max       15
_diffrn_reflns_limit_k_min       -15
_diffrn_reflns_limit_l_max       10
_diffrn_reflns_limit_l_min       -10
_diffrn_reflns_number            5328
_diffrn_reflns_point_group_measured_fraction_full 0.999
_diffrn_reflns_point_group_measured_fraction_max 0.999
_diffrn_reflns_theta_full        25.022
_diffrn_reflns_theta_max         25.022
_diffrn_reflns_theta_min         2.785
_diffrn_source                   'SuperNova (Mo) X-ray Source'
_exptl_absorpt_coefficient_mu    0.104
_exptl_absorpt_correction_T_max  1.00000
_exptl_absorpt_correction_T_min  0.54736
_exptl_absorpt_correction_type   multi-scan
_exptl_absorpt_process_details
;
CrysAlisPro, Agilent Technologies,
Version 1.171.37.34 (release 22-05-2014 CrysAlis171 .NET)
(compiled May 22 2014,16:03:01)
Empirical absorption correction using spherical harmonics,
 implemented in SCALE3 ABSPACK scaling algorithm.
;
_exptl_crystal_colour            brown
_exptl_crystal_density_diffrn    1.545
_exptl_crystal_description       block
_exptl_crystal_F_000             336
_exptl_crystal_size_max          0.2569
_exptl_crystal_size_mid          0.2558
_exptl_crystal_size_min          0.1234
_refine_diff_density_max         0.168
_refine_diff_density_min         -0.304
_refine_diff_density_rms         0.065
_refine_ls_extinction_method     none
_refine_ls_goodness_of_fit_ref   1.116
_refine_ls_hydrogen_treatment    constr
_refine_ls_matrix_type           full
_refine_ls_number_parameters     136
_refine_ls_number_reflns         1484
_refine_ls_number_restraints     0
_refine_ls_restrained_S_all      1.116
_refine_ls_R_factor_all          0.0433
_refine_ls_R_factor_gt           0.0393
_refine_ls_shift/su_max          0.011
_refine_ls_shift/su_mean         0.002
_refine_ls_structure_factor_coef Fsqd
_refine_ls_weighting_details
'w=1/[\s^2^(Fo^2^)+(0.1000P)^2^] where P=(Fo^2^+2Fc^2^)/3'
_refine_ls_weighting_scheme      calc
_refine_ls_wR_factor_gt          0.1340
_refine_ls_wR_factor_ref         0.1397
_reflns_Friedel_coverage         0.000
_reflns_number_gt                1319
_reflns_number_total             1484
_reflns_threshold_expression     'I > 2\s(I)'
_iucr_refine_instructions_details
;

    phmlmn3.res created by SHELXL-2014/7

TITL
CELL 0.71073 7.1948 13.3348 9.1745 90 107.609 90
ZERR 24 0.0003 0.0005 0.0003 0 0.004 0
LATT 1
SYMM -X,0.5+Y,0.5-Z
SFAC C H N
UNIT 24 24 24
 
L.S. 2 0 0
PLAN  10
fmap 2 53
ACTA
REM <olex2.extras>
REM <HklSrc "%.\\PhMLMN3.hkl">
REM </olex2.extras>
 
WGHT    0.100000
FVAR       0.45544
N1    3    0.252116    0.350327    0.478269    11.00000    0.01292    0.01256 =
         0.01320    0.00291    0.00032    0.00121
N3     3    0.247849    0.194273    0.439043    11.00000    0.02156    0.01472 =
         0.01851    0.00022    0.00176    0.00007
N4    3    0.127141    0.235182    0.309748    11.00000    0.01843    0.01352 =
         0.01764    0.00197    0.00065    0.00007
N2    3    0.325311    0.261208    0.541792    11.00000    0.01947    0.01375 =
         0.01859    0.00337    0.00203    0.00300
N5  3   -0.198175    0.379654   -0.023387    11.00000    0.02303    0.02462 =
         0.01665    0.00119   -0.00206    0.00057
C9  1    0.132614    0.332686    0.335946    11.00000    0.01238    0.01639 =
         0.01254    0.00034    0.00156   -0.00143
C5  1    0.295163    0.444901    0.545470    11.00000    0.01220    0.01542 =
         0.01703   -0.00159    0.00489   -0.00097
C6  1    0.205398    0.525869    0.452855    11.00000    0.01087    0.01699 =
         0.01679    0.00025    0.00363    0.00034
C8  1    0.039067    0.415736    0.243573    11.00000    0.01164    0.01816 =
         0.01183    0.00048    0.00036   -0.00050
C7   1    0.077341    0.508934    0.302326    11.00000    0.01371    0.01586 =
         0.01708    0.00337    0.00382    0.00182
AFIX  43
H7   2    0.018726    0.563578    0.243166    11.00000   -1.20000
AFIX   0
C3  1    0.454380    0.553793    0.749249    11.00000    0.01504    0.02429 =
         0.01564   -0.00425    0.00170   -0.00314
AFIX  43
H3  2    0.536903    0.563962    0.847897    11.00000   -1.20000
AFIX   0
C1  1    0.246180    0.622511    0.514220    11.00000    0.01540    0.01409 =
         0.02150    0.00137    0.00522   -0.00057
AFIX  43
H1  2    0.189664    0.677795    0.455710    11.00000   -1.20000
AFIX   0
C2  1    0.368519    0.636327    0.659593    11.00000    0.01596    0.01775 =
         0.02101   -0.00492    0.00463   -0.00426
AFIX  43
H2  2    0.394692    0.700846    0.698951    11.00000   -1.20000
AFIX   0
C10     1   -0.092291    0.396262    0.094207    11.00000    0.01682    0.01560 =
         0.01954    0.00288    0.00410    0.00182
C4  1    0.417855    0.457969    0.692856    11.00000    0.01285    0.01961 =
         0.01601    0.00141    0.00047    0.00132
AFIX  43
H4  2    0.474326    0.403083    0.752401    11.00000   -1.20000
AFIX   0
HKLF 4
 
REM
REM R1 =  0.0393 for    1319 Fo > 4sig(Fo)  and  0.0433 for all    1484 data
REM    136 parameters refined using      0 restraints
 
END  
     
WGHT      0.0502      0.3733 

REM Highest difference peak  0.168,  deepest hole -0.304,  1-sigma level  0.065
Q1    1   0.3833  0.3397  0.4533  11.00000  0.05    0.17
Q2    1  -0.0485  0.3187 -0.0746  11.00000  0.05    0.16
Q3    1   0.1510  0.3862  0.2465  11.00000  0.05    0.16
Q4    1   0.4793  0.3012  0.5644  11.00000  0.05    0.15
Q5    1   0.5816  0.3410  0.6568  11.00000  0.05    0.15
Q6    1   0.1397  0.4369  0.2187  11.00000  0.05    0.15
Q7    1   0.0737  0.3735  0.2931  11.00000  0.05    0.15
Q8    1   0.5052  0.6223  0.9592  11.00000  0.05    0.14
Q9    1   0.1874  0.4790  0.5275  11.00000  0.05    0.14
Q10   1   0.1136  0.1632  0.2162  11.00000  0.05    0.14

  REM The information below was added by Olex2.
  REM
  REM R1 = 0.0393 for 1319 Fo > 4sig(Fo) and 0.0433 for all 5489 data
  REM n/a parameters refined using n/a restraints
  REM Highest difference peak 0.17, deepest hole -0.30
  REM Mean Shift 0.002, Max Shift 0.011.

  REM +++ Tabular Listing of Refinement Information +++
  REM R1_all = 0.0433
  REM R1_gt = 0.0393
  REM wR_ref = 0.1397
  REM GOOF = 1.116
  REM Shift_max = 0.011
  REM Shift_mean = 0.002
  REM Reflections_all = 5489
  REM Reflections_gt = 1319
  REM Parameters = n/a
  REM Hole = -0.30
  REM Peak = 0.17
  REM Flack = n/a

  
;
_cod_data_source_file            jo9b01946_si_006.cif
_cod_data_source_block           phmlmn3
_cod_database_code               4034454
_shelx_shelxl_version_number     2014/7
_chemical_oxdiff_formula         'C H N'
_shelx_space_group_comment
;
The symmetry employed for this shelxl refinement is uniquely defined
by the following loop, which should always be used as a source of
symmetry information in preference to the above space-group names.
They are only intended as comments.
;
_reflns_odcompleteness_completeness 93.35
_reflns_odcompleteness_iscentric 1
_reflns_odcompleteness_theta     25.63
_olex2_refinement_description
;
1. Fixed Uiso
 At 1.2 times of:
  All C(H) groups
2.a Aromatic/amide H refined with riding coordinates:
 C7(H7), C3(H3), C1(H1), C2(H2), C4(H4)
;
_olex2_date_sample_data_collection 2018-06-21
_olex2_submission_special_instructions 'No special instructions were received'
loop_
_space_group_symop_operation_xyz
'x, y, z'
'-x, y+1/2, -z+1/2'
'-x, -y, -z'
'x, -y-1/2, z-1/2'
loop_
_atom_site_label
_atom_site_type_symbol
_atom_site_fract_x
_atom_site_fract_y
_atom_site_fract_z
_atom_site_U_iso_or_equiv
_atom_site_adp_type
_atom_site_occupancy
_atom_site_site_symmetry_order
_atom_site_calc_flag
_atom_site_refinement_flags_posn
N1 N 0.25212(18) 0.35033(9) 0.47827(14) 0.0137(4) Uani 1 1 d .
N3 N 0.24785(18) 0.19427(10) 0.43904(13) 0.0192(4) Uani 1 1 d .
N4 N 0.12714(18) 0.23518(9) 0.30975(13) 0.0176(4) Uani 1 1 d .
N2 N 0.32531(19) 0.26121(9) 0.54179(14) 0.0181(4) Uani 1 1 d .
N5 N -0.19817(19) 0.37965(10) -0.02339(14) 0.0232(4) Uani 1 1 d .
C9 C 0.1326(2) 0.33269(12) 0.33595(16) 0.0143(4) Uani 1 1 d .
C5 C 0.2952(2) 0.44490(11) 0.54547(17) 0.0148(4) Uani 1 1 d .
C6 C 0.2054(2) 0.52587(12) 0.45286(17) 0.0150(4) Uani 1 1 d .
C8 C 0.0391(2) 0.41574(12) 0.24357(16) 0.0146(4) Uani 1 1 d .
C7 C 0.0773(2) 0.50893(11) 0.30233(16) 0.0157(4) Uani 1 1 d .
H7 H 0.0187 0.5636 0.2432 0.019 Uiso 1 1 calc R
C3 C 0.4544(2) 0.55379(12) 0.74925(17) 0.0190(4) Uani 1 1 d .
H3 H 0.5369 0.5640 0.8479 0.023 Uiso 1 1 calc R
C1 C 0.2462(2) 0.62251(11) 0.51422(17) 0.0171(4) Uani 1 1 d .
H1 H 0.1897 0.6778 0.4557 0.020 Uiso 1 1 calc R
C2 C 0.3685(2) 0.63633(12) 0.65959(18) 0.0185(4) Uani 1 1 d .
H2 H 0.3947 0.7008 0.6990 0.022 Uiso 1 1 calc R
C10 C -0.0923(2) 0.39626(12) 0.09421(16) 0.0176(4) Uani 1 1 d .
C4 C 0.4179(2) 0.45797(12) 0.69286(16) 0.0170(4) Uani 1 1 d .
H4 H 0.4743 0.4031 0.7524 0.020 Uiso 1 1 calc R
loop_
_atom_site_aniso_label
_atom_site_aniso_U_11
_atom_site_aniso_U_22
_atom_site_aniso_U_33
_atom_site_aniso_U_23
_atom_site_aniso_U_13
_atom_site_aniso_U_12
N1 0.0129(7) 0.0126(7) 0.0132(7) 0.0029(5) 0.0003(5) 0.0012(5)
N3 0.0216(7) 0.0147(8) 0.0185(7) 0.0002(6) 0.0018(5) 0.0001(5)
N4 0.0184(7) 0.0135(7) 0.0176(7) 0.0020(5) 0.0006(6) 0.0001(5)
N2 0.0195(7) 0.0138(7) 0.0186(7) 0.0034(5) 0.0020(6) 0.0030(5)
N5 0.0230(8) 0.0246(9) 0.0166(7) 0.0012(6) -0.0021(6) 0.0006(6)
C9 0.0124(7) 0.0164(8) 0.0125(7) 0.0003(6) 0.0016(6) -0.0014(6)
C5 0.0122(7) 0.0154(9) 0.0170(8) -0.0016(6) 0.0049(6) -0.0010(6)
C6 0.0109(7) 0.0170(8) 0.0168(8) 0.0002(6) 0.0036(6) 0.0003(6)
C8 0.0116(7) 0.0182(8) 0.0118(7) 0.0005(6) 0.0004(6) -0.0005(6)
C7 0.0137(8) 0.0159(9) 0.0171(8) 0.0034(6) 0.0038(6) 0.0018(6)
C3 0.0150(8) 0.0243(9) 0.0156(8) -0.0043(6) 0.0017(6) -0.0031(6)
C1 0.0154(8) 0.0141(9) 0.0215(8) 0.0014(6) 0.0052(7) -0.0006(6)
C2 0.0160(8) 0.0178(9) 0.0210(8) -0.0049(6) 0.0046(6) -0.0043(6)
C10 0.0168(8) 0.0156(8) 0.0195(8) 0.0029(7) 0.0041(6) 0.0018(6)
C4 0.0128(8) 0.0196(9) 0.0160(8) 0.0014(6) 0.0005(6) 0.0013(6)
loop_
_atom_type_symbol
_atom_type_description
_atom_type_scat_dispersion_real
_atom_type_scat_dispersion_imag
_atom_type_scat_source
C C 0.0033 0.0016 'International Tables Vol C Tables 4.2.6.8 and 6.1.1.4'
H H 0.0000 0.0000 'International Tables Vol C Tables 4.2.6.8 and 6.1.1.4'
N N 0.0061 0.0033 'International Tables Vol C Tables 4.2.6.8 and 6.1.1.4'
loop_
_geom_angle_atom_site_label_1
_geom_angle_atom_site_label_2
_geom_angle_atom_site_label_3
_geom_angle
N2 N1 C5 126.54(13)
C9 N1 N2 108.28(12)
C9 N1 C5 125.16(13)
N2 N3 N4 112.36(13)
C9 N4 N3 105.14(11)
N3 N2 N1 105.37(11)
N1 C9 C8 119.05(14)
N4 C9 N1 108.84(13)
N4 C9 C8 132.11(14)
N1 C5 C6 115.28(14)
C4 C5 N1 122.39(14)
C4 C5 C6 122.33(14)
C5 C6 C7 120.52(14)
C1 C6 C5 117.50(15)
C1 C6 C7 121.98(14)
C9 C8 C10 118.77(14)
C7 C8 C9 118.23(13)
C7 C8 C10 122.99(14)
C8 C7 C6 121.75(14)
C4 C3 C2 120.63(14)
C2 C1 C6 120.63(14)
C1 C2 C3 120.35(14)
N5 C10 C8 178.86(17)
C3 C4 C5 118.54(14)
loop_
_geom_bond_atom_site_label_1
_geom_bond_atom_site_label_2
_geom_bond_distance
N1 N2 1.3578(17)
N1 C9 1.3492(19)
N1 C5 1.3968(19)
N3 N4 1.3549(16)
N3 N2 1.2954(19)
N4 C9 1.321(2)
N5 C10 1.1385(18)
C9 C8 1.433(2)
C5 C6 1.405(2)
C5 C4 1.384(2)
C6 C7 1.427(2)
C6 C1 1.401(2)
C8 C7 1.349(2)
C8 C10 1.4335(19)
C3 C2 1.401(2)
C3 C4 1.374(2)
C1 C2 1.370(2)
loop_
_refln_index_h
_refln_index_k
_refln_index_l
_refln_F_squared_meas
_refln_F_squared_sigma
0 0 -1 -0.08 0.06
0 0 1 0.03 0.04
0 0 -1 0 0.04
0 0 2 186.14 4.63
0 0 -2 187.3 5.01
0 0 -2 180.07 4.8
0 0 -3 0.22 0.17
0 0 3 0.37 0.13
0 0 -3 -0.16 0.14
0 0 4 948.84 22.24
0 0 -4 939.47 22.64
0 0 -4 924.17 23.05
0 0 -5 0.28 0.21
0 0 5 0.37 0.19
0 0 -5 0.44 0.29
0 0 -6 58.35 2.82
0 0 -6 55.48 3.03
0 0 6 52.12 2.3
0 0 -7 2.23 0.63
0 0 -7 2.36 0.69
0 0 7 1.21 0.38
0 0 -8 49.35 3.14
0 0 -8 49.77 3.27
0 0 8 47.61 2.49
0 0 -9 0.56 0.5
0 0 9 -0.12 0.31
0 0 10 25.21 2
0 0 -10 23.57 2.56
0 -1 1 664.16 15.38
0 1 -1 671.68 15.67
0 -1 -1 649.68 15.67
0 1 -1 684.91 15.46
0 -1 -1 685.82 15.62
0 1 1 665.52 15.38
0 -1 -2 268.87 6.95
0 1 -2 266.32 6.95
0 1 2 248.31 6.48
0 -1 2 277.94 6.53
0 -1 -2 272.24 6.97
0 1 -2 273.42 6.66
0 -1 -2 270.04 6.79
0 -1 -3 18.38 1.09
0 -1 -3 17.78 1.16
0 1 -3 19.33 1.23
0 1 3 20.62 0.94
0 -1 3 19.13 0.92
0 1 -3 20.41 1.07
0 -1 -4 115.46 3.79
0 -1 4 111.71 3.38
0 1 4 106.15 3.32
0 1 -4 113.57 3.69
0 -1 -4 108.09 3.96
0 1 -4 111.41 3.98
0 1 -5 281.53 8.64
0 -1 5 286.64 7.79
0 1 -5 302.97 8.34
0 -1 -5 284.4 8.7
0 -1 -5 295.04 8.44
0 1 5 306.74 7.86
0 1 -6 28.6 1.87
0 1 6 28.31 1.59
0 -1 -6 30.55 2.14
0 1 -6 29.9 2.15
0 -1 6 30.06 1.63
0 -1 -6 30.91 2.01
0 1 -7 -0.25 0.3
0 1 7 0.31 0.2
0 -1 -7 0.27 0.32
0 1 -7 0.13 0.23
0 -1 7 0.03 0.16
0 -1 -7 -0.03 0.22
0 1 -8 44.55 2.94
0 1 8 46.47 2.48
0 -1 8 53.56 2.62
0 -1 -8 46.99 3.12
0 1 -8 54.07 3.39
0 -1 -8 52.87 3.35
0 -1 9 27.04 1.95
0 1 -9 26.96 2.43
0 -1 -9 25.08 2.45
0 1 9 27.56 1.95
0 -1 10 2.91 0.66
0 -1 -10 3 0.94
0 1 10 3.09 0.69
0 1 -10 1.44 0.61
0 -2 0 74.3 2.2
0 2 0 76.42 1.9
0 2 -1 394.44 8.86
0 2 -1 374.31 9.2
0 2 1 393.44 8.75
0 -2 1 372.5 8.75
0 -2 -1 374.15 9.27
0 -2 -2 282.25 7.26
0 -2 -2 278.69 7.34
0 2 -2 272.61 7.32
0 2 2 278.07 6.75
0 2 -2 278.7 6.9
0 -2 2 277.69 6.77
0 -2 -3 69.63 2.57
0 2 -3 67.92 2.65
0 -2 -3 68.59 2.69
0 2 -3 68.9 2.34
0 -2 3 64.8 2.14
0 2 3 70.3 2.16
0 2 4 66.44 2.27
0 2 -4 66.28 2.51
0 -2 -4 68.36 2.76
0 2 -4 60.68 2.79
0 -2 4 63.38 2.26
0 2 5 58.61 2.25
0 2 -5 53.25 2.78
0 2 -5 56.76 2.54
0 -2 5 58.12 2.26
0 -2 -5 58.63 2.76
0 -2 6 50.15 2.2
0 2 -6 45.8 2.44
0 2 6 49.24 2.17
0 -2 -6 45.63 2.65
0 2 -6 47.52 2.75
0 2 -7 45.17 2.89
0 -2 7 44.31 2.21
0 2 -7 41.34 2.52
0 -2 -7 47.05 2.87
0 2 7 42.06 2.17
0 -2 -8 7.77 1.26
0 2 -8 10.42 1.44
0 -2 8 11.43 1.14
0 2 8 11.14 1.12
0 2 -8 9.25 1.26
0 -2 -9 17.58 2.11
0 2 9 21.57 1.7
0 -2 9 22.05 1.74
0 2 -9 21.99 2.14
0 -2 -10 -0.39 0.4
0 -2 10 0.23 0.27
0 2 -10 -0.15 0.29
0 2 10 0.4 0.28
0 3 0 0.03 0.03
0 3 0 0.08 0.07
0 -3 0 -0.11 0.13
0 -3 1 57.4 1.5
0 3 -1 49.87 1.97
0 3 1 57.94 1.49
0 -3 -1 52.31 2.05
0 3 -1 55.36 1.62
0 -3 -2 208.35 5.94
0 3 2 205.85 5.15
0 -3 2 207.39 5.16
0 -3 -2 205.44 5.92
0 3 -2 209.57 5.32
0 3 -2 205.87 5.83
0 3 -3 10.06 0.72
0 -3 -3 12.4 1.02
0 3 3 8.31 0.59
0 3 -3 13.4 1.05
0 -3 -3 15.7 1.16
0 3 -4 52.88 2.6
0 -3 4 56.38 2.06
0 3 -4 59.87 2.31
0 3 4 57.18 2.05
0 -3 -4 55.26 2.6
0 -3 -4 53.08 2.65
0 3 -5 1.65 0.4
0 3 -5 2.02 0.51
0 -3 5 2.2 0.39
0 -3 -5 2.08 0.52
0 3 5 2.12 0.36
0 -3 -6 8.71 1.14
0 3 -6 8.7 1.15
0 3 -6 8.97 1
0 3 6 8.09 0.81
0 -3 6 7.56 0.79
0 3 -7 202.7 6.77
0 -3 7 197.89 6.13
0 3 7 191.82 6.06
0 -3 -7 192.94 7.3
0 3 -7 201.03 7.25
0 3 8 61.11 2.98
0 3 -8 72.86 4.08
0 -3 -8 70.1 4.14
0 3 -8 72.74 3.73
0 -3 8 68.84 3.12
0 3 -9 1.47 0.59
0 3 9 0.81 0.35
0 -3 9 0.96 0.37
0 -3 -9 0.9 0.5
0 3 10 25.26 2.01
0 3 -10 26.58 2.62
0 -3 -10 27.42 2.96
0 -3 10 28.33 2.14
0 4 0 54.91 1.74
0 -4 0 53.96 2.12
0 4 0 54.62 1.58
0 4 -1 5.11 0.59
0 4 1 5.87 0.29
0 4 -1 5.7 0.37
0 -4 -1 5.74 0.64
0 -4 1 5.82 0.29
0 4 -2 249.91 7.13
0 -4 2 250.1 6.27
0 4 2 263.87 6.27
0 -4 -2 247.7 7.22
0 4 -2 260.01 6.46
0 4 -3 22.98 1.14
0 -4 -3 23.84 1.57
0 -4 3 21.31 0.99
0 4 3 22.9 1.01
0 -4 -3 20.75 1.48
0 4 -3 21.97 1.47
0 -4 -4 6.96 0.93
0 4 -4 7.12 0.69
0 4 -4 7.86 0.93
0 4 4 5.23 0.51
0 -4 4 4.16 0.46
0 -4 -4 8.2 0.99
0 4 -5 74.82 3.52
0 -4 -5 76.68 3.63
0 4 -5 79.7 3.07
0 -4 5 75.2 2.73
0 -4 -5 71.51 3.5
0 4 5 73.56 2.7
0 4 6 18.63 1.25
0 4 -6 18.03 1.74
0 -4 6 20.17 1.32
0 4 -6 20.62 1.54
0 -4 -6 21.81 1.92
0 -4 -7 173.34 6.89
0 4 -7 171.18 6.07
0 -4 7 166.35 5.46
0 4 -7 175.2 6.78
0 4 7 166.96 5.43
0 4 -8 157.4 6.64
0 4 8 159.55 5.48
0 4 -8 170.82 6.32
0 -4 8 155.95 5.46
0 -4 -8 153.61 6.88
0 4 -9 0.05 0.23
0 -4 9 0.38 0.28
0 -4 -9 -0.46 0.45
0 4 9 0.25 0.24
0 -4 -10 0.29 0.44
0 -4 10 -0.19 0.23
0 4 10 0.07 0.15
0 4 -10 -0.5 0.43
0 5 0 0.04 0.09
0 -5 0 0.15 0.19
0 5 0 0.19 0.08
0 -5 -1 70.18 2.9
0 5 -1 74.62 2.86
0 -5 1 77.14 2.95
0 -5 1 77.36 1.95
0 5 1 76.47 1.93
0 5 -1 69.55 2.15
0 5 -2 550.83 13.32
0 5 -2 545.97 14.25
0 -5 2 560.73 13.09
0 -5 -2 545.3 14.37
0 5 2 562.52 13.08
0 5 -3 14.25 1.22
0 5 -3 14.75 0.91
0 5 3 13.67 0.76
0 -5 3 13.81 0.77
0 -5 -3 15.09 1.29
0 5 -4 111.72 4.44
0 -5 -4 122 4.64
0 -5 -4 106.29 4.52
0 5 4 117.35 3.5
0 5 -4 117.47 3.79
0 -5 4 112.91 3.5
0 -5 -5 6.15 0.99
0 5 5 6.41 0.64
0 -5 -5 5.84 0.93
0 5 -5 4.34 0.79
0 5 -5 4.92 0.66
0 -5 5 5.77 0.62
0 -5 -6 199.84 7.34
0 5 6 195.32 5.88
0 5 -6 201.33 7.26
0 -5 6 201.1 5.97
0 5 -6 201.64 6.43
0 -5 -6 190.66 7.33
0 5 -7 5.53 0.88
0 -5 7 6.17 0.77
0 5 7 4.8 0.67
0 5 -7 5.46 1.07
0 -5 -7 5.65 1.11
0 5 -8 178.16 7.23
0 -5 -8 155.67 7.3
0 -5 8 175.79 5.88
0 5 8 173.68 5.8
0 5 -8 173.57 6.55
0 -5 9 3.18 0.66
0 5 9 3.31 0.66
0 5 -9 3.8 0.89
0 -5 -9 2.24 0.86
0 6 0 20.92 0.89
0 -6 0 24.41 1.54
0 6 1 293.28 7.54
0 -6 1 285.93 8.29
0 -6 1 300.97 6.91
0 6 1 290.96 6.88
0 6 -1 292.53 7.26
0 -6 -1 280.46 8.42
0 6 -1 297.11 8.34
0 -6 2 37.63 1.29
0 6 -2 36.22 2.06
0 6 -2 37.46 1.48
0 -6 -2 38.19 2.16
0 6 2 39.47 1.28
0 6 3 272.2 6.73
0 6 -3 268.61 7.03
0 6 -3 255.92 8.01
0 -6 3 257.75 6.72
0 -6 -3 260.18 8.15
0 6 -4 32.84 2.23
0 -6 -4 35.53 2.34
0 6 -4 36.47 1.78
0 6 4 39.54 1.61
0 -6 4 38.73 1.62
0 6 -5 20.46 1.82
0 6 -5 24.37 1.55
0 -6 -5 20.77 1.9
0 -6 5 25.65 1.4
0 6 5 28.4 1.43
0 6 -6 82.49 4.22
0 6 6 82.91 3.14
0 6 -6 86.92 3.59
0 -6 -6 82.84 4.27
0 -6 6 88.8 3.24
0 -6 -6 74.03 4.23
0 -6 -7 144.48 6.77
0 6 -7 165.16 5.93
0 6 -7 164.3 6.77
0 -6 7 174.74 5.47
0 6 7 153.79 5.24
0 -6 -8 14.07 1.96
0 6 -8 14.02 1.56
0 6 -8 13.81 1.78
0 -6 8 14.7 1.34
0 6 8 14.59 1.29
0 -6 -9 11.24 1.91
0 -6 9 14.57 1.44
0 6 9 14.73 1.41
0 6 -9 12.88 1.63
0 7 0 0.77 0.17
0 -7 0 1.01 0.43
0 -7 -1 138.62 5.03
0 7 -1 141.77 4.88
0 7 -1 142.49 3.79
0 7 1 131.39 3.74
0 -7 1 137.34 4.8
0 7 1 135.65 4.02
0 7 2 0.35 0.11
0 -7 2 0.51 0.12
0 7 -2 0.33 0.22
0 -7 2 0.54 0.35
0 7 -2 0.3 0.14
0 -7 -2 -0.05 0.24
0 7 3 66.2 2.07
0 -7 -3 57.03 3.11
0 7 -3 56.9 3.04
0 7 -3 61.62 2.3
0 -7 3 62.48 2.08
0 -7 4 62.6 2.23
0 7 -4 58.13 2.41
0 -7 -4 53.43 3.12
0 7 4 58.71 2.13
0 7 -4 53.78 3.08
0 -7 5 55.63 2.26
0 7 -5 51.49 3.11
0 7 5 51.94 2.16
0 -7 -5 52.13 3.2
0 7 -5 49.03 2.38
0 -7 6 65.03 2.7
0 -7 -6 65.47 3.8
0 7 6 58.17 2.54
0 7 -6 64.18 3.72
0 7 -6 62.8 2.98
0 -7 7 3.08 0.58
0 7 -7 4.16 0.78
0 7 7 3.18 0.56
0 -7 -7 4.18 1.02
0 7 -7 5.18 1.08
0 7 -8 6.82 1.11
0 -7 8 7.77 0.97
0 7 8 6.23 0.83
0 7 9 0.07 0.14
0 7 -9 -0.24 0.32
0 -7 9 0.27 0.27
0 8 0 92.95 2.75
0 -8 0 91.9 3.98
0 -8 1 0.2 0.28
0 8 -1 0.09 0.21
0 8 -1 0.18 0.13
0 -8 -1 0.45 0.42
0 8 1 0.03 0.08
0 8 1 0.11 0.13
0 -8 -2 90.19 4.13
0 8 -2 99.67 3
0 -8 2 90.43 4.03
0 8 -2 91.73 4.05
0 8 -3 1.22 0.28
0 -8 -3 1.47 0.5
0 8 -3 1.66 0.54
0 -8 3 1.08 0.21
0 8 -4 8.77 1.23
0 -8 -4 9.71 1.3
0 8 -4 7.03 0.75
0 -8 4 7.29 0.64
0 8 4 7.5 0.62
0 8 5 12.66 0.92
0 -8 -5 10.25 1.41
0 8 -5 10.75 1.03
0 -8 5 9.87 0.86
0 8 -5 10.52 1.4
0 -8 -6 123.52 5.8
0 -8 6 131.75 4.33
0 8 -6 121.27 5.66
0 8 -6 121.85 4.66
0 8 6 124.9 4.19
0 8 -7 32.21 2.23
0 8 -7 32.89 2.79
0 8 7 30.78 1.84
0 -8 7 33.32 1.95
0 -8 -7 36.74 3.04
0 -8 8 0.05 0.17
0 8 -8 0.22 0.25
0 -9 0 0.14 0.27
0 9 0 0.08 0.08
0 9 0 0.29 0.32
0 -9 -1 84.49 4.13
0 9 -1 88.23 4.01
0 9 1 87.78 2.8
0 9 -1 96.09 2.84
0 -9 1 89.89 4.09
0 9 -2 0.56 0.19
0 9 -2 0.33 0.32
0 9 2 0.28 0.13
0 -9 2 -0.15 0.23
0 -9 -2 0.82 0.45
0 -9 -3 5.28 1.01
0 9 -3 5.81 0.6
0 -9 3 5.86 1.01
0 9 -3 4.82 0.92
0 9 -4 37.53 1.86
0 9 -4 33.1 2.54
0 -9 -4 33.15 2.59
0 9 -5 2.65 0.52
0 -9 -5 1.83 0.69
0 9 -5 2.92 0.78
0 -9 -6 25.69 2.46
0 9 -6 23.8 1.75
0 9 -6 22.35 2.27
0 9 -7 0.42 0.28
0 9 -7 0.04 0.3
0 -9 -7 0.06 0.32
0 9 -8 2.21 0.62
0 -10 0 77.54 4.01
0 10 0 75.54 3.76
0 -10 1 97.14 4.53
0 -10 -1 98.78 4.67
0 10 -1 97.29 4.45
0 -10 -2 0.11 0.44
0 -10 2 0.71 0.48
0 10 -2 -0.21 0.31
0 -10 3 10.61 1.43
0 -10 -3 11.03 1.48
0 10 -3 11.63 1.47
0 -10 4 17.24 1.91
0 -10 -4 17.34 1.93
0 10 -4 17.88 1.92
0 10 -5 14.11 1.77
0 -10 -5 13.34 1.75
0 -10 -6 54.55 3.86
0 10 -6 60.78 4
0 10 -7 23.02 2.48
0 -10 -7 25.04 2.63
0 11 0 0.06 0.35
0 -11 0 0.26 0.4
0 11 -1 112.75 5.1
0 -11 1 112.33 5.22
0 -11 -1 114.23 5.37
0 -11 -2 14.91 1.78
0 -11 2 11.09 1.48
0 11 -2 15.73 1.78
0 11 -3 35.08 2.77
0 -11 -3 32.83 2.75
0 -11 3 35.78 2.67
0 -11 -4 54.16 3.67
0 11 -4 49.29 3.45
0 -11 4 46.97 3.27
0 11 -5 0.87 0.51
0 -11 -5 1.78 0.73
0 -11 5 1.19 0.66
0 11 -6 4.52 1.12
0 -11 -6 4.76 1.18
0 -11 -7 1.83 0.78
0 11 -7 -0.04 0.23
0 -12 0 8.68 1.43
0 12 0 9.29 1.33
0 -12 -1 1.51 0.65
0 12 1 3.16 0.86
0 -12 1 2.39 0.76
0 12 -1 1.55 0.59
0 -12 -2 47.75 3.49
0 12 -2 54.05 3.53
0 -12 2 49.8 3.43
0 12 -3 0.17 0.41
0 -12 -3 0.35 0.4
0 -12 3 -0.02 0.37
0 12 -4 5.15 1.15
0 -12 -4 6.06 1.25
0 -12 4 5 1.04
0 -12 -5 7.18 1.42
0 12 -5 5.46 1.23
0 -12 5 3.96 0.97
0 12 -6 2.62 0.91
0 -12 6 1.26 0.65
0 -13 0 1.74 0.76
0 13 0 0.15 0.25
0 -13 -1 45.01 3.47
0 13 1 39.16 2.96
0 -13 1 42.54 3.33
0 13 -1 44.59 3.25
0 -13 -2 15.72 2.03
0 -13 2 17.08 2.05
0 13 -2 15.55 1.94
0 13 -3 24.01 2.49
0 -13 3 22.74 2.38
0 -13 -3 25.17 2.65
0 -13 -4 13.08 1.98
0 13 -4 12.47 1.84
0 -13 4 12.3 1.78
0 13 -5 5.91 1.33
0 -13 -5 6.43 1.41
0 -13 5 5.27 1.17
0 -14 0 10.21 1.72
0 14 0 9.68 1.54
0 -14 -1 0.72 0.5
0 -14 1 0.97 0.6
0 14 -1 1.4 0.64
0 14 1 1.55 0.66
0 14 -2 8.01 1.46
0 -14 2 9.85 1.64
0 -14 -2 8.87 1.63
0 14 2 8.99 1.45
0 -14 -3 14.82 2.18
0 14 -3 13.66 1.96
0 -14 3 15.52 2.08
0 -14 4 1.85 0.8
0 14 -4 3.17 0.99
0 -14 -4 2.57 0.91
0 15 0 -0.26 0.31
0 -15 0 2.4 0.98
0 15 1 1.91 0.78
0 15 -1 1.69 0.76
0 -15 -1 2.83 1
0 -15 1 2.69 0.97
0 15 -2 0.05 0.46
0 -15 -2 0.25 0.31
0 -15 2 1.46 0.68
0 15 2 0.63 0.5
0 15 -3 18.17 2.38
0 -15 -3 16.35 2.34
0 -15 3 15.95 2.24
-1 0 10 87.71 4.02
1 0 -10 80.14 5.1
1 0 -10 84.12 5.08
1 0 -9 0.34 0.48
-1 0 9 -0.17 0.27
1 0 -9 -0.19 0.36
1 0 -8 14.8 1.77
-1 0 8 11.19 1.13
1 0 -8 10.44 1.44
-1 0 7 -0.02 0.2
1 0 -7 -0.17 0.29
1 0 -7 0.05 0.24
1 0 -6 0.49 0.28
1 0 -6 0.55 0.41
-1 0 6 0.6 0.25
1 0 -5 -0.07 0.31
-1 0 5 0.18 0.14
1 0 -5 0.4 0.29
-1 0 4 0.26 0.16
1 0 -4 0.12 0.2
1 0 -4 0.15 0.24
1 0 -3 0.14 0.21
1 0 -3 0.09 0.22
-1 0 3 0.25 0.12
1 0 -2 132 4.24
1 0 -2 143.04 4.33
1 0 -1 0.03 0.08
-1 0 1 -0.18 0.1
-1 0 0 176.51 4.29
1 0 1 0.04 0.09
-1 0 -1 -0.04 0.07
-1 0 -2 34.04 1.34
1 0 2 34.52 1.39
-1 0 -2 36.96 1.29
-1 0 -3 -0.01 0.09
-1 0 -3 -0.17 0.13
1 0 3 0.06 0.1
-1 0 -4 5.27 0.62
1 0 4 4.27 0.51
-1 0 -4 3.8 0.53
-1 0 -5 0.15 0.18
1 0 5 0.24 0.19
-1 0 -5 0.01 0.11
-1 0 -6 -0.05 0.28
1 0 6 0.13 0.16
-1 0 -6 0.13 0.21
1 0 7 0.17 0.23
-1 0 -7 0.31 0.34
-1 0 -8 31.07 2.38
1 0 8 29.87 1.96
1 0 9 0.56 0.37
-1 0 -9 -0.44 0.35
1 -1 -10 14.14 2.06
1 1 -10 12.4 1.84
1 1 -10 14.74 2
-1 -1 10 14.8 1.48
-1 1 10 13.9 1.44
1 -1 -10 15.54 2.05
1 1 -9 15.34 1.97
1 1 -9 17.06 1.96
1 -1 -9 18.63 2.13
1 -1 -9 13.66 1.88
-1 -1 9 13.87 1.34
-1 1 9 14.84 1.38
-1 -1 8 15.27 1.31
1 1 -8 15.42 1.8
1 1 -8 13.67 1.62
1 -1 -8 17.77 1.94
1 -1 -8 15.29 1.8
-1 1 8 14.64 1.27
1 1 -7 3.06 0.68
1 1 -7 2.78 0.72
1 -1 -7 3.94 0.88
-1 -1 7 2.88 0.53
-1 1 7 3.91 0.6
1 -1 -7 3.45 0.81
1 1 -6 32.01 2.26
1 -1 -6 31.52 2.22
-1 1 6 32.61 1.68
1 1 -6 31.44 2.04
-1 -1 6 31.16 1.65
1 -1 -6 31.61 2.29
-1 -1 5 1.24 0.3
1 1 -5 0.81 0.3
-1 1 5 0.9 0.25
1 1 -5 1.01 0.38
1 -1 -5 0.97 0.38
1 -1 -5 1.33 0.42
1 1 -4 0.88 0.38
1 -1 -4 0.91 0.35
-1 -1 4 0.93 0.23
1 1 -4 1.14 0.32
-1 1 4 1.09 0.25
1 -1 -4 1.18 0.4
1 -1 -3 3.74 0.56
-1 1 3 4.65 0.43
1 1 -3 5.79 0.68
-1 -1 3 4.62 0.43
1 1 -3 5.28 0.57
1 -1 -3 4.53 0.66
-1 -1 2 68.56 2.08
1 1 -2 71.8 2.33
1 -1 -2 66.19 1.89
1 1 -2 65.07 2.45
-1 1 2 68.62 2.09
1 -1 -2 70.15 2.49
1 1 -1 18.63 0.91
-1 -1 1 17.91 0.78
-1 1 1 19.77 0.82
-1 -1 1 18.84 0.72
1 -1 -1 17.89 0.88
-1 -1 0 494.21 11.91
-1 1 0 493.26 11.62
1 1 0 521.55 11.64
-1 -1 0 518.98 11.44
-1 -1 -1 136.93 4.12
-1 1 -1 138.57 3.63
-1 -1 -1 139.45 3.53
1 1 1 138.47 3.68
1 -1 1 137.25 3.69
1 -1 2 1.76 0.27
-1 1 -2 1.94 0.28
-1 1 -2 2.09 0.27
-1 -1 -2 2.04 0.27
1 1 2 1.92 0.28
1 -1 3 0.86 0.22
-1 1 -3 0.72 0.21
-1 -1 -3 0.97 0.23
1 1 3 0.67 0.18
-1 1 -3 1 0.26
-1 1 -4 36.91 1.85
1 -1 4 37.27 1.68
-1 -1 -4 36.53 1.8
-1 1 -4 37.54 1.81
1 1 4 38.99 1.7
1 -1 5 4.09 0.56
-1 1 -5 4.95 0.68
-1 -1 -5 4.08 0.62
-1 1 -5 4.38 0.68
1 1 5 3.74 0.53
-1 1 -6 25.73 1.79
-1 1 -6 25.45 1.87
1 -1 6 25.42 1.55
1 1 6 27.81 1.59
-1 -1 -6 26.64 1.84
1 -1 7 13.05 1.18
-1 -1 -7 14.53 1.46
-1 1 -7 11.44 1.3
1 1 7 12.03 1.13
1 1 8 99.4 4.03
-1 -1 -8 99.9 4.74
1 -1 8 102.68 4.09
-1 1 -8 102.89 4.73
-1 1 -9 3.54 0.87
1 1 9 3.92 0.76
1 -1 9 3.09 0.67
-1 -1 -9 4.02 0.97
1 2 -10 8.81 1.55
-1 -2 10 8.93 1.15
-1 2 10 6.64 0.98
1 -2 -10 6.85 1.47
1 2 -10 5.3 1.22
1 2 -9 1.44 0.63
-1 -2 9 0.79 0.32
1 -2 -9 0.53 0.39
-1 2 9 0.77 0.35
1 2 -9 1.08 0.55
1 -2 -8 0.45 0.33
-1 -2 8 0.73 0.3
-1 2 8 0.95 0.37
1 2 -8 0.29 0.4
1 2 -8 0.81 0.44
1 -2 -8 0.38 0.43
1 2 -7 0.08 0.25
1 2 -7 0.4 0.31
1 -2 -7 0.67 0.49
1 -2 -7 0.34 0.42
-1 2 7 0.45 0.22
-1 -2 7 0.32 0.21
-1 2 6 1.39 0.35
1 -2 -6 1.38 0.48
1 2 -6 1.52 0.43
1 -2 -6 0.86 0.45
-1 -2 6 1.57 0.37
1 2 -6 1.24 0.52
1 2 -5 27.79 1.66
-1 2 5 25.55 1.36
1 -2 -5 28.11 2
1 2 -5 25.31 1.89
-1 -2 5 25.68 1.37
1 -2 -5 26.5 1.94
1 2 -4 18.24 1.16
1 -2 -4 18.59 1.45
1 2 -4 18.78 1.46
1 -2 -4 17.84 1.46
-1 2 4 18.87 1.03
-1 -2 4 16.4 0.97
1 -2 -3 91.42 3.36
-1 2 3 84.18 2.67
-1 -2 3 91.95 2.7
1 2 -3 90.38 3.35
1 -2 -3 86.39 2.82
1 2 -3 89.49 2.88
1 2 -2 283.02 7.96
-1 -2 2 298.23 7.42
1 2 -2 303.82 7.49
1 -2 -2 309.87 7.45
-1 2 2 301.22 7.42
1 2 -1 267.81 6.86
-1 -2 1 264.69 6.5
1 -2 -1 253.3 6.57
-1 2 1 276.44 6.53
-1 -2 1 261.49 6.63
-1 2 0 11.39 0.58
1 2 0 13 0.68
-1 -2 0 11.88 0.77
-1 2 -1 25.19 0.97
-1 -2 -1 24.08 1.34
-1 -2 -1 25.59 0.91
1 2 1 23.18 0.99
-1 2 -1 25.86 1.02
1 -2 1 25.14 1.02
1 -2 2 14.67 0.8
-1 -2 -2 14.07 0.77
-1 2 -2 14.79 0.84
1 2 2 12.68 0.74
-1 -2 -2 15.15 1.14
-1 2 -2 14.27 0.81
-1 2 -3 27.77 1.43
-1 -2 -3 29.05 1.41
-1 2 -3 31.93 1.44
1 2 3 27.43 1.28
1 -2 3 28.45 1.31
1 2 4 35.91 1.63
1 -2 4 38.55 1.68
-1 2 -4 36.36 1.8
-1 2 -4 34.12 1.85
-1 -2 -4 35.88 1.79
-1 -2 -5 2.78 0.53
-1 2 -5 2.8 0.53
-1 2 -5 2.62 0.54
1 2 5 3.22 0.48
1 -2 5 3.39 0.51
-1 -2 -6 20.38 1.6
1 -2 6 19.26 1.31
-1 2 -6 19.29 1.63
1 2 6 16.69 1.23
-1 2 -6 18.69 1.5
1 -2 7 20.8 1.48
-1 2 -7 18.09 1.66
-1 -2 -7 20.73 1.81
1 2 7 19.44 1.43
1 2 8 1.33 0.43
-1 2 -8 1.78 0.63
-1 -2 -8 0.64 0.43
1 -2 8 1.24 0.44
-1 2 -9 10.87 1.5
1 2 9 9.68 1.16
1 -2 9 9.95 1.19
-1 -2 -9 9.83 1.5
1 3 -10 0.29 0.38
-1 -3 10 0.18 0.24
-1 3 10 0.13 0.23
1 -3 -10 1.22 0.67
1 3 -10 -0.01 0.33
-1 -3 9 22.44 1.75
1 -3 -9 25.75 2.72
1 3 -9 21.87 2.34
-1 3 9 22.12 1.7
1 3 -9 25.63 2.34
-1 -3 8 10.58 1.1
1 3 -8 13.77 1.54
1 -3 -8 10.14 1.57
1 3 -8 13.97 1.7
-1 3 8 12.99 1.19
-1 -3 7 -0.02 0.22
1 3 -7 0.86 0.43
1 -3 -7 0.18 0.33
-1 3 7 0.48 0.22
1 3 -7 0.38 0.29
-1 3 6 15.47 1.11
1 -3 -6 16.58 1.74
-1 -3 6 16.19 1.14
1 3 -6 15.87 1.34
1 3 -6 13.88 1.49
1 3 -5 0.63 0.45
-1 -3 5 0.56 0.23
-1 3 5 0.24 0.13
1 3 -5 0.63 0.26
1 -3 -5 1 0.47
1 3 -4 21.62 1.6
-1 -3 4 19.1 1.07
-1 3 4 22.6 1.14
1 3 -4 20.31 1.2
1 -3 -4 20.61 1.33
1 3 -3 36.65 1.49
1 -3 -3 30.9 1.58
-1 -3 3 36.51 1.43
-1 3 3 36.76 1.43
1 3 -3 35.64 1.92
-1 -3 2 552.89 13.11
1 3 -2 522.27 13.51
-1 3 2 533.81 12.74
-1 -3 2 533.74 12.76
1 -3 -2 542.74 13.05
1 3 -2 529.84 12.67
1 3 -1 4.79 0.27
1 -3 -1 3.25 0.37
-1 3 1 3.81 0.32
1 3 -1 4.18 0.51
1 3 -1 3.22 0.43
-1 -3 1 4.53 0.49
-1 -3 1 4.35 0.35
1 3 0 959.46 22.76
-1 -3 0 962.93 22.88
-1 3 0 913.11 22.28
-1 -3 -1 129.54 3.23
1 3 1 118.44 3.27
-1 -3 -1 114.66 3.94
1 -3 1 121.06 3.31
-1 3 -1 117.74 3.36
-1 3 -1 123.63 3.51
1 3 2 11.18 0.67
-1 -3 -2 12.33 0.73
-1 -3 -2 10.65 1.01
1 -3 2 11.72 0.71
-1 3 -2 11.57 0.74
-1 3 -2 11.22 0.79
1 -3 3 20.13 1.05
-1 -3 -3 19.86 1.14
-1 3 -3 19.66 1.12
1 3 3 19.97 1.03
-1 -3 -3 16.71 1.41
-1 3 -3 18.41 1.2
-1 3 -4 13.49 1.13
-1 -3 -4 14.24 1.1
1 -3 4 15.16 0.99
-1 3 -4 15.81 1.12
1 3 4 15.61 1
-1 3 -5 10.05 0.97
-1 -3 -5 8.41 0.95
1 -3 5 7.14 0.73
-1 3 -5 8.68 1.02
1 3 5 9.92 0.84
-1 3 -6 2.14 0.53
-1 -3 -6 1.87 0.52
1 3 6 2.32 0.46
1 -3 6 2.25 0.45
-1 3 -6 2.53 0.6
-1 3 -7 6.16 0.93
1 -3 7 6.31 0.81
-1 -3 -7 6.65 1.05
1 3 7 3.96 0.64
1 -3 8 -0.01 0.17
1 3 8 -0.27 0.27
-1 -3 -8 -0.34 0.3
-1 3 -8 -0.42 0.29
1 -3 9 7.41 1.03
-1 3 -9 9.57 1.43
1 3 9 8.81 1.11
-1 -3 -9 7.98 1.4
1 -4 -10 4.32 1.18
-1 -4 10 3.33 0.72
-1 4 10 4.08 0.78
1 4 -10 4.1 1.01
-1 4 9 20.1 1.63
1 -4 -9 17.76 2.33
1 4 -9 21 2.11
1 4 -9 22.44 2.35
-1 -4 9 22.17 1.73
-1 4 8 32.04 1.98
1 -4 -8 34.4 3.05
1 4 -8 38.55 2.93
-1 -4 8 35.82 2.11
1 4 -8 36.59 2.54
1 4 -7 35.71 2.72
-1 -4 7 35.69 1.96
1 4 -7 33.6 2.24
1 -4 -7 36.37 2.9
-1 4 7 36.88 1.96
1 4 -6 5.68 0.99
1 -4 -6 4.47 0.97
1 4 -6 5.21 0.74
-1 -4 6 4.63 0.61
-1 4 6 4.88 0.62
1 -4 -5 5.91 0.79
1 4 -5 5.16 0.86
1 4 -5 5.46 0.67
-1 -4 5 5.96 0.61
-1 4 5 5.14 0.58
1 4 -4 8.4 1.02
1 4 -4 9.81 0.81
1 -4 -4 11.25 1.02
-1 4 4 10.93 0.76
-1 -4 4 9.74 0.74
1 4 -3 0.52 0.18
1 -4 -3 1.13 0.3
-1 -4 3 0.69 0.19
1 4 -3 0.71 0.35
-1 4 3 0.78 0.2
1 4 -2 179.39 5.7
1 -4 -2 190.61 5.45
-1 -4 2 192.95 4.93
-1 4 2 194.45 4.92
1 4 -2 183.04 4.78
-1 -4 2 191.42 5.37
1 4 -1 101.85 3.33
-1 -4 1 109 3.45
1 4 -1 109.48 3.54
1 4 -1 100.72 2.52
1 -4 -1 103.26 3.27
-1 4 1 103.42 2.98
1 4 0 18.43 1.11
-1 -4 0 17.23 1.16
1 4 0 16.62 1.05
-1 4 0 16.3 0.82
-1 -4 -1 5.53 0.69
-1 -4 -1 5.26 0.45
-1 4 -1 5.91 0.57
1 -4 1 5.39 0.4
-1 4 -1 5.15 0.45
1 4 1 4.67 0.36
1 4 2 17.8 0.87
-1 -4 -2 17.43 1.37
-1 4 -2 19.18 1.01
-1 4 -2 17.67 1.12
-1 -4 -2 18.79 1.03
1 -4 2 17.77 0.9
1 -4 3 1.27 0.25
1 4 3 1.01 0.23
-1 -4 -3 0.64 0.32
-1 4 -3 0.82 0.28
-1 4 -3 0.9 0.24
-1 -4 -3 0.97 0.29
-1 4 -4 74.93 2.86
1 -4 4 72.83 2.63
-1 -4 -4 70.89 3.58
1 4 4 74.21 2.6
-1 4 -4 73.89 3.12
-1 -4 -4 73.25 3
-1 4 -5 12.61 1.13
-1 -4 -5 10.65 1.11
1 -4 5 12.79 0.97
1 4 5 12.58 0.95
-1 4 -5 11.69 1.24
-1 4 -6 76.02 3.42
1 -4 6 78.01 3.08
-1 4 -6 83.04 3.85
-1 -4 -6 81.87 3.77
1 4 6 77.02 3.06
-1 4 -7 29.78 2.14
-1 -4 -7 29.23 2.33
1 -4 7 30.65 1.87
1 4 7 29.78 1.82
1 -4 8 4.99 0.79
-1 -4 -8 4.58 1
-1 4 -8 4.58 0.9
1 4 8 5.42 0.79
-1 4 -9 1.87 0.66
-1 -4 -9 0.73 0.45
1 -4 9 1.29 0.44
1 4 9 1.27 0.43
1 5 -10 0.72 0.45
-1 5 10 0.69 0.34
-1 -5 10 0.13 0.24
1 5 -9 0.85 0.5
-1 5 9 2.79 0.62
-1 -5 9 2.64 0.61
1 5 -9 3.63 0.88
-1 5 8 5.06 0.74
1 5 -8 6.14 1.2
-1 -5 8 5.95 0.83
1 5 -8 5.59 0.97
1 5 -7 0.77 0.41
-1 -5 7 0.87 0.31
1 5 -7 1.15 0.56
-1 5 7 0.65 0.26
-1 -5 6 46.91 2.17
-1 5 6 45.78 2.13
1 5 -6 51.38 2.52
1 -5 -6 49.51 2.84
1 5 -6 50.09 3.11
1 -5 -5 32.69 2.05
1 5 -5 29.32 1.67
-1 -5 5 31.12 1.55
1 5 -5 27.52 2.1
-1 5 5 31.23 1.54
1 -5 -4 2.41 0.51
-1 -5 4 1.77 0.31
1 5 -4 1.88 0.34
1 5 -4 1.27 0.51
-1 5 4 1.93 0.32
1 5 -3 8.59 1
1 5 -3 7.94 0.61
-1 -5 3 8.43 0.62
-1 5 3 8.3 0.62
1 -5 -3 8.56 0.89
-1 -5 2 110.02 3.77
1 5 -2 111.82 4.13
1 -5 -2 115.19 3.94
-1 5 2 117.75 3.26
-1 -5 2 116.51 3.26
1 5 -2 114.71 3.1
-1 5 1 53.56 1.83
-1 -5 1 55.82 2.34
1 -5 -1 49.74 2.17
1 5 -1 49.24 1.36
1 5 -1 51.35 2.15
1 5 -1 54.47 2.39
1 5 0 203.31 5.89
-1 -5 0 212.61 6.3
-1 5 0 202.91 5.45
1 5 0 220.3 6.14
-1 -5 -1 86.13 3.48
1 5 1 87.19 2.44
-1 5 -1 88.2 3.12
1 -5 1 88.71 2.49
-1 5 -1 85.21 2.71
-1 5 -2 27.32 1.56
-1 -5 -2 28.19 1.5
-1 -5 -2 29.97 1.94
1 -5 2 28.56 1.18
-1 5 -2 29.29 1.34
1 5 2 27.47 1.14
1 -5 3 11.54 0.77
1 5 3 12.08 0.76
-1 5 -3 11.74 0.88
-1 -5 -3 10.15 1.18
-1 -5 -3 8.68 0.88
-1 5 -3 11.86 1.06
1 5 4 24.03 1.26
-1 5 -4 25.55 1.5
-1 -5 -4 23.83 1.64
-1 -5 -4 25.34 2.02
1 -5 4 23.65 1.29
-1 5 -4 22.27 1.63
-1 -5 -5 22.66 1.75
-1 5 -5 24.92 1.61
1 -5 5 20.77 1.31
1 5 5 22.37 1.33
-1 5 -5 27.85 1.97
-1 -5 -5 24.77 2.15
1 -5 6 0.51 0.25
-1 5 -6 -0.01 0.19
-1 5 -6 0.12 0.2
1 5 6 0.47 0.25
-1 -5 -6 0.8 0.38
1 5 7 5.27 0.72
-1 5 -7 3.66 0.73
-1 -5 -7 3.23 0.81
1 -5 7 3.05 0.58
-1 -5 -8 10.44 1.57
1 -5 8 9.3 1.08
1 5 8 11.17 1.16
-1 5 -8 11.12 1.4
-1 -5 -9 -0.15 0.32
-1 5 -9 -0.07 0.34
1 -5 9 0.32 0.3
1 5 9 0.34 0.28
-1 -6 9 -0.44 0.28
1 6 -9 0.07 0.35
1 6 -9 0.33 0.39
-1 6 9 -0.08 0.2
-1 -6 8 115.53 4.34
-1 6 8 109.32 4.21
1 6 -8 108.54 4.83
1 6 -8 109.1 5.62
-1 -6 7 91.97 3.61
1 -6 -7 99.98 4.61
-1 6 7 92.5 3.6
1 6 -7 98.88 4.97
1 6 -7 90.48 3.98
1 6 -6 40.24 2.83
-1 -6 6 41.84 2.05
1 6 -6 43.61 2.28
-1 6 6 41.55 2.02
1 -6 -6 49.18 2.86
1 6 -5 7.83 0.8
-1 6 5 6.81 0.69
1 -6 -5 8.55 1.08
1 6 -5 10.05 1.27
-1 -6 5 7.74 0.73
1 -6 -4 120.34 4.57
-1 6 4 121.47 3.65
1 6 -4 119.95 3.78
-1 -6 4 115.51 3.64
1 6 -4 114.27 4.81
-1 -6 3 3.19 0.57
1 -6 -3 2.58 0.55
1 6 -3 3.43 0.71
-1 6 3 3.15 0.38
-1 -6 3 2.56 0.34
1 6 -3 3.3 0.38
-1 -6 2 29.36 1.74
-1 -6 2 31.02 1.25
1 6 -2 30.17 1.91
1 6 -2 28.85 1.1
-1 6 2 31.91 1.23
1 -6 -2 29.18 1.77
1 6 -1 143.39 3.58
-1 -6 1 157.69 5.04
1 6 -1 159.23 5.07
1 -6 -1 153.97 4.89
-1 6 1 146.8 4.15
-1 6 0 1.61 0.27
1 -6 0 1.21 0.16
-1 -6 0 1.76 0.5
1 6 0 1.49 0.16
1 6 0 1.14 0.34
1 -6 0 2.1 0.49
1 6 0 1.48 0.12
1 6 0 1.29 0.32
1 -6 1 10.06 0.56
1 6 1 11.96 0.56
-1 6 -1 11 0.99
-1 6 -1 10.99 0.74
-1 -6 -1 10.69 1.12
-1 6 -2 144.25 4.15
-1 6 -2 131.22 4.63
1 6 2 142.19 3.75
1 -6 2 135.89 3.78
-1 -6 -2 128.91 5.07
-1 6 -3 78.35 3.38
-1 -6 -3 79.33 3.37
1 -6 3 81.6 2.66
1 6 3 83.94 2.63
-1 -6 -3 78.63 3.83
-1 6 -3 81.12 2.92
-1 6 -4 106.69 4.37
1 -6 4 113.25 3.57
1 6 4 115.42 3.52
-1 -6 -4 114.48 4.48
-1 6 -4 106.62 3.83
-1 -6 -4 109.93 4.9
-1 6 -5 22.58 1.84
-1 -6 -5 20.49 1.79
-1 -6 -5 18.58 1.92
1 -6 5 21.6 1.34
1 6 5 22.77 1.33
-1 6 -5 21.91 1.54
1 -6 6 173.71 5.49
-1 6 -6 176.75 6.04
-1 6 -6 172.5 6.61
1 6 6 179.24 5.47
-1 -6 -6 166.08 7.12
-1 -6 -6 169.3 6.68
-1 -6 -7 8.08 1.33
1 6 7 7.3 0.86
-1 6 -7 8.19 1.11
1 -6 7 7.91 0.93
-1 -6 -8 13.93 1.92
1 6 8 16.49 1.42
-1 6 -8 17.28 1.78
1 -6 8 15.44 1.42
-1 -6 -9 0.23 0.34
1 -6 9 0.25 0.24
1 6 9 0.56 0.34
-1 6 -9 0.31 0.33
-1 7 9 0.34 0.26
1 7 -9 0.22 0.29
1 7 -9 0.03 0.3
-1 -7 9 0.29 0.24
1 7 -8 0.63 0.49
1 7 -8 0.7 0.4
-1 -7 8 1.33 0.43
-1 7 8 0.47 0.22
-1 -7 7 188.17 5.9
1 7 -7 174.53 6.2
-1 7 7 180.5 5.79
1 7 -7 178.24 7.42
1 -7 -6 0.29 0.34
1 7 -6 0.16 0.18
1 7 -6 0.01 0.3
-1 7 6 0.35 0.23
-1 -7 6 0.39 0.22
1 -7 -5 34.94 2.36
-1 -7 5 33.45 1.67
-1 7 5 32.58 1.64
1 7 -5 32.63 1.77
1 7 -5 31.65 2.45
-1 7 4 5.88 0.57
-1 -7 4 6.24 0.6
1 7 -4 5.3 0.57
1 7 -4 6.82 1.06
1 -7 -4 6.27 0.91
1 -7 -3 150.98 5.35
-1 -7 3 148.28 4.21
-1 7 3 150.05 4.17
1 7 -3 145.78 4.14
1 7 -3 144.65 5.54
-1 -7 3 141.88 5.09
-1 -7 2 182.68 4.72
-1 7 2 179.92 4.66
1 7 -2 183.38 6.14
1 7 -2 165.74 4.5
1 -7 -2 182.16 5.98
-1 -7 2 177.59 5.83
-1 7 1 18.96 1.04
-1 -7 1 19.7 1.54
1 7 -1 20.42 1.56
1 7 -1 19.68 0.7
1 -7 -1 17.41 1.41
-1 7 0 115.17 3.48
-1 -7 0 119.28 4.54
1 7 0 113.24 2.84
1 7 0 122.38 4.36
1 -7 0 117.15 4.33
1 7 0 117.58 2.87
1 7 0 117.45 3.96
1 -7 0 112.88 2.9
-1 -7 -1 145.5 5.49
1 7 1 145.82 4.9
1 7 1 157.25 3.85
-1 7 -1 149.12 5.14
1 -7 1 152.95 3.9
-1 7 -1 150.35 4.4
-1 -7 -2 19.12 1.72
-1 7 -2 21.8 1.22
-1 7 -2 17.84 1.48
1 7 2 22.62 0.95
1 -7 2 21.22 0.96
1 7 3 14.81 0.85
1 -7 3 15.87 0.91
-1 7 -3 16.5 1.1
-1 7 -3 12.65 1.27
-1 -7 -3 16.13 1.62
1 -7 4 5.53 0.57
-1 7 -4 5.24 0.87
-1 -7 -4 6.11 1.08
1 7 4 5.45 0.55
-1 7 -4 5.87 0.71
-1 -7 -5 188.14 7.67
-1 7 -5 200.89 7.24
1 -7 5 216.12 6.09
-1 7 -5 213.43 6.54
-1 -7 -5 197.74 7.36
1 7 5 204.51 5.92
-1 7 -6 43.56 2.52
1 7 6 43.59 2.1
1 -7 6 45.09 2.21
-1 -7 -6 38.93 3.13
-1 -7 -6 40.33 2.96
-1 7 -6 47.89 3.04
-1 -7 -7 10.02 1.54
1 7 7 11.39 1.08
-1 7 -7 12.57 1.39
1 -7 7 11.85 1.13
-1 7 -8 9.58 1.33
1 -7 8 10.46 1.16
-1 -7 -8 10.95 1.73
1 7 8 9.55 1.08
1 8 -9 7.92 1.24
-1 -8 9 7.63 1.05
1 8 -9 8.64 1.59
-1 -8 8 14.82 1.35
1 8 -8 15.24 1.57
1 8 -8 11.16 1.74
1 8 -7 57.37 2.95
1 8 -7 52.01 3.68
-1 -8 7 58.65 2.71
-1 8 7 55.38 2.59
1 8 -6 -0.12 0.39
1 -8 -6 -0.08 0.22
1 8 -6 -0.02 0.14
-1 -8 6 0.18 0.19
-1 8 6 -0.14 0.13
-1 8 5 0.37 0.19
1 8 -5 0.6 0.37
1 -8 -5 0.72 0.42
1 8 -5 0.61 0.25
-1 -8 5 -0.12 0.13
-1 -8 4 102.45 3.26
1 -8 -4 99.2 4.37
1 8 -4 93.27 4.52
-1 8 4 97.61 3.17
1 8 -4 94.6 3.21
1 -8 -3 6.68 0.95
1 8 -3 7.53 0.59
-1 -8 3 8.05 0.64
-1 -8 3 8.36 1.02
1 8 -3 7.43 1.11
1 -8 -2 0.83 0.41
1 8 -2 0.67 0.14
-1 -8 2 0.28 0.23
1 8 -2 0.4 0.25
-1 8 2 0.76 0.23
1 -8 -1 1.35 0.5
-1 8 1 1.74 0.31
-1 -8 1 1.17 0.43
1 8 -1 1.32 0.47
1 -8 0 56.35 2.91
-1 8 0 61.33 2.24
1 8 0 61.03 2.98
-1 -8 0 62.4 3.21
1 8 0 60.81 2.61
1 8 1 17.74 1.3
-1 8 -1 16.3 1.43
1 -8 1 19.74 1.7
-1 8 -1 18.53 1.08
-1 -8 -1 16.68 1.59
-1 -8 -2 44.96 2.84
-1 8 -2 42.91 2.5
-1 8 -2 44.36 1.94
1 -8 2 46.7 1.58
-1 -8 -3 0.78 0.39
-1 8 -3 1.11 0.3
1 -8 3 1.17 0.24
-1 8 -3 0.87 0.39
-1 8 -4 13.75 1.14
-1 8 -4 13.19 1.45
1 8 4 13.89 0.91
1 -8 4 13.73 0.94
-1 -8 -4 11.99 1.56
-1 -8 -5 142.15 6.4
1 8 5 143.3 4.47
-1 8 -5 131.75 5.77
-1 8 -5 141.35 5.04
1 -8 5 153.5 4.64
-1 -8 -6 4.14 1.03
1 -8 6 3.25 0.55
-1 8 -6 4.01 0.73
1 8 6 4.13 0.6
-1 8 -6 3.81 0.87
1 -8 7 21.03 1.55
-1 8 -7 18.99 1.75
1 -8 8 58.93 3.03
-1 8 -8 58.17 3.51
1 9 -8 1.9 0.76
1 9 -7 0.65 0.49
1 -9 -6 21.1 2.09
1 9 -6 18.9 2.11
1 9 -5 0.82 0.52
1 -9 -5 0.74 0.35
-1 -9 5 0.09 0.27
1 -9 -4 0.4 0.29
-1 -9 4 -0.01 0.19
1 9 -4 0.51 0.52
1 -9 -3 7.84 1.13
-1 -9 3 6.08 0.95
1 9 -3 8.78 1.24
1 9 -2 1.1 0.52
1 -9 -2 1.06 0.5
-1 -9 2 0.93 0.38
-1 9 2 0.81 0.24
1 -9 -1 4.65 0.84
1 9 -1 5.91 0.94
-1 -9 1 3.67 0.77
-1 9 1 4.82 0.53
1 9 0 17.89 1.31
1 9 0 21.53 1.76
-1 -9 0 17.66 1.72
1 -9 0 16.29 1.56
-1 9 0 19.54 1.12
1 9 1 47.78 2.35
-1 9 -1 45.5 2.67
1 -9 1 43.91 2.8
-1 -9 -1 45.75 2.94
-1 9 -1 49.37 2.01
-1 -9 -2 15.89 1.74
-1 9 -2 13.59 1.41
1 9 2 17.51 1.39
-1 9 -2 17.22 1.13
-1 -9 -3 3.15 0.82
-1 9 -3 3.24 0.74
-1 9 -3 2.97 0.49
-1 9 -4 0.33 0.22
-1 9 -4 0.13 0.24
-1 9 -5 29.45 2.45
-1 9 -5 29.96 1.92
-1 -9 -5 27.07 2.62
-1 -9 -6 2.04 0.79
-1 9 -6 0.97 0.38
-1 -9 -7 7.4 1.5
-1 9 -7 6.99 1.06
-1 9 -8 10.43 1.41
1 10 -8 2.59 0.92
1 10 -7 16.39 2.11
1 -10 -6 38.93 2.99
1 10 -6 37.39 3.11
1 -10 -5 4.19 1
1 10 -5 4.57 1.01
-1 -10 5 5.13 0.96
1 -10 -4 2.91 0.83
-1 -10 4 3 0.72
1 10 -4 4.04 0.98
1 -10 -3 52.29 3.27
-1 -10 3 52.67 3.16
1 10 -3 55.54 3.46
-1 10 3 55.48 2.35
-1 10 2 76.08 2.83
-1 -10 2 80.43 4.01
1 10 -2 77.31 4.05
1 -10 -2 76.46 4
1 -10 -1 75.19 3.92
1 10 -1 77.63 3.94
-1 -10 1 75.91 3.98
-1 10 1 77.54 2.78
1 -10 0 155.07 6
-1 10 0 150.15 4.53
1 10 0 150.49 5.86
-1 -10 0 144.71 6.06
-1 -10 -1 13.69 1.64
1 -10 1 16.22 1.65
-1 10 -1 17.03 1.63
1 10 1 15.02 1.54
-1 10 -1 16.32 1.08
-1 -10 -2 9.2 1.37
1 -10 2 8.62 1.33
-1 10 -2 10.05 1.3
-1 10 -2 10.97 0.91
-1 10 -3 7.1 1.14
-1 -10 -3 4.22 0.97
-1 10 -3 5.58 0.68
-1 -10 -4 55.14 3.77
-1 10 -4 52.94 3.4
-1 10 -4 57.45 2.65
-1 -10 -5 19.73 2.28
-1 10 -5 19.22 1.54
-1 10 -5 20.05 2.09
-1 -10 -6 -0.01 0.4
-1 10 -6 1.5 0.48
-1 10 -7 0.99 0.42
-1 -10 -7 1.71 0.82
-1 -11 7 14.28 1.85
1 11 -7 23.41 2.63
1 -11 -6 53.13 3.78
1 11 -6 52.23 3.89
-1 -11 6 47.34 3.27
1 -11 -5 77.28 4.49
-1 -11 5 64.25 3.79
1 11 -5 78.08 4.67
-1 -11 4 27.31 2.34
1 11 -4 32.15 2.77
1 -11 -4 24.83 2.41
-1 -11 3 3.73 0.86
1 -11 -3 4.01 0.92
1 11 -3 4.76 1.02
1 11 -2 228.48 8.25
-1 -11 2 207.68 7.91
1 -11 -2 217.69 8.14
1 11 -1 8.26 1.23
-1 -11 1 10.67 1.47
1 -11 -1 7.9 1.25
1 11 0 266.91 8.98
1 -11 0 266.92 9.21
-1 -11 0 256 9.31
-1 11 0 269.03 8.95
-1 -11 -1 124.13 5.84
1 -11 1 127.08 5.61
-1 11 -1 136.34 5.59
1 11 1 130.74 5.47
-1 -11 -2 12.26 1.66
1 -11 2 10.69 1.47
-1 11 -2 9.56 1.35
-1 11 -3 77.79 4.18
-1 -11 -3 69.95 4.34
-1 -11 -4 44.88 3.49
-1 11 -4 42.01 3.12
-1 -11 -5 21.03 2.43
-1 11 -5 21.28 2.26
-1 -11 -6 15.22 2.21
-1 -11 -7 15.04 2.22
-1 -12 7 0.98 0.51
1 12 -7 0.61 0.56
1 -12 -6 3.72 1.01
1 12 -6 4.39 1.18
-1 -12 6 3.16 0.84
1 -12 -5 9.01 1.53
-1 -12 5 6.8 1.23
1 12 -5 8.95 1.59
1 12 -4 35.56 3.07
-1 -12 4 35.17 2.81
1 -12 -4 32.64 2.87
1 -12 -3 124.73 5.94
1 12 -3 127.11 6.08
-1 -12 3 118.22 5.68
1 -12 -2 190.65 7.8
1 12 -2 197.74 7.87
-1 -12 2 202.83 7.93
1 -12 -1 18.74 2.1
-1 -12 1 20.78 2.21
1 12 -1 19.11 2.03
-1 -12 0 85.24 4.81
1 -12 0 99.93 5.01
1 12 0 87.13 4.55
-1 12 0 94.19 4.63
-1 -12 -1 164.13 7.1
1 -12 1 160.45 6.79
-1 12 -1 159.54 6.57
1 12 1 157.41 6.44
1 -12 2 23.01 2.26
-1 -12 -2 29.66 2.74
-1 12 -2 26.11 2.36
1 12 2 23.18 2.12
-1 -12 -3 52.15 3.86
1 -12 3 53.2 3.68
-1 12 -3 56.72 3.69
-1 -12 -4 6.74 1.39
1 -12 4 4.94 1.15
-1 12 -4 6.86 1.32
-1 -12 -5 -0.02 0.41
-1 12 -5 0.74 0.53
-1 -12 -6 11.68 1.97
1 13 -6 4.99 1.3
1 -13 -6 7 1.44
-1 -13 6 4.19 1.04
1 -13 -5 2.36 0.86
1 13 -5 0.47 0.44
-1 -13 5 1.23 0.6
1 -13 -4 5.57 1.2
1 13 -4 4.15 1.1
-1 -13 4 3.28 0.98
1 -13 -3 7.77 1.42
-1 -13 3 9.72 1.54
-1 -13 2 13.75 1.9
1 -13 -2 13.31 1.81
1 13 -2 16.89 2.05
-1 -13 1 0.88 0.49
-1 13 1 0.55 0.38
1 -13 -1 0.98 0.53
1 13 -1 0.71 0.51
-1 -13 0 0.73 0.47
1 -13 0 0.88 0.56
1 13 0 -0.13 0.34
-1 13 0 0.27 0.38
1 13 1 9.32 1.39
-1 13 -1 8.68 1.39
1 -13 1 7.64 1.39
-1 -13 -1 10.09 1.64
1 -13 2 6.86 1.31
-1 -13 -2 7.4 1.44
-1 13 -2 7.41 1.31
1 13 2 5.71 1.08
-1 13 -3 0.25 0.39
1 -13 3 0.04 0.33
-1 13 -4 3.68 1.03
1 -13 4 5.83 1.29
-1 -13 -4 5.52 1.36
-1 -13 -5 3.87 1.19
1 -13 5 2.6 0.94
-1 13 -5 2.82 0.93
-1 -14 5 1.72 0.71
1 -14 -5 2.51 0.89
1 14 -5 1.71 0.78
1 -14 -4 10.14 1.74
-1 -14 4 7.75 1.49
1 14 -4 6.88 1.47
-1 -14 3 0.11 0.39
1 -14 -3 0.8 0.51
1 14 -3 1.56 0.73
-1 -14 2 0.24 0.36
1 14 -2 0.65 0.63
1 -14 -2 0.66 0.58
-1 -14 1 20.07 2.41
1 -14 -1 23.47 2.58
1 14 -1 22.4 2.42
-1 14 1 24.86 2.42
1 14 0 0.61 0.54
-1 -14 0 -0.14 0.36
1 -14 0 0.42 0.49
-1 14 0 -0.11 0.45
-1 14 -1 1.03 0.57
1 -14 1 0.28 0.41
1 14 1 0.4 0.47
-1 -14 -1 0.53 0.39
-1 -14 -2 20.55 2.52
1 -14 2 21.92 2.46
1 14 2 19.67 2.14
-1 14 -2 22.83 2.44
1 -14 3 10.07 1.7
1 14 3 10.32 1.55
-1 14 -3 9.28 1.61
-1 -14 -3 6.56 1.5
1 -14 4 15.66 2.09
-1 -14 -4 15.7 2.31
-1 14 -4 18.48 2.32
-1 -15 3 4.27 1.21
1 -15 -3 4.81 1.28
1 15 -3 5.32 1.32
1 15 -2 1.03 0.53
1 -15 -2 0.27 0.42
-1 -15 2 0.18 0.36
-1 15 2 1.68 0.68
-1 -15 1 3.36 1.07
1 -15 -1 3.11 0.97
-1 15 1 5.15 1.17
1 15 -1 1.97 0.76
-1 -15 0 1 0.77
-1 15 0 -0.25 0.36
1 -15 0 -0.25 0.51
1 15 0 0.01 0.29
-1 -15 -1 1.06 0.77
1 -15 1 0.19 0.53
1 15 1 0.5 0.39
-1 15 -1 0.61 0.54
-1 -15 -2 24.78 2.93
1 15 2 20.4 2.28
-1 15 -2 22.92 2.56
1 -15 2 30.48 3.1
-2 0 10 87.34 4.03
2 0 -10 91.65 5.42
2 0 -10 90.08 5.56
2 0 -9 -0.01 0.36
-2 0 9 0 0.17
2 0 -9 -0.03 0.41
2 0 -8 2.48 0.77
2 0 -8 3.14 0.88
-2 0 8 3.05 0.59
2 0 -7 -0.33 0.42
-2 0 7 0.03 0.17
2 0 -7 -0.17 0.28
2 0 -6 511.98 14.83
-2 0 6 519.44 13.42
2 0 -6 547.02 15.01
2 0 -5 -0.3 0.36
2 0 -5 0.58 0.36
-2 0 5 0.04 0.16
2 0 -4 3.04 0.6
-2 0 4 4.11 0.51
2 0 -3 -0.29 0.24
-2 0 3 0 0.13
2 0 -2 9999 199.89
-2 0 2 7967.26 199.38
2 0 -1 0.27 0.15
2 0 -1 0.21 0.15
-2 0 1 0.27 0.12
2 0 0 678.27 15.78
-2 0 0 675.67 15.92
-2 0 -1 -0.03 0.07
2 0 2 403.49 10.38
-2 0 -2 413.11 10.19
-2 0 -3 0.26 0.19
2 0 3 -0.01 0.13
-2 0 -4 352.94 9.61
2 0 4 363.2 9.58
-2 0 -5 -0.14 0.23
2 0 5 0.18 0.17
-2 0 -6 -0.25 0.24
2 0 6 0.2 0.23
-2 0 -7 -0.07 0.24
2 0 7 -0.17 0.25
2 0 8 41.31 2.45
-2 0 -8 37.27 2.71
-2 0 -9 0.51 0.42
2 0 9 0.29 0.33
2 1 -10 6.1 1.34
-2 -1 10 7.01 1.02
2 -1 -10 4.84 1.18
-2 1 10 5.01 0.85
2 -1 -10 7.27 1.53
2 1 -10 4.09 1.12
-2 1 9 4.8 0.77
-2 -1 9 4.9 0.79
2 1 -9 2.94 0.9
2 -1 -9 5.71 1.22
2 -1 -9 2.39 0.84
2 1 -9 4.41 1.05
2 1 -8 11.44 1.58
2 -1 -8 12.76 1.67
2 1 -8 11.4 1.59
-2 -1 8 13.07 1.21
-2 1 8 13.77 1.23
2 -1 -8 12.2 1.71
2 -1 -7 135.23 5.77
2 -1 -7 123.9 5.71
2 1 -7 132.52 5.6
-2 1 7 127.11 4.45
-2 -1 7 124.29 4.41
2 1 -7 136.77 5.74
2 1 -6 5.95 0.96
2 1 -6 6.42 1.01
-2 -1 6 6.38 0.73
-2 1 6 6.13 0.72
2 -1 -6 6.1 1.05
2 -1 -6 5 0.91
-2 -1 5 17.59 1.15
2 -1 -5 20.41 1.68
2 1 -5 18.98 1.62
2 1 -5 20.22 1.63
-2 1 5 17.47 1.15
2 -1 -4 137.02 4.91
-2 1 4 130.45 4.09
-2 -1 4 142.6 4.19
2 1 -4 126.94 4.76
2 1 -4 134.01 4.86
2 -1 -3 31.96 1.77
-2 1 3 30.15 1.4
-2 -1 3 23.99 0.88
2 1 -3 29.2 1.72
-2 -1 3 30.85 1.42
-2 -1 2 1412.53 30.92
2 -1 -2 1340.37 31.77
-2 1 2 1372.64 31.5
-2 -1 2 1404.67 31.53
2 1 -2 1329.39 31.84
-2 1 1 1493.02 37.59
-2 -1 1 1744.47 37.84
2 1 -1 1738.52 38
2 -1 -1 1728 37.94
-2 -1 1 1581.63 37.44
2 -1 -1 1636.56 37.87
2 1 0 21.11 0.9
-2 -1 0 18.78 0.81
-2 1 0 19.2 0.92
-2 -1 0 21.09 1.21
-2 -1 -1 80.74 2.46
2 1 1 83.63 2.24
-2 1 -1 87.49 2.62
-2 1 -2 243.81 6.44
2 -1 2 240.18 6.59
2 1 2 241.18 6.58
-2 -1 -2 244.57 6.35
-2 1 -3 319.39 8.34
-2 -1 -3 322.59 8.3
-2 1 -3 298.4 7.81
2 1 3 330.75 8.44
2 -1 3 313.54 8.39
2 -1 4 0.2 0.2
-2 -1 -4 0.31 0.21
-2 1 -4 0.09 0.18
-2 1 -4 0.14 0.12
2 1 4 0.41 0.22
-2 1 -5 17.38 1.36
-2 -1 -5 18.78 1.41
2 -1 5 21.57 1.41
2 1 5 17.73 1.28
-2 -1 -6 85.61 3.74
-2 1 -6 87.01 3.75
2 -1 6 86.53 3.48
2 1 6 81.85 3.4
2 -1 7 26.75 1.82
2 1 7 27.83 1.84
-2 -1 -7 25.8 2.04
-2 1 -7 27.41 2.09
-2 -1 -8 0.64 0.44
-2 1 -8 0.74 0.41
2 1 8 0.43 0.32
2 -1 8 0.62 0.36
-2 1 -9 11.07 1.56
-2 -1 -9 9.27 1.44
2 1 9 10.15 1.25
2 -1 9 8.29 1.14
2 2 -10 0.09 0.27
2 2 -10 0.55 0.51
-2 -2 10 0.04 0.25
-2 2 10 0.63 0.38
2 -2 -9 -0.09 0.29
2 -2 -9 0.23 0.44
-2 2 9 -0.15 0.21
2 2 -9 0.12 0.38
2 2 -9 1.03 0.65
-2 -2 9 0.24 0.27
2 -2 -8 14.2 1.79
2 2 -8 16.56 1.9
2 -2 -8 11.39 1.71
2 2 -8 13.33 1.64
-2 2 8 14.69 1.29
-2 -2 8 14.55 1.27
2 2 -7 2.34 0.68
2 2 -7 2.34 0.68
2 -2 -7 1.57 0.66
-2 2 7 2.54 0.49
-2 -2 7 2.4 0.49
-2 2 6 11.28 0.98
-2 -2 6 11.8 0.99
2 -2 -6 14.41 1.56
2 2 -6 11.1 1.27
2 2 -6 11.81 1.41
-2 -2 5 65.91 2.54
2 -2 -5 63.37 3.26
2 2 -5 63.64 3.03
-2 2 5 64.95 2.55
2 2 -5 62.3 3.24
2 -2 -4 20.61 0.97
-2 2 4 21.71 1.23
2 2 -4 20.09 1.47
-2 -2 4 22.42 1.25
2 -2 -4 24.88 1.72
2 2 -4 21.12 1.62
-2 -2 3 12.63 0.71
-2 2 3 14.29 0.93
-2 -2 3 14.84 0.95
2 -2 -3 14.36 1.18
2 -2 -3 14 0.66
2 2 -3 12.5 1.13
2 2 -2 76.16 2.92
2 -2 -2 78.31 2.91
-2 2 2 74.58 2.65
-2 -2 2 80.05 2.69
-2 -2 2 81.42 2.48
-2 -2 1 414.55 9.58
2 -2 -1 399.99 9.92
2 2 -1 399.72 10.28
-2 -2 1 400.55 10.17
-2 2 1 415.28 9.96
-2 2 0 436.6 10.85
2 2 0 448.76 10.9
-2 -2 0 449.9 11.46
-2 -2 0 470.14 10.52
-2 -2 -1 -0.01 0.06
-2 -2 -1 -0.15 0.17
-2 2 -1 0.06 0.07
-2 2 -1 0.09 0.12
2 2 1 0.24 0.11
2 -2 2 121.99 3.83
-2 2 -2 130.54 3.41
-2 2 -2 124.42 3.76
-2 -2 -2 115.67 3.55
2 2 2 125.22 3.83
-2 -2 -3 86.98 3
2 2 3 87.95 3.07
2 -2 3 88.41 3.1
-2 2 -3 91.87 3.13
-2 2 -3 88.21 2.84
-2 2 -4 45.7 2.17
2 -2 4 45.62 2.1
-2 -2 -4 41.47 2.06
2 2 4 45.88 2.08
-2 2 -4 48.91 2.02
2 2 5 97.22 3.58
-2 2 -5 96.17 3.79
2 -2 5 98.57 3.63
-2 -2 -5 99.99 3.82
-2 -2 -6 3.39 0.67
-2 2 -6 3.86 0.71
2 2 6 3.83 0.62
2 -2 6 4.21 0.67
-2 -2 -7 50.94 3.01
2 2 7 51.91 2.68
-2 2 -7 60.64 3.23
2 -2 7 56.29 2.79
-2 -2 -8 5.79 1.05
-2 2 -8 6.52 1.1
2 2 8 8.6 1.06
2 -2 8 8.24 1.05
-2 -2 -9 8.1 1.38
2 2 9 9.53 1.19
-2 2 -9 9.66 1.46
2 -2 9 8.48 1.13
2 3 -10 111.33 6.11
2 3 -10 104.61 5.89
-2 3 10 106.97 4.59
-2 -3 10 116.39 4.78
2 3 -9 110.76 5.69
-2 3 9 108.82 4.34
2 3 -9 108.2 5.42
-2 -3 9 99.58 4.23
2 3 -8 24.77 2.19
2 3 -8 19.95 2.09
-2 3 8 21.51 1.59
-2 -3 8 22.68 1.63
2 3 -7 43.01 2.73
-2 3 7 37.77 2.06
-2 -3 7 38.92 2.1
2 -3 -7 46.67 3.13
2 3 -7 39.12 2.86
2 3 -6 31.54 2.12
-2 -3 6 32.13 1.74
2 -3 -6 35.49 2.57
2 3 -6 33.6 2.47
-2 3 6 31 1.73
2 3 -5 0.51 0.28
2 3 -5 0.5 0.39
2 -3 -5 0.35 0.28
-2 3 5 0.48 0.2
-2 -3 5 0.45 0.22
2 -3 -5 0.49 0.19
2 -3 -4 28.42 1.29
-2 -3 4 29.03 1.43
2 3 -4 26.68 1.61
-2 3 4 30.61 1.45
2 3 -4 33.15 2.05
2 3 -3 0.32 0.27
2 -3 -3 -0.04 0.1
-2 -3 3 0.02 0.13
-2 -3 3 0.04 0.09
2 3 -3 -0.21 0.19
-2 3 3 0.01 0.12
-2 -3 2 26.17 1.29
2 -3 -2 23.94 1.11
2 3 -2 25.94 1.56
-2 3 2 25.59 1.3
-2 -3 2 25.81 1.3
-2 -3 1 21.63 1.25
-2 -3 1 22.16 0.76
2 3 -1 21.3 1.27
2 -3 -1 23.39 0.97
-2 3 1 21.85 1.09
-2 -3 0 156.05 5.07
2 3 0 158.34 4.62
-2 -3 0 162.24 3.98
-2 3 0 167.62 4.53
-2 -3 -1 3.16 0.58
-2 -3 -1 3.29 0.31
2 3 1 3.59 0.41
-2 3 -1 3.53 0.37
-2 3 -1 3.6 0.43
-2 -3 -2 3.65 0.68
2 -3 2 3.85 0.48
-2 3 -2 3.8 0.42
-2 3 -2 4.63 0.51
-2 -3 -2 4.38 0.43
2 3 2 4.41 0.5
-2 3 -3 52.87 2.06
-2 -3 -3 46.53 2.79
2 -3 3 51.04 2.12
-2 -3 -3 47.55 2
-2 3 -3 51.27 2.15
2 3 3 49.78 2.09
-2 -3 -4 1.08 0.33
-2 3 -4 0.71 0.28
-2 3 -4 0.75 0.26
2 3 4 0.37 0.21
2 -3 4 0.48 0.23
2 3 5 171.44 5.43
-2 -3 -5 176.03 5.75
-2 3 -5 180.07 5.79
2 -3 5 169.96 5.45
-2 -3 -6 1.44 0.44
-2 3 -6 2.14 0.56
2 3 6 2.88 0.56
2 -3 6 2.96 0.58
2 3 7 5.9 0.82
-2 -3 -7 4.35 0.84
-2 3 -7 4.73 0.86
2 -3 7 5.18 0.76
-2 3 -8 36.45 2.68
2 3 8 32.9 2.18
2 -3 8 35.14 2.26
-2 -3 -8 34.71 2.67
-2 3 -9 1.14 0.55
-2 -3 -9 1.3 0.64
2 -3 9 0.63 0.36
2 3 9 -0.18 0.29
2 4 -10 4.76 1.15
2 4 -10 8.33 1.54
-2 4 10 6.8 1
-2 -4 10 5.65 0.93
2 4 -9 130.02 6.24
2 4 -9 123.61 5.84
-2 4 9 122.49 4.74
-2 -4 9 118.29 4.73
2 4 -8 5.08 1.02
2 4 -8 6.94 1.28
-2 4 8 5.64 0.79
-2 -4 8 5.66 0.8
2 4 -7 5.82 0.95
2 4 -7 7.98 1.27
-2 4 7 6.34 0.78
-2 -4 7 6.04 0.78
2 4 -6 14.86 1.66
-2 -4 6 13.72 1.09
2 4 -6 10.63 1.15
-2 4 6 15.42 1.15
2 -4 -5 0.78 0.25
2 4 -5 1.48 0.39
-2 4 5 1.7 0.35
-2 -4 5 0.87 0.29
2 4 -5 0.38 0.37
2 -4 -4 75.48 2.76
2 4 -4 80.52 3.58
-2 -4 4 68.64 2.63
2 4 -4 77.95 2.97
-2 -4 4 74.32 2.71
-2 4 4 74.63 2.71
-2 4 3 10.37 0.8
-2 -4 3 8.9 0.75
2 4 -3 9.95 1.06
2 4 -3 8.38 0.75
-2 -4 3 8.58 0.74
2 -4 -3 9.83 0.77
2 4 -2 7.94 0.88
-2 -4 2 7.23 0.63
2 -4 -2 4.72 0.6
-2 -4 2 7.41 0.73
-2 4 1 4.69 0.49
2 -4 -1 4.23 0.31
2 4 -1 3.42 0.54
-2 -4 1 4.63 0.61
2 4 -1 5.05 0.63
-2 -4 1 4.51 0.22
-2 -4 0 72.64 3.03
2 4 0 71.03 2.98
2 4 0 72.53 2.71
-2 -4 0 73.2 1.89
-2 4 0 73.86 2.49
-2 -4 -1 96.97 3.88
-2 -4 -1 97.37 2.7
2 4 1 97.14 3.22
2 4 1 97.55 3.05
2 -4 1 92.39 3.03
-2 4 -1 97.79 3.12
-2 -4 -2 78.28 3.53
-2 4 -2 72.6 2.59
2 4 2 75.87 2.61
-2 -4 -2 71.83 2.43
2 -4 2 73.97 2.62
-2 4 -2 74.05 2.67
-2 4 -3 77.55 3
2 -4 3 80.1 2.94
2 4 3 85.43 2.95
-2 -4 -3 85.01 2.94
-2 4 -3 85.3 3.06
-2 -4 -3 82.94 3.99
-2 4 -4 43.22 2.13
2 4 4 38.68 1.88
2 -4 4 39.23 1.93
-2 -4 -4 40.63 2.03
-2 4 -4 39.82 2.04
2 4 5 109.34 3.83
-2 4 -5 107.22 4.11
2 -4 5 111.55 3.92
-2 -4 -5 101.2 4.03
-2 -4 -6 454.35 12.95
-2 4 -6 488.4 13.06
2 4 6 462.06 12.35
2 -4 6 450.5 12.39
-2 -4 -7 2.43 0.63
2 4 7 2.22 0.51
2 -4 7 2.44 0.53
-2 4 -7 2.64 0.67
2 4 8 16.52 1.5
-2 -4 -8 16.05 1.85
-2 4 -8 17.64 1.83
2 -4 8 19.46 1.63
-2 4 -9 15.79 1.9
2 4 9 14.43 1.48
2 -4 9 14.86 1.52
-2 -4 -9 13.92 1.89
-2 -5 10 74.52 3.71
2 5 -10 74.16 4.84
2 5 -10 73.38 4.66
-2 5 10 68.93 3.53
2 5 -9 24.78 2.6
2 5 -9 26.92 2.46
-2 5 9 25.97 1.89
-2 -5 9 23.63 1.82
-2 5 8 209.57 6.74
-2 -5 8 212.99 6.78
2 5 -8 203.06 8.34
2 5 -8 218.55 7.75
-2 5 7 19.51 1.43
2 5 -7 18.22 1.99
2 5 -7 18.81 1.66
-2 -5 7 18.11 1.38
-2 -5 6 16.19 1.21
2 5 -6 14.69 1.33
-2 5 6 14 1.13
2 5 -6 15.74 1.72
-2 -5 5 1.33 0.34
2 -5 -5 1 0.33
-2 -5 5 0.82 0.29
2 5 -5 1.33 0.34
-2 5 5 0.59 0.24
2 5 -5 0.62 0.37
2 -5 -4 487.91 12.27
2 5 -4 482.41 13.31
-2 -5 4 447.56 11.97
-2 -5 4 473.16 11.94
-2 5 4 474.82 11.94
2 5 -4 452.48 11.96
2 -5 -3 97.38 3.39
2 5 -3 97.53 4.02
-2 -5 3 97.28 3.22
-2 5 3 91.59 3.14
2 5 -3 89.8 3.07
-2 -5 3 91.21 3.33
-2 -5 2 8.5 0.86
2 -5 -2 8.13 0.75
2 5 -2 8.33 0.96
2 5 -1 1.71 0.45
-2 -5 1 1.59 0.42
2 5 -1 2.21 0.46
-2 5 1 1.83 0.32
-2 -5 0 148.26 5.1
-2 5 0 147.09 4.33
2 5 0 149.45 4.75
2 5 0 144.62 4.96
-2 -5 -1 72 3.32
-2 -5 -1 75.53 2.2
-2 5 -1 71.73 2.71
2 5 1 72.7 2.79
2 -5 1 67.48 2.43
2 5 1 71.5 2.44
-2 5 -1 73.96 2.61
-2 -5 -2 146.43 5.54
2 -5 2 145.65 4.37
-2 5 -2 141.89 4.53
2 5 2 147.21 4.31
-2 5 -2 148.06 4.48
-2 -5 -2 144.75 4.19
-2 -5 -3 5.63 0.98
-2 5 -3 5.52 0.68
-2 5 -3 4.66 0.61
2 5 3 5.61 0.59
2 -5 3 4.24 0.54
-2 -5 -3 5.65 0.63
-2 5 -4 87.69 3.54
2 -5 4 85.73 3.22
2 5 4 90.39 3.18
-2 5 -4 87.42 3.41
-2 -5 -4 87.97 4.5
-2 -5 -4 90.25 3.46
-2 -5 -5 0.1 0.21
-2 5 -5 -0.06 0.21
2 -5 5 0.11 0.14
2 -5 6 197.77 6.12
-2 5 -6 179.81 6.43
2 5 6 185.48 5.95
-2 -5 -6 187.72 6.68
-2 -5 -7 4.89 0.95
2 5 7 4.2 0.7
-2 5 -7 5.35 0.93
2 -5 7 5.14 0.77
-2 -5 -8 8.07 1.33
-2 5 -8 9.47 1.35
2 5 8 11.75 1.25
2 -5 8 10.57 1.19
2 6 -10 10.63 1.77
2 6 -10 13.29 1.85
-2 6 10 10.38 1.25
-2 -6 10 12.59 1.41
2 6 -9 77.75 4.36
-2 6 9 81.17 3.66
-2 -6 9 77.54 3.65
2 6 -9 82.36 5.02
2 6 -8 32.73 2.91
2 6 -8 32.57 2.44
-2 6 8 32.42 2.04
-2 -6 8 35.16 2.14
-2 -6 7 41.81 2.24
2 6 -7 40.89 2.5
-2 6 7 39.02 2.15
2 6 -7 41.94 3.14
2 6 -6 41.51 2.94
-2 -6 6 41.5 2.11
-2 6 6 37.5 2
2 6 -6 41.11 2.27
-2 -6 5 30.21 1.9
-2 6 5 35.91 1.8
-2 -6 5 32.93 1.77
2 6 -5 33.77 1.84
2 6 -5 33.27 2.5
2 -6 -5 38.81 2.2
2 -6 -4 7.19 0.84
-2 -6 4 6.69 0.77
-2 -6 4 5.7 0.63
-2 6 4 6.21 0.67
2 6 -4 5.87 0.98
2 6 -4 5.65 0.63
-2 -6 3 143.8 4.86
2 6 -3 153.51 5.58
-2 6 3 148.63 4.46
2 6 -3 140.73 4.21
-2 -6 3 152.28 4.52
2 -6 -3 145.26 4.89
-2 -6 2 0.7 0.31
2 -6 -2 0.55 0.24
-2 6 2 0.91 0.24
-2 -6 1 151.52 5.25
2 -6 -1 145.74 5.04
2 6 -1 145.14 5.07
2 6 -1 155.63 5.24
-2 6 1 156.22 4.53
-2 6 0 117.34 3.78
2 6 0 121.04 4.43
2 6 0 125.43 4.37
-2 -6 0 130 4.74
2 6 1 441.1 10.75
2 -6 1 429.65 10.78
-2 -6 -1 438.96 10.63
-2 -6 -1 418.54 12.29
2 6 1 436.1 11.52
-2 6 -1 412.91 10.99
-2 6 -1 444.55 11.45
-2 -6 -2 1.25 0.28
-2 -6 -2 0.21 0.31
-2 6 -2 1.34 0.32
-2 6 -2 1.26 0.36
2 6 2 1.33 0.27
2 -6 2 0.86 0.24
-2 -6 -3 10.34 1.39
2 -6 3 12.37 0.92
-2 6 -3 12.41 1.12
-2 -6 -3 12.26 1.01
-2 6 -3 12.83 1.04
2 6 3 12.34 0.9
-2 6 -4 101.6 3.81
2 6 4 100.87 3.47
2 -6 4 103.02 3.58
-2 6 -4 101.92 4.09
-2 -6 -4 98.81 3.87
-2 -6 -4 97.99 4.92
-2 -6 -5 232.11 9.06
-2 -6 -5 255.47 7.89
2 -6 5 259.49 7.28
2 6 5 241.6 7.12
-2 6 -5 232.79 7.54
-2 6 -6 7.6 1.03
-2 -6 -6 5.19 0.9
2 6 6 7.05 0.83
2 -6 6 6.36 0.82
-2 -6 -7 0.36 0.34
-2 6 -7 0.45 0.35
2 -6 7 0.35 0.29
-2 -6 -8 2.14 0.72
-2 6 -8 2.96 0.77
2 6 8 2.63 0.6
2 -6 8 2.95 0.66
2 7 -9 8.82 1.61
-2 -7 9 9.58 1.16
-2 7 9 9.1 1.11
2 7 -9 9.2 1.38
2 7 -8 43.53 3.48
2 7 -8 47.48 2.96
-2 7 8 45.89 2.49
-2 -7 8 46.48 2.55
-2 7 7 55.6 2.72
-2 -7 7 59.3 2.81
2 7 -7 61.11 3.95
2 7 -7 60.52 3.07
2 7 -6 4.07 0.67
-2 -7 6 2.83 0.62
-2 7 6 4.76 0.65
2 7 -6 4.65 1
-2 -7 6 4.84 0.67
2 7 -5 53.9 3.38
-2 -7 5 46.24 2.5
-2 -7 5 57.52 2.45
2 7 -5 53.21 2.37
-2 7 5 53.83 2.37
2 -7 -5 58.45 2.96
-2 -7 4 7.15 0.87
2 7 -4 8.44 1.22
2 -7 -4 5.91 0.84
-2 -7 4 7.18 0.74
2 7 -4 5.75 0.6
-2 7 4 7.07 0.71
2 -7 -3 40.16 2.27
-2 -7 3 41.02 2.28
2 7 -3 42.37 2.67
2 7 -3 38.69 1.6
-2 7 3 42.66 1.84
-2 -7 3 47.41 1.97
-2 7 2 67.87 2.61
2 -7 -2 64.25 2.97
2 7 -2 75.92 3.51
-2 -7 2 68.31 3.16
-2 7 1 132.46 4.22
-2 -7 1 139.59 5.13
2 -7 -1 146.02 4.99
2 7 -1 133.22 4.84
2 7 -1 142.59 5.14
-2 -7 0 0.65 0.38
2 7 0 0.37 0.28
2 7 0 0.48 0.32
-2 7 0 0.48 0.19
-2 7 -1 0.94 0.36
-2 -7 -1 0.18 0.32
2 7 1 1.15 0.41
-2 7 -1 0.52 0.2
2 7 1 0.34 0.22
2 7 1 0.61 0.17
2 -7 1 0.63 0.2
-2 -7 -2 64.81 3.59
-2 7 -2 66.57 2.65
-2 7 -2 65.54 2.95
-2 -7 -2 63.59 2.62
2 7 2 65.12 2.33
2 -7 2 70.76 2.44
-2 -7 -3 17.27 1.88
-2 7 -3 19.91 1.56
-2 -7 -3 22.08 1.51
-2 7 -3 20.64 1.39
2 7 3 21.4 1.2
2 -7 3 21.89 1.26
-2 -7 -4 25.27 2.37
-2 7 -4 21.84 1.77
2 -7 4 26.41 1.49
-2 7 -4 23.21 1.6
-2 -7 -4 28.08 1.93
2 7 4 24.12 1.39
-2 7 -5 65.42 3.15
2 7 5 66.08 2.77
2 -7 5 75.4 2.98
-2 -7 -5 66.89 4.27
-2 -7 -5 70.74 3.55
-2 -7 -6 5.82 1.08
-2 7 -6 6.19 0.95
2 7 6 6.09 0.76
2 -7 6 6.61 0.83
-2 7 -7 4.23 0.85
2 7 7 5.72 0.8
2 -7 7 5.49 0.81
2 -7 8 7.67 1.03
2 7 8 9 1.09
-2 7 -8 8.48 1.32
2 8 -9 11.86 1.91
-2 -8 9 11.28 1.29
-2 -8 8 32.22 2.13
2 8 -8 37.47 3.26
-2 -8 7 4.46 0.84
2 8 -7 6.49 1.27
-2 8 7 5.95 0.79
-2 -8 7 7.28 0.89
2 8 -6 29 2.59
-2 -8 6 22.73 1.86
-2 8 6 23.85 1.56
-2 -8 6 27.63 1.7
2 8 -5 -0.11 0.45
-2 -8 5 0.64 0.34
2 -8 -5 0.65 0.37
-2 8 5 0.7 0.25
-2 -8 5 0.68 0.28
-2 -8 4 37.39 2.33
2 8 -4 38.17 2.79
-2 8 4 44.78 1.98
-2 -8 4 42.91 2.02
2 -8 -4 38.17 2.44
2 -8 -3 17.39 1.54
-2 -8 3 18.32 1.58
-2 -8 3 17.44 1.11
2 8 -3 16.72 1.72
-2 8 2 35.83 1.76
-2 -8 2 32.81 2.25
2 -8 -2 33.6 2.15
2 8 -2 35.4 2.4
-2 -8 1 44.23 2.65
2 -8 -1 40.33 2.38
2 8 -1 44.25 2.42
2 8 -1 43.32 2.61
-2 8 1 44.32 1.99
2 8 0 56.66 2.86
-2 -8 0 51.69 3.05
2 8 0 59.84 3
2 -8 0 60.28 2.01
-2 8 0 57.64 2.37
2 -8 1 14.51 0.85
2 8 1 12.81 1.28
2 8 1 14.15 1.32
-2 8 -1 12.25 1.24
-2 -8 -1 15.26 1.62
-2 8 -1 13.45 1.02
-2 -8 -2 11.04 1.46
2 -8 2 12.34 0.84
-2 8 -2 10.51 1.16
-2 8 -2 13.65 1.07
-2 -8 -3 10.37 1.5
2 -8 3 14.52 0.99
-2 8 -3 11.52 1.25
-2 8 -3 13.22 1.11
2 8 3 13.56 0.91
-2 -8 -4 127.22 6.24
-2 8 -4 141.93 5.55
2 8 4 147.2 4.5
-2 8 -4 136.65 4.92
2 -8 4 150.51 4.62
-2 -8 -5 12.41 1.79
2 8 5 10.82 0.97
2 -8 5 12.3 1.06
-2 8 -5 11.68 1.22
-2 -8 -6 3.02 1.03
-2 8 -6 4.21 0.81
2 -8 6 5.08 0.74
2 -8 7 22.96 1.71
-2 8 -7 17.11 1.76
2 9 -8 -0.14 0.46
-2 -9 7 0.58 0.38
2 9 -7 0 0.42
2 9 -6 8.65 1.47
-2 -9 6 8.88 1.15
2 9 -5 -0.07 0.33
2 -9 -5 -0.16 0.31
-2 -9 5 0.02 0.2
2 -9 -4 0.35 0.31
-2 -9 4 0.04 0.21
2 -9 -3 3.29 0.73
-2 -9 3 2.4 0.61
-2 9 3 2.52 0.47
2 9 -3 3.65 0.89
2 9 -2 0.61 0.33
-2 -9 2 1.49 0.49
2 -9 -2 0.88 0.4
-2 9 2 1.65 0.38
2 -9 -1 108.94 4.57
2 9 -1 103.91 4.29
2 9 -1 112.38 4.77
-2 -9 1 106.67 4.75
-2 9 1 108.98 3.73
2 -9 0 13.39 1.44
-2 -9 0 10.48 1.39
2 9 0 13.51 1.3
2 9 0 12.22 1.34
-2 9 0 12.42 0.99
-2 -9 -1 14.8 1.69
2 9 1 18.32 1.56
2 9 1 14.14 1.41
-2 9 -1 16.7 1.51
-2 9 -1 16.05 1.17
-2 -9 -2 33.96 2.7
2 9 2 34.41 2.23
-2 9 -2 33.32 2.27
-2 9 -2 31.63 1.78
-2 -9 -3 4.55 1
-2 9 -3 4.52 0.66
-2 9 -3 4.05 0.78
-2 -9 -4 126.41 6.16
-2 9 -4 126.01 5.27
-2 9 -4 119.82 4.53
-2 9 -5 21.95 1.74
-2 -9 -5 22.55 2.49
-2 -9 -6 1.02 0.52
-2 9 -6 1.01 0.42
-2 9 -7 1.29 0.51
2 10 -8 35.05 3.37
2 10 -7 25.4 2.7
-2 -10 7 21.59 2
2 10 -6 44.78 3.48
-2 -10 6 29.55 2.35
2 -10 -5 21.59 2.04
-2 -10 5 19.67 1.82
2 10 -5 19.15 2.19
2 -10 -4 0.53 0.4
-2 -10 4 0.55 0.38
2 10 -4 0.15 0.43
-2 10 3 76.47 3.12
-2 -10 3 72.62 3.88
2 10 -3 80.24 4.37
2 -10 -3 81.79 4.1
-2 10 2 71.61 2.9
-2 -10 2 68.87 3.79
2 -10 -2 76.02 3.85
2 10 -2 71.84 3.97
-2 -10 1 31.44 2.48
2 -10 -1 33.13 2.4
-2 10 1 35.34 1.83
2 10 -1 34.17 2.51
2 -10 0 18.21 1.76
2 10 0 17.96 1.56
2 10 0 18.64 1.76
-2 -10 0 19.46 1.96
-2 10 0 17.34 1.23
-2 10 -1 0.8 0.37
2 -10 1 0.48 0.41
-2 10 -1 0.21 0.17
2 10 1 0.37 0.24
-2 -10 -1 0.75 0.59
2 10 1 0.28 0.24
-2 10 -2 0.16 0.2
2 10 2 -0.07 0.19
2 10 2 0.13 0.23
-2 10 -2 0.37 0.26
-2 10 -3 -0.12 0.23
-2 -10 -3 -0.52 0.57
-2 10 -3 0.01 0.15
-2 -10 -4 16.59 2.11
-2 10 -4 17.15 1.8
-2 10 -4 15.98 1.4
-2 -10 -5 14.01 2.02
-2 10 -5 13.47 1.37
-2 -10 -6 7.33 1.54
-2 10 -6 4.73 0.88
-2 -11 7 0.11 0.29
2 11 -7 0.08 0.41
2 11 -6 24.32 2.67
-2 -11 6 16.44 1.8
2 -11 -5 20.58 2.09
-2 -11 5 19.57 1.97
2 11 -5 17.16 2.16
2 -11 -4 5.7 1.07
-2 -11 4 2.79 0.76
2 11 -4 5.71 1.19
-2 11 4 5.51 0.76
-2 11 3 124.38 4.43
-2 -11 3 116.13 5.48
2 11 -3 132.19 6.09
2 11 -2 0.83 0.51
-2 -11 2 0.82 0.49
2 -11 -2 0.07 0.33
-2 11 2 0.66 0.25
-2 -11 1 48.45 3.35
2 -11 -1 56 3.42
2 11 -1 54.78 3.44
-2 11 1 56.25 2.48
-2 -11 0 74.89 4.3
2 -11 0 73.23 3.97
2 11 0 66.43 3.78
-2 11 0 72.75 2.95
-2 -11 -1 40.14 3.12
2 -11 1 37.12 2.83
-2 11 -1 38.17 2.69
2 11 1 33.35 2.5
-2 11 -1 42.28 2.1
-2 -11 -2 40.27 3.23
-2 11 -2 44.64 2.95
2 11 2 35.94 2.59
-2 11 -2 42.44 2.2
-2 -11 -3 -0.02 0.37
-2 11 -3 0.06 0.33
-2 11 -3 0.2 0.22
-2 11 -4 11.41 1.2
-2 -11 -4 8.06 1.55
-2 -11 -5 0.88 0.58
-2 11 -5 -0.08 0.17
-2 -11 -6 0.94 0.73
-2 11 -6 1.91 0.58
-2 -12 7 -0.16 0.37
2 12 -7 -0.52 0.5
2 12 -6 2.6 0.93
-2 -12 6 1.33 0.59
2 -12 -5 2.08 0.72
2 12 -5 2.31 0.89
-2 -12 5 1.83 0.66
-2 -12 4 14.59 1.79
2 -12 -4 17.16 1.99
2 -12 -3 49.81 3.42
-2 -12 3 41 3.14
2 12 -3 47.65 3.54
2 12 -2 6.36 1.2
-2 -12 2 2.39 0.77
2 -12 -2 5.48 1.11
2 -12 -1 11.98 1.59
-2 -12 1 10.37 1.57
2 12 -1 11.09 1.56
2 -12 0 35.74 2.84
2 12 0 32.14 2.64
-2 12 0 39.46 2.82
-2 -12 0 38.1 3.15
-2 -12 -1 11.68 1.75
2 -12 1 11.29 1.56
2 12 1 12.78 1.58
-2 12 -1 15.92 1.75
-2 -12 -2 29.6 2.86
2 -12 2 25.43 2.58
-2 12 -2 27.71 2.42
2 12 2 26.91 2.27
-2 -12 -3 13.51 1.97
-2 12 -3 14.51 1.77
2 12 3 13.84 1.6
-2 -12 -4 10.71 1.82
-2 -12 -5 3.29 1.24
-2 -13 6 16.85 2.03
2 13 -6 14.99 2.29
2 -13 -5 1.05 0.61
-2 -13 5 1.64 0.66
2 13 -5 2.6 0.94
2 -13 -4 10.07 1.59
-2 -13 4 11.21 1.69
2 13 -4 11.06 1.8
2 -13 -3 18.63 2.14
2 13 -3 18.05 2.24
-2 -13 3 18.05 2.14
2 13 -2 0.25 0.39
-2 -13 2 0.35 0.52
2 -13 -2 -0.5 0.37
2 -13 -1 15.91 1.98
-2 -13 1 11.09 1.71
2 13 -1 15.97 1.95
-2 -13 0 9.13 1.58
2 -13 0 10.08 1.53
-2 13 0 8.32 1.33
2 13 0 7.28 1.28
-2 -13 -1 18.45 2.31
2 -13 1 21.89 2.3
-2 13 -1 21.61 2.2
2 13 1 19.39 2.04
-2 -13 -2 0.48 0.52
2 -13 2 0.5 0.49
-2 13 -2 0.68 0.49
2 13 2 1.28 0.57
-2 13 -3 0.6 0.46
-2 -13 -3 -0.29 0.4
2 -13 3 0.85 0.57
2 13 3 0.3 0.29
-2 -13 -4 2.24 0.93
2 13 4 3.63 0.88
-2 -14 5 26.46 2.74
2 14 -5 33.26 3.4
2 -14 -4 9.99 1.68
-2 -14 4 11 1.76
2 14 -4 10.27 1.81
2 -14 -3 3.53 1.01
-2 -14 3 2.96 1.03
2 14 -3 3.75 1.1
-2 -14 2 3.64 1.03
2 -14 -2 3.31 0.96
-2 -14 1 12.87 1.93
2 -14 -1 10.18 1.68
2 14 -1 10.6 1.68
-2 14 1 12.81 1.75
-2 14 0 1.92 0.68
-2 -14 0 0.96 0.64
2 -14 0 1.48 0.63
2 14 0 0.72 0.5
2 14 1 2.24 0.7
-2 -14 -1 1.58 0.78
-2 14 -1 1.31 0.61
2 -14 1 2.05 0.8
-2 -14 -2 6.41 1.5
2 -14 2 8.17 1.49
2 14 2 6.81 1.25
-2 14 -2 7.86 1.42
-2 14 -3 3.17 0.93
-2 -14 -3 2.13 0.87
2 14 3 2.01 0.67
2 -14 3 2.3 0.94
2 -15 -3 2.98 0.98
-2 -15 3 1.57 0.76
2 15 -3 3.75 1.11
-2 -15 2 6.23 1.42
2 -15 -2 7.06 1.53
2 15 -2 6.61 1.43
-2 -15 1 -0.18 0.42
2 15 -1 -0.5 0.5
-2 15 1 0.46 0.35
-2 -15 0 8.71 1.71
2 -15 0 9.57 1.71
2 15 0 7.81 1.47
-2 15 0 8.46 1.48
-2 -15 -1 32.17 3.37
2 -15 1 34.87 3.3
2 15 1 34.04 3.02
-2 15 -1 33.97 3.07
-3 0 10 12.06 1.36
3 0 -10 11.45 1.81
3 0 -9 -0.28 0.44
-3 0 9 0.13 0.2
3 0 -8 7.3 1.29
-3 0 8 5.57 0.83
3 0 -7 0.09 0.34
-3 0 7 -0.12 0.21
3 0 -6 5.75 1.03
-3 0 6 5.5 0.75
3 0 -5 0.67 0.43
-3 0 5 0 0.18
3 0 -4 17.3 1.47
-3 0 4 18.34 1.29
-3 0 3 0.36 0.21
3 0 -3 0.16 0.19
3 0 -2 -0.1 0.12
-3 0 2 0.1 0.12
3 0 -1 -0.08 0.12
3 0 -1 0.01 0.18
-3 0 1 0.1 0.12
-3 0 0 28.91 1.29
3 0 0 29.16 1.18
-3 0 -1 0.25 0.15
-3 0 -2 11.98 0.88
3 0 2 13.26 1.08
-3 0 -3 -0.01 0.12
3 0 3 -0.03 0.16
3 0 4 10.3 1.02
-3 0 -4 12.68 1.09
-3 0 -5 0.04 0.22
3 0 5 0.1 0.22
-3 0 -6 16.77 1.56
3 0 6 17.73 1.48
-3 0 -7 0.33 0.34
3 0 7 0.02 0.22
-3 0 -8 1.68 0.59
3 0 8 1.05 0.42
-3 -1 10 1.36 0.49
3 -1 -10 1.51 0.66
-3 1 10 0.88 0.38
3 1 -10 2.26 0.82
3 1 -9 -0.17 0.42
3 -1 -9 0.48 0.52
-3 -1 9 0.03 0.23
-3 1 9 0.26 0.32
3 1 -8 9.4 1.45
-3 1 8 8.56 1
-3 -1 8 6.35 0.88
3 -1 -8 8.55 1.41
3 1 -7 1.66 0.59
-3 1 7 0.43 0.27
-3 -1 7 1.07 0.38
3 -1 -7 0.95 0.45
3 1 -6 3.56 0.8
-3 1 6 3.97 0.63
-3 -1 6 4.13 0.64
3 -1 -6 3.44 0.76
-3 -1 5 7.49 0.83
3 1 -5 8.51 1.14
-3 1 5 6.45 0.76
3 -1 -5 5.26 0.92
3 1 -4 0.7 0.35
3 -1 -4 0.19 0.23
-3 1 4 0.25 0.24
-3 -1 4 0.22 0.18
-3 1 3 31.57 1.67
3 -1 -3 28.48 1.8
-3 -1 3 28.66 1.62
3 1 -3 29.02 1.83
-3 -1 3 29.28 1.11
-3 1 2 365.79 9.27
3 -1 -2 346.98 9.67
3 1 -2 362.2 9.97
3 -1 -2 369.5 9.68
3 1 -2 372.36 9.82
-3 -1 1 84.34 2.63
-3 1 1 88.71 2.81
3 -1 -1 79.75 2.83
3 -1 -1 87.48 3.18
3 1 -1 92.21 3.43
3 1 -1 83.71 2.95
-3 1 0 14.47 0.91
-3 -1 0 15.92 0.87
3 1 0 16.6 0.89
-3 -1 -1 2.62 0.35
-3 1 -1 3.51 0.45
3 1 1 3.14 0.27
-3 1 -2 7.93 0.73
3 -1 2 7.54 0.81
3 1 2 7.36 0.78
-3 -1 -2 8.35 0.69
-3 -1 -3 0.55 0.22
-3 1 -3 0.62 0.23
3 1 3 0.25 0.21
3 -1 3 0.75 0.33
3 1 4 7.13 0.85
-3 -1 -4 6.43 0.75
-3 1 -4 7.18 0.83
3 -1 4 6.54 0.82
-3 -1 -5 0.4 0.22
-3 1 -5 0.55 0.33
3 1 5 0.38 0.26
3 -1 5 0.19 0.23
-3 -1 -6 129.82 5.03
-3 1 -6 129.8 5.05
3 1 6 125.73 4.77
3 -1 6 128.64 4.83
-3 -1 -7 1.64 0.53
-3 1 -7 2.22 0.66
3 1 7 1.37 0.46
3 -1 7 1.67 0.53
-3 -1 -8 15.93 1.8
-3 1 -8 18.67 1.92
3 1 8 14.77 1.51
3 -1 8 14.33 1.48
3 -2 -10 5.42 1.27
-3 2 10 3.89 0.77
-3 -2 10 4.26 0.81
3 2 -10 4.13 1.11
3 2 -9 3.87 1.02
3 -2 -9 2.09 0.77
-3 2 9 3.74 0.7
-3 -2 9 3.9 0.73
3 2 -8 0.54 0.52
3 -2 -8 0.47 0.4
-3 -2 8 0.23 0.21
-3 2 8 0.05 0.21
3 2 -7 5.92 1.09
-3 -2 7 6.41 0.83
-3 2 7 6.92 0.86
3 -2 -7 8.08 1.29
3 -2 -6 6.71 1.12
3 2 -6 6.15 1.06
-3 2 6 6.75 0.79
-3 -2 6 4.67 0.67
3 -2 -5 21 1.81
-3 2 5 18.38 1.34
-3 -2 5 22.31 1.47
3 2 -5 23.04 1.9
-3 -2 4 149.26 4.01
-3 -2 4 142.07 4.78
-3 2 4 150.69 4.83
3 -2 -4 155.03 5.49
3 2 -4 146.65 5.41
-3 -2 3 21.77 0.98
-3 2 3 20.42 1.26
-3 -2 3 21.64 1.31
3 -2 -3 20.83 1.46
3 2 -3 19.92 1.48
3 2 -2 110.21 3.95
-3 -2 2 114.01 3.59
-3 2 2 116.41 3.59
3 -2 -2 116.84 3.76
3 -2 -2 106.61 3.85
-3 2 1 22.79 1.19
3 2 -1 21.24 1.26
3 -2 -1 20.34 1.25
-3 -2 1 20 0.96
-3 -2 1 21.64 1.37
3 2 0 2.03 0.33
-3 -2 0 1.67 0.42
-3 -2 0 2.4 0.3
-3 2 0 2.61 0.39
-3 -2 -1 0.04 0.07
-3 2 -1 0.36 0.19
-3 2 -1 0.13 0.06
3 2 1 0.13 0.09
3 -2 2 61.13 2.63
-3 2 -2 63.82 2.5
3 2 2 63.94 2
3 2 2 66.66 2.69
-3 -2 -2 66.18 2.35
-3 -2 -3 3.91 0.54
-3 2 -3 4.06 0.59
3 2 3 4.94 0.65
3 -2 3 3.85 0.6
3 -2 4 14.98 1.26
-3 -2 -4 18.37 1.3
-3 2 -4 17.33 1.33
3 2 4 16.25 1.3
-3 2 -5 39 2.25
3 2 5 38.87 2.15
-3 -2 -5 35.06 2.12
3 -2 5 39.05 2.17
-3 -2 -6 6.75 0.97
-3 2 -6 6.7 0.97
3 2 6 7.67 0.94
3 -2 6 7.2 0.95
-3 -2 -7 18.11 1.73
-3 2 -7 15.55 1.64
3 2 7 15.72 1.47
3 -2 7 17 1.55
-3 -2 -8 2.88 0.78
-3 2 -8 2.76 0.75
3 2 8 2.25 0.6
3 -2 8 3.86 0.78
3 3 -10 11.58 1.83
3 3 -10 10.36 1.72
-3 3 10 11.07 1.31
-3 -3 10 12.7 1.4
3 3 -9 -0.08 0.31
-3 3 9 0.1 0.16
-3 -3 9 0.09 0.25
3 3 -8 2.9 0.82
-3 -3 8 4.22 0.73
3 3 -8 3.57 0.92
3 -3 -8 4.9 1.08
-3 3 8 2.27 0.54
3 3 -7 0.78 0.47
3 3 -7 1.14 0.52
-3 3 7 1.25 0.38
3 -3 -7 0.68 0.44
-3 -3 7 0.73 0.31
-3 3 6 13.43 1.16
-3 -3 6 12.19 1.12
3 -3 -6 14.43 1.63
3 3 -6 14.1 1.61
-3 -3 5 0.7 0.2
3 3 -5 0.77 0.5
3 -3 -5 1.02 0.47
-3 3 5 0.93 0.32
-3 -3 5 0.81 0.29
3 -3 -4 17.1 0.83
-3 -3 4 16.19 1.23
-3 -3 4 17.05 0.98
-3 3 4 17 1.25
3 -3 -4 20.31 1.66
3 3 -4 14.96 1.45
-3 -3 3 6.64 0.63
3 -3 -3 5.54 0.49
-3 3 3 7.49 0.79
-3 -3 3 8.03 0.8
3 3 -3 6.68 0.88
-3 3 2 156.53 4.54
3 3 -2 146.12 4.94
-3 -3 2 143.34 4.01
3 -3 -2 150.25 4.44
-3 -3 2 150.68 4.63
-3 3 1 38.39 1.7
-3 -3 1 38.05 1.99
3 3 -1 37.28 1.9
3 -3 -1 38.59 1.72
-3 -3 1 37.32 1.33
3 3 0 7.07 0.69
-3 -3 0 5.27 0.43
-3 3 0 7.02 0.67
-3 -3 0 8.44 0.98
3 3 1 25.7 1.29
-3 -3 -1 25.71 1.14
-3 3 -1 26.11 1.41
-3 -3 -1 26.91 1.93
3 3 2 1.59 0.27
-3 -3 -2 1.32 0.27
-3 3 -2 1.47 0.34
-3 3 -2 1.86 0.25
3 3 2 1.17 0.35
3 -3 2 1.03 0.32
-3 -3 -3 20.81 1.26
3 -3 3 20.16 1.4
-3 3 -3 20.34 1.38
3 3 3 18.55 1.33
-3 3 -4 47.94 2.45
3 -3 4 54.63 2.54
-3 -3 -4 50.83 2.39
3 3 4 52.01 2.48
-3 3 -5 10.07 1.09
-3 -3 -5 7.51 0.93
3 3 5 8.51 0.96
3 -3 5 9.1 1.01
-3 -3 -6 0.21 0.24
-3 3 -6 -0.15 0.27
3 3 6 0.13 0.24
3 -3 6 0.43 0.32
-3 -3 -7 1.8 0.56
-3 3 -7 1.14 0.51
3 3 7 2.07 0.55
3 -3 7 2.34 0.6
-3 -3 -8 -0.26 0.35
-3 3 -8 -0.47 0.45
3 3 8 -0.09 0.21
3 -3 8 -0.1 0.22
3 4 -10 -0.32 0.49
-3 4 10 0.35 0.3
-3 -4 10 0.34 0.31
3 4 -9 16.77 2.12
3 4 -9 20.65 2.26
-3 4 9 20.26 1.68
-3 -4 9 18.18 1.63
3 4 -8 0.05 0.34
-3 4 8 0.66 0.33
-3 -4 8 0.08 0.19
3 4 -7 5.47 1
3 4 -7 6.24 1.2
-3 4 7 5.17 0.75
-3 -4 7 5.08 0.76
-3 -4 6 2.41 0.5
3 4 -6 1.99 0.64
-3 4 6 1.53 0.42
-3 -4 5 5.58 0.59
-3 4 5 6.69 0.8
3 4 -5 6.54 1.05
-3 -4 5 5.57 0.73
3 4 -4 209.33 7.13
3 -4 -4 212.53 5.73
-3 -4 4 208.44 5.95
-3 4 4 205.08 6.28
-3 -4 4 209.12 6.32
3 4 -3 4.27 0.74
-3 -4 3 4.51 0.58
3 -4 -3 3.08 0.45
-3 -4 2 176.14 5.53
-3 4 2 178.78 5.27
-3 -4 2 179.86 4.61
3 4 -2 177.01 5.87
-3 -4 1 1.76 0.2
-3 -4 1 1.58 0.43
3 -4 -1 2.12 0.33
3 4 -1 1.21 0.41
3 4 -1 1.74 0.41
-3 4 1 1.56 0.32
3 4 0 2.21 0.42
-3 -4 0 3.06 0.64
3 4 0 2.52 0.57
-3 4 0 2.57 0.43
-3 -4 0 2.24 0.25
-3 -4 -1 0.1 0.22
-3 -4 -1 0.13 0.09
-3 4 -1 0.06 0.12
3 4 1 -0.1 0.14
-3 4 -2 118.1 3.53
3 4 2 120.53 3.71
-3 -4 -2 116.51 3.56
3 4 2 114.03 3.94
3 -4 2 109.54 3.94
-3 4 -2 116.45 3.94
-3 -4 -2 117.81 5.02
3 4 3 3.09 0.54
-3 -4 -3 2.94 0.45
-3 4 -3 2.05 0.44
3 -4 3 3.36 0.55
3 4 4 24.4 1.6
-3 -4 -4 24.61 1.57
3 -4 4 28.03 1.73
-3 4 -4 25.78 1.7
3 -4 5 12.55 1.2
-3 -4 -5 13.8 1.29
3 4 5 13 1.18
-3 4 -5 14.58 1.36
-3 4 -6 7.01 1.02
-3 -4 -6 7.82 1.04
3 4 6 6.82 0.91
3 -4 6 6.81 0.89
-3 -4 -7 0.74 0.39
-3 4 -7 0.16 0.3
3 4 7 0.35 0.28
3 -4 7 0.67 0.38
-3 -4 -8 0.66 0.42
-3 4 -8 0.43 0.36
3 4 8 -0.02 0.17
3 -4 8 0.77 0.43
3 5 -10 5.28 1.2
3 5 -10 6 1.36
-3 5 10 5.67 0.95
-3 -5 10 6.02 0.98
3 5 -9 36.96 3.06
-3 5 9 40.93 2.49
-3 -5 9 39.34 2.5
3 5 -9 43.97 3.54
3 5 -8 22.31 2.14
-3 5 8 23.46 1.73
-3 -5 8 19.47 1.61
3 5 -8 24.11 2.48
3 5 -7 8.66 1.2
3 5 -7 9.76 1.48
-3 5 7 10.7 1.11
-3 -5 7 10.71 1.1
3 5 -6 1.11 0.4
3 5 -6 1.57 0.56
-3 5 6 1.06 0.33
-3 -5 6 1.06 0.33
-3 -5 5 0.2 0.17
-3 -5 5 0.01 0.18
3 5 -5 0.42 0.38
-3 5 5 0.37 0.22
-3 -5 4 6.85 0.75
-3 5 4 6.59 0.77
-3 -5 4 7.16 0.82
3 -5 -4 7.56 0.73
3 5 -4 5.65 0.97
-3 -5 3 109.79 3.81
3 -5 -3 95.48 3.46
3 5 -3 106.93 4.4
-3 -5 2 47.62 1.49
-3 5 2 50.36 2.16
-3 -5 2 47.45 2.36
3 5 -2 48.7 2.6
3 5 -2 45.6 2.56
-3 -5 1 98.89 4.05
3 5 -1 106.06 4
3 -5 -1 108.16 3.13
3 5 -1 111.04 4.29
-3 -5 1 102.22 2.64
-3 5 1 100.5 3.5
-3 -5 0 32.02 2.12
3 5 0 30.75 2.08
3 5 0 30.21 1.77
-3 -5 0 33.21 1.09
-3 5 0 30.11 1.61
-3 -5 -1 1.41 0.48
-3 -5 -1 1.46 0.23
-3 5 -1 0.9 0.29
3 5 1 1.03 0.3
-3 -5 -2 7.17 1.11
3 -5 2 5.96 0.7
-3 5 -2 5.53 0.62
3 5 2 6.34 0.7
-3 -5 -2 6.2 0.57
3 5 2 6.66 0.72
-3 5 -2 5.78 0.7
-3 5 -3 21.6 1.47
3 5 3 21.79 1.42
3 -5 3 20.86 1.43
-3 -5 -3 22.42 1.33
-3 -5 -3 21.36 2.1
-3 -5 -4 0.72 0.3
-3 5 -4 1.12 0.39
3 5 4 0.9 0.3
3 -5 4 0.77 0.31
-3 -5 -5 0.63 0.31
-3 5 -5 0.29 0.3
3 5 5 0.61 0.27
3 -5 5 0.05 0.17
-3 -5 -6 31.86 2.24
-3 5 -6 31.94 2.28
3 5 6 32.43 2.03
3 -5 6 33.03 2.1
-3 -5 -7 2.3 0.64
-3 5 -7 2.82 0.71
3 5 7 4.24 0.76
3 -5 7 2.26 0.59
-3 -5 -8 8.75 1.38
-3 5 -8 8.9 1.35
3 5 8 7.36 1.03
3 -5 8 5.95 0.97
3 6 -10 35.45 3.18
-3 6 10 40.56 2.62
-3 -6 10 40.54 2.67
3 6 -10 39.97 3.58
3 6 -9 70.65 4.27
-3 6 9 65.87 3.42
-3 -6 9 73.45 3.58
3 6 -8 9.33 1.35
3 6 -8 11.49 1.74
-3 6 8 11.7 1.23
-3 -6 8 12.04 1.24
3 6 -7 6.41 1
-3 -6 7 6.86 0.91
3 6 -7 7.35 1.35
-3 6 7 5.94 0.83
3 6 -6 32.01 2.67
3 6 -6 32 2.16
-3 6 6 35.81 2.06
-3 -6 6 36.21 2.08
-3 -6 5 1.33 0.36
-3 6 5 1.37 0.36
-3 -6 5 1.77 0.45
3 6 -5 2.03 0.7
3 -6 -4 66.82 2.76
-3 -6 4 59.5 2.76
3 6 -4 59.82 3.43
-3 6 4 63.02 2.73
-3 -6 4 64.77 2.83
3 6 -3 3.89 0.82
-3 -6 3 2.24 0.54
3 -6 -3 1.76 0.43
-3 6 3 2.99 0.54
-3 -6 2 0.08 0.19
3 -6 -2 0.1 0.15
3 6 -2 0.3 0.25
3 6 -2 0.54 0.33
-3 6 2 -0.24 0.17
3 6 -1 -0.19 0.25
3 -6 -1 0.12 0.07
-3 6 1 0 0.1
3 6 -1 0.23 0.18
-3 -6 0 53.2 2.92
3 6 0 44.78 2.66
3 6 0 47.39 2.45
-3 6 0 49.47 2.18
-3 -6 -1 62.17 3.46
3 6 1 69.31 2.93
3 6 1 69.15 2.66
3 -6 1 65.64 2.64
-3 6 -1 66.75 2.72
3 6 2 101.09 3.45
3 -6 2 96.41 3.46
-3 6 -2 99.05 3.51
3 6 2 86.97 3.48
-3 -6 -2 95.88 3.08
-3 -6 -2 91.44 4.56
-3 6 -2 87.35 3.45
-3 -6 -3 1 0.49
-3 -6 -3 1.81 0.38
-3 6 -3 1.61 0.4
3 6 3 1.55 0.36
3 -6 3 1.82 0.41
-3 -6 -4 143.47 4.83
3 6 4 138.85 4.68
3 -6 4 137.24 4.76
-3 6 -4 139.37 5.01
-3 -6 -4 131.43 6.33
3 6 5 26.57 1.72
3 -6 5 26.24 1.77
-3 6 -5 25.59 1.9
-3 6 -6 1.36 0.49
3 6 6 1.59 0.43
3 -6 6 1.78 0.49
-3 6 -7 0.9 0.39
3 6 7 1.4 0.43
3 -6 7 1.23 0.44
-3 7 9 66.47 3.4
-3 -7 9 71.09 3.57
3 7 -9 70.86 4.83
-3 -7 8 1.66 0.47
3 7 -8 1.45 0.67
-3 7 8 1.39 0.44
-3 -7 7 18.64 1.56
-3 7 7 18.33 1.53
3 7 -7 22.17 2.35
3 7 -6 42.9 3.18
-3 7 6 43.32 2.38
-3 -7 6 48.23 2.52
-3 -7 5 42.67 2.27
3 7 -5 40.97 2.98
-3 -7 5 39.47 2.23
-3 7 5 39.81 2.16
3 -7 -4 39.94 2.19
-3 -7 4 36.38 2.19
3 7 -4 36.17 2.7
-3 7 4 39.89 2.04
-3 -7 4 39.68 2.11
-3 7 3 53.03 2.46
-3 -7 3 55.59 2.81
3 -7 -3 54.21 2.62
3 7 -3 57.97 3.28
-3 -7 2 2.07 0.54
3 -7 -2 2.15 0.48
3 7 -2 1.94 0.56
-3 7 2 1.99 0.42
3 7 -2 1.48 0.48
-3 -7 1 36.26 2.4
3 7 -1 40.42 2.43
3 7 -1 41.05 2.48
-3 7 1 37.21 1.92
-3 -7 0 28.25 2.19
3 7 0 33.14 2.25
3 7 0 33.92 2.09
-3 7 0 30.42 1.69
3 7 1 0.65 0.3
-3 -7 -1 0.45 0.3
3 7 1 0.56 0.42
3 -7 1 0.32 0.21
-3 7 -1 0.38 0.26
-3 7 -1 0.45 0.26
3 7 1 0.6 0.24
-3 -7 -2 19.58 2.03
-3 7 -2 20.7 1.51
3 7 2 23.14 1.61
3 7 2 24.71 1.41
3 -7 2 22.88 1.42
-3 7 -2 20.64 1.46
-3 -7 -3 75.59 4.41
3 7 3 76.09 3.24
3 7 3 79.77 3.06
3 -7 3 79.16 3.11
-3 7 -3 74.69 3.24
3 7 4 167.55 5.26
3 -7 4 170.27 5.41
-3 7 -4 149.84 5.51
-3 -7 -4 152.35 7.12
3 7 5 27.88 1.76
-3 7 -5 28 2.03
3 -7 5 30.83 1.92
-3 -7 -5 29.55 2.92
3 7 6 33.56 2.04
3 -7 6 32.42 2.1
-3 7 -6 29.83 2.27
-3 7 -7 0.75 0.49
3 7 7 0.23 0.22
3 -7 7 0.4 0.33
-3 -8 9 2.53 0.63
3 8 -9 4.51 1.22
-3 -8 8 13.59 1.39
3 8 -8 12.16 1.9
-3 8 7 0.24 0.23
3 8 -7 0.06 0.45
-3 -8 7 0.42 0.25
3 8 -6 34.38 2.93
-3 8 6 36.88 2.15
-3 -8 6 37.08 2.22
-3 -8 5 25.38 1.85
3 8 -5 22.22 2.25
-3 8 5 21.23 1.54
-3 -8 5 24.15 1.67
3 -8 -4 7.96 1.02
-3 -8 4 8.13 1.05
3 8 -4 10.29 1.46
-3 -8 3 0.91 0.41
3 -8 -3 1.01 0.4
3 8 -3 0.7 0.43
-3 8 3 1.29 0.37
-3 8 2 73.44 3
-3 -8 2 74.36 3.65
3 -8 -2 75.6 3.37
3 8 -2 75.08 3.86
3 8 -2 74.44 3.67
-3 -8 1 79.39 3.97
3 8 -1 84.75 3.98
3 8 -1 80.15 3.86
-3 8 1 88.22 3.32
-3 -8 0 0.29 0.26
3 8 0 0.07 0.23
-3 8 0 0.26 0.21
3 8 0 0.3 0.34
3 8 1 0.26 0.25
-3 -8 -1 -0.34 0.32
3 8 1 0.26 0.3
-3 8 -1 0.09 0.13
3 8 1 0.19 0.16
-3 8 -1 0.02 0.19
3 -8 1 0.38 0.21
-3 -8 -2 7.82 1.32
3 8 2 7.89 0.77
-3 8 -2 8.32 0.99
3 8 2 8.06 0.98
3 -8 2 7.31 0.77
-3 8 -2 8.75 0.94
-3 -8 -3 126.39 6.15
-3 8 -3 128.82 4.71
3 8 3 126.29 4.77
3 8 3 127.35 4.28
3 -8 3 139.81 4.49
3 -8 4 11.14 1.04
-3 -8 -4 8.17 1.47
3 8 4 8.84 0.9
-3 8 -4 8.36 1.02
-3 -8 -5 3.95 1.12
-3 8 -5 3.76 0.75
3 -8 5 6.34 0.84
3 -8 6 37.67 2.28
-3 8 -6 37.19 2.61
3 -8 7 14.16 1.4
-3 8 -7 13.63 1.64
3 9 -8 21.09 2.56
3 9 -7 0.24 0.39
3 9 -6 18.8 2.23
3 9 -5 1.98 0.71
-3 -9 5 1.34 0.49
-3 9 4 6.59 0.83
3 9 -4 6.42 1.21
3 -9 -4 6.05 0.95
-3 -9 4 5.71 0.93
-3 9 3 14.8 1.25
-3 -9 3 15.12 1.56
3 -9 -3 19.3 1.67
3 9 -3 18.19 1.92
-3 9 2 26.46 1.65
-3 -9 2 24.61 2.08
3 -9 -2 25.31 1.93
3 9 -2 28.06 2.3
-3 -9 1 12.37 1.5
3 -9 -1 11.09 1.3
3 9 -1 11.56 1.39
3 9 -1 14.84 1.5
-3 9 1 11.98 1.08
-3 -9 0 25.25 2.28
3 9 0 24.82 2.02
3 9 0 22.57 1.93
-3 9 0 25.48 1.6
-3 -9 -1 25.99 2.4
3 9 1 23.1 2.02
3 9 1 25.41 1.96
-3 9 -1 28.52 1.99
-3 9 -1 25.31 1.65
-3 -9 -2 15.33 1.88
-3 9 -2 16.62 1.51
3 9 2 14.65 1.43
-3 9 -2 15.54 1.3
-3 -9 -3 68.65 4.4
3 9 3 67.8 3.34
-3 9 -3 70.54 3.2
-3 -9 -4 -0.01 0.34
-3 9 -4 0.09 0.17
-3 9 -5 26.24 2.06
-3 -9 -5 29.94 3.08
-3 9 -6 0.33 0.31
3 10 -8 15.94 2.29
3 10 -7 31.77 3.13
3 10 -6 2.37 0.86
-3 -10 6 1.27 0.49
-3 -10 5 14.97 1.61
3 10 -5 15.31 2.04
-3 10 4 15.99 1.39
3 -10 -4 17.23 1.72
-3 -10 4 18.43 1.8
3 10 -4 19.27 2.17
-3 10 3 58.05 2.78
-3 -10 3 59.04 3.43
3 -10 -3 65.12 3.5
3 10 -3 60 3.83
-3 -10 2 106 5.08
3 -10 -2 117.48 5.01
3 10 -2 121.97 5.53
-3 10 2 117.16 4.27
-3 -10 1 17.48 1.88
3 -10 -1 17.47 1.73
3 10 -1 20.29 1.97
3 10 -1 22.61 1.92
-3 10 1 20.37 1.46
-3 -10 0 2.62 0.78
-3 10 0 3.76 0.62
3 10 0 3.9 0.79
3 10 0 4.19 0.86
-3 -10 -1 10.16 1.54
3 10 1 10.64 1.36
3 10 1 12.03 1.4
-3 10 -1 11.53 1.33
-3 10 -1 12.12 1.14
-3 -10 -2 25.67 2.57
3 10 2 28.04 2.35
-3 10 -2 29.03 2.17
3 10 2 25.07 2.01
-3 10 -2 27.41 1.82
-3 -10 -3 11.35 1.75
3 10 3 11.14 1.29
-3 10 -3 8.53 1.04
-3 -10 -4 5.65 1.3
-3 10 -4 6.03 0.93
-3 -10 -5 1.54 0.76
-3 10 -5 1.56 0.51
-3 -10 -6 1.87 0.88
-3 10 -6 1.51 0.57
3 11 -7 17.55 2.4
-3 -11 6 39.38 2.84
3 11 -6 40.11 3.53
-3 11 5 16.52 1.47
-3 -11 5 16.87 1.82
3 11 -5 19.7 2.36
-3 11 4 71.48 3.32
3 -11 -4 77.89 4.11
-3 -11 4 73.51 4.08
3 11 -4 80.31 4.8
-3 11 3 50.36 2.58
-3 -11 3 43.3 3.11
3 11 -3 48.88 3.58
-3 -11 2 130.06 6.02
3 -11 -2 147.73 6.05
3 11 -2 138.16 6.31
-3 11 2 145.69 5.04
-3 -11 1 235.73 9.12
3 -11 -1 249.47 8.8
-3 11 1 259 7.71
3 11 -1 248.04 9.08
-3 -11 0 1.09 0.62
3 -11 0 1.28 0.64
-3 11 0 1.78 0.44
3 11 0 1.39 0.53
3 11 0 1.71 0.59
-3 -11 -1 13.34 1.85
3 11 1 14 1.6
3 11 1 13.29 1.53
-3 11 -1 12.18 1.45
-3 11 -1 14.92 1.31
-3 -11 -2 7.54 1.46
3 11 2 8.18 1.2
3 11 2 8.25 1.27
-3 11 -2 8.73 1.02
-3 11 -2 8.25 1.2
-3 -11 -3 11.82 1.87
3 11 3 9.53 1.25
-3 11 -3 10.49 1.17
-3 -11 -4 31.71 3.23
-3 11 -4 30.39 2.17
-3 -11 -5 7.73 1.64
-3 11 -5 7.26 1.07
-3 12 6 25.16 1.94
-3 -12 6 23.08 2.27
3 12 -6 27.73 3.02
-3 12 5 51.3 2.81
-3 -12 5 49.44 3.44
3 12 -5 54.17 4.2
-3 12 4 159.74 5.64
3 -12 -4 169.83 6.92
-3 -12 4 145.6 6.58
3 12 -4 161.58 7.57
-3 12 3 47.96 2.56
-3 -12 3 43.84 3.25
3 -12 -3 49.32 3.37
3 12 -3 44.86 3.55
-3 -12 2 6.16 1.23
3 -12 -2 7.1 1.23
3 12 -2 6.84 1.32
-3 12 2 7.73 0.95
-3 -12 1 89.46 5.06
3 -12 -1 94.21 4.85
3 12 -1 95.22 5.04
-3 12 1 97.02 3.86
-3 -12 0 3.55 0.99
3 -12 0 4.39 1
-3 12 0 4.57 0.71
3 12 0 4.56 1
-3 12 0 6.7 1.13
-3 -12 -1 91.87 5.36
3 -12 1 74.38 4.62
3 12 1 84.23 4.5
-3 12 -1 102.59 4.8
-3 12 -1 91.86 3.78
-3 -12 -2 43.24 3.67
3 12 2 40.34 2.88
-3 12 -2 45.35 2.54
-3 -12 -3 0.23 0.32
3 12 3 0.2 0.33
-3 12 -3 0.13 0.23
-3 -12 -4 0.5 0.54
-3 12 -4 -0.18 0.18
3 13 -5 6.18 1.45
-3 -13 5 7 1.31
-3 -13 4 47.37 3.55
3 13 -4 52.52 4.13
-3 -13 3 10.69 1.65
3 -13 -3 13.18 1.8
3 13 -3 12.03 1.85
3 -13 -2 12.86 1.75
-3 -13 2 9.34 1.6
3 13 -2 11.31 1.75
3 13 -1 6.03 1.25
-3 -13 1 3.86 1.09
3 -13 -1 5.08 1.12
-3 -13 0 8.57 1.6
3 -13 0 10.54 1.59
3 13 0 8.45 1.41
-3 13 0 9.32 1.43
-3 -13 -1 19.34 2.44
3 -13 1 19.89 2.25
3 13 1 18.79 2.06
-3 13 -1 22.19 2.2
3 13 2 0.82 0.48
-3 -13 -2 0.98 0.67
3 -13 2 0.2 0.46
-3 -13 -3 21.79 2.75
3 13 3 17.2 1.87
-3 -14 4 2.26 0.84
3 14 -4 3.67 1.11
-3 -14 3 9.61 1.67
3 -14 -3 10.69 1.7
3 14 -3 11.08 1.86
-3 -14 2 0.34 0.36
3 -14 -2 0.33 0.47
3 14 -2 0.29 0.41
3 14 -1 -0.2 0.37
-3 -14 1 -0.02 0.49
3 -14 -1 -0.16 0.39
-3 -14 0 19.78 2.5
3 -14 0 19.27 2.29
3 14 0 16.65 2.08
-3 14 0 19.47 2.17
-3 -14 -1 20.44 2.61
3 -14 1 17.3 2.17
3 14 1 20.52 2.24
-3 14 -1 25.67 2.48
3 14 2 5.54 1.14
-3 -14 -2 8.49 1.73
3 -14 2 7.8 1.51
-4 0 10 8.63 1.18
4 0 -10 10.12 1.74
-4 0 9 -0.29 0.27
4 0 -9 -0.25 0.5
4 0 -8 215.39 8.38
-4 0 8 196.2 6.81
4 0 -7 0.31 0.47
-4 0 7 0.09 0.21
-4 0 6 22.94 1.69
4 0 -6 20.4 1.96
4 0 -5 -0.11 0.26
-4 0 5 -0.07 0.19
4 0 -4 944.44 23.98
4 0 -3 0.24 0.22
-4 0 3 0.58 0.26
-4 0 2 415.1 10.49
4 0 -2 398.83 10.9
4 0 -1 -0.01 0.1
-4 0 1 -0.11 0.15
4 0 0 9.14 0.65
-4 0 0 9.76 0.79
-4 0 -1 -0.07 0.16
4 0 2 330.23 9.66
-4 0 -2 348.15 9.2
-4 0 -3 0.06 0.17
4 0 3 -0.02 0.25
-4 0 -4 27.55 1.78
4 0 4 21.74 1.71
-4 0 -5 0.01 0.2
4 0 5 0.07 0.2
-4 0 -6 46.78 2.85
4 0 6 53.85 2.93
-4 0 -7 -0.14 0.27
4 0 7 0.29 0.26
4 -1 -10 0.2 0.32
-4 1 10 0.57 0.35
-4 -1 10 -0.58 0.36
4 1 -10 0.25 0.5
-4 1 9 32.82 2.3
-4 -1 9 32.62 2.3
4 -1 -9 35.2 3.12
4 1 -9 36.53 3.16
4 1 -8 0.82 0.5
-4 1 8 1.76 0.53
-4 -1 8 1.74 0.51
4 -1 -8 0.06 0.39
4 -1 -7 55.05 3.52
-4 -1 7 46.39 2.62
4 1 -7 52.26 3.4
-4 1 7 47.88 2.66
4 -1 -6 14.66 1.67
-4 1 6 11.03 1.17
-4 -1 6 13.12 1.26
4 1 -6 13.21 1.55
4 1 -5 0.95 0.4
-4 1 5 0.88 0.38
-4 -1 5 1.12 0.37
4 -1 -5 1.46 0.56
4 -1 -4 834.32 21.19
4 1 -4 801.33 21.04
-4 1 3 1157.13 27.62
4 -1 -3 1192.3 28.47
4 1 -3 1121.61 28.36
-4 -1 2 30.88 1.48
-4 1 2 31.58 1.6
4 -1 -2 34.69 1.97
4 -1 -2 31.42 1.78
4 1 -2 29.25 1.75
4 -1 -1 19.58 1.19
4 1 -1 20.45 1.27
-4 -1 1 20.12 1.13
-4 1 1 19.07 1.18
4 1 0 84 2.79
-4 -1 0 89.21 2.95
-4 1 0 84.93 3.02
-4 -1 -1 178.13 5.07
-4 1 -1 165.67 5.15
-4 1 -2 70.45 2.84
4 -1 2 71.54 3.16
-4 -1 -2 71.65 2.74
4 1 2 72.47 3.15
-4 1 -3 29.58 1.74
-4 -1 -3 27.24 1.64
4 1 3 31.44 1.96
4 -1 3 28.76 1.89
-4 -1 -4 32.67 1.95
-4 1 -4 33.27 2.02
4 1 4 29.52 2
4 -1 4 32.55 2.1
-4 -1 -5 8.8 1.05
-4 1 -5 8.54 1.06
4 -1 5 8.08 1.04
4 1 5 7.45 0.99
-4 -1 -6 9.46 1.2
-4 1 -6 12.44 1.39
4 1 6 10.62 1.23
4 -1 6 11.23 1.27
-4 -1 -7 12.8 1.53
-4 1 -7 13.1 1.55
4 1 7 16.17 1.59
4 -1 7 14.74 1.51
4 2 -10 3.06 0.98
-4 2 10 2.01 0.59
-4 -2 10 3.33 0.73
4 2 -9 6.69 1.34
4 -2 -9 8.11 1.48
-4 2 9 5.34 0.9
-4 -2 9 5.8 0.91
4 2 -8 3.28 0.9
-4 2 8 3.96 0.74
-4 -2 8 2.43 0.59
4 -2 -8 3.8 0.96
4 2 -7 12.64 1.63
-4 2 7 11.29 1.21
-4 -2 7 10.8 1.19
4 -2 -7 13.29 1.7
4 2 -6 -0.24 0.4
-4 2 6 0.14 0.18
-4 -2 6 0.12 0.23
4 -2 -6 0.46 0.45
4 2 -5 0.23 0.33
-4 -2 5 -0.13 0.23
4 -2 -5 0.39 0.29
-4 2 5 -0.05 0.19
4 -2 -4 82.26 3.75
4 2 -4 78.13 3.71
4 2 -3 26.92 1.88
-4 2 3 29.71 1.62
4 2 -3 28.94 2.01
4 -2 -3 30.12 1.92
-4 -2 3 29.36 1.48
-4 -2 2 125.48 3.83
-4 2 2 127.77 4.14
-4 -2 2 133.03 4.35
4 2 -2 128.25 4.87
4 -2 -2 124.35 4.4
4 -2 -2 125.13 4.38
4 2 -2 129.48 4.55
4 -2 -1 7.72 0.88
4 2 -1 7.29 1
-4 -2 1 7.44 0.62
4 2 -1 6.71 0.74
-4 2 1 7.14 0.73
-4 -2 0 44.01 1.77
-4 2 0 42.94 1.98
4 2 0 43.21 1.89
-4 -2 -1 34.3 1.58
-4 2 -1 34.65 1.78
-4 -2 -2 0.65 0.24
-4 2 -2 0.91 0.29
4 -2 2 0.33 0.27
4 2 2 0.61 0.33
-4 -2 -3 55.59 2.48
4 2 3 55.97 2.77
4 -2 3 58.42 2.82
-4 2 -3 54.12 2.57
4 2 4 17.55 1.49
-4 -2 -4 19.98 1.47
4 -2 4 19.38 1.57
-4 2 -4 16.46 1.4
-4 -2 -5 88.47 3.76
-4 2 -5 85.38 3.82
4 2 5 84.12 3.75
4 -2 5 77.8 3.67
-4 -2 -6 13.5 1.45
-4 2 -6 15.1 1.56
4 2 6 15.71 1.49
4 -2 6 15.11 1.47
-4 -2 -7 0.46 0.34
-4 2 -7 0.4 0.31
4 2 7 0.57 0.37
4 -2 7 0.47 0.37
-4 3 10 23.92 2.05
-4 -3 10 23.48 2.02
4 3 -10 28.12 2.94
-4 3 9 28.09 2.15
-4 -3 9 32.52 2.3
4 -3 -9 41.96 3.44
4 3 -9 37.5 3.22
4 3 -8 5.77 1.21
4 -3 -8 7.49 1.37
-4 3 8 6.76 0.97
-4 -3 8 7.34 1
4 3 -7 1.94 0.63
4 -3 -7 2.64 0.81
-4 3 7 2.25 0.55
-4 -3 7 2.2 0.56
4 3 -6 1.8 0.63
4 -3 -6 3.2 0.78
-4 3 6 2.97 0.61
-4 -3 6 2.57 0.57
-4 3 5 9.63 1.08
-4 -3 5 12.05 1.2
4 -3 -5 12 1.41
4 3 -5 9.65 1.28
-4 -3 4 18.64 1.11
4 -3 -4 17.39 1.59
4 3 -4 14.94 1.52
-4 -3 3 0.16 0.15
4 3 -3 0.51 0.34
-4 3 3 0.28 0.21
4 3 -3 0.37 0.27
-4 -3 2 2.85 0.53
4 3 -2 1.69 0.51
4 -3 -2 2.38 0.45
-4 -3 2 2.61 0.36
-4 3 2 2.62 0.48
4 3 -2 1.77 0.46
4 3 -1 46.79 2.26
4 -3 -1 51.2 2.37
4 3 -1 42.04 2.59
-4 -3 1 44.45 1.71
-4 3 1 43.38 2.06
-4 -3 1 47.6 2.52
4 3 0 16.23 1.13
-4 -3 0 15.99 0.92
-4 3 0 14.73 1.1
-4 -3 0 15.71 1.48
-4 -3 -1 84.58 2.81
-4 3 -1 81.02 3.15
-4 3 -2 5.07 0.69
-4 -3 -2 5.3 0.59
4 -3 2 5.21 0.75
4 3 2 5.17 0.74
-4 -3 -3 85.15 3.25
4 3 3 77.71 3.51
4 -3 3 88.88 3.69
-4 3 -3 94.07 3.59
-4 -3 -4 137.83 4.73
4 3 4 127.86 4.85
4 -3 4 126.47 4.86
-4 3 -4 130.53 4.86
-4 -3 -5 21.27 1.68
-4 3 -5 22.12 1.78
4 3 5 25.69 1.85
4 -3 5 23.15 1.77
-4 -3 -6 11.74 1.35
-4 3 -6 10.07 1.27
4 3 6 11.33 1.26
4 -3 6 9.51 1.19
-4 -3 -7 0.3 0.29
-4 3 -7 0.6 0.45
4 3 7 0.11 0.31
4 -3 7 0.14 0.2
4 4 -10 3.69 1.07
-4 4 10 1.92 0.6
-4 -4 10 3.41 0.77
4 4 -9 8.28 1.5
-4 4 9 7.96 1.1
-4 -4 9 6.75 1.03
-4 4 8 13.73 1.42
-4 -4 8 16.86 1.55
4 4 -8 14.95 1.93
-4 -4 7 -0.06 0.16
4 4 -7 0.23 0.41
-4 4 7 0.05 0.2
4 4 -6 2.02 0.69
-4 4 6 0.92 0.35
-4 -4 6 1.61 0.48
-4 4 5 37.94 2.23
-4 -4 5 40.51 2.32
4 4 -5 39.52 2.77
-4 -4 4 4.34 0.57
4 4 -4 4.14 0.83
-4 -4 3 0.53 0.26
4 4 -3 1.19 0.44
-4 4 3 0.47 0.28
-4 -4 3 0.61 0.18
4 4 -3 0.13 0.19
4 4 -2 -0.13 0.23
-4 -4 2 -0.11 0.15
4 4 -2 0.05 0.21
-4 -4 2 0.11 0.09
-4 4 2 0.08 0.17
-4 -4 1 107.04 4.33
4 4 -1 107.65 4.07
4 -4 -1 114.05 3.88
4 4 -1 113.32 4.71
-4 -4 1 104.93 3.12
-4 4 1 109.76 3.83
4 4 0 68.98 2.87
4 4 0 62.27 3.43
-4 -4 0 68.31 2.23
-4 4 0 68.85 2.8
-4 -4 0 63.39 3.34
4 4 1 10.52 0.91
-4 -4 -1 11.14 0.78
-4 4 -1 9.63 0.95
-4 -4 -1 11.01 1.39
-4 -4 -2 36.27 1.69
4 -4 2 34.21 2.04
4 4 2 35.56 2.05
-4 4 -2 33.43 1.92
-4 -4 -3 35.73 1.84
4 -4 3 33.44 2.08
-4 4 -3 36.81 2.09
4 4 3 32.02 2.02
4 4 4 436.95 12.16
-4 -4 -4 434.93 11.86
4 -4 4 435.29 12.21
-4 4 -4 445.56 12.24
-4 -4 -5 3.2 0.63
-4 4 -5 2.91 0.65
4 4 5 3.85 0.69
4 -4 5 3.87 0.72
-4 -4 -6 43.81 2.71
-4 4 -6 39.2 2.67
4 4 6 40.67 2.51
4 -4 6 45.05 2.68
-4 -4 -7 2.6 0.7
-4 4 -7 3.24 0.84
4 4 7 2.35 0.61
4 -4 7 2.81 0.69
-4 5 10 150.15 6.1
-4 -5 10 154.62 6.19
4 5 -10 161.67 7.78
-4 5 9 21.46 1.86
-4 -5 9 19.4 1.79
4 5 -9 23.11 2.58
4 5 -8 0.56 0.5
-4 5 8 0.48 0.31
-4 -5 8 0.67 0.38
4 5 -7 0.94 0.63
-4 5 7 0.35 0.24
-4 -5 7 0.67 0.35
-4 5 6 176.19 6.12
-4 -5 6 176.22 6.14
4 5 -6 180.12 7.28
-4 5 5 22.64 1.72
-4 -5 5 26.51 1.85
4 5 -5 28.08 2.35
4 5 -4 11.69 1.42
-4 -5 4 12.9 1.1
-4 -5 3 27.04 1.76
-4 5 3 27.91 1.71
4 5 -3 27.53 2.07
-4 -5 3 30.01 1.28
4 5 -3 28.46 2.14
-4 5 2 19.97 1.39
-4 -5 2 19.85 1.61
4 5 -2 18.25 1.59
4 5 -2 18.23 1.69
4 -5 -2 20.53 1.22
-4 -5 1 81.55 3.8
4 5 -1 87.56 3.69
4 -5 -1 83.78 3.08
4 5 -1 83.32 4.01
-4 5 1 85.89 3.3
-4 -5 0 61.13 3.34
4 5 0 63.78 2.86
4 5 0 58.84 3.36
-4 5 0 62.01 2.67
4 5 1 31.18 1.78
-4 5 -1 30 1.77
-4 -5 -1 28.76 2.34
-4 -5 -2 6.94 1.22
4 5 2 7.93 0.92
4 -5 2 7.53 0.9
-4 5 -2 6.76 0.83
-4 5 -3 0.2 0.22
4 5 3 -0.09 0.16
4 -5 3 0.1 0.17
4 5 4 95.44 3.96
4 -5 4 102.29 4.12
-4 5 -4 101.89 4.17
-4 5 -5 2.62 0.64
4 5 5 2.31 0.55
4 -5 5 2.42 0.57
-4 5 -6 0.05 0.19
4 5 6 -0.28 0.21
4 -5 6 -0.12 0.25
-4 5 -7 9.93 1.41
4 5 7 10 1.24
4 -5 7 9.03 1.21
-4 6 9 51.02 3.05
-4 -6 9 54.37 3.2
4 6 -9 59.11 4.34
4 6 -8 11.28 1.78
-4 6 8 9.81 1.21
-4 -6 8 8.83 1.16
4 6 -7 2.62 0.84
-4 6 7 1.78 0.51
-4 -6 7 1.58 0.51
-4 6 6 40.54 2.41
-4 -6 6 37.17 2.37
4 6 -6 39.16 3.05
4 6 -5 52.78 3.39
-4 6 5 51.46 2.71
-4 -6 5 53.01 2.77
4 6 -4 11.9 1.44
-4 -6 4 10.78 1.08
-4 6 4 10.8 1.08
-4 -6 3 12.26 1.21
-4 6 3 11.2 1.06
4 6 -3 9.97 1.3
4 -6 -3 7.95 0.9
4 6 -3 10.24 1.28
-4 6 2 75.96 3.16
-4 -6 2 75.12 3.56
4 6 -2 79.32 3.78
4 6 -2 81.02 3.94
-4 -6 1 179.97 6.54
4 6 -1 187.84 6.37
4 6 -1 174.87 6.65
-4 6 1 184.67 5.79
-4 -6 0 6.11 1.01
4 6 0 5.17 0.96
-4 6 0 5.06 0.69
4 6 0 5.92 0.84
-4 -6 -1 3.78 0.88
-4 6 -1 2.42 0.49
4 6 1 2.33 0.5
4 -6 1 2.53 0.51
4 6 1 2.87 0.56
4 6 2 78.18 3.22
4 -6 2 74.31 3.21
-4 6 -2 66.08 3.07
-4 -6 -2 66.58 4.1
4 6 3 202.54 6.36
4 -6 3 204.11 6.46
-4 6 -3 186.06 6.37
-4 -6 -3 175.01 7.81
-4 6 -4 0.53 0.34
4 6 4 -0.12 0.22
4 -6 4 0.19 0.24
4 6 5 40.8 2.4
4 -6 5 40.01 2.45
-4 6 -5 44.67 2.71
4 6 6 11.89 1.29
4 -6 6 12.89 1.38
-4 6 -6 15.18 1.65
-4 7 9 37.92 2.59
-4 -7 9 37.89 2.62
4 7 -9 39.72 3.61
-4 7 8 3.3 0.69
4 7 -8 4.78 1.18
-4 -7 8 3.37 0.74
-4 7 7 19.3 1.66
-4 -7 7 18.48 1.66
4 7 -7 15.4 2.02
-4 7 6 12.22 1.28
-4 -7 6 11.68 1.3
4 7 -6 12.88 1.74
4 7 -5 3.99 0.96
-4 -7 4 59.93 3.01
-4 7 4 60.28 2.88
4 7 -4 64.28 3.76
-4 7 3 55.57 2.65
-4 -7 3 54.09 2.93
4 -7 -3 53.76 2.57
4 7 -3 52.19 3.25
-4 -7 2 1.66 0.52
4 7 -2 2.11 0.64
4 7 -2 0.57 0.36
-4 7 2 0.74 0.31
-4 -7 1 46.09 2.88
4 7 -1 44.35 2.69
4 7 -1 48.32 2.99
-4 7 1 42.11 2.24
-4 -7 0 7.49 1.19
4 7 0 7.5 1
4 7 0 6.57 1.07
-4 7 0 7.38 0.85
-4 -7 -1 2.57 0.77
4 7 1 2.41 0.54
4 7 1 1.91 0.64
-4 7 -1 2.01 0.48
4 -7 1 2.37 0.49
4 7 1 2.41 0.5
-4 -7 -2 1.85 0.67
-4 7 -2 3.59 0.66
4 7 2 2.29 0.48
4 -7 2 2.86 0.56
4 7 3 196.82 6.29
4 -7 3 201.42 6.43
-4 7 -3 187.73 6.46
-4 -7 -3 195.06 8.27
-4 7 -4 1.62 0.48
4 7 4 2.09 0.49
4 -7 4 1.92 0.5
-4 7 -5 1.12 0.48
4 7 5 1.38 0.42
4 -7 5 2.22 0.55
4 7 6 49.84 2.79
4 -7 6 48.62 2.85
-4 7 -6 50.33 3.17
4 8 -9 3.31 1.07
-4 -8 8 24.36 2.05
4 8 -8 27.41 2.92
4 8 -7 0.47 0.57
-4 8 7 1.84 0.51
-4 -8 7 1.87 0.55
-4 8 6 8.09 1.01
-4 -8 6 7.25 1
4 8 -6 8.73 1.51
4 8 -5 7.26 1.3
4 8 -4 3.05 0.84
-4 -8 4 2.86 0.65
-4 8 4 2.64 0.56
-4 8 3 64.76 3.03
-4 -8 3 67.57 3.51
4 -8 -3 72.96 3.25
4 8 -3 68.97 3.95
-4 -8 2 6.49 1.05
4 -8 -2 5.19 0.84
4 8 -2 8.38 1.23
4 8 -2 7.39 1.15
-4 8 2 7.55 0.9
-4 -8 1 14.27 1.64
4 8 -1 15.47 1.61
4 8 -1 17.33 1.78
-4 8 1 13.8 1.23
-4 -8 0 38.95 2.86
4 8 0 36.13 2.44
4 8 0 37.09 2.74
-4 8 0 35.93 2.08
-4 -8 -1 5.15 1.07
4 8 1 5.77 0.9
4 8 1 5.62 1.05
4 -8 1 6.15 0.79
4 8 1 5.2 0.7
-4 8 -1 6.99 0.88
-4 -8 -2 37.87 3.13
4 8 2 38.67 2.11
4 -8 2 41.55 2.24
-4 8 -2 38.19 2.27
-4 -8 -3 8.39 1.53
4 8 3 8.13 0.93
4 -8 3 9.45 1.03
-4 8 -3 10.52 1.17
-4 -8 -4 9.18 1.68
-4 8 -4 7.61 1.04
4 -8 4 6.61 0.9
4 -8 5 14.89 1.4
-4 8 -5 13.64 1.51
4 -8 6 40.91 2.57
-4 8 -6 42.48 2.93
4 9 -8 -0.19 0.38
4 9 -7 3.97 1.09
4 9 -6 1.36 0.68
-4 9 5 16.01 1.48
4 9 -5 21.08 2.32
4 9 -4 0.58 0.41
-4 -9 4 1.32 0.52
-4 9 4 1.07 0.4
-4 9 3 26.42 1.83
-4 -9 3 29.57 2.31
4 -9 -3 29.12 2.08
4 9 -3 30.14 2.59
-4 -9 2 35.32 2.61
4 -9 -2 27.93 2.18
4 9 -2 32.35 2.6
4 9 -2 30.66 2.46
-4 9 2 37.99 2.16
-4 -9 1 11.47 1.51
4 9 -1 9.79 1.36
4 9 -1 9.75 1.35
-4 9 1 12.44 1.19
-4 -9 0 5.14 1.02
4 9 0 5.3 1.03
-4 9 0 4.86 0.74
4 9 0 5.39 0.96
4 9 1 0.1 0.19
-4 9 -1 0.36 0.27
4 9 1 0.02 0.23
-4 -9 -2 171.76 7.66
4 9 2 163.2 6.97
-4 9 -2 173.64 5.96
-4 9 -3 34.54 2.27
-4 -9 -3 35.14 3.24
-4 -9 -4 0.38 0.48
-4 9 -4 -0.11 0.21
-4 9 -5 4.46 0.86
4 10 -8 32.21 3.36
4 10 -7 13.8 2.09
-4 10 6 1.53 0.49
4 10 -6 0.42 0.49
-4 10 5 11.47 1.25
4 10 -5 11.36 1.76
-4 10 4 48.53 2.68
-4 -10 4 46.33 3.05
4 10 -4 53.13 3.78
-4 -10 3 3.3 0.78
4 -10 -3 4.65 0.86
4 10 -3 3.97 0.97
-4 10 3 3.68 0.68
-4 -10 2 55.97 3.57
4 -10 -2 62.06 3.36
4 10 -2 61.07 3.82
4 10 -2 65.55 3.76
-4 10 2 57.96 2.93
-4 -10 1 10.03 1.49
4 -10 -1 8.21 1.21
4 10 -1 9.54 1.38
4 10 -1 10.44 1.44
-4 10 1 9.56 1.08
4 10 0 5.99 1.07
-4 -10 0 5.26 1.08
-4 10 0 6.17 0.85
4 10 0 5.2 1.02
-4 -10 -1 4.39 1.05
4 10 1 3.1 0.75
-4 10 -1 3.69 0.69
4 10 1 4.03 0.95
-4 -10 -2 0.49 0.44
-4 10 -2 0.77 0.34
4 10 2 0.34 0.32
-4 -10 -3 1.43 0.75
-4 10 -3 0.12 0.2
-4 -10 -4 2.96 1.1
-4 10 -4 2.12 0.6
4 11 -7 5.41 1.36
4 11 -6 14.06 2.12
-4 11 6 17.44 1.64
-4 11 5 65.65 3.38
4 11 -5 71.55 4.77
4 11 -4 6.99 1.4
-4 -11 4 5.87 1.11
-4 11 4 4.56 0.79
-4 -11 3 22.2 2.21
4 -11 -3 23 2.1
4 11 -3 24.71 2.53
-4 11 3 23.7 1.8
-4 -11 2 59.43 3.86
4 -11 -2 64.1 3.65
4 11 -2 61.37 3.99
-4 11 2 63.69 3.13
-4 -11 1 19.89 2.2
4 -11 -1 18.99 1.98
4 11 -1 21.11 2.16
4 11 -1 21.18 2.1
-4 11 1 20.88 1.65
-4 -11 0 11.32 1.72
4 11 0 11.01 1.5
4 11 0 12.49 1.63
-4 11 0 12.19 1.25
-4 -11 -1 8.75 1.56
4 11 1 9.05 1.31
4 11 1 10.91 1.55
-4 11 -1 9.9 1.15
-4 -11 -2 2.53 0.91
-4 11 -2 2.5 0.6
4 11 2 3.01 0.85
-4 11 -3 0.46 0.3
4 11 3 -0.14 0.24
-4 -11 -4 0.65 0.51
-4 11 -4 1.64 0.54
4 12 -6 0.46 0.49
-4 12 6 0.8 0.37
-4 12 5 73.24 3.67
4 12 -5 83.5 5.4
-4 -12 4 2.29 0.75
4 12 -4 1.55 0.8
-4 12 4 1.92 0.55
-4 -12 3 16.26 1.97
4 12 -3 19.62 2.34
-4 12 3 15.96 1.51
-4 -12 2 6.8 1.3
4 -12 -2 6.89 1.2
4 12 -2 6.45 1.29
-4 12 2 7.58 1.02
-4 -12 1 16.36 2.07
4 -12 -1 12.3 1.65
4 12 -1 16.75 2.02
4 12 -1 18.11 1.97
-4 12 1 14.98 1.42
-4 -12 0 24.07 2.63
4 -12 0 18.83 2.23
4 12 0 25.63 2.42
4 12 0 25.67 2.41
-4 12 0 29.15 2.03
-4 -12 -1 3.28 1
4 12 1 2.87 0.81
-4 12 -1 2.83 0.64
4 12 1 3.44 0.9
-4 -12 -2 19.09 2.51
-4 12 -2 18.71 1.68
-4 -12 -3 2.9 1.08
-4 12 -3 3.91 0.79
4 13 -5 0.2 0.42
-4 13 5 0.67 0.38
-4 -13 4 0.42 0.36
4 13 -4 0.41 0.45
-4 13 4 1.48 0.48
-4 -13 3 0.21 0.35
4 13 -3 -0.18 0.41
-4 13 3 0.18 0.27
-4 -13 2 0.46 0.45
4 -13 -2 0.88 0.48
-4 13 2 1.55 0.48
4 13 -2 1.72 0.8
-4 -13 1 1.71 0.83
4 -13 -1 0.55 0.46
-4 13 1 0.34 0.27
4 13 -1 0.37 0.4
4 13 0 6.07 1.22
-4 -13 0 3.66 1.06
4 -13 0 6.01 1.25
-4 13 0 7.02 0.99
-4 -13 -1 4.99 1.31
4 13 1 4.55 1.03
4 -13 1 3.59 1.06
-4 13 -1 5.52 0.9
-4 -14 2 0.27 0.36
4 -14 -2 0.63 0.41
4 14 -2 0.21 0.33
-4 -14 1 21.53 2.65
4 -14 -1 21.6 2.42
4 14 -1 23.34 2.59
-5 0 10 6.17 1.06
5 0 -10 6.27 1.39
-5 0 9 0.5 0.31
5 0 -9 -0.28 0.43
-5 0 8 0.94 0.45
5 0 -8 0.17 0.4
-5 0 7 0.17 0.25
5 0 -7 -0.15 0.34
5 0 -6 0.4 0.38
-5 0 6 -0.05 0.27
5 0 -5 10.5 1.39
-5 0 4 47.96 2.25
5 0 -4 40.9 2.6
5 0 -3 -0.05 0.17
5 0 -3 0.06 0.18
-5 0 3 0.4 0.2
5 0 -2 2.58 0.52
5 0 -2 1.62 0.53
-5 0 2 2.16 0.44
5 0 -1 -0.23 0.21
-5 0 1 -0.14 0.16
-5 0 0 8.97 0.87
-5 0 -1 -0.25 0.21
5 0 2 12.21 1.31
-5 0 -2 11.67 1.07
-5 0 -3 0.3 0.25
5 0 3 0.12 0.28
-5 0 -4 121.77 4.74
5 0 4 127.36 5.12
-5 0 -5 0.25 0.24
5 0 5 0.65 0.39
-5 0 -6 15.45 1.69
5 0 6 18.37 1.79
5 -1 -10 0.42 0.32
-5 1 10 0.17 0.27
-5 -1 10 0.03 0.21
5 1 -10 0.01 0.34
5 1 -9 0.06 0.27
-5 1 9 0.23 0.32
-5 -1 9 -0.31 0.3
5 -1 -9 0.9 0.63
5 1 -8 4.44 1.07
-5 1 8 8.39 1.15
-5 -1 8 6.67 1.04
5 -1 -8 8.86 1.48
5 1 -7 5.07 1.06
-5 1 7 6.2 0.98
-5 -1 7 3.58 0.75
5 -1 -7 6.18 1.15
5 1 -6 3.92 0.9
-5 1 6 3.54 0.71
-5 -1 6 3.9 0.76
5 -1 -6 3.46 0.83
5 1 -5 4.75 0.92
5 -1 -5 4.31 0.88
-5 1 4 72.08 3.03
-5 -1 4 79.31 3.02
5 -1 -4 74.51 3.65
5 1 -4 67.53 3.49
-5 -1 3 5.62 0.66
-5 1 3 6.34 0.74
5 1 -3 5.48 0.83
5 1 -3 5.89 0.94
5 -1 -3 6.16 0.89
5 -1 -3 4.61 0.79
5 1 -2 25.36 2
5 -1 -2 24.03 1.85
5 -1 -2 25.71 1.67
5 1 -2 24.95 1.67
-5 -1 2 26.36 1.5
-5 1 2 25.21 1.54
5 -1 -1 -0.3 0.27
5 1 -1 -0.14 0.28
-5 -1 1 -0.05 0.11
-5 1 1 0 0.15
-5 -1 0 0.18 0.2
-5 1 0 0.16 0.19
-5 -1 -1 0.27 0.17
-5 1 -1 0.24 0.2
-5 -1 -2 1.34 0.37
-5 1 -2 0.37 0.23
5 -1 2 0.31 0.31
5 1 2 0.71 0.37
-5 -1 -3 15.87 1.34
5 1 3 16.44 1.55
5 -1 3 16.4 1.56
-5 1 -3 15.17 1.34
-5 -1 -4 35.2 2.18
-5 1 -4 33.13 2.18
5 1 4 36.13 2.4
5 -1 4 35.33 2.39
-5 -1 -5 12.96 1.39
-5 1 -5 12.26 1.37
5 1 5 12.26 1.39
5 -1 5 13.23 1.44
-5 -1 -6 11.95 1.44
-5 1 -6 11.85 1.46
5 1 6 14 1.54
5 -1 6 13.07 1.51
5 2 -10 0.94 0.66
5 -2 -10 0.61 0.55
-5 2 10 -0.09 0.21
-5 -2 10 0.46 0.32
5 2 -9 2.29 0.84
5 -2 -9 3.07 0.93
-5 2 9 1.19 0.46
-5 -2 9 1.68 0.57
-5 2 8 -0.7 0.37
5 2 -8 -0.04 0.34
5 -2 -8 -0.3 0.39
-5 -2 8 0.44 0.31
5 2 -7 0.67 0.48
-5 2 7 1.66 0.55
-5 -2 7 1.48 0.53
5 -2 -7 1.55 0.66
-5 2 6 21.57 1.78
-5 -2 6 21.2 1.78
5 -2 -6 21.36 2.08
5 2 -6 18.29 1.91
5 2 -5 0.74 0.41
5 -2 -5 0.19 0.28
-5 2 4 111.9 4.14
-5 -2 4 116.68 3.94
5 -2 -4 119.91 4.86
5 2 -4 107.58 4.74
-5 -2 3 35.24 1.75
-5 2 3 35.49 1.94
5 2 -3 33.68 2.38
5 -2 -3 35.75 2.2
5 -2 -3 34.3 2.18
5 2 -3 32.08 2.16
5 2 -2 0.5 0.25
5 2 -2 1 0.41
5 -2 -2 0.56 0.27
-5 -2 2 1.13 0.29
-5 2 2 1.39 0.36
5 -2 -1 6.12 0.9
5 2 -1 5.97 1.02
5 2 -1 5.81 0.73
-5 -2 1 6.26 0.64
-5 2 1 6.08 0.74
5 2 0 30.13 2.36
-5 -2 0 31.48 1.61
-5 2 0 31.19 1.78
-5 -2 -1 0.11 0.12
-5 2 -1 0.46 0.27
-5 -2 -2 -0.03 0.14
-5 2 -2 0.22 0.22
5 -2 2 -0.52 0.33
5 2 2 0 0.27
-5 -2 -3 3.91 0.64
-5 2 -3 4.28 0.7
5 2 3 4.1 0.78
5 -2 3 3.37 0.73
-5 -2 -4 29.29 1.94
5 2 4 26.15 2.02
5 -2 4 24.47 1.96
-5 2 -4 23.29 1.86
-5 -2 -5 1.51 0.51
-5 2 -5 0.48 0.3
5 2 5 1.37 0.5
5 -2 5 0.63 0.39
-5 -2 -6 0.07 0.26
-5 2 -6 -0.19 0.21
5 2 6 -0.21 0.26
5 -2 6 0.39 0.32
5 3 -10 2.16 0.9
-5 3 10 0.89 0.45
-5 -3 10 1.9 0.62
5 3 -9 2.42 0.89
5 -3 -9 2.52 0.85
-5 3 9 1.2 0.49
-5 -3 9 2.02 0.6
5 3 -8 5.75 1.21
5 -3 -8 7.81 1.4
-5 3 8 6.51 1.02
-5 -3 8 5.62 0.98
5 3 -7 -0.05 0.27
5 -3 -7 0.23 0.34
-5 3 7 0.3 0.32
-5 -3 7 -0.06 0.18
5 3 -6 7.55 1.25
-5 3 6 6.94 1.02
-5 -3 6 9.45 1.18
5 -3 -6 8.71 1.32
5 3 -5 2.47 0.72
5 -3 -5 3.04 0.75
5 3 -4 0.99 0.42
-5 3 4 1.75 0.44
-5 -3 4 1.96 0.4
5 3 -3 0.76 0.44
5 3 -3 1.22 0.45
-5 -3 3 0.29 0.19
-5 3 3 0.76 0.29
-5 -3 3 0.44 0.26
5 3 -2 0.15 0.29
-5 -3 2 0.05 0.08
-5 3 2 0.03 0.12
5 3 -2 0.34 0.29
5 3 -1 6.85 1.09
-5 -3 1 6.8 0.64
-5 3 1 6.76 0.8
5 3 -1 5.94 0.79
5 3 0 21.92 2.05
-5 -3 0 24.08 1.32
-5 3 0 22.95 1.55
-5 -3 -1 6.42 0.69
-5 3 -1 7.29 0.87
-5 -3 -2 49.74 2.25
5 -3 2 47.02 2.7
5 3 2 44.9 2.67
-5 3 -2 46.34 2.46
-5 -3 -3 34.88 1.97
5 3 3 29.72 2.15
5 -3 3 32.31 2.22
-5 3 -3 32.15 2.07
-5 -3 -4 0.18 0.19
-5 3 -4 -0.17 0.27
5 3 4 -0.11 0.29
5 -3 4 -0.25 0.32
-5 -3 -5 1.05 0.42
-5 3 -5 0.79 0.39
5 3 5 0.44 0.33
5 -3 5 0.49 0.27
-5 -3 -6 5.22 0.95
-5 3 -6 4.96 0.98
5 3 6 7.04 1.09
5 -3 6 7.42 1.13
5 4 -9 1.5 0.67
-5 4 9 1.27 0.47
-5 -4 9 2.56 0.68
5 4 -8 0.61 0.47
-5 4 8 0.17 0.3
-5 -4 8 -0.19 0.27
5 4 -7 5.6 1.19
-5 4 7 4.38 0.84
-5 -4 7 4.04 0.81
-5 -4 6 58.96 3.15
5 4 -6 50.77 3.46
5 4 -5 3.13 0.77
-5 4 4 79.83 3.38
-5 -4 4 78.84 2.91
5 4 -4 78.84 4.04
-5 -4 3 0.78 0.34
5 4 -3 0.73 0.44
-5 -4 3 1.48 0.31
-5 4 3 1.44 0.4
5 4 -3 1.24 0.47
-5 -4 2 1.7 0.51
5 4 -2 2 0.62
-5 -4 2 2.33 0.37
-5 4 2 2.59 0.54
5 4 -2 1.87 0.54
-5 -4 1 0.31 0.31
5 4 -1 -0.08 0.22
-5 4 1 0.27 0.25
5 4 -1 -0.02 0.17
5 4 0 34.2 2.64
-5 4 0 33.41 1.95
-5 4 -1 18.6 1.44
-5 4 -2 0.49 0.31
5 -4 2 -0.07 0.27
5 4 2 -0.04 0.21
-5 4 -3 2.26 0.57
5 4 3 1.48 0.5
5 -4 3 2 0.57
-5 4 -4 2.99 0.64
5 4 4 3.83 0.77
5 -4 4 2.64 0.66
-5 4 -5 5.72 0.97
5 4 5 4.5 0.83
5 -4 5 5.17 0.93
-5 4 -6 6.16 1.07
5 4 6 5.84 1
5 -4 6 6.34 1.04
-5 5 9 -0.16 0.3
-5 -5 9 0.16 0.24
5 5 -8 4.28 1.12
-5 5 8 3.49 0.78
-5 -5 8 3.17 0.77
5 5 -7 2.44 0.81
-5 5 7 1.98 0.57
-5 -5 7 0.87 0.41
5 5 -6 -0.14 0.31
-5 5 5 15.62 1.4
5 5 -5 13.52 1.68
-5 5 4 0.31 0.23
5 5 -4 0.66 0.41
-5 -5 3 32.3 2.08
5 5 -3 28.78 2.22
-5 5 3 30.57 1.92
5 5 -3 31.93 2.48
-5 -5 2 12.28 1.35
5 5 -2 11.34 1.28
5 5 -2 10.9 1.42
-5 5 2 13.43 1.2
5 5 -1 6.39 0.9
-5 -5 1 6.98 1.09
5 5 -1 7.66 1.22
-5 5 1 6.97 0.87
5 5 0 47.45 3.25
-5 5 0 51.63 2.57
-5 -5 0 54.12 3.34
-5 5 -1 1.04 0.35
-5 5 -2 -0.03 0.15
5 5 2 -0.02 0.23
5 -5 2 -0.07 0.19
5 5 3 23.38 1.84
5 -5 3 21.44 1.78
-5 5 -3 21.29 1.72
5 5 4 49.97 2.86
5 -5 4 44.67 2.76
-5 5 -4 48.7 2.85
-5 5 -5 5.18 0.93
5 5 5 5.08 0.89
5 -5 5 4.2 0.83
-5 6 9 17.36 1.8
-5 -6 9 15.81 1.74
5 6 -9 17.19 2.31
5 6 -8 1.7 0.72
-5 6 8 1.03 0.45
-5 -6 8 0.8 0.42
5 6 -7 2.74 0.9
-5 6 7 2.82 0.67
-5 -6 7 2.39 0.64
5 6 -6 43.85 3.35
-5 6 5 48.64 2.63
5 6 -5 37.91 2.98
-5 6 4 2.42 0.57
5 6 -4 1.51 0.54
-5 -6 3 8.63 1.09
-5 6 3 11.6 1.18
5 6 -3 11.44 1.43
5 6 -3 10.74 1.44
-5 -6 2 16.71 1.67
5 6 -2 16.35 1.64
5 6 -2 15.58 1.75
-5 6 2 15.6 1.36
-5 -6 1 16.61 1.71
5 6 -1 15.3 1.49
5 6 -1 14.13 1.69
-5 6 1 14.42 1.3
5 6 0 16.74 1.9
-5 6 0 19.15 1.5
-5 -6 0 19.9 2.01
-5 -6 -1 7.83 1.35
5 6 1 8.39 1.34
-5 6 -1 7.09 0.93
5 -6 1 7.58 1
5 6 1 6.75 0.97
5 6 2 55.53 2.95
5 -6 2 52.37 2.89
-5 6 -2 52.17 2.8
5 6 3 16.71 1.53
5 -6 3 15.74 1.51
-5 6 -3 14.11 1.43
-5 6 -4 2.9 0.68
5 6 4 2.82 0.65
5 -6 4 2.57 0.65
-5 6 -5 0.64 0.39
5 6 5 0.24 0.24
5 -6 5 0.24 0.18
5 7 -9 9.8 1.79
-5 7 9 7.39 1.18
-5 -7 9 8.39 1.29
-5 7 8 36.47 2.58
-5 -7 8 35.54 2.64
5 7 -8 39.55 3.52
-5 -7 7 2.8 0.7
5 7 -7 2.5 0.91
5 7 -6 -0.01 0.31
5 7 -5 20.33 2.19
-5 7 5 18.41 1.59
-5 7 4 8.71 1.06
5 7 -4 8.03 1.3
5 7 -3 2.54 0.71
-5 -7 3 4.22 0.82
5 7 -3 3.74 0.89
-5 7 3 3.85 0.69
-5 -7 2 10.89 1.38
5 7 -2 11.37 1.4
5 7 -2 10.45 1.48
-5 7 2 10.74 1.14
5 7 -1 -0.07 0.2
5 7 -1 -0.07 0.3
-5 7 1 0.14 0.18
5 7 0 17.52 1.99
-5 7 0 17.58 1.48
-5 -7 0 19.09 2.05
-5 -7 -1 7.46 1.32
5 7 1 8.8 1.42
5 -7 1 11.13 1.2
5 7 1 7.96 1.02
-5 7 -1 7.77 1
5 7 2 174.27 6.04
5 -7 2 168.47 6.02
-5 7 -2 165.37 5.96
-5 -7 -2 154.91 7.38
5 7 3 26.89 1.98
5 -7 3 28.97 2.09
-5 7 -3 28.14 2.09
5 7 4 18.24 1.62
5 -7 4 18.94 1.7
-5 7 -4 16.76 1.66
-5 7 -5 2.25 0.64
5 7 5 2.79 0.65
5 -7 5 3.75 0.79
5 8 -8 -0.69 0.52
-5 -8 8 0.9 0.43
5 8 -7 12.39 1.92
-5 8 6 2.67 0.63
5 8 -6 2.5 0.81
-5 8 5 -0.16 0.27
5 8 -5 -0.03 0.36
-5 8 4 20.62 1.69
5 8 -4 19.97 2.16
-5 8 3 55.44 2.91
-5 -8 3 56.1 3.28
5 8 -3 54.9 3.56
5 8 -3 56.06 3.62
5 8 -2 8.88 1.31
-5 -8 2 9.05 1.31
5 8 -2 10.36 1.49
-5 8 2 9.23 1.09
-5 -8 1 1.12 0.53
5 8 -1 0.65 0.33
5 8 -1 0.5 0.41
-5 8 1 0.52 0.28
-5 -8 0 0.29 0.31
5 8 0 -0.18 0.38
-5 8 0 -0.02 0.18
5 8 1 37.79 3.14
5 -8 1 41.63 2.46
5 8 1 46.99 2.56
-5 8 -1 46.57 2.62
-5 -8 -1 42.94 3.39
5 8 2 47.92 3.6
5 -8 2 58.21 2.99
-5 8 -2 56.67 3.02
-5 -8 -2 53.14 4
-5 8 -3 6.26 0.98
5 -8 3 6.22 0.93
-5 -8 -3 5.81 1.4
-5 8 -4 5.2 0.93
5 -8 4 5.05 0.87
5 9 -7 3.7 1.12
-5 9 6 15.03 1.54
5 9 -6 11.86 1.87
-5 9 5 7.93 1.09
5 9 -5 7.61 1.44
-5 9 4 19.1 1.68
5 9 -4 22.17 2.34
5 9 -3 14.75 1.84
-5 -9 3 9.7 1.36
-5 9 3 10.58 1.21
-5 -9 2 0.53 0.38
5 9 -2 1.35 0.62
5 9 -2 1.36 0.61
-5 9 2 1.14 0.38
-5 -9 1 28.66 2.59
5 9 -1 30.19 2.48
5 9 -1 28.42 2.6
-5 9 1 31.87 2.11
-5 -9 0 19.67 2.24
5 9 0 24.01 2.38
-5 9 0 22.68 1.77
-5 -9 -1 71.77 4.61
5 9 1 63.16 4.18
-5 9 -1 73.79 3.51
-5 -9 -2 2.2 0.86
-5 9 -2 2.04 0.58
5 9 2 1.09 0.58
-5 9 -3 24.18 2
-5 -9 -3 20.31 2.64
-5 9 -4 10.5 1.35
-5 10 7 0.23 0.21
5 10 -7 0.6 0.62
-5 10 6 -0.12 0.25
5 10 -6 0.88 0.52
-5 10 5 27.73 2.13
5 10 -5 27.55 2.86
-5 10 4 36.56 2.44
5 10 -4 38.5 3.28
-5 -10 3 99.66 5.01
5 10 -3 97.36 5.34
-5 10 3 100.58 4.35
-5 -10 2 1.9 0.69
5 10 -2 1.68 0.68
5 10 -2 2.41 0.82
-5 10 2 1.36 0.45
-5 -10 1 0.2 0.31
-5 10 1 -0.42 0.32
5 10 -1 0.16 0.34
5 10 -1 0.39 0.44
-5 -10 0 1.04 0.6
-5 10 0 0.92 0.4
5 10 0 0.74 0.51
-5 -10 -1 3.36 0.99
-5 10 -1 3.02 0.68
5 10 1 4.49 1.06
5 10 2 29.82 2.9
-5 10 -2 37.04 2.49
-5 -10 -2 36.2 3.43
-5 -10 -3 15.62 2.35
5 10 3 14.4 2
-5 10 -3 17.88 1.75
-5 11 6 13 1.5
5 11 -6 13.94 2.16
-5 11 5 56.81 3.23
5 11 -5 57.72 4.36
-5 11 4 48.61 2.92
5 11 -4 46.51 3.79
-5 -11 3 180.12 7.54
5 11 -3 197.34 8.31
-5 11 3 175.42 6.52
-5 -11 2 2.38 0.76
5 11 -2 2.72 0.83
5 11 -2 1.88 0.73
-5 11 2 2.79 0.67
-5 -11 1 1.31 0.61
5 -11 -1 0.26 0.41
-5 11 1 0.89 0.36
5 11 -1 1.87 0.69
5 11 -1 1.13 0.57
-5 -11 0 -0.71 0.45
-5 11 0 0.16 0.33
5 11 0 0.47 0.4
-5 11 -1 2.35 0.64
5 11 1 1.84 0.73
-5 -11 -2 14.39 2.22
5 11 2 16.44 2.12
-5 11 -2 16.8 1.68
-5 12 5 57.17 3.33
5 12 -5 65.33 4.78
5 12 -4 4.41 1.19
-5 12 4 5.24 0.92
-5 -12 3 24.48 2.5
5 12 -3 28.54 2.92
-5 12 3 26.59 2.12
-5 -12 2 1.8 0.73
5 12 -2 2.08 0.75
-5 12 2 1.84 0.58
5 12 -2 1.25 0.63
-5 -12 1 51.8 3.95
5 12 -1 47.4 3.57
5 12 -1 55.21 3.86
-5 12 1 53.45 3.02
-5 -12 0 44.39 3.79
5 12 0 47.79 3.62
-5 12 0 47.63 2.9
-5 -12 -1 2.95 1.07
-5 12 -1 3.21 0.74
5 12 1 2.41 0.83
-6 0 9 0.2 0.35
6 0 -9 0.38 0.4
-6 0 8 3.91 0.83
6 0 -8 4.3 1.12
6 0 -7 -0.1 0.25
6 0 -6 79.92 4.41
-6 0 5 1.04 0.39
6 0 -5 0.36 0.35
-6 0 4 183.46 5.92
6 0 -4 176.99 6.64
6 0 -3 -0.36 0.31
-6 0 3 0.06 0.16
6 0 -3 -0.2 0.23
6 0 -2 8.56 1.23
-6 0 2 9 0.96
6 0 -1 -0.12 0.27
-6 0 1 0.51 0.24
6 0 0 106.13 5.21
-6 0 0 120.85 4.31
-6 0 -1 0.13 0.21
6 0 2 21.21 1.91
-6 0 -2 22.54 1.66
-6 0 -3 0.47 0.3
6 0 3 -0.31 0.42
-6 0 -4 32.08 2.28
6 0 4 32.54 2.49
-6 0 -5 0.29 0.29
6 0 5 0.45 0.32
-6 1 9 44.57 3.08
-6 -1 9 45.24 3.1
6 -1 -9 47.27 3.8
6 1 -9 39.23 3.5
6 1 -8 -0.49 0.49
-6 1 8 0.39 0.36
-6 -1 8 0.2 0.33
6 1 -7 -0.24 0.43
6 -1 -7 0.33 0.5
6 -1 -6 215.18 8.09
6 1 -6 206.74 7.99
-6 1 5 567.11 14.75
-6 -1 5 564.44 14.56
6 -1 -5 546.15 15.9
6 1 -5 515.7 15.73
-6 -1 4 44.75 2.29
-6 1 4 45.12 2.39
6 -1 -4 43.89 2.8
6 1 -4 40.31 2.73
6 1 -3 -0.06 0.22
6 1 -3 -0.06 0.28
6 -1 -3 -0.04 0.28
-6 -1 3 0.57 0.26
-6 1 3 0.36 0.26
6 -1 -3 0.5 0.33
6 1 -2 10.19 1.39
6 -1 -2 9.69 1.28
-6 -1 2 10.95 1.03
-6 1 2 9.91 1.03
6 -1 -1 62.31 3.6
6 1 -1 63.21 3.76
-6 -1 1 67.36 2.87
-6 1 1 65.93 2.95
6 -1 0 83 4.37
6 1 0 82.33 4.5
-6 -1 0 96.88 3.56
-6 1 0 81.46 3.48
-6 -1 -1 8.19 0.92
-6 1 -1 7.57 0.94
-6 -1 -2 0.98 0.36
-6 1 -2 1.11 0.39
6 -1 2 0.8 0.44
6 1 2 0.72 0.37
-6 -1 -3 0.16 0.2
-6 1 -3 -0.04 0.16
6 -1 3 0 0.22
-6 -1 -4 45.75 2.73
-6 1 -4 41.78 2.68
6 1 4 43.78 2.93
6 -1 4 46.34 3.01
-6 -1 -5 5.46 0.95
-6 1 -5 5.79 1.02
6 1 5 6.01 1.05
6 -1 5 4.07 0.88
6 2 -9 0.5 0.53
6 -2 -9 0.63 0.56
-6 2 9 0.41 0.3
-6 -2 9 0.37 0.3
6 2 -8 -0.14 0.35
-6 2 8 0.15 0.26
-6 -2 8 -0.27 0.34
6 2 -7 -0.1 0.37
6 -2 -7 0.3 0.47
6 -2 -6 62.19 3.8
6 2 -6 57.99 3.67
-6 2 5 24.22 1.76
-6 -2 5 23.4 1.6
6 -2 -5 20.04 1.96
6 2 -5 20.34 1.97
6 2 -4 0.63 0.35
-6 -2 4 1.93 0.43
-6 2 4 1.73 0.46
6 -2 -4 1.21 0.53
6 2 -3 0.21 0.25
6 2 -3 0.46 0.35
6 -2 -3 0.81 0.37
-6 -2 3 0.63 0.27
-6 2 3 0.37 0.27
6 2 -2 0.82 0.45
6 -2 -2 1.95 0.56
-6 -2 2 2.37 0.45
-6 2 2 2 0.48
6 -2 -1 10.93 1.37
6 2 -1 10.57 1.49
-6 -2 1 12.51 1.05
-6 2 1 13.64 1.23
6 -2 0 29.03 2.37
6 2 0 29.65 2.58
-6 -2 0 31.56 1.78
-6 2 0 29.17 1.89
-6 -2 -1 20.74 1.46
-6 2 -1 19.13 1.54
-6 -2 -2 87.2 3.58
6 -2 2 87.91 4.26
6 2 2 90.28 4.32
-6 2 -2 85.08 3.79
-6 -2 -3 49.02 2.64
6 2 3 48.95 3.07
6 -2 3 50.35 3.11
-6 2 -3 46.14 2.72
-6 -2 -4 2.99 0.66
-6 2 -4 3.14 0.72
6 2 4 2.54 0.72
6 -2 4 4.44 0.92
6 3 -9 0.73 0.51
6 -3 -9 1.54 0.73
-6 3 9 0.56 0.36
-6 -3 9 1.47 0.57
6 3 -8 1.95 0.74
-6 3 8 1.99 0.63
-6 -3 8 2.33 0.69
6 -3 -8 0.5 0.39
6 3 -7 6.72 1.27
6 -3 -7 6.17 1.24
6 -3 -6 14.16 1.77
6 3 -6 13.68 1.7
6 3 -5 1.48 0.53
-6 3 5 1.17 0.41
-6 -3 5 0.86 0.28
-6 -3 4 16.91 1.25
-6 3 4 16.13 1.42
6 3 -4 15.75 1.67
-6 3 3 74.22 3.35
6 3 -3 76.98 4.18
6 -3 -3 73.37 3.58
6 3 -3 70.06 3.65
-6 -3 3 75.13 2.99
6 3 -2 21.54 2.13
6 -3 -2 24.76 1.94
-6 3 2 26.02 1.79
6 -3 -1 34.21 2.44
6 3 -1 41.56 3.04
-6 3 1 38.4 2.22
6 -3 0 1.6 0.55
6 3 0 1.65 0.63
-6 3 0 2.34 0.56
-6 3 -1 28.99 1.97
6 -3 2 196.56 7.13
6 3 2 197.27 7.16
-6 3 -2 197.69 6.68
6 3 3 65.32 3.62
6 -3 3 68.72 3.69
-6 3 -3 68.54 3.44
-6 3 -4 0.55 0.37
6 3 4 0.59 0.45
6 -3 4 0.33 0.32
6 4 -9 0.05 0.29
-6 4 9 -0.1 0.19
-6 -4 9 0.21 0.35
6 4 -8 2.13 0.78
6 4 -7 44.01 3.4
-6 4 6 12.59 1.33
6 4 -6 10.85 1.57
6 4 -5 1.31 0.55
-6 4 5 2.4 0.61
6 4 -4 1.36 0.54
-6 4 4 1.25 0.42
-6 4 3 61.73 3.02
6 4 -3 57.47 3.65
6 4 -3 57.3 3.3
6 4 -2 25.17 2.34
-6 4 2 27.22 1.88
6 4 -1 2.3 0.71
-6 4 1 3.37 0.64
6 -4 0 13.59 1.5
6 4 0 14.78 1.86
-6 4 0 15 1.38
-6 4 -1 7.49 1
6 -4 2 189.02 6.93
6 4 2 187.84 6.92
-6 4 -2 187.46 6.54
-6 4 -3 -0.37 0.28
6 4 3 0.55 0.42
6 -4 3 -0.26 0.28
6 4 4 33.7 2.5
6 -4 4 28.92 2.35
-6 4 -4 31.49 2.37
6 5 -8 33.35 3.13
6 5 -7 1.22 0.64
-6 5 6 12.87 1.38
6 5 -6 10.56 1.6
-6 5 5 10.75 1.22
6 5 -5 9.41 1.43
-6 5 4 5.41 0.85
6 5 -4 5.31 1.05
6 5 -3 31.18 2.66
6 5 -3 31.65 2.45
-6 5 3 31.34 2.12
6 5 -2 29.9 2.62
-6 5 2 28.1 1.97
-6 -5 2 27.94 2.26
6 5 -1 22.21 2.29
-6 5 1 24.44 1.81
6 5 0 1.96 0.7
-6 5 0 2.05 0.55
-6 5 -1 2.1 0.55
6 5 1 4.01 1.03
6 5 2 36.52 2.57
6 -5 2 39.08 2.64
-6 5 -2 38.13 2.46
6 5 3 49.91 3.1
6 -5 3 49.6 3.1
-6 5 -3 54.96 3.1
-6 5 -4 7.87 1.19
6 5 4 6.9 1.11
6 -5 4 8.42 1.23
6 6 -8 37.23 3.42
6 6 -7 26.39 2.75
-6 6 6 17.67 1.65
6 6 -6 18.06 2.18
-6 6 5 4.72 0.84
6 6 -5 6.15 1.23
-6 6 4 27.04 2
6 6 -4 25.71 2.36
6 6 -3 27.16 2.55
-6 6 3 26.58 1.99
6 6 -3 28.6 2.38
-6 -6 2 4.01 0.85
6 6 -2 5.23 1.11
-6 6 2 5.51 0.87
-6 -6 1 0.11 0.35
6 6 -1 -0.23 0.28
-6 6 1 0.32 0.26
6 6 0 36.43 3.07
-6 6 0 34.9 2.29
6 6 1 58.6 4.08
6 -6 1 58.06 3.3
6 6 1 61.3 3.42
-6 6 -1 61.68 3.21
6 6 2 11.2 1.39
-6 6 -2 10.34 1.25
6 -6 2 9.43 1.27
6 6 3 69.6 3.72
6 -6 3 62.94 3.57
-6 6 -3 73.76 3.74
6 7 -8 12.25 1.98
6 7 -7 0.36 0.36
-6 7 7 0.64 0.42
-6 7 6 19.78 1.8
6 7 -6 16.45 2.15
-6 7 5 8.26 1.13
6 7 -5 7.48 1.37
-6 7 4 12.26 1.36
6 7 -4 10.05 1.49
6 7 -3 70.63 4.07
6 7 -3 73.61 4.45
-6 7 3 74.47 3.61
-6 -7 2 5.17 1
6 7 -2 2.64 0.81
-6 7 2 3.57 0.71
-6 -7 1 0.14 0.34
6 7 -1 0.4 0.49
-6 7 1 -0.21 0.21
-6 -7 0 0.79 0.56
6 7 0 0.58 0.52
-6 7 0 0.95 0.38
6 7 1 177.26 8.05
6 -7 1 195.95 6.99
6 7 1 201.17 7.04
-6 7 -1 184.68 6.71
6 7 2 1.49 0.66
-6 7 -2 2.57 0.64
6 7 2 2.49 0.67
6 -7 2 2.09 0.61
-6 7 -3 2.96 0.71
6 7 3 3.47 0.77
6 -7 3 3.24 0.77
6 8 -7 0.7 0.61
-6 8 7 -0.19 0.26
-6 8 6 -0.24 0.31
6 8 -6 0.64 0.52
6 8 -5 36.22 3.16
-6 8 5 33.5 2.4
-6 8 4 0.24 0.27
6 8 -4 -0.03 0.22
6 8 -3 3.32 0.95
-6 8 3 2.48 0.62
6 8 -3 1 0.5
-6 -8 2 14.5 1.78
6 8 -2 12.64 1.83
-6 8 2 16.52 1.57
-6 -8 1 0.77 0.52
6 8 -1 0.45 0.38
-6 8 1 1.08 0.41
-6 -8 0 -0.15 0.3
-6 8 0 -0.06 0.24
6 8 0 0.3 0.48
6 8 1 75.98 4.82
6 -8 1 75.22 3.79
-6 8 -1 77.51 3.81
-6 -8 -1 67.4 4.7
-6 8 -2 4.45 0.87
6 8 2 4.66 1.13
6 -8 2 4.42 0.87
-6 9 6 1 0.43
6 9 -6 0.83 0.65
-6 9 5 2.21 0.63
6 9 -5 1.3 0.64
-6 9 4 49.27 2.97
6 9 -4 41.3 3.39
6 9 -3 0.5 0.45
6 9 -3 0.93 0.58
-6 9 3 0.13 0.24
-6 -9 2 2.26 0.73
6 9 -2 1.03 0.55
-6 9 2 1.95 0.6
-6 -9 1 0.48 0.36
-6 9 1 0.45 0.36
6 9 -1 0.9 0.53
6 9 0 98.22 5.55
-6 9 0 93.07 4.32
-6 -9 0 88.35 5.37
-6 -9 -1 8.41 1.62
-6 9 -1 7.77 1.13
6 9 1 9.45 1.65
-6 9 -2 0.84 0.4
6 9 2 0.51 0.41
-6 10 5 0.5 0.35
6 10 -5 -0.25 0.37
6 10 -4 65.04 4.47
-6 10 4 65.53 3.59
6 10 -3 28.64 2.78
6 10 -3 27.28 2.76
-6 10 3 32.32 2.38
-6 -10 2 4.41 1.06
-6 10 2 5.6 0.94
6 10 -2 5.29 1.18
-6 -10 1 0.25 0.32
-6 10 1 0.6 0.37
6 10 -1 0.17 0.28
-6 -10 0 8.97 1.63
6 10 0 14.37 2.01
-6 10 0 13.22 1.49
-6 -10 -1 -0.93 0.59
-6 10 -1 0.31 0.27
6 11 -4 14.09 2.06
-6 11 4 13.54 1.55
6 11 -3 4.9 1.18
-6 11 3 6.33 1.06
-6 -11 2 0.61 0.48
-6 11 2 0.33 0.3
6 11 -2 0.4 0.49
-6 -11 1 17.92 2.3
6 11 -1 19.53 2.38
-6 11 1 18.65 1.8
7 0 -8 -0.08 0.32
-7 0 7 26.67 2.05
7 0 -7 57.55 3.83
-7 0 6 54.32 2.91
7 0 -6 54.25 3.65
-7 0 5 -0.13 0.24
7 0 -5 -0.7 0.4
-7 0 4 26.62 1.87
7 0 -4 23.45 2.21
7 0 -3 0.53 0.37
-7 0 3 -0.09 0.18
7 0 -2 1.1 0.51
-7 0 2 0.95 0.33
-7 0 1 0.32 0.24
7 0 -1 0.58 0.43
-7 0 0 5.74 0.86
7 0 0 7.59 1.35
-7 0 -1 0.08 0.17
-7 0 -2 91.06 4.07
7 0 2 91.71 4.76
-7 0 -3 0.04 0.2
7 0 3 -0.21 0.36
7 -1 -8 0.59 0.48
7 1 -8 1.34 0.7
-7 1 7 0.48 0.37
-7 -1 7 0.1 0.21
7 -1 -7 0.13 0.34
7 1 -7 0.14 0.37
-7 1 6 3.1 0.67
-7 -1 6 2.29 0.55
7 -1 -6 2.52 0.78
7 1 -6 2.19 0.71
7 1 -5 1.74 0.61
-7 -1 5 2.45 0.55
-7 1 5 1.77 0.5
7 -1 -5 1.42 0.57
7 1 -4 5.78 1.1
-7 -1 4 5.8 0.83
-7 1 4 6.66 0.93
7 1 -3 0.38 0.31
7 -1 -3 -0.08 0.21
-7 1 3 0.71 0.34
7 1 -2 3.01 0.82
7 -1 -2 2.74 0.77
-7 -1 2 3.81 0.65
-7 1 2 2.87 0.6
-7 -1 1 0.39 0.25
7 -1 -1 0.21 0.27
7 1 -1 -0.02 0.24
-7 1 1 0.26 0.26
-7 -1 0 2 0.48
-7 1 0 2.16 0.54
7 -1 0 1.58 0.67
7 1 0 1.28 0.58
-7 -1 -1 14.07 1.33
-7 1 -1 12.11 1.29
-7 -1 -2 2.12 0.55
-7 1 -2 1.4 0.45
7 -1 2 1.35 0.6
7 1 2 0.99 0.53
-7 -1 -3 7.06 1.03
-7 1 -3 6.44 1.03
7 1 3 7.81 1.31
7 -1 3 7.45 1.27
7 2 -8 0.1 0.22
7 -2 -8 0.49 0.47
7 2 -7 2.66 0.85
-7 2 7 2.12 0.58
7 -2 -7 3.86 0.99
-7 2 6 47.23 2.76
7 -2 -6 44.89 3.27
7 2 -6 41.29 3.19
7 2 -5 3.77 0.89
-7 2 5 6.32 0.95
7 -2 -5 6.71 1.17
7 2 -4 1.34 0.58
-7 2 4 1.52 0.47
7 2 -3 1.97 0.66
7 -2 -3 2.44 0.68
-7 2 3 3.07 0.65
7 2 -2 3.94 0.97
7 -2 -2 4.52 0.95
-7 2 2 5.71 0.88
7 -2 -1 0.22 0.27
7 2 -1 -0.51 0.47
-7 2 1 0.03 0.18
7 -2 0 10.31 1.52
7 2 0 8.6 1.5
-7 2 0 8.04 1.05
7 2 1 9.73 1.61
-7 2 -1 7.02 1
7 -2 2 20.11 2.03
7 2 2 22.51 2.15
-7 2 -2 17.11 1.65
-7 2 -3 8.37 1.17
7 2 3 8.45 1.34
7 -2 3 8.5 1.34
7 3 -8 8.92 1.6
7 3 -7 0.49 0.41
-7 3 7 0.83 0.38
-7 3 6 27.93 2.09
7 3 -6 21.92 2.28
7 3 -5 0.75 0.43
-7 3 5 1.83 0.55
7 3 -4 0.99 0.53
-7 3 4 0.65 0.37
7 3 -3 -0.02 0.26
-7 3 3 0.03 0.16
7 3 -2 21.16 2.27
-7 3 2 20.26 1.69
7 -3 -1 0.1 0.33
7 3 -1 0.53 0.41
-7 3 1 -0.03 0.16
-7 3 0 6.53 0.96
7 -3 0 4.89 1.03
7 3 0 5.29 1.17
7 3 1 17.57 2.2
-7 3 -1 18.17 1.66
-7 3 -2 0.91 0.44
7 -3 2 0.57 0.39
7 3 2 0.8 0.53
7 4 -8 7.54 1.47
-7 4 8 7.49 1.12
7 4 -7 3.27 0.97
-7 4 7 3.81 0.79
7 4 -6 7.31 1.32
-7 4 6 7.96 1.13
7 4 -5 3.65 0.88
-7 4 5 3.48 0.73
7 4 -4 6.64 1.27
-7 4 4 6.43 0.98
7 4 -3 0.14 0.35
-7 4 3 -0.17 0.22
7 4 -2 0.03 0.28
-7 4 2 0.07 0.26
7 4 -1 11.05 1.71
-7 4 1 9.34 1.17
7 4 0 8.07 1.5
-7 4 0 8.76 1.13
-7 4 -1 0.59 0.33
7 4 1 -0.02 0.29
7 -4 1 -0.57 0.5
7 4 1 0.3 0.33
-7 4 -2 0.12 0.28
7 4 2 0.22 0.35
7 -4 2 0.49 0.44
7 5 -7 3.77 1.05
-7 5 7 3.08 0.73
7 5 -6 -0.13 0.39
-7 5 6 0.08 0.2
7 5 -5 0.94 0.59
-7 5 5 0.34 0.29
7 5 -4 2.12 0.77
-7 5 4 2.59 0.67
7 5 -3 7.29 1.37
-7 5 3 6.9 1.05
7 5 -2 49.46 3.73
-7 5 2 48.74 2.87
7 5 -1 1.64 0.72
-7 5 1 1.44 0.5
-7 5 0 3.19 0.72
7 5 0 3.35 0.97
7 5 1 35.67 3.29
7 -5 1 35.76 2.72
7 5 1 34.94 2.72
-7 5 -1 34.3 2.45
7 5 2 31.82 3.12
7 5 2 35.49 2.75
7 -5 2 30.16 2.54
-7 5 -2 30.8 2.37
-7 6 7 40.02 2.76
7 6 -7 33.43 3.19
7 6 -6 1.78 0.74
-7 6 6 1.69 0.57
-7 6 5 12.34 1.43
7 6 -5 10.11 1.59
7 6 -4 7.19 1.37
-7 6 4 9.01 1.2
7 6 -3 2.49 0.93
-7 6 3 1.36 0.5
7 6 -2 0.07 0.33
-7 6 2 0.1 0.21
-7 6 1 3.35 0.76
7 6 -1 2.39 0.85
7 6 0 8.41 1.55
-7 6 0 8.88 1.2
-7 6 -1 0.87 0.45
7 6 1 0.99 0.58
7 -6 1 0.18 0.25
7 6 1 -0.16 0.31
7 7 -6 5.23 1.22
-7 7 6 6.42 1.06
7 7 -5 0.4 0.41
-7 7 5 0.94 0.42
-7 7 4 5.66 0.98
7 7 -3 0.42 0.5
-7 7 3 -0.13 0.24
7 7 -2 6.18 1.33
-7 7 2 5.52 0.96
-7 7 1 -0.04 0.16
7 7 -1 0.18 0.39
7 7 0 91.21 5.53
-7 7 0 88.44 4.31
7 7 1 15.36 2.18
7 -7 1 17.48 1.85
7 7 1 14.42 1.72
-7 7 -1 15.13 1.64
-7 8 5 11.88 1.46
7 8 -5 10 1.69
-7 8 4 7.66 1.16
7 8 -3 1.78 0.73
-7 8 3 3.14 0.76
-7 8 2 0.81 0.41
7 8 -2 1.02 0.65
-7 8 1 2.81 0.71
7 8 -1 2.75 0.93
7 8 0 73.91 4.97
7 -8 0 75.64 4.06
-7 8 0 73.53 3.93
7 9 -3 8.92 1.64
-7 9 3 11.84 1.46
-7 9 2 8.75 1.25
7 9 -2 10.35 1.75
-8 0 6 99.06 4.41
-8 0 5 0.08 0.2
8 0 -4 6.2 1.21
-8 0 4 7.9 1.08
-8 0 3 -0.18 0.18
8 0 -3 -0.11 0.2
8 0 -2 18.62 2.2
-8 0 2 19.44 1.68
-8 0 1 -0.05 0.17
8 0 -1 -0.33 0.39
-8 0 0 2.26 0.58
8 0 0 1.64 0.7
-8 1 6 27.23 2.13
-8 1 5 1.2 0.42
8 1 -4 0.61 0.46
8 -1 -4 0.68 0.46
-8 1 4 0.75 0.37
8 1 -3 13.76 1.9
8 -1 -3 14.97 1.87
-8 1 3 18.31 1.66
8 1 -2 36.72 3.21
8 -1 -2 38.35 3.1
-8 1 2 34.39 2.35
-8 1 1 0.08 0.22
8 -1 -1 -0.05 0.26
8 1 -1 -0.03 0.3
8 -1 0 21.47 2.41
8 1 0 21.32 2.52
-8 1 0 22.33 1.89
-8 2 6 22.71 1.99
-8 2 5 2.08 0.58
8 2 -4 1.65 0.71
-8 2 4 1.91 0.58
8 2 -3 8.82 1.53
-8 2 3 7.02 1.05
8 2 -2 61.07 4.25
-8 2 2 59.16 3.26
8 2 -1 9.49 1.66
-8 2 1 8.83 1.18
8 -2 0 83.72 4.98
8 2 0 88.47 5.43
-8 2 0 87.06 4.16
-8 3 6 16.65 1.71
-8 3 5 38.58 2.65
8 3 -4 13.58 1.93
-8 3 4 15.07 1.6
8 3 -3 9.01 1.59
-8 3 3 7.08 1.08
-8 3 2 0.51 0.32
8 3 -2 0.04 0.27
-8 3 1 7.99 1.15
8 3 -1 7.09 1.44
8 3 0 98.77 5.9
-8 3 0 107.66 4.79
-8 4 5 19.55 1.89
8 4 -4 20.94 2.47
-8 4 4 19.79 1.87
8 4 -3 18.38 2.33
-8 4 3 18.13 1.77
-8 4 2 3.65 0.8
8 4 -2 4.28 1.13
-8 4 1 0.38 0.28
8 4 -1 0.6 0.5
8 5 -4 14.97 2.12
-8 5 4 21.53 1.97
8 5 -3 8.11 1.59
-8 5 3 7.95 1.19
-8 5 2 5.47 0.98
8 5 -2 5.46 1.3
